#------------------------------------------------------------------------------
#$Date: 2019-11-17 06:37:29 +0200 (Sun, 17 Nov 2019) $
#$Revision: 228451 $
#$URL: file:///home/coder/svn-repositories/cod/cif/7/12/12/7121229.cif $
#------------------------------------------------------------------------------
#
# This file is available in the Crystallography Open Database (COD),
# http://www.crystallography.net/
#
# All data on this site have been placed in the public domain by the
# contributors.
#
data_7121229
loop_
_publ_author_name
'Borisova, Kseniya K.'
'Nikitina, Eugeniya V.'
'Novikov, Roman A.'
'Khrustalev, Victor N.'
'Dorovatovskii, Pavel V.'
'Zubavichus, Yan V.'
'Kuznetsov, Maxim L.'
'Zaytsev, Vladimir P.'
'Varlamov, Alexey V.'
'Zubkov, Fedor I.'
_publ_section_title
;
 Diels-Alder reactions between hexafluoro-2-butyne and bis-furyl dienes:
 kinetic versus thermodynamic control.
;
_journal_issue                   23
_journal_name_full
'Chemical communications (Cambridge, England)'
_journal_page_first              2850
_journal_page_last               2853
_journal_paper_doi               10.1039/c7cc09466c
_journal_volume                  54
_journal_year                    2018
_chemical_formula_moiety         'C14 H10 F6 O2 S'
_chemical_formula_sum            'C14 H10 F6 O2 S'
_chemical_formula_weight         356.28
_space_group_crystal_system      triclinic
_space_group_IT_number           2
_space_group_name_Hall           '-P 1'
_space_group_name_H-M_alt        'P -1'
_symmetry_space_group_name_Hall  '-P 1'
_symmetry_space_group_name_H-M   'P -1'
_atom_sites_solution_hydrogens   geom
_atom_sites_solution_primary     difmap
_atom_sites_solution_secondary   difmap
_audit_creation_method           SHELXL-2014/6
_audit_update_record
;
2017-08-22 deposited with the CCDC.
2018-01-24 downloaded from the CCDC.
;
_cell_angle_alpha                97.81(3)
_cell_angle_beta                 98.93(3)
_cell_angle_gamma                102.32(3)
_cell_formula_units_Z            2
_cell_length_a                   5.3500(11)
_cell_length_b                   9.6550(19)
_cell_length_c                   13.985(3)
_cell_measurement_reflns_used    600
_cell_measurement_temperature    100(2)
_cell_measurement_theta_max      33.0
_cell_measurement_theta_min      3.3
_cell_volume                     686.4(3)
_computing_cell_refinement       iMosflm
_computing_data_collection       Automar
_computing_data_reduction        iMosflm
_computing_molecular_graphics    'Bruker SHELXTL'
_computing_publication_material  'Bruker SHELXTL'
_computing_structure_refinement  'SHELXL-2014/6 (Sheldrick, 2014)'
_computing_structure_solution    'SHELXS-97 (Sheldrick 2008)'
_diffrn_ambient_temperature      100(2)
_diffrn_measured_fraction_theta_full 0.976
_diffrn_measured_fraction_theta_max 0.925
_diffrn_measurement_device_type  'MAR CCD'
_diffrn_measurement_method       '/f scan'
_diffrn_radiation_type           synchrotron
_diffrn_radiation_wavelength     0.96990
_diffrn_reflns_av_R_equivalents  0.1246
_diffrn_reflns_av_unetI/netI     0.1176
_diffrn_reflns_Laue_measured_fraction_full 0.976
_diffrn_reflns_Laue_measured_fraction_max 0.925
_diffrn_reflns_limit_h_max       6
_diffrn_reflns_limit_h_min       -6
_diffrn_reflns_limit_k_max       12
_diffrn_reflns_limit_k_min       -11
_diffrn_reflns_limit_l_max       17
_diffrn_reflns_limit_l_min       -17
_diffrn_reflns_number            13089
_diffrn_reflns_point_group_measured_fraction_full 0.976
_diffrn_reflns_point_group_measured_fraction_max 0.925
_diffrn_reflns_theta_full        35.587
_diffrn_reflns_theta_max         38.490
_diffrn_reflns_theta_min         3.316
_exptl_absorpt_coefficient_mu    0.731
_exptl_absorpt_correction_T_max  0.850
_exptl_absorpt_correction_T_min  0.800
_exptl_absorpt_correction_type   multi-scan
_exptl_absorpt_process_details   'Scala (Evans, 2005)'
_exptl_crystal_colour            colourless
_exptl_crystal_density_diffrn    1.724
_exptl_crystal_description       prism
_exptl_crystal_F_000             360
_exptl_crystal_size_max          0.30
_exptl_crystal_size_mid          0.20
_exptl_crystal_size_min          0.20
_refine_diff_density_max         0.539
_refine_diff_density_min         -0.488
_refine_diff_density_rms         0.110
_refine_ls_extinction_coef       0.115(8)
_refine_ls_extinction_expression Fc^*^=kFc[1+0.001xFc^2^\l^3^/sin(2\q)]^-1/4^
_refine_ls_extinction_method     SHELXL
_refine_ls_goodness_of_fit_ref   1.003
_refine_ls_hydrogen_treatment    constr
_refine_ls_matrix_type           full
_refine_ls_number_parameters     209
_refine_ls_number_reflns         2813
_refine_ls_number_restraints     0
_refine_ls_restrained_S_all      1.003
_refine_ls_R_factor_all          0.0810
_refine_ls_R_factor_gt           0.0710
_refine_ls_shift/su_max          0.000
_refine_ls_shift/su_mean         0.000
_refine_ls_structure_factor_coef Fsqd
_refine_ls_weighting_details
'w=1/[\s^2^(Fo^2^)+(0.0406P)^2^+1.4P] where P=(Fo^2^+2Fc^2^)/3'
_refine_ls_weighting_scheme      calc
_refine_ls_wR_factor_gt          0.1736
_refine_ls_wR_factor_ref         0.1835
_reflns_Friedel_coverage         0.000
_reflns_number_gt                2348
_reflns_number_total             2813
_reflns_threshold_expression     'I > 2\s(I)'
_cod_data_source_file            c7cc09466c2.cif
_cod_data_source_block           6
_cod_depositor_comments
'Adding full bibliography for 7121226--7121231.cif.'
_cod_database_code               7121229
_shelx_space_group_comment
;
The symmetry employed for this shelxl refinement is uniquely defined
by the following loop, which should always be used as a source of
symmetry information in preference to the above space-group names.
They are only intended as comments.
;
_shelx_estimated_absorpt_t_min   0.810
_shelx_estimated_absorpt_t_max   0.867
_shelxl_version_number           2014/6
_shelx_res_file
;
TITL XB81 in P-1
CELL 0.96990  5.3500  9.6550  13.9850  97.805  98.928 102.325
ZERR    2.00  0.0011  0.0019   0.0028   0.030   0.030   0.030
LATT 1
SFAC C H O F S
DISP C 0.007 0.003 25.571
DISP H -0 0 0.636
DISP O 0.021 0.012 81.964
DISP F 0.033 0.02 133.388
DISP S 0.197 0.229 1388.721
UNIT 28 20 4 12 2
TEMP -173.0
SIZE 0.20 0.20 0.30

OMIT     3   3  11
OMIT    -1   2   1
OMIT     3  -1  14
OMIT     0   2   3
OMIT    -4   9   2
OMIT    -1   0   4
OMIT     0  -2   3
OMIT     3   7   4
OMIT    -2   0   6
OMIT    -1   0   8
OMIT     3   2  12
OMIT     4   5   3
OMIT    -1   2   5
OMIT     1   0   4
OMIT     1  -4   6
OMIT     4   1  10
OMIT     0  -2   5
OMIT    -1   2   9
OMIT    -3   2   2
OMIT     4  -2  11
OMIT     0  -2   6
OMIT    -1  -2   7
OMIT     5  -5   9
OMIT     3   7   6
OMIT     3   0  13
OMIT    -4   4   7
OMIT    -1  -4   6
OMIT     1   2   4
OMIT     4   0  10
OMIT     1   0   8
OMIT     3   3  10
OMIT     2   9   5
OMIT    -2  -4   5
OMIT     1   4   1
OMIT    -1  -2   4
OMIT    -1  -4   1
OMIT     2   0   6
OMIT     1   0  11
OMIT     4   4   7
OMIT    -4   0   8
OMIT    -3  11   4
OMIT    -1  -2   9
OMIT     5  -2   7
OMIT     3   2   0
OMIT    -3   2   6
OMIT     4  -4  11
OMIT     0   4   1
OMIT     0  -2  11
OMIT    -1   2   8
OMIT     2  -2   6
OMIT     3  -4   3
OMIT    -3   6   2
OMIT    -2   2   2
OMIT     2   2   0
OMIT     0  -2   4
OMIT     1  -2   3
OMIT     3   1  13
OMIT     1   2   1
OMIT     4   5   5
OMIT    -1   4   4
OMIT    -3   4   8
OMIT     4   3   8
OMIT     4  -2   1
OMIT    -2  -2  11
OMIT     2   2   3
OMIT     0   4   7
L.S. 12
BOND $H
ACTA
CONF

WGHT    0.040600    1.400000
EXTI    0.114854
FVAR       4.31371
F1    4    0.881196    0.489539    0.239461    11.00000    0.03771    0.02832 =
         0.04794    0.01356    0.02009    0.01722
F2    4    0.526478    0.376643    0.275196    11.00000    0.03978    0.01633 =
         0.06276    0.00920    0.01455    0.00251
F3    4    0.853757    0.479986    0.391352    11.00000    0.06896    0.04361 =
         0.03250    0.00965   -0.00414    0.03459
F4    4    0.685345    0.632587    0.534392    11.00000    0.05821    0.03587 =
         0.02896    0.01346    0.00255    0.00379
F5    4    0.674510    0.855913    0.545928    11.00000    0.06216    0.04414 =
         0.02540   -0.00639   -0.00150    0.02471
F6    4    1.010452    0.787583    0.508867    11.00000    0.02952    0.05251 =
         0.03051    0.00682   -0.00528    0.00506
O1    3    0.333665    0.758071    0.257483    11.00000    0.01944    0.02104 =
         0.02409    0.00065    0.00186    0.00632
O2    3    0.498269    0.971890    0.152916    11.00000    0.02479    0.02216 =
         0.03147    0.00622    0.00196    0.01026
C1    1    0.555925    0.792614    0.020699    11.00000    0.02849    0.02911 =
         0.02504    0.00886    0.00573    0.00781
AFIX  23
H1A   2    0.683693    0.739881    0.000015    11.00000   -1.20000
H1B   2    0.517815    0.852676   -0.029154    11.00000   -1.20000
AFIX   0
S2    5    0.256801    0.663283    0.025026    11.00000    0.02413    0.02943 =
         0.02371    0.00428   -0.00019    0.00565
C3    1    0.383456    0.577516    0.124175    11.00000    0.02539    0.02028 =
         0.02498    0.00133    0.00359    0.00470
AFIX  23
H3A   2    0.238685    0.505137    0.138208    11.00000   -1.20000
H3B   2    0.512166    0.526349    0.102431    11.00000   -1.20000
AFIX   0
C3A   1    0.511606    0.684102    0.217501    11.00000    0.01892    0.01873 =
         0.02383    0.00291    0.00345    0.00667
C4    1    0.624082    0.628336    0.309998    11.00000    0.02161    0.01763 =
         0.02556    0.00441    0.00325    0.00428
C5    1    0.626382    0.728933    0.386561    11.00000    0.02288    0.02096 =
         0.02373    0.00375    0.00167    0.00361
C6    1    0.514501    0.844867    0.341563    11.00000    0.02582    0.01972 =
         0.02229   -0.00053   -0.00186    0.00640
AFIX  13
H6    2    0.438405    0.906314    0.386855    11.00000   -1.20000
AFIX   0
C6A   1    0.737772    0.928218    0.296579    11.00000    0.02206    0.01699 =
         0.02795    0.00271   -0.00029    0.00523
AFIX  13
H6A   2    0.908444    0.958629    0.343667    11.00000   -1.20000
AFIX   0
C7    1    0.674728    1.051663    0.242290    11.00000    0.02946    0.01883 =
         0.03427    0.00339   -0.00142    0.00655
AFIX  13
H7    2    0.608319    1.125799    0.281379    11.00000   -1.20000
AFIX   0
C8    1    0.918978    1.109343    0.202806    11.00000    0.03238    0.02245 =
         0.04369    0.01231    0.00087    0.00108
AFIX  43
H8    2    1.044170    1.198031    0.227020    11.00000   -1.20000
AFIX   0
C9    1    0.920544    1.009250    0.127025    11.00000    0.02357    0.02858 =
         0.03782    0.01374    0.00135    0.00549
AFIX  43
H9    2    1.047727    1.011804    0.086426    11.00000   -1.20000
AFIX   0
C9A   1    0.675272    0.889685    0.119122    11.00000    0.02212    0.02208 =
         0.02934    0.00877    0.00414    0.01089
C9B   1    0.738383    0.811535    0.207324    11.00000    0.01885    0.01944 =
         0.02575    0.00519    0.00109    0.00637
AFIX  13
H9B   2    0.909206    0.784231    0.210571    11.00000   -1.20000
AFIX   0
C10   1    0.725161    0.495382    0.305263    11.00000    0.03229    0.02256 =
         0.02480    0.00741    0.00571    0.00827
C11   1    0.747367    0.747662    0.493396    11.00000    0.03662    0.02559 =
         0.02584    0.00371    0.00242    0.00786

HKLF 4

REM  XB81 in P-1
REM R1 =  0.0710 for    2348 Fo > 4sig(Fo)  and  0.0810 for all    2813 data
REM    209 parameters refined using      0 restraints

END

WGHT      0.0406      1.1104

REM Highest difference peak  0.539,  deepest hole -0.488,  1-sigma level  0.110
Q1    1   0.2452  0.5981  0.0636  11.00000  0.05    0.54
Q2    1   0.7466  0.8182 -0.0276  11.00000  0.05    0.49
Q3    1   0.1220  0.6576  0.0219  11.00000  0.05    0.48
Q4    1   0.1662  0.5834 -0.0536  11.00000  0.05    0.44
Q5    1   0.9167  0.5914  0.2031  11.00000  0.05    0.42
Q6    1   0.4957  0.3097  0.3356  11.00000  0.05    0.42
Q7    1   0.6676  0.3873  0.3037  11.00000  0.05    0.40
Q8    1   0.3768  0.8411 -0.0699  11.00000  0.05    0.39
Q9    1   0.2628  0.7189 -0.0374  11.00000  0.05    0.37
Q10   1   0.2788  0.7392 -0.0083  11.00000  0.05    0.34
Q11   1   0.6929  0.5847  0.5791  11.00000  0.05    0.34
Q12   1   0.0268  0.6258 -0.0398  11.00000  0.05    0.34
Q13   1   0.6095  0.6479  0.2825  11.00000  0.05    0.34
Q14   1   0.7973  0.9467  0.3994  11.00000  0.05    0.34
Q15   1   0.6763  0.6957  0.2245  11.00000  0.05    0.33
Q16   1   1.0501  0.4031  0.3764  11.00000  0.05    0.33
Q17   1   1.1454  0.8610  0.0227  11.00000  0.05    0.33
Q18   1   0.4103  0.6098  0.1546  11.00000  0.05    0.32
Q19   1   1.2202  0.5283  0.2784  11.00000  0.05    0.32
Q20   1   0.1047  0.4605  0.0994  11.00000  0.05    0.31
;
_shelx_res_checksum              14006
_shelx_hkl_file
;
  -6  -3   2    5.41  302.42   1
   6   3  -2 2117.59  317.69   1
  -6  -3   3 2624.63  856.95   1
   6   3  -3 3284.01  862.85   1
  -6  -3   4  301.58  133.23   1
   6   3  -4  370.25  139.20   1
  -6  -3   5  721.16  240.99   1
   6   3  -5  698.39  247.64   1
  -6  -3   6  919.11  341.42   1
   6   3  -6 1255.05  348.76   1
  -6  -3   7 1004.43  187.62   1
   6   3  -7 1095.60  189.12   1
  -6  -2   1  687.69  235.49   1
   6   2  -1  700.33  240.42   1
  -6  -2   2   48.64   20.45   1
   6   2  -2   34.86   47.07   1
  -6  -2   3   16.87   34.34   1
   6   2  -3   33.43   39.22   1
   6   2  -4   -1.27   19.29   1
  -6  -2   4    6.11   26.45   1
  -6  -2   5  870.57  279.32   1
   6   2  -5  824.17  284.59   1
  -6  -2   6  305.13   55.58   1
   6   2  -6  221.83   55.86   1
  -6  -2   7  327.94  138.05   1
   6   2  -7  367.05  143.99   1
  -6  -2   8  507.80  183.46   1
   6   2  -8  506.38  187.71   1
  -6  -2   9 1325.86  399.79   1
   6   2  -9 1230.48  403.41   1
  -6  -1   1    1.79   25.07   1
   6   1  -1    3.41   28.76   1
  -6  -1   2  275.00  115.15   1
   6   1  -2  278.24  120.33   1
  -6  -1   3  298.09  120.74   1
   6   1  -3  293.49  125.75   1
  -6  -1   4  706.57  233.06   1
   6   1  -4  669.60  237.45   1
  -6  -1   5  505.74  190.25   1
   6   1  -5  575.04  194.91   1
   6   1  -6 1465.10  272.92   1
  -6  -1   6 1604.16  472.17   1
  -6  -1   7 3382.78 1080.98   1
   6   1  -7 4167.45 1088.66   1
  -6  -1   8 1433.76  530.16   1
   6   1  -8 2150.01  538.63   1
  -6  -1   9  880.33  309.65   1
   6   1  -9 1054.43  316.88   1
  -6  -1  10  191.17   91.88   1
   6   1 -10  176.37   97.34   1
  -6   0   1  384.83  150.76   1
   6   0  -1  416.22  153.59   1
  -6   0   2  408.44   78.32   1
   6   0  -2  428.31   79.60   1
  -6   0   3 4492.42 1325.67   1
   6   0  -3 4760.84 1331.68   1
  -6   0   4  292.66  116.76   1
   6   0  -4  270.82  121.66   1
  -6   0   5  426.93  149.88   1
   6   0  -5  359.93  154.24   1
  -6   0   6 1312.03  401.53   1
   6   0  -6 1268.72  405.99   1
  -6   0   7 1173.72  373.27   1
   6   0  -7 1209.71  378.44   1
  -6   0   8  194.68   84.89   1
   6   0  -8  142.72   89.14   1
  -6   0   9   19.08   36.53   1
   6   0  -9   19.09   41.07   1
  -6   0  10  359.19  137.76   1
   6   0 -10  334.04  144.04   1
  -6   1   1  129.33   68.36   1
   6  -1  -1  118.81   72.16   1
  -6   1   2    7.93   28.96   1
   6  -1  -2   20.94   32.32   1
  -6   1   3  233.55  117.43   1
   6  -1  -3  345.20  121.31   1
  -6   1   4    5.83   29.96   1
   6  -1  -4   29.86   34.80   1
  -6   1   5 1075.38  329.26   1
   6  -1  -5  982.00  334.79   1
  -6   1   6   -0.15   21.69   1
   6  -1  -6   -0.47   27.35   1
  -6   1   7    8.17   15.36   1
   6  -1  -7    1.86   19.45   1
   6  -1  -8   63.26   25.75   1
  -6   1   8   81.42   52.31   1
  -6   1   9 1043.12  363.19   1
   6  -1  -9 1292.11  369.51   1
  -6   1  10  689.41  147.16   1
   6  -1 -10    1.93  146.57   1
  -6   2   1 3448.47 1000.43   1
   6  -2  -1 3459.42 1008.04   1
  -6   2   2 1906.20  496.98   1
   6  -2  -2 1314.37  500.99   1
  -6   2   3  113.38   26.87   1
   6  -2  -3   87.13   27.66   1
  -6   2   4  399.67  132.97   1
   6  -2  -4  268.73  134.65   1
  -6   2   5 1442.59  477.98   1
   6  -2  -5 1707.63  481.93   1
  -6   2   6  123.99   68.12   1
   6  -2  -6  117.76   72.02   1
  -6   2   7  143.35   72.41   1
   6  -2  -7  124.13   77.01   1
  -6   2   8 1479.19  413.96   1
   6  -2  -8 1158.16  419.60   1
  -6   2   9 1145.23  129.91   1
   6  -2  -9  120.19  237.62   1
  -6   2  10  124.42   56.28   1
   6  -2 -10   12.87   59.12   1
  -6   3   1 3224.54  898.56   1
   6  -3  -1 2907.27  906.28   1
  -6   3   2 1593.56  498.98   1
   6  -3  -2 1730.68  507.20   1
  -6   3   3  127.93   68.24   1
   6  -3  -3  113.76   72.20   1
  -6   3   4   18.17   34.87   1
   6  -3  -4   33.16   37.99   1
  -6   3   5  476.04   91.30   1
   6  -3  -5  516.61   92.73   1
  -6   3   6  328.54  127.67   1
   6  -3  -6  309.99  130.45   1
  -6   3   7  150.15   34.65   1
   6  -3  -7  150.60   80.31   1
  -6   3   8 2054.85  351.61   1
   6  -3  -8   33.69  348.49   1
  -6   3   9  407.23  103.27   1
   6  -3  -9    3.99  100.39   1
  -6   4   1 2780.56  838.72   1
   6  -4  -1 2976.89  845.07   1
  -6   4   2  986.25  313.13   1
   6  -4  -2  976.55  319.61   1
   6  -4  -3  220.08  104.01   1
  -6   4   4  488.71  174.25   1
   6  -4  -4  491.33  181.47   1
  -6   4   5 1353.93  415.97   1
   6  -4  -6  110.99   30.52   1
  -6   4   6   89.97   61.29   1
  -6   4   7  187.04   65.00   1
   6  -4  -7    7.11   67.31   1
   6  -4  -8   -4.18   32.17   1
  -6   4   8  252.02   76.02   1
  -6   5   1 1483.10  420.31   1
   6  -5  -1 1223.57  427.49   1
  -6   5   2  736.23  255.15   1
   6  -5  -2  827.11  261.49   1
   6  -5  -3 1145.11  200.17   1
  -6   5   3 1097.67  351.80   1
  -6   5   4  346.57  143.96   1
   6  -5  -4  415.24  149.55   1
  -6   5   5 1128.93  365.80   1
   6  -5  -5 1216.85  371.80   1
  -6   5   6  353.16   95.55   1
   6  -5  -6    4.96   94.73   1
  -6   5   7  150.34   60.60   1
   6  -5  -7   -7.76   59.06   1
  -6   6   1 2135.04  684.13   1
   6  -6  -1 2604.71  695.67   1
  -6   6   2 2585.20  470.73   1
   6  -6  -2 2849.10  797.18   1
  -6   6   3  412.87  167.91   1
   6  -6  -3  555.59  177.48   1
  -6   6   4 1576.00  381.42   1
   6  -6  -4  755.23  387.95   1
  -6   6   5 2022.67  365.71   1
   6  -6  -5    6.20  368.14   1
  -6   6   6  120.24   53.90   1
   6  -6  -6    0.47   57.01   1
  -6   7   1   15.02   21.96   1
   6  -7  -1   21.12   43.76   1
  -6   7   2  524.71  208.40   1
   6  -7  -2  748.63  221.14   1
  -6   7   3 1376.96  268.54   1
   6  -7  -3    0.26  274.04   1
  -6   7   4   15.23   35.16   1
   6  -7  -4   -4.31   41.92   1
  -5  -6   5    2.64   23.58   1
   5   6  -5   -5.49   31.80   1
   5   6  -6  249.78  112.01   1
  -5  -5   1  -16.06  161.63   1
   5   5  -1 1000.47  176.83   1
  -5  -5   2    0.18  225.87   1
   5   5  -2 1444.51  237.65   1
  -5  -5   3  -16.00  351.73   1
   5   5  -3 2287.07  359.39   1
  -5  -5   4  846.83  284.98   1
   5   5  -4  892.98  285.48   1
   5   5  -5   39.46   21.41   1
  -5  -5   5   23.00   35.51   1
   5   5  -6 1337.21  248.55   1
  -5  -5   6 1464.62  436.19   1
  -5  -5   7   88.67   67.37   1
   5   5  -7  129.08   68.51   1
  -5  -5   8  396.62  142.64   1
   5   5  -8  304.58  141.15   1
  -5  -5   9  413.55  155.81   1
   5   5  -9  385.54  156.71   1
  -5  -5  10  372.40   74.17   1
  -5  -4   1   80.49  160.40   1
   5   4  -1  863.38  172.58   1
  -5  -4   2 3274.55  934.74   1
   5   4  -2 3121.86  938.81   1
  -5  -4   3  340.93  119.28   1
   5   4  -3  231.92  119.14   1
  -5  -4   4  134.71   75.50   1
   5   4  -4  148.66   76.45   1
  -5  -4   5 2085.75  587.11   1
   5   4  -5 1811.10  587.08   1
  -5  -4   6  541.68  200.91   1
   5   4  -6  586.83  200.48   1
  -5  -4   7  848.99  256.16   1
   5   4  -7  668.94  255.82   1
  -5  -4   8   35.81   46.16   1
   5   4  -8   67.79   48.51   1
  -5  -4   9   33.68   35.87   1
   5   4  -9   16.17   39.33   1
  -5  -4  10    7.73   38.14   1
   5   4 -10    6.63   29.74   1
  -5  -4  11   90.82   58.38   1
   5   4 -11   37.07   54.16   1
  -5  -3   1  307.86   62.53   1
   5   3  -1  336.19  133.59   1
  -5  -3   2  479.86  183.38   1
   5   3  -2  546.97  188.11   1
  -5  -3   3 2362.46  677.40   1
   5   3  -3 2195.80  678.28   1
   5   3  -4 2211.13  392.06   1
  -5  -3   4 2261.45  664.91   1
  -5  -3   5  106.87   60.83   1
   5   3  -5   82.83   61.79   1
  -5  -3   6 1801.92  577.82   1
   5   3  -6 2033.78  578.40   1
  -5  -3   7 2147.91  331.93   1
   5   3  -7 1625.24  330.49   1
  -5  -3   8  653.87  226.31   1
   5   3  -8  660.69  226.88   1
  -5  -3   9  941.30  285.80   1
   5   3  -9  794.11  286.49   1
  -5  -3  10 1071.64  301.06   1
   5   3 -10  765.10  302.00   1
  -5  -3  11  780.03  256.03   1
   5   3 -11  746.36  258.41   1
  -5  -3  12  933.09  262.35   1
   5   3 -12  608.83  261.57   1
  -5  -2   1  396.06  161.13   1
   5   2  -1  479.83  164.52   1
  -5  -2   2  472.56  175.66   1
   5   2  -2  495.90  180.15   1
  -5  -2   3 4303.92 1237.11   1
   5   2  -3 4280.79 1239.72   1
  -5  -2   4 3054.07  929.00   1
   5   2  -4 3321.61  929.38   1
  -5  -2   5   25.43   42.82   1
   5   2  -5   69.63   45.17   1
  -5  -2   6 4903.06 1364.06   1
   5   2  -6 4594.51 1364.12   1
  -5  -2   7 3247.76  533.42   1
   5   2  -7 2854.29  532.82   1
  -5  -2   8 1529.01  469.43   1
   5   2  -8 1525.65  469.40   1
  -5  -2   9 1671.73  289.91   1
   5   2  -9 1615.70  502.91   1
  -5  -2  10  660.91  208.78   1
   5   2 -10  525.90  209.05   1
  -5  -2  11   35.03   40.87   1
   5   2 -11   32.30   41.48   1
  -5  -2  12  153.65   74.05   1
   5   2 -12  103.13   74.42   1
  -5  -2  13   39.71   37.38   1
   5   2 -13    2.59   33.49   1
  -5  -1   1  111.75   63.68   1
   5   1  -1  106.65   66.28   1
  -5  -1   2 5349.25 1566.14   1
   5   1  -2 5623.15 1570.31   1
  -5  -1   3 1106.81  319.93   1
   5   1  -3  864.71  323.73   1
  -5  -1   4 2070.65  614.48   1
   5   1  -4 2036.08  616.74   1
  -5  -1   5   30.03   18.14   1
   5   1  -5   41.07   35.89   1
  -5  -1   6  335.79  132.61   1
   5   1  -6  339.89  133.00   1
   5   1  -7  154.53   79.18   1
  -5  -1   8 1067.99  332.19   1
   5   1  -8 1015.93  332.86   1
  -5  -1   9  145.37   70.94   1
   5   1  -9  106.78   71.72   1
  -5  -1  10   -8.76   21.58   1
   5   1 -10   -6.67   24.12   1
  -5  -1  11  112.81   70.97   1
   5   1 -11  136.68   73.06   1
  -5  -1  12  166.10   78.27   1
   5   1 -12  124.44   80.94   1
  -5  -1  13   40.81   35.87   1
   5   1 -13   -2.31   40.76   1
  -5   0   1 2458.33  739.85   1
   5   0  -1 2566.77  744.26   1
  -5   0   2 3874.23 1169.18   1
   5   0  -2 4247.51 1172.33   1
  -5   0   3 4069.46  620.57   1
   5   0  -3 2979.89  619.47   1
  -5   0   4  350.49  127.78   1
   5   0  -4  277.40  131.04   1
  -5   0   5  795.79  236.28   1
   5   0  -5  586.13  239.12   1
  -5   0   6 5613.24 1594.96   1
   5   0  -6 5547.98 1597.14   1
  -5   0   7  439.55  156.27   1
   5   0  -7  398.74  156.79   1
  -5   0   8  744.01  268.66   1
   5   0  -8  894.07  269.49   1
  -5   0   9  118.53   62.13   1
   5   0  -9   84.48   63.37   1
  -5   0  10 3778.32 1051.74   1
   5   0 -10 3477.18 1052.12   1
  -5   0  11   86.21   58.09   1
   5   0 -11   77.03   62.75   1
  -5   0  12   77.87   57.06   1
  -5   0  13  524.85  119.66   1
   5   0 -13    6.18  115.46   1
  -5   1   1 4293.48 1259.87   1
   5  -1  -1 4476.87 1263.19   1
  -5   1   2 3342.09  931.47   1
   5  -1  -2 3029.91  935.39   1
  -5   1   3   70.23   42.31   1
   5  -1  -3   22.32   44.29   1
  -5   1   4 2598.89  791.94   1
   5  -1  -4 2798.16  794.73   1
  -5   1   5  163.26   83.52   1
   5  -1  -5  177.27   86.33   1
  -5   1   6 7707.14 1325.55   1
   5  -1  -6 7548.05 1326.38   1
  -5   1   7 5780.42 1596.10   1
   5  -1  -7 5352.08 1600.99   1
  -5   1   8    3.02   23.07   1
   5  -1  -8   -7.08   26.60   1
  -5   1   9  712.96  191.63   1
  -5   1   9  179.31  181.83   1
   5  -1  -9  731.89  195.73   1
   5  -1  -9  128.08  189.33   1
  -5   1  10  890.80  149.85   1
   5  -1 -10  761.49  276.77   1
  -5   1  11  123.18   59.11   1
   5  -1 -11    8.64   55.24   1
  -5   1  12  359.70   97.70   1
   5  -1 -12   -7.54   94.78   1
  -5   1  13  114.58   57.63   1
   5  -1 -13    5.13   62.01   1
  -5   2   1 1375.79  426.73   1
   5  -2  -1 1398.08  428.46   1
  -5   2   2  439.20  158.08   1
   5  -2  -2  418.18  159.68   1
  -5   2   3 3564.87 1000.58   1
   5  -2  -3 3312.84 1003.68   1
  -5   2   4  118.60   67.30   1
   5  -2  -4  125.61   70.82   1
  -5   2   5 8357.55 2565.55   1
   5  -2  -5 9887.57 2569.45   1
   5  -2  -6 6250.14 1058.40   1
  -5   2   6 5947.11 1734.94   1
   5  -2  -7  841.09  278.28   1
   5  -2  -8 3008.39  546.64   1
  -5   2   8 3233.99  913.05   1
  -5   2   9  319.82  110.95   1
  -5   2   9  157.09  135.22   1
   5  -2  -9  343.46  117.10   1
   5  -2  -9   49.86  126.81   1
  -5   2  10   85.61   58.08   1
  -5   2  10   55.27   95.53   1
   5  -2 -10  136.26   67.96   1
   5  -2 -10   32.25  109.32   1
  -5   2  11   61.05   42.88   1
   5  -2 -11   -6.36   49.60   1
  -5   2  12   56.44   39.23   1
   5  -2 -12   -3.76   47.74   1
  -5   3   1   31.30   34.94   1
   5  -3  -1   24.27   36.56   1
  -5   3   2  512.68  176.91   1
   5  -3  -2  485.44  180.42   1
  -5   3   3  847.87  272.49   1
   5  -3  -3  820.84  274.03   1
  -5   3   4  682.49  240.27   1
   5  -3  -4  760.04  242.07   1
  -5   3   5 5073.52 1475.03   1
   5  -3  -5 5244.41 1477.73   1
  -5   3   6    7.02   21.95   1
   5  -3  -6   -4.98   25.25   1
  -5   3   7 2145.81  353.68   1
  -5   3   7 1302.11  496.44   1
   5  -3  -7 2257.05  606.92   1
  -5   3   8  396.57  127.13   1
  -5   3   8  183.92  134.44   1
   5  -3  -8  339.98  131.69   1
   5  -3  -8  193.13  143.24   1
  -5   3   9 1677.20  443.58   1
  -5   3   9 1116.27  384.54   1
   5  -3  -9 1570.97  450.01   1
   5  -3  -9  944.53  390.48   1
  -5   3  10 1680.86  279.08   1
  -5   3  10  767.06  262.14   1
   5  -3 -10    6.64  278.31   1
   5  -3 -10  549.88  270.43   1
  -5   3  11  686.56  150.94   1
   5  -3 -11    6.10  149.80   1
  -5   3  12  593.19  139.88   1
   5  -3 -12   22.39  137.77   1
  -5   4   1 7894.78 2267.95   1
   5  -4  -1 8181.00 2274.85   1
  -5   4   2 2888.41  814.50   1
   5  -4  -2 2667.00  821.74   1
  -5   4   3 2135.91  631.25   1
   5  -4  -3 2128.85  638.61   1
  -5   4   4 1698.87  500.11   1
   5  -4  -4 1606.93  505.85   1
  -5   4   5 2032.01  621.02   1
   5  -4  -5 2159.33  625.97   1
  -5   4   6   55.62   42.51   1
  -5   4   6   14.86   66.61   1
   5  -4  -6   61.05   45.96   1
  -5   4   7 3307.17  849.72   1
  -5   4   7 2094.77  689.02   1
   5  -4  -7 3388.22  853.03   1
   5  -4  -7 1744.90  695.69   1
  -5   4   8 4764.34 1189.23   1
  -5   4   8 3124.78  955.12   1
   5  -4  -8 4425.02 1192.09   1
   5  -4  -8 2814.28  960.44   1
  -5   4   9 1067.66  211.71   1
  -5   4   9  791.66  214.29   1
   5  -4  -9    0.60  209.13   1
   5  -4  -9  585.18  224.70   1
  -5   4  10 1763.79  271.88   1
  -5   4  10   30.15  257.34   1
   5  -4 -10    1.43  269.09   1
   5  -4 -10 1128.09  270.00   1
  -5   4  11   13.33   33.93   1
   5  -4 -11  -15.53   43.98   1
  -5   5   1  137.20   66.80   1
   5  -5  -1  102.82   69.95   1
  -5   5   2    3.81   28.39   1
   5  -5  -2    6.14   29.30   1
  -5   5   3   61.31   22.65   1
   5  -5  -3   77.91   54.16   1
  -5   5   412650.75 3666.99   1
   5  -5  -413567.24 3673.72   1
  -5   5   5 1692.62  489.72   1
  -5   5   5  908.35  429.07   1
   5  -5  -5 1830.57  496.75   1
  -5   5   6  184.93   86.47   1
  -5   5   6  132.00  118.00   1
   5  -5  -6  207.40   90.59   1
  -5   5   7  248.38   94.24   1
   5  -5  -7  209.87   98.21   1
   5  -5  -7   97.09  127.86   1
  -5   5   8   11.70   32.61   1
   5  -5  -8    5.19   30.44   1
   5  -5  -8  -18.83   98.81   1
  -5   5   9  185.62   73.14   1
   5  -5  -9   12.20   68.62   1
   5  -5  -9  120.91  143.49   1
  -5   5  10  461.94  169.12   1
  -5   6   1  621.53  202.53   1
  -5   6   1   74.19  235.93   1
   5  -6  -1  710.55  211.76   1
  -5   6   2   62.92   54.40   1
  -5   6   2   95.03  120.63   1
   5  -6  -2  127.06   61.77   1
  -5   6   3  218.60   89.91   1
  -5   6   3   29.95  131.52   1
   5  -6  -3  245.69   96.86   1
  -5   6   4 4114.88 1103.55   1
  -5   6   4 2391.81  900.20   1
   5  -6  -4 4056.54 1111.38   1
  -5   6   5 2654.51  720.64   1
  -5   6   5 1691.52  606.91   1
   5  -6  -5 2514.93  728.08   1
  -5   6   6   68.02   42.79   1
  -5   6   6   66.42   86.15   1
   5  -6  -6    4.38   46.24   1
  -5   6   7    4.38   40.95   1
  -5   6   7   72.97  111.51   1
   5  -6  -7    5.34   41.02   1
   5  -6  -7   72.22   91.54   1
  -5   6   8  423.61   99.61   1
  -5   6   8   40.71  127.82   1
   5  -6  -8   12.61  101.59   1
   5  -6  -8  279.73  148.38   1
  -5   6   9  410.46  108.07   1
   5  -6  -9    4.60  108.67   1
  -5   7   1  320.22  364.13   1
   5  -7  -1 1360.14  365.91   1
  -5   7   2  498.63 1037.63   1
  -5   7   2 6569.80 1525.53   1
  -5   7   2 2551.82 1243.03   1
   5  -7  -2 6574.57 1535.64   1
  -5   7   3  703.15  109.28   1
  -5   7   3   58.34  170.99   1
  -5   7   3  385.20  224.77   1
   5  -7  -3  718.06  210.63   1
  -5   7   4   -8.02  108.57   1
  -5   7   4   97.53   50.65   1
  -5   7   4   10.34   98.70   1
   5  -7  -4   30.84   59.22   1
  -5   7   5  610.56  127.29   1
  -5   7   5   38.91  150.67   1
   5  -7  -5   11.98  136.62   1
  -5   7   6 6392.49  926.55   1
  -5   7   6  -77.30  754.75   1
   5  -7  -6   -6.95  930.05   1
  -5   7   7 1379.12  268.87   1
   5  -7  -7    5.76  273.63   1
  -5   8   1   64.31  234.59   1
  -5   8   1 1142.94  303.92   1
  -5   8   1  -52.61  328.64   1
   5  -8  -1 1311.85  311.56   1
  -5   8   2  527.65   58.59   1
  -5   8   2   67.98  138.15   1
  -5   8   2   10.78  176.58   1
   5  -8  -2   68.53  114.78   1
  -5   8   3 2450.94  378.01   1
  -5   8   3   66.30  355.24   1
   5  -8  -3  -10.21  379.08   1
  -5   8   4   70.98   44.84   1
  -5   8   4   59.70  114.84   1
   5  -8  -4   -8.25   52.71   1
  -5   8   5  186.22   68.88   1
   5  -8  -5   17.73   75.03   1
  -5   9   1  837.96  171.49   1
   5  -9  -1   -1.88  174.99   1
  -5   9   2  546.55  127.21   1
   5  -9  -2   15.22  131.71   1
  -5   9   3   17.70   39.14   1
   5  -9  -3    2.49   52.22   1
  -4  -7   1   -4.72  395.56   1
   4   7  -1 2591.97  404.04   1
  -4  -7   2   -8.82  191.58   1
   4   7  -2 1092.93  198.16   1
  -4  -7   3   -7.69   66.98   1
   4   7  -3  236.44   71.66   1
  -4  -7   4   -0.90   34.24   1
   4   7  -4  361.91   91.22   1
  -4  -7   5  561.55  220.49   1
   4   7  -5  704.84  225.17   1
  -4  -7   6  623.58  227.64   1
   4   7  -6  657.38  227.36   1
  -4  -7   7  153.96   84.81   1
   4   7  -7  130.66   83.18   1
  -4  -7   8  845.53  134.85   1
   4   7  -8  606.84  131.80   1
  -4  -7   9  447.22   83.64   1
   4   7  -9  411.66   84.98   1
  -4  -7  10 3209.09 1032.38   1
   4   7 -10 3755.22 1031.29   1
  -4  -6   1   -4.45  559.31   1
   4   6  -1 3738.81  566.59   1
  -4  -6   2   65.61   53.54   1
   4   6  -2   37.30   52.13   1
   4   6  -2  193.49  162.85   1
  -4  -6   3  579.69  188.51   1
   4   6  -3  576.33  190.63   1
   4   6  -3   54.45  248.35   1
  -4  -6   4    7.85   27.70   1
   4   6  -4   10.55   33.60   1
   4   6  -4   18.17  131.52   1
  -4  -6   5 3507.24  855.65   1
   4   6  -5 1071.04  591.71   1
   4   6  -5 3775.96  857.20   1
   4   6  -5  187.42  735.73   1
  -4  -6   6  702.23  188.47   1
   4   6  -6  116.79  157.35   1
   4   6  -6  580.10  186.32   1
   4   6  -6  190.87  235.81   1
  -4  -6   7 1559.85  348.93   1
   4   6  -7  145.02  268.91   1
   4   6  -7 1242.82  343.54   1
   4   6  -7  138.40  357.07   1
  -4  -6   8   80.22   60.14   1
   4   6  -8  -11.32   95.85   1
   4   6  -8   77.69   57.38   1
   4   6  -8  115.04  202.09   1
  -4  -6   9  433.84  152.44   1
   4   6  -9  388.43  149.61   1
   4   6  -9   18.44  241.53   1
  -4  -6  10   68.40   63.42   1
   4   6 -10   75.72   62.54   1
  -4  -6  11   25.70   48.68   1
   4   6 -11   59.12   57.80   1
  -4  -6  12   26.63   50.97   1
   4   6 -12   63.39   60.19   1
  -4  -5   1  449.59  145.85   1
   4   5  -1  375.18  145.89   1
   4   5  -1   95.96  186.78   1
  -4  -5   2  381.60  138.87   1
   4   5  -2  391.07  139.10   1
   4   5  -2   48.01  184.97   1
   4   5  -3 1673.47  426.50   1
   4   5  -3  219.70  400.82   1
   4   5  -4 1054.13  444.25   1
   4   5  -4 2433.95  626.67   1
  -4  -5   5 1114.49  324.19   1
   4   5  -5  296.61  233.39   1
   4   5  -5 1368.88  326.23   1
   4   5  -5  459.34  332.71   1
  -4  -5   6  103.67   56.25   1
   4   5  -6   70.73   57.25   1
   4   5  -6  -11.55  154.56   1
  -4  -5   7  177.09   90.25   1
   4   5  -7  193.52   87.50   1
   4   5  -7   45.31  174.23   1
  -4  -5   8 2024.35  468.43   1
   4   5  -8 1376.65  464.05   1
   4   5  -8  217.57  436.48   1
  -4  -5   9  276.41   99.14   1
   4   5  -9    2.00  100.12   1
   4   5  -9  243.10   96.15   1
   4   5  -9   98.28  155.35   1
   4   5 -10    2.51   21.48   1
  -4  -5  10  -10.01   30.01   1
  -4  -5  10   32.68  134.63   1
   4   5 -10  -47.87   91.09   1
   4   5 -10   18.91  171.86   1
  -4  -5  11 3154.73  618.49   1
  -4  -5  11   38.62  527.69   1
   4   5 -11 2429.70  615.60   1
   4   5 -11  253.47  559.47   1
  -4  -5  12 4397.65  800.16   1
   4   5 -12 4758.74 1332.30   1
  -4  -5  13  516.57  220.40   1
   4   5 -13  661.33  221.24   1
  -4  -4   1 2263.16  599.29   1
  -4  -4   1  589.01  504.53   1
   4   4  -1 2263.57  598.44   1
  -4  -4   2  448.52  135.47   1
   4   4  -2  314.90  133.42   1
   4   4  -2   68.95  154.72   1
  -4  -4   3 6230.84 1231.61   1
  -4  -4   3  824.47  980.13   1
   4   4  -3 2019.96  826.34   1
   4   4  -3 7168.28 1233.91   1
   4   4  -3 2501.54 1013.25   1
   4   4  -3  575.91  989.48   1
  -4  -4   4 1829.31  390.56   1
  -4  -4   4  364.30  336.57   1
   4   4  -4  687.75  272.42   1
   4   4  -4 2023.19  395.42   1
   4   4  -4  535.80  371.73   1
   4   4  -4  133.83  344.71   1
  -4  -4   5 5556.30  965.26   1
  -4  -4   5 1326.29  770.62   1
   4   4  -5  348.70  643.14   1
   4   4  -5 5610.32  968.05   1
   4   4  -5 1837.06  811.98   1
   4   4  -5 1106.68  784.72   1
  -4  -4   6 5114.21 1045.06   1
   4   4  -6  288.50  696.37   1
   4   4  -6 5109.97 1043.90   1
   4   4  -6 1086.27  865.20   1
  -4  -4   7 4435.92 1199.03   1
   4   4  -7 4360.28 1195.27   1
   4   4  -7 2407.90  986.68   1
  -4  -4   8 6903.64 1145.19   1
  -4  -4   8 2562.12  922.43   1
   4   4  -8  311.49  765.37   1
   4   4  -8 4531.28 1139.32   1
   4   4  -8 1948.45  946.47   1
  -4  -4   9 1962.07  527.62   1
  -4  -4   9 1139.85  460.99   1
   4   4  -9 2001.36  525.01   1
   4   4  -9  829.61  480.90   1
  -4  -4  10    4.59   21.01   1
   4   4 -10    4.58   20.49   1
   4   4 -10   -6.24   81.00   1
   4   4 -10   27.51  125.17   1
  -4  -4  11 3059.96  599.15   1
  -4  -4  11   40.06  504.35   1
   4   4 -11  218.27  403.93   1
   4   4 -11 3052.05  595.73   1
   4   4 -11 1669.09  555.91   1
  -4  -4  12    1.12   22.75   1
   4   4 -12   15.90   22.05   1
  -4  -4  12   10.17  130.01   1
   4   4 -12  -18.34  166.02   1
  -4  -4  13  108.67   73.48   1
   4   4 -13   94.24   70.97   1
  -4  -4  14   27.14   40.90   1
   4   4 -14   19.44   48.69   1
  -4  -3   1 5085.87 1228.33   1
   4   3  -1 1917.04  825.13   1
   4   3  -1 4770.35 1227.36   1
  -4  -3   2  800.25  270.62   1
   4   3  -2  837.01  270.25   1
  -4  -3   3   48.95   45.09   1
   4   3  -3   55.66   44.97   1
  -4  -3   4 2056.81  498.63   1
  -4  -3   4  733.82  419.68   1
  -4  -3   4 1079.09  417.18   1
   4   3  -4 2244.25  502.88   1
   4   3  -4  544.53  439.84   1
  -4  -3   5 7609.87 1832.63   1
  -4  -3   5 4480.65 1443.59   1
  -4  -3   5 3676.39 1434.03   1
   4   3  -5 8428.65 1837.50   1
   4   3  -5 3857.20 1466.59   1
  -4  -3   6  883.87  265.97   1
  -4  -3   6  576.42  245.34   1
   4   3  -6 1233.61  269.01   1
   4   3  -6  426.95  268.66   1
   4   3  -6  127.88  242.20   1
  -4  -3   7  586.60  157.82   1
  -4  -3   7  124.81  154.85   1
   4   3  -7  562.44  157.75   1
   4   3  -7  376.83  185.19   1
   4   3  -7   89.19  166.79   1
  -4  -3   8   59.15   19.11   1
   4   3  -8   40.09   21.26   1
  -4  -3   8    4.41   72.54   1
   4   3  -8   28.11  106.54   1
  -4  -3   9  413.34  140.38   1
  -4  -3   9  228.27  160.49   1
   4   3  -9  375.07  137.82   1
   4   3  -9  189.19  171.47   1
  -4  -3  10   98.93   60.88   1
  -4  -3  10   54.63  104.09   1
   4   3 -10   81.64   58.31   1
   4   3 -10   56.90  123.65   1
  -4  -3  11  300.81   91.26   1
  -4  -3  11  114.73  131.68   1
   4   3 -11  -17.16   79.63   1
   4   3 -11  201.67   87.58   1
   4   3 -11  138.00  166.25   1
  -4  -3  12   71.67   26.51   1
  -4  -3  12   43.81  164.30   1
   4   3 -12   25.27   68.40   1
   4   3 -12   79.27   51.63   1
   4   3 -12   -2.06  156.31   1
  -4  -3  13   97.65   59.16   1
  -4  -3  13   -9.45  104.41   1
   4   3 -13   87.60   58.91   1
   4   3 -13   31.78  162.37   1
  -4  -3  14  341.47   94.76   1
   4   3 -14   15.88   91.20   1
  -4  -2   113094.89 3650.00   1
   4   2  -112870.36 3649.21   1
   4   2  -2 1698.69  335.29   1
  -4  -2   2 2127.86  576.14   1
  -4  -2   3 6843.49 1814.51   1
   4   2  -3 5903.93 1813.04   1
  -4  -2   4 3570.98 1081.13   1
   4   2  -4 3891.45 1081.65   1
  -4  -2   5   86.22   51.86   1
   4   2  -5   68.83   55.21   1
  -4  -2   6 4126.26 1121.72   1
  -4  -2   6 2852.90  900.13   1
  -4  -2   6 2018.39  892.70   1
   4   2  -6 5068.45 1127.00   1
   4   2  -6 4061.79  918.17   1
  -4  -2   7 4490.49 1142.26   1
  -4  -2   7 3412.92  919.00   1
  -4  -2   7 1461.76  910.45   1
   4   2  -7 4862.82 1146.14   1
   4   2  -7 5299.24  940.98   1
   4   2  -7 3044.09  918.06   1
  -4  -2   8 1119.28  293.15   1
  -4  -2   8  728.15  267.81   1
  -4  -2   8  393.39  259.17   1
   4   2  -8 1233.74  295.08   1
   4   2  -8 1197.06  293.76   1
   4   2  -8  283.43  263.14   1
  -4  -2   9 1097.92  340.53   1
  -4  -2   9  620.43  304.44   1
   4   2  -9 1221.60  341.73   1
   4   2  -9 1080.30  328.09   1
  -4  -2  10  131.69   70.91   1
  -4  -2  10   63.29   89.80   1
   4   2 -10  121.97   73.01   1
   4   2 -10  190.06  131.97   1
  -4  -2  11 4165.36  871.21   1
  -4  -2  11 2283.82  715.47   1
   4   2 -11  581.95  580.12   1
   4   2 -11 4189.97  871.01   1
   4   2 -11 1871.86  729.29   1
  -4  -2  12  195.93   73.11   1
  -4  -2  12   15.32  117.17   1
   4   2 -12    5.09   70.85   1
   4   2 -12  181.64   76.04   1
   4   2 -12  143.47  157.93   1
  -4  -2  13 3332.12  763.54   1
  -4  -2  13   -7.06  631.38   1
   4   2 -13 2935.91  764.37   1
   4   2 -13 2314.10  667.98   1
  -4  -2  14   73.62   42.35   1
  -4  -2  14    4.06  123.93   1
   4   2 -14    8.94   47.77   1
   4   2 -14   24.13  160.98   1
  -4  -2  15 1368.84  257.11   1
   4   2 -15   15.03  254.78   1
  -4  -1   1 1886.64  595.05   1
  -4  -1   1 1614.63  596.50   1
   4   1  -1 2286.40  599.73   1
   4   1  -1 2228.95  600.21   1
  -4  -1   2 9720.90 1789.65   1
   4   1  -2 9793.32 1790.08   1
  -4  -1   210116.74 2911.07   1
   4   1  -211428.60 2910.02   1
   4   1  -3  118.27   30.50   1
  -4  -1   3  116.67   76.36   1
  -4  -1   3  146.19   72.71   1
   4   1  -3  168.40   79.17   1
  -4  -1   4   51.90   46.19   1
  -4  -1   4   75.64   46.68   1
   4   1  -4   52.27   46.54   1
   4   1  -4   41.05   48.47   1
  -4  -1   5   53.58   60.30   1
  -4  -1   5  138.32   59.98   1
   4   1  -5  132.48   60.19   1
   4   1  -5   48.02   60.44   1
  -4  -1   6 2775.15  849.12   1
   4   1  -6 3030.27  850.78   1
  -4  -1   7 3619.82  972.82   1
  -4  -1   7 2849.67  784.62   1
  -4  -1   7 2870.69  781.13   1
   4   1  -7 4150.21  977.63   1
   4   1  -7 3707.23  797.44   1
   4   1  -7 1837.97  783.40   1
  -4  -1   8 1120.64  284.36   1
  -4  -1   8  769.64  260.16   1
  -4  -1   8  381.18  259.23   1
   4   1  -8  900.62  273.37   1
  -4  -1   9 2412.69  670.43   1
  -4  -1   9 1698.56  559.12   1
   4   1  -9 2499.78  675.52   1
   4   1  -9 1827.44  574.48   1
  -4  -1  10 3231.92  916.77   1
   4   1 -10 4414.75 1140.16   1
   4   1 -10 3491.21  931.88   1
   4   1 -11 5206.92  880.29   1
  -4  -1  11 5163.22 1447.62   1
  -4  -1  11 4226.48 1158.48   1
   4   1 -11 5325.61 1175.20   1
  -4  -1  12  198.64   77.89   1
  -4  -1  12   65.12  122.24   1
   4   1 -12   50.02   69.09   1
   4   1 -12  201.98   81.62   1
   4   1 -12  189.80  121.06   1
  -4  -1  13   76.49   45.88   1
  -4  -1  13    0.82  103.78   1
   4   1 -13   -6.17   54.30   1
   4   1 -13   36.37   41.01   1
   4   1 -13   20.06   96.61   1
  -4  -1  14    0.49   38.97   1
  -4  -1  14    7.17  110.53   1
   4   1 -14    0.27   30.85   1
   4   1 -14   60.96   95.24   1
  -4  -1  15 1402.22  253.87   1
   4   1 -15    3.61  246.10   1
  -4   0   1 1249.89  231.59   1
   4   0  -1 1460.93  232.55   1
  -4   0   1 1289.13  411.12   1
   4   0  -1 1278.22  410.75   1
  -4   0   2   70.08   49.13   1
  -4   0   2   65.25   47.30   1
   4   0  -2   63.13   49.82   1
   4   0  -2   48.41   49.81   1
  -4   0   3 1005.03  309.26   1
  -4   0   3  973.75  311.49   1
   4   0  -3  863.35  310.67   1
   4   0  -3 1044.03  314.04   1
  -4   0   4 7270.24 1440.01   1
   4   0  -4 8293.21 1440.39   1
  -4   0   4 8551.78 2349.97   1
   4   0  -4 8968.88 2348.93   1
  -4   0   5 3474.67  947.77   1
  -4   0   5 3925.16  945.36   1
   4   0  -5 2525.76  943.93   1
   4   0  -5 3042.52  949.59   1
  -4   0   6 9596.58 3079.58   1
  -4   0   613458.82 3081.73   1
  -4   0   6 7335.31 2389.14   1
   4   0  -611797.08 3080.71   1
   4   0  -610665.73 3082.08   1
  -4   0   7 1166.17  353.72   1
  -4   0   7  941.36  302.73   1
  -4   0   7  920.52  311.42   1
   4   0  -7 1243.25  354.20   1
  -4   0   8  589.78  201.99   1
  -4   0   8  602.37  192.20   1
  -4   0   8  370.00  199.85   1
   4   0  -8  494.99  201.88   1
   4   0  -8  949.40  206.01   1
  -4   0   9  379.47   70.62   1
  -4   0   9  399.41  152.03   1
  -4   0   9  146.13  158.69   1
   4   0  -9  352.37  144.61   1
   4   0  -9  612.63  162.93   1
  -4   0  10  457.34  171.53   1
  -4   0  10  688.74  180.35   1
   4   0 -10  118.56  113.28   1
   4   0 -10  412.64  172.47   1
   4   0 -10 1095.46  193.31   1
  -4   0  11  257.85  106.10   1
  -4   0  11  276.01  135.52   1
   4   0 -11  131.34   74.56   1
   4   0 -11  270.87  107.52   1
   4   0 -11  308.37  142.08   1
  -4   0  12  660.33  194.89   1
  -4   0  12  633.08  217.38   1
   4   0 -12  288.80  137.61   1
   4   0 -12  540.63  195.12   1
   4   0 -12  670.37  228.72   1
  -4   0  13  203.55   64.35   1
  -4   0  13   11.59  120.24   1
   4   0 -13   51.46   73.13   1
   4   0 -13    9.64   61.10   1
   4   0 -13  245.24  133.39   1
  -4   0  14 1956.93  313.58   1
  -4   0  14   27.33  300.17   1
   4   0 -14    0.47  306.26   1
   4   0 -14 1968.42  325.96   1
   4  -1  -1 9406.89 1747.14   1
  -4   1   110382.70 2842.41   1
   4  -1  -110352.21 2844.88   1
  -4   1   2   88.65   71.41   1
  -4   1   2  143.82   67.82   1
   4  -1  -2  152.46   69.46   1
   4  -1  -2  104.19   71.74   1
  -4   1   3 3956.64 1204.04   1
  -4   1   3 4984.89 1203.33   1
   4  -1  -3 4504.27 1206.29   1
   4  -1  -3 3230.86 1203.36   1
  -4   1   4 3948.49 1090.67   1
  -4   1   4 3469.36 1093.45   1
   4  -1  -4 4024.30 1095.36   1
   4  -1  -4 3653.24 1094.39   1
  -4   1   5  100.89   76.49   1
  -4   1   5  162.19   75.80   1
   4  -1  -5  170.48   76.25   1
   4  -1  -5  160.63   80.12   1
  -4   1   6 3277.94  593.65   1
   4  -1  -6 3319.71  594.27   1
  -4   1   6 3746.50  988.90   1
  -4   1   6 3306.92  789.78   1
  -4   1   6 3474.90  802.86   1
   4  -1  -6 3253.03  987.27   1
   4  -1  -6 3395.69  803.84   1
  -4   1   7 8361.56 2163.22   1
  -4   1   7 5228.87 1687.75   1
  -4   1   7 6587.95 1704.77   1
   4  -1  -7 8503.55 2162.60   1
   4  -1  -7 7470.36 1702.08   1
  -4   1   8  199.40   81.73   1
  -4   1   8  128.99   89.72   1
   4  -1  -8  151.23   81.21   1
   4  -1  -8  164.11  106.64   1
  -4   1   9   70.74   41.09   1
  -4   1   9   34.87   62.32   1
   4  -1  -9   21.79   40.83   1
   4  -1  -9   26.71   77.58   1
  -4   1  10 1887.25  550.43   1
  -4   1  10 1538.91  458.66   1
   4  -1 -10 1453.74  366.36   1
   4  -1 -10 2196.45  551.25   1
   4  -1 -10 1846.30  474.39   1
  -4   1  11   40.03   43.44   1
  -4   1  11   14.88   70.34   1
   4  -1 -11    7.54   32.98   1
   4  -1 -11   28.14   44.18   1
   4  -1 -11   47.69   77.17   1
  -4   1  12  376.75  128.92   1
  -4   1  12  307.64  136.27   1
   4  -1 -12  140.12   90.91   1
   4  -1 -12  370.47  130.97   1
   4  -1 -12  358.59  158.31   1
  -4   1  13 2024.19  313.76   1
  -4   1  13    4.16  272.75   1
   4  -1 -13  850.30  218.13   1
   4  -1 -13   13.23  308.11   1
   4  -1 -13 2063.27  310.74   1
  -4   1  14 1108.20  193.23   1
  -4   1  14    1.17  180.44   1
   4  -1 -14   -2.50  186.92   1
   4  -1 -14 1005.18  218.55   1
  -4   2   1  534.84  194.69   1
  -4   2   1  612.80  191.15   1
   4  -2  -1  546.47  192.88   1
   4  -2  -1  491.09  193.63   1
  -4   2   2 4582.56 1487.29   1
  -4   2   2 5099.14 1484.52   1
   4  -2  -2 5908.29 1488.09   1
  -4   2   3  465.45  214.76   1
  -4   2   3  716.66  211.77   1
   4  -2  -3  681.75  213.65   1
   4  -2  -3  590.17  215.28   1
   4  -2  -413388.28 2316.60   1
  -4   2   415891.99 3761.55   1
  -4   2   412353.32 3756.78   1
   4  -2  -412026.55 3759.52   1
   4  -2  -512686.27 1698.23   1
  -4   2   5 8014.39 2761.16   1
  -4   2   510148.20 2763.06   1
  -4   2   5 9679.58 2142.68   1
  -4   2   510378.39 2170.31   1
   4  -2  -5 8839.93 2764.94   1
   4  -2  -5 9114.10 2154.01   1
  -4   2   6 2742.25  941.22   1
  -4   2   6 4141.12  942.16   1
  -4   2   6 2645.49  754.80   1
  -4   2   6 3440.74  778.96   1
   4  -2  -6 3350.26  945.18   1
   4  -2  -6 2925.76  945.80   1
   4  -2  -6 3141.27  763.96   1
  -4   2   7 4306.99 1231.33   1
  -4   2   7 4384.84 1005.35   1
   4  -2  -7 4270.96 1235.63   1
   4  -2  -7 4092.93  991.57   1
  -4   2   8 7617.57 2125.29   1
  -4   2   8 7079.88 1660.35   1
  -4   2   8 6854.48 1692.76   1
   4  -2  -8 7726.63 2128.71   1
   4  -2  -8 7640.67 1674.48   1
  -4   2   9 8596.93 2383.10   1
  -4   2   9 8289.99 1859.29   1
   4  -2  -9 8092.61 1593.98   1
   4  -2  -9 8576.91 2385.29   1
  -4   2  10 4982.09 1357.76   1
  -4   2  10 4794.71 1077.12   1
   4  -2 -10 4406.14 1359.94   1
  -4   2  11   79.85   58.83   1
  -4   2  11   71.49   83.43   1
   4  -2 -11   85.73   52.36   1
   4  -2 -11   62.60   56.84   1
   4  -2 -11   80.58  106.25   1
  -4   2  12 2037.38  385.93   1
  -4   2  12   19.61  327.81   1
   4  -2 -12 1725.37  263.07   1
   4  -2 -12   14.57  385.22   1
   4  -2 -12 2334.70  358.90   1
  -4   2  13   84.54   54.57   1
  -4   2  13  -13.43   75.75   1
   4  -2 -13   79.08   62.81   1
   4  -2 -13    5.35   62.10   1
   4  -2 -13  163.35  102.47   1
  -4   2  14    3.54  148.81   1
   4  -2 -14  901.14  185.37   1
   4  -3  -1 6435.63 1223.75   1
  -4   3   1 6098.80 2002.11   1
  -4   3   1 7453.40 1998.64   1
   4  -3  -1 8055.86 2002.34   1
  -4   3   2  252.43   47.42   1
  -4   3   2  195.80  106.35   1
   4  -3  -2  245.79  104.71   1
   4  -3  -2  288.72  107.49   1
  -4   3   3   51.34   44.37   1
  -4   3   3   50.08   41.03   1
  -4   3   3   28.73   49.88   1
   4  -3  -3   52.77   42.11   1
   4  -3  -3   53.84   43.71   1
  -4   3   4 2870.83  591.57   1
   4  -3  -4 3261.51  591.86   1
  -4   3   4 3912.02  984.92   1
  -4   3   4 3348.92  814.86   1
   4  -3  -4 3683.22  987.73   1
   4  -3  -4 2801.59  791.11   1
  -4   3   5 3222.20  966.75   1
  -4   3   5 3236.01  959.96   1
  -4   3   5 3298.85  797.30   1
   4  -3  -5 3730.52  963.77   1
   4  -3  -5 2968.41  965.53   1
   4  -3  -5 3399.66  780.47   1
  -4   3   6  163.73  105.26   1
  -4   3   6  287.15  103.43   1
  -4   3   6  280.27  113.06   1
   4  -3  -6  326.31  105.94   1
   4  -3  -6  180.62  109.45   1
   4  -3  -6  183.31  110.70   1
  -4   3   7 5511.63  989.28   1
  -4   3   7 5077.58 1468.47   1
  -4   3   7 5019.89 1161.50   1
  -4   3   7 5163.77 1196.54   1
   4  -3  -7 5154.67 1471.29   1
   4  -3  -7 4816.55 1171.84   1
  -4   3   8 5421.44 1044.98   1
  -4   3   8 5601.88 1549.21   1
  -4   3   8 4982.15 1224.47   1
   4  -3  -8 5748.27 1043.62   1
   4  -3  -8 5145.77 1552.01   1
   4  -3  -8 5705.70 1240.10   1
  -4   3   9  117.96   64.79   1
  -4   3   9  159.17   71.32   1
  -4   3   9  122.95   93.44   1
   4  -3  -9  124.29   64.78   1
   4  -3  -9  119.26   75.58   1
   4  -3  -9  110.13   90.36   1
  -4   3  10 3535.04 1069.64   1
  -4   3  10 3948.84  857.86   1
   4  -3 -10 3688.28  717.50   1
   4  -3 -10 3863.51 1073.61   1
   4  -3 -10 3410.05  871.15   1
  -4   3  11  408.73  157.64   1
  -4   3  11  342.84  162.19   1
   4  -3 -11  436.56  116.23   1
   4  -3 -11  438.81  161.52   1
   4  -3 -11  539.91  175.94   1
  -4   3  12  588.04  134.98   1
  -4   3  12    0.28  139.90   1
   4  -3 -12   -1.14  132.76   1
   4  -3 -12  824.13  164.22   1
  -4   3  13   48.62   45.59   1
  -4   3  13    6.33   82.26   1
   4  -3 -13   48.24   69.30   1
   4  -3 -13   -2.72   56.06   1
   4  -3 -13   56.93   92.49   1
  -4   3  14  -16.44   87.30   1
   4  -3 -14  122.79  101.26   1
  -4   4   1   13.68   29.08   1
  -4   4   1   41.87   43.22   1
  -4   4   1   58.84   35.67   1
  -4   4   1   51.63   57.02   1
  -4   4   1   29.56   60.25   1
   4  -4  -1   57.59   40.71   1
   4  -4  -1   31.36   37.95   1
   4  -4  -1    1.28   54.00   1
  -4   4   214154.45 3640.36   1
  -4   4   215034.63 3633.91   1
  -4   4   2 8886.75 2836.91   1
   4  -4  -213631.13 3641.39   1
   4  -4  -211271.18 3641.52   1
   4  -4  -2 9188.04 2822.21   1
  -4   4   3 3312.64 1100.54   1
  -4   4   3 3791.10  895.65   1
   4  -4  -3 3817.48 1099.68   1
   4  -4  -3 4222.93 1101.94   1
   4  -4  -3 3900.84  879.53   1
  -4   4   4   61.30   67.49   1
  -4   4   4  101.84   63.24   1
  -4   4   4  193.31   72.87   1
  -4   4   4  213.99   97.65   1
   4  -4  -4  118.09   66.08   1
   4  -4  -4   73.39   65.60   1
   4  -4  -4  149.33   86.03   1
   4  -4  -4  127.02   75.03   1
  -4   4   5 6990.71 2081.83   1
  -4   4   5 7513.03 2072.36   1
  -4   4   5 7553.88 1624.12   1
  -4   4   5 6826.30 1652.14   1
   4  -4  -5 7598.76 2074.90   1
   4  -4  -5 7002.29 2081.87   1
   4  -4  -5 6958.76 1628.55   1
   4  -4  -5 7787.84 1634.22   1
  -4   4   611163.35 3372.08   1
  -4   4   612328.07 2617.18   1
  -4   4   610431.74 2645.77   1
   4  -4  -613440.28 3374.19   1
   4  -4  -611266.64 2624.34   1
  -4   4   7  509.64  181.60   1
  -4   4   7  659.08  259.20   1
  -4   4   7 1304.61  242.26   1
  -4   4   7  880.14  265.29   1
   4  -4  -7  690.53  260.03   1
   4  -4  -7 1089.20  244.36   1
  -4   4   8  358.25  134.26   1
  -4   4   8  328.21  143.98   1
   4  -4  -8  298.56  104.14   1
   4  -4  -8  340.20  135.39   1
   4  -4  -8  400.80  146.94   1
  -4   4   9  328.54  122.93   1
  -4   4   9  279.95  133.75   1
   4  -4  -9  277.18   91.88   1
   4  -4  -9  312.81  123.05   1
   4  -4  -9  239.77  137.93   1
  -4   4  10 5040.84 1433.12   1
  -4   4  10 4952.71 1136.94   1
   4  -4 -10 4733.89  963.54   1
   4  -4 -10 4864.56 1435.23   1
   4  -4 -10 5946.71 1157.33   1
  -4   4  11  289.24  114.59   1
   4  -4 -11  274.69  103.20   1
   4  -4 -11  178.57  120.11   1
   4  -4 -11  465.44  148.49   1
  -4   4  12  387.86  122.26   1
  -4   4  12   -3.45  117.95   1
   4  -4 -12  449.96  106.92   1
   4  -4 -12   -3.48  122.08   1
   4  -4 -12  711.31  158.03   1
   4  -4 -13  540.46  210.76   1
  -4   5   1  243.98   74.11   1
  -4   5   1  209.98   94.17   1
  -4   5   1  217.19   86.23   1
  -4   5   1  234.94  112.34   1
  -4   5   1   83.45  107.05   1
   4  -5  -1  299.62   90.89   1
   4  -5  -1  124.23   89.48   1
   4  -5  -1   61.86   98.26   1
  -4   5   2   81.57   61.22   1
  -4   5   2  127.26   53.85   1
  -4   5   2  116.93   75.98   1
  -4   5   2   39.98   75.99   1
   4  -5  -2   92.89   56.13   1
   4  -5  -2   77.90   56.63   1
   4  -5  -2   13.17   73.91   1
   4  -5  -3 3707.46  610.35   1
  -4   5   3 3006.09  680.59   1
  -4   5   3 4030.39 1010.71   1
  -4   5   3 4016.28  818.88   1
  -4   5   3 3026.02  836.85   1
   4  -5  -3 2159.22  818.71   1
  -4   5   4  376.72  139.36   1
  -4   5   4  656.21  200.06   1
  -4   5   4  651.19  190.32   1
  -4   5   4  403.94  213.79   1
   4  -5  -4  801.05  205.97   1
   4  -5  -4  289.98  198.37   1
   4  -5  -4  585.79  194.61   1
  -4   5   5 1223.14  331.86   1
  -4   5   5 1556.47  484.74   1
  -4   5   5 1701.78  416.58   1
  -4   5   5 1319.20  434.97   1
   4  -5  -5 2024.36  491.50   1
   4  -5  -5 1317.84  421.26   1
   4  -5  -5 1791.66  423.68   1
  -4   5   6 3498.69  977.23   1
  -4   5   6 3518.27  790.71   1
   4  -5  -6 3337.52  984.80   1
   4  -5  -6 2927.97  802.67   1
  -4   5   7 4950.94 1079.41   1
   4  -5  -7 4870.05 1361.12   1
   4  -5  -7 4166.02 1086.74   1
  -4   5   8  724.59  221.99   1
  -4   5   8  694.83  214.92   1
   4  -5  -8  513.01  168.92   1
   4  -5  -8  699.37  229.36   1
   4  -5  -8  543.76  217.39   1
  -4   5   9 4731.40 1308.48   1
  -4   5   9 4602.56 1044.45   1
   4  -5  -9 4251.88 1315.08   1
   4  -5  -9 4780.50 1055.41   1
  -4   5  10  273.72  108.62   1
  -4   5  10   27.88  114.17   1
   4  -5 -10  345.52   96.31   1
   4  -5 -10  253.31  115.24   1
   4  -5 -10  306.55  135.36   1
  -4   5  11  436.55  142.30   1
  -4   5  11    5.02  135.79   1
   4  -5 -11  528.85  120.21   1
   4  -5 -11  211.13  146.79   1
   4  -5 -11  660.72  169.68   1
  -4   5  12  -23.08   59.96   1
   4  -5 -12    7.90   85.05   1
   4  -5 -12  115.57   93.45   1
  -4   5  13   -9.58   58.37   1
   4  -5 -13   72.96   98.00   1
  -4   6   1  598.90  288.41   1
  -4   6   1 1786.76  423.26   1
  -4   6   1 1907.45  382.41   1
  -4   6   1  740.23  381.05   1
   4  -6  -1 1805.47  432.37   1
   4  -6  -1  722.82  367.96   1
  -4   6   2  513.08  210.69   1
  -4   6   2 1411.61  217.45   1
  -4   6   2  473.39  217.92   1
   4  -6  -2  677.65  219.40   1
   4  -6  -2  385.53  206.80   1
  -4   6   3 3824.66 1283.19   1
  -4   6   3 7540.83 1905.28   1
  -4   6   3 8344.91 1508.63   1
  -4   6   3 3815.93 1522.14   1
   4  -6  -3 8816.64 1914.84   1
   4  -6  -3 4269.21 1507.43   1
  -4   6   4   58.43   91.64   1
  -4   6   4  350.83  122.23   1
  -4   6   4  389.47  133.14   1
   4  -6  -4  440.88  129.71   1
   4  -6  -4  278.63  134.15   1
  -4   6   5  152.61   85.67   1
  -4   6   5  224.39  101.63   1
   4  -6  -5  218.85   93.70   1
   4  -6  -5  247.32  109.76   1
  -4   6   6 3574.95 1064.50   1
  -4   6   6 4139.67  865.00   1
   4  -6  -6 3612.92 1073.16   1
   4  -6  -6 3833.09  871.63   1
  -4   6   7  624.69  227.76   1
  -4   6   7  854.82  221.72   1
   4  -6  -7  435.17  172.65   1
   4  -6  -7  858.51  236.87   1
   4  -6  -7  620.90  233.57   1
  -4   6   8  224.90   99.92   1
  -4   6   8  221.26  110.89   1
   4  -6  -8  182.02   98.60   1
   4  -6  -8  296.09  111.79   1
   4  -6  -8  248.82  126.21   1
  -4   6   9    0.57   68.67   1
  -4   6   9  350.99  124.44   1
   4  -6  -9  420.97  116.03   1
   4  -6  -9  338.56  138.14   1
   4  -6  -9  453.92  147.15   1
  -4   6  10   14.74   43.62   1
  -4   6  10  190.80   89.11   1
   4  -6 -10  398.72  108.54   1
   4  -6 -10   70.04   94.58   1
   4  -6 -10  319.01  115.88   1
  -4   6  11   12.21   83.21   1
   4  -6 -11  236.51  104.17   1
  -4   6  12    8.56   76.49   1
   4  -6 -12  170.93   98.02   1
  -4   7   1 2424.88  677.30   1
  -4   7   1 2309.66  572.57   1
   4  -7  -1 2155.40  684.31   1
  -4   7   2 4373.00 1214.96   1
  -4   7   2 4098.98  986.94   1
   4  -7  -2 4124.48 1222.50   1
  -4   7   3  802.91  245.80   1
  -4   7   3  678.81  240.53   1
   4  -7  -3  736.14  253.92   1
  -4   7   4  395.60  144.52   1
  -4   7   4  419.75  157.03   1
   4  -7  -4  453.16  153.95   1
   4  -7  -4  270.37  156.75   1
  -4   7   5 3025.31  822.87   1
  -4   7   5 2245.70  674.26   1
   4  -7  -5 2955.70  831.95   1
   4  -7  -5 2588.88  683.72   1
  -4   7   6   19.75   36.23   1
  -4   7   6   21.55   59.28   1
   4  -7  -6   24.70   44.89   1
   4  -7  -6   -8.39   95.81   1
  -4   7   7 1027.74  312.06   1
  -4   7   7  707.47  285.86   1
   4  -7  -7 1062.62  321.42   1
   4  -7  -7  987.37  296.26   1
  -4   7   8   64.53   55.03   1
  -4   7   8  -28.12   76.63   1
   4  -7  -8   67.98   64.36   1
   4  -7  -8   42.22   49.99   1
   4  -7  -8   57.43   98.49   1
  -4   7   9  -22.42   79.04   1
   4  -7  -9   99.55  107.75   1
   4  -7  -9   88.51   87.96   1
  -4   7  10   15.54   50.17   1
   4  -7 -10  -10.03  120.52   1
   4  -7 -10   10.52   76.42   1
  -4   8   1   -3.14   33.98   1
  -4   8   1   61.22   96.19   1
   4  -8  -1   29.11   43.87   1
  -4   8   2  208.21  135.55   1
  -4   8   2  767.84  171.87   1
   4  -8  -2  418.91  146.15   1
  -4   8   3 1803.03  539.10   1
  -4   8   3 1834.85  466.59   1
   4  -8  -3 1807.61  546.28   1
  -4   8   4  187.60   98.57   1
  -4   8   4  271.47  122.41   1
   4  -8  -4  223.88  106.72   1
   4  -8  -4  332.93  135.08   1
  -4   8   5  940.35  211.67   1
  -4   8   5   50.81  196.45   1
   4  -8  -5  240.65  216.16   1
   4  -8  -5 1203.34  223.67   1
  -4   8   6 1573.74  291.02   1
  -4   8   6  -34.29  258.31   1
   4  -8  -6  -19.26  294.61   1
   4  -8  -6 2076.01  292.31   1
  -4   8   7  338.04   96.83   1
  -4   8   7   23.34  109.98   1
   4  -8  -7   -2.59   98.34   1
   4  -8  -7  493.57  146.61   1
  -4   8   8    8.35  179.84   1
   4  -8  -8 1040.84  206.06   1
  -4   8   9   -8.90   47.34   1
   4  -8  -9  205.04  115.90   1
  -4   9   1    8.52   61.69   1
  -4   9   1  141.93   57.86   1
   4  -9  -1   45.49   60.38   1
  -4   9   2   49.45  717.56   1
   4  -9  -2  -13.08  872.91   1
  -4   9   3  898.96  154.54   1
  -4   9   3   45.10  168.09   1
   4  -9  -3  -23.84  153.77   1
  -4   9   4  770.18  140.43   1
  -4   9   4   -3.18  153.02   1
   4  -9  -4    7.03  135.49   1
  -4   9   5 2119.55  383.69   1
  -4   9   5   -1.20  330.16   1
   4  -9  -5   11.45  379.21   1
   4  -9  -5 2859.96  357.19   1
  -4   9   6  -26.54   85.19   1
   4  -9  -6  283.42  122.86   1
  -4   9   7    7.22   31.54   1
   4  -9  -7   39.70   62.58   1
  -4  10   1  712.48  139.16   1
  -4  10   1   14.49  173.28   1
   4 -10  -1   -2.76  138.92   1
  -4  10   2  190.86   66.74   1
  -4  10   2   13.54  117.24   1
   4 -10  -2  -17.86   67.62   1
  -4  10   3   -4.56  105.40   1
  -4  10   4   25.56   90.61   1
  -3  -9   3    5.19   37.12   1
   3   9  -3    8.06   45.39   1
  -3  -9   4    4.17   80.46   1
   3   9  -4  248.23   84.69   1
  -3  -9   5   11.36  369.05   1
   3   9  -5 2271.06  380.07   1
  -3  -9   6    3.58  323.12   1
   3   9  -6 1910.53  333.57   1
  -3  -9   7   -0.87   69.15   1
   3   9  -7  173.08   74.56   1
  -3  -9   8   46.62   58.82   1
  -3  -8   1   -4.78   80.12   1
   3   8  -1  266.69   87.49   1
   3   8  -1  363.88  153.49   1
  -3  -8   2    1.70  391.29   1
   3   8  -2 2303.38  400.60   1
   3   8  -2 1811.18  381.85   1
  -3  -8   3   -0.45  258.27   1
   3   8  -3 1262.00  260.76   1
   3   8  -3 1222.71  292.66   1
  -3  -8   4   74.19  210.92   1
   3   8  -4  892.52  217.12   1
   3   8  -4 1145.15  272.59   1
  -3  -8   5   15.81   45.31   1
   3   8  -5   26.20   52.91   1
   3   8  -5   49.33  158.93   1
  -3  -8   6 2321.81  609.73   1
   3   8  -6  822.54  445.80   1
   3   8  -6 2011.47  607.15   1
   3   8  -6 1922.12  585.95   1
  -3  -8   7 2416.19  615.40   1
   3   8  -7 1322.84  426.37   1
   3   8  -7 1944.90  611.43   1
   3   8  -7 1901.32  584.30   1
  -3  -8   8  508.21  181.96   1
   3   8  -8  332.80  169.51   1
   3   8  -8  441.23  178.96   1
   3   8  -8  370.65  271.80   1
  -3  -8   9 4415.60  965.14   1
   3   8  -9 1399.33  660.36   1
   3   8  -9 3686.16  962.10   1
   3   8  -9 1915.77  840.37   1
  -3  -8  10  191.67   47.87   1
   3   8 -10  215.28   50.52   1
   3   8 -10   97.64  258.22   1
  -3  -8  11 1154.73  427.04   1
   3   8 -11 1430.97  427.96   1
  -3  -8  12   30.10   31.51   1
   3   8 -12   45.35   35.68   1
  -3  -7   1 1757.91  524.53   1
   3   7  -1 1684.05  528.95   1
   3   7  -1 1753.00  462.33   1
  -3  -7   2   25.63   43.85   1
   3   7  -2   24.35   43.80   1
   3   7  -2   50.26  102.86   1
  -3  -7   3  702.84  266.68   1
   3   7  -3  849.99  265.44   1
  -3  -7   4 1705.18  536.29   1
   3   7  -4 1824.69  536.90   1
   3   7  -4 1601.74  486.15   1
  -3  -7   5 2416.20  750.79   1
   3   7  -5 2632.54  749.71   1
   3   7  -5 2349.58  660.26   1
  -3  -7   6 4433.46 1169.54   1
   3   7  -6 2991.40  809.59   1
   3   7  -6 3877.77 1166.30   1
   3   7  -6 4176.98  987.21   1
  -3  -7   7    4.38   47.39   1
   3   7  -7    4.98   95.87   1
   3   7  -7    5.38   41.57   1
   3   7  -7   53.27  171.31   1
  -3  -7   8  909.44  153.87   1
   3   7  -8  688.20  216.19   1
   3   7  -8  848.08  289.32   1
   3   7  -8  864.22  326.07   1
  -3  -7   9 4294.39 1158.57   1
   3   7  -9 3137.44  793.19   1
   3   7  -9 4226.69 1157.99   1
   3   7  -9 3583.74  980.04   1
   3   7 -10  741.24  132.09   1
  -3  -7  10  918.78  257.33   1
   3   7 -10  293.88  186.97   1
   3   7 -10  786.03  325.77   1
   3   7 -11   13.93   97.63   1
  -3  -7  11   16.75   53.26   1
   3   7 -11   33.77   93.50   1
   3   7 -11   43.37   52.77   1
  -3  -7  12  208.66   46.17   1
   3   7 -12  189.78   48.02   1
   3   7 -12   30.40  107.57   1
  -3  -7  13 2547.15  707.31   1
   3   7 -13 2039.59  705.84   1
  -3  -6   1 2296.53  736.27   1
   3   6  -1 2683.54  739.82   1
   3   6  -1 2523.67  615.03   1
  -3  -6   2  825.54  265.38   1
   3   6  -2  663.86  260.59   1
   3   6  -2  957.97  251.95   1
  -3  -6   3   85.12   64.66   1
   3   6  -3   87.69   64.34   1
   3   6  -3  150.39  116.26   1
  -3  -6   4 4733.84 1289.96   1
   3   6  -4 4160.28 1288.90   1
   3   6  -4 4522.29 1052.10   1
  -3  -6   5 4568.36  733.59   1
   3   6  -5 -384.23  731.53   1
   3   6  -5 4974.89  641.44   1
   3   6  -6  273.64   66.23   1
  -3  -6   6  357.31  144.16   1
   3   6  -6  407.44  123.06   1
   3   6  -6  365.52  172.27   1
  -3  -6   7  132.39   79.96   1
   3   6  -7  110.51   85.14   1
   3   6  -7  125.10   76.69   1
   3   6  -7   85.97  122.06   1
  -3  -6   8 7086.10 1705.25   1
   3   6  -8 2902.71 1141.74   1
   3   6  -8 6685.49 1704.48   1
   3   6  -8 6557.05 1382.28   1
  -3  -6   9 2357.79  715.26   1
   3   6  -9 2316.80  715.20   1
   3   6  -9 2520.79  640.24   1
  -3  -6  10 1108.00  347.38   1
   3   6 -10  614.46  238.16   1
   3   6 -10 1238.52  347.84   1
   3   6 -10 1189.55  359.18   1
  -3  -6  11   54.57   59.49   1
   3   6 -11   52.16   59.16   1
   3   6 -11   55.34  156.76   1
  -3  -6  12 5031.81 1229.31   1
   3   6 -12 2124.65  825.18   1
   3   6 -12 5150.57 1229.18   1
   3   6 -12 3734.01 1024.45   1
  -3  -6  13   -4.03   48.34   1
  -3  -6  13   12.73  129.50   1
   3   6 -13   -0.25  100.93   1
   3   6 -13    0.57   42.86   1
   3   6 -13  -38.97  151.66   1
  -3  -6  14   22.52   51.94   1
   3   6 -14   27.49   55.05   1
  -3  -5   1   55.35   38.41   1
  -3  -5   1    2.53   51.95   1
   3   5  -1   14.07   38.05   1
   3   5  -1   53.15   42.28   1
   3   5  -1   49.88   65.14   1
   3   5  -1   19.37   63.99   1
  -3  -5   212995.60 2821.43   1
  -3  -5   2 3280.60 2182.66   1
   3   5  -212593.29 2205.71   1
  -3  -5   3  593.55  165.84   1
  -3  -5   3  184.20  155.47   1
   3   5  -3  163.48  107.87   1
   3   5  -3  621.53  166.08   1
   3   5  -3  539.04  180.50   1
  -3  -5   4 2257.60  494.38   1
  -3  -5   4  874.78  408.40   1
   3   5  -4  816.56  326.48   1
   3   5  -4 2404.38  493.94   1
   3   5  -4 2157.74  438.25   1
   3   5  -4  389.39  419.62   1
  -3  -5   5    8.46   31.09   1
  -3  -5   5   10.19   52.55   1
   3   5  -5    5.00   38.09   1
   3   5  -5    6.78   29.96   1
   3   5  -5  -16.37   71.40   1
   3   5  -5   23.87   53.86   1
  -3  -5   610267.87 1843.09   1
  -3  -5   6 3286.85 1434.75   1
   3   5  -6 9219.36 1241.74   1
   3   5  -6 4586.77 1226.48   1
   3   5  -6 8720.37 1474.81   1
   3   5  -6 2135.89 1444.32   1
  -3  -5   7 2515.57  617.85   1
   3   5  -7 1593.07  415.60   1
   3   5  -7 2047.65  615.59   1
   3   5  -7 1542.74  533.40   1
  -3  -5   8 3662.56  882.66   1
   3   5  -8 1976.44  594.74   1
   3   5  -8 3025.65  881.50   1
   3   5  -8 2633.17  747.01   1
  -3  -5   9  328.46  137.62   1
   3   5  -9  189.65   99.49   1
   3   5  -9  400.10  138.10   1
   3   5  -9  343.86  167.30   1
  -3  -5  10 2001.34  585.70   1
   3   5 -10 1279.21  398.59   1
   3   5 -10 2182.91  586.04   1
   3   5 -10 2084.71  526.01   1
  -3  -5  11 2842.83  798.83   1
   3   5 -11 2222.18  541.13   1
   3   5 -11 2706.31  798.58   1
   3   5 -11 2990.73  690.08   1
  -3  -5  12  182.58   96.37   1
  -3  -5  12  -16.29  116.85   1
   3   5 -12  172.07  117.83   1
   3   5 -12  204.47   93.98   1
   3   5 -12  186.77  161.17   1
  -3  -5  13   24.22   52.55   1
  -3  -5  13    0.50  124.21   1
   3   5 -13   23.65   80.70   1
   3   5 -13    6.46   46.66   1
   3   5 -13   30.34  160.37   1
  -3  -5  14    6.55   47.65   1
  -3  -5  14  -40.36  102.92   1
   3   5 -14  -27.88  127.94   1
   3   5 -14   -3.62   39.29   1
   3   5 -14   22.56  161.48   1
  -3  -5  15   70.45   71.41   1
   3   5 -15   79.44   76.56   1
  -3  -4   1   14.29   33.13   1
  -3  -4   1   22.29   30.60   1
  -3  -4   1   24.08   47.19   1
   3   4  -1   14.84   25.59   1
   3   4  -1   23.06   32.78   1
   3   4  -1   10.54   38.04   1
   3   4  -1   41.05   50.63   1
   3   4  -1   25.49   54.21   1
  -3  -4   2 3861.17  987.15   1
  -3  -4   2 3706.78  996.02   1
  -3  -4   2 2021.45  792.45   1
   3   4  -2 3110.29  665.37   1
   3   4  -2 3566.05  992.75   1
   3   4  -2 3296.07  993.27   1
   3   4  -2 3593.83  805.91   1
  -3  -4   3  202.96   81.34   1
  -3  -4   3  260.79   85.32   1
  -3  -4   3  127.23   87.13   1
   3   4  -3  137.64   57.27   1
   3   4  -3  197.20   84.76   1
   3   4  -3   88.78   82.35   1
   3   4  -3  137.98   96.65   1
  -3  -4   4  359.97  125.45   1
  -3  -4   4  431.19  130.92   1
  -3  -4   4  261.52  127.29   1
   3   4  -4  211.32   86.83   1
   3   4  -4  417.77  130.77   1
   3   4  -4  278.65  127.53   1
   3   4  -4  399.22  146.60   1
   3   4  -4  111.23  132.25   1
  -3  -4   5  385.50   90.74   1
  -3  -4   5  336.43  168.71   1
   3   4  -5  847.04  138.65   1
   3   4  -5  571.88  181.63   1
   3   4  -5  408.25  180.47   1
   3   4  -5 1069.07  197.00   1
   3   4  -5  309.32  175.17   1
  -3  -4   6  606.11  191.40   1
  -3  -4   6  418.57  176.80   1
   3   4  -6  730.69  133.79   1
   3   4  -6  382.96  128.77   1
   3   4  -6  491.54  189.73   1
   3   4  -6  745.74  200.98   1
   3   4  -6  410.08  187.63   1
  -3  -4   7 2083.17  478.10   1
  -3  -4   7  341.60  394.80   1
   3   4  -7 1339.05  323.79   1
   3   4  -7 1645.17  476.61   1
   3   4  -7 2926.23  441.54   1
   3   4  -7  994.95  405.66   1
  -3  -4   8  392.75  115.40   1
  -3  -4   8   89.48  117.44   1
   3   4  -8  324.91   81.92   1
   3   4  -8   28.92   73.92   1
   3   4  -8  316.89  113.23   1
   3   4  -8  672.66  154.03   1
   3   4  -8   87.31  122.47   1
  -3  -4   9 5706.23 1512.91   1
   3   4  -9 5025.87 1511.95   1
   3   4  -9 4627.49 1224.90   1
  -3  -4  10  954.59  270.16   1
   3   4 -10  510.00  185.41   1
   3   4 -10  812.43  268.84   1
   3   4 -10  776.19  272.22   1
  -3  -4  11 2100.24  543.19   1
  -3  -4  11 1588.44  462.58   1
   3   4 -11 1301.82  367.25   1
   3   4 -11 1842.57  541.87   1
   3   4 -11 1691.44  492.16   1
  -3  -4  12 1828.36  497.60   1
  -3  -4  12 1685.77  434.12   1
   3   4 -12 1047.93  334.26   1
   3   4 -12 1555.90  495.41   1
   3   4 -12 1956.81  465.27   1
   3   4 -13  447.79  128.34   1
  -3  -4  13  576.56  182.83   1
  -3  -4  13   45.63  185.09   1
   3   4 -13  360.68  165.36   1
   3   4 -13  615.04  180.96   1
  -3  -4  14 2462.31  558.19   1
  -3  -4  14   24.83  468.91   1
   3   4 -14 1459.76  391.09   1
   3   4 -14 2116.43  554.32   1
   3   4 -14 2211.80  510.42   1
  -3  -4  15  767.06  155.46   1
  -3  -4  15   22.84  191.96   1
   3   4 -15   15.84  143.78   1
   3   4 -15  469.21  223.99   1
  -3  -3   1  156.25   70.12   1
  -3  -3   1  142.16   70.63   1
  -3  -3   1   82.35   79.90   1
   3   3  -1  110.64   50.89   1
   3   3  -1  137.30   72.46   1
   3   3  -1  139.89   72.23   1
  -3  -3   2 3300.28  764.11   1
  -3  -3   2 2658.73  768.14   1
  -3  -3   2 1696.79  618.41   1
   3   3  -2 2133.23  512.75   1
   3   3  -2 2523.73  768.27   1
   3   3  -2 2604.45  768.27   1
   3   3  -2 2725.13  632.41   1
  -3  -3   3 1743.76  499.48   1
  -3  -3   3 1944.69  507.31   1
  -3  -3   3  942.07  418.47   1
   3   3  -3 1595.79  503.67   1
   3   3  -3 1834.02  505.92   1
   3   3  -3 1764.84  437.34   1
   3   3  -3 1314.73  433.34   1
  -3  -3   410080.50 1851.01   1
   3   3  -4 9974.18 1850.86   1
  -3  -3   412760.01 3003.67   1
  -3  -3   4 7744.42 2336.47   1
   3   3  -411287.20 3011.04   1
   3   3  -410886.24 2356.38   1
   3   3  -4 8857.46 2341.81   1
  -3  -3   5 3883.91  956.78   1
  -3  -3   5 3340.40  963.91   1
  -3  -3   5 1786.45  769.83   1
   3   3  -5 3598.35  647.76   1
   3   3  -5 3052.02  641.74   1
   3   3  -5 3722.94  963.97   1
   3   3  -5 2949.84  962.64   1
   3   3  -5 3616.83  797.84   1
   3   3  -5 3086.41  781.13   1
  -3  -3   6  649.12  214.02   1
  -3  -3   6  773.37  220.40   1
  -3  -3   6  279.42  195.49   1
   3   3  -6  510.17  152.19   1
   3   3  -6  550.30  145.35   1
   3   3  -6  780.71  219.39   1
   3   3  -6  521.05  216.47   1
   3   3  -6  764.62  226.55   1
   3   3  -6  966.77  206.48   1
  -3  -3   7 1815.22  572.29   1
  -3  -3   7 2527.74  582.85   1
  -3  -3   7 1657.19  479.34   1
   3   3  -7 2412.61  390.67   1
   3   3  -7 1175.66  384.23   1
   3   3  -7 2634.25  581.23   1
   3   3  -7 1380.03  578.14   1
   3   3  -7 2392.90  506.31   1
   3   3  -7 1497.97  482.89   1
  -3  -3   8 1313.31  333.30   1
  -3  -3   8  569.95  290.13   1
   3   3  -8  968.55  331.40   1
   3   3  -8 1109.52  315.23   1
  -3  -3   9 1003.32  262.84   1
  -3  -3   9  441.83  242.02   1
   3   3  -9  845.93  180.59   1
   3   3  -9  466.11  180.27   1
   3   3  -9  829.66  261.01   1
   3   3  -9  821.26  259.49   1
  -3  -3  10 7121.71 1590.74   1
  -3  -3  10 4577.16 1258.41   1
   3   3 -10 3757.68 1063.67   1
   3   3 -10 5674.17 1588.86   1
   3   3 -10 5861.69 1284.85   1
  -3  -3  11 9608.29 2832.39   1
  -3  -3  11 8242.83 2206.96   1
   3   3 -1111798.68 2831.84   1
   3   3 -11 8587.33 2232.37   1
  -3  -3  12 2638.47  760.18   1
  -3  -3  12 2598.22  627.85   1
   3   3 -12 2411.29  513.18   1
   3   3 -12 2461.48  757.92   1
   3   3 -12 2611.02  652.26   1
  -3  -3  13  879.12  279.86   1
  -3  -3  13  835.36  266.95   1
   3   3 -13  576.55  203.72   1
   3   3 -13  894.49  277.81   1
   3   3 -13  812.59  282.40   1
  -3  -3  14  -11.83  351.44   1
   3   3 -14 1907.84  364.20   1
  -3  -3  14 2277.80  524.65   1
   3   3 -14 1393.29  357.22   1
   3   3 -14 1975.64  521.95   1
  -3  -3  15    2.90   73.24   1
   3   3 -15   35.77   84.28   1
  -3  -3  15   63.54   55.86   1
   3   3 -15   10.36   93.83   1
   3   3 -15   -3.61   38.88   1
  -3  -3  16  -12.93   50.48   1
   3   3 -16   -3.63   84.32   1
  -3  -3  16   48.47   50.87   1
   3   3 -16   13.76   50.28   1
  -3  -2   122192.14 5628.45   1
  -3  -2   117605.20 5628.94   1
   3   2  -118274.36 5629.14   1
   3   2  -123046.28 5631.43   1
   3   2  -118685.96 4341.08   1
  -3  -2   2 4117.18 1164.05   1
  -3  -2   2 4294.98 1164.89   1
   3   2  -2 3705.28  778.18   1
   3   2  -2 4252.79 1168.72   1
   3   2  -2 4084.73 1166.69   1
   3   2  -2 4126.52  940.03   1
   3   2  -2 3127.49  936.89   1
  -3  -2   312764.48 2879.97   1
  -3  -2   3 9932.33 2884.42   1
  -3  -2   3 6930.16 2238.35   1
   3   2  -3 6942.17 1930.53   1
   3   2  -310330.39 2883.19   1
   3   2  -310618.71 2882.64   1
   3   2  -312286.88 2259.27   1
  -3  -2   414429.62 3342.71   1
  -3  -2   413672.91 3349.54   1
  -3  -2   410999.40 2588.71   1
   3   2  -4 8183.85 2241.82   1
   3   2  -4 8736.94 2238.91   1
   3   2  -410885.40 3345.87   1
   3   2  -414343.81 3346.72   1
   3   2  -414330.84 2612.43   1
   3   2  -4 8365.35 2599.82   1
  -3  -2   5 2598.51  707.09   1
  -3  -2   5 2233.76  712.83   1
  -3  -2   5 2142.72  573.69   1
   3   2  -5 2133.94  472.58   1
   3   2  -5 2845.87  713.03   1
   3   2  -5 2125.40  712.69   1
   3   2  -5 2840.23  600.19   1
   3   2  -5 2480.55  586.41   1
  -3  -2   6 1684.02  500.17   1
  -3  -2   6 1967.04  507.02   1
  -3  -2   6 1147.13  426.29   1
   3   2  -6 1296.76  335.48   1
   3   2  -6 1889.82  507.52   1
   3   2  -6 1696.84  507.34   1
  -3  -2   7 4248.26  658.60   1
   3   2  -7 3253.21  657.44   1
  -3  -2   7 4026.38 1087.97   1
  -3  -2   7 3639.43  877.31   1
  -3  -2   7 4024.15  882.80   1
   3   2  -7 4161.75  734.84   1
   3   2  -7 2733.13  734.86   1
   3   2  -7 4171.48  897.22   1
   3   2  -8  226.84   38.12   1
   3   2  -8  134.45   36.77   1
  -3  -2   8  165.91   81.33   1
  -3  -2   8  276.27  103.36   1
  -3  -2   8  120.78  103.39   1
   3   2  -8  182.57   61.46   1
   3   2  -8   81.99   62.52   1
   3   2  -8  295.54  120.36   1
  -3  -2   9 4741.34 1515.27   1
  -3  -2   9 6436.63 1526.38   1
  -3  -2   9 5745.15 1207.92   1
  -3  -2   9 3483.28 1210.74   1
   3   2  -9 6352.83 1024.39   1
   3   2  -9 5903.35 1525.22   1
   3   2  -9 3979.10 1526.77   1
   3   2  -9 6255.50 1230.54   1
  -3  -2  10 4402.41 1090.58   1
  -3  -2  10 3771.40  876.64   1
   3   2 -10 3615.37  731.54   1
   3   2 -10 3236.40 1088.70   1
   3   2 -10 3627.11  895.20   1
  -3  -2  11  104.51   69.49   1
  -3  -2  11  226.08  102.63   1
   3   2 -11   79.81   50.57   1
   3   2 -11   66.01   69.67   1
   3   2 -11  190.97  121.71   1
  -3  -2  12 1115.59  394.93   1
  -3  -2  12 2242.73  364.12   1
   3   2 -12  570.02  265.27   1
   3   2 -12  840.88  394.69   1
   3   2 -12 2762.81  388.56   1
  -3  -2  13  174.91   88.51   1
  -3  -2  13  195.32  137.22   1
   3   2 -13  101.61   74.14   1
   3   2 -13  123.13   85.58   1
   3   2 -13  196.21  153.92   1
  -3  -2  14 2270.01  687.32   1
  -3  -2  14 1683.87  574.52   1
   3   2 -14 2211.66  469.79   1
   3   2 -14 2590.13  688.63   1
   3   2 -14 2343.33  601.45   1
  -3  -2  15  233.04   88.06   1
  -3  -2  15    2.43  111.94   1
   3   2 -15  200.05  116.24   1
   3   2 -15    4.90   86.59   1
   3   2 -15  364.76  169.65   1
  -3  -2  16    6.05   51.14   1
  -3  -2  16   27.05   90.12   1
   3   2 -16   11.65   49.26   1
   3   2 -16  119.42  156.85   1
  -3  -1   110515.07 3008.82   1
  -3  -1   111202.80 3016.80   1
   3   1  -110639.89 3015.28   1
   3   1  -110513.58 3012.76   1
  -3  -1   218557.98 3566.99   1
  -3  -1   223092.63 5767.43   1
   3   1  -220439.75 5767.11   1
  -3  -1   314401.00 3325.66   1
  -3  -1   311557.58 3324.34   1
  -3  -1   3 8295.41 2576.09   1
  -3  -1   3 8736.44 2573.30   1
   3   1  -313446.54 3328.45   1
   3   1  -313448.57 3328.64   1
   3   1  -3 6568.37 2581.42   1
  -3  -1   4   10.89   21.83   1
  -3  -1   4    4.16   21.71   1
  -3  -1   4    3.66   23.29   1
  -3  -1   4    6.24   24.52   1
   3   1  -4   -1.38   24.71   1
   3   1  -4   23.58   23.81   1
   3   1  -4    4.96   24.67   1
   3   1  -4   10.18   25.51   1
  -3  -1   5 1393.45  415.29   1
  -3  -1   5 1251.06  420.67   1
  -3  -1   5 1263.01  352.47   1
  -3  -1   5 1421.77  361.17   1
   3   1  -5 1434.13  417.85   1
   3   1  -5 1414.90  418.15   1
   3   1  -5 1176.58  365.84   1
  -3  -1   6 7086.85 1807.87   1
  -3  -1   6 6201.06 1814.38   1
  -3  -1   6 4477.63 1422.82   1
  -3  -1   6 5564.21 1430.89   1
   3   1  -6 6001.81 1811.59   1
   3   1  -6 7512.86 1812.67   1
   3   1  -6 5533.60 1439.73   1
  -3  -1   7  379.49  143.95   1
  -3  -1   7  392.63  148.86   1
  -3  -1   7  428.70  145.64   1
  -3  -1   7  252.13  151.15   1
   3   1  -7  445.97  148.59   1
   3   1  -7  392.50  149.60   1
   3   1  -7  406.73  156.69   1
  -3  -1   8  195.84   86.98   1
  -3  -1   8  194.72   90.17   1
  -3  -1   8  198.70   97.78   1
  -3  -1   8  103.05  103.61   1
   3   1  -8  165.38   60.98   1
   3   1  -8  226.29   91.46   1
   3   1  -8  204.12   90.82   1
   3   1  -8  231.35  105.31   1
  -3  -1   9  570.44  218.13   1
  -3  -1   9  680.35  224.67   1
  -3  -1   9  846.30  210.94   1
  -3  -1   9  412.92  218.17   1
   3   1  -9  688.13  151.09   1
   3   1  -9  707.38  225.54   1
   3   1  -9  629.98  222.91   1
   3   1  -9  768.11  222.88   1
  -3  -1  10  888.25  308.71   1
  -3  -1  10 1060.45  279.85   1
  -3  -1  10  493.71  285.14   1
   3   1 -10 1176.55  310.36   1
   3   1 -10  866.28  290.67   1
  -3  -1  11  183.82  100.78   1
  -3  -1  11  204.26  115.78   1
   3   1 -11  198.20   72.77   1
   3   1 -11  252.51  102.43   1
   3   1 -11  278.13  143.56   1
  -3  -1  12  239.93  113.74   1
  -3  -1  12  206.32  125.64   1
   3   1 -12  242.16   86.96   1
   3   1 -12  280.21  114.01   1
   3   1 -12  299.63  158.63   1
  -3  -1  13  107.81   68.05   1
  -3  -1  13  112.65   92.62   1
   3   1 -13   75.39   62.78   1
   3   1 -13   89.56   67.07   1
   3   1 -13  141.89  134.71   1
  -3  -1  14 4714.39 1018.58   1
  -3  -1  14 4219.57  830.95   1
   3   1 -14 5084.53  686.45   1
   3   1 -14   -2.79 1009.85   1
   3   1 -14 5596.78  855.07   1
   3   1 -15 3789.96  389.34   1
  -3  -1  15 2690.05  542.91   1
   3   1 -15 2982.01  378.03   1
   3   1 -15   -1.02  534.87   1
  -3  -1  16   14.82  150.33   1
   3   1 -16  546.54  160.70   1
  -3   0   120387.71 3720.92   1
  -3   0   120980.97 6011.83   1
   3   0  -122955.70 6011.82   1
  -3   0   2 9984.60 2760.12   1
  -3   0   210669.02 2761.67   1
   3   0  -2 9478.87 2760.14   1
   3   0  -2 9054.58 2759.31   1
  -3   0   3 8964.28 2415.82   1
  -3   0   3 8030.96 2423.43   1
   3   0  -3 8459.93 2422.89   1
   3   0  -3 8642.18 2419.47   1
  -3   0   4 2762.28  540.66   1
   3   0  -4 3400.58  541.16   1
  -3   0   4 3833.88  907.02   1
  -3   0   4 2065.01  728.30   1
  -3   0   4 2825.57  733.55   1
   3   0  -4 3361.43  908.13   1
   3   0  -4 2462.42  737.30   1
  -3   0   534555.16 8107.53   1
  -3   0   523678.79 8104.51   1
  -3   0   525661.48 6227.33   1
  -3   0   527583.84 6229.72   1
   3   0  -529856.51 8108.73   1
   3   0  -531510.04 8109.92   1
   3   0  -527467.31 6241.21   1
   3   0  -6 5304.76  901.95   1
  -3   0   6 5055.30 1482.87   1
  -3   0   6 4616.43 1484.28   1
  -3   0   6 3837.12 1175.50   1
  -3   0   6 5135.44 1182.63   1
   3   0  -6 6583.95 1487.70   1
   3   0  -6 5053.05 1186.59   1
  -3   0   7  954.77  177.68   1
  -3   0   7  977.19  317.66   1
  -3   0   7  899.66  282.11   1
  -3   0   7 1511.61  297.46   1
   3   0  -7  983.18  213.32   1
   3   0  -7  886.87  321.80   1
   3   0  -7  902.39  321.70   1
   3   0  -7 1578.30  298.35   1
  -3   0   8 1645.55  261.66   1
  -3   0   8 1540.25  450.45   1
  -3   0   8 1082.63  387.12   1
  -3   0   8 1481.67  405.49   1
   3   0  -8 1460.64  303.41   1
   3   0  -8 1434.02  455.82   1
   3   0  -8 1611.72  457.37   1
   3   0  -8 1284.91  404.20   1
  -3   0   9 4031.03 1252.09   1
  -3   0   9 4945.55 1259.69   1
  -3   0   9 4310.64 1003.78   1
  -3   0   9 4641.86 1029.65   1
   3   0  -9 4722.03  841.59   1
   3   0  -9 4272.81 1257.00   1
   3   0  -9 3921.99 1256.43   1
   3   0  -9 4653.92 1018.12   1
  -3   0  10 1070.80  414.17   1
  -3   0  10 1751.49  423.40   1
  -3   0  10 1487.95  364.31   1
  -3   0  10 1278.69  389.70   1
   3   0 -10 1490.47  282.26   1
   3   0 -10 1457.43  420.86   1
   3   0 -10 1054.76  423.40   1
   3   0 -10 1466.68  376.82   1
  -3   0  11  904.09  306.38   1
  -3   0  11  998.48  276.88   1
   3   0 -11  975.34  206.06   1
   3   0 -11  825.56  304.73   1
   3   0 -11 1210.84  289.07   1
  -3   0  12 4197.21 1367.31   1
  -3   0  12 5943.54 1097.16   1
   3   0 -12 4719.75  917.89   1
   3   0 -12 4425.57 1367.87   1
   3   0 -12 5855.40 1111.40   1
   3   0 -13 3017.23  569.16   1
  -3   0  13 2513.12  794.90   1
  -3   0  13 3195.32  661.84   1
   3   0 -13 2709.51  536.74   1
   3   0 -13 2539.48  798.18   1
  -3   0  14 4801.32 1128.96   1
  -3   0  14 5830.30  921.13   1
   3   0 -14 5730.50  766.36   1
   3   0 -14    6.39 1129.08   1
   3   0 -14 5332.06  929.38   1
  -3   0  15  119.18   63.91   1
  -3   0  15   41.24  110.21   1
   3   0 -15   79.00   65.41   1
   3   0 -15   27.21   58.02   1
   3   0 -15  108.19  101.49   1
  -3   0  16    7.85  118.84   1
   3   0 -16   66.15   67.17   1
   3   0 -16  182.34  119.23   1
  -3   1   117724.90 3209.63   1
   3  -1  -117521.83 3209.68   1
  -3   1   118646.49 5190.61   1
   3  -1  -119887.05 5190.03   1
   3  -1  -2    5.14   11.93   1
  -3   1   2    2.28   19.10   1
  -3   1   2    5.42   21.32   1
   3  -1  -2   19.05   23.57   1
  -3   1   3 1554.92  267.80   1
  -3   1   3 1510.34  267.51   1
   3  -1  -3 1455.53  267.31   1
   3  -1  -3 1599.60  267.74   1
  -3   1   421686.04 6056.16   1
  -3   1   423564.02 6061.30   1
  -3   1   416364.08 4662.22   1
  -3   1   423979.73 4675.43   1
   3  -1  -420648.34 6059.29   1
   3  -1  -422071.32 6058.12   1
   3  -1  -422746.72 4675.06   1
  -3   1   523399.14 6560.16   1
  -3   1   525438.19 6566.74   1
  -3   1   522164.26 5045.49   1
  -3   1   524358.14 5067.40   1
   3  -1  -521818.24 6565.68   1
   3  -1  -523926.50 6565.03   1
   3  -1  -522875.49 5059.84   1
  -3   1   6 1309.85  409.16   1
  -3   1   6 1308.49  348.76   1
  -3   1   6 1368.40  362.83   1
   3  -1  -6 1276.59  270.32   1
   3  -1  -6 1394.26  410.49   1
   3  -1  -6 1331.28  411.63   1
   3  -1  -6 1186.34  360.89   1
  -3   1   7 5980.98 1094.17   1
  -3   1   7 5495.21 1626.06   1
  -3   1   7 5877.74 1629.45   1
  -3   1   7 5555.80 1284.37   1
  -3   1   7 5699.41 1299.85   1
   3  -1  -7 5468.87 1088.90   1
   3  -1  -7 5559.67 1629.79   1
   3  -1  -7 6034.35 1629.09   1
   3  -1  -7 5644.00 1298.72   1
  -3   1   826941.69 4798.24   1
  -3   1   823697.29 7148.35   1
  -3   1   828567.57 7151.52   1
  -3   1   826187.97 5499.28   1
  -3   1   823433.02 5520.26   1
   3  -1  -825317.63 7153.22   1
   3  -1  -825383.52 7154.91   1
   3  -1  -823510.73 5509.82   1
  -3   1   9  666.61  167.44   1
  -3   1   9  750.06  235.71   1
  -3   1   9  738.73  240.49   1
  -3   1   9  719.19  219.35   1
  -3   1   9  633.46  237.22   1
   3  -1  -9  682.98  159.76   1
   3  -1  -9  826.92  242.33   1
   3  -1  -9  577.89  241.17   1
   3  -1  -9  822.98  228.91   1
   3  -1 -10   70.41   31.53   1
  -3   1  10   75.15   58.39   1
  -3   1  10   57.45   50.13   1
  -3   1  10   94.34   55.18   1
  -3   1  10  114.19   67.76   1
  -3   1  10   14.03   86.36   1
   3  -1 -10   76.40   40.55   1
   3  -1 -10   80.24   53.79   1
   3  -1 -10   60.69   52.98   1
  -3   1  11  217.94  102.18   1
  -3   1  11  252.47  109.35   1
   3  -1 -11  216.10   72.10   1
   3  -1 -11  245.47  103.85   1
   3  -1 -11  199.53  115.89   1
  -3   1  12  197.59  102.05   1
  -3   1  12  221.96  113.15   1
   3  -1 -12  204.45   69.87   1
   3  -1 -12  246.24  103.31   1
   3  -1 -12  251.87  118.07   1
  -3   1  13 1077.10  346.20   1
  -3   1  13 1325.68  315.48   1
   3  -1 -13 1036.29  236.03   1
   3  -1 -13  964.25  347.67   1
   3  -1 -13 1186.30  324.81   1
  -3   1  14  334.43  138.96   1
   3  -1 -14  352.86   81.70   1
   3  -1 -14   11.31   97.42   1
   3  -1 -14  380.48  133.90   1
  -3   1  15  790.89  195.33   1
  -3   1  15  190.36  203.77   1
   3  -1 -15   18.90  190.59   1
   3  -1 -15 1812.06  232.88   1
  -3   1  16   10.65   75.09   1
   3  -1 -16   63.88  115.28   1
  -3   2   1 4298.98  764.39   1
   3  -2  -1 4863.07  764.94   1
  -3   2   1 4888.88 1266.47   1
   3  -2  -1 3663.25 1264.05   1
  -3   2   2 2138.27  578.31   1
   3  -2  -2 2681.39  578.49   1
  -3   2   2 2633.35  966.83   1
  -3   2   2 6030.69  775.28   1
  -3   2   2 6647.57  792.40   1
  -3   2   3 2638.88  787.56   1
  -3   2   3 2629.88  788.55   1
  -3   2   3 2855.84  637.34   1
   3  -2  -3 2903.76  790.48   1
   3  -2  -3 2334.57  786.50   1
   3  -2  -3 3137.50  643.58   1
  -3   2   4  673.81  263.11   1
  -3   2   4  735.85  263.23   1
  -3   2   4  919.81  231.94   1
  -3   2   4 1194.66  247.43   1
   3  -2  -4  818.71  265.63   1
   3  -2  -4  687.00  263.42   1
   3  -2  -4 1024.48  241.85   1
   3  -2  -5 4738.69  786.75   1
  -3   2   5 4748.43 1298.44   1
  -3   2   5 4344.57 1301.62   1
  -3   2   5 4376.56 1031.23   1
  -3   2   5 4516.83 1051.48   1
   3  -2  -5 4533.45  866.62   1
   3  -2  -5 4402.36 1300.42   1
   3  -2  -5 4421.82 1039.81   1
  -3   2   6  654.89  165.19   1
  -3   2   6  540.20  246.38   1
  -3   2   6  651.10  247.79   1
  -3   2   6 1412.35  223.15   1
  -3   2   6 1359.22  242.24   1
   3  -2  -6  728.88  163.08   1
   3  -2  -6  625.66  247.76   1
   3  -2  -6  731.69  250.74   1
  -3   2   7 1569.16  322.60   1
  -3   2   7 1605.04  481.14   1
  -3   2   7 1458.44  480.40   1
  -3   2   7 1511.42  401.95   1
  -3   2   7 1891.49  424.43   1
   3  -2  -7 1484.66  319.58   1
   3  -2  -7 1585.08  478.60   1
   3  -2  -7 1545.55  483.58   1
   3  -2  -7 1920.33  415.07   1
  -3   2   8  243.48   85.27   1
  -3   2   8  233.43  116.69   1
  -3   2   8  276.08  117.20   1
  -3   2   8  370.16  119.05   1
  -3   2   8  509.74  144.56   1
   3  -2  -8  270.17   78.93   1
   3  -2  -8  235.17  115.51   1
   3  -2  -8  265.52  119.57   1
   3  -2  -8  483.94  128.74   1
  -3   2   9 1384.25  263.08   1
  -3   2   9 1152.02  373.82   1
  -3   2   9 1148.80  375.78   1
  -3   2   9 1327.71  324.21   1
  -3   2   9 1321.08  359.00   1
   3  -2  -9 1230.65  375.73   1
   3  -2  -9 1056.31  380.08   1
   3  -2  -9 1324.33  336.55   1
   3  -2 -10  332.10   44.33   1
  -3   2  10   95.53   63.13   1
  -3   2  10   86.32   67.62   1
  -3   2  10  132.85   68.96   1
   3  -2 -10  177.94   55.68   1
   3  -2 -10  126.76   68.19   1
   3  -2 -10   79.67   70.24   1
  -3   2  11 4445.19 1294.72   1
  -3   2  11 4144.68 1034.43   1
   3  -2 -11 5085.64  870.30   1
   3  -2 -11 4185.33 1293.90   1
   3  -2 -11 4952.49 1051.68   1
  -3   2  12  316.17  149.81   1
  -3   2  12  575.59  154.62   1
   3  -2 -12  429.80  109.68   1
   3  -2 -12  327.94  151.14   1
   3  -2 -12  554.62  162.57   1
  -3   2  13  166.18   42.34   1
   3  -2 -13  146.22   54.30   1
  -3   2  13   65.16   62.10   1
   3  -2 -13  118.47   60.82   1
   3  -2 -13   77.12   69.96   1
  -3   2  14 1528.62  279.07   1
   3  -2 -14 1796.94  283.53   1
  -3   2  14  863.84  406.81   1
   3  -2 -14 1769.38  283.60   1
   3  -2 -14 1145.46  414.27   1
  -3   2  15  -13.35  119.52   1
   3  -2 -15  622.62  153.73   1
  -3   2  16   33.72   77.08   1
   3  -2 -16    5.44   82.12   1
  -3   3   1 4244.57  737.31   1
  -3   3   1 4531.48  820.76   1
  -3   3   1 4098.69  815.32   1
  -3   3   1 4274.65 1217.46   1
  -3   3   1 4326.52  977.02   1
  -3   3   1 4547.95  982.81   1
   3  -3  -1 4075.80 1220.44   1
   3  -3  -1 4161.57 1221.97   1
   3  -3  -1 4277.25  968.25   1
  -3   3   2 1904.92  556.32   1
  -3   3   2 2244.13  551.58   1
  -3   3   2 1796.46  454.98   1
  -3   3   2 1447.36  474.50   1
   3  -3  -2 1839.12  552.27   1
   3  -3  -2 1688.68  551.52   1
   3  -3  -2 1472.29  460.68   1
   3  -3  -2 1826.77  459.84   1
  -3   3   3 4056.25  835.81   1
  -3   3   3 4689.96 1249.66   1
  -3   3   3 4884.71 1248.81   1
  -3   3   3 3838.37  988.92   1
  -3   3   3 4398.69 1013.53   1
   3  -3  -3 4482.58 1251.30   1
   3  -3  -3 4413.63 1251.87   1
   3  -3  -3 2827.10  994.56   1
   3  -3  -3 4388.21  999.38   1
  -3   3   4   17.78   23.89   1
  -3   3   4    1.95   20.57   1
  -3   3   4   13.02   26.63   1
  -3   3   4   -3.37   38.82   1
   3  -3  -4   21.72   19.40   1
   3  -3  -4    5.01   21.83   1
   3  -3  -4    2.03   22.47   1
   3  -3  -4   12.14   30.78   1
  -3   3   5  106.31   40.45   1
  -3   3   5   77.51   55.31   1
  -3   3   5   91.84   51.64   1
  -3   3   5   58.37   58.41   1
  -3   3   5   93.99   75.29   1
   3  -3  -5   76.68   35.89   1
   3  -3  -5   75.06   52.80   1
   3  -3  -5   69.91   55.03   1
   3  -3  -5  102.82   65.96   1
   3  -3  -5   87.12   64.83   1
  -3   3   6   35.40   28.87   1
  -3   3   6    8.21   28.10   1
  -3   3   6    5.87   26.90   1
  -3   3   6    8.75   39.71   1
  -3   3   6   14.28   57.10   1
   3  -3  -6   27.62   27.35   1
   3  -3  -6   13.66   27.51   1
   3  -3  -6   17.73   28.91   1
   3  -3  -6   53.96   50.43   1
   3  -3  -6   18.61   44.29   1
  -3   3   717281.92 3165.35   1
  -3   3   718590.22 4722.49   1
  -3   3   716387.83 4718.44   1
  -3   3   712626.33 3642.13   1
  -3   3   715765.72 3667.22   1
   3  -3  -716219.17 3160.44   1
   3  -3  -718578.83 4719.52   1
   3  -3  -716855.06 4725.59   1
   3  -3  -715929.56 3655.29   1
  -3   3   8  700.60  230.32   1
  -3   3   8  727.63  229.57   1
  -3   3   8  704.29  209.59   1
  -3   3   8  698.97  233.45   1
   3  -3  -8  707.54  154.44   1
   3  -3  -8  630.25  231.11   1
   3  -3  -8  627.96  232.93   1
   3  -3  -8  694.62  219.82   1
  -3   3   9 1404.89  294.28   1
  -3   3   9 1342.47  424.42   1
  -3   3   9 1527.84  425.66   1
  -3   3   9 1538.31  362.22   1
  -3   3   9 1026.30  390.23   1
   3  -3  -9 1368.04  285.65   1
   3  -3  -9 1253.93  427.52   1
   3  -3  -9 1445.78  431.40   1
   3  -3  -9 1364.60  374.89   1
  -3   3  10  301.46  136.09   1
  -3   3  10  385.38  137.09   1
  -3   3  10  470.11  137.39   1
   3  -3 -10  380.50   95.83   1
   3  -3 -10  374.87  138.64   1
   3  -3 -10  253.65  139.96   1
   3  -3 -10  428.75  147.87   1
  -3   3  11 1463.53  308.53   1
  -3   3  11 1373.45  445.62   1
   3  -3 -11 1545.10  301.49   1
   3  -3 -11 1468.54  448.94   1
   3  -3 -11 1474.70  392.93   1
  -3   3  12  534.74  207.18   1
   3  -3 -12  692.00  146.63   1
   3  -3 -12  595.43  211.68   1
   3  -3 -12  632.69  207.26   1
  -3   3  13  215.31  138.00   1
  -3   3  13  511.60  143.91   1
   3  -3 -13  436.32  104.18   1
   3  -3 -13  326.86  144.34   1
   3  -3 -13  461.36  162.08   1
   3  -3 -14 2149.64  434.57   1
   3  -3 -14 2150.75  549.66   1
  -3   3  15   13.83   36.61   1
   3  -3 -15   91.86   55.22   1
   3  -3 -15  111.52  101.64   1
  -3   4   1   95.39   40.54   1
  -3   4   1   87.96   57.79   1
  -3   4   1   93.03   53.58   1
  -3   4   1  112.42   64.31   1
  -3   4   1  132.69   74.84   1
   3  -4  -1   93.27   57.19   1
   3  -4  -1   88.46   57.40   1
   3  -4  -1   72.92   62.02   1
  -3   4   2 9252.79 1515.68   1
  -3   4   2 8092.74 1655.01   1
  -3   4   2 7945.55 2474.33   1
  -3   4   2 8492.97 1919.38   1
  -3   4   2 9068.21 1941.43   1
   3  -4  -2 9171.17 2473.66   1
   3  -4  -2 8497.93 2472.42   1
   3  -4  -2 9633.13 1926.20   1
   3  -4  -2 8894.43 1928.00   1
  -3   4   3 8485.70 1595.83   1
  -3   4   3 8186.53 2383.02   1
  -3   4   3 8500.02 2375.18   1
  -3   4   3 7985.17 1853.79   1
  -3   4   3 8164.94 1874.40   1
   3  -4  -3 9333.47 2382.25   1
   3  -4  -3 7712.70 2379.32   1
   3  -4  -3 8691.29 1859.78   1
   3  -4  -3 8697.73 1866.38   1
  -3   4   424651.48 4434.06   1
  -3   4   422840.57 6617.82   1
  -3   4   422277.81 6611.08   1
  -3   4   423889.41 5091.45   1
  -3   4   422653.58 5110.88   1
   3  -4  -423503.38 4436.53   1
   3  -4  -425694.65 6616.63   1
   3  -4  -423977.89 6619.43   1
   3  -4  -424356.87 5092.64   1
   3  -4  -422284.41 5097.20   1
  -3   4   5 2658.60  603.71   1
  -3   4   5 3001.92  903.43   1
  -3   4   5 3191.23  898.24   1
  -3   4   5 3312.29  726.89   1
  -3   4   5 2847.20  750.58   1
   3  -4  -5 3205.70  601.53   1
   3  -4  -5 3344.05  901.98   1
   3  -4  -5 2845.20  902.68   1
   3  -4  -5 3191.21  733.52   1
   3  -4  -5 3294.61  733.48   1
  -3   4   6 1930.51  362.40   1
  -3   4   6 1727.11  540.19   1
  -3   4   6 1700.75  534.09   1
  -3   4   6 1856.40  448.55   1
  -3   4   6 1805.72  469.03   1
   3  -4  -6 1873.94  358.68   1
   3  -4  -6 1690.66  537.44   1
   3  -4  -6 1813.48  542.06   1
   3  -4  -6 1870.39  451.15   1
   3  -4  -6 1689.83  458.81   1
  -3   4   7 9777.32 1942.96   1
  -3   4   710374.20 2896.10   1
  -3   4   710420.94 2891.48   1
  -3   4   710199.55 2249.57   1
  -3   4   710642.10 2276.58   1
   3  -4  -710319.92 1937.79   1
   3  -4  -710059.00 2894.36   1
   3  -4  -7 9948.71 2901.03   1
   3  -4  -710931.38 2254.98   1
   3  -4  -710457.40 2265.43   1
   3  -4  -8 6391.89 1000.89   1
  -3   4   8 3919.18  920.79   1
  -3   4   8 4009.57 1367.77   1
  -3   4   8 4623.83 1364.06   1
  -3   4   8 6769.42 1085.24   1
  -3   4   8 5974.64 1117.13   1
   3  -4  -8 5048.03  915.42   1
   3  -4  -8 4473.38 1366.39   1
   3  -4  -8 4166.14 1370.95   1
   3  -4  -8 4960.92 1090.80   1
  -3   4   9 1676.97  398.75   1
   3  -4  -9 2153.75  400.35   1
  -3   4   9 1807.24  569.24   1
  -3   4   9 2041.22  566.80   1
   3  -4  -9 1955.22  382.52   1
   3  -4  -9 1950.53  570.24   1
   3  -4  -9 1715.96  576.19   1
  -3   4  10   39.41   46.59   1
  -3   4  10  106.86   70.88   1
   3  -4 -10   95.67   51.14   1
   3  -4 -10   52.96   53.00   1
   3  -4 -10   88.35   75.07   1
  -3   4  11  954.28  167.99   1
   3  -4 -11 1135.27  170.64   1
  -3   4  11  508.19  252.42   1
   3  -4 -11 1156.35  177.30   1
   3  -4 -11  575.38  259.85   1
  -3   4  12 1727.40  739.58   1
  -3   4  12 3855.25  611.84   1
   3  -4 -12 3857.94  503.43   1
   3  -4 -12 1217.85  744.75   1
   3  -4 -12 3596.71  625.67   1
  -3   4  13 1016.88  280.19   1
   3  -4 -13  987.95  215.05   1
   3  -4 -13  868.38  292.47   1
  -3   4  14  434.46  168.14   1
   3  -4 -14  348.42  119.18   1
   3  -4 -14  592.10  181.34   1
  -3   4  15    3.23   46.20   1
   3  -4 -15  303.10   59.64   1
   3  -5  -1 2422.48  424.21   1
  -3   5   1 2439.15  480.27   1
  -3   5   1 2206.46  717.24   1
  -3   5   1 2405.76  710.14   1
  -3   5   1 2378.57  588.26   1
  -3   5   1 2563.17  597.83   1
   3  -5  -1 2798.65  717.89   1
   3  -5  -1 2191.05  582.61   1
  -3   5   2 6089.88 1261.55   1
  -3   5   2 6285.06 1885.83   1
  -3   5   2 6955.76 1876.71   1
  -3   5   2 6549.17 1473.72   1
  -3   5   2 6501.33 1494.92   1
   3  -5  -2 7145.10 1883.12   1
   3  -5  -2 7074.36 1886.53   1
   3  -5  -2 5480.32 1476.81   1
   3  -5  -2 6558.82 1479.85   1
  -3   5   3 2405.87  489.59   1
  -3   5   3 2578.26  735.54   1
  -3   5   3 2788.18  724.50   1
  -3   5   3 2598.96  598.49   1
  -3   5   3 2230.55  609.32   1
   3  -5  -3 2390.57  730.82   1
   3  -5  -3 2396.97  730.00   1
   3  -5  -3 1672.11  597.63   1
   3  -5  -3 2818.10  601.90   1
  -3   5   4 7485.18 1422.06   1
  -3   5   4 7786.25 2122.61   1
  -3   5   4 7919.97 2116.39   1
  -3   5   4 7338.03 1657.65   1
  -3   5   4 6798.28 1677.62   1
   3  -5  -4 7081.83 1424.48   1
   3  -5  -4 7401.67 2122.77   1
   3  -5  -4 7329.72 2124.37   1
   3  -5  -4 7249.78 1663.12   1
   3  -5  -4 7625.60 1670.64   1
  -3   5   5 6157.84 1191.68   1
  -3   5   5 5369.02 1779.54   1
  -3   5   5 6894.90 1771.23   1
  -3   5   5 6187.26 1397.27   1
  -3   5   5 5825.62 1417.07   1
   3  -5  -5 7215.56 1195.03   1
   3  -5  -5 6017.41 1777.53   1
   3  -5  -5 6150.00 1779.93   1
   3  -5  -5 6003.67 1399.62   1
   3  -5  -5 6257.47 1401.75   1
  -3   5   6   99.88   61.33   1
  -3   5   6  170.40   88.71   1
  -3   5   6  185.84   81.03   1
  -3   5   6  175.23   90.29   1
  -3   5   6  158.04  110.88   1
   3  -5  -6  222.00   64.40   1
   3  -5  -6  235.12   85.46   1
   3  -5  -6  128.28   88.93   1
   3  -5  -6  150.59   97.29   1
   3  -5  -6  163.49   96.95   1
  -3   5   710181.12 1979.27   1
  -3   5   7 9513.53 2949.03   1
  -3   5   710822.35 2942.69   1
  -3   5   710782.65 2292.00   1
  -3   5   7 8384.71 2314.93   1
   3  -5  -711609.39 1975.08   1
   3  -5  -710109.17 2948.27   1
   3  -5  -711190.19 2955.00   1
   3  -5  -7 9176.36 2296.86   1
   3  -5  -711736.52 2303.41   1
  -3   5   8 3956.32 1196.18   1
  -3   5   8 4204.99 1187.82   1
  -3   5   8 4187.85  952.67   1
   3  -5  -8 4420.01  799.93   1
   3  -5  -8 4648.83 1194.19   1
   3  -5  -8 3390.35 1199.23   1
   3  -5  -8 4023.90  965.29   1
  -3   5   9 1347.12  434.74   1
  -3   5   9 1488.89  427.59   1
  -3   5   9 1701.64  372.57   1
   3  -5  -9 1543.64  292.14   1
   3  -5  -9 1315.11  435.07   1
   3  -5  -9 1067.38  441.66   1
   3  -5  -9 1601.22  385.61   1
  -3   5  10   -1.00   23.73   1
  -3   5  10   12.23   55.44   1
   3  -5 -10    0.90   51.63   1
   3  -5 -10   -1.19   34.66   1
   3  -5 -10   13.41   56.75   1
  -3   5  11  149.41   92.40   1
   3  -5 -11  144.63   72.36   1
   3  -5 -11  116.46   98.93   1
  -3   5  12  299.38  133.44   1
   3  -5 -12  323.67  108.51   1
   3  -5 -12  328.96  144.87   1
  -3   5  13  457.36  173.75   1
   3  -5 -13  507.72  132.82   1
   3  -5 -13  517.87  194.48   1
  -3   5  14   16.51   27.02   1
   3  -5 -14   51.19   49.41   1
  -3   6   1  824.61  194.01   1
  -3   6   1  718.74  288.14   1
  -3   6   1  879.00  281.32   1
  -3   6   1 1389.51  259.31   1
  -3   6   1 1133.81  269.38   1
   3  -6  -1  967.27  288.47   1
   3  -6  -1  760.11  287.95   1
   3  -6  -1  866.97  254.44   1
  -3   6   2 1135.41  308.44   1
  -3   6   2 1014.68  299.36   1
  -3   6   2  872.04  447.30   1
  -3   6   2 1342.32  439.87   1
  -3   6   2 2841.14  378.27   1
   3  -6  -2 1890.52  447.13   1
   3  -6  -2 1098.57  447.18   1
   3  -6  -2 1357.22  383.06   1
   3  -6  -2 2309.97  385.03   1
  -3   6   3 3742.32  870.31   1
  -3   6   3 3981.04 1301.21   1
  -3   6   3 4534.75 1291.26   1
  -3   6   3 6357.29 1035.85   1
  -3   6   3 4581.51 1047.00   1
   3  -6  -3 4859.61 1299.41   1
   3  -6  -3 3853.01 1300.65   1
   3  -6  -3 4776.30 1033.79   1
   3  -6  -3 5361.80 1037.59   1
  -3   6   4  825.95  141.74   1
  -3   6   4  614.50  153.22   1
  -3   6   4  576.01  227.18   1
  -3   6   4  709.84  217.32   1
  -3   6   4  588.99  222.20   1
   3  -6  -4  581.47  156.76   1
   3  -6  -4  807.95  224.80   1
   3  -6  -4  589.77  225.14   1
   3  -6  -4  511.00  209.15   1
   3  -6  -4  772.77  215.24   1
  -3   6   5   29.80   46.35   1
  -3   6   5   45.94   49.29   1
  -3   6   5   93.23   56.95   1
  -3   6   5   45.62   47.75   1
  -3   6   5   90.94   63.36   1
   3  -6  -5   42.35   50.21   1
   3  -6  -5  164.09   54.05   1
   3  -6  -5   52.79   53.52   1
   3  -6  -5   39.78   72.86   1
   3  -6  -5   65.47   71.39   1
  -3   6   6   50.96   76.12   1
  -3   6   6  126.78  106.19   1
  -3   6   6  231.12   95.88   1
  -3   6   6  440.28  111.79   1
   3  -6  -6  291.21  102.51   1
   3  -6  -6  189.33  107.03   1
   3  -6  -6  371.58  115.63   1
  -3   6   7  591.09  240.80   1
  -3   6   7  714.45  232.22   1
  -3   6   7  689.04  218.17   1
   3  -6  -7  828.36  162.90   1
   3  -6  -7  830.19  239.00   1
   3  -6  -7  590.10  246.49   1
   3  -6  -7  696.74  224.07   1
  -3   6   8 7325.44 2165.40   1
  -3   6   8 7875.08 1700.57   1
   3  -6  -8 8563.99 1457.14   1
   3  -6  -8 7045.54 2171.37   1
   3  -6  -8 8318.10 1710.33   1
  -3   6   9 4982.83 1785.66   1
  -3   6   9 7426.05 1412.56   1
   3  -6  -9 7654.75 1204.92   1
   3  -6  -9 5707.54 1791.68   1
   3  -6  -9 8355.16 1426.23   1
  -3   6  10 1592.29  431.24   1
   3  -6 -10 1636.69  347.35   1
   3  -6 -10 1941.04  445.50   1
  -3   6  11  639.80  201.79   1
   3  -6 -11  574.47  153.01   1
   3  -6 -11  685.04  214.22   1
   3  -6 -12   42.96   48.00   1
  -3   6  12   41.10   62.46   1
   3  -6 -12   72.01   66.88   1
  -3   6  13   35.21  230.39   1
   3  -6 -13 1063.40  190.98   1
   3  -6 -13 1222.81  262.49   1
   3  -7  -1  595.05  183.59   1
  -3   7   1  650.91  190.12   1
  -3   7   1  749.85  282.69   1
  -3   7   1 1085.71  274.76   1
  -3   7   1 1081.23  255.22   1
  -3   7   1  684.41  265.44   1
   3  -7  -1 1030.21  279.51   1
   3  -7  -1  739.91  281.73   1
   3  -7  -2 1369.25  322.06   1
  -3   7   2  900.76  312.32   1
  -3   7   2 1259.40  465.06   1
  -3   7   2 2086.82  458.63   1
  -3   7   2 1708.88  393.83   1
  -3   7   2 1177.93  410.37   1
   3  -7  -2 1871.26  464.23   1
   3  -7  -2 1404.57  465.95   1
   3  -7  -2 1085.85  394.47   1
  -3   7   3 2762.11  816.10   1
  -3   7   3 3465.53 1220.41   1
  -3   7   3 5079.31 1210.78   1
  -3   7   3 4563.51  968.62   1
   3  -7  -3 4815.05 1216.93   1
   3  -7  -3 3764.51 1220.55   1
   3  -7  -3 4755.81  976.69   1
  -3   7   4  345.13  175.98   1
  -3   7   4  540.28  165.06   1
  -3   7   4  505.26  168.30   1
   3  -7  -4  565.13  171.60   1
   3  -7  -4  360.01  171.06   1
   3  -7  -4  510.57  171.03   1
  -3   7   5 4831.46 1050.27   1
  -3   7   5 5269.86 1427.78   1
   3  -7  -5 4049.69  969.39   1
   3  -7  -5 5234.97 1434.44   1
   3  -7  -5 5004.16 1147.55   1
  -3   7   6 2162.23  629.10   1
  -3   7   6 2173.32  524.97   1
   3  -7  -6 1713.09  439.24   1
   3  -7  -6 2215.17  635.65   1
   3  -7  -6 2258.53  538.63   1
  -3   7   7 3455.01  976.28   1
  -3   7   7 3191.15  788.41   1
   3  -7  -7 4354.55  668.59   1
   3  -7  -7 2814.05  979.44   1
   3  -7  -7 3489.22  801.54   1
  -3   7   8  535.75  349.01   1
  -3   7   8 1648.94  309.69   1
   3  -7  -8 1629.32  244.94   1
   3  -7  -8  958.51  354.49   1
   3  -7  -8 1531.98  319.21   1
  -3   7   9  895.80  245.93   1
   3  -7  -9  871.25  191.95   1
   3  -7  -9  680.36  254.72   1
  -3   7  10  285.66  124.48   1
   3  -7 -10  308.59   96.66   1
   3  -7 -10  280.72  137.96   1
  -3   7  11 1228.08  325.14   1
   3  -7 -11 1184.78  259.45   1
   3  -7 -11 1155.94  336.60   1
  -3   7  12    6.35   55.16   1
   3  -7 -12   20.53   63.32   1
   3  -7 -12    4.74   74.82   1
  -3   8   133252.38 9425.59   1
  -3   8   129477.99 7243.80   1
   3  -8  -136270.43 9430.44   1
  -3   8   2 1312.65  418.12   1
  -3   8   2 1740.84  367.88   1
   3  -8  -2 1185.92  421.53   1
   3  -8  -2 1573.73  368.21   1
  -3   8   3  215.64  125.43   1
   3  -8  -3  325.55  127.68   1
   3  -8  -3  579.95  142.72   1
  -3   8   4    4.38   41.69   1
  -3   8   4   97.21   62.94   1
   3  -8  -4   24.40   43.62   1
   3  -8  -4  124.87   74.04   1
  -3   8   5  139.02   95.49   1
  -3   8   5  332.89  113.75   1
   3  -8  -5  147.85   82.53   1
   3  -8  -5  269.61  102.48   1
   3  -8  -5  264.35  118.71   1
  -3   8   6   12.09   80.01   1
  -3   8   6  516.76  108.71   1
   3  -8  -6  182.37   92.90   1
   3  -8  -6   69.16   91.95   1
   3  -8  -6  322.15  111.79   1
   3  -8  -7   58.10   43.98   1
  -3   8   7  -17.36   43.55   1
  -3   8   7  110.57   67.91   1
   3  -8  -7   35.88   83.99   1
   3  -8  -7    9.97   44.82   1
  -3   8   8  197.92  102.71   1
   3  -8  -8  193.72  107.75   1
   3  -8  -8  146.50  113.19   1
  -3   8   9    8.32   25.42   1
   3  -8  -9    1.62   39.53   1
   3  -8  -9    4.73   70.73   1
  -3   8  10   25.58   46.95   1
   3  -8 -10  -12.60   65.66   1
   3  -8 -10    7.36   68.97   1
  -3   8  11   -5.23  107.88   1
   3  -8 -11  530.69  135.16   1
  -3   9   1 1046.67  315.69   1
  -3   9   1  999.36  290.61   1
   3  -9  -1  915.39  323.12   1
  -3   9   2 4794.67 1385.85   1
  -3   9   2 4621.25 1109.84   1
   3  -9  -2 5012.32 1395.59   1
  -3   9   3  637.25  223.80   1
  -3   9   3  611.94  212.53   1
   3  -9  -3  691.75  234.05   1
   3  -9  -3  702.18  217.82   1
   3  -9  -4  368.33   84.93   1
  -3   9   4  309.92  138.57   1
  -3   9   4  363.11  138.34   1
   3  -9  -4  369.62  145.29   1
  -3   9   5  241.29   50.84   1
   3  -9  -5  284.90   57.56   1
  -3   9   5  115.13   95.93   1
   3  -9  -5  160.96   97.64   1
  -3   9   6  436.04  156.59   1
   3  -9  -6  324.58  123.79   1
   3  -9  -6  420.63  162.33   1
   3  -9  -7 4174.46  816.01   1
  -3   9   7 4337.12  909.06   1
   3  -9  -7 3149.69  768.08   1
  -3   9   8   39.90   43.05   1
   3  -9  -8   35.85   48.63   1
   3  -9  -8   55.14   96.76   1
  -3   9   9   29.80   85.34   1
   3  -9  -9  154.90  112.09   1
   3  -9  -9  107.31  102.15   1
  -3  10   1  201.15   49.56   1
  -3  10   1  115.69   66.52   1
   3 -10  -1    4.72   64.57   1
  -3  10   2  670.73  176.75   1
  -3  10   2  875.58  184.28   1
   3 -10  -2    2.35  174.68   1
  -3  10   3 2131.33  290.14   1
  -3  10   3 2136.94  426.47   1
   3 -10  -3    7.40  421.81   1
   3 -10  -4 1160.68  224.79   1
  -3  10   4  913.79  299.22   1
  -3  10   5    9.86   29.43   1
   3 -10  -5   15.40   92.06   1
  -3  10   6  585.47  222.13   1
   3 -10  -6  848.51  242.90   1
  -3  10   7   86.91  130.54   1
   3 -10  -7  456.59  141.29   1
  -3  11   1  351.31   94.37   1
  -3  11   2  335.65  165.95   1
  -3  11   3   67.70   93.57   1
  -3  11   4   41.32   88.88   1
   2  10  -1   40.17   65.89   1
   2  10  -2  666.17  254.17   1
  -2 -10   3   -7.68  198.44   1
   2  10  -3  906.77  208.49   1
   2  10  -3  766.10  231.76   1
  -2 -10   4   23.41  822.21   1
   2  10  -4 4569.94  832.26   1
   2  10  -4 4710.89  721.54   1
  -2 -10   5   -3.63  169.41   1
   2  10  -5  721.12  179.98   1
   2  10  -5  696.47  246.92   1
  -2 -10   6    3.07   54.85   1
   2  10  -6   53.71   65.18   1
   2  10  -6  161.36  175.86   1
  -2 -10   7   -6.74  109.96   1
   2  10  -7  885.41  209.77   1
   2  10  -7 1116.81  237.78   1
   2  10  -7  650.84  308.56   1
   2  10  -8  553.10   74.60   1
  -2 -10   8   37.33  147.24   1
   2  10  -8  281.72  140.52   1
   2  10  -8  544.89  279.26   1
  -2 -10   9  476.77  201.74   1
   2  10  -9  519.98  196.67   1
  -2  -9   1   -2.61 1136.82   1
   2   9  -1 6334.73 1144.85   1
   2   9  -1 6498.01  923.62   1
  -2  -9   2    1.52   39.15   1
   2   9  -2   13.81   49.36   1
   2   9  -2   22.48  106.11   1
  -2  -9   3    2.82  644.64   1
   2   9  -3 3575.42  651.60   1
   2   9  -3 3288.54  558.40   1
  -2  -9   4  177.88  161.73   1
   2   9  -4  463.58  166.76   1
   2   9  -4  719.82  198.17   1
   2   9  -5   63.27   78.04   1
  -2  -9   5   44.52   53.97   1
   2   9  -5   56.70   58.47   1
  -2  -9   6  134.60   86.90   1
   2   9  -6  124.57   86.35   1
   2   9  -6  226.16  166.11   1
  -2  -9   7 1665.30  564.15   1
   2   9  -7 1619.83  413.26   1
   2   9  -7 1936.99  559.04   1
   2   9  -7 2074.33  536.78   1
   2   9  -8  145.48  115.55   1
  -2  -9   8  119.73   83.59   1
   2   9  -8  132.15   96.64   1
   2   9  -8  144.21   81.75   1
  -2  -9   9 1379.84  464.23   1
   2   9  -9 1429.28  338.32   1
   2   9  -9 1500.16  457.99   1
   2   9  -9 1510.00  473.74   1
  -2  -9  10 1473.32  510.17   1
   2   9 -10 1380.95  367.03   1
   2   9 -10 1863.43  504.46   1
   2   9 -10 1512.40  507.62   1
  -2  -9  11  993.69  317.83   1
   2   9 -11  853.64  264.14   1
   2   9 -11  881.22  310.26   1
   2   9 -11  895.90  368.87   1
  -2  -9  12   -7.68   23.47   1
   2   9 -12   18.50   21.95   1
  -2  -8   1  914.01  306.66   1
   2   8  -1  884.36  306.85   1
   2   8  -1  973.42  280.39   1
  -2  -8   2 2239.37  668.79   1
   2   8  -2 2240.55  667.98   1
   2   8  -2 2087.45  555.44   1
  -2  -8   3 2295.13  713.05   1
   2   8  -3 2351.94  714.12   1
   2   8  -3 2542.73  599.47   1
  -2  -8   4  396.07  172.96   1
   2   8  -4  385.79  171.15   1
   2   8  -4  672.54  191.30   1
  -2  -8   5 1387.59  428.25   1
   2   8  -5 1259.53  422.93   1
   2   8  -5 1492.61  394.39   1
   2   8  -6 2204.05  431.63   1
  -2  -8   6 1944.22  617.14   1
   2   8  -6 2035.88  611.03   1
  -2  -8   7    9.36   64.17   1
   2   8  -7  366.90  103.52   1
   2   8  -7   14.14   62.90   1
   2   8  -7  299.67  152.98   1
  -2  -8   8  260.96   59.11   1
   2   8  -8  305.31  113.00   1
   2   8  -8  372.31  216.30   1
  -2  -8   9 9762.01 2945.77   1
   2   8  -910525.69 1983.48   1
   2   8  -910715.85 2939.66   1
   2   8  -910766.48 2339.98   1
  -2  -8  10 1156.75  365.70   1
   2   8 -10 1012.20  269.20   1
   2   8 -10 1097.10  360.23   1
   2   8 -10 1106.02  383.12   1
  -2  -8  11 1059.41  303.11   1
   2   8 -11  556.70  231.30   1
   2   8 -11  788.91  297.05   1
   2   8 -11 1128.09  356.91   1
  -2  -8  12  605.47  198.57   1
   2   8 -12  273.17  149.50   1
   2   8 -12  505.19  192.83   1
   2   8 -12  646.67  291.12   1
  -2  -8  13 1783.99  317.26   1
  -2  -7   1  694.69  233.24   1
   2   7  -1  685.41  231.34   1
   2   7  -1  564.74  213.93   1
  -2  -7   2 2126.54  642.19   1
   2   7  -2 2288.82  642.42   1
   2   7  -2 1827.11  528.88   1
  -2  -7   3 6044.72 1646.88   1
   2   7  -3 5410.99 1644.84   1
   2   7  -3 5829.07 1307.41   1
   2   7  -4   42.86   21.56   1
   2   7  -4   41.58   31.43   1
  -2  -7   4   73.18   48.07   1
  -2  -7   5 3220.90  828.39   1
   2   7  -5 2541.66  820.77   1
   2   7  -5 2528.73  684.90   1
  -2  -7   6 5359.80 1528.93   1
   2   7  -6 4973.86 1522.19   1
   2   7  -6 6220.11 1234.18   1
  -2  -7   7 1823.43  582.23   1
   2   7  -7 2419.01  410.83   1
   2   7  -7 1677.09  576.53   1
   2   7  -7 2213.86  517.99   1
  -2  -7   8   17.85   42.96   1
   2   7  -8   56.96   72.47   1
   2   7  -8   26.53   48.25   1
   2   7  -8   17.50  108.60   1
   2   7  -9 1386.57  301.80   1
   2   7  -9 1298.63  403.72   1
   2   7 -10  726.90  118.49   1
  -2  -7  10  511.39  230.39   1
   2   7 -10  719.29  184.30   1
   2   7 -10  502.17  248.07   1
  -2  -7  11   90.32   71.96   1
   2   7 -11   38.96   77.35   1
   2   7 -11  121.52   74.90   1
   2   7 -11  132.00  144.07   1
  -2  -7  12    8.97   45.15   1
   2   7 -12   35.19   79.48   1
   2   7 -12   26.98   49.44   1
   2   7 -12   56.69  150.81   1
  -2  -7  13 1530.99  280.81   1
   2   7 -13 1550.72  351.06   1
   2   7 -13 1759.06  479.68   1
  -2  -7  14  112.12   69.94   1
   2   7 -14   45.33  103.49   1
   2   7 -14   91.45   64.55   1
   2   7 -14   55.57  162.78   1
  -2  -7  15   12.45   43.58   1
   2   7 -15   23.06   39.71   1
  -2  -6   1  296.63  115.58   1
  -2  -6   1  393.03  113.57   1
   2   6  -1  126.64   75.69   1
   2   6  -1  246.10  114.36   1
   2   6  -1  266.40  113.95   1
   2   6  -1  282.16  117.41   1
   2   6  -1  146.70  124.51   1
  -2  -6   2 1846.74  468.74   1
  -2  -6   2 1706.29  462.03   1
  -2  -6   2  829.72  385.03   1
   2   6  -2 1121.55  308.44   1
   2   6  -2 1936.22  469.16   1
   2   6  -2 1283.30  463.26   1
   2   6  -2 2395.71  399.91   1
   2   6  -2  741.99  398.62   1
  -2  -6   3 9873.07 2429.75   1
  -2  -6   3 8915.62 2423.04   1
  -2  -6   3 4690.06 1888.06   1
   2   6  -3 6811.78 1623.93   1
   2   6  -310675.71 2426.30   1
   2   6  -3 9319.13 2425.55   1
   2   6  -3 8898.27 1904.43   1
   2   6  -3 5366.73 1907.88   1
  -2  -6   4  200.25   78.62   1
  -2  -6   4  133.16   73.79   1
  -2  -6   4   82.76   86.77   1
   2   6  -4  130.81   62.65   1
   2   6  -4  165.27   74.17   1
   2   6  -4  131.60   78.20   1
   2   6  -4  206.83   90.37   1
   2   6  -4   80.93   90.88   1
  -2  -6   5 7348.95 1425.45   1
  -2  -6   5 4792.83 1413.93   1
  -2  -6   5 2643.98 1117.36   1
   2   6  -5 4431.76  948.72   1
   2   6  -5 5923.69 1418.08   1
   2   6  -5 4207.05 1418.61   1
   2   6  -5 5468.61 1138.14   1
   2   6  -5 3351.88 1131.28   1
  -2  -6   6  599.77   82.52   1
  -2  -6   6  287.96  157.21   1
   2   6  -6  315.61  111.88   1
   2   6  -6  752.27  179.38   1
   2   6  -6  288.24  165.47   1
  -2  -6   7   19.94   20.03   1
   2   6  -7   14.38   24.24   1
   2   6  -7   19.58   58.89   1
   2   6  -7    3.10   69.91   1
  -2  -6   8   65.76   55.00   1
   2   6  -8   87.14   52.74   1
   2   6  -8   46.37   57.59   1
   2   6  -8   52.15   86.93   1
  -2  -6   9 2369.81  679.26   1
   2   6  -9 2117.12  456.39   1
   2   6  -9 2089.64  674.39   1
   2   6  -9 2587.71  586.07   1
  -2  -6  10  656.39  262.52   1
   2   6 -10  689.94  193.12   1
   2   6 -10  626.87  259.33   1
   2   6 -10 1458.72  280.27   1
   2   6 -11   43.63   64.75   1
  -2  -6  11   20.37   44.37   1
   2   6 -11   21.17   57.07   1
   2   6 -11   30.36   50.95   1
  -2  -6  12 3587.58  998.54   1
   2   6 -12 3160.92  674.68   1
   2   6 -12 3617.38  992.49   1
   2   6 -12 2460.71  834.47   1
  -2  -6  13  321.16  135.18   1
   2   6 -13  278.01  117.02   1
   2   6 -13  308.83  131.91   1
   2   6 -13  216.04  169.69   1
  -2  -6  14    3.48   21.99   1
   2   6 -14   20.95   23.81   1
   2   6 -14    4.59  108.93   1
   2   6 -14    6.58  100.89   1
  -2  -6  15  725.20  226.81   1
  -2  -6  15  364.91  239.52   1
   2   6 -15  389.21  170.39   1
   2   6 -15  735.75  220.75   1
   2   6 -15  565.25  280.54   1
  -2  -5   1 1200.50  357.32   1
  -2  -5   1 1316.12  368.67   1
  -2  -5   1  740.33  310.84   1
   2   5  -1 1045.50  244.10   1
   2   5  -1 1122.68  366.44   1
   2   5  -1 1403.25  367.34   1
   2   5  -1 1204.57  317.35   1
   2   5  -1  955.85  322.01   1
  -2  -5   2 1464.45  417.97   1
  -2  -5   2 1454.97  427.78   1
  -2  -5   2  951.33  359.30   1
   2   5  -2 1537.21  284.85   1
   2   5  -2 1441.99  427.75   1
   2   5  -2 1312.09  425.92   1
   2   5  -2 1346.50  367.77   1
   2   5  -2 1198.03  371.21   1
  -2  -5   3  299.94  127.23   1
  -2  -5   3  231.09  130.23   1
   2   5  -3  374.83   94.07   1
   2   5  -3  345.01  131.37   1
   2   5  -3  426.06  132.41   1
   2   5  -3  390.91  139.08   1
   2   5  -3  235.56  136.96   1
  -2  -5   4 3665.98  953.13   1
  -2  -5   4 3412.33  961.67   1
  -2  -5   4 2395.13  767.62   1
   2   5  -4 3450.16  641.44   1
   2   5  -4 3365.95  955.84   1
   2   5  -4 3472.52  957.88   1
   2   5  -4 3216.17  779.38   1
   2   5  -4 2271.29  774.58   1
   2   5  -5   99.03   43.08   1
  -2  -5   5   85.55   56.08   1
  -2  -5   5  104.56   61.20   1
  -2  -5   5   32.57   70.54   1
   2   5  -5  100.44   49.15   1
   2   5  -5  119.51   57.66   1
   2   5  -5   93.60   59.28   1
   2   5  -5  108.30   75.35   1
  -2  -5   6 3204.38  667.21   1
  -2  -5   6 1058.31  541.36   1
   2   5  -6 1378.56  440.14   1
   2   5  -6 2515.17  661.12   1
   2   5  -6 2474.35  661.46   1
   2   5  -6 2405.43  566.28   1
   2   5  -6 1880.75  550.09   1
  -2  -5   7 2853.73  645.04   1
   2   5  -7 4113.16  646.31   1
   2   5  -7 3224.92  778.80   1
  -2  -5   7 4882.30 1082.49   1
  -2  -5   7 1592.38  853.10   1
   2   5  -7 5324.10  728.56   1
   2   5  -7 2299.15  716.34   1
   2   5  -7 5152.59 1077.59   1
   2   5  -7 3388.99  865.21   1
   2   5  -8  530.42  142.60   1
  -2  -5   8  408.56  199.81   1
   2   5  -8  910.63  156.64   1
   2   5  -8  508.08  157.18   1
   2   5  -8  927.73  224.86   1
   2   5  -916011.30 2863.16   1
   2   5  -913751.85 3320.55   1
  -2  -5  10    4.92   34.71   1
   2   5 -10   13.87   38.09   1
   2   5 -10   10.25   41.73   1
   2   5 -10   45.05   93.51   1
  -2  -5  11 4627.71 1329.36   1
   2   5 -11 4523.67  893.41   1
   2   5 -11 4616.46 1323.75   1
   2   5 -11 4441.99 1082.92   1
   2   5 -12  779.27  167.57   1
  -2  -5  12  728.77  263.90   1
   2   5 -12  752.21  186.38   1
   2   5 -12  767.08  259.85   1
   2   5 -13  134.99   64.11   1
  -2  -5  13  186.30  100.78   1
   2   5 -13  215.21   99.42   1
   2   5 -13  195.87   98.56   1
  -2  -5  14    8.48   34.17   1
  -2  -5  14   -1.21   90.71   1
   2   5 -14   -2.65   71.34   1
   2   5 -14   15.01   35.76   1
   2   5 -14   21.73  107.25   1
  -2  -5  15 1938.54  506.81   1
  -2  -5  15 1492.49  437.33   1
   2   5 -15 1367.36  348.85   1
   2   5 -15 1669.60  498.05   1
   2   5 -15 1017.82  461.73   1
  -2  -5  16  221.89   81.45   1
  -2  -5  16  303.80  106.02   1
   2   5 -16  189.39  123.42   1
   2   5 -16  -13.78  100.56   1
   2   5 -16  174.61  187.60   1
  -2  -4   1  473.64  131.78   1
  -2  -4   1  603.36  187.28   1
  -2  -4   1  594.44  195.85   1
  -2  -4   1  460.85  177.79   1
   2   4  -1  654.43  130.39   1
   2   4  -1  539.65  193.90   1
   2   4  -1  440.21  190.97   1
   2   4  -1  763.32  183.92   1
   2   4  -1  556.76  186.41   1
  -2  -4   2 5944.16 1707.65   1
  -2  -4   2 7371.10 1718.23   1
  -2  -4   2 4717.34 1349.23   1
   2   4  -2 5351.43 1148.96   1
   2   4  -2 6052.56 1717.87   1
   2   4  -2 6222.79 1713.24   1
   2   4  -2 5872.19 1357.85   1
   2   4  -2 5430.39 1358.52   1
  -2  -4   3 2447.20  665.78   1
  -2  -4   3 2212.45  675.79   1
  -2  -4   3 1570.45  551.35   1
   2   4  -3 2156.58  449.39   1
   2   4  -3 2195.36  673.09   1
   2   4  -3 2829.26  675.05   1
   2   4  -3 2220.11  560.90   1
   2   4  -3 1866.32  554.81   1
  -2  -4   4  223.59   46.03   1
   2   4  -4  252.20   48.45   1
  -2  -4   4  279.42  105.97   1
  -2  -4   4  147.04  105.62   1
   2   4  -4  247.48   69.98   1
   2   4  -4  275.22  101.82   1
   2   4  -4  276.41  110.63   1
   2   4  -4  258.57  112.03   1
  -2  -4   5 1085.37  385.76   1
  -2  -4   5 1722.59  397.21   1
  -2  -4   5  983.80  334.69   1
   2   4  -5 1075.46  262.13   1
   2   4  -5 1018.83  390.79   1
   2   4  -5  807.08  394.99   1
   2   4  -5 3105.45  357.96   1
   2   4  -5 1847.18  343.57   1
  -2  -4   6 6273.98 1037.61   1
   2   4  -6 5251.33 1036.75   1
  -2  -4   6 6421.74 1695.32   1
  -2  -4   6 3255.77 1331.39   1
   2   4  -6 7691.16 1146.76   1
   2   4  -6 5428.42 1140.27   1
   2   4  -6 5891.99 1701.09   1
   2   4  -6 8154.86 1359.39   1
   2   4  -6 6237.16 1342.60   1
  -2  -4   727881.31 7273.76   1
  -2  -4   726079.18 7285.26   1
   2   4  -728598.68 4882.35   1
   2   4  -719854.26 4883.43   1
   2   4  -724572.93 7277.91   1
   2   4  -729528.98 5618.84   1
  -2  -4   8  967.55  518.28   1
  -2  -4   8 3178.24  738.91   1
  -2  -4   8 2223.16  730.64   1
   2   4  -8 2965.87  498.12   1
   2   4  -8 1689.76  492.54   1
   2   4  -8 3014.18  733.92   1
   2   4  -8 2391.49  732.59   1
   2   4  -8 2935.88  620.93   1
  -2  -4   9 3257.55  761.60   1
  -2  -4   9 2486.82  749.38   1
  -2  -4   9 1565.56  621.96   1
   2   4  -9 2624.39  507.94   1
   2   4  -9 3162.76  756.49   1
   2   4  -9 1834.31  753.70   1
   2   4  -9 2719.25  641.47   1
  -2  -4  10   41.26   46.30   1
   2   4 -10   40.35   43.27   1
   2   4 -10   38.17   44.76   1
   2   4 -10   53.24   69.76   1
  -2  -4  11 3962.72 1089.88   1
   2   4 -11 3244.84  728.34   1
   2   4 -11 3780.55 1084.13   1
   2   4 -11 3964.41  899.38   1
  -2  -4  12  393.48  167.46   1
   2   4 -12  533.87  137.04   1
   2   4 -12  390.99  163.28   1
   2   4 -12  422.06  185.69   1
  -2  -4  13  502.68  186.60   1
  -2  -4  13  461.06  189.41   1
   2   4 -13  565.39  137.27   1
   2   4 -13  432.28  180.47   1
   2   4 -13  496.69  210.53   1
   2   4 -14  387.99  123.16   1
  -2  -4  14  504.01  195.68   1
  -2  -4  14  449.95  198.07   1
   2   4 -14  633.11  152.37   1
  -2  -4  15  443.20  157.64   1
  -2  -4  15  526.05  171.15   1
   2   4 -15  544.97  139.54   1
   2   4 -15   19.18  149.20   1
   2   4 -15  530.06  201.67   1
  -2  -4  16   95.65   62.14   1
   2   4 -16  210.95   92.37   1
  -2  -4  16  233.93   90.14   1
   2   4 -16   76.35   91.66   1
   2   4 -16   -4.35   88.44   1
  -2  -3   1 1217.27  375.46   1
  -2  -3   1 1257.82  382.07   1
   2   3  -1 1174.45  255.05   1
   2   3  -1 1199.88  382.50   1
   2   3  -1 1243.75  381.56   1
   2   3  -1 1253.98  331.84   1
   2   3  -1 1327.32  336.85   1
  -2  -3   259436.9616009.65   1
  -2  -3   257584.9316019.84   1
  -2  -3   252465.1012266.13   1
   2   3  -255699.2210736.62   1
   2   3  -250347.2816018.38   1
   2   3  -266128.3416017.48   1
   2   3  -259669.5412275.60   1
   2   3  -252967.9812271.59   1
  -2  -3   344149.3911935.03   1
  -2  -3   344735.8011944.50   1
  -2  -3   339848.44 9153.20   1
   2   3  -340870.96 8004.06   1
   2   3  -340649.5111943.92   1
   2   3  -347417.8411942.15   1
   2   3  -336938.48 9159.86   1
   2   3  -340449.06 9164.89   1
  -2  -3   4  458.92  148.00   1
  -2  -3   4  437.90  153.92   1
  -2  -3   4  295.67  143.86   1
   2   3  -4  415.33  101.47   1
   2   3  -4  405.47  150.75   1
   2   3  -4  412.94  151.34   1
   2   3  -4  466.72  155.18   1
   2   3  -4  426.63  150.82   1
  -2  -3   5   51.42   38.65   1
  -2  -3   5   81.79   43.52   1
  -2  -3   5   35.25   52.71   1
   2   3  -5   48.13   37.87   1
   2   3  -5   46.34   40.48   1
   2   3  -5   51.88   42.93   1
   2   3  -5   76.08   57.56   1
   2   3  -5   84.57   57.59   1
  -2  -3   6  766.74  279.72   1
  -2  -3   6  914.88  289.81   1
  -2  -3   6  542.49  257.90   1
   2   3  -6  956.55  194.42   1
   2   3  -6  890.55  194.66   1
   2   3  -6  863.04  284.56   1
   2   3  -6 1264.36  291.68   1
   2   3  -6  820.58  266.18   1
  -2  -3   7 1499.52  415.80   1
  -2  -3   7 1166.67  425.60   1
  -2  -3   7 1282.35  366.22   1
   2   3  -7 1484.12  288.76   1
   2   3  -7 1088.79  420.49   1
   2   3  -7 1690.36  424.69   1
   2   3  -7 1384.09  377.97   1
  -2  -3   8  406.95  100.85   1
  -2  -3   8  426.94  162.77   1
  -2  -3   8  586.68  171.03   1
   2   3  -8  511.18  114.52   1
   2   3  -8  483.63  166.34   1
   2   3  -8  369.11  166.87   1
   2   3  -8  455.97  174.12   1
  -2  -3   9 2066.43  332.66   1
   2   3  -9 1698.71  332.68   1
   2   3  -9 1398.43  398.71   1
  -2  -3   9 2141.88  574.72   1
  -2  -3   9 1467.70  481.73   1
   2   3  -9 2083.75  385.77   1
   2   3  -9 1907.53  569.21   1
  -2  -3  10  125.11   71.65   1
  -2  -3  10  121.83   66.03   1
  -2  -3  10  113.67  107.65   1
   2   3 -10  138.51   52.50   1
   2   3 -10  130.19   68.24   1
   2   3 -10   91.00   70.79   1
   2   3 -10  162.37   94.85   1
  -2  -3  11  294.96   75.87   1
  -2  -3  11  282.34  136.24   1
   2   3 -11  343.78   95.38   1
   2   3 -11  373.26  131.42   1
   2   3 -11  344.83  153.15   1
  -2  -3  12  594.16  191.70   1
  -2  -3  12  508.77  189.85   1
   2   3 -12  476.64  131.01   1
   2   3 -12  485.76  185.92   1
   2   3 -12  517.34  204.44   1
  -2  -3  13  536.51  193.69   1
  -2  -3  13  554.79  191.89   1
   2   3 -13  527.77  148.53   1
   2   3 -13  458.85  188.66   1
   2   3 -13  596.24  214.06   1
  -2  -3  14 3554.84 1076.35   1
  -2  -3  14 3659.22  871.11   1
   2   3 -14 3691.47 1072.07   1
   2   3 -14 3883.64  891.92   1
  -2  -3  15  156.66   64.01   1
   2   3 -15  266.16   81.76   1
  -2  -3  15  347.86  110.86   1
   2   3 -15  262.88   94.82   1
   2   3 -15    2.68  108.43   1
  -2  -3  16  608.87  174.30   1
  -2  -3  16  428.30  179.71   1
   2   3 -16  544.33  131.24   1
   2   3 -16   28.19  167.35   1
   2   3 -16  375.17  186.22   1
  -2  -3  17    7.21   95.55   1
   2   3 -17  -18.71   82.41   1
  -2  -2   1 7684.08 1440.31   1
  -2  -2   1 8130.14 2143.63   1
  -2  -2   1 6951.38 2147.18   1
   2   2  -1 6166.00 1436.55   1
   2   2  -1 8326.56 2145.44   1
   2   2  -1 7663.89 2146.76   1
   2   2  -1 7776.99 1685.21   1
   2   2  -2 6210.85  955.76   1
  -2  -2   2 5400.90 1566.80   1
  -2  -2   2 5401.19 1571.85   1
  -2  -2   2 5212.43 1239.47   1
   2   2  -2 4705.06 1051.83   1
   2   2  -2 5995.27 1570.50   1
   2   2  -2 5312.40 1243.22   1
   2   2  -2 5098.01 1243.47   1
  -2  -2   336423.76 9114.12   1
  -2  -2   332434.65 9119.61   1
  -2  -2   324619.60 6996.03   1
   2   2  -333487.99 9118.61   1
   2   2  -332480.06 9119.05   1
   2   2  -331323.08 7012.45   1
   2   2  -331301.78 7005.33   1
  -2  -2   415106.39 3981.37   1
  -2  -2   412222.77 3989.85   1
  -2  -2   411970.53 3086.30   1
   2   2  -414134.83 2674.96   1
   2   2  -414094.87 2671.86   1
   2   2  -413806.67 3989.70   1
   2   2  -415918.00 3988.71   1
   2   2  -415483.48 3097.88   1
  -2  -2   5 2123.94  635.75   1
  -2  -2   5 2210.99  642.96   1
  -2  -2   5 2184.54  534.81   1
   2   2  -5 2259.32  431.05   1
   2   2  -5 2291.27  640.41   1
   2   2  -5 2046.90  642.15   1
   2   2  -5 2013.18  541.31   1
  -2  -2   6 7021.41 1752.40   1
  -2  -2   6 5716.23 1760.69   1
  -2  -2   6 6127.34 1394.17   1
   2   2  -6 5696.17 1178.32   1
   2   2  -6 5800.19 1756.38   1
   2   2  -6 6325.52 1757.13   1
   2   2  -6 6105.15 1400.81   1
  -2  -2   7 5966.28 1606.45   1
  -2  -2   7 5723.35 1615.84   1
  -2  -2   7 5154.37 1280.29   1
   2   2  -7 4719.90 1610.59   1
   2   2  -7 6532.71 1617.35   1
   2   2  -7 5688.93 1290.03   1
   2   2  -8 5005.46 1178.83   1
  -2  -2   8 5775.95 1599.33   1
  -2  -2   8 5676.23 1608.87   1
  -2  -2   8 4767.04 1274.63   1
   2   2  -8 6257.42 1078.65   1
   2   2  -8 5711.25 1603.63   1
   2   2  -8 5414.74 1608.65   1
  -2  -2   9 2794.85  843.79   1
   2   2  -9 4278.92  844.85   1
  -2  -2   9 3770.00 1157.52   1
  -2  -2   9 4398.76 1164.77   1
  -2  -2   9 4409.86  928.12   1
   2   2  -9 4983.37  782.18   1
   2   2  -9 3890.37 1159.11   1
   2   2  -9 3759.22 1162.03   1
  -2  -2  10 8289.18 2405.96   1
  -2  -2  10 9589.04 2400.93   1
  -2  -2  10 9896.18 1879.63   1
  -2  -2  10 6981.51 1892.24   1
   2   2 -10 9123.91 1612.63   1
   2   2 -10 7517.27 2400.39   1
   2   2 -10 7565.19 2403.01   1
   2   2 -10 9911.68 1902.39   1
  -2  -2  11  651.42  190.22   1
  -2  -2  11  203.26  180.77   1
  -2  -2  11 1127.55  186.03   1
   2   2 -11  925.93  132.75   1
   2   2 -11  272.50  184.87   1
   2   2 -11  271.41  187.53   1
   2   2 -11 1299.06  205.57   1
   2   2 -12 3839.61  808.08   1
  -2  -2  12 3903.53 1117.70   1
  -2  -2  12 4923.98  899.52   1
   2   2 -12 3266.03 1113.07   1
   2   2 -13 7272.93 2339.29   1
  -2  -2  1310904.25 3157.15   1
   2   2 -1311693.24 2116.64   1
   2   2 -1312402.18 3156.01   1
  -2  -2  14 1031.24  221.88   1
   2   2 -14 1051.54  222.18   1
  -2  -2  14 1053.88  341.93   1
   2   2 -14 1021.63  238.13   1
   2   2 -14 1000.56  343.19   1
  -2  -2  15   30.19   44.52   1
   2   2 -15   23.33   43.65   1
  -2  -2  15    1.72   40.64   1
   2   2 -15    1.61   74.34   1
   2   2 -15   -4.47   40.22   1
  -2  -2  16 1178.82  233.78   1
   2   2 -16 1081.21  232.77   1
  -2  -2  16 1451.39  364.13   1
   2   2 -16 1832.59  254.70   1
   2   2 -16    7.31  354.48   1
  -2  -2  17  447.06  111.56   1
   2   2 -17  497.96  143.37   1
   2   2 -17  324.43  192.25   1
  -2  -1   1 5864.31 1751.93   1
  -2  -1   1 6271.74 1758.13   1
  -2  -1   1 5716.33 1377.32   1
   2   1  -1 6289.94 1174.95   1
   2   1  -1 6219.78 1759.65   1
   2   1  -1 6641.50 1756.05   1
   2   1  -1 5976.43 1381.67   1
  -2  -1   263742.9814609.57   1
  -2  -1   245418.7014615.00   1
  -2  -1   230796.5311191.26   1
   2   1  -244491.8514612.82   1
   2   1  -277332.8314614.54   1
   2   1  -237871.4311199.12   1
   2   1  -234274.5311197.54   1
  -2  -1   3 3014.50  474.15   1
   2   1  -3 2973.66  474.29   1
  -2  -1   3 2725.25  797.29   1
  -2  -1   3 2500.17  651.46   1
   2   1  -3 2440.02  531.75   1
   2   1  -3 2540.14  796.83   1
  -2  -1   4 1509.65  428.07   1
  -2  -1   4 1192.70  432.81   1
  -2  -1   4 1269.14  372.56   1
   2   1  -4 1191.41  431.44   1
   2   1  -4 1804.03  431.59   1
   2   1  -4 1365.52  374.98   1
  -2  -1   527904.43 7539.74   1
  -2  -1   525967.10 7547.04   1
  -2  -1   526209.02 5801.02   1
   2   1  -526524.47 7546.81   1
   2   1  -527591.35 7546.13   1
   2   1  -527383.68 5814.89   1
  -2  -1   646118.5812004.11   1
  -2  -1   634593.4112013.05   1
  -2  -1   644652.57 9204.94   1
  -2  -1   642515.05 9213.31   1
   2   1  -646232.97 8053.61   1
   2   1  -641215.6312013.59   1
   2   1  -646204.1912011.38   1
   2   1  -643016.77 9224.60   1
  -2  -1   7 7458.48 1916.15   1
  -2  -1   7 6155.82 1924.24   1
  -2  -1   7 6615.54 1506.95   1
  -2  -1   7 6801.20 1518.04   1
   2   1  -7 7399.34 1924.15   1
   2   1  -7 5906.14 1920.76   1
   2   1  -7 7049.85 1528.48   1
  -2  -1   8 1560.52  501.78   1
  -2  -1   8 1565.99  426.39   1
  -2  -1   8 1673.37  443.27   1
   2   1  -8 1905.19  342.93   1
   2   1  -8 1853.22  513.21   1
   2   1  -8 1536.19  448.11   1
  -2  -1   910494.77 2967.53   1
  -2  -1   910252.93 2977.79   1
  -2  -1   9 9841.76 2310.68   1
  -2  -1   910738.42 2330.44   1
   2   1  -910593.68 1994.81   1
   2   1  -910883.58 2976.77   1
   2   1  -910969.15 2974.36   1
   2   1  -910157.97 2328.52   1
  -2  -1  10 1230.91  371.45   1
  -2  -1  10 1279.42  322.03   1
  -2  -1  10  997.51  339.95   1
   2   1 -10 1222.51  248.93   1
   2   1 -10 1361.95  371.35   1
   2   1 -10  917.18  368.70   1
   2   1 -10 1225.93  334.47   1
  -2  -1  11  685.99  211.95   1
  -2  -1  11 1224.06  323.45   1
  -2  -1  11  816.54  314.59   1
   2   1 -11 1114.49  217.92   1
   2   1 -11 1179.50  323.72   1
   2   1 -11  857.28  319.10   1
  -2  -1  12  218.43  103.78   1
  -2  -1  12  223.06  114.69   1
   2   1 -12  228.69   71.76   1
   2   1 -12  178.03  106.96   1
   2   1 -12  205.60  121.52   1
  -2  -1  1310881.58 3100.35   1
  -2  -1  1310906.74 2412.29   1
   2   1 -1310580.27 2074.68   1
   2   1 -1311503.60 3099.24   1
   2   1 -1310640.83 2429.25   1
  -2  -1  14 1027.72  364.69   1
  -2  -1  14 1078.85  321.77   1
   2   1 -14 1317.43  249.58   1
   2   1 -14 1047.45  364.21   1
   2   1 -14 1109.41  333.03   1
  -2  -1  15   25.70   64.17   1
  -2  -1  15   32.47   76.37   1
   2   1 -15   48.60   70.00   1
   2   1 -15   -3.73   48.35   1
   2   1 -15   50.04   77.59   1
  -2  -1  16  738.07  138.84   1
   2   1 -16  763.68  138.98   1
  -2  -1  16  731.59  227.40   1
   2   1 -16  969.70  162.24   1
   2   1 -16   16.43  224.03   1
  -2  -1  17   98.19   97.66   1
   2   1 -17   49.75   76.14   1
   2   1 -17   35.11   76.83   1
  -2   0   1 5059.00 1461.96   1
  -2   0   1 5327.20 1468.61   1
   2   0  -1 5582.19 1466.80   1
   2   0  -1 4646.83 1461.85   1
  -2   0   214513.28 3677.11   1
  -2   0   213973.67 3678.00   1
  -2   0   2 9888.30 2843.94   1
   2   0  -214290.34 3681.55   1
   2   0  -212114.41 3676.13   1
   2   0  -210590.83 2858.11   1
  -2   0   314346.27 2476.89   1
  -2   0   313590.33 4007.83   1
  -2   0   313962.48 3101.84   1
  -2   0   314577.32 3107.94   1
   2   0  -315057.82 4012.53   1
   2   0  -314657.72 3117.58   1
  -2   0   4 2742.86  769.61   1
  -2   0   4 2419.45  772.52   1
  -2   0   4 2940.83  622.95   1
  -2   0   4 2929.56  631.62   1
   2   0  -4 2279.77  514.12   1
   2   0  -4 2719.64  769.94   1
   2   0  -4 2513.45  772.78   1
   2   0  -4 2822.41  639.26   1
  -2   0   511650.34 2205.94   1
  -2   0   510972.17 3285.00   1
  -2   0   511699.36 3289.58   1
  -2   0   511600.78 2547.66   1
  -2   0   511986.77 2560.21   1
   2   0  -512183.03 2203.35   1
   2   0  -511960.71 3289.85   1
   2   0  -511940.64 3288.55   1
   2   0  -511545.46 2566.24   1
  -2   0   6 4349.28  911.08   1
  -2   0   6 4534.54 1354.48   1
  -2   0   6 4235.12 1359.91   1
  -2   0   6 6558.29 1078.94   1
  -2   0   6 7113.58 1091.51   1
   2   0  -6 3864.77 1359.86   1
   2   0  -6 4162.82 1360.67   1
   2   0  -6 7199.78 1094.66   1
  -2   0   7  332.44   55.98   1
   2   0  -7  400.52   57.00   1
  -2   0   7  230.44   74.17   1
  -2   0   7  219.26  100.87   1
  -2   0   7  224.35  106.56   1
  -2   0   7  458.97  119.58   1
   2   0  -7  215.27  105.61   1
   2   0  -7  238.51  105.42   1
  -2   0   8 5376.40 1093.05   1
  -2   0   8 5759.43 1619.13   1
  -2   0   8 5859.41 1630.63   1
  -2   0   8 5621.77 1283.55   1
  -2   0   8 5536.16 1297.27   1
   2   0  -8 5848.25 1090.43   1
   2   0  -8 5557.42 1629.37   1
   2   0  -8 6007.70 1626.06   1
   2   0  -8 5172.15 1299.45   1
  -2   0   911765.62 2368.06   1
  -2   0   912180.39 3519.93   1
  -2   0   912201.32 3530.74   1
  -2   0   912212.50 2737.12   1
  -2   0   912949.64 2753.54   1
   2   0  -913293.99 3531.14   1
   2   0  -912910.75 3530.89   1
   2   0  -913476.10 2754.78   1
  -2   0  10   23.50   24.22   1
   2   0 -10   28.01   25.93   1
  -2   0  10    9.26   34.88   1
  -2   0  10   10.45   25.14   1
  -2   0  10   10.20   26.60   1
  -2   0  10   13.72   58.65   1
   2   0 -10   15.97   27.25   1
   2   0 -10   15.71   26.91   1
   2   0 -10    8.42   26.84   1
  -2   0  11   37.46   49.81   1
  -2   0  11   76.67   50.42   1
  -2   0  11   38.64   47.37   1
  -2   0  11  112.42   66.76   1
  -2   0  11   88.53   78.69   1
   2   0 -11   88.81   41.45   1
   2   0 -11   70.24   52.50   1
   2   0 -11   38.13   49.85   1
   2   0 -11  152.48   72.92   1
  -2   0  12 2519.06  672.07   1
  -2   0  12 1979.52  660.94   1
  -2   0  12 2679.15  557.12   1
   2   0 -12 2654.89  450.13   1
   2   0 -12 2416.75  672.83   1
   2   0 -12 1471.08  669.12   1
   2   0 -12 2798.07  569.88   1
  -2   0  13  176.24   53.53   1
  -2   0  13  168.03   92.63   1
   2   0 -13  147.75   63.36   1
   2   0 -13  225.19   99.19   1
   2   0 -13  227.18  115.56   1
  -2   0  14 5543.68 1170.69   1
   2   0 -14 5106.84 1170.60   1
  -2   0  14 4914.74 1604.46   1
   2   0 -14 6483.81 1074.56   1
   2   0 -14 5654.86 1602.53   1
  -2   0  15 1326.03  411.04   1
  -2   0  15 1779.37  362.13   1
   2   0 -15 2147.30  282.52   1
   2   0 -15  327.07  405.76   1
   2   0 -15 1442.36  368.84   1
  -2   0  16  475.44  178.94   1
   2   0 -16  467.32  128.10   1
   2   0 -16  415.09  182.96   1
  -2   0  17  103.64   47.74   1
   2   0 -17   78.21   38.57   1
   2   0 -17  120.98   73.13   1
  -2   1   113715.15 3983.92   1
  -2   1   116239.58 3985.99   1
  -2   1   1 9875.44 3092.30   1
   2  -1  -113956.22 3987.57   1
   2  -1  -114455.68 3982.78   1
  -2   1   2  943.46  303.99   1
  -2   1   2  965.25  305.85   1
   2  -1  -2 1050.81  304.52   1
   2  -1  -2  873.53  302.92   1
   2  -1  -2  950.10  274.16   1
  -2   1   3 5895.31 1719.15   1
  -2   1   3 6124.27 1724.69   1
  -2   1   3 6220.05 1363.89   1
   2  -1  -3 6369.46 1149.52   1
   2  -1  -3 5535.11 1722.78   1
   2  -1  -3 6274.07 1719.20   1
   2  -1  -3 6061.95 1364.29   1
  -2   1   412802.30 2278.67   1
  -2   1   410731.53 3396.39   1
  -2   1   412094.98 3403.04   1
  -2   1   411611.26 2635.05   1
  -2   1   412439.57 2650.60   1
   2  -1  -413398.53 2278.54   1
   2  -1  -412428.74 3405.07   1
   2  -1  -412196.96 3400.16   1
   2  -1  -411989.67 2646.19   1
  -2   1   5  134.45   64.80   1
  -2   1   5  130.84   64.50   1
  -2   1   5  118.14   70.33   1
  -2   1   5  107.47   75.86   1
   2  -1  -5  110.39   43.45   1
   2  -1  -5  128.67   66.60   1
   2  -1  -5  111.91   66.76   1
   2  -1  -5  140.26   75.44   1
  -2   1   6 7723.41 1570.16   1
  -2   1   6 8128.11 1425.65   1
  -2   1   6 7880.58 2123.41   1
  -2   1   6 7149.91 2129.13   1
  -2   1   6 7730.87 1664.89   1
   2  -1  -6 7672.97 1424.50   1
   2  -1  -6 7490.25 2128.34   1
   2  -1  -6 7566.44 2126.75   1
   2  -1  -6 5098.67 1677.61   1
   2  -1  -7 3536.62  922.96   1
  -2   1   7 4461.13  849.48   1
  -2   1   7 4415.37 1261.46   1
  -2   1   7 4275.88 1270.16   1
  -2   1   7 4394.54 1009.34   1
  -2   1   7 4581.66 1025.19   1
   2  -1  -7 4390.92  848.57   1
   2  -1  -7 4156.95 1268.53   1
   2  -1  -7 5028.97 1268.66   1
   2  -1  -8 1748.78  361.44   1
  -2   1   8 1874.27  350.80   1
  -2   1   8 1664.62  514.34   1
  -2   1   8 1628.43  523.00   1
  -2   1   8 1739.70  437.28   1
  -2   1   8 1646.24  452.58   1
   2  -1  -8 1785.08  347.77   1
   2  -1  -8 1679.14  519.84   1
   2  -1  -8 1806.43  518.45   1
  -2   1   9   84.64   46.56   1
  -2   1   9   98.02   52.84   1
  -2   1   9  100.63   59.20   1
  -2   1   9  101.08   70.17   1
  -2   1   9   72.25   80.30   1
   2  -1  -9  111.57   42.27   1
   2  -1  -9  111.70   57.45   1
   2  -1  -9   81.26   59.41   1
   2  -1  -9   84.35   74.55   1
  -2   1  10  752.22  209.37   1
  -2   1  10  940.24  222.51   1
  -2   1  10 1011.87  311.81   1
  -2   1  10 1101.17  319.34   1
  -2   1  10 1077.02  280.84   1
   2  -1 -10 1160.17  212.33   1
   2  -1 -10  841.80  315.91   1
   2  -1 -10  882.14  316.62   1
   2  -1 -10 1130.42  291.44   1
  -2   1  11 5887.02 1329.17   1
  -2   1  11 7247.72 1974.61   1
  -2   1  11 6260.19 1965.78   1
  -2   1  11 7931.28 1551.17   1
   2  -1 -11 8593.04 1322.82   1
   2  -1 -11 6871.76 1972.24   1
   2  -1 -11 6054.31 1973.11   1
   2  -1 -11 7892.96 1563.29   1
  -2   1  12    9.58   30.61   1
   2  -1 -12   22.26   31.23   1
  -2   1  12   14.69   28.60   1
  -2   1  12   23.41   32.06   1
   2  -1 -12   14.76   31.75   1
   2  -1 -12    2.37   33.66   1
   2  -1 -12    7.32   31.11   1
  -2   1  13  987.36  329.20   1
  -2   1  13 1183.82  296.12   1
   2  -1 -13 1104.90  224.70   1
   2  -1 -13  913.48  333.52   1
   2  -1 -13 1129.98  303.15   1
  -2   1  14   20.37   46.17   1
  -2   1  14   14.63   62.88   1
   2  -1 -14   22.11   48.16   1
   2  -1 -14   11.02   46.61   1
   2  -1 -14   26.79   63.82   1
  -2   1  15  798.77  326.04   1
  -2   1  15 1195.12  295.20   1
   2  -1 -15 1426.01  226.50   1
   2  -1 -15  805.75  325.80   1
   2  -1 -15 1129.69  302.09   1
  -2   1  16  473.06  179.58   1
   2  -1 -16  470.07  127.35   1
   2  -1 -16  474.58  185.98   1
  -2   1  17 1272.86  333.33   1
   2  -1 -17 1026.57  341.04   1
  -2   2   1 1519.71  265.67   1
  -2   2   1 1549.56  307.55   1
  -2   2   1 1431.66  465.81   1
  -2   2   1 1642.44  389.28   1
  -2   2   1 1606.10  398.34   1
   2  -2  -1 1489.72  465.76   1
   2  -2  -1 1539.31  466.44   1
   2  -2  -1 1490.04  384.32   1
   2  -2  -1 1599.14  393.36   1
  -2   2   2 1081.60  249.96   1
  -2   2   2 1166.32  379.68   1
  -2   2   2 1095.04  377.00   1
  -2   2   2 1556.60  323.71   1
  -2   2   2 1732.17  332.33   1
   2  -2  -2 1130.53  251.04   1
   2  -2  -2 1077.61  377.82   1
   2  -2  -2  997.77  374.72   1
   2  -2  -2 1611.79  319.63   1
   2  -2  -2 1573.01  328.07   1
  -2   2   3 2738.36  503.83   1
  -2   2   3 2850.75  564.69   1
  -2   2   3 3006.73  845.91   1
  -2   2   3 2919.64  682.36   1
  -2   2   3 3006.82  696.26   1
   2  -2  -3 3027.99  851.43   1
   2  -2  -3 2789.96  847.16   1
   2  -2  -3 2927.05  681.67   1
   2  -2  -3 2950.21  694.78   1
  -2   2   416152.85 3008.76   1
  -2   2   416663.37 4490.11   1
  -2   2   416203.02 4492.99   1
  -2   2   415792.42 3464.30   1
  -2   2   416037.14 3481.18   1
   2  -2  -416194.17 3007.31   1
   2  -2  -414775.42 4492.56   1
   2  -2  -415913.17 4490.25   1
   2  -2  -416366.61 3464.12   1
   2  -2  -416324.26 3477.12   1
  -2   2   515708.04 4725.88   1
  -2   2   519046.46 4732.27   1
  -2   2   517853.65 3648.14   1
  -2   2   519364.62 3668.60   1
   2  -2  -514535.85 4730.70   1
   2  -2  -515908.32 4729.17   1
   2  -2  -518315.51 3647.19   1
   2  -2  -518633.75 3662.94   1
  -2   2   6 2138.07  430.39   1
  -2   2   6 2077.83  640.81   1
  -2   2   6 2014.82  644.60   1
  -2   2   6 2285.60  527.97   1
  -2   2   6 2357.02  543.32   1
   2  -2  -6 2161.26  429.39   1
   2  -2  -6 2225.25  643.38   1
   2  -2  -6 2200.66  643.75   1
   2  -2  -6 2196.75  524.34   1
   2  -2  -6 2241.19  541.88   1
  -2   2   711652.26 2079.55   1
  -2   2   710864.79 3094.86   1
  -2   2   710493.75 3101.48   1
  -2   2   710312.01 2406.30   1
  -2   2   711180.92 2423.97   1
   2  -2  -711418.70 2077.05   1
   2  -2  -711326.85 3102.21   1
   2  -2  -711186.63 3100.07   1
   2  -2  -710274.48 2421.39   1
  -2   2   8 9838.41 1852.76   1
  -2   2   8 9372.11 2756.27   1
  -2   2   8 9608.60 2765.01   1
  -2   2   810253.03 2150.32   1
  -2   2   810361.55 2172.30   1
   2  -2  -810214.99 1851.48   1
   2  -2  -8 9980.07 2765.18   1
   2  -2  -8 9622.39 2761.21   1
   2  -2  -8 9810.88 2163.97   1
  -2   2   9  679.30  251.14   1
  -2   2   9  755.56  260.16   1
  -2   2   9  959.98  233.55   1
  -2   2   9  917.32  251.42   1
   2  -2  -9  755.49  173.60   1
   2  -2  -9  817.34  259.99   1
   2  -2  -9  690.43  262.17   1
   2  -2  -9 1146.96  244.33   1
  -2   2  10 1418.91  289.38   1
   2  -2 -10 1845.46  289.04   1
  -2   2  10 1113.59  286.50   1
  -2   2  10 1420.47  421.87   1
  -2   2  10 1772.72  385.11   1
   2  -2 -10 1473.18  282.56   1
   2  -2 -10 1290.41  421.19   1
   2  -2 -10 1140.31  421.43   1
  -2   2  11 2881.47  827.68   1
  -2   2  11 2535.64  822.33   1
  -2   2  11 3763.48  675.61   1
   2  -2 -11 3107.46  555.94   1
   2  -2 -11 2479.39  827.33   1
   2  -2 -11 2568.21  831.09   1
   2  -2 -11 3467.90  688.19   1
  -2   2  1212278.67 3363.23   1
  -2   2  1210043.00 3358.36   1
  -2   2  1215854.38 2615.87   1
   2  -2 -1215999.28 2258.03   1
   2  -2 -1211874.68 3362.82   1
   2  -2 -12 9032.86 3361.60   1
   2  -2 -1213646.00 2629.67   1
  -2   2  13 2968.67 1129.17   1
  -2   2  13 5109.61  911.28   1
   2  -2 -13 4478.00  760.09   1
   2  -2 -13 3483.48 1131.34   1
   2  -2 -13 5213.56  926.09   1
  -2   2  14  122.83   80.87   1
   2  -2 -14  113.26   53.62   1
   2  -2 -14   12.63   61.12   1
   2  -2 -14  131.85   81.47   1
  -2   2  15  598.13  197.59   1
   2  -2 -15  542.83  143.92   1
   2  -2 -15  618.56  206.18   1
  -2   2  16  100.89   42.86   1
   2  -2 -16  104.15   62.58   1
   2  -2 -16  102.22   89.33   1
  -2   3   111840.83 2163.77   1
  -2   3   111391.71 3235.64   1
  -2   3   111004.08 3227.11   1
  -2   3   111629.52 2508.57   1
  -2   3   111757.51 2519.74   1
   2  -3  -110804.68 3233.63   1
   2  -3  -112320.85 3233.91   1
   2  -3  -111550.65 2505.11   1
   2  -3  -111611.09 2511.59   1
  -2   3   259718.2710840.26   1
  -2   3   265546.8816175.62   1
  -2   3   251528.5016169.82   1
  -2   3   258155.2012383.71   1
  -2   3   258801.7112399.27   1
   2  -3  -265094.1410844.24   1
   2  -3  -253522.4716173.92   1
   2  -3  -259199.0116175.59   1
   2  -3  -255733.9112381.70   1
   2  -3  -256326.7712387.96   1
  -2   3   3 8276.55 2314.88   1
  -2   3   3 8022.04 2310.56   1
  -2   3   3 8473.67 1804.13   1
  -2   3   3 8630.01 1815.84   1
   2  -3  -3 8277.56 2311.19   1
   2  -3  -3 7753.83 2309.88   1
   2  -3  -3 8129.97 1801.72   1
   2  -3  -3 8413.88 1813.79   1
  -2   3   467825.6612011.34   1
  -2   3   461718.5717918.68   1
  -2   3   455912.7117918.87   1
  -2   3   461557.9913714.26   1
  -2   3   464787.3213731.11   1
   2  -3  -462092.7712009.17   1
   2  -3  -474225.3317920.96   1
   2  -3  -466465.0517919.47   1
   2  -3  -462078.7313713.96   1
   2  -3  -468200.2013729.98   1
  -2   3   5 3969.52  797.73   1
  -2   3   5 4293.12 1193.12   1
  -2   3   5 3992.53 1189.86   1
  -2   3   5 4210.10  946.84   1
  -2   3   5 4368.10  967.16   1
   2  -3  -5 4230.63  796.27   1
   2  -3  -5 3973.89 1194.63   1
   2  -3  -5 4311.21 1192.44   1
   2  -3  -5 4065.17  948.47   1
   2  -3  -5 4049.36  958.30   1
  -2   3   6  676.47  158.80   1
  -2   3   6  780.86  235.82   1
  -2   3   6  710.22  235.85   1
  -2   3   6  788.37  212.02   1
  -2   3   6  655.11  225.52   1
   2  -3  -6  687.50  158.77   1
   2  -3  -6  690.37  238.03   1
   2  -3  -6  711.36  239.66   1
   2  -3  -6  698.32  212.67   1
   2  -3  -6  694.89  223.05   1
  -2   3   7  197.66   65.20   1
  -2   3   7  217.95   90.53   1
  -2   3   7  182.35   91.60   1
  -2   3   7  214.85   96.12   1
  -2   3   7  201.47  109.47   1
   2  -3  -7  266.27   65.07   1
   2  -3  -7  223.37   94.31   1
   2  -3  -7  195.56   93.03   1
   2  -3  -7  205.27   96.64   1
   2  -3  -7  210.92  104.83   1
  -2   3   8 3855.75  711.54   1
  -2   3   8 3779.03 1053.72   1
  -2   3   8 3539.08 1057.19   1
  -2   3   8 3560.31  843.36   1
  -2   3   8 3699.15  869.31   1
   2  -3  -8 3732.64  709.01   1
   2  -3  -8 3553.24 1059.20   1
   2  -3  -8 3586.60 1057.68   1
   2  -3  -8 3585.66  847.26   1
   2  -3  -8 3783.34  857.88   1
  -2   3   9  232.09   73.56   1
  -2   3   9  172.06   84.91   1
  -2   3   9  194.66   88.42   1
  -2   3   9  224.24   94.55   1
  -2   3   9  200.45  113.72   1
   2  -3  -9  204.67   64.68   1
   2  -3  -9  169.22   90.16   1
   2  -3  -9  204.29   91.05   1
   2  -3  -9  246.14  103.61   1
  -2   3  10  347.08   74.42   1
  -2   3  10  246.11   94.79   1
  -2   3  10  317.58  127.99   1
  -2   3  10  306.33  125.53   1
   2  -3 -10  410.29   92.18   1
   2  -3 -10  335.14  130.69   1
   2  -3 -10  342.83  130.74   1
   2  -3 -10  391.78  138.81   1
  -2   3  11 2271.69  402.54   1
   2  -3 -11 2326.72  402.90   1
  -2   3  11 1992.08  570.42   1
  -2   3  11 1783.89  566.51   1
   2  -3 -11 2566.15  387.05   1
   2  -3 -11 1389.09  572.27   1
   2  -3 -11 1704.42  569.79   1
  -2   3  12 6763.24 1369.22   1
   2  -3 -12 5774.37 1168.26   1
   2  -3 -12 5868.18 1383.39   1
  -2   3  13 3502.19  770.83   1
   2  -3 -13 3304.11  770.80   1
   2  -3 -13 3992.91  716.25   1
  -2   3  14 2762.33  603.96   1
   2  -3 -14 2562.96  603.70   1
   2  -3 -14 3119.60  568.85   1
  -2   3  15  121.68  100.86   1
   2  -3 -15  186.39   70.79   1
   2  -3 -15  117.54   98.63   1
  -2   3  16  364.88  151.65   1
   2  -3 -16  374.44  111.97   1
   2  -3 -16  407.11  160.69   1
  -2   4   1 2399.44  547.26   1
  -2   4   1 2550.84  826.78   1
  -2   4   1 2590.61  814.44   1
  -2   4   1 3818.18  667.67   1
  -2   4   1 3652.34  676.68   1
   2  -4  -1 2625.26  821.14   1
   2  -4  -1 2511.96  823.14   1
   2  -4  -1 3574.54  664.88   1
   2  -4  -1 3257.60  669.64   1
  -2   4   241586.73 7714.38   1
  -2   4   237308.7211509.51   1
  -2   4   239551.4511504.17   1
  -2   4   242734.05 8822.38   1
  -2   4   243457.27 8836.72   1
   2  -4  -246765.00 7718.93   1
   2  -4  -241783.3211509.37   1
   2  -4  -242219.4711511.50   1
   2  -4  -240495.11 8819.68   1
   2  -4  -241717.23 8832.93   1
  -2   4   3 1136.34  229.69   1
   2  -4  -3 1102.75  229.76   1
  -2   4   3 1138.83  230.46   1
  -2   4   3 1050.88  348.43   1
  -2   4   3 1328.06  341.72   1
  -2   4   3 1213.92  298.80   1
   2  -4  -3  971.37  227.51   1
   2  -4  -3  970.70  344.66   1
   2  -4  -3 1020.47  348.03   1
   2  -4  -3 1100.97  302.14   1
  -2   4   424764.50 4735.57   1
  -2   4   421565.45 4242.88   1
  -2   4   422774.99 6331.32   1
  -2   4   423204.41 6327.08   1
  -2   4   424403.02 4886.82   1
   2  -4  -421705.96 4240.28   1
   2  -4  -421466.61 6331.87   1
   2  -4  -420564.71 6331.11   1
   2  -4  -425383.45 4871.76   1
   2  -4  -425256.69 4884.02   1
  -2   4   5 3199.54  744.67   1
   2  -4  -5 3768.04  745.05   1
  -2   4   5 3347.68  690.53   1
  -2   4   5 3182.80 1029.78   1
  -2   4   5 4106.96 1027.76   1
  -2   4   5 3759.87  841.11   1
   2  -4  -5 3546.42  688.88   1
   2  -4  -5 3607.02 1031.00   1
   2  -4  -5 3351.82 1030.83   1
   2  -4  -5 3799.92  825.65   1
  -2   4   6 1573.54  290.44   1
   2  -4  -6 1511.17  289.23   1
  -2   4   6 1172.09  284.25   1
  -2   4   6 1271.17  419.13   1
  -2   4   6 1278.28  419.38   1
  -2   4   6 1546.79  358.44   1
   2  -4  -6 1549.07  282.48   1
   2  -4  -6 1413.18  424.50   1
   2  -4  -6 1334.00  424.64   1
   2  -4  -6 1526.16  370.79   1
  -2   4   7 3026.45  608.47   1
  -2   4   7 3154.56  903.95   1
  -2   4   7 3129.92  901.97   1
  -2   4   7 3409.15  729.15   1
  -2   4   7 3219.52  749.74   1
   2  -4  -7 3009.64  606.59   1
   2  -4  -7 3051.84  907.06   1
   2  -4  -7 3091.73  906.54   1
   2  -4  -7 3018.98  732.69   1
   2  -4  -7 3100.72  740.76   1
  -2   4   8 8859.25 1732.35   1
  -2   4   8 9086.98 2573.44   1
  -2   4   8 9198.53 2574.05   1
  -2   4   810598.71 2008.67   1
   2  -4  -8 9382.71 1728.51   1
   2  -4  -8 8389.61 2578.97   1
   2  -4  -8 9182.65 2577.75   1
   2  -4  -8 8223.27 2011.13   1
   2  -4  -8 9931.99 2021.20   1
  -2   4   9   41.53   66.07   1
  -2   4   9  564.80   98.15   1
   2  -4  -9  194.33   61.10   1
   2  -4  -9   47.61   81.88   1
   2  -4  -9   70.10   82.41   1
   2  -4  -9  452.14  106.62   1
  -2   4  1010110.49 2304.23   1
   2  -4 -1010652.80 1989.37   1
   2  -4 -1010818.72 2318.67   1
  -2   4  11  144.48   44.84   1
   2  -4 -11  105.82   52.76   1
   2  -4 -11  132.78   92.04   1
  -2   4  12 2687.51  645.11   1
   2  -4 -12 2706.47  532.80   1
   2  -4 -12 2681.87  658.31   1
  -2   4  13  757.05  195.33   1
   2  -4 -13  389.50  137.57   1
   2  -4 -13  658.26  202.65   1
  -2   4  14 1252.73  354.48   1
   2  -4 -14 1308.27  278.58   1
   2  -4 -14 1415.60  366.32   1
  -2   4  15  182.16  107.99   1
   2  -4 -15  151.36   70.02   1
   2  -4 -15  221.61  114.66   1
  -2   5   1 1610.22  337.95   1
  -2   5   1 1822.06  509.83   1
  -2   5   1 1629.09  500.08   1
  -2   5   1 1608.38  421.48   1
  -2   5   1 1677.97  433.27   1
   2  -5  -1 1639.72  504.42   1
   2  -5  -1 1786.77  507.14   1
   2  -5  -1 1631.15  422.55   1
   2  -5  -1 1637.09  427.06   1
  -2   5   2 3947.42  779.87   1
  -2   5   2 3988.73 1170.35   1
  -2   5   2 4057.02 1157.31   1
  -2   5   2 4038.62  926.73   1
  -2   5   2 3830.85  939.31   1
   2  -5  -2 3853.91  783.12   1
   2  -5  -2 4228.75 1163.58   1
   2  -5  -2 4104.87 1167.00   1
   2  -5  -2 3975.04  924.60   1
   2  -5  -2 4272.29  936.08   1
   2  -5  -3 1921.74  518.23   1
  -2   5   3 2488.19  488.63   1
  -2   5   3 2236.05  730.20   1
  -2   5   3 2521.24  721.85   1
  -2   5   3 2518.95  595.13   1
  -2   5   3 2600.55  612.14   1
   2  -5  -3 2608.55  488.48   1
   2  -5  -3 2619.29  728.78   1
   2  -5  -3 2645.18  731.59   1
   2  -5  -3 2370.89  602.04   1
  -2   5   4 6744.64 1348.57   1
  -2   5   4 7019.07 1229.92   1
  -2   5   4 6361.53 1835.73   1
  -2   5   4 6215.11 1824.24   1
  -2   5   4 6138.94 1438.88   1
   2  -5  -4 6592.61 1225.74   1
   2  -5  -4 6358.07 1831.89   1
   2  -5  -4 6325.09 1832.62   1
   2  -5  -4 6795.33 1444.39   1
  -2   5   5 5149.58 1030.67   1
  -2   5   5 4962.22 1538.73   1
  -2   5   5 5476.56 1528.73   1
  -2   5   5 5324.73 1213.89   1
  -2   5   5 5666.92 1231.22   1
   2  -5  -5 5680.98 1028.00   1
   2  -5  -5 5231.17 1534.80   1
   2  -5  -5 5808.92 1540.02   1
   2  -5  -5 5325.32 1216.30   1
   2  -5  -5 5140.36 1222.00   1
  -2   5   629357.87 6452.53   1
   2  -5  -631193.58 6452.72   1
  -2   5   633400.40 5772.45   1
  -2   5   630392.12 8608.02   1
  -2   5   630467.72 8601.45   1
  -2   5   631123.54 6612.45   1
   2  -5  -630525.47 5769.45   1
   2  -5  -631018.93 8607.02   1
   2  -5  -630059.57 8611.71   1
   2  -5  -631038.15 6624.75   1
  -2   5   7 7800.57 1556.18   1
  -2   5   7 8539.16 2314.78   1
  -2   5   7 8594.01 2308.20   1
  -2   5   7 8587.22 1809.22   1
  -2   5   7 7992.00 1835.27   1
   2  -5  -7 8045.96 1552.64   1
   2  -5  -7 7622.63 2313.15   1
   2  -5  -7 8298.67 2318.46   1
   2  -5  -7 7644.94 1815.84   1
   2  -5  -7 8310.87 1824.24   1
  -2   5   811250.60 2390.07   1
  -2   5   812894.76 2757.39   1
   2  -5  -813227.85 2386.26   1
   2  -5  -813572.12 2774.16   1
  -2   5   9  580.20  191.87   1
   2  -5  -9  587.33  140.02   1
   2  -5  -9  660.20  203.95   1
  -2   5  10  183.74   91.70   1
   2  -5 -10  145.62   59.22   1
   2  -5 -10  143.89   97.35   1
   2  -5 -11  470.02  111.00   1
  -2   5  11  516.03  170.02   1
   2  -5 -11  509.51  123.92   1
  -2   5  12  640.25  200.79   1
   2  -5 -12  634.85  148.89   1
   2  -5 -12  614.21  212.27   1
  -2   5  13  777.00  187.94   1
   2  -5 -13  853.80  189.14   1
   2  -5 -13  963.04  197.54   1
  -2   5  14  840.44  243.56   1
   2  -5 -14  767.11  187.02   1
   2  -5 -14  890.47  258.07   1
  -2   5  15   99.26   83.49   1
   2  -5 -15  112.03   92.61   1
  -2   6   112360.46 2650.78   1
  -2   6   112997.65 3959.02   1
  -2   6   114450.23 3947.01   1
  -2   6   116355.04 3055.45   1
  -2   6   115587.99 3072.52   1
   2  -6  -113763.63 3953.90   1
   2  -6  -113952.67 3955.28   1
   2  -6  -114329.89 3059.85   1
   2  -6  -114896.55 3064.35   1
  -2   6   2 1499.33  336.53   1
  -2   6   2 1512.40  507.75   1
  -2   6   2 1893.17  494.90   1
  -2   6   2 1994.33  424.13   1
  -2   6   2 1683.03  431.76   1
   2  -6  -2 1608.85  339.41   1
   2  -6  -2 1575.54  500.40   1
   2  -6  -2 1549.35  504.61   1
   2  -6  -2 1670.66  418.68   1
   2  -6  -2 1675.62  426.39   1
  -2   6   3 3597.63  857.28   1
  -2   6   3 3653.67  857.37   1
   2  -6  -3 3390.31  857.30   1
  -2   6   3 4354.26  790.77   1
  -2   6   3 3547.28 1178.92   1
  -2   6   3 4090.63 1170.92   1
   2  -6  -3 4027.26  797.41   1
   2  -6  -3 4732.64 1177.97   1
   2  -6  -3 4318.57 1180.77   1
   2  -6  -3 4554.47  950.67   1
  -2   6   4  985.46  220.45   1
  -2   6   4  873.99  327.73   1
  -2   6   4 1064.84  318.24   1
  -2   6   4 1092.64  283.75   1
  -2   6   4  926.60  295.88   1
   2  -6  -4 1028.21  218.48   1
   2  -6  -4 1173.64  323.82   1
   2  -6  -4  987.25  327.71   1
   2  -6  -4  897.66  286.84   1
   2  -6  -4 1162.94  292.13   1
   2  -6  -5 3742.24 1047.82   1
  -2   6   5 4264.18  961.40   1
  -2   6   5 5017.81 1435.10   1
  -2   6   5 5209.73 1426.61   1
  -2   6   5 5975.43 1135.39   1
  -2   6   5 4156.42 1152.43   1
   2  -6  -5 5214.29  959.29   1
   2  -6  -5 5400.60 1430.52   1
   2  -6  -5 4820.85 1437.48   1
   2  -6  -5 5309.39 1140.23   1
  -2   6   6 5329.21 1188.68   1
  -2   6   6 6605.26 1769.09   1
  -2   6   6 6177.39 1762.40   1
  -2   6   6 5360.40 1410.55   1
   2  -6  -6 6575.90 1184.82   1
   2  -6  -6 5903.91 1766.32   1
   2  -6  -6 6821.00 1772.82   1
   2  -6  -6 5920.27 1396.18   1
   2  -6  -6 6586.76 1403.14   1
  -2   6   7  790.76  219.17   1
   2  -6  -7  634.55  162.33   1
   2  -6  -7  819.10  228.69   1
  -2   6   8 4010.89  893.59   1
   2  -6  -8 3693.47  747.91   1
   2  -6  -8 4053.67  905.42   1
  -2   6   9  244.71   57.33   1
   2  -6  -9  239.11   57.63   1
   2  -6  -9  195.57   70.03   1
  -2   6  10  320.61   63.03   1
   2  -6 -10  242.60   62.42   1
   2  -6 -10  198.27   75.26   1
  -2   6  11 1119.48  289.11   1
   2  -6 -11  942.78  220.52   1
   2  -6 -11 1064.81  301.88   1
  -2   6  12 1365.78  295.93   1
   2  -6 -12 1185.57  295.52   1
   2  -6 -12 1516.03  293.73   1
  -2   6  13   61.67   37.81   1
   2  -6 -13   76.99   39.32   1
   2  -6 -13   44.03   60.78   1
  -2   6  14   15.38   54.60   1
   2  -6 -14   12.19   66.42   1
  -2   7   111502.35 2361.13   1
  -2   7   112146.02 3527.30   1
  -2   7   114473.45 3518.05   1
  -2   7   113098.68 2725.10   1
  -2   7   110788.17 2741.47   1
   2  -7  -112069.08 3520.92   1
   2  -7  -111812.57 3522.67   1
   2  -7  -111014.82 2728.82   1
   2  -7  -114825.92 2734.21   1
  -2   7   2  959.10  255.54   1
  -2   7   2 1216.26  383.94   1
  -2   7   2 1450.91  376.01   1
  -2   7   2 1192.54  326.08   1
  -2   7   2  956.56  336.62   1
   2  -7  -2 1322.81  261.23   1
   2  -7  -2 1361.76  379.37   1
   2  -7  -2 1174.72  380.13   1
   2  -7  -2  817.62  323.53   1
   2  -7  -2 1388.78  332.45   1
  -2   7   3  159.46   69.17   1
  -2   7   3  184.37   96.24   1
  -2   7   3  237.79   93.36   1
  -2   7   3  246.95  104.21   1
  -2   7   3  154.34  111.25   1
   2  -7  -3  234.38   75.85   1
   2  -7  -3  278.18   98.20   1
   2  -7  -3  240.75   96.45   1
   2  -7  -3  136.68  105.76   1
   2  -7  -3  266.45  109.51   1
  -2   7   4 2278.34  588.49   1
  -2   7   4 2492.72  876.28   1
  -2   7   4 3198.35  869.68   1
  -2   7   4 3203.32  706.02   1
   2  -7  -4 3344.33  594.40   1
   2  -7  -4 3292.45  877.80   1
   2  -7  -4 3009.67  877.08   1
   2  -7  -4 3314.25  718.26   1
  -2   7   5   12.07   24.85   1
   2  -7  -5   33.11   30.09   1
  -2   7   5   43.72   32.61   1
  -2   7   5   24.34   27.35   1
   2  -7  -5    5.38   37.61   1
   2  -7  -5    8.40   30.65   1
   2  -7  -5   11.18   34.23   1
  -2   7   6 3176.91  808.16   1
   2  -7  -6 4040.84  809.25   1
   2  -7  -6 4166.66  746.72   1
  -2   7   7 4616.13 1051.72   1
   2  -7  -7 4715.70  888.38   1
   2  -7  -7 4427.50 1059.37   1
  -2   7   8 1898.91  524.36   1
   2  -7  -8 2143.87  427.45   1
   2  -7  -8 2399.56  534.42   1
  -2   7   9 1056.01  229.32   1
   2  -7  -9 1067.09  231.60   1
   2  -7  -9 1142.27  309.63   1
  -2   7  10  823.76  182.24   1
   2  -7 -10  821.08  184.50   1
   2  -7 -10  894.61  189.93   1
  -2   7  11 4093.86  939.17   1
   2  -7 -11 4042.75  791.64   1
   2  -7 -11 4149.98  952.72   1
  -2   7  12 2783.12  673.29   1
   2  -7 -12 3167.16  675.01   1
   2  -7 -12 3507.34  630.64   1
  -2   7  13  188.83   49.88   1
   2  -7 -13  200.13   58.41   1
  -2   8   1 3547.68 1214.17   1
  -2   8   1 5177.72 1207.86   1
  -2   8   1 4300.29  966.79   1
   2  -8  -1 4410.52 1214.98   1
   2  -8  -1 3337.12 1209.61   1
   2  -8  -1 4538.72  969.60   1
   2  -8  -2 1497.81  264.47   1
  -2   8   2  929.22  392.19   1
  -2   8   2 1434.24  385.96   1
  -2   8   2 1450.51  332.93   1
   2  -8  -2 1380.99  390.48   1
   2  -8  -2  981.74  387.52   1
  -2   8   3 4246.58  764.05   1
   2  -8  -3 4373.30  764.92   1
  -2   8   3 2585.86 1053.66   1
  -2   8   3 4440.21 1055.68   1
   2  -8  -3 4095.36  715.36   1
   2  -8  -3 3971.62 1057.35   1
   2  -8  -3 2801.88 1054.16   1
  -2   8   4 2917.88  746.29   1
  -2   8   4 2060.89  748.73   1
  -2   8   4 3067.88  615.25   1
   2  -8  -4 2246.84  510.38   1
   2  -8  -4 2925.56  749.26   1
   2  -8  -4 2018.17  748.20   1
   2  -8  -4 2669.13  617.91   1
  -2   8   5  228.89  138.13   1
  -2   8   5  237.63  145.71   1
  -2   8   5  640.18  146.27   1
   2  -8  -5  454.34  109.04   1
   2  -8  -5  382.71  147.53   1
   2  -8  -5  287.96  145.79   1
   2  -8  -5  644.90  155.44   1
  -2   8   6  810.96  250.40   1
   2  -8  -6  892.89  199.24   1
   2  -8  -6  867.54  263.57   1
   2  -8  -7 5238.22  512.80   1
  -2   8   7 4205.57 1092.42   1
   2  -8  -7 4864.90 1107.96   1
  -2   8   8 1885.23  477.97   1
   2  -8  -8 1886.20  389.99   1
   2  -8  -8 2026.46  491.82   1
  -2   8   9   93.93   36.79   1
   2  -8  -9  146.06   46.44   1
   2  -8  -9  146.49   63.91   1
  -2   8  10 1553.20  367.36   1
   2  -8 -10 1595.97  368.70   1
   2  -8 -10 1965.79  360.39   1
  -2   8  11  207.32  107.94   1
   2  -8 -11  268.43   89.63   1
   2  -8 -11  200.20  122.68   1
  -2   9   1  494.22  180.77   1
  -2   9   1  593.28  180.75   1
   2  -9  -1  466.95  184.70   1
  -2   9   2 3018.80  866.98   1
  -2   9   2 2839.21  702.60   1
   2  -9  -2 3050.85  871.05   1
   2  -9  -2 2794.99  706.92   1
  -2   9   3   28.17   26.07   1
   2  -9  -3    4.49   34.48   1
  -2   9   3   14.17   34.48   1
   2  -9  -3    9.08   37.09   1
  -2   9   4   58.72   29.34   1
   2  -9  -4   61.89   37.88   1
  -2   9   4   31.17   54.34   1
   2  -9  -4   50.31   58.00   1
   2  -9  -4   38.51   59.97   1
  -2   9   5  909.73  179.32   1
   2  -9  -5  889.81  180.52   1
   2  -9  -5  714.74  196.41   1
   2  -9  -6  616.26   16.97   1
  -2   9   6  896.59  252.72   1
   2  -9  -6  981.05  258.50   1
  -2   9   7  -20.18   58.90   1
   2  -9  -7   31.51   48.19   1
   2  -9  -7    2.80   68.51   1
  -2   9   8 1447.11  305.95   1
   2  -9  -8 1404.29  307.36   1
   2  -9  -8 1476.38  315.06   1
  -2   9   9  323.89  126.69   1
   2  -9  -9  257.04  104.83   1
   2  -9  -9  255.40  139.57   1
  -2   9  10   97.14   78.96   1
   2  -9 -10   76.60   75.29   1
   2  -9 -10  112.89   93.59   1
  -2  10   1   -1.25   73.35   1
  -2  10   1  435.37  100.10   1
   2 -10  -1   52.76   76.22   1
  -2  10   2 1152.75  358.14   1
  -2  10   2 1313.00  316.80   1
   2 -10  -2  942.43  362.57   1
  -2  10   3  153.44   41.79   1
   2 -10  -3  156.30   50.19   1
  -2  10   3  115.33   90.26   1
   2 -10  -3  102.36   92.46   1
  -2  10   4 1115.20  316.38   1
   2 -10  -4 1195.03  325.07   1
  -2  10   5  297.32   68.27   1
   2 -10  -5  267.81  109.73   1
   2 -10  -5  276.95  134.44   1
  -2  10   6 1754.09  442.70   1
   2 -10  -6 1663.43  369.92   1
   2 -10  -6 1731.29  447.71   1
  -2  10   7  136.85  106.06   1
   2 -10  -7   73.44   69.52   1
   2 -10  -7  102.93   96.91   1
  -2  10   8 1458.60  413.31   1
   2 -10  -8 1968.80  363.29   1
   2 -10  -8 1280.94  410.13   1
  -2  11   1   82.95   44.01   1
  -2  11   1   81.33   76.39   1
   2 -11  -1   27.35   81.08   1
  -2  11   2   71.38   45.50   1
  -2  11   3 2055.32  522.48   1
  -2  11   4  402.77  167.55   1
   2 -11  -4  466.30  175.53   1
  -2  11   5   -8.31   51.41   1
   2 -11  -5   32.91   81.43   1
  -2  12   1 3052.15  737.82   1
   1  11  -1  652.66  239.01   1
   1  11  -2  107.98  140.58   1
   1  11  -3 1112.50  341.82   1
   1  11  -4 1637.09  463.41   1
   1  11  -5   -9.38   62.26   1
  -1 -11   5    5.86   46.48   1
   1  11  -5   14.31   50.17   1
  -1 -11   6    8.33   43.63   1
   1  11  -6   20.16   58.75   1
   1  11  -6  -63.69  124.10   1
  -1 -11   7   -5.78   60.66   1
   1  11  -7  128.20  187.23   1
   1  11  -7   55.80   58.82   1
   1  11  -7   64.89  140.85   1
  -1 -10   1    0.99   47.36   1
   1  10  -1   49.94   58.08   1
   1  10  -1   42.23   76.15   1
  -1 -10   2    2.19  144.17   1
   1  10  -2  568.05  148.28   1
   1  10  -2  461.68  154.32   1
  -1 -10   3  -12.58   75.16   1
   1  10  -3  152.79   72.81   1
   1  10  -3  148.75  103.82   1
   1  10  -4   91.73   51.86   1
  -1 -10   4  -12.26   69.58   1
   1  10  -4  173.94   78.89   1
   1  10  -5  479.29   97.22   1
  -1 -10   5   87.28  156.12   1
   1  10  -5  576.69  162.36   1
  -1 -10   6   65.38  117.03   1
   1  10  -6  140.07  119.78   1
   1  10  -6  891.80  173.06   1
  -1 -10   7  330.87  143.20   1
   1  10  -7  303.03  141.08   1
   1  10  -7  319.64  191.74   1
  -1 -10   8   -9.81   29.32   1
   1  10  -8  -11.46   72.91   1
   1  10  -8   -2.20   27.89   1
   1  10  -8    0.36  122.35   1
  -1 -10   9   67.12   29.34   1
   1  10  -9   56.29  103.30   1
   1  10  -9  100.30   66.60   1
   1  10  -9   88.36  163.03   1
  -1 -10  10  933.97  178.65   1
   1  10 -10 1158.17  181.04   1
   1  10 -10  888.78  253.71   1
   1  10 -10  706.44  356.98   1
   1  10 -11  393.55  189.16   1
  -1 -10  11  880.02  297.11   1
   1  10 -11  782.30  246.27   1
   1  10 -11  949.46  297.21   1
  -1  -9   1 3359.55  983.80   1
   1   9  -1 3354.27  979.20   1
   1   9  -1 3265.84  793.03   1
  -1  -9   2 7168.36 1980.56   1
   1   9  -2 6842.25 1974.45   1
   1   9  -2 6674.72 1552.06   1
   1   9  -3  309.55   81.98   1
  -1  -9   3  287.73  144.13   1
   1   9  -3  391.34  145.25   1
  -1  -9   4 3498.51 1019.10   1
   1   9  -4 3494.56 1016.45   1
   1   9  -4 3294.92  828.83   1
  -1  -9   5  138.68   91.97   1
   1   9  -5  170.59   90.44   1
   1   9  -5  240.36  122.48   1
  -1  -9   6  870.63  288.66   1
   1   9  -6  807.66  286.24   1
   1   9  -6  902.35  282.79   1
  -1  -9   7   87.63   63.21   1
   1   9  -7   93.73   61.92   1
   1   9  -7   63.98  118.95   1
   1   9  -8 3719.21  643.45   1
   1   9  -8 3595.60  739.86   1
   1   9  -8 3697.84  917.92   1
  -1  -9   9    7.20   19.06   1
   1   9  -9   10.80   18.69   1
   1   9  -9    3.21   81.46   1
   1   9  -9   12.30  127.28   1
   1   9 -10 1843.89  359.25   1
  -1  -9  10 1544.82  518.98   1
   1   9 -10 1928.49  364.34   1
   1   9 -10 1569.46  516.90   1
  -1  -9  11   99.04   71.98   1
   1   9 -11  126.74  103.85   1
   1   9 -11   94.00   70.59   1
   1   9 -11   84.39  147.91   1
  -1  -9  12  486.92  181.82   1
   1   9 -12  279.44  146.13   1
   1   9 -12  528.73  182.05   1
   1   9 -12  318.86  239.47   1
  -1  -9  13  818.05  290.82   1
   1   9 -13  669.87  225.41   1
   1   9 -13  978.16  290.44   1
   1   9 -13  541.22  322.98   1
  -1  -8   1  577.56  219.81   1
   1   8  -1  536.60  215.50   1
   1   8  -1  829.82  206.25   1
  -1  -8   2 2005.18  629.59   1
   1   8  -2 1917.21  625.59   1
   1   8  -2 2473.14  521.55   1
  -1  -8   3 5003.57 1419.07   1
   1   8  -3 4901.07 1415.90   1
   1   8  -3 4773.36 1126.12   1
   1   8  -4 4817.50 1163.98   1
  -1  -8   4 5727.55 1594.00   1
   1   8  -4 5672.67 1590.88   1
   1   8  -5  775.15  170.52   1
  -1  -8   5  909.75  266.97   1
   1   8  -5  682.15  263.63   1
   1   8  -6 1352.06  357.77   1
  -1  -8   6 1798.28  519.92   1
   1   8  -6 1710.02  517.03   1
   1   8  -7  537.40  149.20   1
  -1  -8   7  654.60  235.91   1
   1   8  -7  733.04  233.95   1
  -1  -8   8  320.88  130.63   1
   1   8  -8  333.79  100.97   1
   1   8  -8  251.31  128.34   1
   1   8  -8  363.79  170.63   1
  -1  -8   9 3696.80 1216.06   1
   1   8  -9 4648.15  826.89   1
   1   8  -9 4217.79 1213.84   1
   1   8  -9 4790.02 1012.01   1
   1   8 -10 1457.06  297.31   1
  -1  -8  10 1213.00  435.76   1
   1   8 -10 1471.48  304.88   1
   1   8 -10 1447.17  433.85   1
  -1  -8  11 6771.73 2168.39   1
   1   8 -11 7694.33 1467.45   1
   1   8 -11 8664.88 2166.56   1
   1   8 -11 6432.57 1741.24   1
   1   8 -12  105.69   80.00   1
  -1  -8  12  206.48   91.42   1
   1   8 -12   58.38   83.06   1
   1   8 -12  178.36   89.31   1
  -1  -8  13  525.22  201.53   1
   1   8 -13  454.29  155.69   1
   1   8 -13  606.77  199.74   1
   1   8 -13  360.41  234.02   1
  -1  -8  14  348.66  144.76   1
   1   8 -14  240.66  132.11   1
   1   8 -14  375.39  144.44   1
   1   8 -14  120.76  190.42   1
  -1  -7   1 5310.72 2395.88   1
  -1  -7   115513.26 3235.60   1
  -1  -7   111723.22 3219.61   1
   1   7  -1 8034.30 2160.44   1
   1   7  -113994.23 3230.48   1
   1   7  -111433.25 3222.99   1
  -1  -7   2  471.91  271.37   1
   1   7  -2  750.54   13.92   1
  -1  -7   2 1670.96  409.31   1
  -1  -7   2 1443.45  395.47   1
   1   7  -2 1745.02  406.30   1
   1   7  -2 1310.15  397.93   1
   1   7  -2 1532.03  352.16   1
   1   7  -2  718.74  353.01   1
   1   7  -3   75.70   30.08   1
  -1  -7   3   72.81   47.45   1
  -1  -7   3   59.38   41.06   1
  -1  -7   3   17.55   54.09   1
   1   7  -3   31.59   34.31   1
   1   7  -3   67.31   44.51   1
   1   7  -3   60.08   43.21   1
   1   7  -3   11.98   61.53   1
  -1  -7   4  914.94  244.64   1
  -1  -7   4  383.39  222.08   1
   1   7  -4  467.49  166.88   1
   1   7  -4  844.54  247.80   1
   1   7  -4 1248.15  241.29   1
   1   7  -4  580.79  231.56   1
  -1  -7   5  492.30  148.52   1
  -1  -7   5  409.81  139.90   1
  -1  -7   5  211.50  140.97   1
   1   7  -5  143.30   96.30   1
   1   7  -5  574.76  146.23   1
   1   7  -5  389.66  142.83   1
   1   7  -5  276.27  146.87   1
  -1  -7   6  379.88  141.66   1
   1   7  -6  341.70  138.60   1
   1   7  -6  333.01  149.73   1
   1   7  -7 1725.19  509.36   1
  -1  -7   7 2462.37  721.30   1
   1   7  -7 3454.55  509.40   1
   1   7  -7 2277.36  717.15   1
   1   7  -8  514.21  132.03   1
   1   7  -8  426.68  205.90   1
  -1  -7   9 1007.63  327.00   1
   1   7  -9 1002.24  229.45   1
   1   7  -9  999.50  323.41   1
   1   7  -9  955.02  318.81   1
   1   7 -10  374.10   80.67   1
   1   7 -10  452.24  105.44   1
   1   7 -10  510.08  130.89   1
  -1  -7  11  800.01  284.65   1
   1   7 -11  901.78  204.69   1
   1   7 -11  791.09  281.44   1
   1   7 -11 1022.51  297.28   1
   1   7 -12 3680.56  888.86   1
  -1  -7  12 4559.50 1229.09   1
   1   7 -12 3815.94  827.72   1
   1   7 -12 4302.24 1225.56   1
  -1  -7  13  633.53  217.38   1
   1   7 -13  481.49  160.73   1
   1   7 -13  638.76  214.49   1
   1   7 -13  459.37  237.20   1
  -1  -7  14  195.56   96.38   1
   1   7 -14   84.89   79.63   1
   1   7 -14  186.08   93.72   1
   1   7 -14  208.27  146.10   1
  -1  -7  15  193.84  107.30   1
   1   7 -15  116.86  106.24   1
   1   7 -15  187.20  107.65   1
   1   7 -15  258.79  166.65   1
  -1  -6   1 3023.20  519.98   1
  -1  -6   1 3167.90  776.45   1
  -1  -6   1 2531.95  764.43   1
  -1  -6   1 1997.70  628.48   1
   1   6  -1 2479.88  515.59   1
   1   6  -1 2604.38  772.56   1
   1   6  -1 2470.97  770.51   1
   1   6  -1 2791.73  628.39   1
   1   6  -1 2307.32  637.26   1
   1   6  -2  598.83  124.94   1
  -1  -6   2  695.97  205.41   1
  -1  -6   2  709.39  197.64   1
  -1  -6   2  393.30  186.07   1
   1   6  -2  451.53  135.43   1
   1   6  -2  594.31  202.02   1
   1   6  -2  593.12  204.67   1
   1   6  -2  438.47  194.13   1
  -1  -6   3 9738.57 2983.95   1
  -1  -6   310435.41 2975.70   1
   1   6  -310617.00 1996.81   1
   1   6  -311075.68 2980.65   1
   1   6  -310724.97 2984.09   1
   1   6  -311270.02 2324.03   1
  -1  -6   4    8.77   25.00   1
  -1  -6   4    5.62   22.49   1
  -1  -6   4    3.38   21.77   1
   1   6  -4   -1.25   26.72   1
   1   6  -4   12.78   22.35   1
   1   6  -4    6.43   26.44   1
   1   6  -4    3.02   43.46   1
   1   6  -4    3.15   44.34   1
  -1  -6   5  726.52  169.30   1
  -1  -6   5  215.99  159.71   1
  -1  -6   5  557.78  158.50   1
   1   6  -5  341.81  112.33   1
   1   6  -5  405.67  164.78   1
   1   6  -5  132.75  164.74   1
   1   6  -5  468.69  166.90   1
  -1  -6   610057.61 2088.35   1
  -1  -6   6 6958.79 2076.99   1
  -1  -6   6 4388.21 1629.25   1
   1   6  -6 6180.88 1393.92   1
   1   6  -6 9573.18 2083.09   1
   1   6  -6 6348.05 2081.70   1
   1   6  -6 7536.49 1645.71   1
   1   6  -6 5419.01 1634.19   1
  -1  -6   732889.21 7718.16   1
  -1  -6   726215.03 7706.62   1
  -1  -6   715597.18 5920.44   1
   1   6  -742647.48 5187.84   1
   1   6  -731162.88 5176.35   1
   1   6  -731669.92 7712.74   1
   1   6  -722768.36 7710.16   1
   1   6  -720245.38 5930.90   1
  -1  -6   8 8173.15 3785.74   1
   1   6  -814347.64 3787.19   1
  -1  -6   825073.23 5078.45   1
   1   6  -814793.31 3406.88   1
   1   6  -818399.75 5072.17   1
   1   6  -825431.36 3942.88   1
  -1  -6   9 1678.83  498.27   1
   1   6  -9 1579.98  336.39   1
   1   6  -9 1608.84  493.47   1
   1   6  -9 1548.56  441.07   1
  -1  -6  10  128.97   73.34   1
   1   6 -10  216.56   81.11   1
   1   6 -10   28.66   68.87   1
   1   6 -10  215.25  119.07   1
  -1  -6  11 1375.20  449.65   1
   1   6 -11 1364.45  305.56   1
   1   6 -11 1276.18  445.42   1
   1   6 -11 2327.53  425.40   1
   1   6 -12 2233.10  499.87   1
  -1  -6  12 2420.66  712.30   1
   1   6 -12 2353.74  483.65   1
   1   6 -12 2372.37  708.70   1
  -1  -6  13  367.49  153.14   1
   1   6 -13  371.82  117.45   1
   1   6 -13  364.44  150.40   1
   1   6 -13  366.80  183.67   1
  -1  -6  14  606.16  211.11   1
   1   6 -14  517.08  150.43   1
   1   6 -14  547.94  207.54   1
   1   6 -14  565.59  232.50   1
  -1  -6  15 1227.72  389.81   1
  -1  -6  15 1144.90  347.68   1
   1   6 -15 1088.17  266.68   1
   1   6 -15 1307.49  386.25   1
   1   6 -15  863.79  373.73   1
  -1  -6  16 2565.50  445.84   1
  -1  -6  16 1639.23  396.33   1
   1   6 -16 1298.89  305.13   1
   1   6 -16   22.11  431.08   1
   1   6 -16 1506.06  421.73   1
  -1  -5   1   22.98   29.73   1
  -1  -5   1   26.85   32.39   1
  -1  -5   1   32.54   28.50   1
  -1  -5   1   21.68   46.27   1
  -1  -5   1   21.65   45.68   1
   1   5  -1   35.91   28.10   1
   1   5  -1   29.67   29.99   1
   1   5  -1   24.30   29.01   1
   1   5  -1   28.40   43.80   1
   1   5  -1   13.01   46.30   1
  -1  -5   2 1022.80  282.48   1
  -1  -5   2  903.80  276.42   1
  -1  -5   2  532.35  246.76   1
   1   5  -2  840.40  186.51   1
   1   5  -2 1009.81  279.16   1
   1   5  -2  740.95  280.57   1
   1   5  -2  944.98  254.15   1
   1   5  -2  736.10  252.09   1
   1   5  -310667.38 2390.48   1
  -1  -5   311977.42 3217.69   1
  -1  -5   311890.64 3210.26   1
  -1  -5   3 9156.87 2492.02   1
   1   5  -310636.52 2152.56   1
   1   5  -312799.99 3213.48   1
   1   5  -310857.04 3215.75   1
  -1  -5   4 6971.79 1178.74   1
   1   5  -4 6677.80 1178.86   1
  -1  -5   4 7012.17 1932.31   1
  -1  -5   4 5176.24 1511.08   1
   1   5  -4 6881.69 1290.48   1
   1   5  -4 7059.24 1927.34   1
   1   5  -4 7112.97 1522.82   1
  -1  -5   5 1694.97  482.49   1
  -1  -5   5 1748.92  474.04   1
  -1  -5   5 1027.94  399.31   1
   1   5  -5 1777.98  322.26   1
   1   5  -5 1578.67  477.13   1
   1   5  -5 1511.57  481.30   1
   1   5  -5 1615.19  409.00   1
   1   5  -5 1280.90  407.68   1
  -1  -5   622363.23 6257.23   1
  -1  -5   621469.95 6247.66   1
  -1  -5   613338.50 4805.26   1
   1   5  -624802.56 4200.43   1
   1   5  -625560.80 6251.54   1
   1   5  -623795.52 6256.42   1
   1   5  -623288.15 4829.55   1
   1   5  -621574.24 4816.96   1
  -1  -5   715175.79 4985.87   1
  -1  -5   713286.53 3851.25   1
   1   5  -720717.15 3352.16   1
   1   5  -719035.13 3349.03   1
   1   5  -721300.28 4994.05   1
   1   5  -718234.58 3871.73   1
   1   5  -716797.08 3854.59   1
  -1  -5   8 1256.00  314.12   1
  -1  -5   8  742.32  303.83   1
  -1  -5   8  700.92  274.78   1
   1   5  -8 1078.33  212.31   1
   1   5  -8 1146.56  308.51   1
   1   5  -8  807.31  308.68   1
   1   5  -8 1181.35  291.38   1
  -1  -5   9 7538.17 1127.53   1
   1   5  -9 7818.28 1126.56   1
  -1  -5   9 5356.62 1837.98   1
  -1  -5   9 3854.09 1450.96   1
   1   5  -9 8470.42 1245.41   1
   1   5  -9 5531.30 1841.56   1
   1   5  -9 8071.57 1474.53   1
  -1  -5  10 8972.29 1613.19   1
   1   5 -10 9160.35 1612.81   1
   1   5 -10 9927.57 1766.18   1
   1   5 -10 9354.68 2078.94   1
  -1  -5  11  159.24   89.12   1
   1   5 -11  213.68   74.94   1
   1   5 -11  152.02   86.10   1
   1   5 -11  187.43  118.76   1
   1   5 -12 3587.76  669.34   1
   1   5 -12 3284.05  989.60   1
   1   5 -12 3345.45  829.74   1
   1   5 -13  495.68  122.85   1
  -1  -5  13  506.04  199.80   1
   1   5 -13  561.51  140.61   1
   1   5 -13  564.07  196.83   1
  -1  -5  14   64.92   25.83   1
  -1  -5  14   77.10   50.51   1
   1   5 -14   59.70   51.46   1
   1   5 -14   83.52   63.15   1
   1   5 -14   67.73   57.10   1
   1   5 -15    4.26   59.94   1
  -1  -5  15   10.14   41.88   1
  -1  -5  15   13.12   91.89   1
   1   5 -15   12.26   56.00   1
   1   5 -15   19.61   37.66   1
  -1  -5  16  741.50  211.01   1
  -1  -5  16  651.15  210.13   1
   1   5 -16  766.69  168.21   1
   1   5 -16   -9.20  201.34   1
   1   5 -16  756.87  238.68   1
  -1  -5  17  574.15  222.57   1
   1   5 -17  469.99  236.49   1
  -1  -4   1 1419.91  339.25   1
  -1  -4   1 1913.56  497.66   1
  -1  -4   1 1866.07  506.01   1
  -1  -4   1 1024.61  420.85   1
  -1  -4   1 2584.57  427.09   1
   1   4  -1 1436.81  335.71   1
   1   4  -1 1401.30  504.02   1
   1   4  -1 1346.28  501.23   1
   1   4  -1 2470.67  422.71   1
   1   4  -1 1695.18  427.99   1
  -1  -4   221829.39 5556.62   1
  -1  -4   220218.20 5563.07   1
  -1  -4   219953.86 4285.32   1
   1   4  -220259.25 3726.95   1
   1   4  -220736.13 5559.48   1
   1   4  -217038.89 5560.44   1
   1   4  -219270.80 4296.15   1
   1   4  -217819.04 4290.33   1
  -1  -4   3 8368.73 2608.49   1
  -1  -4   3 9242.88 2030.88   1
   1   4  -3 8448.09 1746.99   1
   1   4  -3 9187.82 2604.26   1
   1   4  -3 8948.36 2607.20   1
   1   4  -312568.08 2041.52   1
   1   4  -310658.22 2036.34   1
  -1  -4   420066.83 5932.71   1
  -1  -4   422959.19 5929.54   1
  -1  -4   413713.62 4559.77   1
   1   4  -423567.71 3977.97   1
   1   4  -424101.25 5927.75   1
   1   4  -420178.13 5930.59   1
   1   4  -419495.00 4570.72   1
  -1  -4   5 9401.01 2717.19   1
  -1  -4   5 8727.66 2710.79   1
  -1  -4   5 6776.70 2111.06   1
   1   4  -511572.97 1822.02   1
   1   4  -510263.48 2711.44   1
   1   4  -510220.04 2714.77   1
   1   4  -5 9601.81 2116.71   1
  -1  -4   6  939.18  198.99   1
  -1  -4   6  974.21  302.25   1
  -1  -4   6  789.61  295.58   1
   1   4  -6 1400.50  207.13   1
   1   4  -6  778.26  296.17   1
   1   4  -6  336.88  300.02   1
  -1  -4   7 3992.13 1069.10   1
  -1  -4   7 3391.73 1061.09   1
  -1  -4   7 4115.92  862.35   1
   1   4  -7 3703.79  717.31   1
   1   4  -7 3708.14 1062.49   1
   1   4  -7 3137.32 1069.18   1
   1   4  -7 4833.92  869.71   1
  -1  -4   8 2137.86  395.79   1
   1   4  -8 2261.54  395.28   1
  -1  -4   8 2148.34  664.42   1
  -1  -4   8 2222.73  557.34   1
   1   4  -8 2719.02  454.30   1
   1   4  -8 2063.79  672.26   1
   1   4  -8 2842.75  567.66   1
  -1  -4   9 2672.09  368.07   1
  -1  -4   9 1135.17  439.12   1
   1   4  -9 1796.45  441.22   1
  -1  -4   9 2066.52  618.25   1
   1   4  -9 2585.08  422.15   1
   1   4  -9 2067.55  622.95   1
   1   4  -9 1858.92  623.15   1
  -1  -4  10 1056.81  288.18   1
  -1  -4  10  724.11  277.60   1
  -1  -4  10  483.64  258.81   1
   1   4 -10 1163.25  196.54   1
   1   4 -10 1001.14  283.58   1
   1   4 -10  694.37  280.71   1
   1   4 -10 1133.04  274.64   1
  -1  -4  11 4529.74 1297.56   1
   1   4 -11 4597.61  870.10   1
   1   4 -11 4524.07 1293.03   1
   1   4 -11 4075.11 1054.86   1
  -1  -4  12  597.63  221.94   1
   1   4 -12  511.32  154.78   1
   1   4 -12  466.54  218.52   1
   1   4 -12 1460.42  239.18   1
  -1  -4  13 8471.45 2729.35   1
  -1  -4  13 9429.30 2128.99   1
   1   4 -1310156.82 1831.73   1
   1   4 -1310546.83 2726.12   1
   1   4 -13 9266.15 2156.29   1
  -1  -4  14 1996.42  605.78   1
  -1  -4  14 2014.56  509.19   1
   1   4 -14 2182.72  407.35   1
   1   4 -14 1739.01  601.44   1
   1   4 -14 2086.08  534.34   1
  -1  -4  15  170.83   54.51   1
   1   4 -15  193.04   70.46   1
  -1  -4  15  152.74   84.18   1
   1   4 -15  157.46   70.49   1
   1   4 -15   19.24   78.59   1
  -1  -4  16  733.38  215.85   1
  -1  -4  16  836.17  216.26   1
   1   4 -16  691.32  149.08   1
   1   4 -16    8.83  205.28   1
   1   4 -16  864.13  241.21   1
  -1  -4  17  468.42  115.06   1
   1   4 -17  276.66  110.93   1
   1   4 -17  558.85  146.37   1
  -1  -3   124848.96 4128.32   1
  -1  -3   118974.63 6144.50   1
  -1  -3   125311.07 6158.13   1
  -1  -3   121148.29 4739.24   1
  -1  -3   120632.43 4741.98   1
   1   3  -124278.42 4123.75   1
   1   3  -120586.82 6154.38   1
   1   3  -123171.41 6152.71   1
   1   3  -121946.01 4737.77   1
   1   3  -120726.32 4741.53   1
  -1  -3   246690.4811600.57   1
  -1  -3   232548.0911609.79   1
  -1  -3   240311.51 8901.08   1
   1   3  -250016.68 7781.24   1
   1   3  -229672.9811606.26   1
   1   3  -248281.6111611.79   1
   1   3  -250628.16 8913.26   1
  -1  -3   317966.17 4366.31   1
  -1  -3   313155.61 4374.46   1
  -1  -3   312263.85 3371.21   1
   1   3  -319215.19 2933.65   1
   1   3  -315574.43 4370.55   1
   1   3  -314254.43 4374.85   1
   1   3  -315389.27 3387.87   1
   1   3  -315356.44 3382.65   1
  -1  -3   410475.29 2093.80   1
  -1  -3   411127.46 3390.71   1
  -1  -3   412411.68 2635.09   1
   1   3  -413320.76 2277.17   1
   1   3  -414211.68 3395.64   1
   1   3  -410707.94 2634.46   1
  -1  -3   5  184.61   81.30   1
  -1  -3   5  157.38   85.62   1
  -1  -3   5  450.22   98.32   1
   1   3  -5  243.84   62.57   1
   1   3  -5  145.96   81.88   1
   1   3  -5  158.07   84.72   1
   1   3  -5  190.72   95.84   1
  -1  -3   622211.60 6114.02   1
  -1  -3   621825.12 6110.02   1
  -1  -3   620492.95 4717.13   1
   1   3  -621854.69 4097.22   1
   1   3  -622564.46 6108.23   1
   1   3  -622243.93 6113.19   1
   1   3  -619090.86 4715.79   1
  -1  -3   7  485.60  113.73   1
  -1  -3   7  617.02  187.60   1
  -1  -3   7  588.04  181.69   1
   1   3  -7  583.02  128.87   1
   1   3  -7  451.05  182.36   1
   1   3  -7  486.73  185.81   1
   1   3  -7  516.37  185.68   1
  -1  -3   8 1574.57  454.12   1
  -1  -3   8 1532.91  445.98   1
  -1  -3   8 1243.57  388.63   1
   1   3  -8 1413.75  303.28   1
   1   3  -8 1406.69  448.51   1
   1   3  -8 1473.63  454.43   1
   1   3  -8 1710.09  398.98   1
  -1  -3   9 2616.92  491.20   1
  -1  -3   9 2567.01  818.35   1
  -1  -3   9 2180.70  674.85   1
   1   3  -9 3269.25  555.42   1
   1   3  -9 2926.43  822.72   1
   1   3  -9 2968.09  825.58   1
   1   3  -9 3393.71  687.62   1
   1   3 -10 9963.97 2436.70   1
  -1  -3  1014349.04 3281.21   1
  -1  -3  1011866.36 3271.33   1
  -1  -3  10 9653.10 2551.13   1
   1   3 -1012844.02 2199.01   1
   1   3 -1011085.75 3275.99   1
   1   3 -1010122.04 3275.10   1
  -1  -3  11 1640.62  871.22   1
  -1  -3  11 5374.12 1205.35   1
  -1  -3  11 3353.04 1192.66   1
   1   3 -11 4961.14  810.52   1
   1   3 -11 4982.41 1201.52   1
   1   3 -11 3651.72 1198.03   1
   1   3 -11 4951.18  983.04   1
  -1  -3  12  162.55   48.70   1
   1   3 -12  180.51   54.09   1
  -1  -3  12  134.89   76.66   1
   1   3 -12  110.91   56.90   1
   1   3 -12  128.16   74.11   1
  -1  -3  13  623.46  243.80   1
  -1  -3  13  638.39  228.36   1
   1   3 -13  735.15  167.20   1
   1   3 -13  746.57  241.38   1
   1   3 -13  783.36  248.05   1
  -1  -3  14 1368.98  421.18   1
  -1  -3  14 1256.56  363.50   1
   1   3 -14 1237.41  280.31   1
   1   3 -14 1317.11  417.49   1
   1   3 -14 1348.25  384.72   1
  -1  -3  15  742.90  232.76   1
  -1  -3  15  900.96  225.37   1
   1   3 -15  913.53  158.84   1
   1   3 -15    7.14  223.76   1
   1   3 -15  998.64  247.68   1
  -1  -3  16  427.84   81.39   1
   1   3 -16  379.59   81.19   1
  -1  -3  16  389.00  143.25   1
   1   3 -16  496.23  101.69   1
   1   3 -16  -17.41  130.53   1
  -1  -3  17   17.92   96.17   1
   1   3 -17   58.09   79.07   1
   1   3 -17   17.77   89.31   1
  -1  -2   138598.55 7301.19   1
  -1  -2   133970.2210880.00   1
  -1  -2   134242.0910889.41   1
  -1  -2   144320.21 8350.60   1
   1   2  -144472.54 7297.19   1
   1   2  -136564.7410884.42   1
   1   2  -146445.1510887.24   1
   1   2  -133562.35 8352.98   1
   1   2  -147191.08 8356.28   1
  -1  -2   2 6411.37 1902.81   1
  -1  -2   2 7458.37 1913.67   1
  -1  -2   2 6205.72 1491.00   1
   1   2  -2 6930.43 1277.01   1
   1   2  -2 5154.01 1910.25   1
   1   2  -2 7922.13 1909.11   1
   1   2  -2 7388.44 1507.84   1
   1   2  -2 6865.52 1501.34   1
  -1  -2   3 9462.49 2351.82   1
  -1  -2   3 8239.26 2359.74   1
  -1  -2   3 8427.42 1848.48   1
   1   2  -3 7268.44 2356.86   1
   1   2  -3 7741.04 1840.06   1
  -1  -2   4 4169.04 1203.58   1
  -1  -2   4 3817.84 1211.76   1
  -1  -2   4 6570.73  973.28   1
   1   2  -4 3796.02  813.82   1
   1   2  -4 3632.43 1207.97   1
   1   2  -4 4022.22 1214.62   1
   1   2  -4 6333.17  970.98   1
   1   2  -5 1147.88  196.65   1
  -1  -2   5 1205.30  343.57   1
  -1  -2   5 1125.88  304.81   1
   1   2  -5 1061.05  233.44   1
   1   2  -5 1058.31  349.24   1
   1   2  -5 1095.60  308.91   1
  -1  -2   613685.55 3131.85   1
  -1  -2   614006.40 4193.86   1
  -1  -2   617396.08 4200.35   1
   1   2  -615139.13 2815.89   1
   1   2  -612720.94 4195.42   1
   1   2  -616898.13 4199.10   1
   1   2  -614778.44 3259.78   1
  -1  -2   7 2984.13  450.06   1
  -1  -2   7 1918.77  635.68   1
  -1  -2   7 1977.27  632.31   1
   1   2  -7 2226.73  426.93   1
   1   2  -7 1985.79  631.49   1
   1   2  -7 1467.32  635.02   1
   1   2  -7 4712.45  540.91   1
   1   2  -8 1684.86  273.48   1
  -1  -2   8 1225.88  401.46   1
  -1  -2   8 1227.90  395.07   1
  -1  -2   8 1968.93  348.74   1
   1   2  -8 1376.55  268.46   1
   1   2  -8 1256.96  397.67   1
   1   2  -8 1026.11  402.03   1
  -1  -2   9  756.27  265.33   1
  -1  -2   9  581.97  258.74   1
  -1  -2   9 1758.97  250.71   1
   1   2  -9  821.48  180.52   1
   1   2  -9  717.51  261.96   1
   1   2  -9  512.72  266.42   1
   1   2  -9 1838.70  257.97   1
  -1  -2  10 6251.04 1721.09   1
  -1  -2  10 5808.63 1712.53   1
  -1  -2  10 6208.66 1352.98   1
  -1  -2  10 5184.35 1363.56   1
   1   2 -10 6601.17 1152.90   1
   1   2 -10 6256.40 1717.36   1
   1   2 -10 5556.18 1716.01   1
   1   2 -10 6618.60 1373.72   1
  -1  -2  11  387.05   75.45   1
   1   2 -11  463.22   78.51   1
  -1  -2  11  351.93  133.22   1
  -1  -2  11  245.80  123.43   1
  -1  -2  11  271.59  147.36   1
   1   2 -11  459.16   91.94   1
   1   2 -11  381.92  130.49   1
   1   2 -11  242.57  127.16   1
  -1  -2  12 2183.66  499.94   1
  -1  -2  12 1137.71  482.97   1
  -1  -2  12 2114.68  422.55   1
   1   2 -12 1985.65  335.53   1
   1   2 -12 1897.97  496.28   1
   1   2 -12 1025.67  488.94   1
   1   2 -12 2200.33  442.20   1
  -1  -2  13  789.51  289.30   1
  -1  -2  13  905.05  261.28   1
   1   2 -13  846.58  192.03   1
   1   2 -13  823.65  286.33   1
   1   2 -13  958.92  278.88   1
  -1  -2  14 8258.38 2345.31   1
  -1  -2  14 8725.76 1838.24   1
   1   2 -14 8112.61 1568.38   1
   1   2 -14 8160.94 2339.84   1
   1   2 -14 7920.27 1854.66   1
  -1  -2  15 6701.67 1085.66   1
   1   2 -15 7708.42 1087.19   1
  -1  -2  15 7199.62 1494.48   1
   1   2 -15 8051.07 1001.91   1
   1   2 -15   -0.76 1480.76   1
  -1  -2  16  332.99   72.81   1
   1   2 -16  378.91   75.57   1
  -1  -2  16  322.31  136.77   1
   1   2 -16  353.24   88.66   1
   1   2 -16   42.17  130.43   1
  -1  -2  17   -8.49   51.23   1
   1   2 -17  -12.58   42.67   1
   1   2 -17   10.13   41.41   1
   1   1  -140567.05 7240.32   1
  -1  -1   125223.8211659.42   1
  -1  -1   165119.6211660.98   1
  -1  -1   162412.16 8939.82   1
   1   1  -126459.34 7813.52   1
   1   1  -153471.1011663.55   1
   1   1  -134737.66 8946.49   1
   1   1  -117761.45 8941.94   1
  -1  -1   217960.21 4686.60   1
   1   1  -219622.68 4686.60   1
  -1  -1   233827.77 7555.78   1
  -1  -1   229014.26 5815.39   1
   1   1  -235172.57 7559.94   1
   1   1  -226805.44 5812.78   1
  -1  -1   3 7679.10 1571.27   1
  -1  -1   311671.72 2562.79   1
   1   1  -3 7910.20 1713.04   1
   1   1  -3 9968.74 2559.35   1
   1   1  -3 7992.23 1996.94   1
  -1  -1   4 4106.65 1142.27   1
  -1  -1   4 3820.16 1151.20   1
  -1  -1   4 4066.88  919.38   1
   1   1  -4 3997.57 1148.46   1
   1   1  -4 4023.92  926.79   1
  -1  -1   5 6306.24 1233.06   1
  -1  -1   5 5568.41 1826.33   1
  -1  -1   5 6028.91 1835.59   1
   1   1  -5 6311.16 1229.90   1
   1   1  -5 6447.36 1832.59   1
   1   1  -5 8776.35 1837.69   1
   1   1  -5 6074.98 1450.49   1
  -1  -1   6 5132.85  897.58   1
  -1  -1   6 4923.39  990.45   1
  -1  -1   6 4867.33 1470.67   1
   1   1  -6 5371.73  989.73   1
   1   1  -6 4681.29 1474.47   1
   1   1  -6 6056.67 1476.10   1
   1   1  -6 5505.10 1179.29   1
  -1  -1   7   12.00   25.20   1
  -1  -1   7   22.18   21.95   1
  -1  -1   7   17.21   22.33   1
  -1  -1   7   55.45   34.45   1
  -1  -1   7    1.87   39.15   1
   1   1  -7   11.60   20.06   1
   1   1  -7    0.41   21.16   1
   1   1  -7    1.75   21.17   1
   1   1  -7   15.34   38.70   1
  -1  -1   8   36.07   21.99   1
  -1  -1   8   36.90   24.69   1
   1   1  -8   57.90   24.46   1
  -1  -1   8   45.88   36.30   1
  -1  -1   8   53.36   39.80   1
  -1  -1   8   40.32   38.55   1
   1   1  -8   52.30   30.33   1
   1   1  -8   75.61   38.45   1
   1   1  -8   48.23   39.92   1
  -1  -1   9 2277.97  475.18   1
  -1  -1   9 2282.41  706.68   1
  -1  -1   9 2387.92  698.19   1
  -1  -1   9 2368.71  575.08   1
  -1  -1   9 2304.24  587.96   1
   1   1  -9 2517.07  473.41   1
   1   1  -9 2229.48  703.64   1
   1   1  -9 2709.25  707.65   1
   1   1  -9 2346.12  591.51   1
  -1  -1  10  352.88  115.11   1
  -1  -1  10  436.24  165.19   1
  -1  -1  10  478.36  156.70   1
  -1  -1  10  509.61  156.69   1
  -1  -1  10  357.61  169.50   1
   1   1 -10  472.04  111.15   1
   1   1 -10  519.40  162.91   1
   1   1 -10  356.75  159.87   1
   1   1 -10  509.77  166.34   1
  -1  -1  11  161.47   79.91   1
  -1  -1  11  305.41  107.33   1
  -1  -1  11  188.63   95.68   1
  -1  -1  11  274.26  111.17   1
  -1  -1  11  112.22  120.60   1
   1   1 -11  315.02   72.45   1
   1   1 -11  301.57  105.27   1
   1   1 -11  177.33   99.01   1
   1   1 -11  265.53  117.77   1
  -1  -1  12 5797.47 1271.34   1
  -1  -1  12 3514.88 1251.12   1
  -1  -1  12 5037.39 1013.48   1
   1   1 -12 5285.98  849.32   1
   1   1 -12 4722.73 1266.05   1
   1   1 -12 3405.36 1257.63   1
   1   1 -12 4862.80 1028.88   1
  -1  -1  13 2975.64  800.84   1
   1   1 -13 3380.29  800.81   1
  -1  -1  13 4494.39 1114.72   1
   1   1 -13 4045.06  744.58   1
   1   1 -13 3598.70 1107.52   1
  -1  -1  14   67.68   76.29   1
   1   1 -14   55.66   43.38   1
   1   1 -14   50.04   57.10   1
   1   1 -14   38.06   77.87   1
   1   1 -15  334.03   11.61   1
  -1  -1  15  245.79  139.07   1
  -1  -1  15  313.46  139.65   1
   1   1 -15  272.73  144.77   1
   1   1 -15  312.23  145.47   1
   1   1 -16  -18.87   41.58   1
  -1  -1  16   -0.60   52.15   1
  -1  -1  16    3.60   69.02   1
   1   1 -16  -10.41   33.67   1
   1   1 -16   -1.79   56.77   1
  -1  -1  17  196.79   58.76   1
   1   1 -17  104.67   46.10   1
   1   1 -17  150.09   62.40   1
  -1   0   132999.6112527.03   1
  -1   0   141393.8612531.78   1
  -1   0   134106.01 9601.04   1
   1   0  -130477.1212529.29   1
   1   0  -182086.2012528.68   1
   1   0  -135715.73 9609.67   1
  -1   0   215456.61 3814.68   1
  -1   0   220579.00 5691.06   1
  -1   0   221580.79 5696.88   1
  -1   0   223368.91 4379.61   1
  -1   0   224026.42 4391.83   1
   1   0  -216444.66 3815.63   1
   1   0  -217887.05 5695.35   1
   1   0  -224969.80 5696.15   1
   1   0  -221440.76 4396.47   1
  -1   0   3 1841.31  449.79   1
  -1   0   3 1995.74  427.12   1
  -1   0   3 2615.99  635.45   1
  -1   0   3 2069.31  638.93   1
  -1   0   3 2019.33  517.97   1
   1   0  -3 1903.70  425.03   1
   1   0  -3 2287.40  638.24   1
   1   0  -3 2126.13  638.62   1
   1   0  -3 2125.09  533.39   1
  -1   0   4 4851.99 1061.20   1
  -1   0   4 4537.57 1578.73   1
  -1   0   4 5115.74 1586.11   1
  -1   0   4 8028.36 1244.03   1
  -1   0   410550.29 1261.49   1
   1   0  -4 4846.17 1061.21   1
   1   0  -4 4600.13 1581.23   1
   1   0  -4 4908.78 1585.61   1
   1   0  -410515.11 1261.65   1
  -1   0   528926.02 5769.86   1
  -1   0   529954.25 5162.06   1
  -1   0   529067.74 7694.27   1
  -1   0   528587.32 7704.55   1
  -1   0   527960.50 5912.75   1
   1   0  -530526.40 5162.42   1
   1   0  -520312.30 7699.51   1
   1   0  -527972.63 7699.21   1
   1   0  -527991.42 5928.88   1
  -1   0   6 4962.67  959.06   1
  -1   0   6 4603.89 1422.27   1
  -1   0   6 5131.56 1434.54   1
  -1   0   6 5072.71 1126.61   1
  -1   0   6 5836.79 1144.85   1
   1   0  -6 4999.40  957.97   1
   1   0  -6 5140.32 1430.53   1
   1   0  -6 4955.35 1432.13   1
   1   0  -6 5349.75 1141.26   1
  -1   0   7   88.29   46.31   1
  -1   0   7  102.92   62.71   1
  -1   0   7  162.75   68.51   1
  -1   0   7  168.57   75.53   1
   1   0  -7  107.95   42.44   1
   1   0  -7  107.93   61.15   1
   1   0  -7   85.46   60.67   1
   1   0  -7  185.55   74.18   1
  -1   0   8 4981.89 1111.16   1
  -1   0   8 5496.07 1656.84   1
  -1   0   8 5034.60 1646.29   1
  -1   0   8 9234.02 1304.06   1
  -1   0   8 9888.47 1317.90   1
   1   0  -8 4727.86 1106.77   1
   1   0  -8 5086.25 1652.72   1
   1   0  -8 4531.39 1651.97   1
   1   0  -8 9841.12 1320.14   1
  -1   0   911055.64 2328.86   1
  -1   0   910496.14 2105.50   1
  -1   0   910955.51 3138.08   1
  -1   0   910921.85 3128.39   1
   1   0  -911088.58 2100.99   1
   1   0  -911541.01 3133.52   1
   1   0  -911574.30 3135.91   1
  -1   0  10 5123.41 1089.75   1
  -1   0  10 5190.59 1001.92   1
  -1   0  10 5777.46 1492.16   1
  -1   0  10 4561.09 1480.50   1
  -1   0  10 7893.93 1198.63   1
   1   0 -10 6025.63  997.99   1
   1   0 -10 4792.67 1486.20   1
   1   0 -10 4564.23 1485.11   1
  -1   0  11 2261.86  573.60   1
  -1   0  11 3170.18  854.65   1
  -1   0  11 2654.67  841.42   1
  -1   0  11 3094.83  692.48   1
  -1   0  11 2535.10  710.91   1
   1   0 -11 3314.15  571.25   1
   1   0 -11 3378.40  849.71   1
   1   0 -11 2604.47  847.51   1
   1   0 -11 3229.94  706.85   1
  -1   0  1215023.02 3754.09   1
  -1   0  1212497.24 3738.66   1
  -1   0  1215721.75 2908.58   1
   1   0 -1214570.97 3750.53   1
   1   0 -1210975.53 3743.49   1
   1   0 -1214082.33 2921.80   1
  -1   0  13  762.61  309.32   1
  -1   0  13 1161.61  276.56   1
   1   0 -13  867.97  204.43   1
   1   0 -13  888.86  312.57   1
   1   0 -13 1222.57  286.41   1
  -1   0  14  916.49  158.76   1
   1   0 -14 1095.20  160.57   1
  -1   0  14  717.44  256.05   1
   1   0 -14  726.87  166.40   1
   1   0 -14  460.72  255.66   1
  -1   0  15   10.67   43.69   1
  -1   0  15   20.14   68.50   1
   1   0 -15   29.39   31.63   1
   1   0 -15   -4.63   55.74   1
   1   0 -15   47.87   69.12   1
  -1   0  16 3934.70  901.66   1
   1   0 -16 3647.52  747.77   1
   1   0 -16 4045.20  910.56   1
  -1   0  17    4.61   70.33   1
   1   0 -17   22.34   34.78   1
   1   0 -17    7.73   53.10   1
  -1   1   138671.1811327.70   1
  -1   1   189687.2816905.65   1
  -1   1   169361.5316904.68   1
  -1   1   138688.1712935.01   1
  -1   1   159750.9312951.25   1
   1  -1  -132357.4911325.45   1
   1  -1  -180994.3516907.27   1
   1  -1  -192308.9516905.27   1
   1  -1  -131728.0912933.73   1
   1  -1  -126247.3412949.16   1
  -1   1   217451.05 3219.98   1
  -1   1   216637.27 4806.76   1
  -1   1   218681.91 4811.98   1
  -1   1   217849.12 3706.17   1
  -1   1   217979.67 3719.18   1
   1  -1  -219150.53 3220.67   1
   1  -1  -217539.81 4810.98   1
   1  -1  -216282.89 4807.35   1
   1  -1  -211759.61 3702.46   1
   1  -1  -217948.82 3721.91   1
  -1   1   319668.84 8227.16   1
  -1   1   329092.94 8232.62   1
  -1   1   339566.20 6320.45   1
  -1   1   336538.09 6332.95   1
   1  -1  -328635.32 8234.77   1
   1  -1  -330035.38 8231.12   1
   1  -1  -334830.90 6316.68   1
   1  -1  -335725.65 6332.61   1
  -1   1   4  752.05  162.97   1
   1  -1  -4  787.67  163.11   1
  -1   1   4  796.42  169.94   1
  -1   1   4  837.62  251.92   1
  -1   1   4  747.70  257.02   1
  -1   1   4  840.19  226.46   1
   1  -1  -4  799.21  169.67   1
   1  -1  -4  726.11  255.86   1
   1  -1  -4  777.51  254.95   1
   1  -1  -4  850.65  223.06   1
  -1   1   514348.48 2710.59   1
  -1   1   514588.53 4035.75   1
  -1   1   513608.58 4043.98   1
  -1   1   513360.79 3123.03   1
  -1   1   514518.51 3139.55   1
   1  -1  -514621.23 2709.40   1
   1  -1  -515353.54 4043.22   1
   1  -1  -514307.15 3137.70   1
  -1   1   6   45.99   25.89   1
  -1   1   6   32.40   26.94   1
  -1   1   6   30.43   31.60   1
  -1   1   6   41.46   40.70   1
  -1   1   6   15.44   47.63   1
   1  -1  -6   30.77   24.73   1
   1  -1  -6   38.29   31.59   1
   1  -1  -6   39.12   31.17   1
   1  -1  -6   36.99   44.60   1
  -1   1   7 6236.42 1238.53   1
  -1   1   7 5608.39 1129.15   1
  -1   1   7 6357.62 1687.23   1
  -1   1   7 5729.25 1341.05   1
   1  -1  -7 5625.44 1128.95   1
   1  -1  -7 5694.69 1686.42   1
   1  -1  -7 5994.89 1684.76   1
   1  -1  -7 6222.88 1338.15   1
  -1   1   8 4003.87  799.65   1
  -1   1   8 3875.98 1193.26   1
  -1   1   8 4092.82 1185.62   1
  -1   1   8 4134.16  947.47   1
  -1   1   8 4231.44  963.96   1
   1  -1  -8 4279.73  797.67   1
   1  -1  -8 4329.59 1193.28   1
   1  -1  -8 4109.05 1193.34   1
   1  -1  -8 4490.50  961.07   1
  -1   1   9 1568.70  484.32   1
  -1   1   9 1457.51  475.29   1
  -1   1   9 1732.24  405.86   1
  -1   1   9 1402.71  422.37   1
   1  -1  -9 1787.25  322.89   1
   1  -1  -9 1587.98  484.98   1
   1  -1  -9 1606.17  480.74   1
   1  -1  -9 1607.31  417.41   1
  -1   1  10   26.33   26.33   1
  -1   1  10    8.52   38.31   1
  -1   1  10   22.27   32.30   1
  -1   1  10   25.20   26.41   1
  -1   1  10   40.44   49.04   1
   1  -1 -10   36.48   29.98   1
   1  -1 -10   15.14   33.37   1
   1  -1 -10   29.31   28.60   1
   1  -1 -10   22.65   52.04   1
   1  -1 -11 2613.98  575.80   1
  -1   1  11 2139.74  545.44   1
  -1   1  11 2891.95  807.63   1
  -1   1  11 2718.99  796.24   1
  -1   1  11 3074.11  658.40   1
  -1   1  11 1645.41  676.20   1
   1  -1 -11 3067.14  540.38   1
   1  -1 -11 3109.07  807.36   1
   1  -1 -11 2649.88  800.80   1
  -1   1  12 7962.17 2282.45   1
  -1   1  12 6915.44 2269.26   1
  -1   1  1210257.22 1787.41   1
   1  -1 -12 9215.38 1528.17   1
   1  -1 -12 9498.72 2283.52   1
   1  -1 -12 6106.21 2276.46   1
   1  -1 -12 9656.81 1798.61   1
  -1   1  13  123.23   64.52   1
  -1   1  13   17.23   57.08   1
  -1   1  13  148.97   84.26   1
   1  -1 -13  208.02   47.62   1
   1  -1 -13  149.29   66.12   1
   1  -1 -13   19.74   62.52   1
   1  -1 -13  194.28   87.09   1
  -1   1  14 1501.26  725.24   1
  -1   1  14 3912.82  606.36   1
   1  -1 -14 3434.06  493.10   1
   1  -1 -14 1664.89  730.49   1
   1  -1 -14 3625.55  614.05   1
  -1   1  15   59.69   78.35   1
   1  -1 -15   68.35   43.23   1
   1  -1 -15   83.58   78.56   1
  -1   1  16  410.21  170.40   1
   1  -1 -16  474.72  115.84   1
   1  -1 -16  411.41  175.62   1
  -1   1  17   11.23   52.72   1
   1  -1 -17   13.48   41.27   1
   1  -1 -17   25.95   57.73   1
   1  -2  -121851.83 3639.98   1
  -1   2   116585.81 3265.06   1
  -1   2   116246.55 4878.29   1
  -1   2   114788.86 4871.94   1
  -1   2   129380.80 3762.67   1
   1  -2  -113285.97 3263.06   1
   1  -2  -117846.41 4878.12   1
   1  -2  -114958.97 4877.73   1
   1  -2  -124440.95 3766.04   1
  -1   2   2 5479.12 1047.31   1
  -1   2   2 5509.52 1568.19   1
  -1   2   2 5307.98 1565.68   1
  -1   2   2 5381.94 1230.17   1
  -1   2   2 5783.15 1247.26   1
   1  -2  -2 5522.62 1046.67   1
   1  -2  -2 5605.87 1566.67   1
   1  -2  -2 5673.48 1568.76   1
   1  -2  -2 5298.07 1230.55   1
   1  -2  -2 5329.40 1243.26   1
  -1   2   349519.2210685.62   1
  -1   2   349551.5915942.35   1
  -1   2   336039.5215944.57   1
  -1   2   364623.1112203.25   1
  -1   2   379379.3212222.25   1
   1  -2  -376995.8810687.03   1
   1  -2  -351258.1315947.21   1
   1  -2  -355106.8815944.05   1
   1  -2  -372737.4312205.74   1
   1  -2  -377938.9912220.10   1
  -1   2   4 3925.66  761.41   1
   1  -2  -4 3616.14  761.52   1
  -1   2   4 3325.14  703.38   1
  -1   2   4 3160.31 1046.99   1
  -1   2   4 3865.85 1056.82   1
  -1   2   4 4034.20  839.08   1
   1  -2  -4 3672.95  704.78   1
   1  -2  -4 3788.91 1058.55   1
   1  -2  -4 3709.39 1052.48   1
   1  -2  -4 4210.93  853.74   1
  -1   2   5 7491.17 1585.40   1
  -1   2   5 6797.95 2361.06   1
  -1   2   5 7407.00 2369.92   1
  -1   2   511716.63 1846.17   1
  -1   2   513814.15 1862.38   1
   1  -2  -5 6990.21 1585.51   1
   1  -2  -5 7587.94 2367.42   1
   1  -2  -5 7442.17 2367.59   1
   1  -2  -511224.29 1844.54   1
   1  -2  -512264.64 1861.72   1
  -1   2   6 2257.17  482.39   1
  -1   2   6 1905.14  711.02   1
  -1   2   6 3287.68  586.47   1
  -1   2   6 3187.41  602.40   1
   1  -2  -6 2415.41  482.46   1
   1  -2  -6 2375.77  721.81   1
   1  -2  -6 2350.01  720.86   1
   1  -2  -6 2791.13  583.81   1
   1  -2  -6 3180.65  598.28   1
  -1   2   7 3893.17  766.99   1
   1  -2  -7 3365.55  766.64   1
  -1   2   7 3713.81  709.48   1
  -1   2   7 3730.42 1060.71   1
  -1   2   7 3666.39 1054.20   1
  -1   2   7 3937.75  846.01   1
   1  -2  -7 3681.05  710.79   1
   1  -2  -7 3695.30 1061.74   1
   1  -2  -7 3480.52 1058.08   1
   1  -2  -7 3661.50  857.26   1
  -1   2   8 1470.86  250.58   1
  -1   2   8  825.06  248.62   1
  -1   2   8 1069.59  366.53   1
  -1   2   8 1063.84  360.21   1
  -1   2   8 1778.55  316.17   1
   1  -2  -8 1129.49  246.28   1
   1  -2  -8 1158.61  366.46   1
   1  -2  -8  941.81  364.20   1
   1  -2  -8 2037.53  326.50   1
  -1   2   9  890.56  233.80   1
  -1   2   9  671.35  231.48   1
  -1   2   9 1074.57  342.11   1
  -1   2   9  779.24  332.91   1
  -1   2   9 1992.61  300.59   1
   1  -2  -9 1117.62  230.80   1
   1  -2  -9  909.54  337.85   1
   1  -2  -9 2405.87  311.51   1
  -1   2  10   67.62   46.20   1
  -1   2  10   58.84   45.68   1
  -1   2  10  101.91   64.95   1
  -1   2  10   75.30   79.66   1
   1  -2 -10   99.41   40.58   1
   1  -2 -10   81.03   50.89   1
   1  -2 -10  113.75   69.62   1
  -1   2  11  231.41  111.32   1
   1  -2 -11  243.01   74.43   1
   1  -2 -11  277.49  117.53   1
  -1   2  12 7916.88 1776.68   1
   1  -2 -12 8488.08 1523.92   1
   1  -2 -12 7251.68 1789.39   1
  -1   2  13 4184.31  935.86   1
   1  -2 -13 3949.98  784.02   1
   1  -2 -13 4041.47  949.33   1
  -1   2  14 1413.93  264.16   1
   1  -2 -14 1289.39  263.34   1
   1  -2 -14 1106.61  261.16   1
  -1   2  15  150.59   96.61   1
   1  -2 -15  132.14   56.19   1
   1  -2 -15  172.34   99.99   1
  -1   2  16  475.08  169.01   1
   1  -2 -16  441.43  116.15   1
   1  -2 -16  445.53  176.17   1
  -1   2  17  599.41  198.92   1
   1  -2 -17  571.42  208.18   1
  -1   3   111345.22 2208.67   1
  -1   3   112333.07 3299.48   1
  -1   3   111000.32 3290.43   1
  -1   3   112297.33 2556.63   1
  -1   3   112294.46 2568.39   1
   1  -3  -111372.24 2206.50   1
   1  -3  -112384.87 3296.91   1
   1  -3  -111639.95 3299.13   1
   1  -3  -112450.54 2555.27   1
   1  -3  -110867.32 2561.88   1
  -1   3   2  698.82  240.91   1
  -1   3   2  726.43  232.60   1
  -1   3   2  729.29  214.26   1
  -1   3   2  720.47  222.13   1
   1  -3  -2  731.81  157.49   1
   1  -3  -2  726.67  238.20   1
   1  -3  -2  779.44  240.92   1
   1  -3  -2  665.13  210.28   1
   1  -3  -2  708.24  220.82   1
  -1   3   3 5132.30  872.04   1
  -1   3   3 4392.84 1305.08   1
  -1   3   3 4536.50 1294.95   1
  -1   3   3 4733.84 1029.35   1
  -1   3   3 4377.80 1043.25   1
   1  -3  -3 4718.88  870.14   1
   1  -3  -3 4046.77 1300.85   1
   1  -3  -3 4564.34 1305.60   1
   1  -3  -3 4424.72 1029.51   1
   1  -3  -3 4768.78 1043.58   1
  -1   3   4  750.92  172.20   1
  -1   3   4  765.59  252.26   1
  -1   3   4  716.79  228.10   1
  -1   3   4  903.08  241.19   1
   1  -3  -4  824.74  172.51   1
   1  -3  -4  787.04  257.81   1
   1  -3  -4  710.12  257.68   1
   1  -3  -4 1037.04  229.54   1
   1  -3  -4  806.49  238.10   1
   1  -3  -5 2363.46  508.87   1
  -1   3   5 2486.67  479.12   1
  -1   3   5 2425.99  711.52   1
  -1   3   5 2486.17  710.25   1
  -1   3   5 2535.77  597.62   1
   1  -3  -5 2495.45  479.19   1
   1  -3  -5 2258.97  715.21   1
   1  -3  -5 2427.70  714.84   1
   1  -3  -5 2514.39  581.64   1
  -1   3   613878.88 3142.04   1
   1  -3  -614664.44 3142.07   1
  -1   3   615507.75 2824.59   1
  -1   3   615338.21 3273.86   1
   1  -3  -615176.63 2823.99   1
   1  -3  -615230.41 3255.93   1
  -1   3   713828.28 2796.39   1
   1  -3  -713549.57 2796.23   1
   1  -3  -714015.58 2796.30   1
  -1   3   713287.76 2519.00   1
  -1   3   712254.25 2900.65   1
   1  -3  -713610.05 2516.67   1
  -1   3   8  816.98  164.63   1
   1  -3  -8  774.27  164.77   1
  -1   3   8  822.49  174.71   1
  -1   3   8  681.91  246.85   1
   1  -3  -8  775.86  172.42   1
   1  -3  -8  767.68  228.94   1
  -1   3   920294.32 4521.07   1
  -1   3   920729.24 4055.27   1
  -1   3   922685.67 4651.50   1
   1  -3  -922579.92 4666.73   1
  -1   3  10 1302.47  357.89   1
  -1   3  10 1941.49  438.23   1
   1  -3 -10 1838.63  353.72   1
   1  -3 -10 1982.98  451.82   1
  -1   3  1119321.94 4040.23   1
   1  -3 -1118679.13 3514.33   1
   1  -3 -1117965.54 4054.91   1
  -1   3  12  288.83  114.67   1
   1  -3 -12  248.96   75.04   1
   1  -3 -12  219.72  120.18   1
  -1   3  13 1608.23  433.08   1
   1  -3 -13 1876.42  349.64   1
   1  -3 -13 1542.38  446.03   1
  -1   3  14    6.95   55.15   1
   1  -3 -14   19.55   31.92   1
   1  -3 -14   10.71   53.67   1
  -1   3  15 3244.00  641.69   1
   1  -3 -15 2790.84  735.51   1
  -1   3  16  394.17  154.75   1
   1  -3 -16  373.37  106.89   1
   1  -3 -16  452.87  164.54   1
  -1   4   150378.39 7418.21   1
  -1   4   152602.9711071.55   1
  -1   4   118431.7111058.36   1
  -1   4   146725.05 8485.65   1
  -1   4   147137.95 8499.37   1
   1  -4  -150058.09 7418.90   1
   1  -4  -134237.3011065.73   1
   1  -4  -136122.4211064.66   1
   1  -4  -150653.80 8486.43   1
   1  -4  -145887.74 8496.61   1
  -1   4   2 1522.75  276.23   1
  -1   4   2 1083.46  275.29   1
   1  -4  -2 1116.14  275.74   1
   1  -4  -2 1296.94  275.75   1
  -1   4   2 1405.76  270.91   1
  -1   4   2 1268.31  408.78   1
  -1   4   2 1264.41  397.47   1
   1  -4  -2 1370.46  269.64   1
   1  -4  -2 1438.48  404.18   1
   1  -4  -2 1319.39  405.80   1
  -1   4   312464.42 2608.65   1
   1  -4  -313261.88 2608.87   1
  -1   4   311957.20 2348.63   1
  -1   4   312268.20 3511.28   1
  -1   4   311819.07 3497.39   1
  -1   4   315419.64 2731.81   1
   1  -4  -311744.83 2347.45   1
   1  -4  -312754.62 3503.27   1
   1  -4  -312005.10 3508.71   1
   1  -4  -314244.80 2714.84   1
  -1   4   4 3503.54  711.17   1
  -1   4   4 3278.63 1061.72   1
  -1   4   4 3526.33 1053.28   1
  -1   4   4 4517.29  847.48   1
  -1   4   4 4312.69  858.52   1
   1  -4  -4 3705.15  708.74   1
   1  -4  -4 3437.66 1056.99   1
   1  -4  -4 3179.84 1059.27   1
   1  -4  -4 4461.89  846.95   1
   1  -4  -4 4615.95  861.37   1
  -1   4   552795.24 9514.35   1
  -1   4   551148.0610869.09   1
  -1   4   552549.4310889.65   1
   1  -4  -549079.45 9513.26   1
   1  -4  -550704.1410873.47   1
   1  -4  -549707.6910884.09   1
  -1   4   6 5024.14 1053.46   1
  -1   4   6 5304.27 1234.40   1
  -1   4   6 5940.01 1255.83   1
   1  -4  -6 5723.41 1051.27   1
   1  -4  -6 5564.05 1237.56   1
   1  -4  -6 5660.00 1247.49   1
  -1   4   7 2497.87  664.36   1
   1  -4  -7 3399.47  664.33   1
   1  -4  -7 3372.19  664.36   1
  -1   4   7 3013.53  619.43   1
  -1   4   7 3379.59  764.53   1
   1  -4  -7 3426.46  618.47   1
  -1   4   8  722.78  149.39   1
   1  -4  -8  630.85  148.21   1
  -1   4   8  682.73  159.51   1
  -1   4   8  817.60  211.26   1
   1  -4  -8  698.78  157.20   1
   1  -4  -8  610.78  220.87   1
  -1   4   9 1980.11  400.82   1
  -1   4   9 2589.06  488.83   1
  -1   4   9  881.72  514.17   1
   1  -4  -9 1551.70  492.35   1
   1  -4  -9 2496.45  502.14   1
  -1   4  10  466.36  154.36   1
   1  -4 -10  375.67  105.38   1
   1  -4 -10  438.32  162.28   1
  -1   4  11 3006.81  839.86   1
   1  -4 -11 4667.26  840.90   1
   1  -4 -11 4334.76  775.14   1
  -1   4  12  273.49  102.84   1
   1  -4 -12  122.26   61.48   1
   1  -4 -12  162.12  106.33   1
  -1   4  13  342.24   77.51   1
   1  -4 -13  319.68   76.78   1
   1  -4 -13  281.81   88.35   1
   1  -4 -14 2306.71  486.30   1
  -1   4  15   82.91   43.03   1
   1  -4 -15  156.14   46.18   1
   1  -4 -15  107.71   55.38   1
  -1   5   1 7093.40 1299.89   1
  -1   5   1 6177.31 1944.25   1
  -1   5   1 6675.61 1935.89   1
  -1   5   1 6648.54 1520.33   1
  -1   5   1 6828.79 1531.05   1
   1  -5  -1 6778.58 1305.02   1
   1  -5  -1 6916.65 1941.09   1
   1  -5  -1 7253.03 1937.40   1
   1  -5  -1 7209.13 1519.59   1
   1  -5  -1 6849.82 1526.62   1
  -1   5   2 9099.90 1750.64   1
  -1   5   2 9945.61 2615.38   1
  -1   5   2 8906.06 2608.59   1
  -1   5   2 9085.86 2032.27   1
  -1   5   2 8798.79 2046.41   1
   1  -5  -2 9179.10 1748.41   1
   1  -5  -2 9184.85 2615.95   1
   1  -5  -2 8991.17 2612.35   1
   1  -5  -2 9777.73 2032.05   1
   1  -5  -210105.39 2042.95   1
  -1   5   3  137.90   32.73   1
  -1   5   3  103.17   33.16   1
   1  -5  -3  144.42   33.68   1
   1  -5  -3  121.38   32.74   1
  -1   5   3  115.17   48.23   1
  -1   5   3  124.45   68.36   1
  -1   5   3  142.34   63.78   1
   1  -5  -3  133.54   48.72   1
   1  -5  -3  135.64   67.08   1
   1  -5  -3  131.38   67.29   1
  -1   5   4  762.88  164.50   1
  -1   5   4  815.04  165.48   1
   1  -5  -4  699.92  165.21   1
   1  -5  -4  823.35  165.29   1
  -1   5   4  737.03  173.88   1
  -1   5   4  780.16  259.34   1
   1  -5  -4  831.68  171.25   1
   1  -5  -4  805.15  255.34   1
   1  -5  -4  781.26  258.43   1
  -1   5   5 1432.83  284.28   1
  -1   5   5 1364.53  358.98   1
  -1   5   5 1285.49  374.37   1
   1  -5  -5 1406.74  282.98   1
   1  -5  -5 1350.49  362.20   1
   1  -5  -5 1350.08  369.30   1
   1  -5  -610680.82 1408.54   1
   1  -5  -610529.14 2213.65   1
   1  -5  -611090.64 2213.50   1
  -1   5   610612.90 1998.49   1
  -1   5   610076.36 2314.07   1
  -1   5   610543.05 2339.61   1
  -1   5   7 4882.66  940.51   1
  -1   5   7 4753.34 1109.83   1
  -1   5   7 4716.38 1131.90   1
   1  -5  -7 5262.75  936.76   1
   1  -5  -7 4274.77 1113.25   1
   1  -5  -7 5085.46 1121.65   1
  -1   5   8 1815.73  465.35   1
   1  -5  -8 1866.87  377.43   1
   1  -5  -8 2007.58  484.59   1
  -1   5   9 4356.07 1090.10   1
   1  -5  -9 5457.47 1090.13   1
   1  -5  -9 5638.87  997.33   1
  -1   5  10 7368.80 1713.34   1
   1  -5 -10 8023.72 1472.60   1
   1  -5 -10 7745.77 1729.50   1
  -1   5  11 1909.86  439.50   1
   1  -5 -11 2026.58  440.20   1
   1  -5 -11 2251.95  419.63   1
  -1   5  12 1057.73  277.29   1
   1  -5 -12  959.94  214.37   1
   1  -5 -12  948.43  290.84   1
  -1   5  13 1752.83  459.48   1
   1  -5 -13 1904.17  373.27   1
   1  -5 -13 1825.65  474.89   1
  -1   5  14  345.04  131.36   1
   1  -5 -14  295.89   89.84   1
   1  -5 -14  286.96  140.73   1
  -1   5  15 2116.77  433.04   1
   1  -5 -15 2085.04  433.88   1
   1  -5 -15 1986.23  413.90   1
  -1   6   1   23.41   29.66   1
  -1   6   1    3.73   27.98   1
  -1   6   1    7.49   25.88   1
  -1   6   1   71.80   43.56   1
  -1   6   1   34.63   51.14   1
   1  -6  -1   15.51   32.68   1
   1  -6  -1   17.75   26.58   1
   1  -6  -1   22.42   45.08   1
   1  -6  -1   64.75   48.07   1
  -1   6   2 3217.58  782.08   1
  -1   6   2 3396.32  723.39   1
  -1   6   2 3656.05 1080.00   1
  -1   6   2 4088.65 1080.38   1
  -1   6   2 3806.77  861.69   1
   1  -6  -2 4505.75  726.06   1
   1  -6  -2 3838.04 1080.69   1
   1  -6  -2 3483.03 1077.34   1
   1  -6  -2 3573.16  861.78   1
   1  -6  -2 3460.08  870.93   1
  -1   6   3 2055.92  450.37   1
  -1   6   3 2135.31  666.18   1
  -1   6   3 2266.62  674.75   1
  -1   6   3 2445.55  549.22   1
  -1   6   3 2368.49  565.30   1
   1  -6  -3 2325.72  447.93   1
   1  -6  -3 2337.47  671.00   1
   1  -6  -3 2377.50  672.58   1
   1  -6  -3 1950.76  551.35   1
   1  -6  -3 2660.71  560.27   1
   1  -6  -4   43.52   67.55   1
  -1   6   4  146.01   85.38   1
  -1   6   4  199.76  116.09   1
  -1   6   4  255.28  122.03   1
  -1   6   4  654.63  128.58   1
   1  -6  -4  432.85   85.31   1
   1  -6  -4  184.95  120.90   1
   1  -6  -4  373.82  122.19   1
   1  -6  -4  757.05  132.03   1
  -1   6   5 3053.81  751.02   1
   1  -6  -5 3785.75  751.37   1
  -1   6   5 3575.54  696.27   1
  -1   6   5 3157.05  847.42   1
   1  -6  -5 4139.75  694.44   1
   1  -6  -5 3272.39  835.89   1
  -1   6   6   68.41    8.40   1
  -1   6   6  124.67   30.79   1
   1  -6  -6  136.54   35.50   1
  -1   6   6   62.84   80.51   1
   1  -6  -6  116.94   47.74   1
   1  -6  -6   72.64   78.72   1
  -1   6   7 1473.79  315.11   1
   1  -6  -7 1480.09  306.88   1
   1  -6  -7 1572.68  400.37   1
   1  -6  -8 1168.43  251.89   1
  -1   6   8 1198.73  321.82   1
   1  -6  -8 1195.94  249.84   1
  -1   6   9  112.45   53.42   1
   1  -6  -9  131.30   55.86   1
   1  -6  -9  161.23   58.63   1
  -1   6  10 2726.31  562.87   1
   1  -6 -10 2629.05  563.03   1
   1  -6 -10 2671.97  527.74   1
  -1   6  11 1172.53  311.39   1
   1  -6 -11 1131.14  241.22   1
   1  -6 -11 1095.80  325.23   1
  -1   6  12  558.48  174.87   1
   1  -6 -12  464.75  124.55   1
   1  -6 -12  501.68  186.84   1
  -1   6  13  183.09  109.76   1
   1  -6 -13  221.70   72.95   1
   1  -6 -13  227.24  119.12   1
  -1   6  14    0.77   50.43   1
   1  -6 -14   22.57   35.85   1
   1  -6 -14  -21.76   63.50   1
  -1   7   1 2431.41  616.20   1
   1  -7  -1 2629.99  616.46   1
  -1   7   1 2791.07  575.25   1
  -1   7   1 3183.23  854.75   1
  -1   7   1 2914.14  860.86   1
  -1   7   1 2605.48  705.44   1
   1  -7  -1 3130.41  579.19   1
   1  -7  -1 3150.05  858.16   1
   1  -7  -1 3258.35  854.54   1
   1  -7  -1 2216.30  694.04   1
  -1   7   212585.81 2767.72   1
  -1   7   216980.70 4122.66   1
  -1   7   213025.73 4129.18   1
  -1   7   215493.05 3194.49   1
  -1   7   212217.46 3204.04   1
   1  -7  -216943.89 2776.03   1
   1  -7  -215655.28 4133.09   1
   1  -7  -215262.40 4127.13   1
   1  -7  -211293.34 3189.11   1
   1  -7  -214696.99 3198.19   1
   1  -7  -3  899.40  175.98   1
  -1   7   3  570.45  181.65   1
  -1   7   3  957.88  265.77   1
  -1   7   3  921.64  271.99   1
  -1   7   3  543.36  252.60   1
   1  -7  -3 1052.43  186.14   1
   1  -7  -3  833.48  269.86   1
   1  -7  -3  819.47  268.76   1
   1  -7  -3  553.73  241.95   1
  -1   7   4  210.04   98.16   1
  -1   7   4  401.46  138.73   1
  -1   7   4  355.97  140.76   1
  -1   7   4  380.39  136.65   1
   1  -7  -4  417.24   97.37   1
   1  -7  -4  440.18  143.83   1
   1  -7  -4  357.93  140.96   1
   1  -7  -4  366.31  147.93   1
  -1   7   5  223.14   54.99   1
   1  -7  -5  272.30   59.58   1
   1  -7  -5  239.75   75.03   1
  -1   7   6 4901.43 1193.22   1
   1  -7  -6 5751.14 1013.87   1
   1  -7  -6 4909.97 1201.53   1
  -1   7   7   -0.29   41.08   1
   1  -7  -7    5.23   33.54   1
   1  -7  -7   29.59   56.58   1
  -1   7   8 6427.36 1388.64   1
   1  -7  -8 6235.57 1183.18   1
   1  -7  -8 5870.78 1398.18   1
  -1   7   9 2683.64  634.84   1
   1  -7  -9 2602.86  523.20   1
   1  -7  -9 2734.82  646.83   1
  -1   7  10   40.59   54.11   1
   1  -7 -10   39.81   39.01   1
   1  -7 -10   42.85   70.75   1
  -1   7  11 1278.43  269.15   1
   1  -7 -11 1322.41  271.56   1
   1  -7 -11 1244.92  266.70   1
  -1   7  12  327.31  125.28   1
   1  -7 -12  270.91   87.92   1
   1  -7 -12  341.38  140.90   1
  -1   7  13  428.10   94.45   1
   1  -7 -13  413.34   99.83   1
  -1   8   1 1574.61  449.77   1
  -1   8   1 1248.72  455.08   1
  -1   8   1 1809.46  381.49   1
   1  -8  -1 1750.33  458.52   1
   1  -8  -1 1119.68  448.44   1
   1  -8  -1 1784.08  389.06   1
  -1   8   2  294.56  106.32   1
  -1   8   2  164.70  104.20   1
  -1   8   2  310.42  108.75   1
   1  -8  -2  252.88   80.72   1
   1  -8  -2  268.34  109.38   1
   1  -8  -2  184.32  103.79   1
   1  -8  -2  328.80  118.50   1
  -1   8   3  603.07  186.51   1
  -1   8   3  414.17  188.08   1
  -1   8   3  685.89  179.44   1
   1  -8  -3  657.67  137.18   1
   1  -8  -3  422.28  191.92   1
   1  -8  -3  483.80  186.06   1
   1  -8  -3  599.58  184.18   1
  -1   8   4  144.76  117.62   1
  -1   8   4  205.86  114.83   1
  -1   8   4  580.76  125.95   1
   1  -8  -4  367.61   91.99   1
   1  -8  -4  167.09  119.71   1
   1  -8  -4  449.04  132.16   1
  -1   8   537744.29 8260.62   1
   1  -8  -539203.28 7222.34   1
   1  -8  -538694.56 8274.45   1
  -1   8   6   71.11   69.08   1
   1  -8  -6   56.20   51.95   1
   1  -8  -6   81.83   69.15   1
   1  -8  -7  299.69   10.55   1
   1  -8  -7  324.55   73.91   1
  -1   8   7  267.31  120.96   1
  -1   8   8   96.09   78.00   1
   1  -8  -8  150.91   57.40   1
   1  -8  -8  114.69   92.74   1
  -1   8   9  480.05  161.23   1
   1  -8  -9  470.50  118.51   1
   1  -8  -9  425.35  173.43   1
  -1   8  10  453.75  157.68   1
   1  -8 -10  426.72  116.11   1
   1  -8 -10  468.35  171.03   1
  -1   8  11  287.48   61.14   1
   1  -8 -11  290.18   67.51   1
   1  -8 -11  206.10   81.22   1
  -1   9   1  632.25  231.60   1
  -1   9   1  702.91  215.06   1
   1  -9  -1  722.41  236.92   1
   1  -9  -1  661.90  218.05   1
  -1   9   2  878.45  275.11   1
  -1   9   2  725.52  240.34   1
   1  -9  -2  610.97  192.22   1
   1  -9  -2  956.46  281.30   1
   1  -9  -2  843.30  250.54   1
  -1   9   3 2412.74  845.12   1
  -1   9   3 2856.21  678.47   1
   1  -9  -3 3260.17  573.08   1
   1  -9  -3 2893.53  847.87   1
   1  -9  -3 3218.18  688.25   1
  -1   9   4  297.75  120.07   1
   1  -9  -4  202.15   89.59   1
   1  -9  -4  300.21  127.75   1
  -1   9   5  309.67   67.37   1
   1  -9  -5  244.83   95.44   1
   1  -9  -5  288.24  132.32   1
  -1   9   6 3839.76  903.56   1
   1  -9  -6 3656.01  765.79   1
   1  -9  -6 4241.20  911.51   1
  -1   9   7  126.27   41.78   1
   1  -9  -7  118.93   71.64   1
   1  -9  -7  112.00   98.78   1
   1  -9  -8   87.72   12.15   1
  -1   9   8  101.70   79.72   1
   1  -9  -8   98.06   94.79   1
  -1   9   9  209.49  105.09   1
   1  -9  -9  239.91   84.53   1
   1  -9  -9  137.24  120.93   1
  -1   9  10  441.58  149.76   1
   1  -9 -10  387.65  116.48   1
   1  -9 -10  340.55  165.04   1
  -1  10   1 8531.90 2242.80   1
  -1  10   111350.02 3031.03   1
   1 -10  -111370.38 3035.03   1
  -1  10   2 4456.65 1444.07   1
  -1  10   2 6278.33 1143.39   1
   1 -10  -2 3689.70 1445.06   1
   1 -10  -2 6732.12 1144.76   1
  -1  10   3  504.75  134.51   1
   1 -10  -3   68.59  144.38   1
   1 -10  -3  479.62  143.94   1
  -1  10   4   85.67   34.66   1
   1 -10  -4   90.29   42.67   1
   1 -10  -4  104.37   72.37   1
  -1  10   5 1383.15  298.43   1
   1 -10  -5 1488.52  309.71   1
   1 -10  -5 1366.33  380.26   1
  -1  10   6   43.15   31.51   1
   1 -10  -6   27.91   39.61   1
   1 -10  -6   36.63   56.11   1
  -1  10   7 1422.90  432.64   1
   1 -10  -7 2362.56  371.67   1
   1 -10  -7 1284.43  431.49   1
  -1  10   8   28.76   50.52   1
   1 -10  -8   11.31   41.66   1
   1 -10  -8   34.38  102.00   1
  -1  11   1 2946.34  709.48   1
  -1  11   2   75.27   89.55   1
  -1  11   3  520.81  190.57   1
  -1  11   4  660.84  239.72   1
   1 -11  -4  892.37  249.06   1
  -1  11   5  379.08  181.97   1
   1 -11  -5  694.09  197.64   1
  -1  12   1  159.35  118.44   1
   0  12  -2   41.70   72.25   1
   0  12  -3  -43.48  105.14   1
   0  12  -4  146.81  155.39   1
   0 -11   1    1.15  137.42   1
   0  11  -1  355.02  144.11   1
   0  11  -1  641.16  146.23   1
   0  11  -2  172.33   51.87   1
   0 -11   2    8.19   79.58   1
   0  11  -2  162.90   88.99   1
   0 -11   3    3.87   62.98   1
   0  11  -3  103.68   64.64   1
   0  11  -3  139.32  100.37   1
   0  11  -4  -17.05   49.19   1
   0  11  -4   11.68   39.28   1
   0  11  -5  332.12   80.10   1
   0 -11   5  -14.85  123.98   1
   0  11  -5  497.15  128.39   1
   0 -11   6    9.92   94.25   1
   0  11  -6  295.33   97.29   1
   0  11  -6  180.75  145.63   1
   0 -11   7   -3.52   61.43   1
   0  11  -7   71.94   98.64   1
   0  11  -7  100.67   62.20   1
   0  11  -7   41.47  134.65   1
   0 -11   8   36.72   51.26   1
   0  11  -8    9.41   91.10   1
   0  11  -8    4.49   49.04   1
   0  11  -8   23.14  127.99   1
   0  11  -9   18.94   89.16   1
   0 -11   9   44.51   59.95   1
   0  11  -9   31.71   99.91   1
   0  11  -9   60.24   53.43   1
   0 -10   1  124.46   96.66   1
   0  10  -1  154.49   95.28   1
   0  10  -1  283.08  111.00   1
   0  10  -2 4106.86 1101.40   1
   0 -10   2 5695.46 1516.59   1
   0  10  -2 5457.58 1514.11   1
   0  10  -3 1356.75  328.63   1
   0 -10   3 1538.47  487.37   1
   0  10  -3 1663.60  484.93   1
   0  10  -4  690.35  168.18   1
   0 -10   4  787.16  267.70   1
   0  10  -4  786.08  264.79   1
   0 -10   5 1373.56  414.06   1
   0  10  -5 1229.46  410.10   1
   0  10  -5 1252.94  373.28   1
   0 -10   6  153.51  109.74   1
   0  10  -6  252.11  107.76   1
   0  10  -6  313.13  146.40   1
   0  10  -7   -1.32   55.22   1
   0 -10   7   -1.28   34.26   1
   0  10  -7    7.19   31.18   1
   0  10  -7   -6.06   98.95   1
   0 -10   8 1982.16  590.41   1
   0  10  -8 1527.47  410.17   1
   0  10  -8 1948.85  585.79   1
   0  10  -8 2182.35  548.65   1
   0  10  -9 3669.17  610.97   1
   0  10  -9 3083.44  705.23   1
   0  10  -9 3549.64  887.57   1
   0 -10  10  555.68  217.40   1
   0  10 -10  593.01  170.86   1
   0  10 -10  575.57  214.44   1
   0  10 -10  583.11  267.18   1
   0  10 -11  412.56  161.54   1
   0 -10  11  615.35  251.39   1
   0  10 -11  735.82  200.39   1
   0  10 -11  814.61  250.42   1
   0  10 -12 1872.71  464.94   1
   0 -10  12 2055.44  668.79   1
   0  10 -12 1687.12  463.83   1
   0  10 -12 2608.58  667.24   1
   0  -9   115545.67 4661.95   1
   0   9  -118466.55 4659.34   1
   0   9  -114728.39 3600.56   1
   0  -9   2 6304.48 1822.94   1
   0   9  -2 6405.48 1818.59   1
   0   9  -2 6424.96 1434.86   1
   0   9  -3  673.84  145.75   1
   0  -9   3  713.20  235.46   1
   0   9  -3  632.19  229.75   1
   0  -9   4  410.57  182.05   1
   0   9  -4  454.83  176.70   1
   0   9  -4  736.94  190.18   1
   0   9  -5 5453.35 1395.77   1
   0  -9   5 6371.26 1903.70   1
   0   9  -5 7303.04 1897.25   1
   0  -9   6 1001.44  359.53   1
   0   9  -6 1188.09  353.63   1
   0   9  -6 1148.63  333.12   1
   0  -9   7   57.98   52.23   1
   0   9  -7   48.46   48.06   1
   0   9  -7   68.32   99.62   1
   0  -9   8   35.36   23.36   1
   0   9  -8   24.36   20.03   1
   0   9  -8   44.07   61.97   1
   0   9  -8   80.27  108.29   1
   0  -9   9  732.97  233.85   1
   0   9  -9  605.36  176.78   1
   0   9  -9  586.45  227.27   1
   0   9  -9  711.81  263.84   1
   0  -9  10  568.57  243.79   1
   0   9 -10  782.08  181.92   1
   0   9 -10  690.13  238.69   1
   0   9 -10  817.90  274.11   1
   0  -9  11 1608.79  566.53   1
   0   9 -11 2085.82  400.48   1
   0   9 -11 1940.39  561.47   1
   0   9 -11 1654.10  522.25   1
   0   9 -12  477.15  137.72   1
   0  -9  12  540.07  205.92   1
   0   9 -12  429.73  154.61   1
   0   9 -12  593.23  201.96   1
   0  -9  13 7535.25 1929.93   1
   0   9 -13 5683.70 1297.89   1
   0   9 -13 6360.77 1925.26   1
   0   9 -13 7464.18 1580.19   1
   0  -8   1 8535.20 2082.72   1
   0  -8   1 6298.10 2068.70   1
   0   8  -1 8482.60 2077.20   1
   0   8  -1 6293.09 2076.52   1
   0   8  -1 7787.43 1629.28   1
   0  -8   2    1.28   29.39   1
   0  -8   2    8.71   28.29   1
   0   8  -2    8.56   25.51   1
   0   8  -2   11.72   31.74   1
   0   8  -2   14.77   45.75   1
   0  -8   3  424.20  158.21   1
   0  -8   3  294.47  149.34   1
   0   8  -3  369.19  152.11   1
   0   8  -3  189.02  153.62   1
   0  -8   4 3757.88  663.58   1
   0   8  -4 3434.75 1098.99   1
   0   8  -4 5009.77  898.14   1
   0  -8   5   26.86   48.53   1
   0   8  -5   28.34   45.66   1
   0   8  -5  216.39   81.54   1
   0  -8   6  282.08   66.06   1
   0   8  -6  342.28   65.64   1
   0   8  -6  529.38  156.97   1
   0   8  -7 3898.62 1005.63   1
   0  -8   7 4086.00 1379.35   1
   0   8  -7 7509.68  953.09   1
   0   8  -7 4867.96 1374.84   1
   0   8  -8 3218.44  742.82   1
   0  -8   8 2878.62 1029.03   1
   0   8  -8 4289.72  701.35   1
   0   8  -8 3812.89 1024.43   1
   0  -8   9   43.07  122.30   1
   0   8  -9  861.79  118.06   1
   0   8  -9   33.32  117.45   1
   0   8  -9  970.44  185.47   1
   0  -8  10 2639.05  815.78   1
   0   8 -10 2892.78  555.36   1
   0   8 -10 2735.15  809.09   1
   0   8 -10 2817.91  704.07   1
   0   8 -11 2454.08  508.74   1
   0  -8  11 2170.64  723.20   1
   0   8 -11 3092.34  501.61   1
   0   8 -11 2274.58  715.97   1
   0  -8  12 6242.58 1537.07   1
   0   8 -12 4551.12 1032.84   1
   0   8 -12 4952.20 1528.88   1
   0   8 -12 5399.98 1265.76   1
   0   8 -13  678.24  222.57   1
   0  -8  13 1024.72  343.40   1
   0   8 -13  981.94  243.48   1
   0   8 -13 1130.95  337.95   1
   0  -8  14    8.57   31.75   1
   0   8 -14  -12.95   68.72   1
   0   8 -14   -8.88   32.77   1
   0   8 -14  -33.98  113.52   1
   0   8 -15  265.15  108.74   1
   0   8 -15  339.78  202.36   1
   0   7  -1   14.82   22.46   1
   0   7  -1    5.35   22.64   1
   0  -7   1    3.76   27.22   1
   0  -7   1   14.84   26.82   1
   0  -7   1   12.29   48.13   1
   0   7  -1    7.41   26.46   1
   0   7  -1   17.27   23.96   1
   0   7  -1   20.09   27.45   1
   0   7  -2  293.42    9.71   1
   0   7  -2  280.94  126.05   1
   0  -7   2  800.84  205.18   1
   0  -7   2  560.39  198.93   1
   0   7  -2  748.98  200.93   1
   0   7  -2  562.91  202.33   1
   0   7  -2  686.26  195.35   1
   0  -7   3 2521.08  667.01   1
   0  -7   3 2054.01  659.06   1
   0  -7   3 1476.55  545.37   1
   0   7  -3 1885.23  444.57   1
   0   7  -3 2673.50  663.39   1
   0   7  -3 2436.47  664.91   1
   0   7  -3 2731.57  556.20   1
   0   7  -3 1757.67  552.33   1
   0  -7   418066.03 4929.08   1
   0  -7   415733.15 4920.50   1
   0  -7   411716.29 3799.05   1
   0   7  -417148.29 3302.07   1
   0   7  -420650.64 4925.48   1
   0   7  -420266.08 4926.22   1
   0   7  -414864.10 3808.48   1
   0   7  -5   90.48   29.83   1
   0  -7   5  112.44   50.79   1
   0  -7   5   78.03   52.44   1
   0  -7   5   25.44   63.24   1
   0   7  -5   45.70   41.29   1
   0   7  -5  113.35   48.99   1
   0   7  -5   44.71   49.44   1
   0   7  -5   30.32   69.18   1
   0  -7   6 3011.12  739.30   1
   0  -7   6 2553.59  731.34   1
   0  -7   6 1131.14  600.85   1
   0   7  -6 1710.48  494.24   1
   0   7  -6 4266.54  736.38   1
   0   7  -6 1720.83  735.15   1
   0   7  -6 2835.11  618.28   1
   0   7  -6 1162.37  607.42   1
   0   7  -720379.38 3382.82   1
   0   7  -714858.11 3898.81   1
   0   7  -8  770.81   19.18   1
   0  -7   8  851.20  293.75   1
   0   7  -8  954.77  290.47   1
   0   7  -8 1101.43  292.80   1
   0  -7   9  584.24  219.37   1
   0   7  -9  760.56  160.42   1
   0   7  -9  573.13  215.86   1
   0   7  -9  785.76  237.06   1
   0  -7  10 3378.43 1103.18   1
   0   7 -10 4634.11  750.34   1
   0   7 -10 3667.21 1097.97   1
   0   7 -10 4120.84  917.07   1
   0  -7  11  298.99  127.48   1
   0   7 -11  360.48  101.64   1
   0   7 -11  251.38  121.59   1
   0   7 -11  319.80  171.23   1
   0   7 -12 3207.15  705.84   1
   0  -7  12 3366.46  987.24   1
   0   7 -12 3069.87  665.01   1
   0   7 -12 3522.32  979.25   1
   0  -7  13  141.31   80.00   1
   0   7 -13  105.18   78.80   1
   0   7 -13  114.43   74.41   1
   0   7 -13  125.43  122.78   1
   0  -7  14   66.02   67.27   1
   0   7 -14  100.34   62.65   1
   0   7 -14   70.34   63.05   1
   0   7 -14   84.35  117.82   1
   0  -7  15 1028.50  364.91   1
   0   7 -15 1232.79  361.32   1
   0   7 -15  785.32  361.84   1
   0  -7  16  121.31  148.06   1
   0  -6   1  801.51  286.33   1
   0  -6   1  929.34  280.91   1
   0  -6   1  776.70  256.30   1
   0  -6   1  938.29  258.90   1
   0   6  -1  826.35  191.93   1
   0   6  -1 1086.27  282.76   1
   0   6  -1  813.92  286.00   1
   0   6  -1  978.64  256.77   1
   0   6  -1  803.36  263.25   1
   0   6  -2  500.22  152.42   1
   0  -6   2  787.90  238.62   1
   0  -6   2  638.99  231.35   1
   0   6  -2  792.93  233.26   1
   0   6  -2  692.95  237.70   1
   0   6  -2  891.33  221.15   1
   0   6  -3 1825.12  569.39   1
   0  -6   3 3132.43  797.30   1
   0  -6   3 2586.36  788.58   1
   0  -6   3 3175.50  646.03   1
   0   6  -3 2709.22  532.21   1
   0   6  -3 2546.49  789.22   1
   0   6  -3 2637.69  794.68   1
   0   6  -3 3237.22  653.84   1
   0  -6   4 1417.50  189.56   1
   0   6  -4  729.06  224.82   1
   0  -6   4 1097.37  328.64   1
   0  -6   4  912.23  291.25   1
   0   6  -4 1084.76  330.14   1
   0   6  -4  794.33  334.26   1
   0   6  -4 1458.93  305.53   1
   0  -6   5 9098.33 1753.88   1
   0   6  -511540.89 1754.50   1
   0  -6   5 7777.94 2218.33   1
   0   6  -511683.34 1916.21   1
   0   6  -510213.45 2851.46   1
   0   6  -510225.82 2227.73   1
   0   6  -5 9116.97 2222.65   1
   0  -6   6  351.84  141.48   1
   0  -6   6  806.18  228.13   1
   0  -6   6  655.83  218.39   1
   0   6  -6  724.97  159.21   1
   0   6  -6  636.96  219.87   1
   0   6  -6  660.25  223.77   1
   0   6  -6  913.91  217.42   1
   0  -6   7 1036.89  164.63   1
   0   6  -7 1032.59  162.80   1
   0  -6   7  790.33  287.61   1
   0  -6   7  523.88  255.89   1
   0   6  -7  975.71  203.90   1
   0   6  -7  922.08  293.03   1
   0   6  -7 1420.43  284.20   1
   0   6  -7  834.13  266.64   1
   0  -6   8 1535.13  779.73   1
   0   6  -8 2011.03  781.58   1
   0  -6   8 4691.50 1080.40   1
   0  -6   8 4040.84 1071.30   1
   0   6  -8 5166.55  731.18   1
   0   6  -8 3888.19 1074.21   1
   0   6  -8 2770.34 1075.62   1
   0   6  -8 5097.98  889.32   1
   0  -6   910093.92 2983.09   1
   0   6  -910377.53 2004.46   1
   0   6  -911469.63 2978.81   1
   0   6  -9 9113.09 2344.45   1
   0  -6  10 4615.10 1376.12   1
   0   6 -10 5483.29  932.61   1
   0   6 -10 4601.10 1372.38   1
   0   6 -10 4908.63 1121.35   1
   0  -6  11  295.18   58.81   1
   0   6 -11  298.80   57.71   1
   0   6 -11  315.20   93.82   1
   0   6 -11  274.39  165.49   1
   0  -6  12 1038.78  297.37   1
   0   6 -12  889.12  207.71   1
   0   6 -12  748.86  289.37   1
   0   6 -12  946.52  293.76   1
   0  -6  13 1063.81  311.15   1
   0   6 -13  725.11  211.67   1
   0   6 -13  925.04  302.84   1
   0   6 -13  931.56  306.22   1
   0  -6  14 4957.28  791.57   1
   0   6 -14 3070.66  366.55   1
   0   6 -14 4938.28 1311.77   1
   0   6 -14 4800.17 1086.28   1
   0  -6  15  450.74  175.27   1
   0  -6  15  419.54  184.60   1
   0   6 -15  467.44  127.81   1
   0   6 -15  376.81  170.90   1
   0   6 -15  402.63  205.92   1
   0  -6  16 4615.25  905.48   1
   0  -6  16 4566.92  753.86   1
   0   6 -16 3370.65  609.21   1
   0   6 -16  -10.78  893.40   1
   0   6 -16 4741.54  784.04   1
   0  -5   1 1235.15  221.85   1
   0  -5   1  952.29  329.20   1
   0  -5   1 1024.65  320.36   1
   0  -5   1  671.07  285.64   1
   0  -5   1 1136.65  289.89   1
   0   5  -1 1226.23  219.22   1
   0   5  -1 1030.02  320.98   1
   0   5  -1 1072.76  327.30   1
   0   5  -1 1065.10  285.54   1
   0   5  -1  909.07  290.45   1
   0  -5   2 4153.42 1219.18   1
   0  -5   2 4267.55 1208.65   1
   0  -5   2 4304.84  967.27   1
   0   5  -2 4560.70  812.94   1
   0   5  -2 3754.22 1207.83   1
   0   5  -2 4364.75 1215.88   1
   0   5  -2 4892.53  972.59   1
   0  -5   3 8467.18 1891.60   1
   0  -5   3 6227.18 1880.65   1
   0  -5   3 5738.72 1480.25   1
   0   5  -3 5299.38 1879.72   1
   0   5  -3 7874.47 1887.18   1
   0  -5   4 6217.92 2036.04   1
   0  -5   411507.71 2748.10   1
   0  -5   4 9799.00 2737.56   1
   0   5  -411781.91 1845.19   1
   0   5  -4 9400.56 2736.73   1
   0   5  -4 8838.46 2743.89   1
   0   5  -4 9903.18 2147.13   1
   0   5  -4 9761.94 2140.19   1
   0  -5   520208.17 4457.66   1
   0  -5   512788.05 4445.72   1
   0  -5   510253.93 3431.86   1
   0   5  -519279.72 2987.30   1
   0   5  -516544.42 4445.68   1
   0   5  -515642.27 4452.57   1
   0   5  -516969.71 3443.18   1
   0  -5   645713.1512283.22   1
   0  -5   639831.6012270.92   1
   0  -5   640904.16 9413.89   1
   0   5  -664789.73 8243.61   1
   0   5  -630154.5412270.66   1
   0   5  -658824.3412278.47   1
   0   5  -645134.63 9422.89   1
   0  -5   7 1201.57  309.03   1
   0  -5   7  852.93  297.51   1
   0  -5   7  632.99  270.62   1
   0   5  -7 1037.11  298.32   1
   0   5  -7  903.27  303.47   1
   0   5  -7 1042.87  283.87   1
   0  -5   8  453.58   78.65   1
   0   5  -8  510.37   78.03   1
   0  -5   8  414.28  149.92   1
   0  -5   8  291.29  157.41   1
   0   5  -8  469.69  109.45   1
   0   5  -8  342.65  154.56   1
   0   5  -8  512.51  166.22   1
   0   5  -9  562.66  113.41   1
   0  -5   9  479.26  184.55   1
   0  -5   9  527.84  178.87   1
   0  -5   9  312.43  180.70   1
   0   5  -9  696.49  133.02   1
   0   5  -9  600.83  179.37   1
   0   5  -9  446.79  181.97   1
   0   5 -10 5452.88 1315.28   1
   0  -5  10 5703.17 1787.54   1
   0   5 -10 6948.34 1783.13   1
   0   5 -11 1909.13  356.78   1
   0   5 -11 1623.22  517.73   1
   0   5 -11 1690.14  464.58   1
   0  -5  12 2080.08  564.99   1
   0   5 -12 1721.30  380.24   1
   0   5 -12 1822.03  557.37   1
   0   5 -12 1572.02  496.74   1
   0  -5  13  148.89   37.95   1
   0   5 -13  149.67   69.28   1
   0   5 -13  153.92   80.78   1
   0   5 -13  183.98  121.47   1
   0  -5  14 2833.30  908.44   1
   0  -5  14 3197.03  740.50   1
   0   5 -14 3037.12  610.21   1
   0   5 -14 3225.57  901.58   1
   0   5 -14 2974.43  766.96   1
   0  -5  15 2445.43  525.08   1
   0  -5  15 2333.31  452.26   1
   0   5 -15 2335.86  355.65   1
   0   5 -15    9.18  514.03   1
   0   5 -15 2251.49  478.39   1
   0  -5  16    6.88   40.70   1
   0  -5  16   -5.02   86.35   1
   0   5 -16    0.47   54.11   1
   0   5 -16    6.78   35.90   1
   0   5 -16  -13.89  120.69   1
   0  -5  17  111.41   65.58   1
   0   5 -17   73.38   69.66   1
   0   5 -17   60.32   67.70   1
   0  -4   1 2088.25  357.52   1
   0  -4   1 1955.18  534.79   1
   0  -4   1 1733.15  528.43   1
   0  -4   1 1819.35  446.54   1
   0  -4   1 1840.46  447.98   1
   0   4  -1 1948.80  355.51   1
   0   4  -1 1821.57  525.56   1
   0   4  -1 1241.01  533.48   1
   0   4  -1 1842.67  441.94   1
   0   4  -1 1694.02  447.35   1
   0  -4   2  525.17  179.45   1
   0  -4   2  578.18  168.31   1
   0   4  -2  570.76  118.06   1
   0   4  -2  441.46  173.43   1
   0   4  -2  460.05  179.31   1
   0   4  -2  590.70  174.09   1
   0   4  -2  676.46  173.73   1
   0  -4   311437.89 3114.98   1
   0  -4   3 9457.16 2412.46   1
   0   4  -313054.99 2093.06   1
   0   4  -310953.26 3108.61   1
   0   4  -3 9593.13 3114.98   1
   0   4  -313314.34 2427.70   1
   0   4  -311507.67 2421.81   1
   0  -4   4 3493.97  829.88   1
   0  -4   4 4036.38 1142.10   1
   0  -4   4 4203.51 1137.19   1
   0   4  -4 3612.39 1135.65   1
   0   4  -4 3814.38 1142.17   1
   0   4  -4 4518.27  915.41   1
   0   4  -4 4619.34  916.19   1
   0  -4   5  109.13   22.26   1
   0  -4   5   90.38   30.24   1
   0   4  -5  115.36   21.86   1
   0   4  -5   97.14   22.46   1
   0  -4   5  107.67   54.87   1
   0  -4   6 2882.18  785.66   1
   0  -4   6 3781.85 1085.13   1
   0  -4   6 3840.40 1076.06   1
   0   4  -6 4052.65  729.29   1
   0   4  -6 3968.24 1075.84   1
   0   4  -6 3307.84 1082.73   1
   0   4  -6 4204.20  877.37   1
   0   4  -7 7793.02 1893.07   1
   0  -4   711703.29 2558.83   1
   0  -4   7 8678.05 2546.41   1
   0  -4   710897.38 1996.65   1
   0   4  -7 9175.42 1712.78   1
   0   4  -7 8012.92 2546.14   1
   0   4  -7 8291.91 2553.36   1
   0   4  -8 1825.79  594.52   1
   0  -4   8 3286.74  833.92   1
   0  -4   8 2841.79  821.83   1
   0  -4   8 2524.82  678.93   1
   0   4  -8 3088.77  562.25   1
   0   4  -8 2923.54  822.15   1
   0   4  -8 2664.03  828.03   1
   0  -4   915209.16 3734.93   1
   0  -4   912566.93 3724.71   1
   0  -4   910824.52 2897.94   1
   0   4  -913485.47 2503.20   1
   0   4  -914605.69 3725.68   1
   0   4  -911436.53 3729.89   1
   0   4  -914267.05 2914.14   1
   0  -4  10 1559.08  437.59   1
   0  -4  10  453.12  385.22   1
   0   4 -10 1943.57  304.33   1
   0   4 -10  430.07  440.64   1
   0  -4  1116428.12 4773.36   1
   0   4 -1114950.06 3201.15   1
   0   4 -1118688.05 4768.83   1
   0  -4  1211380.78 2870.49   1
   0   4 -12 9552.35 1925.89   1
   0   4 -12 9870.70 2862.43   1
   0   4 -12 8799.63 2257.69   1
   0  -4  13   16.93   39.39   1
   0  -4  13   23.01   77.71   1
   0   4 -13   37.70   46.29   1
   0   4 -13   28.21   35.05   1
   0   4 -13    4.03   88.60   1
   0  -4  14 1554.85  334.95   1
   0   4 -14 1657.84  336.90   1
   0  -4  14 1478.36  493.79   1
   0   4 -14 1662.87  332.24   1
   0   4 -14 1587.69  487.50   1
   0  -4  15 1832.51  441.65   1
   0  -4  15 1725.01  385.73   1
   0   4 -15 2184.38  300.41   1
   0   4 -15    7.43  431.82   1
   0   4 -15 2026.93  410.54   1
   0  -4  16 1400.17  397.27   1
   0  -4  16 1842.97  361.17   1
   0   4 -16 1890.74  269.94   1
   0   4 -16   14.66  388.38   1
   0   4 -16 1858.73  385.26   1
   0  -4  17   38.03   53.33   1
   0   4 -17   13.97   49.03   1
   0   4 -17   41.74   54.63   1
   0  -3   160550.65 6489.52   1
   0   3  -123766.88 6487.50   1
   0  -3   156178.34 5802.07   1
   0  -3   138397.35 8653.80   1
   0  -3   127242.19 8650.77   1
   0  -3   151996.07 6647.34   1
   0   3  -116958.30 5798.39   1
   0   3  -120953.65 8648.51   1
   0   3  -117992.73 8654.33   1
   0   3  -127496.18 6655.93   1
   0   3  -2 1351.55  296.21   1
   0  -3   2 1413.66  509.89   1
   0  -3   2 1941.75  507.48   1
   0  -3   2 1799.91  422.45   1
   0   3  -2 1970.97  344.32   1
   0   3  -2 1361.35  511.12   1
   0   3  -2 1969.07  436.60   1
   0   3  -2 2966.58  431.67   1
   0  -3   3 3004.13  891.85   1
   0  -3   3 2970.75  888.79   1
   0  -3   3 3062.00  722.98   1
   0   3  -3 3090.93  887.76   1
   0   3  -3 3194.16  892.63   1
   0   3  -3 3294.33  726.70   1
   0  -3   4 4446.86 1508.27   1
   0  -3   4 5988.57 1505.12   1
   0  -3   4 6235.75 1200.32   1
   0   3  -4 5117.52 1503.67   1
   0   3  -4 5587.04 1509.15   1
   0   3  -4 4464.60 1190.61   1
   0  -3   526210.02 6824.46   1
   0  -3   527259.56 6819.95   1
   0  -3   527563.64 5257.54   1
   0   3  -526479.31 4575.11   1
   0   3  -516772.57 6818.68   1
   0   3  -525998.28 6824.96   1
   0   3  -525222.83 5256.68   1
   0  -3   618607.75 5963.85   1
   0  -3   623880.92 5957.64   1
   0  -3   622194.27 4601.44   1
   0   3  -621456.91 5956.78   1
   0   3  -620992.24 5963.89   1
   0   3  -619162.06 4601.57   1
   0  -3   7 4327.31 1225.92   1
   0  -3   7 3944.68 1216.60   1
   0  -3   7 4118.50  977.99   1
   0   3  -7 4812.10  822.10   1
   0   3  -7 4109.99 1215.43   1
   0   3  -7 4262.74 1223.36   1
   0   3  -7 5061.48  985.44   1
   0  -3   8  310.00  117.33   1
   0  -3   8  264.59  107.46   1
   0  -3   8  260.87  119.46   1
   0   3  -8  335.85   78.54   1
   0   3  -8  297.87  107.66   1
   0   3  -8  234.82  112.55   1
   0   3  -8  317.06  126.03   1
   0   3  -9  523.49   93.15   1
   0  -3   9  569.50  182.75   1
   0  -3   9  486.10  174.81   1
   0  -3   9  452.90  175.81   1
   0   3  -9  617.67  124.90   1
   0   3  -9  468.91  174.49   1
   0   3  -9  534.11  183.35   1
   0  -3  10 6228.10 1596.25   1
   0  -3  10 5163.35 1588.75   1
   0  -3  10 5006.84 1271.10   1
   0   3 -10 6139.23 1072.19   1
   0   3 -10 5516.75 1590.80   1
   0   3 -10 5436.44 1595.17   1
   0   3 -10 5738.92 1280.65   1
   0  -3  11   49.80   28.47   1
   0   3 -11   43.38   31.99   1
   0  -3  11   22.65   37.35   1
   0  -3  11   20.63   32.22   1
   0   3 -11   39.59   35.62   1
   0   3 -11   37.25   35.37   1
   0   3 -11   47.82   44.51   1
   0  -3  12  176.67   55.25   1
   0   3 -12  191.04   59.04   1
   0  -3  12  193.72   93.48   1
   0   3 -12  177.40   69.26   1
   0   3 -12  199.73   87.68   1
   0  -3  13  418.08  173.48   1
   0  -3  13  410.62  170.86   1
   0   3 -13  451.05  119.46   1
   0   3 -13  459.90  165.72   1
   0   3 -13  502.23  188.18   1
   0  -3  14   97.42   66.93   1
   0  -3  14   76.37   94.22   1
   0   3 -14   59.28   57.06   1
   0   3 -14  106.11   65.35   1
   0   3 -14  100.95  116.89   1
   0  -3  15  691.64  272.32   1
   0  -3  15  757.41  256.47   1
   0   3 -15  823.48  184.74   1
   0   3 -15  964.94  279.39   1
   0  -3  16    4.15   45.90   1
   0   3 -16    2.71   44.00   1
   0  -3  16   -2.82   44.02   1
   0   3 -16   16.32   45.79   1
   0   3 -16   11.22   38.00   1
   0  -3  17  480.07  191.80   1
   0   3 -17  379.56  122.66   1
   0   3 -17  458.74  191.75   1
   0  -2   1 1206.75  414.92   1
   0  -2   1 1324.06  355.40   1
   0   2  -1 1589.21  281.98   1
   0   2  -1 1441.95  421.02   1
   0   2  -1 1383.28  419.65   1
   0   2  -1 1388.22  357.26   1
   0   2  -1 1462.04  358.27   1
   0  -2   216995.73 2963.31   1
   0   2  -212891.65 2963.16   1
   0   2  -216144.74 3579.34   1
   0  -2   218959.45 4793.96   1
   0  -2   226772.00 3703.17   1
   0   2  -215850.51 4793.33   1
   0  -2   3 5354.72 2110.30   1
   0  -2   3 6978.96 2106.02   1
   0  -2   310735.11 1657.76   1
   0   2  -3 6628.70 2110.81   1
   0   2  -312334.35 1648.44   1
   0  -2   449182.36 7726.07   1
   0  -2   434753.9910297.57   1
   0  -2   444855.8110293.89   1
   0   2  -428778.80 6901.68   1
   0   2  -426705.6810292.20   1
   0   2  -441227.2810297.86   1
   0   2  -442219.72 7902.45   1
   0  -2   5 5500.79  756.93   1
   0  -2   5 3078.04 1042.46   1
   0   2  -5 3606.62  701.09   1
   0   2  -5 3913.34 1037.78   1
   0   2  -5 2980.74 1043.78   1
   0  -2   6  657.42  138.54   1
   0  -2   6 1092.76  167.20   1
   0  -2   6  548.23  182.19   1
   0  -2   6  648.66  250.93   1
   0   2  -6  777.72  170.93   1
   0   2  -6  743.34  250.89   1
   0   2  -6  732.15  256.79   1
   0   2  -6 1992.39  243.65   1
   0  -2   727887.89 5771.44   1
   0  -2   727141.11 5170.67   1
   0  -2   726402.02 7705.87   1
   0  -2   727637.79 7696.33   1
   0   2  -726884.11 5163.85   1
   0   2  -728013.23 7695.28   1
   0   2  -728709.93 7703.37   1
   0   2  -727295.72 5932.74   1
   0  -2   8   45.17   38.36   1
   0  -2   8   58.05   42.09   1
   0  -2   8   45.07   37.54   1
   0  -2   8  139.20   63.58   1
   0   2  -8   80.27   32.18   1
   0   2  -8   48.40   36.53   1
   0   2  -8   33.51   40.06   1
   0  -2   9  719.68   12.77   1
   0  -2   9  959.33  190.53   1
   0  -2   9  960.73  288.47   1
   0  -2   9  844.88  281.99   1
   0   2  -9 1035.12  196.07   1
   0   2  -9  886.58  281.76   1
   0   2  -9  845.67  286.98   1
   0   2  -9 1061.25  269.84   1
   0  -2  10 2644.92  659.01   1
   0  -2  10 3345.07  971.68   1
   0  -2  10 3200.10  964.46   1
   0  -2  10 3180.92  782.65   1
   0  -2  10 2733.21  797.69   1
   0   2 -10 3639.23  652.59   1
   0   2 -10 3893.38  966.85   1
   0   2 -10 3186.31  971.73   1
   0   2 -10 3753.82  802.37   1
   0  -2  11  696.56  133.35   1
   0   2 -11 1048.50  140.45   1
   0  -2  11  131.86  150.58   1
   0  -2  11  683.48  211.87   1
   0  -2  11  334.07  200.33   1
   0  -2  11 1002.64  217.67   1
   0   2 -11  929.27  144.91   1
   0   2 -11  711.31  205.25   1
   0   2 -11  480.14  208.64   1
   0  -2  12  197.95  111.36   1
   0  -2  12   33.70   98.91   1
   0  -2  12  629.24  127.05   1
   0   2 -12  270.81   76.64   1
   0   2 -12  390.50  106.41   1
   0   2 -12   65.46  106.14   1
   0   2 -12  795.63  146.46   1
   0  -2  13 8233.26 2396.32   1
   0  -2  13 7661.83 1875.59   1
   0   2 -13 8772.22 1604.37   1
   0   2 -13 8844.54 2390.64   1
   0   2 -13 8016.20 1891.71   1
   0  -2  14 1609.58  353.52   1
   0   2 -14 1747.85  354.34   1
   0  -2  14 1565.42  517.62   1
   0   2 -14 1777.55  347.70   1
   0   2 -14 1697.74  514.35   1
   0  -2  15  126.09   47.65   1
   0   2 -15  131.03   49.93   1
   0  -2  15   21.05   60.30   1
   0   2 -15   52.73   49.31   1
   0   2 -15   -3.13   53.33   1
   0  -2  16  691.02  262.63   1
   0  -2  16  934.35  239.33   1
   0   2 -16 1123.82  171.10   1
   0   2 -16   12.65  254.29   1
   0   2 -16 1029.28  246.98   1
   0  -2  17 4702.17 1066.92   1
   0   2 -17 4361.96 1076.05   1
   0  -1   1 5617.22 2095.65   1
   0  -1   1 8827.53 2091.17   1
   0   1  -1 7676.72 2099.17   1
   0   1  -1 6280.39 2092.25   1
   0   1  -110437.17 1643.95   1
   0  -1   2 5749.72 2044.19   1
   0  -1   2 5877.92 2039.62   1
   0  -1   2 7339.11 1593.31   1
   0   1  -2 8375.69 1368.24   1
   0   1  -2 8240.55 2046.82   1
   0   1  -2 7931.82 2041.22   1
   0   1  -2 8348.28 1600.03   1
   0  -1   328932.76 3231.44   1
   0  -1   3 9713.60 4821.60   1
   0  -1   315659.43 4817.58   1
   0  -1   330536.36 3722.40   1
   0   1  -325347.07 3232.94   1
   0   1  -313257.84 4822.44   1
   0   1  -311104.07 4820.39   1
   0   1  -317632.89 3722.19   1
   0  -1   447641.47 5431.56   1
   0  -1   427426.79 8104.48   1
   0  -1   427160.90 8100.44   1
   0  -1   448592.68 6227.81   1
   0   1  -427739.50 5430.90   1
   0   1  -419852.88 8098.93   1
   0   1  -422437.83 8104.61   1
   0   1  -429357.86 6233.91   1
   0  -1   5  591.03  148.59   1
   0  -1   5  736.00  223.09   1
   0  -1   5  684.20  219.37   1
   0  -1   5  729.42  205.59   1
   0   1  -5  572.41  148.53   1
   0   1  -5  631.89  217.93   1
   0   1  -5  791.75  224.63   1
   0   1  -5  701.50  210.01   1
   0  -1   6 9005.81 1583.43   1
   0  -1   6 8523.04 2365.47   1
   0  -1   6 8128.75 2357.91   1
   0  -1   6 8593.01 1850.31   1
   0   1  -6 7819.74 2357.24   1
   0   1  -6 8463.45 2365.06   1
   0   1  -6 9097.86 1856.00   1
   0  -1   7  115.49   42.64   1
   0  -1   7  118.49   59.12   1
   0  -1   7   98.08   53.54   1
   0  -1   7  112.10   65.28   1
   0  -1   7  103.98   72.08   1
   0   1  -7  116.33   40.23   1
   0   1  -7   88.45   52.34   1
   0   1  -7   93.93   56.83   1
   0   1  -7  148.18   73.35   1
   0  -1   813799.93 2699.49   1
   0  -1   814346.08 4028.74   1
   0  -1   814559.90 4021.45   1
   0  -1   815213.18 3112.62   1
   0  -1   815375.14 3124.44   1
   0   1  -814950.43 2699.63   1
   0   1  -814053.89 4019.76   1
   0   1  -813908.71 4026.55   1
   0   1  -813673.99 3130.78   1
   0  -1   9    7.99   31.93   1
   0  -1   9    8.41   21.17   1
   0  -1   9   10.83   21.00   1
   0  -1   9   13.85   38.76   1
   0  -1   9   16.28   48.15   1
   0   1  -9    9.95   25.08   1
   0   1  -9   14.76   20.30   1
   0   1  -9   11.87   26.92   1
   0   1  -9   21.81   42.96   1
   0  -1  1022764.51 4566.09   1
   0  -1  1026944.91 6809.76   1
   0  -1  1021631.21 6799.82   1
   0  -1  1026362.98 5239.65   1
   0  -1  1023222.17 5254.38   1
   0   1 -1024934.02 4564.81   1
   0   1 -1023542.42 6802.68   1
   0   1 -1025519.21 6807.60   1
   0   1 -1027842.93 5255.17   1
   0  -1  11  988.04  265.50   1
   0  -1  11 1446.78  390.45   1
   0  -1  11 1025.64  378.09   1
   0  -1  11 1441.97  338.52   1
   0   1 -11 1346.26  261.01   1
   0   1 -11 1294.10  382.77   1
   0   1 -11 1187.20  385.96   1
   0   1 -11 1503.66  350.23   1
   0  -1  12  953.77  238.44   1
   0  -1  12  488.80  223.02   1
   0  -1  12  861.20  221.08   1
   0   1 -12  831.85  231.93   1
   0   1 -12  450.31  229.05   1
   0   1 -12  760.95  230.78   1
   0  -1  13 3613.52 1083.21   1
   0  -1  13 3576.09  872.05   1
   0   1 -13 3820.93  724.84   1
   0   1 -13 3826.29 1080.39   1
   0   1 -13 3626.90  886.53   1
   0  -1  14  319.28   77.31   1
   0   1 -14  341.89   77.84   1
   0  -1  14  282.11  140.18   1
   0   1 -14  380.90   93.03   1
   0   1 -14  296.89  137.64   1
   0  -1  15  130.50  109.63   1
   0  -1  15  159.68  111.27   1
   0   1 -15  215.13   66.94   1
   0   1 -15  165.21  106.46   1
   0   1 -15  195.43  115.27   1
   0  -1  16  331.76  148.65   1
   0   1 -16  296.30   91.61   1
   0   1 -16  320.71  153.56   1
   0  -1  17  185.97  113.40   1
   0   1 -17  111.40   58.10   1
   0   1 -17  135.26   99.37   1
   0   0   2 6203.23 1041.82   1
   0   0   2 6163.77 1557.85   1
   0   0   2 3608.81 1553.32   1
   0   0   2 7355.31 1219.46   1
   0   0   2 6857.68 1234.18   1
   0   0  -2 5915.69 1041.17   1
   0   0  -2 6077.39 1557.78   1
   0   0  -2 3776.51 1554.68   1
   0   0  -2 6839.11 1235.56   1
   0   0   3 2980.38  609.29   1
   0   0   3 2976.74  912.53   1
   0   0   3 3167.04  908.43   1
   0   0   3 3791.68  727.73   1
   0   0   3 3386.52  741.60   1
   0   0  -3 2866.21  913.34   1
   0   0  -3 3616.18  743.57   1
   0   0   474384.37 7373.97   1
   0   0   467227.11 6588.79   1
   0   0   418535.66 9827.36   1
   0   0   417993.29 9822.56   1
   0   0   442807.51 7534.94   1
   0   0  -426545.52 6587.33   1
   0   0  -432696.27 9822.21   1
   0   0  -435499.38 9829.12   1
   0   0  -457148.30 7552.84   1
   0   0   5 1428.70  298.10   1
   0   0   5 1509.47  290.88   1
   0   0   5 1398.75  434.66   1
   0   0   5 1439.27  428.00   1
   0   0   5 1391.66  362.14   1
   0   0  -5 1339.45  290.14   1
   0   0  -5 1379.31  426.57   1
   0   0  -5 1464.74  434.36   1
   0   0  -5 1680.35  375.62   1
   0   0   6 3552.77  677.72   1
   0   0   6 3283.63  629.21   1
   0   0   6 3210.29  940.87   1
   0   0   6 3368.73  934.41   1
   0   0   6 3242.00  752.00   1
   0   0  -6 3474.94  628.57   1
   0   0  -6 3170.65  931.40   1
   0   0  -6 2949.25  937.51   1
   0   0  -6 3218.86  765.28   1
   0   0   7 1859.76  477.71   1
   0   0   7 2598.00  478.06   1
   0   0  -7 1478.22  477.80   1
   0   0   7 2380.56  451.50   1
   0   0   7 2305.95  672.76   1
   0   0   7 2558.70  668.75   1
   0   0  -7 2383.49  450.65   1
   0   0  -7 2227.30  667.34   1
   0   0  -7 2209.05  672.01   1
   0   0  -829207.13 5317.30   1
   0   0   822114.84 4759.77   1
   0   0   825793.63 7100.18   1
   0   0   826003.38 7094.00   1
   0   0   828917.67 5476.91   1
   0   0  -827241.91 4759.54   1
   0   0  -824717.20 7094.85   1
   0   0  -823855.39 7098.58   1
   0   0   9  287.17   95.14   1
   0   0   9  391.08  133.38   1
   0   0   9  375.95  125.38   1
   0   0   9  375.82  132.41   1
   0   0   9  298.34  142.51   1
   0   0  -9  377.36   90.34   1
   0   0  -9  323.37  127.17   1
   0   0  -9  287.50  131.52   1
   0   0  -9  352.96  141.81   1
   0   0  10  381.84  112.36   1
   0   0  10  496.13  156.26   1
   0   0  10  292.27  146.24   1
   0   0  10  408.18  149.91   1
   0   0  10  429.35  164.94   1
   0   0 -10  427.88  104.46   1
   0   0 -10  440.36  150.32   1
   0   0 -10  445.08  152.39   1
   0   0 -10  481.30  160.13   1
   0   0  11 1835.12  513.64   1
   0   0  11 2797.81  759.88   1
   0   0  11 2372.22  751.67   1
   0   0  11 3419.30  621.74   1
   0   0  11 2234.72  639.07   1
   0   0 -11 2592.45  507.75   1
   0   0 -11 2811.77  755.95   1
   0   0 -11 2229.91  755.11   1
   0   0 -11 3239.17  634.58   1
   0   0  12 4936.00 1292.70   1
   0   0  12 3092.74 1281.05   1
   0   0  12 6374.83 1031.04   1
   0   0 -12 5359.28  863.90   1
   0   0 -12 4872.02 1289.89   1
   0   0 -12 3556.04 1286.21   1
   0   0 -12 5318.25 1042.10   1
   0   0  13  163.02   48.43   1
   0   0 -13  173.22   47.80   1
   0   0  13  139.71   92.32   1
   0   0 -13  218.75   61.15   1
   0   0 -13  118.75   89.68   1
   0   0  14 2390.94  465.62   1
   0   0 -14 1852.47  364.42   1
   0   0 -14 1367.38  545.77   1
   0   0 -14 1967.87  473.65   1
   0   0  15  109.16   42.22   1
   0   0  15   30.35   75.03   1
   0   0 -15   88.83   41.17   1
   0   0 -15   33.14   78.10   1
   0   0 -15   93.70   81.53   1
   0   0  16   81.48   89.62   1
   0   0 -16  107.19   47.77   1
   0   0 -16   72.06   88.70   1
   0   0  17  688.33  157.95   1
   0   0 -17  713.48  169.10   1
   0   0 -17  732.38  238.14   1
   0   1   122116.43 4549.33   1
   0   1   120489.83 6779.74   1
   0   1   114267.73 6788.42   1
   0   1   129660.04 5217.35   1
   0   1   135130.66 5231.61   1
   0  -1  -137372.73 4550.08   1
   0  -1  -121596.59 6784.37   1
   0  -1  -119463.68 6784.45   1
   0  -1  -134213.97 5216.03   1
   0  -1  -142904.98 5232.68   1
   0   1   2 2872.08  583.55   1
   0   1   2 3403.76  701.00   1
   0   1   2 2911.93  714.54   1
   0  -1  -2 2969.97  585.41   1
   0  -1  -2 3312.31  700.55   1
   0  -1  -2 2545.57  713.54   1
   0   1   332036.16 6677.54   1
   0   1   333411.81 5969.68   1
   0   1   330304.14 6835.15   1
   0  -1  -328940.38 5969.54   1
   0  -1  -337140.92 6849.50   1
   0   1   4 2791.85  560.80   1
   0   1   4 2860.39  835.24   1
   0   1   4 2949.35  833.35   1
   0   1   4 2841.19  674.75   1
   0   1   4 2693.48  687.00   1
   0  -1  -4 2873.19  560.25   1
   0  -1  -4 2759.82  829.56   1
   0  -1  -4 3098.81  838.02   1
   0  -1  -4 2952.13  671.73   1
   0  -1  -4 2917.50  688.22   1
   0   1   5 7000.08 1540.65   1
   0  -1  -5 7306.02 1540.42   1
   0   1   5 7311.77 1397.38   1
   0   1   5 7947.77 2085.45   1
   0   1   5 7467.93 2081.42   1
   0   1   5 7000.97 1645.23   1
   0  -1  -5 7390.70 1396.83   1
   0  -1  -5 7058.68 2078.22   1
   0  -1  -5 7586.01 2086.34   1
   0  -1  -5 7094.77 1626.72   1
   0   1   649923.62 7575.62   1
   0   1   650009.32 6770.92   1
   0   1   623554.5610098.05   1
   0   1   632765.4210092.72   1
   0   1   644936.19 7745.41   1
   0  -1  -644619.47 6768.61   1
   0  -1  -627312.5810090.24   1
   0  -1  -634027.2810098.46   1
   0  -1  -653673.12 7761.28   1
   0   1   7  611.31  124.81   1
   0   1   7  560.27  125.21   1
   0  -1  -7  622.29  124.92   1
   0   1   7  618.01  136.76   1
   0   1   7  594.85  201.63   1
   0   1   7  583.95  198.35   1
   0  -1  -7  630.79  135.08   1
   0  -1  -7  570.55  197.44   1
   0  -1  -7  586.32  201.91   1
   0   1   8 3319.13  620.99   1
   0   1   8 3190.34  924.68   1
   0   1   8 3153.87  921.89   1
   0   1   8 3224.65  745.37   1
   0   1   8 3267.41  761.38   1
   0  -1  -8 3147.51  619.52   1
   0  -1  -8 3213.69  921.47   1
   0  -1  -8 3108.53  925.06   1
   0  -1  -8 3079.40  758.42   1
   0   1   9 3787.07 1074.16   1
   0   1   9 3778.33  859.68   1
   0   1   9 3876.61  877.11   1
   0  -1  -9 3831.24  718.34   1
   0  -1  -9 3770.20 1071.43   1
   0  -1  -9 3370.75 1072.60   1
   0  -1  -9 3759.86  872.36   1
   0   1  10 4232.78  559.37   1
   0   1  10 5573.87 1088.10   1
   0  -1 -10 4227.12 1087.55   1
   0   1  10 6266.57 1492.17   1
   0   1  10 4844.52 1481.66   1
   0   1  10 4533.52 1198.53   1
   0  -1 -10 5448.49  995.54   1
   0  -1 -10 6031.47 1488.63   1
   0  -1 -10 4765.03 1485.89   1
   0   1  11 4735.78 1177.61   1
   0   1  11 3677.07 1170.56   1
   0   1  11 4069.31  938.81   1
   0  -1 -11 4285.54  786.48   1
   0  -1 -11 4038.84 1171.00   1
   0  -1 -11 3645.71 1171.26   1
   0  -1 -11 4433.50  951.03   1
   0   1  12 3191.89  897.32   1
   0   1  12 2329.81  888.42   1
   0   1  12 3892.60  726.32   1
   0  -1 -12 3479.67  597.81   1
   0  -1 -12 3372.27  897.85   1
   0  -1 -12 2487.42  892.00   1
   0  -1 -12 3577.61  735.45   1
   0   1  13  227.20   62.25   1
   0  -1 -13  247.27   61.68   1
   0  -1 -13  264.81   74.92   1
   0   1  14 4318.04  930.32   1
   0  -1 -14 4576.31  930.65   1
   0  -1 -14 4434.65  858.77   1
   0   1  15  970.01  247.49   1
   0  -1 -15 1173.80  247.98   1
   0  -1 -15 1290.06  251.14   1
   0   1  16  576.32  224.08   1
   0  -1 -16  752.08  161.63   1
   0  -1 -16  694.38  233.85   1
   0   1  17  440.95  187.65   1
   0  -1 -17  667.31  135.28   1
   0  -1 -17  316.33  191.20   1
   0   2   0  179.49   74.31   1
   0   2   0  172.69   79.19   1
   0   2   0  184.81   85.04   1
   0  -2   0  167.12   77.27   1
   0  -2   0  182.43   75.52   1
   0  -2   0  175.57   83.62   1
   0   2   114004.45 2404.86   1
   0   2   114002.47 2166.66   1
   0   2   1 9353.54 3223.87   1
   0   2   1 8734.40 3233.49   1
   0   2   114879.62 2518.92   1
   0  -2  -114080.28 2166.17   1
   0  -2  -112536.46 3235.07   1
   0  -2  -1 8660.22 3228.86   1
   0  -2  -115081.92 2506.80   1
   0  -2  -114520.06 2518.34   1
   0   2   247361.38 8662.00   1
   0   2   233093.5812917.40   1
   0   2   270899.30 9900.01   1
   0   2   290363.54 9918.75   1
   0  -2  -260334.66 8661.65   1
   0  -2  -220828.5612920.81   1
   0  -2  -230541.4512914.97   1
   0  -2  -277458.90 9900.96   1
   0  -2  -276268.18 9913.92   1
   0   2   3 8811.39 2336.94   1
   0   2   314820.72 2697.52   1
   0   2   316821.17 2716.59   1
   0  -2  -3 9151.85 2337.91   1
   0  -2  -314576.54 2701.03   1
   0  -2  -315798.77 2714.21   1
   0   2   441449.64 8155.13   1
   0   2   436892.77 8154.55   1
   0  -2  -437522.76 8154.93   1
   0  -2  -437862.24 8154.56   1
   0   2   437279.67 7285.04   1
   0  -2  -441465.77 7285.01   1
   0   2   512267.24 2440.09   1
   0  -2  -511070.30 2440.08   1
   0  -2  -511475.07 2439.68   1
   0   2   511328.00 2197.99   1
   0   2   513754.01 2564.06   1
   0  -2  -511165.25 2199.30   1
   0   2   626582.19 5756.60   1
   0  -2  -626394.81 5756.38   1
   0   2   628501.78 5919.92   1
   0  -2  -627716.44 5151.91   1
   0  -2  -628107.70 5901.25   1
   0   2   7  766.02   10.64   1
   0  -2  -7  728.62  168.68   1
   0   2   7  808.09  232.68   1
   0   2   7  899.77  248.84   1
   0  -2  -7  828.54  176.52   1
   0  -2  -7  818.51  231.95   1
   0   2   8  837.32  161.78   1
   0  -2  -8  792.90  161.66   1
   0   2   8  710.75  171.98   1
   0   2   8  692.98  241.97   1
   0  -2  -8  796.03  169.96   1
   0  -2  -9  596.65  103.03   1
   0   2   9  306.80  117.57   1
   0   2   9  587.30  162.63   1
   0   2   9  424.22  180.46   1
   0  -2  -9  503.42  115.54   1
   0   2  10 7824.90 1710.45   1
   0   2  1010725.36 1986.35   1
   0   2  10 7518.62 2009.99   1
   0  -2 -1010046.23 1709.65   1
   0  -2 -10 8164.79 1998.24   1
   0  -2 -11 3843.41  408.42   1
   0   2  11 4456.39  970.52   1
   0  -2 -11 4596.16  984.57   1
   0   2  12 1810.30  445.00   1
   0  -2 -12 1599.51  354.76   1
   0  -2 -12 1934.21  458.01   1
   0  -2 -13 1240.39  267.60   1
   0   2  13 1193.21  342.76   1
   0  -2 -13 1320.37  266.00   1
   0   2  14 2423.65  581.34   1
   0  -2 -14 2393.08  473.11   1
   0  -2 -14 2269.13  594.52   1
   0   2  15   49.09   77.95   1
   0  -2 -15   99.73   43.29   1
   0  -2 -15   67.57   79.67   1
   0   2  16   88.80  107.78   1
   0  -2 -16  273.63   76.33   1
   0  -3   0  316.85   68.57   1
   0   3   0  250.70  119.18   1
   0   3   0  273.27  125.27   1
   0   3   0  295.14  127.76   1
   0  -3   0  274.53  125.39   1
   0  -3   0  561.34  122.25   1
   0  -3   0  268.95  124.42   1
   0   3   1 1897.93  523.08   1
   0  -3  -1 2635.30  523.63   1
   0   3   1 2660.85  492.14   1
   0   3   1 2338.09  726.73   1
   0   3   1 2653.92  735.15   1
   0   3   1 2773.59  599.79   1
   0  -3  -1 2717.84  490.47   1
   0  -3  -1 2520.80  735.32   1
   0  -3  -1 2420.24  728.62   1
   0  -3  -1 2448.97  602.83   1
   0   3   214305.42 2323.27   1
   0   3   211712.37 3459.53   1
   0   3   212853.45 3465.99   1
   0   3   213542.04 2686.62   1
   0   3   214259.34 2697.34   1
   0  -3  -214432.20 2322.57   1
   0  -3  -213314.34 3466.31   1
   0  -3  -2 7475.06 3460.50   1
   0  -3  -214111.53 2681.62   1
   0  -3  -213551.07 2697.93   1
   0   3   315695.18 3063.89   1
   0   3   318206.02 3525.19   1
   0   3   318656.29 3540.08   1
   0  -3  -315578.98 3063.49   1
   0  -3  -315830.35 3526.10   1
   0  -3  -314629.59 3539.63   1
   0   3   412259.89 2242.94   1
   0   3   411706.58 2592.60   1
   0   3   412001.85 2609.42   1
   0  -3  -411508.85 2593.90   1
   0  -3  -411864.62 2610.64   1
   0   3   529374.40 5334.08   1
   0   3   528444.09 6109.56   1
   0   3   527030.86 6129.10   1
   0  -3  -529571.63 5334.04   1
   0  -3  -528561.35 6111.77   1
   0  -3  -525999.07 6125.29   1
   0   3   6  509.38  120.43   1
   0   3   6  508.18  163.80   1
   0   3   6  487.11  180.69   1
   0  -3  -6  476.29  120.42   1
   0  -3  -6  518.36  168.47   1
   0  -3  -6  562.75  175.57   1
   0  -3  -714052.81 2920.65   1
   0   3   715032.35 2628.52   1
   0   3   712762.94 3026.10   1
   0   3   711974.66 3048.17   1
   0  -3  -714073.65 2626.75   1
   0  -3  -715019.41 3036.03   1
   0   3   8  419.91   91.48   1
   0  -3  -8  356.17   88.54   1
   0   3   8  410.07  105.99   1
   0   3   8  424.53  144.10   1
   0  -3  -8  459.44  103.73   1
   0  -3  -8  378.92  155.42   1
   0   3   9 2654.16  580.86   1
   0  -3  -9 3096.32  177.64   1
   0   3   9 2601.70  547.84   1
   0   3   9 2834.12  682.64   1
   0  -3  -9 2489.29  659.48   1
   0  -3  -9 2867.00  669.63   1
   0   3  10  530.85  109.00   1
   0  -3 -10  476.10  120.45   1
   0  -3 -10  528.82  179.52   1
   0   3  11   11.14   48.42   1
   0  -3 -11   13.39   24.51   1
   0  -3 -11    7.84   47.24   1
   0   3  12  757.17  160.25   1
   0  -3 -12  715.55  160.07   1
   0  -3 -12  759.77  168.53   1
   0   3  13  382.51   82.06   1
   0  -3 -13  316.09   81.16   1
   0  -3 -13  366.74   96.19   1
   0   3  14  122.40   94.66   1
   0  -3 -14  142.21   55.10   1
   0  -3 -14  133.45   92.59   1
   0   3  15  372.16  147.31   1
   0  -3 -15  327.46  151.86   1
   0   3  16 2845.30  681.78   1
   0  -3 -16 2937.93  563.35   1
   0  -3 -16 2679.02  696.53   1
   0  -4   0  287.33   65.93   1
   0   4   0  385.67   81.12   1
   0   4   0  269.33  113.99   1
   0   4   0  325.13  120.96   1
   0   4   0  371.09  121.50   1
   0   4   0  364.39  127.22   1
   0  -4   0  366.77  122.46   1
   0  -4   0  272.53  115.04   1
   0  -4   0  247.63  123.01   1
   0   4   1 1277.58  256.13   1
   0   4   1 1094.36  375.94   1
   0   4   1  945.31  381.82   1
   0   4   1 2074.20  327.49   1
   0   4   1 1387.34  336.75   1
   0  -4  -1 1179.31  254.18   1
   0  -4  -1 1160.11  379.30   1
   0  -4  -1 1134.35  374.60   1
   0  -4  -1 1190.87  326.94   1
   0  -4  -1 2101.13  337.16   1
   0   4   211453.44 2075.18   1
   0   4   210684.01 3089.77   1
   0   4   210955.14 3093.70   1
   0   4   211259.16 2403.06   1
   0   4   210972.38 2413.60   1
   0  -4  -211160.94 3096.35   1
   0  -4  -210883.61 3089.05   1
   0  -4  -211857.94 2398.70   1
   0  -4  -2 9999.70 2407.46   1
   0   4   3   83.08    4.85   1
   0   4   3   84.50   24.68   1
   0  -4  -3   77.32    4.98   1
   0  -4  -3   68.31   25.24   1
   0   4   3   70.84   47.12   1
   0   4   3   86.21   49.07   1
   0   4   3  120.82   58.37   1
   0  -4  -3   77.73   49.67   1
   0  -4  -3   85.55   45.95   1
   0  -4  -3   83.70   62.83   1
   0   4   4  817.07  201.33   1
   0   4   4 1073.18  263.08   1
   0   4   4 1036.36  274.12   1
   0  -4  -4  829.61  200.80   1
   0  -4  -4  942.80  264.14   1
   0  -4  -4 1201.67  275.94   1
   0   4   5 5137.59  650.08   1
   0   4   5 5930.32 1270.23   1
   0   4   5 5871.73 1288.96   1
   0  -4  -5 5548.09 1082.69   1
   0  -4  -5 5879.45 1274.60   1
   0  -4  -5 6079.10 1285.72   1
   0   4   6  882.67   12.20   1
   0   4   6 1032.83  211.60   1
   0  -4  -6 1109.08  212.15   1
   0   4   6 1111.85  297.05   1
   0  -4  -6 1046.65  214.33   1
   0  -4  -6  927.02  280.39   1
   0   4   7  462.73  106.94   1
   0  -4  -7 1041.12  111.17   1
   0   4   7  144.02  115.42   1
   0   4   7  274.75  179.48   1
   0  -4  -7  724.52  118.49   1
   0  -4  -7  250.93  165.13   1
   0   4   823890.58 4730.99   1
   0   4   824780.10 5421.23   1
   0   4   821956.78 5445.75   1
   0  -4  -827227.82 4727.51   1
   0  -4  -823513.57 5426.48   1
   0  -4  -828851.07 5437.02   1
   0   4   9 4032.01  844.98   1
   0   4  10 1654.62  334.48   1
   0  -4 -10  853.11  258.21   1
   0  -4 -10 1458.67  346.28   1
   0   4  11   56.56   71.64   1
   0  -4 -11   55.33   38.29   1
   0  -4 -11   58.54   72.69   1
   0   4  12 1857.70  557.19   1
   0  -4 -12 2741.97  557.20   1
   0  -4 -12 3115.01  523.72   1
   0   4  13 1208.60  301.34   1
   0  -4 -13 1011.00  230.41   1
   0  -4 -13 1017.40  311.62   1
   0   4  14 2625.72  688.02   1
   0  -4 -14 3263.66  571.15   1
   0  -4 -14 2553.62  701.93   1
   0   4  15    7.45   31.66   1
   0  -4 -15    5.67   35.12   1
   0  -4 -15   21.82   28.18   1
   0  -5   0   38.43    5.83   1
   0   5   0   60.38   30.03   1
   0   5   0   39.92   32.79   1
   0   5   0   36.68   35.23   1
   0   5   0   30.64   46.05   1
   0   5   0   31.50   51.74   1
   0  -5   0   69.85   35.09   1
   0  -5   0   38.24   32.36   1
   0  -5   0   32.41   50.77   1
   0  -5   0   54.72   51.99   1
   0  -5  -1  978.33  170.15   1
   0   5   1  918.42  176.18   1
   0   5   1  727.50  256.53   1
   0   5   1  678.79  259.77   1
   0   5   1  748.50  232.69   1
   0   5   1  901.31  242.71   1
   0  -5  -1  790.31  173.90   1
   0  -5  -1  805.25  262.79   1
   0  -5  -1  864.99  256.44   1
   0  -5  -1  885.52  233.88   1
   0   5   2  507.31   99.32   1
   0   5   2  475.93  112.96   1
   0   5   2  471.42  163.52   1
   0   5   2  459.25  165.51   1
   0   5   2  481.42  165.99   1
   0  -5  -2  444.81  111.90   1
   0  -5  -2  457.80  167.33   1
   0  -5  -2  503.02  161.27   1
   0  -5  -2  424.46  156.73   1
   0  -5  -2  444.63  164.83   1
   0  -5  -3 3897.65  407.55   1
   0   5   3 3860.71  773.37   1
   0   5   3 3891.09 1151.40   1
   0   5   3 4131.91 1152.36   1
   0   5   3 4043.88  918.71   1
   0   5   3 4072.46  934.02   1
   0  -5  -3 4142.29 1156.12   1
   0  -5  -3 3866.00 1146.89   1
   0  -5  -3 4040.46  919.63   1
   0  -5  -3 4407.24  924.22   1
   0   5   4 3033.27  586.95   1
   0   5   4 2949.03  705.90   1
   0   5   4 3123.63  717.59   1
   0  -5  -4 2944.56  585.46   1
   0  -5  -4 3080.52  707.42   1
   0  -5  -4 2938.96  714.33   1
   0   5   5 3535.38  668.66   1
   0   5   5 3326.20  798.13   1
   0   5   5 3292.07  816.54   1
   0  -5  -5 3483.51  666.28   1
   0  -5  -5 3270.66  802.85   1
   0  -5  -5 3624.28  810.35   1
   0  -5  -6 6029.78 1234.57   1
   0   5   6 5650.85 1127.14   1
   0   5   6 5746.74 1340.93   1
   0  -5  -6 5948.14 1124.62   1
   0  -5  -6 6199.80 1326.12   1
   0   5   7   11.91   20.17   1
   0   5   7   15.85   31.84   1
   0   5   7   -0.17   54.94   1
   0  -5  -7   21.34   28.02   1
   0  -5  -7   27.85   50.89   1
   0  -5  -7   -7.37   51.38   1
   0   5   8   18.82   51.98   1
   0  -5  -8   18.97   29.49   1
   0  -5  -8   27.17   55.55   1
   0   5   9  213.55  100.66   1
   0  -5  -9  200.68   65.85   1
   0  -5  -9  190.01  109.66   1
   0   5  10 9268.98 2291.38   1
   0  -5 -1011694.43 2067.79   1
   0  -5 -1011724.23 2409.78   1
   0   5  11   78.80   70.38   1
   0  -5 -11   68.05   42.22   1
   0  -5 -11   48.54   75.21   1
   0   5  12   30.57   31.90   1
   0  -5 -12   -2.19   33.99   1
   0  -5 -12   44.25   63.87   1
   0   5  13 3002.83  727.89   1
   0  -5 -13 3170.94  607.53   1
   0  -5 -13 3073.20  746.23   1
   0   5  14   -7.20   31.87   1
   0  -5 -14    8.33   35.69   1
   0  -5 -14    8.38   33.14   1
   0   6   011246.42 1933.43   1
   0   6   0 9705.29 2878.66   1
   0   6   011920.10 2883.44   1
   0   6   010637.34 2236.14   1
   0   6   010001.63 2253.85   1
   0  -6   0 7494.13 1937.40   1
   0  -6   0 8094.96 2885.15   1
   0  -6   011457.35 2878.99   1
   0  -6   0 9709.59 2240.23   1
   0  -6   011158.27 2247.25   1
   0   6   1 3461.55  954.14   1
   0   6   1 3122.78  957.28   1
   0   6   1 3557.19  772.06   1
   0   6   1 3539.78  782.24   1
   0  -6  -1 2846.22  645.39   1
   0  -6  -1 3389.91  960.68   1
   0  -6  -1 3395.00  952.30   1
   0  -6  -1 3081.91  770.64   1
   0  -6  -1 3301.22  776.24   1
   0  -6  -2 1870.39  545.97   1
   0   6   2 2771.70  513.41   1
   0   6   2 2662.97  763.25   1
   0   6   2 2171.28  765.43   1
   0   6   2 3667.24  622.29   1
   0   6   2 2415.68  633.45   1
   0  -6  -2 2716.69  510.77   1
   0  -6  -2 2630.25  766.42   1
   0  -6  -2 2347.60  757.08   1
   0  -6  -2 3582.78  633.64   1
   0   6   3 1815.14  382.33   1
   0   6   3 1898.47  566.41   1
   0   6   3 1960.16  569.44   1
   0   6   3 2019.37  469.64   1
   0   6   3 1776.66  486.57   1
   0  -6  -3 1949.94  571.77   1
   0  -6  -3 1889.82  564.80   1
   0  -6  -3 1778.21  473.94   1
   0  -6  -3 1953.24  480.72   1
   0   6   4  162.64   65.29   1
   0   6   4  253.57   98.30   1
   0   6   4  161.63  106.87   1
   0  -6  -4  235.63   65.67   1
   0  -6  -4  124.59  102.11   1
   0  -6  -4  273.25  102.96   1
   0  -6  -5 2991.36  272.77   1
   0   6   5 2753.49  623.65   1
   0   6   5 3925.11  748.38   1
   0   6   5 2605.75  765.99   1
   0  -6  -5 2945.03  754.11   1
   0  -6  -5 4153.95  756.60   1
   0   6   6 5243.11 1128.39   1
   0  -6  -6 5434.22 1128.84   1
   0  -6  -6 5452.11 1030.80   1
   0   6   7 3051.40  631.58   1
   0  -6  -7 2835.00  632.40   1
   0  -6  -7 3070.77  588.73   1
   0   6   8   70.43   70.68   1
   0  -6  -8   95.70   46.76   1
   0  -6  -8   94.70   78.81   1
   0   6   9  456.47  151.58   1
   0  -6  -9  379.15  104.44   1
   0  -6  -9  389.92  160.37   1
   0   6  10    3.91   56.84   1
   0  -6 -10   10.17   35.49   1
   0  -6 -10   16.07   58.47   1
   0   6  11   28.64   67.12   1
   0  -6 -11   35.37   41.86   1
   0  -6 -11   48.94   71.15   1
   0   6  12  215.26  112.33   1
   0  -6 -12  230.38   73.78   1
   0  -6 -12  203.85  120.54   1
   0   6  13  147.40   90.00   1
   0  -6 -13  122.20   58.50   1
   0  -6 -13  174.34  103.82   1
   0   7   010980.33 2445.51   1
   0   7   014488.07 3646.15   1
   0   7   014768.18 3648.88   1
   0   7   013907.28 2823.35   1
   0   7   010071.45 2835.11   1
   0  -7   013174.14 2449.58   1
   0  -7   014701.76 3654.33   1
   0  -7   012811.24 3641.62   1
   0  -7   0 7613.81 2821.75   1
   0  -7   012882.36 2830.54   1
   0   7   1  126.19   64.68   1
   0   7   1  262.01   92.91   1
   0   7   1  173.59   92.04   1
   0   7   1  224.92   95.35   1
   0   7   1  192.93  107.73   1
   0  -7  -1  190.03   72.27   1
   0  -7  -1  270.20   96.57   1
   0  -7  -1  173.95   86.15   1
   0  -7  -1  137.69  100.47   1
   0  -7  -1  317.17  104.64   1
   0  -7  -2 3697.73  751.85   1
   0   7   2 2972.54  695.90   1
   0   7   2 4202.53 1041.69   1
   0   7   2 3350.89 1037.87   1
   0   7   2 4004.26  834.03   1
   0   7   2 2808.52  842.80   1
   0  -7  -2 4266.33  701.06   1
   0  -7  -2 4476.04 1044.70   1
   0  -7  -2 3354.24 1031.01   1
   0  -7  -2 2336.82  828.38   1
   0  -7  -3 4014.85  857.59   1
   0   7   3 3116.22  790.70   1
   0   7   3 4687.72 1178.96   1
   0   7   3 4154.63 1179.79   1
   0   7   3 4236.09  938.32   1
   0   7   3 3330.53  955.85   1
   0  -7  -3 4397.90  788.96   1
   0   7   415365.05 3521.38   1
   0  -7  -416975.89 3059.45   1
   0  -7  -416124.39 3536.48   1
   0   7   5  306.86  116.29   1
   0  -7  -5  270.09   81.28   1
   0  -7  -5  281.76  128.68   1
   0   7   6 1221.27  335.25   1
   0  -7  -6 1318.56  263.81   1
   0  -7  -6 1216.74  345.22   1
   0   7   7 5285.38 1118.29   1
   0  -7  -7 4831.44  946.10   1
   0  -7  -7 4705.35 1127.43   1
   0   7   8   59.96   25.71   1
   0  -7  -8   57.34   35.89   1
   0  -7  -8   42.90   39.06   1
   0   7   9 1044.69  294.03   1
   0  -7  -9 1090.70  227.58   1
   0  -7  -9 1046.50  306.34   1
   0   7  10   52.03   27.73   1
   0  -7 -10   76.16   39.01   1
   0  -7 -10   55.18   42.32   1
   0   7  11  972.09  274.49   1
   0  -7 -11  828.91  210.89   1
   0  -7 -11 1263.03  291.84   1
   0   7  12  457.37  142.92   1
   0  -7 -12  285.26  100.47   1
   0  -7 -12  435.83  159.32   1
   0   8   0 8282.29 1962.96   1
   0   8   0 5868.60 1961.04   1
   0   8   0 7234.04 1540.66   1
   0  -8   0 8599.89 1966.96   1
   0  -8   0 5427.27 1952.33   1
   0  -8   0 7227.59 1543.00   1
   0   8   1 1997.56  509.05   1
   0   8   1 1344.62  506.60   1
   0   8   1 1815.23  420.81   1
   0  -8  -1 1885.45  346.15   1
   0  -8  -1 1902.40  511.62   1
   0  -8  -1 1245.15  498.07   1
   0  -8  -1 2091.98  431.10   1
   0   8   2 2211.70  598.88   1
   0   8   2 1618.47  595.29   1
   0   8   2 1933.40  488.98   1
   0  -8  -2 2068.90  407.85   1
   0  -8  -2 2491.08  603.94   1
   0  -8  -2 1637.98  590.25   1
   0  -8  -2 2379.29  499.87   1
   0   8   3    7.94   77.60   1
   0   8   3   42.62   70.25   1
   0   8   3  486.74   93.69   1
   0  -8  -3  146.64   62.06   1
   0  -8  -3   98.49   76.59   1
   0  -8  -3   66.48   69.42   1
   0  -8  -3  413.60  100.47   1
   0   8   4 1628.28  425.12   1
   0  -8  -4 1696.32  342.27   1
   0  -8  -4 1630.31  433.33   1
   0   8   516078.98 3463.40   1
   0  -8  -516223.20 3006.20   1
   0  -8  -515406.78 3476.04   1
   0   8   6  515.75  176.09   1
   0  -8  -6  538.29  128.81   1
   0  -8  -6  489.74  189.79   1
   0   8   7  108.74   79.58   1
   0  -8  -7  109.07   55.14   1
   0  -8  -7  138.20   94.57   1
   0   8   8  372.70   81.23   1
   0  -8  -8  285.94   85.63   1
   0  -8  -8  392.84  100.13   1
   0   8   9 1991.16  435.07   1
   0  -8  -9 2248.28  437.15   1
   0  -8  -9 2027.86  416.24   1
   0   8  10 1656.76  367.13   1
   0  -8 -10 1083.58  290.88   1
   0  -8 -10 1647.07  382.75   1
   0  -8 -11   66.80   49.53   1
   0   9   0    6.67   30.84   1
   0   9   0   28.71   64.93   1
   0  -9   0    2.08   33.59   1
   0   9   1 2817.60  834.81   1
   0   9   1 2935.27  673.90   1
   0  -9  -1 2788.22  838.37   1
   0  -9  -1 2712.98  675.74   1
   0   9   2 5238.11 1247.09   1
   0  -9  -2 5383.99 1247.74   1
   0   9   2 5980.22 1704.98   1
   0  -9  -2 5719.28 1147.53   1
   0  -9  -2 6926.90 1709.40   1
   0   9   3  311.05   58.19   1
   0  -9  -3  335.35   63.65   1
   0   9   3  118.32  109.72   1
   0  -9  -3  271.52   85.25   1
   0  -9  -3  231.18  111.89   1
   0   9   4 1403.52  366.22   1
   0  -9  -4 1352.74  301.78   1
   0  -9  -4 1391.17  373.27   1
   0   9   5   15.98   29.55   1
   0  -9  -5   19.04   55.17   1
   0   9   6 1400.32  301.89   1
   0  -9  -6 1459.04  303.59   1
   0   9   7  196.41  110.77   1
   0  -9  -7  229.61   83.20   1
   0  -9  -7  181.81  119.69   1
   0   9   8 1683.77  397.44   1
   0  -9  -8 2080.78  387.84   1
   0  -9  -8 1802.28  487.37   1
   0   9   9  408.82  118.41   1
   0  -9  -9  472.47  123.60   1
   0  -9  -9  679.59  142.43   1
   0  10   0   88.81   84.03   1
   0  10   0  204.33  100.44   1
   0 -10   0  123.07   89.65   1
   0  10   1 1637.23  533.74   1
   0  10   1 2187.70  446.42   1
   0 -10  -1 1506.07  537.88   1
   0  10   2   18.54   52.09   1
   0  10   2   -5.48   69.87   1
   0 -10  -2    9.36   50.41   1
   0  10   3  390.12  155.08   1
   0 -10  -3  413.55  128.46   1
   0 -10  -3  431.47  164.81   1
   0  10   4  499.98  178.77   1
   0 -10  -4  584.24  146.33   1
   0 -10  -4  495.04  186.15   1
   0 -10  -5  744.22  143.09   1
   0  10   5  767.24  206.44   1
   0 -10  -5  372.05  165.59   1
   0  10   6   -7.59   78.26   1
   0 -10  -6   54.49   94.16   1
   0 -10  -6  -21.51   72.43   1
   0  10   7  184.32   61.84   1
   0 -10  -7  199.06  120.39   1
   0 -10  -7  136.57  113.62   1
   0  11   0  191.08  116.63   1
   0  11   1 2467.98  608.39   1
   0  11   2  349.93  149.77   1
   0  11   3   54.98   79.56   1
   0  11   4 1558.26  335.26   1
   0 -11  -4 1596.67  336.46   1
  -1  12  -1   58.02  115.45   1
  -1  12  -2  874.79  295.66   1
  -1  12  -3  204.46  134.31   1
  -1  12  -4   93.20  138.35   1
  -1  12  -5  414.97  112.38   1
  -1  12  -6 3301.02  681.93   1
  -1  12  -6 3005.51  818.33   1
   1 -11   0   -2.90  100.62   1
  -1  11   0  207.16  102.32   1
  -1  11   0  378.23  114.05   1
  -1  11  -1 6514.86 1160.58   1
   1 -11   1  -12.47 1591.07   1
  -1  11  -1 9965.20 1597.20   1
   1 -11   2    6.78  469.91   1
  -1  11  -2 2200.18  470.62   1
  -1  11  -2 2542.61  408.81   1
   1 -11   3  -17.36  176.03   1
  -1  11  -3  671.11  172.21   1
  -1  11  -3  717.60  184.91   1
   1 -11   4    1.21  138.77   1
  -1  11  -4  508.43  135.20   1
  -1  11  -4  412.56  158.10   1
   1 -11   5   12.54  110.79   1
  -1  11  -5  338.57  106.39   1
  -1  11  -5  282.96  131.43   1
   1 -11   6  864.75  359.94   1
  -1  11  -6 1320.41  355.63   1
  -1  11  -6  912.63  350.46   1
   1 -11   7  522.38  212.23   1
  -1  11  -7  573.06  204.85   1
  -1  11  -7  518.94  248.78   1
   1 -11   8 1591.35  482.07   1
  -1  11  -8 1298.92  343.45   1
  -1  11  -8 1574.01  477.04   1
  -1  11  -8 1345.86  471.54   1
   1 -11   9 1138.13  525.07   1
  -1  11  -9 1697.75  374.08   1
  -1  11  -9 1881.98  521.60   1
  -1  11  -9 2536.71  521.02   1
   1 -11  10   18.29   25.04   1
  -1  11 -10   -0.47   20.89   1
  -1  11 -10   44.52   92.30   1
  -1  11 -10    4.75  148.30   1
   1 -10   0   47.68   64.83   1
  -1  10   0   56.77   61.17   1
  -1  10   0  177.69   87.29   1
   1 -10   1  770.53  300.79   1
  -1  10  -1  982.13  294.88   1
  -1  10  -1  909.22  269.47   1
  -1  10  -2  841.74  169.61   1
   1 -10   2  766.73  266.84   1
  -1  10  -2  767.48  264.15   1
   1 -10   3 1389.25  412.12   1
  -1  10  -3 1235.09  409.21   1
  -1  10  -3 1273.30  363.17   1
   1 -10   4 1089.24  369.83   1
  -1  10  -4 1173.90  367.52   1
  -1  10  -4 1252.68  337.78   1
   1 -10   5  961.63  374.38   1
  -1  10  -5 1202.89  371.95   1
  -1  10  -5 1613.02  350.40   1
   1 -10   6 2735.37  967.96   1
  -1  10  -6 3520.43  965.61   1
  -1  10  -6 4225.31  815.36   1
   1 -10   7   16.47   38.23   1
  -1  10  -7   43.05   70.40   1
  -1  10  -7    7.06   37.33   1
  -1  10  -7   39.82  105.06   1
  -1  10  -8 1627.07  341.54   1
   1 -10   8 1597.40  493.55   1
  -1  10  -8 1862.50  351.89   1
  -1  10  -8 1439.95  490.70   1
  -1  10  -9 1704.78  317.55   1
  -1  10  -9 1767.08  389.69   1
  -1  10  -9 2225.59  527.02   1
  -1  10 -10   42.65   73.18   1
   1 -10  10   20.36   43.17   1
  -1  10 -10   -7.57   84.68   1
  -1  10 -10   26.05   41.26   1
   1 -10  11 1739.92  520.78   1
  -1  10 -11 1611.15  373.46   1
  -1  10 -11 1621.92  515.97   1
  -1  10 -11 1513.30  494.59   1
  -1  10 -12 3829.66  610.48   1
  -1  10 -12 2685.24  700.97   1
  -1  10 -12 3801.91  900.57   1
   1  -9   0  260.61  118.74   1
  -1   9   0  303.37  115.76   1
  -1   9   0  208.19  125.64   1
   1  -9   112590.37 3376.97   1
  -1   9  -112075.21 3370.85   1
  -1   9  -110501.78 2621.79   1
  -1   9  -2 3618.02 1019.81   1
   1  -9   2 4751.89 1402.69   1
  -1   9  -2 5411.80 1394.21   1
   1  -9   3  116.90   80.19   1
  -1   9  -3  122.27   72.90   1
  -1   9  -3  263.49  103.50   1
   1  -9   4 3685.43  918.33   1
  -1   9  -4 2719.81  905.63   1
  -1   9  -4 3147.44  753.08   1
  -1   9  -523561.01 5024.63   1
   1  -9   523654.97 6722.78   1
  -1   9  -524377.24 6710.58   1
   1  -9   6  299.52  130.19   1
  -1   9  -6  309.43  120.95   1
  -1   9  -6  282.26  151.55   1
   1  -9   7 1595.97  296.35   1
  -1   9  -7 2216.65  365.54   1
  -1   9  -7 1485.03  508.46   1
  -1   9  -7 1978.94  469.67   1
   1  -9   8 2665.52  507.48   1
  -1   9  -8 2693.45  506.71   1
  -1   9  -8 3379.91  588.11   1
  -1   9  -8 3724.12  745.39   1
  -1   9  -9  798.43   20.82   1
   1  -9   9  759.07  284.35   1
  -1   9  -9  904.27  278.28   1
  -1   9  -9  919.60  303.51   1
   1  -9  10 1481.16  450.13   1
  -1   9 -10 1396.29  320.41   1
  -1   9 -10 1435.78  445.83   1
  -1   9 -10 1275.17  431.56   1
   1  -9  11 1905.46  591.17   1
  -1   9 -11 1911.14  410.15   1
  -1   9 -11 1927.18  588.18   1
  -1   9 -11 2035.54  543.82   1
  -1   9 -12  604.79  105.62   1
  -1   9 -12  406.13  154.29   1
  -1   9 -12  710.42  262.42   1
   1  -9  13  522.03   89.27   1
  -1   9 -13  459.69   86.99   1
  -1   9 -13  284.22  120.96   1
  -1   9 -13  402.71  146.08   1
   1  -8   0 2688.40  658.49   1
  -1   8   0 2990.69  658.74   1
   1  -8   0 4045.18  921.83   1
   1  -8   0 2673.33  910.83   1
  -1   8   0 3540.65  909.88   1
  -1   8   0 2652.80  917.73   1
  -1   8  -1 2658.17  531.24   1
   1  -8   1 2686.17  750.23   1
   1  -8   1 2190.04  742.67   1
  -1   8  -1 2746.91  740.09   1
  -1   8  -1 2445.63  746.60   1
  -1   8  -2 2581.24  606.15   1
   1  -8   2 3703.39  847.14   1
   1  -8   2 2179.71  838.80   1
  -1   8  -2 3364.40  840.51   1
  -1   8  -2 2539.22  845.20   1
   1  -8   3 4829.46 1146.64   1
   1  -8   3 2916.86 1137.00   1
  -1   8  -3 4957.13 1140.75   1
  -1   8  -3 3083.90 1144.39   1
  -1   8  -3 4593.15  922.32   1
  -1   8  -4 3525.23  673.46   1
   1  -8   4 4131.09 1120.25   1
  -1   8  -4 4238.90  910.15   1
  -1   8  -5  378.43   81.84   1
   1  -8   5  316.98  135.46   1
  -1   8  -5  361.00  131.48   1
   1  -8   6  308.64  128.25   1
  -1   8  -6  287.69  123.74   1
  -1   8  -6  430.90  148.87   1
   1  -8   7 1669.82  485.01   1
  -1   8  -7 1788.57  336.49   1
  -1   8  -7 1352.12  475.68   1
  -1   8  -7 1865.29  438.41   1
   1  -8   8 6726.26 1266.63   1
  -1   8  -8 8708.50 1401.03   1
  -1   8  -8 5878.15 2065.92   1
  -1   8  -812853.55 1672.65   1
   1  -8   9  700.40  221.19   1
  -1   8  -9  668.19  159.77   1
  -1   8  -9  495.42  209.47   1
  -1   8  -9  772.23  242.73   1
   1  -8  10 1942.01  553.60   1
  -1   8 -10 2181.68  385.75   1
  -1   8 -10 1504.84  541.81   1
  -1   8 -10 1970.13  500.17   1
  -1   8 -11  872.96  198.11   1
   1  -8  11  758.66  296.27   1
  -1   8 -11  883.59  210.25   1
  -1   8 -11  978.03  290.05   1
   1  -8  12  786.41  267.06   1
  -1   8 -12  690.23  190.89   1
  -1   8 -12  757.73  263.01   1
  -1   8 -12  956.87  297.20   1
  -1   8 -13  -12.22   57.46   1
   1  -8  13   19.96   36.65   1
  -1   8 -13   -4.70   67.82   1
  -1   8 -13    2.97   35.00   1
  -1   8 -14  147.27   34.80   1
  -1   8 -14  112.48   74.99   1
   1  -8  14  126.34   83.46   1
  -1   8 -14   98.27   73.96   1
   1  -7   011686.69 2936.65   1
   1  -7   010510.56 2934.06   1
   1  -7   0 7534.61 2279.18   1
   1  -7   0 9463.38 2286.16   1
  -1   7   010199.99 1967.79   1
  -1   7   011914.14 2933.54   1
  -1   7   010169.88 2939.13   1
  -1   7   0 9904.04 2280.13   1
  -1   7   0 8800.48 2292.99   1
   1  -7   1  250.20   89.40   1
   1  -7   1  181.56   84.73   1
   1  -7   1  106.77   98.65   1
  -1   7  -1  153.96   62.09   1
  -1   7  -1  260.43   86.18   1
  -1   7  -1  171.43   89.50   1
  -1   7  -1  232.95   98.13   1
  -1   7  -1  120.69  103.41   1
   1  -7   2 1828.77  572.80   1
  -1   7  -2 1511.85  574.29   1
   1  -7   2 3475.65  803.58   1
   1  -7   2 2840.86  797.14   1
  -1   7  -2 2511.86  536.22   1
  -1   7  -2 2740.52  804.40   1
  -1   7  -2 3244.74  661.61   1
   1  -7   3 2084.20  418.07   1
   1  -7   3 2911.04  708.49   1
   1  -7   3 1903.37  578.79   1
  -1   7  -3 2473.70  473.27   1
  -1   7  -3 2375.20  708.81   1
  -1   7  -3 2613.73  586.68   1
  -1   7  -3 2354.25  583.95   1
  -1   7  -4    2.04   15.46   1
   1  -7   4    4.89   22.55   1
   1  -7   4    5.86   22.17   1
   1  -7   4   22.75   44.80   1
  -1   7  -4    3.58   28.89   1
  -1   7  -4   24.06   47.64   1
  -1   7  -4   10.46   45.53   1
   1  -7   5  495.49  142.90   1
   1  -7   5  301.92  136.22   1
   1  -7   5  214.13  139.34   1
  -1   7  -5  253.65  100.04   1
  -1   7  -5  522.80  139.73   1
  -1   7  -5  369.74  143.18   1
  -1   7  -5  478.75  149.01   1
  -1   7  -5  246.14  147.99   1
   1  -7   6   17.85   15.87   1
   1  -7   6   51.62   35.07   1
   1  -7   6   -8.19   55.00   1
  -1   7  -6   18.39   56.01   1
  -1   7  -6   17.69   46.75   1
  -1   7  -6   46.47   33.80   1
  -1   7  -6   49.53   36.91   1
  -1   7  -6   58.35   59.96   1
  -1   7  -6    1.18   56.63   1
   1  -7   7 2956.59  991.80   1
  -1   7  -7 3960.69  674.13   1
  -1   7  -7 3597.15  988.34   1
  -1   7  -7 3319.89  825.59   1
   1  -7   8 1422.83  462.98   1
  -1   7  -8 1562.92  458.50   1
  -1   7  -8 1591.81  422.12   1
  -1   7  -9 4821.88 1488.49   1
   1  -7   9 7040.62 2021.54   1
  -1   7  -9 7826.26 1361.92   1
  -1   7  -9 7353.03 2013.07   1
  -1   7 -10  292.10   79.65   1
   1  -7  10  271.54  123.43   1
  -1   7 -10  296.59   93.13   1
  -1   7 -10  281.85  115.07   1
   1  -7  11 3217.12  927.45   1
  -1   7 -11 3114.61  623.13   1
  -1   7 -11 3104.61  914.42   1
  -1   7 -11 3113.04  787.87   1
   1  -7  12  296.88   59.10   1
  -1   7 -12  316.96   15.77   1
  -1   7 -12  268.69   57.04   1
  -1   7 -12  287.79  163.93   1
   1  -7  13  126.85   87.32   1
  -1   7 -13   85.94   76.79   1
  -1   7 -13  228.90   85.12   1
  -1   7 -13  106.54  132.08   1
   1  -7  14  518.10  188.25   1
  -1   7 -14  377.75  136.00   1
  -1   7 -14  496.73  183.47   1
   1  -7  15 4580.28  817.76   1
  -1   7 -15 3415.75  819.45   1
   1  -7  15 7839.14 1146.94   1
  -1   7 -15 4443.35  769.42   1
  -1   7 -15   20.69 1128.35   1
   1  -6   0 1774.19  496.28   1
   1  -6   0 1619.37  493.17   1
   1  -6   0 1598.19  416.44   1
   1  -6   0 1649.95  419.28   1
  -1   6   0 1589.88  331.18   1
  -1   6   0 1610.71  498.39   1
  -1   6   0 1655.58  492.54   1
  -1   6   0 1641.54  410.21   1
  -1   6   0 1569.70  427.11   1
   1  -6   1  633.93  187.34   1
   1  -6   1  516.28  181.89   1
   1  -6   1  382.78  173.59   1
  -1   6  -1  507.50  124.19   1
  -1   6  -1  543.65  187.07   1
  -1   6  -1  538.52  182.60   1
  -1   6  -1  605.83  176.59   1
  -1   6  -1  482.84  180.14   1
   1  -6   2   65.73   32.27   1
  -1   6  -2   74.85    6.54   1
  -1   6  -2   83.16   25.07   1
  -1   6  -2  106.76   32.68   1
   1  -6   2  129.07   62.63   1
   1  -6   2   83.55   57.84   1
  -1   6  -2   81.99   62.32   1
  -1   6  -2  459.06   79.10   1
   1  -6   3  308.88  123.48   1
   1  -6   3  339.50  118.54   1
   1  -6   3  209.56  123.49   1
  -1   6  -3  264.31   83.03   1
  -1   6  -3  285.03  124.70   1
  -1   6  -3  412.96  120.32   1
  -1   6  -3  365.57  129.85   1
  -1   6  -3  245.25  130.03   1
  -1   6  -4  648.24  145.16   1
  -1   6  -4  604.30  146.37   1
   1  -6   4  644.16  229.27   1
   1  -6   4  650.73  223.90   1
  -1   6  -4  775.96  159.67   1
  -1   6  -4  679.70  231.01   1
  -1   6  -4  771.56  226.17   1
  -1   6  -5 4875.90  790.45   1
   1  -6   5 4684.02 1303.85   1
   1  -6   5 4573.39 1297.60   1
   1  -6   5 2881.68 1034.56   1
  -1   6  -5 4939.70  879.09   1
  -1   6  -5 4935.37 1300.64   1
  -1   6  -5 4449.35 1043.18   1
  -1   6  -5 3707.61 1040.28   1
   1  -6   6 7103.37 1189.64   1
  -1   6  -6 8820.80 1191.06   1
   1  -6   6 6817.70 1946.73   1
   1  -6   6 3706.59 1518.60   1
  -1   6  -6 7456.42 1308.63   1
  -1   6  -6 6713.23 1944.87   1
  -1   6  -6 7341.06 1541.74   1
  -1   6  -6 5145.72 1529.47   1
   1  -6   7  931.54  132.24   1
   1  -6   7  419.85  154.28   1
  -1   6  -7  823.09  132.32   1
  -1   6  -7  428.14  157.22   1
   1  -6   7  555.19  236.99   1
  -1   6  -7 1049.69  171.59   1
  -1   6  -7  509.65  244.30   1
  -1   6  -7 1653.21  246.19   1
   1  -6   8  311.52  155.70   1
  -1   6  -8  918.33  131.47   1
  -1   6  -8  514.86  157.77   1
   1  -6   8 1029.89  244.82   1
   1  -6   8  596.00  236.84   1
  -1   6  -8 1053.57  169.56   1
  -1   6  -8  478.73  244.16   1
   1  -6   9 2209.09  736.43   1
  -1   6  -9 2838.61  505.05   1
  -1   6  -9 2652.35  732.38   1
  -1   6  -9 2268.94  626.43   1
   1  -6  10  857.60  272.70   1
  -1   6 -10  820.63  187.86   1
  -1   6 -10  750.73  265.87   1
  -1   6 -10  990.92  277.79   1
   1  -6  11 7068.25 1925.29   1
  -1   6 -11 7269.90 1293.43   1
  -1   6 -11 6208.57 1912.08   1
  -1   6 -11 7065.93 1544.33   1
   1  -6  12 7038.52 1779.16   1
  -1   6 -12 6416.54 1193.13   1
  -1   6 -12 5542.02 1765.68   1
  -1   6 -12 6143.58 1431.23   1
  -1   6 -13  150.66   36.53   1
  -1   6 -13  156.24   60.24   1
   1  -6  13  155.14   85.97   1
  -1   6 -13  153.50   71.25   1
   1  -6  14  986.43  369.92   1
   1  -6  14  855.89  333.35   1
  -1   6 -14 1238.79  256.25   1
  -1   6 -14 1352.05  368.56   1
  -1   6 -14 1118.37  357.70   1
   1  -6  15    2.46   34.48   1
   1  -6  15    2.09   95.43   1
  -1   6 -15    6.52   54.90   1
  -1   6 -15   -0.53   30.02   1
  -1   6 -15   -0.61  110.29   1
   1  -6  16   34.89  110.59   1
  -1   6 -16   34.45   61.88   1
  -1   6 -16   34.82  125.36   1
   1  -5   014877.99 3063.24   1
   1  -5   015744.46 2754.15   1
   1  -5   014341.72 4108.76   1
   1  -5   015653.99 4105.25   1
   1  -5   015162.65 3178.10   1
  -1   5   014320.19 2752.44   1
  -1   5   013672.34 4110.36   1
  -1   5   013943.46 4103.32   1
  -1   5   013117.74 3171.22   1
  -1   5   016981.28 3189.16   1
   1  -5   1  985.78  405.46   1
  -1   5  -1 1547.19  406.44   1
  -1   5  -1 1437.79  406.48   1
   1  -5   1 1895.51  579.16   1
   1  -5   1 2134.47  573.99   1
   1  -5   1 1863.52  487.39   1
  -1   5  -1 2140.18  386.08   1
  -1   5  -1 2056.05  580.05   1
  -1   5  -1 2177.40  574.08   1
   1  -5   230500.3410158.87   1
   1  -5   238096.42 7799.45   1
  -1   5  -242012.39 6811.31   1
  -1   5  -240851.9510167.26   1
  -1   5  -231587.9010160.35   1
  -1   5  -246550.25 7809.93   1
  -1   5  -236842.24 7807.33   1
  -1   5  -3 6072.25 1254.46   1
   1  -5   3 6885.67 2051.22   1
   1  -5   3 6953.16 2043.74   1
   1  -5   3 6700.26 1606.55   1
  -1   5  -3 9327.34 1378.90   1
  -1   5  -3 7824.48 2044.17   1
  -1   5  -3 7205.16 1610.39   1
  -1   5  -4 1003.11  165.83   1
  -1   5  -4  754.01  197.60   1
   1  -5   4  825.71  293.63   1
   1  -5   4  897.67  260.15   1
  -1   5  -4 1150.21  203.13   1
  -1   5  -4 1028.19  267.87   1
   1  -5   5 1522.42  270.27   1
  -1   5  -5  656.65  323.12   1
   1  -5   5 1528.55  462.24   1
  -1   5  -5 2005.51  326.42   1
  -1   5  -5 1748.51  469.76   1
  -1   5  -5 1516.70  399.06   1
   1  -5   6 8380.53 2079.84   1
   1  -5   6 6468.20 2071.64   1
   1  -5   6 5984.32 1628.16   1
  -1   5  -6 7627.58 1395.65   1
  -1   5  -6 6636.19 2079.57   1
  -1   5  -6 8181.51 2074.13   1
  -1   5  -6 7922.64 1643.39   1
   1  -5   7   11.90   25.27   1
   1  -5   7    8.37   25.17   1
   1  -5   7   10.39   49.62   1
  -1   5  -7   14.66   28.64   1
  -1   5  -7   19.28   29.46   1
  -1   5  -7   22.43   25.13   1
  -1   5  -7   26.23   52.61   1
   1  -5   8 6770.32  953.03   1
   1  -5   8 4789.92 1557.81   1
   1  -5   8 4259.56 1241.92   1
  -1   5  -8 6578.52 1056.79   1
  -1   5  -8 4978.70 1566.14   1
  -1   5  -8 5947.32 1253.75   1
   1  -5   9 1534.35  330.11   1
   1  -5   9  709.62  321.25   1
   1  -5   9  389.49  293.01   1
  -1   5  -9  888.15  222.97   1
  -1   5  -9 1641.38  325.74   1
  -1   5  -9  608.32  328.85   1
  -1   5 -10 3397.92  916.11   1
   1  -5  10 4158.69 1257.91   1
  -1   5 -10 4703.45  848.69   1
  -1   5 -10 4603.92 1253.07   1
   1  -5  11 1242.17  408.07   1
  -1   5 -11 1378.02  276.81   1
  -1   5 -11 1309.79  398.74   1
  -1   5 -11 1229.77  373.16   1
   1  -5  12 1124.75  353.61   1
  -1   5 -12 1067.32  238.63   1
  -1   5 -12 1065.88  340.63   1
  -1   5 -13 1684.87   25.41   1
   1  -5  13 2351.97  670.74   1
   1  -5  13 2295.89  559.29   1
  -1   5 -13 2313.20  662.23   1
  -1   5 -13 2466.63  583.19   1
   1  -5  14 1937.83  722.67   1
   1  -5  14 2315.72  604.84   1
  -1   5 -14 2456.85  488.17   1
  -1   5 -14 2836.83  720.13   1
  -1   5 -14 2389.33  629.83   1
   1  -5  15  960.99  236.73   1
   1  -5  15  693.05  230.13   1
  -1   5 -15 1031.72  166.97   1
  -1   5 -15   18.32  224.55   1
  -1   5 -15  878.09  255.71   1
  -1   5 -16  331.54   90.25   1
   1  -5  16  384.37  164.00   1
  -1   5 -16  171.23   98.04   1
   1  -4   013218.40 3296.23   1
   1  -4   015716.13 2960.66   1
   1  -4   014399.71 4416.76   1
   1  -4   015712.83 4416.29   1
   1  -4   015492.57 3415.25   1
  -1   4   016743.80 2959.39   1
  -1   4   018021.87 4420.48   1
  -1   4   015643.93 4411.10   1
  -1   4   015452.18 3422.02   1
   1  -4   119480.78 4224.47   1
   1  -4   119608.79 5648.75   1
   1  -4   122375.80 5645.75   1
  -1   4  -119335.26 3784.05   1
  -1   4  -120386.73 5651.21   1
  -1   4  -119153.78 5643.34   1
  -1   4  -120736.63 4355.33   1
   1  -4   213587.32 3641.14   1
   1  -4   211162.12 3636.86   1
   1  -4   214729.07 2823.44   1
  -1   4  -214590.36 2445.03   1
  -1   4  -212960.40 3643.84   1
  -1   4  -212949.53 3636.91   1
   1  -4   311621.46 2870.21   1
   1  -4   310709.69 2865.72   1
   1  -4   3 7342.70 2224.93   1
  -1   4  -3 9299.31 2872.77   1
  -1   4  -310371.39 2242.31   1
  -1   4  -310346.79 2235.30   1
   1  -4   431277.45 9173.02   1
   1  -4   428382.73 9168.15   1
   1  -4   437591.28 7045.97   1
  -1   4  -429711.47 9175.54   1
  -1   4  -439697.39 9169.20   1
   1  -4   516512.29 4028.66   1
   1  -4   510714.38 4020.97   1
   1  -4   518236.92 3121.14   1
  -1   4  -516839.95 2701.94   1
  -1   4  -513857.30 4028.64   1
  -1   4  -514282.12 4021.71   1
  -1   4  -514345.26 3124.44   1
   1  -4   6 6095.17  912.00   1
   1  -4   6 4035.24 1250.79   1
   1  -4   6 3604.49 1241.42   1
  -1   4  -6 3940.84  835.87   1
  -1   4  -6 3748.16 1248.90   1
  -1   4  -6 4035.43 1242.65   1
  -1   4  -6 9405.48 1006.73   1
  -1   4  -7 5887.26 1275.69   1
   1  -4   7 6376.69 1736.04   1
   1  -4   7 5485.83 1727.97   1
   1  -4   7 6427.33 1370.04   1
  -1   4  -7 7608.51 1167.94   1
  -1   4  -7 5355.63 1735.65   1
  -1   4  -7 6341.11 1729.26   1
   1  -4   8 2733.52  740.40   1
   1  -4   8 1848.09  733.13   1
   1  -4   8 2645.70  617.53   1
  -1   4  -8 2989.85  497.49   1
  -1   4  -8 2278.11  741.04   1
  -1   4  -8 2806.24  736.11   1
  -1   4  -8 3053.95  623.31   1
  -1   4  -9  246.39   45.66   1
   1  -4   9  157.28   79.01   1
   1  -4   9  110.79   74.34   1
   1  -4   9  128.16   98.17   1
  -1   4  -9  195.67   61.25   1
  -1   4  -9   96.83   79.76   1
  -1   4  -9  255.40   78.87   1
   1  -4  10  911.26  133.62   1
   1  -4  10  450.59  240.10   1
   1  -4  10  570.54  235.06   1
  -1   4 -10  954.41  169.61   1
  -1   4 -10  975.56  243.53   1
  -1   4 -10  501.04  246.53   1
  -1   4 -10 1081.65  244.94   1
   1  -4  11 2515.61  707.99   1
  -1   4 -11 2308.44  700.26   1
  -1   4 -11 2276.38  604.34   1
  -1   4 -12 1786.90   23.57   1
   1  -4  12 2692.63  718.56   1
   1  -4  12 2714.79  592.12   1
  -1   4 -12 2263.97  704.96   1
  -1   4 -12 2895.40  614.89   1
   1  -4  13  248.46   81.39   1
   1  -4  13   81.61  102.93   1
  -1   4 -13   66.66   61.20   1
  -1   4 -13   55.47   66.21   1
  -1   4 -14 2779.61  667.56   1
   1  -4  14 3106.34  932.93   1
   1  -4  14 3253.62  763.64   1
  -1   4 -14 3876.98  629.71   1
  -1   4 -14 2867.06  928.51   1
   1  -4  15 1197.80  177.41   1
  -1   4 -15 1245.88  184.84   1
   1  -4  15  980.96  276.43   1
  -1   4 -15 1162.85  189.05   1
  -1   4 -15   12.71  264.36   1
   1  -4  16 2909.74  677.55   1
  -1   4 -16 2669.87  542.95   1
  -1   4 -16 2434.21  688.40   1
   1  -3   029262.46 4827.51   1
   1  -3   027723.77 7201.77   1
   1  -3   022235.13 7200.86   1
   1  -3   028020.88 5541.58   1
   1  -3   029956.54 5543.23   1
  -1   3   029099.61 4826.46   1
  -1   3   022729.79 7206.69   1
  -1   3   022887.38 7196.98   1
  -1   3   027273.57 5538.74   1
   1  -3   1 1306.82  468.31   1
   1  -3   1 1773.77  395.38   1
  -1   3  -1 2001.11  317.85   1
  -1   3  -1 1488.55  471.91   1
  -1   3  -1 1470.21  464.53   1
  -1   3  -1 1644.15  398.55   1
  -1   3  -1 1736.96  401.98   1
   1  -3   219378.42 6346.76   1
  -1   3  -225733.41 6352.01   1
  -1   3  -224025.89 4895.45   1
  -1   3  -224138.65 4891.29   1
   1  -3   313972.49 2437.49   1
   1  -3   315615.78 3948.54   1
   1  -3   313829.08 3058.17   1
  -1   3  -313574.23 3941.99   1
  -1   3  -312542.74 3053.08   1
   1  -3   4 9969.47 3041.00   1
   1  -3   411858.54 3037.03   1
   1  -3   411942.37 2371.78   1
  -1   3  -412094.59 3043.86   1
  -1   3  -4 8822.91 3035.61   1
  -1   3  -412248.26 2368.52   1
  -1   3  -539774.0412371.17   1
   1  -3   559140.9716465.75   1
   1  -3   556146.4916461.85   1
   1  -3   599999.0012620.84   1
  -1   3  -548481.7111038.72   1
  -1   3  -556932.3616468.74   1
  -1   3  -563273.5316462.12   1
   1  -3   6 7294.94 1665.38   1
   1  -3   6 8237.16 2252.16   1
   1  -3   6 7564.99 2246.18   1
  -1   3  -6 8332.87 1511.46   1
  -1   3  -6 7859.96 2253.12   1
  -1   3  -6 8256.99 2246.10   1
  -1   3  -6 7820.88 1769.03   1
   1  -3   7 1634.04  487.00   1
   1  -3   7 1552.41  478.32   1
   1  -3   7 1624.18  411.59   1
  -1   3  -7 1702.40  324.96   1
  -1   3  -7 1488.25  484.74   1
  -1   3  -7 1622.84  478.94   1
  -1   3  -7 1715.86  421.49   1
   1  -3   815412.38 4243.15   1
   1  -3   814022.11 4236.96   1
   1  -3   813292.51 3283.50   1
  -1   3  -816682.65 2844.86   1
  -1   3  -813457.78 4243.03   1
  -1   3  -816839.14 4237.25   1
  -1   3  -815877.82 3294.83   1
  -1   3  -9    4.49   12.63   1
   1  -3   9   14.44   21.25   1
   1  -3   9    0.47   20.70   1
   1  -3   9    5.03   48.35   1
  -1   3  -9   20.66   25.77   1
  -1   3  -9    6.98   23.63   1
  -1   3  -9    2.53   48.29   1
   1  -3  10 4418.73 1170.28   1
   1  -3  10 3768.60 1164.28   1
   1  -3  10 2873.35  940.71   1
  -1   3 -10 4531.00  786.97   1
  -1   3 -10 4474.29 1165.61   1
  -1   3 -10 3538.13 1168.80   1
  -1   3 -10 4668.75  954.69   1
   1  -3  11  637.39  206.97   1
   1  -3  11  410.29  202.35   1
   1  -3  11  681.40  197.55   1
  -1   3 -11  780.21  143.45   1
  -1   3 -11  679.41  201.69   1
  -1   3 -11  400.64  206.09   1
  -1   3 -11  898.47  213.97   1
   1  -3  12 3663.80  910.76   1
   1  -3  12 2875.21  736.92   1
  -1   3 -12 3008.96  609.12   1
  -1   3 -12 2910.69  896.44   1
  -1   3 -12 2781.27  755.65   1
   1  -3  13 8532.43 2225.12   1
  -1   3 -13 7384.80 2224.65   1
   1  -3  1311141.80 3003.34   1
  -1   3 -1310850.37 2014.22   1
  -1   3 -1311780.67 2995.88   1
   1  -3  14 2217.08  770.04   1
   1  -3  14 3176.90  643.39   1
  -1   3 -14 2959.47  518.29   1
  -1   3 -14 2290.33  766.25   1
  -1   3 -14 2957.57  660.11   1
   1  -3  15  568.39  129.43   1
  -1   3 -15  600.20  129.91   1
   1  -3  15  552.84  215.91   1
   1  -3  16  356.33  175.03   1
  -1   3 -16  407.78  116.16   1
  -1   3 -16  427.21  181.95   1
  -1   3 -17   33.34   58.05   1
  -1   2   029438.69 8312.32   1
   1  -2   030471.3511080.08   1
   1  -2   051939.1611080.83   1
   1  -2   049379.21 8499.29   1
   1  -2   055570.76 8500.39   1
  -1   2   030790.98 7422.03   1
  -1   2   035222.6411080.16   1
  -1   2   043722.5311076.71   1
  -1   2   037521.50 8495.01   1
   1  -2   166619.8419185.71   1
   1  -2   181907.8719183.28   1
   1  -2   159629.7414677.79   1
  -1   2  -160150.1519188.45   1
  -1   2  -180526.8919179.61   1
  -1   2  -154934.2414691.21   1
  -1   2  -144691.0714685.38   1
   1  -2   2 1161.86  411.79   1
   1  -2   2 1482.01  411.54   1
   1  -2   2 1848.27  358.70   1
  -1   2  -2 1352.44  280.14   1
  -1   2  -2 1256.91  414.66   1
  -1   2  -2 1226.19  406.65   1
  -1   2  -2 1670.80  348.02   1
   1  -2   315561.90 4449.84   1
   1  -2   317945.77 4449.73   1
   1  -2   325295.38 3448.80   1
  -1   2  -313002.65 2981.41   1
  -1   2  -315145.88 4452.67   1
  -1   2  -314135.29 4445.26   1
   1  -2   4 8155.52 2228.85   1
   1  -2   4 8026.43 2227.50   1
  -1   2  -4 8072.35 2231.33   1
  -1   2  -4 7533.60 2222.78   1
  -1   2  -4 7600.85 1746.88   1
   1  -2   555085.91 7079.52   1
   1  -2   530022.7110550.09   1
   1  -2   530925.7510547.22   1
   1  -2   556239.27 8093.59   1
  -1   2  -548991.51 7072.00   1
  -1   2  -530906.6010551.78   1
  -1   2  -531648.8510543.65   1
  -1   2  -552714.39 8106.70   1
   1  -2   611562.62 2174.59   1
   1  -2   611727.68 3239.89   1
   1  -2   611817.64 3236.93   1
   1  -2   611023.46 2516.69   1
  -1   2  -6 9812.07 2173.02   1
  -1   2  -611128.88 3241.46   1
  -1   2  -612521.90 3235.40   1
  -1   2  -611204.99 2525.06   1
   1  -2   7 2081.65  451.42   1
   1  -2   7 2431.19  673.42   1
   1  -2   7 2095.91  667.33   1
   1  -2   7 2761.99  556.96   1
  -1   2  -7 2234.18  449.42   1
  -1   2  -7 2177.85  671.98   1
  -1   2  -7 2190.51  664.77   1
  -1   2  -7 2843.13  564.39   1
   1  -2   8 9205.13 2114.88   1
   1  -2   811999.98 3150.45   1
   1  -2   811408.75 3145.14   1
   1  -2   811898.73 2447.30   1
   1  -2   8 9912.26 2453.93   1
  -1   2  -811508.00 2111.63   1
  -1   2  -810131.70 3148.90   1
  -1   2  -812186.80 3142.11   1
  -1   2  -810501.26 2460.17   1
   1  -2   913925.83 3150.12   1
   1  -2   919308.34 4694.39   1
   1  -2   916338.67 4690.42   1
   1  -2   917144.13 3624.72   1
   1  -2   916626.80 3637.91   1
  -1   2  -916081.64 3146.49   1
  -1   2  -915480.52 4695.26   1
  -1   2  -917640.86 4689.90   1
  -1   2  -916924.70 3643.93   1
   1  -2  10   59.24   35.72   1
   1  -2  10    0.96   37.69   1
   1  -2  10   14.47   28.03   1
   1  -2  10   10.07   27.28   1
   1  -2  10   32.95   48.60   1
  -1   2 -10   23.69   30.87   1
  -1   2 -10   23.83   28.74   1
  -1   2 -10   13.85   28.63   1
  -1   2 -10   22.76   56.40   1
   1  -2  11  142.24   41.10   1
   1  -2  11  167.00   82.32   1
  -1   2 -11  160.58   57.19   1
  -1   2 -11  151.49   72.31   1
  -1   2 -11   95.61   75.00   1
  -1   2 -11  169.32   94.70   1
   1  -2  12 2107.36  692.53   1
   1  -2  12 2757.99  575.66   1
  -1   2 -12 2186.86  462.31   1
  -1   2 -12 2081.99  680.04   1
  -1   2 -12 3368.40  593.68   1
   1  -2  13  434.00  195.54   1
   1  -2  13  836.52  200.36   1
  -1   2 -13  525.93  136.04   1
  -1   2 -13  461.81  192.45   1
  -1   2 -13  775.55  209.46   1
   1  -2  14 1034.86  353.48   1
   1  -2  14 1062.57  314.67   1
  -1   2 -14 1103.17  235.76   1
  -1   2 -14 1048.58  346.67   1
  -1   2 -14 1147.95  326.00   1
   1  -2  15   30.02   53.90   1
   1  -2  15   47.75   78.62   1
  -1   2 -15   54.01   42.57   1
  -1   2 -15    8.29   52.82   1
  -1   2 -15   19.66   78.95   1
   1  -2  16  273.49  139.65   1
  -1   2 -16  228.77   84.24   1
  -1   2 -16  262.99  143.45   1
  -1   2 -17   86.08   50.72   1
   1  -1   0 4392.67 1243.13   1
   1  -1   0 4173.26 1243.55   1
   1  -1   0 4396.94  985.18   1
   1  -1   0 4267.42  985.69   1
  -1   1   0 4411.70 1246.00   1
  -1   1   0 4179.74  982.31   1
  -1   1   0 4466.20  987.14   1
   1  -1   1 1334.61  397.13   1
   1  -1   1 1522.81  396.31   1
   1  -1   1 1466.99  340.69   1
  -1   1  -1 1029.07  259.93   1
  -1   1  -1 1290.43  397.61   1
  -1   1  -1 1276.26  391.57   1
  -1   1  -1 1045.38  331.96   1
   1  -1   235541.72 5409.67   1
  -1   1  -227585.13 5409.35   1
   1  -1   238677.85 5843.88   1
   1  -1   237431.04 8721.98   1
   1  -1   227940.15 6692.04   1
  -1   1  -223681.09 5842.59   1
  -1   1  -228994.80 8717.84   1
  -1   1  -226603.47 6698.35   1
   1  -1   311934.04 2691.19   1
   1  -1   314675.40 4019.38   1
   1  -1   314704.67 4018.08   1
   1  -1   312743.09 3110.58   1
  -1   1  -313178.57 2692.41   1
  -1   1  -313292.50 4022.24   1
  -1   1  -317062.63 4012.84   1
  -1   1  -314224.19 3115.36   1
   1  -1   4   10.41   27.01   1
   1  -1   4   25.93   36.21   1
   1  -1   4   43.73   35.99   1
   1  -1   4  172.52   46.68   1
  -1   1  -4   29.06   26.17   1
  -1   1  -4   91.62   38.51   1
  -1   1  -4   47.83   34.10   1
  -1   1  -4   32.91   47.50   1
   1  -1   536395.92 5928.03   1
   1  -1   535170.14 8841.92   1
   1  -1   531775.45 8841.12   1
   1  -1   535078.60 6795.73   1
  -1   1  -535594.25 5927.87   1
  -1   1  -529464.97 8845.87   1
  -1   1  -524231.77 8834.86   1
  -1   1  -535504.74 6801.71   1
   1  -1   610029.05 1944.40   1
   1  -1   6 9801.99 2899.76   1
   1  -1   610608.97 2898.88   1
   1  -1   610813.50 2250.25   1
   1  -1   6 9462.46 2260.08   1
  -1   1  -610464.31 1943.44   1
  -1   1  -610717.72 2903.27   1
  -1   1  -610221.66 2894.00   1
  -1   1  -610398.80 2268.08   1
   1  -1   7   88.67   27.89   1
   1  -1   7  120.73   45.88   1
   1  -1   7  115.53   59.80   1
   1  -1   7  119.38   57.51   1
   1  -1   7  130.98   74.98   1
  -1   1  -7  114.29   43.09   1
  -1   1  -7   84.96   60.20   1
  -1   1  -7  101.74   55.71   1
  -1   1  -7  108.50   74.31   1
  -1   1  -8 6852.96 1676.77   1
   1  -1   8 8090.34 1521.42   1
   1  -1   8 8695.83 2270.91   1
   1  -1   8 8062.13 2264.69   1
   1  -1   8 7876.59 1771.12   1
   1  -1   8 7511.01 1783.26   1
  -1   1  -8 7827.75 1520.59   1
  -1   1  -8 8696.89 2270.16   1
  -1   1  -8 7562.61 2261.20   1
   1  -1   911700.97 2287.35   1
   1  -1   912159.64 3409.87   1
   1  -1   911771.23 3406.08   1
   1  -1   911080.81 2659.13   1
  -1   1  -911537.78 2286.03   1
  -1   1  -911625.29 3412.19   1
  -1   1  -913882.88 3408.08   1
   1  -1  1021720.67 4807.33   1
   1  -1  1026491.00 7167.02   1
   1  -1  1023358.27 7163.73   1
  -1   1 -1027426.82 4805.98   1
  -1   1 -1030178.34 7161.79   1
  -1   1 -1022937.32 7167.41   1
   1  -1  11 8492.41 1871.05   1
   1  -1  11 5438.10 1861.50   1
   1  -1  11 7641.90 1472.82   1
  -1   1 -11 7268.35 1252.69   1
  -1   1 -11 6356.95 1857.58   1
  -1   1 -11 5248.99 1863.78   1
  -1   1 -11 7325.46 1488.26   1
   1  -1  12 1485.29  483.64   1
   1  -1  12 1601.58  413.97   1
  -1   1 -12 1667.15  478.05   1
  -1   1 -12 1457.78  425.37   1
   1  -1  13 1170.32  249.50   1
  -1   1 -13 1109.94  249.24   1
   1  -1  13 1006.36  377.49   1
  -1   1 -13 1238.04  251.13   1
  -1   1 -13 1289.17  372.19   1
   1  -1  14  153.66  114.41   1
   1  -1  14  154.62  110.41   1
  -1   1 -14  197.35   65.84   1
  -1   1 -14  171.88  100.12   1
  -1   1 -14  176.57  115.26   1
   1  -1  15 1557.68  818.46   1
   1  -1  15 4701.02  678.34   1
  -1   1 -15 2102.82  816.68   1
  -1   1 -15 4277.72  686.91   1
  -1   1 -16  703.03  158.72   1
   1  -1  16  728.02  239.64   1
  -1   1 -16  708.72  167.49   1
  -1   1 -17  973.88  218.00   1
   1   0   020458.47 7749.48   1
   1   0   050195.4111568.86   1
   1   0   055709.9111565.58   1
  -1   0   022075.14 7750.05   1
  -1   0   042293.6811566.31   1
  -1   0   050831.9111569.59   1
   1   0   123970.37 4715.51   1
   1   0   126354.80 7041.97   1
   1   0   129650.67 7041.66   1
   1   0   115513.67 5404.11   1
   1   0   123902.42 5417.31   1
  -1   0  -127450.26 4715.07   1
  -1   0  -123081.44 7041.32   1
  -1   0  -125077.80 7040.37   1
  -1   0  -129758.21 5420.08   1
   1   0   2  959.53  211.72   1
   1   0   2  929.12  320.74   1
   1   0   2 1052.87  323.43   1
   1   0   2  997.11  274.13   1
   1   0   2 1072.16  283.46   1
  -1   0  -2  853.54  211.64   1
  -1   0  -2 1064.18  324.84   1
  -1   0  -2 1132.36  319.77   1
  -1   0  -2 1194.43  288.13   1
   1   0   350262.92 7307.28   1
   1   0   335632.1110905.60   1
   1   0   339919.3710907.76   1
   1   0   347429.95 8359.05   1
   1   0   353391.07 8371.17   1
  -1   0  -341779.96 7307.35   1
  -1   0  -331911.8010906.80   1
  -1   0  -327411.9510900.72   1
  -1   0  -344779.94 8375.73   1
   1   0   4 2748.91  671.68   1
   1   0   4 2965.00 1003.88   1
   1   0   4 3161.36 1008.26   1
   1   0   4 4877.17  803.97   1
   1   0   4 6648.45  816.88   1
  -1   0  -4 2689.98  671.41   1
  -1   0  -4 3237.28 1009.76   1
  -1   0  -4 3022.50  998.11   1
  -1   0  -4 6217.72  820.68   1
   1   0   5 9418.67 1928.04   1
   1   0   510523.34 2875.61   1
   1   0   510335.09 2879.13   1
   1   0   510877.42 2234.78   1
   1   0   510793.41 2249.54   1
  -1   0  -5 9204.87 1927.43   1
  -1   0  -511567.48 2881.49   1
  -1   0  -5 9747.94 2869.29   1
  -1   0  -5 9774.51 2251.35   1
   1   0   6  785.20  175.91   1
   1   0   6  800.90  261.50   1
   1   0   6  841.61  264.26   1
   1   0   6  911.05  233.27   1
   1   0   6  755.07  248.44   1
  -1   0  -6  753.78  263.89   1
  -1   0  -6  834.15  255.39   1
  -1   0  -6  726.49  245.64   1
   1   0   753286.8810453.76   1
   1   0   750437.19 9333.86   1
   1   0   748189.7313920.27   1
   1   0   757631.7713923.53   1
   1   0   755768.4610666.45   1
  -1   0  -754462.21 9332.58   1
  -1   0  -743600.6913923.11   1
  -1   0  -743468.1013915.25   1
  -1   0  -754640.3710684.76   1
   1   0   8  943.22  180.33   1
   1   0   8  617.48  185.87   1
   1   0   8  638.39  275.04   1
   1   0   8  686.67  274.74   1
   1   0   8 1705.31  263.05   1
  -1   0  -8  812.62  184.15   1
  -1   0  -8  673.28  274.37   1
  -1   0  -8  835.54  267.94   1
  -1   0  -8 1925.61  262.82   1
   1   0   925432.50 4740.61   1
   1   0   926362.63 7065.68   1
   1   0   923464.66 7065.10   1
   1   0   923804.27 5434.79   1
   1   0   925512.29 5452.74   1
  -1   0  -927053.09 4736.98   1
  -1   0  -924565.81 7067.18   1
  -1   0  -927166.24 5450.81   1
   1   0  10 2184.60  508.01   1
   1   0  10 2809.03  748.46   1
   1   0  10 2250.01  745.16   1
   1   0  10 2930.80  612.32   1
   1   0  10 2515.80  630.51   1
  -1   0 -10 2377.71  500.06   1
  -1   0 -10 2627.82  739.50   1
  -1   0 -10 2328.96  747.46   1
  -1   0 -10 3089.17  625.34   1
   1   0  11 1232.29  437.80   1
   1   0  11  969.47  434.82   1
   1   0  11 2067.03  379.54   1
  -1   0 -11 1399.65  293.35   1
  -1   0 -11 1502.42  431.82   1
  -1   0 -11 1124.59  437.01   1
  -1   0 -11 2934.12  395.33   1
   1   0  12 4291.59 1144.40   1
   1   0  12 2570.05 1136.96   1
   1   0  12 4494.42  919.18   1
  -1   0 -12 4627.55  765.21   1
  -1   0 -12 4738.85 1138.05   1
  -1   0 -12 3315.23 1141.23   1
  -1   0 -12 4217.59  930.52   1
   1   0  13 3785.80  773.62   1
  -1   0 -13 3714.47  773.39   1
   1   0  13 3704.36 1079.59   1
  -1   0 -13 3717.62  717.48   1
  -1   0 -13 3571.91 1074.39   1
   1   0  14   -8.47   52.78   1
   1   0  14    8.49   63.06   1
  -1   0 -14    7.76   26.08   1
  -1   0 -14    4.24   50.82   1
  -1   0 -14   -0.31   60.96   1
   1   0  15 1074.17  296.80   1
  -1   0 -15  878.19  219.62   1
  -1   0 -15 1148.78  304.30   1
   1   0  16   97.20   47.47   1
  -1   0 -16  124.55   42.41   1
  -1   0 -16  135.03   55.81   1
   1   1   0 5352.77  968.43   1
   1   1   0 4326.43 1447.86   1
   1   1   0 5538.48 1142.67   1
   1   1   0 5416.90 1152.67   1
  -1  -1   0 5373.58  967.86   1
  -1  -1   0 4977.78 1442.61   1
  -1  -1   0 5051.75 1447.94   1
  -1  -1   0 4678.69 1140.47   1
  -1  -1   0 5887.76 1152.16   1
   1   1   1 9383.32 1864.08   1
   1   1   1 9913.63 2783.61   1
   1   1   1 9244.63 2160.42   1
   1   1   1 9941.83 2171.28   1
  -1  -1  -110835.63 1864.66   1
  -1  -1  -110319.07 2782.48   1
  -1  -1  -1 9306.65 2786.92   1
  -1  -1  -1 9631.50 2160.77   1
  -1  -1  -110143.83 2173.87   1
   1   1   2 5789.03 1196.09   1
   1   1   2 7516.62 1793.59   1
   1   1   2 5652.98 1787.35   1
   1   1   2 6378.26 1397.93   1
   1   1   2 6216.17 1415.78   1
  -1  -1  -2 6276.46 1197.37   1
  -1  -1  -2 5864.38 1786.26   1
  -1  -1  -2 6618.69 1789.91   1
  -1  -1  -2 6404.44 1399.44   1
  -1  -1  -2 6565.45 1413.84   1
   1   1   314925.79 2763.23   1
   1   1   315298.94 4126.32   1
   1   1   314203.47 4124.10   1
   1   1   315489.43 3184.65   1
   1   1   314113.14 3198.34   1
  -1  -1  -314193.93 2762.81   1
  -1  -1  -315236.68 4127.74   1
  -1  -1  -314882.76 4123.78   1
  -1  -1  -314412.64 3183.44   1
  -1  -1  -313291.97 3198.99   1
   1   1   4 8077.96 1696.41   1
   1   1   4 8039.66 1537.12   1
   1   1   4 7859.07 2296.37   1
   1   1   4 8608.70 2298.67   1
   1   1   4 8174.07 1788.44   1
  -1  -1  -4 8107.55 1537.02   1
  -1  -1  -4 8510.11 2299.13   1
  -1  -1  -4 8032.95 2290.43   1
  -1  -1  -4 7870.13 1787.48   1
  -1  -1  -4 7472.71 1800.39   1
   1   1   5  492.20  121.47   1
   1   1   5  505.38  178.19   1
   1   1   5  491.51  182.53   1
   1   1   5  497.01  167.08   1
   1   1   5  510.30  178.43   1
  -1  -1  -5  518.69  120.34   1
  -1  -1  -5  533.75  183.43   1
  -1  -1  -5  535.21  174.30   1
  -1  -1  -5  552.55  164.71   1
  -1  -1  -5  537.69  175.90   1
   1   1   6 9872.50 1975.48   1
  -1  -1  -6 9720.30 1975.07   1
   1   1   6 9587.35 1786.78   1
   1   1   6 9444.75 2662.57   1
   1   1   6 9959.91 2666.62   1
   1   1   6 9725.38 2090.90   1
  -1  -1  -6 9118.90 1784.66   1
  -1  -1  -6 8910.29 2665.29   1
  -1  -1  -6 9323.50 2655.50   1
   1   1   7 5675.89  772.05   1
   1   1   7 6810.78 1844.85   1
   1   1   7 6588.82 1844.98   1
   1   1   7 6758.13 1448.07   1
   1   1   7 6802.11 1463.46   1
  -1  -1  -7 6491.29 1234.68   1
  -1  -1  -7 6403.52 1843.69   1
  -1  -1  -7 6591.68 1836.88   1
  -1  -1  -7 6062.11 1460.86   1
   1   1   8 2051.67  435.60   1
   1   1   8 2496.40  646.50   1
   1   1   8 1978.87  646.79   1
   1   1   8 2187.82  532.21   1
   1   1   8 1992.26  549.62   1
  -1  -1  -8 2204.94  432.93   1
  -1  -1  -8 1987.65  645.97   1
  -1  -1  -8 2410.23  643.35   1
  -1  -1  -8 2016.63  543.23   1
   1   1   9  755.81  178.71   1
   1   1   9  913.32  261.65   1
   1   1   9  697.56  258.76   1
   1   1   9  761.72  234.33   1
   1   1   9  699.63  253.88   1
  -1  -1  -9  910.61  175.25   1
  -1  -1  -9  779.48  252.88   1
  -1  -1  -9  734.20  258.12   1
  -1  -1  -9  838.37  243.96   1
   1   1  10  585.10  215.14   1
   1   1  10  741.07  201.99   1
   1   1  10  397.81  219.50   1
  -1  -1 -10  751.65  146.47   1
  -1  -1 -10  614.04  211.91   1
  -1  -1 -10  608.15  215.70   1
  -1  -1 -10  671.09  208.97   1
   1   1  11   27.44   43.53   1
   1   1  11   24.24   33.96   1
   1   1  11    6.20   57.34   1
  -1  -1 -11   59.97   28.84   1
  -1  -1 -11   13.27   34.01   1
  -1  -1 -11   22.44   58.52   1
   1   1  12 2731.07  513.30   1
  -1  -1 -12 2560.75  412.83   1
  -1  -1 -12 1104.82  612.06   1
  -1  -1 -12 2588.48  522.69   1
   1   1  13 5583.64 1231.95   1
  -1  -1 -13 6245.89 1232.43   1
   1   1  14  278.21   69.01   1
  -1  -1 -14  262.57    9.53   1
  -1  -1 -14  267.41  133.89   1
   1   1  15   13.71   36.65   1
  -1  -1 -15   -9.35   22.04   1
  -1  -1 -15   24.13   60.52   1
   1   1  16   25.52   36.88   1
  -1  -1 -16   34.51   34.68   1
  -1  -1 -16   68.31   50.16   1
   1   2   0 2264.16  463.48   1
   1   2   0 2291.69  694.12   1
   1   2   0 2365.46  693.40   1
   1   2   0 2674.55  567.52   1
   1   2   0 2410.11  578.43   1
  -1  -2   0 2287.16  462.40   1
  -1  -2   0 2407.04  689.04   1
  -1  -2   0 2075.31  693.69   1
  -1  -2   0 2572.33  566.81   1
  -1  -2   0 2810.26  573.52   1
   1   2   1  810.35  199.69   1
   1   2   1  824.18  298.80   1
   1   2   1  898.85  298.53   1
   1   2   1  948.48  262.27   1
   1   2   1 1140.40  269.97   1
  -1  -2  -1  922.46  198.46   1
  -1  -2  -1 1123.06  295.49   1
  -1  -2  -1  912.92  299.55   1
  -1  -2  -1  829.87  257.23   1
  -1  -2  -1 1097.47  267.73   1
   1   2   227493.73 5249.94   1
   1   2   229694.22 7838.03   1
   1   2   228295.00 7838.62   1
   1   2   228517.47 6016.39   1
   1   2   229203.06 6029.01   1
  -1  -2  -227858.51 5250.58   1
  -1  -2  -226837.22 7834.78   1
  -1  -2  -228183.38 7837.77   1
  -1  -2  -226398.62 6017.17   1
  -1  -2  -228540.65 6032.72   1
   1   2   3  260.42   53.32   1
   1   2   3  242.76   70.58   1
   1   2   3  220.01  106.18   1
   1   2   3  229.89  104.19   1
   1   2   3  289.72  103.80   1
  -1  -2  -3  263.50   70.34   1
  -1  -2  -3  250.77  100.37   1
  -1  -2  -3  247.30  105.31   1
  -1  -2  -3  324.92  105.37   1
  -1  -2  -3  279.16  112.37   1
   1   2   4 1703.14  423.98   1
   1   2   4 1811.29  636.87   1
   1   2   4 2797.67  517.00   1
   1   2   4 3631.83  538.93   1
  -1  -2  -4 1770.25  423.11   1
  -1  -2  -4 1829.12  629.12   1
  -1  -2  -4 1886.74  629.50   1
  -1  -2  -4 2860.48  521.94   1
  -1  -2  -4 3140.21  533.59   1
   1   2   522380.77 4503.69   1
   1   2   522530.02 4503.51   1
   1   2   521589.60 4036.37   1
   1   2   520768.41 6021.42   1
  -1  -2  -521414.99 4036.16   1
  -1  -2  -522169.43 6020.92   1
  -1  -2  -521021.09 6012.50   1
  -1  -2  -522299.74 4634.20   1
  -1  -2  -520927.00 4648.98   1
  -1  -2  -6 7904.12 1726.52   1
   1   2   6 8141.26 1564.80   1
   1   2   6 8245.04 2330.83   1
   1   2   6 8369.06 2334.19   1
   1   2   6 8096.03 1820.32   1
   1   2   6 8375.52 1841.92   1
  -1  -2  -6 7991.08 1564.49   1
  -1  -2  -6 8873.08 2335.08   1
  -1  -2  -6 8040.65 2325.52   1
  -1  -2  -6 8467.83 1836.89   1
   1   2   711310.87 2024.46   1
   1   2   710808.94 3016.08   1
   1   2   710027.65 2341.73   1
   1   2   710604.26 2362.93   1
  -1  -2  -710733.36 2022.93   1
  -1  -2  -710851.73 3017.37   1
  -1  -2  -710567.45 3011.82   1
  -1  -2  -710484.57 2341.55   1
  -1  -2  -710698.92 2358.34   1
   1   2   8 1536.23  392.91   1
   1   2   8 2339.88  482.84   1
   1   2   8 1707.38  504.00   1
  -1  -2  -8 1931.07  391.02   1
  -1  -2  -8 2366.54  497.79   1
   1   2   9  610.68  168.23   1
   1   2   9  839.06  222.69   1
   1   2   9  680.29  242.74   1
  -1  -2  -9  798.71  166.63   1
  -1  -2  -9  764.32  234.77   1
   1   2  10 2101.10  417.25   1
  -1  -2 -10 1968.44  399.05   1
  -1  -2 -10 1867.22  507.03   1
   1   2  11  473.36  168.96   1
  -1  -2 -11  430.06  118.22   1
  -1  -2 -11  592.81  179.79   1
   1   2  12  364.86  151.47   1
  -1  -2 -12  335.77  101.06   1
  -1  -2 -12  521.78  161.38   1
   1   2  13 2943.05  697.59   1
  -1  -2 -13 3298.63  698.02   1
  -1  -2 -13 3585.79  649.92   1
   1   2  14 1794.20  424.76   1
  -1  -2 -14 1643.24  338.09   1
  -1  -2 -14 1455.30  436.67   1
  -1  -2 -15    8.76   33.48   1
   1   2  15    6.14   64.07   1
  -1  -2 -15  -11.44   41.96   1
   1   3   013702.80 2439.48   1
   1   3   011209.55 3636.32   1
   1   3   012021.42 3637.34   1
   1   3   014156.73 2821.74   1
   1   3   014683.60 2831.76   1
  -1  -3   013134.14 2437.81   1
  -1  -3   013526.88 3632.54   1
  -1  -3   012634.74 3642.30   1
  -1  -3   014929.18 2818.70   1
  -1  -3   013000.90 2826.01   1
   1   3   1  927.94  188.20   1
   1   3   1  796.31  282.46   1
   1   3   1  819.96  278.20   1
   1   3   1  982.89  248.38   1
   1   3   1  932.12  257.44   1
  -1  -3  -1  841.84  187.07   1
  -1  -3  -1  941.50  274.61   1
  -1  -3  -1  833.81  283.52   1
  -1  -3  -1  942.80  246.23   1
  -1  -3  -1  863.67  253.62   1
   1   3   2  110.41   43.50   1
   1   3   2   85.45   61.63   1
   1   3   2  118.26   59.94   1
   1   3   2   98.60   67.55   1
   1   3   2  156.55   75.18   1
  -1  -3  -2   93.50   42.62   1
  -1  -3  -2  183.97   57.08   1
  -1  -3  -2  102.00   63.96   1
  -1  -3  -2   98.55   69.76   1
  -1  -3  -2   80.40   72.22   1
   1   3   3  227.57   51.36   1
  -1  -3  -3  259.53   51.45   1
   1   3   3  241.05   69.09   1
   1   3   3  238.79  100.59   1
   1   3   3  223.19   98.00   1
   1   3   3  254.66  101.04   1
  -1  -3  -3  272.85   68.43   1
  -1  -3  -3  242.24   94.17   1
  -1  -3  -3  231.14  100.62   1
  -1  -3  -3  205.29  109.95   1
   1   3   410179.84 1932.44   1
   1   3   410060.74 2884.26   1
   1   3   410030.53 2879.93   1
   1   3   410343.01 2236.64   1
   1   3   410430.53 2254.68   1
  -1  -3  -410401.33 1931.92   1
  -1  -3  -4 9956.84 2876.07   1
  -1  -3  -410672.22 2883.59   1
  -1  -3  -410813.13 2239.86   1
  -1  -3  -4 9816.13 2251.85   1
   1   3   510932.03 1926.96   1
  -1  -3  -5 8579.78 1926.52   1
   1   3   5 9001.16 1742.52   1
   1   3   5 8509.70 2021.46   1
  -1  -3  -5 9343.09 1741.52   1
  -1  -3  -5 9592.67 2035.71   1
  -1  -3  -6 3726.93  819.84   1
   1   3   6 3933.21  757.93   1
   1   3   6 4039.55  899.37   1
   1   3   6 3780.23  917.92   1
  -1  -3  -6 4004.67  756.65   1
  -1  -3  -6 3852.29  902.00   1
  -1  -3  -7 5276.41  645.37   1
   1   3   7 5658.08 1082.80   1
   1   3   7 6150.40 1267.62   1
   1   3   7 5834.81 1294.46   1
  -1  -3  -7 5535.23 1272.52   1
  -1  -3  -7 5629.02 1283.56   1
   1   3   8  557.87  148.93   1
   1   3   8  725.52  196.50   1
   1   3   8  593.09  219.21   1
  -1  -3  -8  727.73  147.00   1
  -1  -3  -8  493.64  200.53   1
  -1  -3  -8  658.42  209.17   1
   1   3   9  785.12  164.38   1
  -1  -3  -9  757.27  164.83   1
   1   3  10 3725.12 1037.57   1
  -1  -3 -10 5096.20 1038.08   1
  -1  -3 -10 5731.89  952.56   1
   1   3  11 5087.27 1142.93   1
  -1  -3 -11 5005.09  970.30   1
  -1  -3 -11 5071.06 1159.93   1
   1   3  12  132.17   47.20   1
  -1  -3 -12  160.45   47.05   1
  -1  -3 -12  137.42   55.42   1
   1   3  13 2944.35  663.19   1
  -1  -3 -13 3259.96  619.34   1
  -1  -3 -13 3239.57  762.22   1
  -1  -3 -14   44.00   40.60   1
   1   3  14   51.33   79.68   1
  -1  -3 -14   43.53   41.31   1
   1   3  15  191.27  111.17   1
  -1  -3 -15  188.14   64.61   1
  -1  -3 -15  205.27  126.73   1
  -1  -4   028122.42 5883.70   1
   1   4   029618.99 5264.12   1
   1   4   025983.96 7850.58   1
   1   4   030048.21 7851.48   1
   1   4   027395.11 6033.80   1
   1   4   028807.47 6047.13   1
  -1  -4   028501.53 5261.93   1
  -1  -4   027949.38 7846.98   1
  -1  -4   027772.94 7857.55   1
  -1  -4   027001.22 6040.71   1
  -1  -4  -1 1223.89  336.58   1
   1   4   1 1660.85  326.09   1
   1   4   1 1279.55  488.05   1
   1   4   1  972.60  484.94   1
   1   4   1 3150.18  410.33   1
   1   4   1 2602.50  420.74   1
  -1  -4  -1 1579.88  324.83   1
  -1  -4  -1 1628.15  481.19   1
  -1  -4  -1 1550.83  489.41   1
  -1  -4  -1 1737.85  406.21   1
   1   4   2 1356.25  365.35   1
   1   4   2 1842.53  352.98   1
   1   4   2 1588.61  526.17   1
   1   4   2 1442.12  523.10   1
   1   4   2 2065.81  450.59   1
  -1  -4  -2 1835.13  350.60   1
  -1  -4  -2 1954.53  520.61   1
  -1  -4  -2 1873.53  527.57   1
  -1  -4  -2 1845.18  443.77   1
   1   4   316493.71 3364.34   1
  -1  -4  -316704.97 3364.34   1
   1   4   315785.63 3021.31   1
   1   4   316460.33 4508.41   1
   1   4   316757.89 3492.01   1
  -1  -4  -315728.15 3020.35   1
  -1  -4  -315980.40 4510.37   1
  -1  -4  -315167.43 3481.18   1
   1   4   4 9350.09 1802.60   1
   1   4   4 9558.01 2691.86   1
   1   4   4 9367.98 2689.91   1
   1   4   410123.46 2092.35   1
   1   4   4 9735.46 2109.34   1
  -1  -4  -4 9382.68 1801.27   1
  -1  -4  -4 9585.60 2689.90   1
  -1  -4  -4 9704.45 2683.62   1
  -1  -4  -4 9235.93 2095.19   1
  -1  -4  -4 9298.62 2105.23   1
   1   4   5 5552.57 1096.70   1
   1   4   5 5801.52 1286.40   1
   1   4   5 5197.55 1305.20   1
  -1  -4  -5 5895.10 1095.75   1
  -1  -4  -5 5947.18 1289.77   1
  -1  -4  -5 5912.12 1302.19   1
   1   4   6 1011.90  193.27   1
   1   4   6  757.94  199.32   1
   1   4   6  937.25  279.78   1
  -1  -4  -6 1000.82  198.25   1
  -1  -4  -6  829.64  264.44   1
  -1  -4  -6  993.14  275.25   1
   1   4   7 1447.52  279.09   1
  -1  -4  -7 1563.96  280.24   1
   1   4   7 1181.81  277.61   1
   1   4   7 1135.09  368.22   1
  -1  -4  -7 1397.21  275.20   1
  -1  -4  -7 1234.26  354.13   1
   1   4   8  186.61   95.89   1
  -1  -4  -8  131.71   62.11   1
  -1  -4  -8  289.89  108.03   1
  -1  -4  -913969.27 2657.95   1
  -1  -4  -914404.70 3081.29   1
   1   4  10  591.94  154.49   1
  -1  -4 -10  203.28  103.07   1
  -1  -4 -10  513.62  164.56   1
   1   4  11 2075.03  512.34   1
  -1  -4 -11 2066.90  417.08   1
  -1  -4 -11 2098.22  527.18   1
   1   4  12   91.16   40.20   1
  -1  -4 -12  108.74   40.84   1
  -1  -4 -12   99.23   49.46   1
   1   4  13  301.08  131.11   1
  -1  -4 -13  317.12   88.74   1
  -1  -4 -13  275.71  140.43   1
   1   4  14   -2.77   58.36   1
  -1  -4 -14   16.52   35.39   1
  -1  -4 -14   -6.06   68.09   1
   1   5   0  228.46   73.92   1
   1   5   0  271.29  109.03   1
   1   5   0  276.40  109.65   1
   1   5   0  322.72  108.39   1
   1   5   0  246.87  116.95   1
  -1  -5   0  274.70   79.86   1
  -1  -5   0  326.35  112.94   1
  -1  -5   0  246.01  105.90   1
  -1  -5   0  231.48  110.81   1
  -1  -5   0  263.34  115.50   1
   1   5   137441.15 7314.11   1
   1   5   139650.3210910.81   1
   1   5   138280.2010913.17   1
   1   5   138331.33 8381.10   1
  -1  -5  -137194.38 7311.04   1
  -1  -5  -141099.7510913.39   1
  -1  -5  -140611.1610907.07   1
  -1  -5  -138383.81 8370.95   1
  -1  -5  -139763.07 8376.11   1
   1   5   2  141.96   35.87   1
   1   5   2  200.80   53.97   1
   1   5   2  188.37   75.06   1
   1   5   2  154.28   76.96   1
   1   5   2  107.75   88.82   1
  -1  -5  -2  145.77   54.81   1
  -1  -5  -2  140.99   75.28   1
  -1  -5  -2  147.59   71.07   1
  -1  -5  -2  115.14   82.89   1
  -1  -5  -2  147.54   88.10   1
   1   5   317380.65 3469.29   1
   1   5   316628.33 3115.40   1
   1   5   317500.79 4650.92   1
   1   5   315781.41 4646.80   1
   1   5   315606.91 3600.10   1
  -1  -5  -316741.37 3113.24   1
  -1  -5  -315947.34 4646.35   1
  -1  -5  -316450.16 4641.80   1
  -1  -5  -317927.59 3588.63   1
  -1  -5  -316609.45 3595.28   1
   1   5   4  119.21   54.34   1
   1   5   4  107.32   69.17   1
   1   5   4  115.46   65.59   1
   1   5   4  131.68   75.91   1
   1   5   4  143.51   88.59   1
  -1  -5  -4  177.72   52.15   1
  -1  -5  -4  118.71   67.47   1
  -1  -5  -4  129.60   61.69   1
  -1  -5  -4  119.49   81.50   1
  -1  -5  -4  178.36   82.18   1
  -1  -5  -5 4749.23 1119.56   1
   1   5   5 5125.23 1025.24   1
   1   5   5 5796.39 1204.90   1
   1   5   5 4842.29 1224.06   1
  -1  -5  -5 5766.74 1022.67   1
  -1  -5  -5 5355.06 1214.42   1
   1   5   6  582.37  177.67   1
   1   5   6  449.63  197.95   1
  -1  -5  -6  558.69  128.65   1
  -1  -5  -6  501.75  186.12   1
  -1  -5  -6  597.94  188.31   1
   1   5   7  495.70  172.87   1
  -1  -5  -7  549.89  125.50   1
  -1  -5  -7  498.00  184.94   1
   1   5   8  594.76  181.34   1
  -1  -5  -8  530.95  129.29   1
  -1  -5  -8  488.22  192.60   1
   1   5   9  333.75  128.20   1
  -1  -5  -9  297.15   84.78   1
  -1  -5  -9  262.06  138.09   1
   1   5  10  505.17  173.78   1
  -1  -5 -10  486.88  123.00   1
  -1  -5 -10  525.19  187.20   1
   1   5  11   80.79   74.86   1
  -1  -5 -11   53.90   42.82   1
  -1  -5 -11   75.09   82.31   1
   1   5  12  652.39  214.81   1
  -1  -5 -12  705.75  157.52   1
  -1  -5 -12  650.63  229.78   1
   1   5  13  496.88  188.84   1
  -1  -5 -13  601.07  136.68   1
  -1  -5 -13  565.96  208.94   1
   1   6   0    4.34   27.31   1
  -1  -6   0   -5.06   23.89   1
   1   6   0    6.02   24.39   1
   1   6   0    8.75   20.75   1
   1   6   0    5.67   22.22   1
   1   6   0    6.69   38.61   1
  -1  -6   0    1.11   31.89   1
  -1  -6   0    4.16   24.84   1
  -1  -6   0   16.16   20.60   1
  -1  -6   0    6.53   42.53   1
   1   6   1 8672.15 1906.54   1
   1   6   110970.12 2849.09   1
   1   6   1 9007.28 2843.58   1
   1   6   1 9844.67 2210.69   1
   1   6   1 8393.44 2223.30   1
  -1  -6  -111929.80 1910.25   1
  -1  -6  -112093.03 2850.21   1
  -1  -6  -110457.74 2841.08   1
  -1  -6  -1 8435.37 2208.23   1
  -1  -6  -1 9363.10 2219.18   1
   1   6   2 1005.74  260.00   1
   1   6   2 1304.96  388.74   1
   1   6   2  904.85  384.00   1
   1   6   2 1929.89  335.04   1
   1   6   2  867.60  343.70   1
  -1  -6  -2 1482.23  258.05   1
  -1  -6  -2 1388.31  389.55   1
  -1  -6  -2 1171.02  381.49   1
  -1  -6  -2  748.52  331.20   1
  -1  -6  -2 1926.16  341.91   1
   1   6   3 6020.98 1384.31   1
   1   6   3 7872.61 2067.43   1
   1   6   3 6736.34 2062.05   1
   1   6   3 6059.92 1629.45   1
  -1  -6  -3 9435.54 1383.77   1
  -1  -6  -3 7264.34 2063.77   1
  -1  -6  -3 6836.97 2055.80   1
  -1  -6  -3 6074.08 1618.11   1
  -1  -6  -3 9508.65 1629.94   1
  -1  -6  -4 2198.71  470.92   1
   1   6   4 3928.80  548.02   1
   1   6   4 1188.03  560.57   1
  -1  -6  -4 2360.62  444.83   1
  -1  -6  -4  885.05  548.23   1
   1   6   5  927.51  197.18   1
  -1  -6  -5  971.64  197.93   1
  -1  -6  -5  912.97  200.21   1
   1   6   6 3451.53  869.92   1
  -1  -6  -6 3901.07  729.05   1
  -1  -6  -6 3878.30  879.44   1
   1   6   7 6243.64 1399.23   1
  -1  -6  -7 6230.06 1192.79   1
  -1  -6  -7 6310.95 1410.18   1
  -1  -6  -8  533.80  118.70   1
   1   6   8  457.21  176.60   1
  -1  -6  -8  582.30  129.50   1
  -1  -6  -9 2923.35  596.51   1
   1   6   9 2849.58  673.50   1
  -1  -6  -9 2781.05  557.31   1
   1   6  10 1876.47  447.56   1
  -1  -6 -10 1818.94  360.33   1
  -1  -6 -10 1535.94  462.16   1
   1   6  11  966.07  273.17   1
  -1  -6 -11  965.00  210.52   1
  -1  -6 -11  942.72  289.87   1
  -1  -6 -12   98.12    8.97   1
   1   6  12  119.66   80.98   1
  -1  -6 -12  158.38  103.62   1
   1   7   0 1374.92  348.34   1
   1   7   0 2164.78  519.66   1
   1   7   0 1670.68  517.58   1
   1   7   0 1172.82  444.79   1
  -1  -7   0 1873.44  353.77   1
  -1  -7   0 2305.46  526.19   1
  -1  -7   0 1498.45  513.11   1
  -1  -7   0 1040.53  432.06   1
  -1  -7   0 1940.33  440.39   1
   1   7   1 1313.34  336.71   1
   1   7   1  867.86  327.62   1
   1   7   1 1005.24  283.69   1
  -1  -7  -1 1014.00  230.21   1
  -1  -7  -1 1288.65  335.79   1
  -1  -7  -1  866.83  321.82   1
  -1  -7  -1 1066.90  292.94   1
  -1  -7  -2 4041.65  912.99   1
   1   7   2 5043.40 1257.82   1
   1   7   2 3636.57 1250.09   1
   1   7   2 4170.98  995.92   1
  -1  -7  -2 5861.84  846.53   1
  -1  -7  -2 4935.95 1257.66   1
  -1  -7  -2 3636.24 1244.61   1
   1   7   3 7972.62 2531.77   1
   1   7   310074.77 1975.67   1
  -1  -7  -310245.95 1695.48   1
  -1  -7  -3 8638.98 2528.04   1
  -1  -7  -3 8640.14 2521.62   1
  -1  -7  -3 9135.09 1979.96   1
  -1  -7  -4 1427.79  292.36   1
  -1  -7  -4 1357.29  285.60   1
  -1  -7  -5   19.02   35.45   1
   1   7   5   28.90   53.81   1
  -1  -7  -5   11.14   35.31   1
   1   7   6 2655.20  645.67   1
  -1  -7  -6 3176.65  602.52   1
  -1  -7  -6 3429.17  740.16   1
   1   7   7 1879.49  428.75   1
  -1  -7  -7 2012.89  430.31   1
  -1  -7  -7 2152.77  409.02   1
   1   7   8  443.41  162.21   1
  -1  -7  -8  465.24  116.44   1
  -1  -7  -8  500.35  177.14   1
   1   7   9  323.18  137.52   1
  -1  -7  -9  348.40   96.97   1
  -1  -7  -9  415.58  153.62   1
   1   7  10  165.06   44.82   1
  -1  -7 -10  139.04   52.39   1
  -1  -7 -10  171.81   62.72   1
  -1  -7 -11   13.04    7.62   1
   1   8   0 3501.09  909.22   1
   1   8   0 2913.29  735.50   1
  -1  -8   0 2753.57  911.91   1
   1   8   1  647.82  274.78   1
   1   8   1  884.18  241.18   1
  -1  -8  -1  805.09  187.36   1
  -1  -8  -1  797.44  275.26   1
  -1  -8  -1 1015.65  248.31   1
   1   8   2  964.68  347.42   1
   1   8   2 1218.36  296.52   1
  -1  -8  -2 1158.21  242.05   1
  -1  -8  -2  929.17  348.75   1
  -1  -8  -2 1345.32  307.68   1
   1   8   3 1704.10  607.70   1
   1   8   3 2300.67  502.33   1
  -1  -8  -3 2333.21  418.54   1
  -1  -8  -3 1866.47  607.93   1
  -1  -8  -3 2445.07  512.10   1
   1   8   4  221.33  116.37   1
  -1  -8  -4  248.85   88.07   1
  -1  -8  -4  253.25  124.96   1
   1   8   5   20.34   30.64   1
  -1  -8  -5   32.79   50.60   1
  -1  -8  -5   44.16   74.04   1
   1   8   6   24.66   37.26   1
  -1  -8  -6    2.24   47.99   1
  -1  -8  -6    1.78   72.06   1
  -1  -8  -7  638.74  142.27   1
   1   8   7  609.72  205.69   1
  -1  -8  -7  654.94  151.60   1
   1   8   8  329.96  136.00   1
  -1  -8  -8  321.97   94.71   1
  -1  -8  -8  313.75  152.17   1
   1   8   9  628.38  191.09   1
  -1  -8  -9  555.39  139.01   1
  -1  -8  -9  494.73  210.74   1
   1   9   0 2052.41  652.70   1
   1   9   0 2076.80  534.22   1
  -1  -9   0 2265.09  651.54   1
   1   9   1 1861.24  479.97   1
  -1  -9  -1 1892.99  578.13   1
   1   9   2  924.01  166.23   1
  -1  -9  -2  935.75  168.63   1
   1   9   2  587.91  261.19   1
  -1  -9  -2  916.21  188.16   1
  -1  -9  -2  700.85  261.84   1
  -1  -9  -3 1369.34  262.37   1
  -1  -9  -3 1080.93  271.16   1
   1   9   4  789.73  230.94   1
  -1  -9  -4  733.69  188.65   1
  -1  -9  -4  755.59  240.91   1
   1   9   5   47.40   65.88   1
  -1  -9  -5   44.42   54.23   1
  -1  -9  -5   44.10   79.88   1
   1   9   6 1074.17  327.58   1
  -1  -9  -6 1453.72  266.04   1
  -1  -9  -6  994.61  336.69   1
   1   9   7  103.23   49.23   1
  -1  -9  -7  113.82   76.10   1
  -1  -9  -7   21.32  100.62   1
   1  10   0 3021.24 1251.82   1
   1  10   0 6370.55 1002.25   1
   1  10   1    5.49   72.11   1
   1  10   2  568.02  200.99   1
   1  10   3  484.76  111.11   1
  -1 -10  -3  459.52  145.78   1
   1  10   4  958.46  279.78   1
  -1 -10  -4  821.81  223.60   1
  -1 -10  -4  997.92  288.06   1
  -1 -10  -5  112.52  108.26   1
   1  11   0  218.42  146.47   1
   1  11   1  234.06  152.87   1
  -2  12   0 2807.52  688.89   1
  -2  12  -1  738.14  261.15   1
  -2  12  -2  110.47   68.02   1
  -2  12  -3 1309.22  395.23   1
  -2  12  -4 1062.55  348.79   1
  -2  12  -5  424.75  131.16   1
  -2  12  -5  618.70  208.56   1
   2 -11   0    8.72  479.56   1
  -2  11   0 2639.95  485.87   1
  -2  11   0 2129.74  414.64   1
  -2  11  -1  901.69  158.41   1
   2 -11   1   15.43  254.31   1
  -2  11  -1 1191.56  252.63   1
   2 -11   2    8.78  126.38   1
  -2  11  -2  401.07  121.78   1
  -2  11  -2  372.61  142.31   1
   2 -11   3    3.98  152.42   1
  -2  11  -3  539.33  146.52   1
  -2  11  -3  499.13  169.53   1
   2 -11   4   12.14  125.44   1
  -2  11  -4  401.37  118.73   1
  -2  11  -4  320.54  153.84   1
   2 -11   5 1209.41  300.21   1
  -2  11  -5 1965.91  522.06   1
  -2  11  -5 1918.92  481.33   1
   2 -11   6  160.03   96.92   1
  -2  11  -6   57.70   97.12   1
  -2  11  -6  162.70   86.01   1
  -2  11  -6  148.10  150.49   1
  -2  11  -7   28.71   75.96   1
   2 -11   7   64.52   54.97   1
  -2  11  -7  -11.59   94.31   1
  -2  11  -7   34.61   45.81   1
   2 -11   8 9065.27 2214.37   1
  -2  11  -8 7093.87 1494.62   1
  -2  11  -8 6942.80 2201.53   1
  -2  11  -8 7979.60 1802.72   1
   2 -11   9 1849.93  489.22   1
  -2  11  -9 1247.23  346.81   1
  -2  11  -9 1455.05  479.71   1
  -2  11  -9 1241.55  484.14   1
   2 -10   0 7106.93 2081.84   1
  -2  10   0 7304.16 2071.71   1
  -2  10   0 7602.93 1633.42   1
   2 -10   1  661.89  215.67   1
  -2  10  -1  499.05  208.70   1
  -2  10  -1  710.79  206.72   1
   2 -10   2 1168.33  377.83   1
  -2  10  -2 1172.58  373.63   1
  -2  10  -2 1229.37  335.50   1
   2 -10   3 1107.10  397.33   1
  -2  10  -3 1222.24  394.05   1
  -2  10  -3 1697.95  362.21   1
   2 -10   4 4079.74 1129.52   1
  -2  10  -4 3745.94 1124.73   1
  -2  10  -4 3769.31  923.65   1
   2 -10   5  617.64  276.10   1
  -2  10  -5  922.69  273.33   1
  -2  10  -5 1046.98  278.96   1
   2 -10   6 1112.61  210.83   1
  -2  10  -6 1274.70  211.44   1
  -2  10  -6 1030.51  271.96   1
  -2  10  -6 1237.87  368.89   1
   2 -10   7   36.28   47.64   1
  -2  10  -7   36.07   83.46   1
  -2  10  -7   36.60   48.26   1
  -2  10  -7   49.96  122.54   1
   2 -10   8 1773.40  330.82   1
  -2  10  -8 1935.70  330.24   1
  -2  10  -8 1831.77  400.82   1
  -2  10  -8 1981.24  541.01   1
  -2  10  -9   52.16   18.38   1
   2 -10   9   53.45   60.35   1
  -2  10  -9   53.79   56.88   1
  -2  10  -9   98.47  151.26   1
   2 -10  10  769.91  142.93   1
  -2  10 -10  808.87  140.54   1
  -2  10 -10  715.60  203.37   1
  -2  10 -10  665.37  305.61   1
   2 -10  11   10.51   46.92   1
  -2  10 -11   37.64   78.04   1
  -2  10 -11   -3.83   40.59   1
  -2  10 -11  108.93  151.68   1
   2  -9   0 2147.72  654.65   1
  -2   9   0 2258.76  542.82   1
   2  -9   1   49.35   54.61   1
  -2   9  -1  100.26   54.01   1
  -2   9  -1   66.92   81.07   1
   2  -9   2 1973.00  571.79   1
  -2   9  -2 1840.54  569.23   1
  -2   9  -2 1818.62  481.11   1
   2  -9   3 6098.00 1719.78   1
  -2   9  -3 5921.62 1717.13   1
  -2   9  -3 6075.16 1368.23   1
   2  -9   4 4507.13 1273.83   1
  -2   9  -4 4360.05 1271.28   1
  -2   9  -4 4305.37 1029.02   1
   2  -9   5    1.93   27.57   1
  -2   9  -5   -6.70   24.77   1
  -2   9  -5  -11.60   73.00   1
   2  -9   6  254.45  129.59   1
  -2   9  -6  388.19  108.68   1
  -2   9  -6  323.20  126.14   1
  -2   9  -6  319.22  162.24   1
   2  -9   7 4060.62 1157.48   1
  -2   9  -7 4000.74  788.98   1
  -2   9  -7 3964.04 1153.55   1
  -2   9  -7 3776.35  972.84   1
   2  -9   8    8.20   36.73   1
  -2   9  -8   23.18   68.66   1
  -2   9  -8   17.84   36.00   1
  -2   9  -8  -10.66  119.97   1
  -2   9  -9  110.23   69.19   1
   2  -9   9   79.87   66.23   1
  -2   9  -9  108.87   87.82   1
  -2   9  -9   95.62   65.01   1
   2  -9  10 1478.64  464.38   1
  -2   9 -10 1483.04  325.71   1
  -2   9 -10 1423.11  455.99   1
  -2   9 -10 1618.80  444.28   1
  -2   9 -11   64.37   79.65   1
   2  -9  11   72.94   73.61   1
  -2   9 -11  107.06   74.18   1
  -2   9 -11  114.34   69.13   1
   2  -9  12 1109.28  372.25   1
  -2   9 -12  871.89  260.92   1
  -2   9 -12 1258.22  358.96   1
  -2   9 -12  916.88  378.24   1
  -2   9 -13   61.35   16.74   1
   2  -8   0 1297.01  353.70   1
   2  -8   0  757.57  347.56   1
  -2   8   0  766.24  351.22   1
  -2   8   0 1209.84  345.73   1
  -2   8   0 2021.27  311.85   1
   2  -8   1 2616.73  665.39   1
   2  -8   1 1843.97  659.89   1
  -2   8  -1 1671.43  662.20   1
  -2   8  -1 2566.82  657.91   1
  -2   8  -1 2716.49  553.21   1
  -2   8  -2 5988.16 1157.60   1
   2  -8   2 7161.48 1900.02   1
  -2   8  -2 7436.24 1496.19   1
  -2   8  -3  327.32   67.45   1
   2  -8   3  325.50  118.80   1
  -2   8  -3  232.16  112.12   1
   2  -8   4 4017.68 1106.97   1
  -2   8  -4 3630.25 1099.70   1
  -2   8  -4 3926.73  897.99   1
  -2   8  -5 4176.40 1370.35   1
   2  -8   5 5443.59 1863.63   1
  -2   8  -5 9140.21 1279.09   1
  -2   8  -5 7480.97 1858.41   1
   2  -8   6   58.43   66.44   1
  -2   8  -6  127.06   65.32   1
  -2   8  -6   41.06   62.86   1
  -2   8  -6  507.74  113.90   1
   2  -8   7 2871.64  892.19   1
  -2   8  -7 3095.68  608.19   1
  -2   8  -7 3210.16  887.87   1
  -2   8  -7 2833.52  759.04   1
   2  -8   8 1424.39  443.64   1
  -2   8  -8 1474.15  307.50   1
  -2   8  -8 1397.88  440.74   1
   2  -8   9   87.45   78.72   1
  -2   8  -9  154.63   92.48   1
  -2   8  -9  151.62   76.59   1
  -2   8  -9  205.08  138.26   1
   2  -8  10  745.20  241.77   1
  -2   8 -10  565.96  173.09   1
  -2   8 -10  705.57  237.75   1
  -2   8 -10  730.40  268.46   1
   2  -8  11  827.53  174.72   1
  -2   8 -11 1054.89  175.47   1
  -2   8 -11  998.95  228.55   1
  -2   8 -11 1083.08  340.17   1
   2  -8  12 1564.10  472.41   1
  -2   8 -12 1438.58  325.97   1
  -2   8 -12 1610.92  460.73   1
  -2   8 -12  802.01  439.51   1
  -2   8 -13  179.26  108.40   1
   2  -8  13  629.05  180.31   1
  -2   8 -13  353.04  126.97   1
  -2   8 -13  388.10  165.60   1
  -2   8 -14   61.73   67.47   1
  -2   7   0 1453.92  376.45   1
   2  -7   0 1959.32  537.29   1
   2  -7   0 1928.11  538.67   1
   2  -7   0 1456.15  446.49   1
  -2   7   0 1313.37  359.67   1
  -2   7   0 1692.73  539.43   1
  -2   7   0 2298.56  533.95   1
  -2   7   0 1364.30  458.29   1
  -2   7  -1  459.42  104.14   1
   2  -7   1  568.88  172.20   1
   2  -7   1  469.25  170.97   1
   2  -7   1  364.06  165.87   1
  -2   7  -1  382.40  116.55   1
  -2   7  -1  470.80  173.37   1
  -2   7  -1  588.07  168.50   1
  -2   7  -1  350.67  174.27   1
   2  -7   2  452.73  159.30   1
  -2   7  -2  929.47  135.82   1
  -2   7  -2  452.93  161.02   1
   2  -7   2  941.33  250.89   1
   2  -7   2  725.27  248.12   1
  -2   7  -2  508.73  166.50   1
  -2   7  -2  883.34  253.52   1
  -2   7  -2  769.33  232.64   1
   2  -7   3 5801.87  802.20   1
   2  -7   3 3916.89 1318.04   1
   2  -7   3 3343.59 1049.11   1
  -2   7  -3 3905.51  884.31   1
  -2   7  -3 4251.79 1325.46   1
  -2   7  -3 5308.27 1317.60   1
  -2   7  -3 5922.35 1064.08   1
  -2   7  -3 4231.74 1054.38   1
   2  -7   4  439.27  164.11   1
   2  -7   4  417.81  159.31   1
   2  -7   4  237.45  156.68   1
  -2   7  -4  263.01  110.18   1
  -2   7  -4  479.70  165.53   1
  -2   7  -4  696.25  159.22   1
  -2   7  -4  497.13  165.20   1
  -2   7  -4  305.17  162.54   1
   2  -7   5  323.75   48.06   1
   2  -7   5   93.30   54.40   1
  -2   7  -5  126.39   56.57   1
   2  -7   5  209.30   97.99   1
  -2   7  -5  424.06   90.27   1
  -2   7  -5  156.24   80.22   1
  -2   7  -5  169.93  102.99   1
  -2   7  -5  257.86   97.38   1
  -2   7  -5  358.08  117.65   1
   2  -7   6 1468.74  271.14   1
  -2   7  -6 1507.62  323.20   1
  -2   7  -6 1816.56  424.42   1
   2  -7   7 8149.68 1394.89   1
  -2   7  -7 7181.56 1393.88   1
  -2   7  -7 9173.49 1533.21   1
  -2   7  -7 8892.15 1810.51   1
   2  -7   8  569.70  237.95   1
  -2   7  -8  778.51  176.11   1
  -2   7  -8  751.39  233.38   1
  -2   7  -8  802.68  250.71   1
   2  -7   9 2698.57  790.85   1
  -2   7  -9 2718.53  785.78   1
  -2   7  -9 2419.17  675.98   1
   2  -7  10 6960.99 2012.88   1
  -2   7 -10 7025.04 1354.26   1
  -2   7 -10 7506.51 1621.65   1
   2  -7  11  577.07  186.33   1
  -2   7 -11  449.26  181.52   1
  -2   7 -11  421.19  213.06   1
   2  -7  12   31.57   23.01   1
  -2   7 -12   14.91    9.85   1
  -2   7 -12   16.72   24.09   1
  -2   7 -12   23.15   97.67   1
   2  -7  13   76.07   65.42   1
  -2   7 -13   70.92   63.54   1
  -2   7 -13   72.89   60.33   1
  -2   7 -13   48.38  118.53   1
   2  -7  14    9.22   60.09   1
   2  -7  14   -2.98  143.13   1
  -2   7 -14   37.11   42.56   1
  -2   7 -14   10.61   46.47   1
  -2   7 -14   59.84  132.53   1
   2  -6   0 1751.12  574.78   1
   2  -6   0 3212.35  803.47   1
   2  -6   0 2706.10  803.05   1
   2  -6   0 3000.39  655.85   1
  -2   6   0 2573.96  537.15   1
  -2   6   0 2655.49  805.20   1
  -2   6   0 2775.97  796.17   1
  -2   6   0 2840.49  653.87   1
  -2   6   0 2815.02  669.95   1
   2  -6   1  263.73   47.45   1
  -2   6  -1  223.80   46.32   1
   2  -6   1  241.26   85.95   1
   2  -6   1  123.79   84.77   1
  -2   6  -1  118.48   58.26   1
  -2   6  -1   99.03   86.38   1
  -2   6  -1  156.33   80.52   1
  -2   6  -1  563.96   98.54   1
   2  -6   244414.9510937.88   1
   2  -6   244007.6210937.02   1
   2  -6   224969.70 8389.53   1
  -2   6  -239794.77 7331.05   1
  -2   6  -235552.7710942.01   1
  -2   6  -239188.1310932.11   1
  -2   6  -241318.54 8397.83   1
  -2   6  -233807.51 8394.33   1
   2  -6   3 3464.88  905.07   1
   2  -6   3 2912.25  903.14   1
   2  -6   3 2332.45  731.04   1
  -2   6  -3 3051.17  606.91   1
  -2   6  -3 2919.03  910.02   1
  -2   6  -3 3492.95  900.66   1
  -2   6  -3 3516.13  744.99   1
  -2   6  -3 2652.23  739.35   1
  -2   6  -4 2465.65  720.63   1
   2  -6   4 3785.16  995.57   1
   2  -6   4 2949.29  994.02   1
   2  -6   4 2837.87  800.48   1
  -2   6  -4 4097.27  676.88   1
  -2   6  -4 3307.70 1001.49   1
  -2   6  -4 3957.54  992.23   1
  -2   6  -4 3312.39  809.51   1
   2  -6   5 1295.97  400.83   1
   2  -6   5 1294.11  399.16   1
   2  -6   5  641.01  346.69   1
  -2   6  -5 1606.01  277.64   1
  -2   6  -5 1147.57  274.68   1
  -2   6  -5 1217.54  405.85   1
  -2   6  -5 1671.41  397.79   1
  -2   6  -5 1517.28  357.63   1
  -2   6  -5  772.72  349.16   1
  -2   6  -6 4285.95  837.95   1
   2  -6   6 4667.32 1151.95   1
   2  -6   6 3464.17 1147.59   1
   2  -6   6 2293.02  915.21   1
  -2   6  -6 4807.35  777.54   1
  -2   6  -6 3767.88 1154.56   1
  -2   6  -6 4712.64 1146.13   1
  -2   6  -6 2847.42  924.51   1
  -2   6  -7 4181.86  886.90   1
   2  -6   7 5031.78 1217.87   1
   2  -6   7 3255.64 1210.49   1
   2  -6   7 2219.81  961.99   1
  -2   6  -7 5622.15  822.20   1
  -2   6  -7 2458.27 1216.87   1
  -2   6  -7 6330.69 1209.94   1
  -2   6  -7 3236.01  972.22   1
   2  -6   8 2737.21  793.14   1
  -2   6  -8 2646.24  537.47   1
  -2   6  -8 2681.69  784.25   1
  -2   6  -8 2640.63  667.74   1
   2  -6   9  549.04  212.22   1
  -2   6  -9  435.29  146.48   1
  -2   6  -9  635.97  206.91   1
  -2   6  -9 1054.29  235.24   1
   2  -6  10 1032.79  321.52   1
  -2   6 -10 1089.85  224.37   1
  -2   6 -10  929.77  316.04   1
  -2   6 -10  885.81  315.72   1
   2  -6  11  959.64  318.93   1
  -2   6 -11  955.85  220.02   1
  -2   6 -11 1052.11  313.59   1
   2  -6  12  353.03  151.51   1
  -2   6 -12  378.59  112.91   1
  -2   6 -12  390.98  147.77   1
  -2   6 -12  397.36  182.69   1
   2  -6  13   47.43   55.13   1
  -2   6 -13   63.31   56.65   1
   2  -6  13   85.27   62.62   1
  -2   6 -13   75.79   63.46   1
  -2   6 -13   70.59   59.69   1
   2  -6  14 1083.17  112.70   1
  -2   6 -14  609.76  134.66   1
   2  -6  14  682.86  216.28   1
  -2   6 -14  600.04  143.63   1
  -2   6 -14   -5.68  186.46   1
  -2   6 -15  -11.43   88.36   1
   2  -6  15  175.68  148.95   1
  -2   6 -15   96.85   71.72   1
   2  -5   034532.14 8983.09   1
   2  -5   031262.02 8985.23   1
   2  -5   031138.88 6898.31   1
   2  -5   030973.69 6900.89   1
  -2   5   033628.35 6021.35   1
  -2   5   032239.23 8987.71   1
  -2   5   030978.44 8977.98   1
  -2   5   032553.93 6897.81   1
  -2   5   031382.81 6911.52   1
   2  -5   1 3315.70  880.90   1
   2  -5   1 3028.65  883.21   1
   2  -5   1 2210.26  713.56   1
  -2   5  -1 3149.13  589.57   1
  -2   5  -1 2791.73  883.50   1
  -2   5  -1 3111.75  876.57   1
  -2   5  -1 3037.64  719.58   1
  -2   5  -1 3293.71  720.54   1
   2  -5   2    2.55   10.94   1
   2  -5   2    1.67   22.06   1
   2  -5   2   82.40   40.02   1
  -2   5  -2    7.86   24.45   1
  -2   5  -2    7.97   23.64   1
  -2   5  -2    1.86   20.27   1
  -2   5  -2   14.37   37.98   1
  -2   5  -2   23.57   39.99   1
   2  -5   3 1151.52  340.98   1
   2  -5   3 1643.35  490.87   1
   2  -5   3 1621.29  491.10   1
  -2   5  -3 2018.26  335.08   1
  -2   5  -3 1559.90  496.33   1
  -2   5  -3 1691.86  485.11   1
  -2   5  -3 1551.30  419.56   1
  -2   5  -3 1570.14  421.70   1
   2  -5   4  883.60  288.18   1
   2  -5   4  863.92  287.07   1
   2  -5   4  633.16  256.45   1
  -2   5  -4  930.84  199.83   1
  -2   5  -4  886.76  292.84   1
  -2   5  -4 1105.61  282.39   1
  -2   5  -4  858.36  261.25   1
  -2   5  -4  700.65  260.74   1
   2  -5   529217.13 7259.75   1
   2  -5   525583.34 7257.90   1
   2  -5   5 9926.79 5577.82   1
  -2   5  -529253.43 4870.46   1
  -2   5  -528085.85 7264.86   1
  -2   5  -524980.18 7253.81   1
  -2   5  -533181.85 5601.84   1
   2  -5   6 8264.88 2096.03   1
   2  -5   6 6775.60 2094.33   1
   2  -5   6 4424.00 1643.31   1
  -2   5  -6 7846.96 1410.28   1
  -2   5  -6 7138.74 2101.21   1
  -2   5  -6 8463.07 2092.21   1
  -2   5  -6 7163.12 1658.02   1
  -2   5  -6 6871.16 1646.87   1
   2  -5   7 5847.31 1563.09   1
   2  -5   7 4970.00 1560.16   1
  -2   5  -7 6480.00 1054.31   1
  -2   5  -7 4323.63 1566.72   1
  -2   5  -7 5943.89 1558.39   1
  -2   5  -7 5743.73 1254.28   1
   2  -5   8 8831.75 1822.08   1
   2  -5   8 5166.54 1813.97   1
   2  -5   8 4072.03 1433.48   1
  -2   5  -8 7717.39 1222.87   1
  -2   5  -8 4631.18 1820.84   1
  -2   5  -8 7128.95 1812.75   1
  -2   5  -9   18.26   32.21   1
   2  -5   9   30.34   36.58   1
  -2   5  -9   30.74   39.94   1
  -2   5  -9   24.09   32.46   1
   2  -5  10 6186.46 1823.44   1
  -2   5 -10 6352.69 1224.88   1
  -2   5 -10 6538.47 1816.64   1
  -2   5 -10 6576.09 1462.95   1
   2  -5  11 1023.81  308.15   1
  -2   5 -11  945.82  212.99   1
  -2   5 -11  906.27  303.81   1
  -2   5 -11  792.68  299.61   1
   2  -5  12  735.00  253.70   1
   2  -5  12  746.34  244.20   1
  -2   5 -12  761.01  177.10   1
  -2   5 -12  721.31  249.15   1
  -2   5 -12  770.01  263.04   1
   2  -5  13 3381.55  925.32   1
   2  -5  13 3014.39  760.41   1
  -2   5 -13 2966.47  622.07   1
  -2   5 -13 3094.52  917.81   1
  -2   5 -13 3057.12  784.11   1
   2  -5  14 7750.01 1377.17   1
   2  -5  14 6649.12 1103.94   1
  -2   5 -14 7092.03  923.16   1
  -2   5 -14   13.07 1353.88   1
  -2   5 -14 7100.18 1129.66   1
   2  -5  15 2775.33  602.04   1
   2  -5  15 1779.01  518.25   1
  -2   5 -15 1910.31  401.75   1
  -2   5 -15   13.15  525.02   1
   2  -4   0 2723.83  852.03   1
   2  -4   0 3142.52  853.66   1
   2  -4   0 3415.94  690.30   1
   2  -4   0 2697.50  692.00   1
  -2   4   0 2846.50  567.94   1
  -2   4   0 2455.60  854.55   1
  -2   4   0 3105.27  844.76   1
  -2   4   0 2968.27  688.45   1
  -2   4   0 3154.19  700.88   1
   2  -4   113959.29 3512.30   1
   2  -4   114180.70 3513.64   1
   2  -4   111162.90 2724.18   1
  -2   4  -111909.07 2351.44   1
  -2   4  -111818.36 3515.07   1
  -2   4  -111441.64 3505.07   1
  -2   4  -113770.17 2731.94   1
  -2   4  -111307.50 2726.70   1
   2  -4   220600.42 6253.98   1
   2  -4   223390.76 4813.31   1
  -2   4  -223021.60 4192.40   1
  -2   4  -220986.20 6253.91   1
  -2   4  -227102.71 4823.96   1
  -2   4  -223487.29 4822.88   1
   2  -4   3 2940.60  728.56   1
   2  -4   3 2088.38  729.24   1
   2  -4   3 2269.85  594.39   1
  -2   4  -3 2545.48  492.31   1
  -2   4  -3 2295.02  731.40   1
  -2   4  -3 2734.20  723.29   1
  -2   4  -3 2248.95  596.87   1
  -2   4  -3 2314.59  600.05   1
   2  -4   441888.5311665.22   1
   2  -4   443083.2611666.57   1
   2  -4   434695.95 8945.35   1
  -2   4  -439279.64 7822.11   1
  -2   4  -445045.8811670.78   1
  -2   4  -442291.1111660.03   1
  -2   4  -442295.45 8959.48   1
   2  -4   5 3196.95  602.34   1
   2  -4   5 3563.74 1001.04   1
   2  -4   5 3773.36  809.91   1
  -2   4  -5 3631.93  675.29   1
  -2   4  -5 2743.88 1005.50   1
  -2   4  -5 3783.26  995.00   1
  -2   4  -5 3833.43  818.08   1
   2  -4   6 2889.64  736.82   1
   2  -4   6 2178.14  734.88   1
   2  -4   6 2525.18  612.01   1
  -2   4  -6 2748.32  496.79   1
  -2   4  -6 2187.08  740.16   1
  -2   4  -6 2492.68  729.79   1
  -2   4  -6 2873.55  615.40   1
   2  -4   7  998.66  294.53   1
   2  -4   7  692.49  293.21   1
   2  -4   7 1077.13  271.71   1
  -2   4  -7  995.63  201.79   1
  -2   4  -7  648.79  298.03   1
  -2   4  -7 1063.94  290.49   1
  -2   4  -7 1370.50  281.11   1
   2  -4   810899.60 2976.78   1
   2  -4   815012.24 3994.42   1
   2  -4   812025.12 3992.07   1
  -2   4  -812722.06 3997.67   1
  -2   4  -817288.89 3989.71   1
  -2   4  -815475.68 3114.34   1
   2  -4   9 4319.00  998.79   1
   2  -4   9 2683.43  992.01   1
   2  -4   9 2488.44  807.63   1
  -2   4  -9 3665.49  670.72   1
  -2   4  -9 2640.51  996.67   1
  -2   4  -9 3981.83  989.55   1
  -2   4  -9 4410.33  826.95   1
   2  -4  10 1162.32  370.38   1
  -2   4 -10 1201.53  253.04   1
  -2   4 -10 1160.32  361.98   1
   2  -4  11  579.32  218.73   1
   2  -4  11  635.56  214.80   1
  -2   4 -11  682.19  152.20   1
  -2   4 -11  622.46  213.38   1
  -2   4 -11  658.96  231.42   1
   2  -4  12 1939.57  596.38   1
   2  -4  12 2031.36  505.96   1
  -2   4 -12 1995.15  403.45   1
  -2   4 -12 1972.85  591.89   1
  -2   4 -12 1864.19  524.73   1
   2  -4  13 3587.28 1058.85   1
  -2   4 -13 3197.41 1060.45   1
   2  -4  13 6380.57 1455.25   1
  -2   4 -13 5656.62  978.87   1
  -2   4 -13 4650.80 1447.71   1
   2  -4  14  132.86   93.29   1
   2  -4  14  124.15  117.46   1
  -2   4 -14  143.32   64.82   1
  -2   4 -14   -5.04   70.79   1
  -2   4 -14  356.10  152.85   1
   2  -4  15 1147.55  233.13   1
   2  -4  15  791.95  232.95   1
  -2   4 -15  924.51  157.61   1
  -2   4 -15    0.33  213.85   1
  -2   4 -15   76.65  231.18   1
  -2   4 -16  495.47   16.52   1
   2  -3   0 2957.46  830.21   1
   2  -3   0 2715.75  831.06   1
   2  -3   0 2831.49  672.42   1
  -2   3   0 2837.89  551.84   1
  -2   3   0 2680.16  833.58   1
  -2   3   0 2802.59  825.04   1
  -2   3   0 3129.73  672.21   1
  -2   3   0 2986.00  682.11   1
  -2   3  -1 7792.12 1319.58   1
   2  -3   1 8056.18 2155.22   1
   2  -3   1 7416.40 2156.87   1
   2  -3   1 7075.17 1685.29   1
  -2   3  -1 7748.52 1444.15   1
  -2   3  -1 7364.50 2150.52   1
  -2   3  -1 7826.71 1691.99   1
  -2   3  -1 7474.38 1692.20   1
   2  -3   2 2970.59  807.36   1
   2  -3   2 2883.57  809.29   1
   2  -3   2 2271.63  654.77   1
  -2   3  -2 2695.88  810.52   1
  -2   3  -2 2875.68  800.40   1
  -2   3  -2 2405.26  654.18   1
  -2   3  -2 2670.82  659.63   1
   2  -3   3 4968.70  775.68   1
  -2   3  -3 4547.56  774.93   1
   2  -3   3 5144.22 1281.91   1
   2  -3   3 4531.18 1021.04   1
  -2   3  -3 4061.69  856.73   1
  -2   3  -3 3626.90 1281.27   1
  -2   3  -3 4106.91 1025.41   1
   2  -3   4  472.52  174.32   1
   2  -3   4  491.48  175.53   1
   2  -3   4  488.87  172.67   1
  -2   3  -4  534.78  120.10   1
  -2   3  -4  530.15  175.41   1
  -2   3  -4  494.09  168.79   1
  -2   3  -4  473.12  171.47   1
   2  -3   5 4795.87  781.14   1
  -2   3  -5 4292.15  780.67   1
   2  -3   5 4599.19 1287.16   1
   2  -3   5 4173.18 1032.52   1
  -2   3  -5 4464.16  864.31   1
  -2   3  -5 4546.87 1282.10   1
  -2   3  -5 4147.80 1037.34   1
   2  -3   6 7672.01 2154.83   1
   2  -3   6 7112.26 2156.07   1
   2  -3   6 7130.20 1699.11   1
  -2   3  -6 7925.07 1447.41   1
  -2   3  -6 7440.63 2157.10   1
  -2   3  -6 8115.16 2148.90   1
  -2   3  -6 7350.89 1702.96   1
   2  -3   7 4642.23 1322.29   1
   2  -3   7 4461.13 1321.95   1
  -2   3  -7 5050.61  888.38   1
  -2   3  -7 4288.93 1323.03   1
  -2   3  -7 4732.35 1314.81   1
  -2   3  -7 4599.48 1067.86   1
   2  -3   8  678.41  234.59   1
   2  -3   8  628.87  236.03   1
   2  -3   8  527.23  225.74   1
  -2   3  -8  838.18  162.89   1
  -2   3  -8  605.56  236.57   1
  -2   3  -8  864.03  231.17   1
  -2   3  -8  737.12  231.95   1
   2  -3   9 2353.71  627.48   1
   2  -3   9 1877.82  626.02   1
   2  -3   9 2407.19  522.75   1
   2  -3   9 1194.69  528.15   1
  -2   3  -9 2391.54  423.09   1
  -2   3  -9 1825.68  626.44   1
  -2   3  -9 2225.77  621.34   1
  -2   3  -9 2559.58  541.21   1
   2  -3  10 3330.10  910.61   1
   2  -3  10 2696.05  737.82   1
  -2   3 -10 3356.78  611.36   1
  -2   3 -10 2979.82  900.69   1
  -2   3 -10 3036.95  757.19   1
  -2   3 -11  576.79  129.75   1
   2  -3  11  533.34  199.71   1
   2  -3  11  534.02  197.22   1
  -2   3 -11  646.47  140.07   1
  -2   3 -11  542.88  194.43   1
   2  -3  12 1564.73  514.26   1
   2  -3  12 1805.69  444.86   1
  -2   3 -12 1682.62  346.80   1
  -2   3 -12 1796.74  461.34   1
   2  -3  13   97.67   48.46   1
  -2   3 -13  107.62   48.24   1
   2  -3  13   98.53   67.01   1
  -2   3 -13   90.29   55.35   1
  -2   3 -13   71.99   62.78   1
   2  -3  14 1920.85  361.07   1
   2  -3  14 1261.06  322.92   1
  -2   3 -14 1654.45  240.57   1
  -2   3 -14   -3.40  338.22   1
  -2   3 -14 1323.58  335.05   1
   2  -3  15 1260.02  330.46   1
  -2   3 -15 1529.22  243.53   1
  -2   3 -15   27.26  322.90   1
  -2   3 -16  145.44   70.56   1
   2  -2   0  168.69   89.58   1
   2  -2   0  175.27   90.74   1
   2  -2   0  319.88   91.35   1
  -2   2   0  128.43   64.28   1
  -2   2   0  194.14   60.66   1
  -2   2   0  191.65   89.84   1
  -2   2   0  166.26   88.85   1
  -2   2   0  426.29   95.61   1
  -2   2   0  277.64   97.81   1
   2  -2   1 7172.19 1968.60   1
   2  -2   1 7666.86 1969.40   1
   2  -2   1 5722.77 1541.47   1
  -2   2  -1 5782.74 1314.26   1
  -2   2  -1 8839.66 1971.87   1
  -2   2  -1 6869.33 1961.95   1
  -2   2  -1 5388.72 1536.90   1
  -2   2  -1 6348.94 1545.06   1
   2  -2   2  228.20  115.49   1
   2  -2   2  228.88  115.97   1
   2  -2   2  550.10  116.22   1
  -2   2  -2  215.72  116.19   1
  -2   2  -2  242.45  111.61   1
  -2   2  -2  598.70  116.80   1
   2  -2   3 2876.27  876.23   1
   2  -2   3 2997.24  878.70   1
   2  -2   3 4565.46  714.40   1
  -2   2  -3 2376.42  586.74   1
  -2   2  -3 2662.76  879.46   1
  -2   2  -3 2784.34  870.68   1
  -2   2  -3 4590.90  717.71   1
   2  -2   414274.78 4223.85   1
   2  -2   414441.42 4225.46   1
   2  -2   418316.44 3276.07   1
  -2   2  -413309.20 2829.66   1
  -2   2  -415748.45 4226.91   1
  -2   2  -415290.21 4216.23   1
  -2   2  -416602.57 3277.87   1
   2  -2   5 1509.15  298.04   1
   2  -2   5 1374.03  429.02   1
   2  -2   5 1421.92  431.50   1
   2  -2   5 1479.82  369.60   1
  -2   2  -5 1442.59  290.30   1
  -2   2  -5 1372.37  432.87   1
  -2   2  -5 1311.03  423.51   1
  -2   2  -5 1684.37  379.10   1
   2  -2   6 1277.47  333.17   1
   2  -2   6 1419.36  487.46   1
   2  -2   6 1482.91  490.05   1
   2  -2   6 1959.00  409.70   1
   2  -2   6 2486.89  417.95   1
  -2   2  -6 1447.23  328.59   1
  -2   2  -6 1419.60  490.90   1
  -2   2  -6 1517.81  481.97   1
  -2   2  -6 2974.17  429.22   1
   2  -2   7 6124.21 1350.16   1
   2  -2   7 7771.02 2004.99   1
   2  -2   7 7049.90 2007.53   1
   2  -2   7 7591.07 1573.44   1
   2  -2   7 7016.51 1580.47   1
  -2   2  -7 6898.17 1346.49   1
  -2   2  -7 6424.35 2008.66   1
  -2   2  -7 6952.65 1998.11   1
  -2   2  -7 8646.72 1594.45   1
   2  -2   8 2926.46  675.27   1
   2  -2   8 4247.14  998.05   1
   2  -2   8 3327.41  999.25   1
   2  -2   8 2815.10  813.26   1
  -2   2  -8 3597.65  671.55   1
  -2   2  -8 3195.50 1000.26   1
  -2   2  -8 3450.96  991.17   1
  -2   2  -8 3165.36  821.35   1
   2  -2   9 6524.43 1640.14   1
   2  -2   9 9089.47 2433.82   1
   2  -2   9 8004.72 2435.18   1
   2  -2   9 8977.82 1905.23   1
   2  -2   9 6182.61 1912.93   1
  -2   2  -910276.02 1635.68   1
  -2   2  -9 8238.86 2437.36   1
  -2   2  -9 9508.77 2428.89   1
  -2   2  -9 8522.07 1920.07   1
   2  -2  10 4026.45 1023.36   1
   2  -2  10 2589.76 1017.04   1
   2  -2  10 4189.18  828.96   1
  -2   2 -10 3792.29  685.61   1
  -2   2 -10 2726.44 1020.16   1
  -2   2 -10 3909.23 1013.05   1
  -2   2 -10 4390.12  843.21   1
   2  -2  11 4119.06 1384.71   1
   2  -2  11 5375.44 1111.04   1
  -2   2 -11 4707.90  930.76   1
  -2   2 -11 4912.89 1378.89   1
  -2   2 -11 6129.68 1128.39   1
   2  -2  12 4755.97 1374.24   1
   2  -2  12 4556.74 1100.36   1
  -2   2 -12 4660.54  922.75   1
  -2   2 -12 4823.59 1369.86   1
  -2   2 -12 5075.49 1115.75   1
   2  -2  13  859.32  270.35   1
   2  -2  13  733.00  251.07   1
  -2   2 -13  927.36  181.28   1
  -2   2 -13  619.94  261.29   1
  -2   2 -13  855.25  260.52   1
   2  -2  14 2735.69  555.00   1
   2  -2  14 2401.01  471.80   1
  -2   2 -14 2827.19  366.99   1
  -2   2 -14    0.37  533.71   1
  -2   2 -14 1900.67  475.73   1
   2  -2  15  386.76  136.29   1
  -2   2 -15  -20.48  121.36   1
  -2   2 -16  202.39   72.26   1
  -2   1   0  275.21   46.55   1
   2  -1   0  276.34  105.85   1
  -2   1   0  230.64   68.04   1
  -2   1   0  234.30  107.30   1
   2  -1   111276.31 1970.93   1
   2  -1   110297.40 3204.93   1
   2  -1   110889.76 2476.98   1
   2  -1   111750.64 2481.74   1
  -2   1  -113258.63 3204.85   1
  -2   1  -110490.82 3202.23   1
  -2   1  -111468.56 2495.15   1
  -2   1  -112073.72 2487.57   1
  -2   1  -2 2248.45  370.71   1
   2  -1   2 2107.80  422.10   1
   2  -1   2 2049.35  633.43   1
   2  -1   2 2246.98  634.11   1
   2  -1   2 1767.40  516.39   1
  -2   1  -2 2403.47  421.22   1
  -2   1  -2 1931.48  629.95   1
  -2   1  -2 2312.35  532.05   1
   2  -1   3 1040.03  261.85   1
   2  -1   3 1298.83  394.91   1
   2  -1   3 1591.70  395.98   1
   2  -1   3 1151.43  330.65   1
   2  -1   3 1055.06  334.96   1
  -2   1  -3 1368.88  396.18   1
  -2   1  -3 1268.85  389.20   1
  -2   1  -3 1091.46  347.99   1
   2  -1   4 4169.61  724.68   1
   2  -1   4 4054.75  802.18   1
   2  -1   4 4036.93 1199.57   1
   2  -1   4 3860.90  952.06   1
   2  -1   4 4093.75  961.78   1
  -2   1  -4 3497.79  803.87   1
  -2   1  -4 4257.97 1206.03   1
  -2   1  -4 4808.53 1194.51   1
  -2   1  -4 4206.77  969.45   1
   2  -1   5 1562.88  322.67   1
   2  -1   5 1552.85  481.87   1
   2  -1   5 1562.73  485.20   1
   2  -1   5 1607.57  404.53   1
   2  -1   5 1671.51  415.82   1
  -2   1  -5 1519.63  323.32   1
  -2   1  -5 1575.32  486.84   1
  -2   1  -5 1675.07  474.52   1
  -2   1  -5 1596.46  417.02   1
   2  -1   6 1434.54  346.54   1
   2  -1   6 1651.21  336.45   1
   2  -1   6 1647.07  499.41   1
   2  -1   6 1682.43  503.53   1
   2  -1   6 1833.17  432.16   1
  -2   1  -6 1559.10  335.60   1
  -2   1  -6 1558.95  505.34   1
  -2   1  -6 1726.35  493.10   1
  -2   1  -6 1894.74  434.31   1
   2  -1   712016.99 2385.79   1
   2  -1   713708.98 3554.98   1
   2  -1   712050.47 3561.16   1
   2  -1   712735.80 2761.04   1
   2  -1   711928.79 2774.29   1
  -2   1  -712545.55 2385.76   1
  -2   1  -713127.92 3561.28   1
  -2   1  -712511.38 3549.69   1
  -2   1  -712232.00 2777.71   1
   2  -1   810774.62 2156.70   1
   2  -1   811740.52 3212.42   1
   2  -1   810786.88 3215.16   1
   2  -1   812722.50 2499.16   1
   2  -1   812288.67 2515.45   1
  -2   1  -811838.53 2155.93   1
  -2   1  -8 9716.09 3216.07   1
  -2   1  -811902.46 3205.17   1
  -2   1  -812643.82 2516.49   1
   2  -1   9 1732.49  465.85   1
   2  -1   9 2316.22  686.50   1
   2  -1   9 2047.93  689.86   1
   2  -1   9 2494.18  570.74   1
   2  -1   9 2337.83  590.91   1
  -2   1  -9 2541.93  464.36   1
  -2   1  -9 2076.53  692.31   1
  -2   1  -9 2736.15  682.41   1
  -2   1  -9 2626.07  585.45   1
  -2   1 -10  831.58  150.95   1
   2  -1  10  783.20  239.21   1
   2  -1  10  554.51  235.82   1
   2  -1  10  623.42  221.18   1
  -2   1 -10  868.11  162.25   1
  -2   1 -10  581.88  238.54   1
  -2   1 -10  731.29  230.23   1
   2  -1  11  966.98  312.15   1
   2  -1  11  941.89  283.45   1
  -2   1 -11  983.52  210.67   1
  -2   1 -11  961.07  307.15   1
  -2   1 -11  915.80  292.51   1
   2  -1  12 9313.82 2516.84   1
   2  -1  12 8003.23 1971.97   1
  -2   1 -12 8740.24 1686.80   1
  -2   1 -12 8934.47 2512.21   1
  -2   1 -12 8863.97 1985.04   1
   2  -1  13  446.82  174.16   1
   2  -1  13  383.01  172.64   1
  -2   1 -13  451.42  112.72   1
  -2   1 -13  422.32  163.96   1
  -2   1 -13  366.80  174.21   1
  -2   1 -14   41.31    6.85   1
   2  -1  14   39.17   64.40   1
   2  -1  14   11.27   82.56   1
  -2   1 -14   15.06   68.44   1
  -2   1 -14   10.85   71.41   1
   2  -1  15  152.52  113.65   1
  -2   1 -15  143.78   53.22   1
  -2   1 -15   -2.84   94.19   1
   2   0   0 3383.68  973.61   1
   2   0   0 2824.23  973.25   1
  -2   0   0 3758.77  649.68   1
  -2   0   0 3599.59  972.34   1
  -2   0   0 3321.29  975.40   1
   2   0   1 5021.54  898.64   1
  -2   0  -1 4860.16  898.66   1
   2   0   1 5918.67 1484.91   1
   2   0   1 4377.14 1165.08   1
   2   0   1 6398.35 1172.30   1
  -2   0  -1 4990.52  990.53   1
  -2   0  -1 4976.69 1482.82   1
  -2   0  -1 5267.86 1179.01   1
   2   0   2 6078.82 1787.32   1
   2   0   2 6215.28 1782.94   1
   2   0   2 6538.93 1398.49   1
   2   0   2 6016.02 1407.27   1
  -2   0  -2 6128.27 1193.25   1
  -2   0  -2 6306.62 1787.15   1
  -2   0  -2 6607.58 1784.59   1
  -2   0  -2 6176.92 1414.11   1
   2   0   3 2027.01  475.88   1
   2   0   3 2231.56  713.21   1
   2   0   3 2329.19  715.22   1
   2   0   3 3589.15  592.40   1
  -2   0  -3 2038.28  475.62   1
  -2   0  -3 2600.03  715.54   1
  -2   0  -3 2441.21  710.40   1
  -2   0  -3 3051.00  593.99   1
   2   0   437566.21 7672.22   1
   2   0   443472.3211448.76   1
   2   0   445170.2811452.35   1
   2   0   435957.88 8778.37   1
   2   0   439260.49 8789.45   1
  -2   0  -438873.67 7672.25   1
  -2   0  -444229.6811450.85   1
  -2   0  -439875.5711443.77   1
  -2   0  -440799.98 8794.77   1
   2   0   5 1578.65  334.43   1
   2   0   5 1700.35  499.03   1
   2   0   5 1550.95  501.05   1
   2   0   5 1779.35  419.22   1
   2   0   5 1741.59  429.97   1
  -2   0  -5 1598.97  333.74   1
  -2   0  -5 1755.41  501.28   1
  -2   0  -5 1614.00  493.12   1
  -2   0  -5 1660.52  432.13   1
   2   0   6  235.29  108.84   1
   2   0   6  316.95  158.21   1
   2   0   6  323.28  161.07   1
   2   0   6  562.96  154.50   1
   2   0   6  886.88  166.53   1
  -2   0  -6  389.09  107.21   1
  -2   0  -6  372.00  159.46   1
  -2   0  -6  507.80  152.25   1
  -2   0  -6  905.07  166.07   1
   2   0   7 4439.95  933.59   1
   2   0   7 4579.31 1385.37   1
   2   0   7 4368.49 1388.90   1
   2   0   7 5840.20 1104.70   1
   2   0   7 6397.62 1122.65   1
  -2   0  -7 4953.35  930.09   1
  -2   0  -7 4083.28 1387.35   1
  -2   0  -7 4985.38 1379.54   1
  -2   0  -7 6449.44 1120.20   1
   2   0   8  168.61   37.26   1
  -2   0  -8  119.78   36.11   1
   2   0   8   93.36   60.77   1
   2   0   8  143.03   68.17   1
   2   0   8  108.68   67.88   1
   2   0   8  123.15  102.67   1
  -2   0  -8  151.58   50.95   1
  -2   0  -8   81.45   66.81   1
  -2   0  -8  144.84   62.14   1
   2   0   9  764.90  205.03   1
   2   0   9  898.57  288.07   1
   2   0   9  753.45  290.41   1
   2   0   9  888.08  261.84   1
   2   0   9  813.17  283.04   1
  -2   0  -9 1008.00  196.99   1
  -2   0  -9  694.26  289.24   1
  -2   0  -9 1140.06  284.26   1
  -2   0  -9  986.92  272.53   1
   2   0  10  850.33  271.14   1
   2   0  10  834.47  246.19   1
  -2   0 -10  887.19  181.18   1
  -2   0 -10  559.85  268.09   1
  -2   0 -10  869.15  262.47   1
  -2   0 -10 1020.40  255.45   1
   2   0  11   99.40   76.43   1
   2   0  11  126.33   90.85   1
  -2   0 -11  116.15   50.48   1
  -2   0 -11  146.32   72.44   1
  -2   0 -11  149.82   93.42   1
   2   0  12 2897.73  827.60   1
   2   0  12 2442.14  671.79   1
  -2   0 -12 2687.02  549.47   1
  -2   0 -12 2869.19  817.13   1
  -2   0 -12 2866.75  682.04   1
  -2   0 -13  166.88    8.58   1
   2   0  13   82.50   91.26   1
   2   0  13  207.56  114.57   1
  -2   0 -13  145.33   92.90   1
  -2   0 -13  206.87  109.00   1
   2   0  14  616.09  163.37   1
  -2   0 -14    1.61  153.69   1
   2   0  15  174.25  115.78   1
  -2   0 -15  173.99   57.93   1
  -2   0 -15   -9.99  105.58   1
  -2  -1   030485.40 4653.74   1
   2   1   022452.96 5031.23   1
   2   1   030015.44 7511.63   1
   2   1   025854.53 7507.20   1
   2   1   026706.63 5768.76   1
   2   1   025840.07 5785.44   1
  -2  -1   029212.67 5030.54   1
  -2  -1   027050.47 7507.97   1
  -2  -1   019803.19 5771.18   1
   2   1   112655.01 2435.32   1
   2   1   111634.33 3637.05   1
   2   1   112990.43 3635.96   1
   2   1   114583.35 2816.38   1
  -2  -1  -111210.85 2436.01   1
  -2  -1  -115489.34 3635.33   1
  -2  -1  -113557.86 3638.76   1
  -2  -1  -1 9624.42 2814.81   1
  -2  -1  -113409.06 2820.31   1
   2   1   217040.10 4799.38   1
   2   1   217616.08 4793.88   1
   2   1   215976.89 3717.41   1
  -2  -1  -214487.96 3212.67   1
  -2  -1  -217083.13 4794.35   1
  -2  -1  -218919.77 4797.29   1
  -2  -1  -216831.10 3695.75   1
  -2  -1  -217910.74 3710.45   1
   2   1   3  193.23   54.48   1
   2   1   3  165.89   80.02   1
   2   1   3  163.58   78.37   1
   2   1   3  140.30   80.54   1
   2   1   3  161.52   88.66   1
  -2  -1  -3  140.18   52.67   1
  -2  -1  -3  174.90   79.03   1
  -2  -1  -3  156.23   77.58   1
  -2  -1  -3  176.84   80.63   1
  -2  -1  -3  184.61   88.17   1
   2   1   4 8001.82 1612.96   1
   2   1   4 9122.34 2408.23   1
   2   1   4 9564.17 2407.78   1
   2   1   4 7817.89 1871.83   1
   2   1   4 8546.48 1893.57   1
  -2  -1  -4 8212.24 1612.58   1
  -2  -1  -4 8205.95 2405.16   1
  -2  -1  -4 8277.12 2402.19   1
  -2  -1  -4 8257.92 1889.12   1
   2   1   5 1637.98  334.58   1
   2   1   5 1520.20  498.67   1
   2   1   5 1682.84  499.92   1
   2   1   5 1730.60  417.64   1
   2   1   5 1693.74  432.27   1
  -2  -1  -5 1634.15  333.70   1
  -2  -1  -5 1586.27  498.09   1
  -2  -1  -5 1726.60  494.30   1
  -2  -1  -5 1670.92  437.13   1
   2   1   6 5938.30 1187.80   1
   2   1   6 5966.64 1770.44   1
   2   1   6 6521.91 1771.76   1
   2   1   6 6275.21 1391.58   1
   2   1   6 6095.15 1413.11   1
  -2  -1  -6 6267.46 1187.09   1
  -2  -1  -6 5931.47 1771.89   1
  -2  -1  -6 6491.56 1762.59   1
  -2  -1  -6 6354.41 1408.30   1
   2   1   7 2618.20  542.30   1
   2   1   7 2800.71  801.10   1
   2   1   7 2652.61  804.40   1
   2   1   7 2771.04  653.26   1
   2   1   7 2693.30  678.41   1
  -2  -1  -7 2962.78  539.98   1
  -2  -1  -7 2524.18  804.90   1
  -2  -1  -7 2836.44  795.62   1
  -2  -1  -7 2828.32  668.47   1
   2   1   8 5423.81 1269.06   1
   2   1   8 7103.77 1886.65   1
   2   1   8 6451.45 1890.72   1
   2   1   8 6491.24 1484.26   1
   2   1   8 6203.11 1510.86   1
  -2  -1  -8 7146.36 1268.10   1
  -2  -1  -8 6580.70 1890.83   1
  -2  -1  -8 6881.59 1879.72   1
  -2  -1  -8 6733.28 1500.48   1
   2   1   9 3052.52  872.14   1
   2   1   9 3052.44  876.01   1
   2   1   9 2958.60  708.41   1
  -2  -1  -9 3416.76  587.08   1
  -2  -1  -9 2569.48  872.44   1
  -2  -1  -9 2888.19  865.66   1
  -2  -1  -9 3314.85  724.20   1
   2   1  10   50.35   45.47   1
   2   1  10   35.96   44.52   1
   2   1  10   35.89   59.19   1
  -2  -1 -10   35.34   33.15   1
  -2  -1 -10   24.32   43.47   1
  -2  -1 -10   46.39   41.44   1
  -2  -1 -10   62.66   64.12   1
   2   1  11 6355.28 1782.53   1
   2   1  11 6569.75 1401.97   1
  -2  -1 -11 6248.48 1193.43   1
  -2  -1 -11 6005.21 1773.93   1
  -2  -1 -11 6139.42 1417.00   1
   2   1  12  402.55  399.53   1
   2   1  12 1716.80  348.76   1
  -2  -1 -12 1782.93  267.95   1
  -2  -1 -12 1105.26  396.29   1
  -2  -1 -12 1822.32  360.22   1
   2   1  13  428.44  168.94   1
  -2  -1 -13  428.26  109.32   1
  -2  -1 -13  375.65  170.78   1
  -2  -1 -14    2.64   41.00   1
   2   1  14  121.98   97.83   1
  -2  -1 -14   83.60   44.13   1
  -2  -1 -15  197.22   76.28   1
   2   2   0 4401.61  953.31   1
   2   2   0 5020.44 1428.68   1
   2   2   0 5196.30 1429.66   1
   2   2   0 4509.82 1122.32   1
   2   2   0 4291.88 1139.67   1
  -2  -2   0 4462.98  952.96   1
  -2  -2   0 5212.00 1426.10   1
  -2  -2   0 5005.15 1427.30   1
  -2  -2   0 5624.81 1123.14   1
  -2  -2   0 6272.03 1130.34   1
   2   2   137145.85 6695.50   1
   2   2   134319.45 9995.06   1
   2   2   135816.91 9992.18   1
   2   2   135108.50 7662.09   1
   2   2   134290.50 7680.74   1
  -2  -2  -135789.72 6694.73   1
  -2  -2  -133719.50 9987.08   1
  -2  -2  -139185.84 9994.96   1
  -2  -2  -136316.58 7667.55   1
  -2  -2  -137025.82 7677.40   1
   2   2   2   60.88   53.48   1
   2   2   2  138.77   78.56   1
   2   2   2  155.50   77.99   1
   2   2   2  153.83   81.75   1
   2   2   2  332.84   90.15   1
  -2  -2  -2  136.89   52.92   1
  -2  -2  -2  171.41   75.06   1
  -2  -2  -2  198.57   78.83   1
  -2  -2  -2  172.85   82.75   1
  -2  -2  -2  237.21   86.46   1
   2   2   3  284.10  126.55   1
   2   2   3  422.09  191.92   1
   2   2   3  479.39  189.51   1
   2   2   3  913.34  175.38   1
   2   2   3  906.93  190.71   1
  -2  -2  -3  428.97  127.32   1
  -2  -2  -3  596.53  187.09   1
  -2  -2  -3  598.52  190.89   1
  -2  -2  -3  670.18  178.52   1
  -2  -2  -3  549.08  186.81   1
   2   2   4  343.62  130.28   1
   2   2   4  397.82  193.55   1
   2   2   4  542.46  194.69   1
   2   2   4  882.56  180.77   1
   2   2   4  467.10  193.94   1
  -2  -2  -4  635.14  131.34   1
  -2  -2  -4  600.19  192.68   1
  -2  -2  -4  572.63  192.07   1
  -2  -2  -4  700.15  181.64   1
  -2  -2  -4  593.33  188.41   1
   2   2   5  621.32  190.21   1
   2   2   5  734.17  282.47   1
   2   2   5  807.07  281.86   1
   2   2   5 1319.48  251.40   1
   2   2   5  897.10  268.63   1
  -2  -2  -5  802.60  188.81   1
  -2  -2  -5 1011.68  282.35   1
  -2  -2  -5  896.83  278.19   1
  -2  -2  -5  912.82  252.14   1
  -2  -2  -5  853.58  260.85   1
   2   2   6 7823.88 1526.29   1
   2   2   6 7921.07 2272.51   1
   2   2   6 7883.17 2273.47   1
   2   2   6 7481.77 1770.68   1
   2   2   6 8028.89 1797.05   1
  -2  -2  -6 8313.39 1522.56   1
  -2  -2  -6 8318.31 2275.37   1
  -2  -2  -6 7988.27 2263.26   1
  -2  -2  -6 8609.60 1788.78   1
   2   2   7 2427.59  587.55   1
   2   2   7 2874.56  868.65   1
   2   2   7 2951.60  874.55   1
   2   2   7 3104.64  703.13   1
   2   2   7 3286.20  731.02   1
  -2  -2  -7 3053.93  584.73   1
  -2  -2  -7 3014.13  874.39   1
  -2  -2  -7 2994.62  863.51   1
  -2  -2  -7 3705.84  719.19   1
   2   2   810032.81 2261.08   1
   2   2   810657.25 3041.04   1
   2   2   810945.51 3047.99   1
   2   2   8 9102.62 2394.50   1
  -2  -2  -811336.42 2041.09   1
  -2  -2  -810977.46 3045.21   1
  -2  -2  -811024.57 3036.42   1
  -2  -2  -810896.16 2379.54   1
   2   2   9 8055.32 2126.96   1
   2   2   9 5011.34 2129.17   1
   2   2   9 8791.16 1661.52   1
  -2  -2  -9 7913.43 1424.95   1
  -2  -2  -9 7099.20 2123.54   1
  -2  -2  -9 7996.58 2119.21   1
  -2  -2  -9 8428.03 1678.84   1
   2   2  10  671.98  216.46   1
  -2  -2 -10  510.48  156.11   1
  -2  -2 -10 1039.49  229.00   1
   2   2  11 1808.49  479.74   1
  -2  -2 -11 2056.46  386.95   1
  -2  -2 -11 1768.27  493.49   1
   2   2  12  195.40  122.79   1
  -2  -2 -12  235.68   70.78   1
  -2  -2 -12  228.02  122.35   1
  -2  -2 -13  180.22    8.63   1
   2   2  13  120.04  106.70   1
  -2  -2 -13   10.54   96.66   1
   2   2  14  855.91  245.52   1
  -2  -2 -14 1094.28  178.85   1
  -2  -2 -14   19.76  242.38   1
   2   3   0  775.39  151.48   1
   2   3   0  687.12  226.08   1
   2   3   0  751.58  227.04   1
   2   3   0  640.77  200.01   1
   2   3   0  625.68  212.64   1
  -2  -3   0  632.53  148.54   1
  -2  -3   0  660.45  222.50   1
  -2  -3   0  673.99  229.11   1
  -2  -3   0  569.15  202.13   1
  -2  -3   0  631.08  207.70   1
   2   3   115815.92 2783.35   1
   2   3   114480.32 4157.97   1
   2   3   115109.25 4154.86   1
   2   3   114163.84 3211.40   1
   2   3   114202.32 3222.40   1
  -2  -3  -114683.54 4150.55   1
  -2  -3  -115298.70 4153.96   1
  -2  -3  -114230.77 3211.33   1
  -2  -3  -113921.33 3216.49   1
   2   3   217481.78 2864.52   1
   2   3   215319.97 4276.35   1
   2   3   214558.58 4273.32   1
   2   3   215209.43 3301.37   1
   2   3   216356.37 3322.07   1
  -2  -3  -216754.48 2863.18   1
  -2  -3  -214995.14 4269.91   1
  -2  -3  -215036.54 4277.78   1
  -2  -3  -210825.72 3306.07   1
  -2  -3  -214477.15 3310.90   1
   2   3   3 1445.32  316.04   1
   2   3   3 1607.26  475.23   1
   2   3   3 1555.26  469.38   1
   2   3   3 1545.37  394.55   1
   2   3   3 1473.40  411.49   1
  -2  -3  -3 1569.68  313.49   1
  -2  -3  -3 1480.89  466.23   1
  -2  -3  -3 1620.31  472.17   1
  -2  -3  -3 1587.96  397.30   1
  -2  -3  -3 1535.49  403.39   1
   2   3   4 5456.28 1086.99   1
   2   3   4 5657.97 1622.10   1
   2   3   4 5805.53 1621.81   1
   2   3   4 5517.56 1277.13   1
   2   3   4 5826.25 1298.22   1
  -2  -3  -4 5580.40 1085.40   1
  -2  -3  -4 5784.04 1618.47   1
  -2  -3  -4 5640.13 1619.49   1
  -2  -3  -4 5822.14 1281.71   1
  -2  -3  -4 5780.48 1289.08   1
   2   3   5 3678.21  917.83   1
   2   3   5 4881.17 1367.82   1
   2   3   5 4859.96 1366.88   1
   2   3   5 4586.64 1082.07   1
   2   3   5 4801.18 1103.40   1
  -2  -3  -5 4814.65  915.33   1
  -2  -3  -5 5107.00 1363.73   1
  -2  -3  -5 4872.63 1361.42   1
  -2  -3  -5 4592.04 1087.29   1
  -2  -3  -5 5048.68 1097.47   1
   2   3   6 7638.49 1781.18   1
  -2  -3  -6 8316.61 1781.24   1
   2   3   6 7565.45 1615.62   1
   2   3   6 9019.20 2406.42   1
   2   3   6 7497.88 2408.49   1
   2   3   6 8282.31 1905.29   1
  -2  -3  -6 8717.37 1613.16   1
  -2  -3  -6 9593.18 2405.61   1
  -2  -3  -6 8551.96 2398.66   1
  -2  -3  -6 9187.30 1892.80   1
   2   3   7 3384.28  951.18   1
   2   3   7 2899.98  959.04   1
   2   3   7 3487.76  770.79   1
   2   3   7 2458.66  794.85   1
  -2  -3  -7 3501.24  640.63   1
  -2  -3  -7 3541.35  954.42   1
  -2  -3  -7 3199.08  945.98   1
  -2  -3  -7 3451.50  782.16   1
   2   3   8 7965.73 1748.81   1
  -2  -3  -8 8019.17 1501.87   1
  -2  -3  -8 7608.42 1763.90   1
   2   3   9 2393.95  514.60   1
  -2  -3  -9 2522.22  486.15   1
  -2  -3  -9 2376.22  605.55   1
   2   3  10  110.31   93.77   1
  -2  -3 -10  169.95   56.09   1
  -2  -3 -10  107.93   96.30   1
   2   3  11   41.48   39.20   1
  -2  -3 -11   34.37   38.86   1
  -2  -3 -11   50.99   72.51   1
   2   3  12  388.18  149.01   1
  -2  -3 -12  498.80   98.71   1
  -2  -3 -12   14.35  149.45   1
   2   3  13 1812.90  415.98   1
  -2  -3 -13 2270.30  331.41   1
  -2  -3 -13    3.92  419.79   1
   2   4   0  352.35   92.27   1
   2   4   0  382.92  138.70   1
   2   4   0  368.96  135.73   1
   2   4   0  398.31  131.40   1
   2   4   0  336.88  140.27   1
  -2  -4   0  316.36   93.29   1
  -2  -4   0  369.06  132.25   1
  -2  -4   0  360.97  139.08   1
  -2  -4   0  325.99  132.97   1
  -2  -4   0  385.23  137.93   1
   2   4   118230.26 3594.18   1
   2   4   119425.47 5363.35   1
   2   4   119959.96 5361.31   1
   2   4   119310.65 4133.39   1
   2   4   120633.52 4151.13   1
  -2  -4  -118421.20 3591.61   1
  -2  -4  -119764.34 5356.03   1
  -2  -4  -119155.19 5363.94   1
  -2  -4  -117463.05 4134.55   1
  -2  -4  -118127.75 4138.83   1
   2   4   216236.84 3073.97   1
   2   4   216373.77 4586.16   1
   2   4   216314.01 4583.53   1
   2   4   215660.89 3536.46   1
   2   4   216275.69 3552.77   1
  -2  -4  -215647.04 3070.23   1
  -2  -4  -216749.70 4578.92   1
  -2  -4  -217363.47 4588.04   1
  -2  -4  -215709.63 3542.92   1
  -2  -4  -216249.05 3550.07   1
   2   4   332396.72 5774.11   1
   2   4   333356.50 8614.83   1
   2   4   331574.46 8611.89   1
   2   4   330543.57 6611.77   1
   2   4   328662.93 6631.75   1
  -2  -4  -330313.26 5771.59   1
  -2  -4  -330135.60 8606.41   1
  -2  -4  -329177.48 8612.60   1
  -2  -4  -329787.91 6617.78   1
  -2  -4  -331326.73 6620.97   1
   2   4   4 4850.51 1004.49   1
   2   4   4 5755.19 1498.01   1
   2   4   4 5061.51 1494.11   1
   2   4   4 5028.39 1181.63   1
   2   4   4 5295.51 1204.76   1
  -2  -4  -4 5269.54 1001.01   1
  -2  -4  -4 5683.11 1491.54   1
  -2  -4  -4 5325.01 1494.60   1
  -2  -4  -4 3875.69 1185.59   1
  -2  -4  -4 5130.70 1187.76   1
   2   4   5  341.96  136.32   1
   2   4   5  592.25  201.19   1
   2   4   5  544.91  199.54   1
   2   4   5  774.72  187.55   1
   2   4   5  498.05  204.63   1
  -2  -4  -5  635.19  134.99   1
  -2  -4  -5  605.81  195.15   1
  -2  -4  -5  602.23  195.08   1
  -2  -4  -5  476.59  192.00   1
  -2  -4  -5  622.68  194.72   1
  -2  -4  -6  251.76   53.46   1
   2   4   6  118.08   93.78   1
   2   4   6  161.18   98.80   1
   2   4   6  265.77  100.19   1
   2   4   6  221.71  124.15   1
  -2  -4  -6  276.92   67.80   1
  -2  -4  -6  264.89   90.30   1
  -2  -4  -6  194.16   87.87   1
  -2  -4  -6  207.51  113.94   1
   2   4   7 3422.97  854.26   1
  -2  -4  -7 4395.66  789.31   1
  -2  -4  -7 4250.52  954.83   1
   2   4   8  660.02  197.47   1
  -2  -4  -8  620.40  143.53   1
  -2  -4  -8  508.87  207.84   1
   2   4   9   17.50   61.59   1
  -2  -4  -9    8.59   34.24   1
  -2  -4  -9   34.11   67.45   1
  -2  -4 -10  498.75  113.84   1
   2   4  10  477.17  174.69   1
  -2  -4 -10  503.01  123.92   1
  -2  -4 -11   22.08  477.90   1
   2   4  11 2827.38  565.33   1
  -2  -4 -11 3048.46  462.21   1
  -2  -4 -12 6355.56  589.12   1
   2   4  12 7475.38 1201.67   1
  -2  -4 -12   -4.59 1206.25   1
  -2  -4 -13   93.99   52.75   1
   2   5   0 1675.97  358.05   1
   2   5   0 1781.54  537.17   1
   2   5   0 2161.67  537.35   1
   2   5   0 1913.09  447.94   1
   2   5   0 1576.98  457.17   1
  -2  -5   0 1543.57  364.50   1
  -2  -5   0 1679.50  527.12   1
  -2  -5   0 1890.20  537.46   1
  -2  -5   0 1333.01  442.90   1
  -2  -5   0 1986.21  449.83   1
   2   5   1  414.50  115.65   1
   2   5   1  468.65  170.62   1
   2   5   1  484.01  172.25   1
   2   5   1  510.60  157.53   1
   2   5   1  403.63  172.57   1
  -2  -5  -1  518.42  114.69   1
  -2  -5  -1  498.67  163.47   1
  -2  -5  -1  494.70  171.76   1
  -2  -5  -1  292.13  161.58   1
  -2  -5  -1  523.60  166.22   1
   2   5   215007.58 3203.18   1
   2   5   218432.45 4782.12   1
   2   5   217588.85 3692.99   1
   2   5   214659.31 3699.87   1
  -2  -5  -216858.94 3201.80   1
  -2  -5  -218882.03 4773.20   1
  -2  -5  -217337.65 4779.96   1
  -2  -5  -213667.01 3688.82   1
  -2  -5  -217239.43 3695.23   1
   2   5   3 9625.38 2147.26   1
   2   5   311421.87 3200.94   1
   2   5   311068.63 3202.63   1
   2   5   311609.60 2483.36   1
   2   5   310581.77 2506.35   1
  -2  -5  -311738.97 2144.52   1
  -2  -5  -312180.77 3197.44   1
  -2  -5  -311804.10 3201.82   1
  -2  -5  -3 9704.70 2492.49   1
  -2  -5  -312837.39 2496.18   1
  -2  -5  -4   46.99   35.96   1
   2   5   4   98.23   57.27   1
   2   5   4   71.52   53.81   1
   2   5   4   88.77   64.13   1
   2   5   4   89.96   84.72   1
  -2  -5  -4   76.47   43.68   1
  -2  -5  -4   54.46   51.38   1
  -2  -5  -4   72.03   51.73   1
  -2  -5  -4   88.88   72.37   1
  -2  -5  -5  919.87  165.26   1
   2   5   5  675.14  255.17   1
   2   5   5  648.85  255.90   1
   2   5   5  851.99  229.35   1
  -2  -5  -5  936.74  172.88   1
  -2  -5  -5  767.87  249.14   1
  -2  -5  -5  728.68  251.24   1
   2   5   6 2858.27  670.02   1
  -2  -5  -6 2899.80  553.68   1
  -2  -5  -6 2616.51  677.93   1
   2   5   7 1623.35  410.52   1
  -2  -5  -7 1679.49  327.00   1
  -2  -5  -7 1410.39  420.01   1
   2   5   8 9429.69 2185.35   1
  -2  -5  -810224.11 1882.83   1
  -2  -5  -810073.78 2198.57   1
   2   5   9  237.41  125.53   1
  -2  -5  -9  303.63   86.66   1
  -2  -5  -9  338.92  138.68   1
   2   5  10 4091.61  801.97   1
  -2  -5 -10 4644.36  668.81   1
  -2  -5 -10   14.69  804.27   1
   2   5  11  129.17   46.33   1
  -2  -5 -11  222.64   63.88   1
  -2  -5 -11   14.56   91.55   1
  -2  -5 -12  684.22  160.01   1
   2   6   0 1111.35  387.01   1
   2   6   0 2101.09  581.56   1
   2   6   0 2021.31  579.97   1
   2   6   0 2529.97  482.73   1
   2   6   0 1685.01  490.15   1
  -2  -6   0 1797.24  392.43   1
  -2  -6   0 2417.83  582.10   1
  -2  -6   0 2297.94  577.68   1
  -2  -6   0  806.07  472.34   1
   2   6   1 1659.48  465.17   1
   2   6   1 2505.45  693.62   1
   2   6   1 2599.61  694.81   1
   2   6   1 2380.61  564.43   1
   2   6   1 1516.43  582.69   1
  -2  -6  -1 2447.41  471.70   1
  -2  -6  -1 2848.29  695.50   1
  -2  -6  -1 2526.31  690.93   1
  -2  -6  -1 1357.28  568.12   1
  -2  -6  -1 2486.36  576.09   1
   2   6   2  191.42  103.38   1
   2   6   2  229.77  104.31   1
  -2  -6  -2  239.35   74.01   1
  -2  -6  -2  323.58  103.72   1
  -2  -6  -2  192.64  101.41   1
  -2  -6  -2  187.36  112.21   1
   2   6   3  298.65  125.53   1
   2   6   3  271.25  129.45   1
   2   6   3  401.45  129.82   1
  -2  -6  -3  340.12   88.22   1
  -2  -6  -3  354.12  125.60   1
  -2  -6  -3  270.66  122.08   1
  -2  -6  -3  287.67  134.31   1
   2   6   4 2951.73  935.60   1
   2   6   4 2415.49  932.76   1
   2   6   4 3714.35  753.87   1
  -2  -6  -4 3828.23  625.80   1
  -2  -6  -4 3338.72  931.89   1
  -2  -6  -4 3162.55  928.67   1
  -2  -6  -4 3579.89  763.91   1
   2   6   5 8129.45 1703.38   1
  -2  -6  -5 7652.70 1459.35   1
  -2  -6  -5 7158.11 1718.48   1
   2   6   6  578.27  141.29   1
  -2  -6  -6  686.48  150.99   1
  -2  -6  -6  681.03  226.23   1
   2   6   7  193.21   58.00   1
  -2  -6  -7  221.10   72.78   1
  -2  -6  -7  270.31  135.28   1
   2   6   8   21.65   58.55   1
  -2  -6  -8   11.10   36.20   1
  -2  -6  -8   -2.42   89.43   1
   2   6   9  213.50  108.34   1
  -2  -6  -9  184.24   69.19   1
   2   6  10    7.55   35.90   1
  -2  -6 -10  -11.23   37.65   1
  -2  -6 -10   34.53   73.12   1
   2   7   0 2194.82  637.81   1
   2   7   0 2177.12  525.78   1
  -2  -7   0 2099.59  433.05   1
  -2  -7   0 2023.29  637.80   1
   2   7   1 4487.96 1144.83   1
   2   7   1 5773.82 1563.68   1
  -2  -7  -1 4695.38 1054.51   1
  -2  -7  -1 5902.90 1563.29   1
  -2  -7  -1 5645.40 1239.43   1
   2   7   2   26.58   43.40   1
   2   7   2   42.72   83.01   1
  -2  -7  -2   49.48   45.73   1
  -2  -7  -2   30.08   42.94   1
  -2  -7  -2   60.54   94.41   1
   2   7   3   64.82   54.55   1
   2   7   3   71.43   79.23   1
  -2  -7  -3   50.59   57.46   1
  -2  -7  -3   44.19   49.14   1
  -2  -7  -3   59.86   87.55   1
  -2  -7  -4   93.44   49.43   1
   2   7   4   35.45   49.57   1
   2   7   4   93.44   76.52   1
  -2  -7  -4   99.64   53.86   1
  -2  -7  -4   21.59   48.66   1
   2   7   5  323.24  136.80   1
  -2  -7  -5  295.42   90.49   1
  -2  -7  -5  279.58  147.21   1
  -2  -7  -6 1267.73  616.97   1
   2   7   6 3396.41  706.17   1
  -2  -7  -6 3551.23  581.07   1
   2   7   7    3.49   74.37   1
  -2  -7  -7   -3.66   39.61   1
  -2  -7  -7   14.82   93.04   1
   2   7   8  119.07   48.49   1
  -2  -7  -8   87.25    9.70   1
  -2  -7  -8   35.86  115.54   1
  -2  -7  -9   13.89   57.52   1
   2   8   0  147.88   88.91   1
   2   8   0  285.27  123.56   1
  -2  -8   0  131.17   88.49   1
   2   8   1 3280.00 1108.25   1
   2   8   1 4293.50  892.47   1
  -2  -8  -1 4049.60  753.60   1
  -2  -8  -1 3949.75 1104.13   1
  -2  -8  -2   40.19   58.32   1
   2   8   2   23.93   50.18   1
   2   8   2   31.98   97.08   1
  -2  -8  -2   48.12   48.07   1
   2   8   3  376.03  228.78   1
   2   8   3 1295.53  227.92   1
  -2  -8  -3  816.26  169.09   1
  -2  -8  -3  353.64  221.20   1
  -2  -8  -3 1017.05  224.83   1
   2   8   4  359.27  135.28   1
  -2  -8  -4  305.93   90.24   1
  -2  -8  -4   12.62  135.61   1
   2   8   5 3279.62  619.17   1
  -2  -8  -5 5064.64  594.59   1
  -2  -8  -5   11.21  700.50   1
   2   8   6  275.10  120.54   1
  -2  -8  -6  378.70  102.66   1
  -2  -8  -6   16.06  138.33   1
  -2  -8  -7  888.86  201.73   1
   2   9   0  189.59   90.75   1
   2   9   0  289.36  128.91   1
  -2  -9   0   20.69   83.37   1
   2   9   1   45.10   59.62   1
   2   9   1  143.66  106.79   1
  -2  -9  -1   -9.43   51.33   1
   2   9   2  617.62  223.17   1
   2   9   3 1981.64  337.01   1
  -2  -9  -3  208.76  250.36   1
   2   9   4  911.15  171.78   1
  -2  -9  -4  -21.72  117.88   1
  -2  -9  -4  -55.09  159.33   1
  -2  -9  -5   47.54  122.18   1
   2  10   0  122.08  129.35   1
   3 -11   0    3.40  114.96   1
  -3  11   0  381.31  131.33   1
  -3  11   0  386.11  151.34   1
  -3  11  -1  916.11  165.17   1
   3 -11   1   -0.64  243.32   1
  -3  11  -1 1236.18  250.81   1
  -3  11  -2   69.65   52.66   1
   3 -11   2  -10.74   54.34   1
  -3  11  -2   89.38   66.69   1
  -3  11  -3   36.89   36.64   1
  -3  11  -3    6.07   54.63   1
   3 -11   3    2.45   44.11   1
   3 -11   4    6.10  158.87   1
  -3  11  -4  167.14  160.32   1
  -3  11  -4  934.05  167.20   1
  -3  11  -4  -40.67  200.19   1
   3 -11   5  866.97  413.23   1
  -3  11  -5  146.47  299.75   1
  -3  11  -5 2407.92  416.10   1
  -3  11  -5  -16.50  419.77   1
   3 -11   6  488.83  177.38   1
  -3  11  -6    8.98  156.06   1
  -3  11  -6  617.45  171.97   1
  -3  11  -6   65.74  265.63   1
   3 -11   7   88.73   70.44   1
  -3  11  -7  -27.16  107.89   1
  -3  11  -7   66.01   61.46   1
  -3  10   0    5.22   40.04   1
   3 -10   0    3.95   32.04   1
  -3  10   0   -3.61   28.87   1
  -3  10  -1 3491.01  674.16   1
   3 -10   1 1693.20  938.01   1
  -3  10  -1 4286.83  934.02   1
   3 -10   2  233.60  110.68   1
  -3  10  -2  241.49  104.92   1
  -3  10  -2  230.18  138.31   1
  -3  10  -3   48.37   50.98   1
   3 -10   3   58.64   52.08   1
  -3  10  -3   49.58   47.30   1
  -3  10  -4  804.15  165.67   1
   3 -10   4  939.77  307.64   1
  -3  10  -4 1243.44  247.37   1
  -3  10  -4 1004.27  309.60   1
  -3  10  -5   72.28   18.56   1
   3 -10   5   45.22   67.25   1
  -3  10  -5   55.64   61.52   1
  -3  10  -5  428.77  171.88   1
   3 -10   6 2036.05  371.41   1
  -3  10  -6 2284.15  370.76   1
  -3  10  -6 1901.37  448.09   1
  -3  10  -6 1891.10  600.14   1
   3 -10   7 1098.46  349.45   1
  -3  10  -7 1404.92  264.44   1
  -3  10  -7 1126.40  344.63   1
  -3  10  -7  -51.35  369.95   1
   3 -10   8    1.40   26.42   1
  -3  10  -8   10.59   25.84   1
  -3  10  -8  -26.98   86.94   1
  -3  10  -8  -12.92  118.50   1
   3 -10   9  217.82  104.02   1
  -3  10  -9  130.00  122.25   1
  -3  10  -9  215.66   97.29   1
  -3  10  -9  -61.64  189.08   1
   3 -10  10   40.11   64.95   1
  -3  10 -10   38.86   55.02   1
  -3   9   0  707.66  161.42   1
   3  -9   0  708.01  252.56   1
  -3   9   0  780.36  245.88   1
   3  -9   1  177.52   89.04   1
  -3   9  -1  171.39   83.80   1
  -3   9  -1  166.26  110.25   1
   3  -9   2  881.46  309.25   1
  -3   9  -2 1023.03  301.47   1
  -3   9  -2  832.27  289.68   1
  -3   9  -3 4026.21  745.66   1
   3  -9   3 4712.14 1240.85   1
  -3   9  -3 4078.19 1007.03   1
   3  -9   4  380.75   77.56   1
  -3   9  -4  402.26   75.85   1
  -3   9  -4  433.16  132.08   1
  -3   9  -4  439.74  182.75   1
   3  -9   5 1003.80  330.48   1
  -3   9  -5  978.86  240.23   1
  -3   9  -5  975.57  321.27   1
  -3   9  -5 1259.80  340.70   1
   3  -9   6   29.85   44.99   1
  -3   9  -6   32.34   75.80   1
  -3   9  -6   40.66   42.58   1
  -3   9  -6   95.87  151.77   1
   3  -9   713530.49 4278.68   1
  -3   9  -714739.20 2880.55   1
  -3   9  -716590.63 4271.09   1
  -3   9  -715731.55 3362.58   1
   3  -9   8  180.62   91.19   1
  -3   9  -8  149.50   89.70   1
  -3   9  -8  181.03   84.97   1
  -3   9  -8   78.33  166.45   1
   3  -9   9 1495.17  342.18   1
  -3   9  -9  662.64  240.05   1
  -3   9  -9 1062.34  335.12   1
  -3   9  -9    1.02  347.44   1
   3  -9  10 2911.38  696.36   1
  -3   9 -10  -11.09  623.36   1
   3  -9  11  752.24  243.65   1
  -3   9 -11  349.85  189.66   1
  -3   9 -11  748.98  237.48   1
   3  -8   0  160.73   92.09   1
  -3   8   0  180.73   89.02   1
  -3   8   0  369.47  108.32   1
   3  -8   1 1526.10  486.41   1
  -3   8  -1 1739.27  482.72   1
  -3   8  -1 1385.14  418.36   1
   3  -8   2 3260.79 1032.87   1
  -3   8  -2 2836.06 1028.79   1
  -3   8  -2 6986.14  854.08   1
  -3   8  -3 2430.52  896.33   1
   3  -8   3 4990.75 1230.51   1
  -3   8  -3 4142.13 1226.44   1
  -3   8  -4 3432.03  692.27   1
  -3   8  -4 3465.78 1005.54   1
  -3   8  -4 3592.97  836.94   1
   3  -8   5 1342.38  426.50   1
  -3   8  -5 1700.77  302.78   1
  -3   8  -5 1243.45  420.62   1
  -3   8  -5 1553.73  402.39   1
   3  -8   6 2002.59  660.62   1
  -3   8  -6 2132.83  452.74   1
  -3   8  -6 2304.54  652.75   1
  -3   8  -6 2628.58  592.17   1
   3  -8   7 6052.83 1842.01   1
  -3   8  -7 7040.11 1248.62   1
  -3   8  -7 6462.88 1831.97   1
  -3   8  -7 6732.47 1492.55   1
  -3   8  -8 1531.03  280.36   1
   3  -8   8 1662.60  493.19   1
  -3   8  -8 1508.54  342.65   1
  -3   8  -8 1801.89  464.48   1
   3  -8   9  143.11   78.05   1
  -3   8  -9  103.00   76.17   1
  -3   8  -9  159.30   74.16   1
  -3   8  -9   46.06  148.88   1
   3  -8  10  233.31  119.91   1
  -3   8 -10  216.35  106.23   1
  -3   8 -10  365.65  114.53   1
  -3   8 -10  -22.96  183.66   1
   3  -8  11   15.88   25.92   1
  -3   8 -11  -28.68   81.11   1
  -3   8 -11    7.73   45.07   1
  -3   8 -11    7.70   34.65   1
   3  -8  12  731.25  274.10   1
  -3   8 -12  553.23  198.92   1
  -3   8 -12  937.84  269.79   1
   3  -7   0 1194.41  342.01   1
  -3   7   0  698.10  342.14   1
   3  -7   0 2000.39  492.81   1
   3  -7   0 1546.08  495.23   1
  -3   7   0  627.00  329.20   1
  -3   7   0 1660.73  499.53   1
  -3   7   0 2150.49  487.03   1
  -3   7   0 2188.46  425.14   1
   3  -7   112470.47 2481.29   1
   3  -7   1 8424.65 2481.24   1
   3  -7   1 5330.92 1930.60   1
  -3   7  -1 3249.89 1660.23   1
  -3   7  -1 8457.62 2484.30   1
  -3   7  -111048.92 2473.88   1
  -3   7  -111471.83 1946.44   1
  -3   7  -1 5110.68 1947.06   1
   3  -7   2 4578.79 1040.90   1
   3  -7   2 3358.64  836.78   1
  -3   7  -2 2427.17  695.70   1
  -3   7  -2 3797.06 1033.24   1
  -3   7  -2 4287.67  851.14   1
  -3   7  -2 2245.56  846.27   1
  -3   7  -3  256.67  104.57   1
   3  -7   3  654.95  170.07   1
   3  -7   3  200.05  163.71   1
  -3   7  -3  706.68  137.90   1
  -3   7  -3  128.34  114.86   1
  -3   7  -3  583.87  163.66   1
  -3   7  -3  593.67  174.25   1
   3  -7   4  430.39  171.34   1
  -3   7  -4  516.50  128.47   1
  -3   7  -4  518.20  166.50   1
  -3   7  -4  408.23  182.08   1
  -3   7  -5   47.15   41.38   1
   3  -7   5   65.67   47.21   1
  -3   7  -5   48.07   47.17   1
  -3   7  -5   54.36   44.05   1
   3  -7   6 5959.38 1665.15   1
  -3   7  -6 6326.89 1130.18   1
  -3   7  -6 5522.77 1661.20   1
  -3   7  -6 5998.89 1349.38   1
   3  -7   7   29.65   40.04   1
  -3   7  -7   15.14   52.97   1
  -3   7  -7   31.92   35.99   1
  -3   7  -7   46.04  104.24   1
   3  -7   8   38.64   23.28   1
  -3   7  -8   44.17   19.70   1
  -3   7  -8   33.59   42.85   1
  -3   7  -8   89.98  110.82   1
   3  -7   9 1083.06  366.06   1
  -3   7  -9 1170.32  257.45   1
  -3   7  -9 1160.53  356.24   1
  -3   7  -9 1160.41  363.19   1
   3  -7  10   62.83   48.63   1
  -3   7 -10   12.84   59.65   1
  -3   7 -10   57.12   46.31   1
  -3   7 -10   30.74  127.84   1
   3  -7  11  372.48  122.41   1
  -3   7 -11  135.05   94.63   1
  -3   7 -11  302.96  115.14   1
  -3   7 -11   -4.66  171.79   1
  -3   7 -12   13.48  348.94   1
   3  -7  12 2079.80  520.49   1
   3  -7  12 1455.87  458.41   1
  -3   7 -12 1417.38  359.37   1
  -3   7 -12 1985.82  515.82   1
   3  -7  13 4695.45  695.26   1
  -3   7 -13 2063.41  477.38   1
  -3   7 -13  275.84  681.13   1
   3  -6   0 5606.13 1439.52   1
   3  -6   0 5030.05 1441.49   1
   3  -6   0 3817.23 1135.91   1
  -3   6   0 3011.63  962.66   1
  -3   6   0 5810.50 1446.05   1
  -3   6   0 5604.18 1432.74   1
  -3   6   0 5946.59 1149.37   1
  -3   6   0 4567.99 1149.93   1
  -3   6  -1 3792.23  663.95   1
   3  -6   1 4172.81 1100.17   1
   3  -6   1 3354.40 1102.16   1
   3  -6   1 3841.33  880.60   1
  -3   6  -1 3746.50  736.16   1
  -3   6  -1 4239.88 1093.91   1
  -3   6  -1 2546.49  893.01   1
   3  -6   218079.02 3771.74   1
   3  -6   212052.29 3772.89   1
   3  -6   2 8829.25 2925.55   1
  -3   6  -211248.62 2526.79   1
  -3   6  -212219.86 3775.21   1
  -3   6  -214596.97 3765.38   1
  -3   6  -217039.16 2933.15   1
  -3   6  -2 8566.01 2929.94   1
   3  -6   3 7937.41 1737.51   1
   3  -6   310121.10 2824.67   1
   3  -6   3 6746.67 2197.94   1
  -3   6  -313071.68 1903.29   1
  -3   6  -3 9894.25 1893.71   1
  -3   6  -3 8649.90 2829.96   1
  -3   6  -311775.59 2819.14   1
  -3   6  -311505.20 2214.43   1
  -3   6  -310381.45 2204.37   1
   3  -6   4  219.57   72.46   1
   3  -6   4  354.92  124.18   1
   3  -6   4  178.06  124.75   1
  -3   6  -4  680.38   95.72   1
  -3   6  -4  265.36  108.82   1
  -3   6  -4  279.91  128.64   1
  -3   6  -4  318.02  118.64   1
  -3   6  -4  403.18  145.99   1
  -3   6  -4  232.84  135.89   1
   3  -6   5  470.97   71.22   1
  -3   6  -5  436.93   70.01   1
   3  -6   5  208.10  151.53   1
  -3   6  -5  341.46  106.34   1
  -3   6  -5  234.44  109.88   1
  -3   6  -5  503.01  161.62   1
  -3   6  -5  292.32  155.36   1
   3  -6   6 2340.95  412.27   1
  -3   6  -6 2475.43  411.82   1
  -3   6  -6 2170.00  476.60   1
  -3   6  -6 2242.73  598.66   1
   3  -6   7  152.58   34.29   1
  -3   6  -7  100.52   60.23   1
  -3   6  -7  130.75   69.72   1
  -3   6  -7  190.19  118.58   1
  -3   6  -8  204.79   67.09   1
  -3   6  -8  319.49  110.45   1
  -3   6  -8 1086.66  193.41   1
   3  -6   920998.71 5670.76   1
  -3   6  -919471.22 3805.75   1
  -3   6  -920069.28 5662.15   1
  -3   6  -920055.54 4408.81   1
   3  -6  10 2461.40  810.05   1
  -3   6 -10 2538.07  549.23   1
  -3   6 -10 3067.71  800.00   1
  -3   6 -10 2438.28  696.83   1
   3  -6  11 3910.05 1099.29   1
   3  -6  11 3687.68  897.07   1
  -3   6 -11 4201.25  745.13   1
  -3   6 -11 4355.42 1090.79   1
  -3   6 -11    1.48  909.73   1
  -3   6 -12   78.09   12.35   1
   3  -6  12  151.13   85.38   1
   3  -6  12   93.07  133.60   1
  -3   6 -12  126.75   71.09   1
  -3   6 -12   40.18  150.14   1
   3  -6  13 3344.12  560.15   1
   3  -6  13 2180.56  496.07   1
  -3   6 -13 3258.18  391.51   1
  -3   6 -13    0.77  546.72   1
  -3   6 -13    1.67  501.64   1
  -3   5   0 1866.94  296.15   1
   3  -5   0 1937.86  511.09   1
   3  -5   0 1610.60  511.16   1
   3  -5   0 1064.15  425.02   1
  -3   5   0 1747.50  340.42   1
  -3   5   0 1665.55  502.29   1
  -3   5   0 1894.81  434.66   1
  -3   5   0 1376.78  436.94   1
   3  -5   118938.91 4846.66   1
   3  -5   116132.43 4847.94   1
   3  -5   117132.61 3739.47   1
  -3   5  -114877.03 3245.76   1
  -3   5  -118994.08 4851.81   1
  -3   5  -118072.06 4838.37   1
  -3   5  -118284.62 3752.17   1
  -3   5  -113465.90 3752.28   1
   3  -5   2    2.50   24.49   1
   3  -5   2    1.16   24.28   1
   3  -5   2    5.43   37.37   1
  -3   5  -2    8.30   35.27   1
  -3   5  -2   19.30   29.56   1
  -3   5  -2   25.10   25.28   1
  -3   5  -2   11.04   21.95   1
  -3   5  -2   20.46   37.78   1
  -3   5  -2    5.04   46.79   1
   3  -5   311402.11 2980.85   1
   3  -5   310109.04 2982.48   1
   3  -5   3 7250.50 2316.98   1
  -3   5  -310601.78 2001.00   1
  -3   5  -313957.45 2006.71   1
  -3   5  -3 9077.77 2983.85   1
  -3   5  -311436.84 2973.98   1
  -3   5  -310965.79 2333.11   1
  -3   5  -3 8943.53 2324.57   1
   3  -5   4 8330.93 1949.33   1
   3  -5   4 6829.98 1950.77   1
   3  -5   4 6082.50 1530.46   1
  -3   5  -4 7139.22 1313.15   1
  -3   5  -4 5333.48 1311.27   1
  -3   5  -4 5481.88 1952.36   1
  -3   5  -4 7233.44 1942.89   1
  -3   5  -4 7613.31 1549.80   1
  -3   5  -4 7311.58 1541.98   1
   3  -5   5 1250.73  398.25   1
   3  -5   5 1074.85  400.16   1
   3  -5   5  571.99  344.26   1
  -3   5  -5 1443.18  274.32   1
  -3   5  -5 1680.47  404.19   1
  -3   5  -5 1558.13  392.86   1
  -3   5  -5 1402.38  362.64   1
  -3   5  -5  677.61  348.63   1
   3  -5   621125.98 4956.65   1
   3  -5   611152.88 3821.76   1
  -3   5  -619786.31 3327.71   1
  -3   5  -617773.01 4948.82   1
  -3   5  -620880.47 3855.83   1
  -3   5  -611289.37 3829.15   1
   3  -5   7 2957.85  684.98   1
   3  -5   7 1305.43  566.88   1
  -3   5  -7 2606.55  466.37   1
  -3   5  -7 2368.97  677.35   1
  -3   5  -7 3046.19  595.35   1
  -3   5  -7  768.04  564.95   1
   3  -5   8 2433.64  679.24   1
  -3   5  -8 2093.82  461.24   1
  -3   5  -8 2282.38  674.38   1
  -3   5  -8 2241.16  592.40   1
  -3   5  -9  711.97  127.23   1
   3  -5   9  693.59  238.24   1
  -3   5  -9  688.40  170.25   1
  -3   5  -9  768.18  251.85   1
   3  -5  10  111.84   32.28   1
   3  -5  10   74.16  113.98   1
  -3   5 -10  156.77   65.35   1
  -3   5 -10  120.69   65.65   1
  -3   5 -10  102.68  125.57   1
   3  -5  11   37.10   58.33   1
   3  -5  11   31.13   41.87   1
  -3   5 -11   29.17   52.69   1
  -3   5 -11   28.77   39.47   1
  -3   5 -11   22.25  116.81   1
   3  -5  12   52.86   67.00   1
   3  -5  12   80.40   65.77   1
  -3   5 -12  100.14   59.47   1
  -3   5 -12   17.16   48.99   1
  -3   5 -12   -0.30  139.07   1
   3  -5  13  923.42  254.80   1
   3  -5  13  554.42  261.67   1
  -3   5 -13  843.01  184.61   1
  -3   5 -13   12.38  275.21   1
  -3   5 -14   74.42   72.99   1
   3  -4   0  214.85   88.99   1
   3  -4   0  202.58   89.04   1
   3  -4   0  151.96   92.71   1
  -3   4   0  210.34   59.70   1
  -3   4   0  179.66   88.13   1
  -3   4   0  215.60   85.99   1
  -3   4   0  186.31   95.80   1
  -3   4   0  172.13   99.10   1
   3  -4   1 5743.36 1129.35   1
   3  -4   1 6386.71 1129.41   1
  -3   4  -1 7160.11 1129.32   1
  -3   4  -1 6616.15 1241.99   1
  -3   4  -1 6212.31 1235.66   1
  -3   4  -1 6256.41 1853.00   1
  -3   4  -1 6983.54 1458.49   1
  -3   4  -1 7268.12 1462.80   1
   3  -4   2 1352.03  422.27   1
   3  -4   2 1149.17  424.39   1
   3  -4   2 1524.61  360.68   1
  -3   4  -2  967.21  283.00   1
  -3   4  -2 1599.75  289.06   1
  -3   4  -2 1277.38  427.11   1
  -3   4  -2 1356.25  414.80   1
  -3   4  -2 2088.70  372.63   1
  -3   4  -2 1788.40  364.44   1
   3  -4   3 3736.61  691.61   1
  -3   4  -3 3685.72  691.06   1
   3  -4   3 3334.08 1148.39   1
   3  -4   3 5719.95  915.85   1
  -3   4  -3 2662.30  771.84   1
  -3   4  -3 3576.34 1151.17   1
  -3   4  -3 6668.76  930.04   1
  -3   4  -3 5263.63  923.40   1
   3  -4   4  221.38   99.27   1
   3  -4   4  156.70  100.22   1
   3  -4   4  305.09  105.26   1
  -3   4  -4  118.67  100.83   1
  -3   4  -4  227.28   93.50   1
  -3   4  -4  580.99  115.97   1
  -3   4  -4  342.59  110.32   1
   3  -4   5  207.31   49.72   1
   3  -4   5  246.91  107.96   1
   3  -4   5  226.22  119.81   1
  -3   4  -5  217.73   78.51   1
  -3   4  -5  302.54  102.99   1
  -3   4  -5  460.36  127.66   1
  -3   4  -5  242.69  117.36   1
   3  -4   6  935.76  276.73   1
   3  -4   6  419.94  277.62   1
   3  -4   6 1008.39  256.99   1
  -3   4  -6  775.06  189.40   1
  -3   4  -6  571.53  279.71   1
  -3   4  -6  870.03  271.05   1
   3  -4   728908.54 7243.93   1
   3  -4   713701.92 5574.91   1
  -3   4  -727638.49 4862.82   1
  -3   4  -726315.24 7236.24   1
  -3   4  -727527.30 5604.29   1
   3  -4   8 2132.36  390.52   1
   3  -4   8 2236.54  556.22   1
  -3   4  -8 2296.24  450.01   1
  -3   4  -8 2262.79  655.31   1
  -3   4  -8 2310.70  574.61   1
   3  -4   9  213.79   95.09   1
   3  -4   9  190.31  131.00   1
  -3   4  -9  166.22   75.26   1
  -3   4  -9  228.66   91.41   1
  -3   4  -9  187.65  140.73   1
   3  -4  10   94.83   67.85   1
   3  -4  10   93.67  113.67   1
  -3   4 -10  102.19   61.19   1
  -3   4 -10   91.10   62.90   1
  -3   4 -10  262.50  128.76   1
  -3   4 -11 1886.33   24.66   1
   3  -4  11 2855.27  761.41   1
   3  -4  11 2482.98  640.71   1
  -3   4 -11 2601.06  750.45   1
  -3   4 -11 2847.65  658.62   1
   3  -4  12  345.94   83.96   1
  -3   4 -12   -2.23   75.04   1
   3  -4  12  594.93  127.15   1
  -3   4 -12  384.91   89.23   1
  -3   4 -12    9.95  113.48   1
   3  -4  13 8100.11  994.82   1
   3  -4  13 3993.42  819.46   1
  -3   4 -13    2.09  977.19   1
  -3   4 -13   30.45  816.44   1
  -3   4 -14   20.79   63.58   1
   3  -3   0 5067.51 1392.43   1
   3  -3   0 6150.59 1393.45   1
   3  -3   0 4575.18 1095.43   1
  -3   3   0 4318.44  930.12   1
  -3   3   0 4440.89  928.11   1
  -3   3   0 4580.87 1392.38   1
  -3   3   0 4871.22 1385.45   1
  -3   3   0 4183.23 1102.74   1
   3  -3   1   39.81   14.76   1
  -3   3  -1   27.55   13.95   1
   3  -3   1   48.16   38.74   1
   3  -3   1   45.53   44.36   1
  -3   3  -1   44.62   28.07   1
  -3   3  -1   48.83   31.17   1
  -3   3  -1   44.31   34.32   1
  -3   3  -1   41.95   46.10   1
  -3   3  -1   35.91   45.92   1
   3  -3   2 2659.67  502.37   1
  -3   3  -2 2987.96  502.56   1
   3  -3   2 2788.45  843.36   1
  -3   3  -2 3319.57  838.86   1
  -3   3  -2 2421.91  693.16   1
  -3   3  -2 2515.13  686.90   1
   3  -3   3 8196.69 2206.37   1
   3  -3   3 8638.24 2208.69   1
   3  -3   3 7312.24 1727.12   1
  -3   3  -3 7003.00 1479.48   1
  -3   3  -3 7738.69 2208.91   1
  -3   3  -3 7635.13 2199.71   1
  -3   3  -3 7719.76 1741.84   1
  -3   3  -3 7341.16 1727.29   1
   3  -3   4   61.37   18.16   1
   3  -3   4   51.20   46.79   1
   3  -3   4   60.91   70.08   1
  -3   3  -4   54.36   34.51   1
  -3   3  -4   90.05   48.71   1
  -3   3  -4   69.51   42.21   1
  -3   3  -4   81.86   60.05   1
  -3   3  -4   37.09   56.80   1
   3  -3   5 4843.35 1338.65   1
   3  -3   5 4672.86 1341.17   1
   3  -3   5 3143.83 1065.47   1
  -3   3  -5 5210.16  900.85   1
  -3   3  -5 5245.05 1343.96   1
  -3   3  -5 4398.37 1330.41   1
  -3   3  -5 4758.34 1084.29   1
   3  -3   6  223.97   58.28   1
   3  -3   6  289.39  122.55   1
   3  -3   6  311.16  134.02   1
   3  -3   6  260.00  135.51   1
  -3   3  -6  349.46   86.68   1
  -3   3  -6  327.73  127.22   1
  -3   3  -6  358.03  117.38   1
  -3   3  -6  360.94  148.30   1
  -3   3  -7  104.75   21.54   1
   3  -3   7   99.88   53.64   1
   3  -3   7   57.49   54.80   1
   3  -3   7   70.43   77.73   1
   3  -3   7   60.99   78.82   1
  -3   3  -7  119.32   45.15   1
  -3   3  -7   57.19   56.67   1
  -3   3  -7   73.15  104.67   1
   3  -3   8 1924.87  551.67   1
   3  -3   8 1167.57  470.41   1
   3  -3   8  929.32  467.50   1
  -3   3  -8 2064.70  375.79   1
  -3   3  -8 2085.07  544.10   1
  -3   3  -8 1955.84  483.91   1
   3  -3   9 2652.53  811.85   1
   3  -3   9 2322.55  673.63   1
  -3   3  -9 2993.90  550.38   1
  -3   3  -9 2929.46  806.35   1
  -3   3  -9 2604.96  687.80   1
   3  -3  10  520.17  191.53   1
   3  -3  10  530.07  202.16   1
  -3   3 -10  533.45  136.55   1
  -3   3 -10  561.24  187.63   1
  -3   3 -10  556.14  222.62   1
   3  -3  11   17.09   43.90   1
   3  -3  11    6.05   87.06   1
  -3   3 -11   17.20   43.29   1
  -3   3 -11   22.56   35.57   1
  -3   3 -11   24.75   89.51   1
   3  -3  12 4698.32  766.51   1
   3  -3  12 3680.24  643.26   1
  -3   3 -12 4983.54  520.85   1
  -3   3 -12   -1.22  750.01   1
  -3   3 -12   -5.84  638.09   1
   3  -3  13  458.41  129.26   1
   3  -3  13  324.29  148.34   1
  -3   3 -13  425.55   95.62   1
  -3   3 -13   -6.24  111.48   1
  -3   3 -13  -15.99  135.22   1
  -3   3 -14  -15.66   56.18   1
   3  -2   036095.00 6018.59   1
  -3   2   039922.89 6019.18   1
   3  -2   035420.44 9699.20   1
  -3   2   026555.83 6495.84   1
  -3   2   035902.65 9698.21   1
   3  -2   1 6366.35 1852.80   1
   3  -2   1 7366.30 1854.62   1
  -3   2  -1 6212.71 1854.30   1
  -3   2  -1 6573.69 1849.44   1
  -3   2  -1 5273.33 1466.10   1
   3  -2   2 3597.65  979.41   1
   3  -2   2 3521.51  980.39   1
   3  -2   2 2758.01  781.45   1
   3  -2   2 3071.94  779.98   1
  -3   2  -2 3231.36  654.46   1
  -3   2  -2 3494.42  979.72   1
  -3   2  -2 3544.45  972.42   1
  -3   2  -2 3122.25  802.72   1
  -3   2  -2 3189.84  789.04   1
   3  -2   3  959.55  193.79   1
   3  -2   3 1271.53  347.48   1
   3  -2   3 1366.38  300.06   1
  -3   2  -3  969.08  346.92   1
  -3   2  -3  950.02  341.88   1
  -3   2  -3 1418.01  314.02   1
  -3   2  -3 1228.21  302.51   1
  -3   2  -4 8692.32 1504.83   1
   3  -2   4 8285.88 2452.35   1
   3  -2   4 9016.13 2454.45   1
   3  -2   4 8617.93 1912.23   1
   3  -2   4 8542.66 1921.51   1
  -3   2  -4 8982.72 1645.93   1
  -3   2  -4 8644.50 2446.26   1
  -3   2  -4 8672.02 1928.75   1
   3  -2   5 3926.55 1078.61   1
   3  -2   5 3968.45 1079.39   1
   3  -2   5 4323.65  869.68   1
   3  -2   5 3734.31  871.91   1
  -3   2  -5 3991.87  724.21   1
  -3   2  -5 3292.86 1076.50   1
  -3   2  -5 3451.91 1069.51   1
   3  -2   6 2161.30  609.32   1
   3  -2   6 1737.29  610.45   1
   3  -2   6 2317.03  511.70   1
   3  -2   6 1504.81  516.65   1
  -3   2  -6 2102.09  410.92   1
  -3   2  -6 2119.00  601.55   1
  -3   2  -6 2431.14  526.38   1
   3  -2   7 1746.31  478.89   1
   3  -2   7 1316.83  480.78   1
   3  -2   7 1887.43  415.23   1
   3  -2   7 1067.51  417.39   1
  -3   2  -7 1738.31  325.10   1
  -3   2  -7 1320.38  479.09   1
  -3   2  -7 1674.37  472.23   1
  -3   2  -7 2094.30  432.65   1
   3  -2   8 2213.16  642.32   1
   3  -2   8 2369.91  544.23   1
   3  -2   8  921.13  543.66   1
  -3   2  -8 2385.48  436.65   1
  -3   2  -8 2290.46  636.83   1
  -3   2  -8 2205.48  561.14   1
   3  -2   9 4151.12 1185.13   1
   3  -2   9 4138.92  958.32   1
  -3   2  -9 2972.25  798.40   1
  -3   2  -9 4338.52 1177.96   1
  -3   2  -9 5108.61  974.42   1
   3  -2  10 2267.42  649.66   1
   3  -2  10 1836.79  552.44   1
  -3   2 -10 2208.42  441.26   1
  -3   2 -10 2205.75  645.96   1
  -3   2 -10 2204.00  563.78   1
   3  -2  11  996.38  303.67   1
   3  -2  11  734.42  281.66   1
  -3   2 -11  957.43  206.09   1
  -3   2 -11  963.93  295.51   1
  -3   2 -11  652.84  285.90   1
   3  -2  12   98.35   59.87   1
   3  -2  12   82.82   94.58   1
  -3   2 -12   81.55   54.83   1
  -3   2 -12    0.18   54.42   1
  -3   2 -12  -19.74   80.07   1
   3  -2  13   52.38   74.76   1
   3  -2  13   76.64  100.85   1
  -3   2 -13   87.47   52.36   1
  -3   2 -13   14.92   86.62   1
  -3   2 -14  -22.08   51.49   1
   3  -1   0 4060.77 1195.13   1
   3  -1   0 4129.61 1194.70   1
  -3   1   0 4915.11 1192.58   1
  -3   1   0 3438.97 1192.99   1
   3  -1   1  610.62  104.67   1
  -3   1  -1  588.25  104.95   1
   3  -1   1  592.44  202.33   1
  -3   1  -1  539.68  132.16   1
  -3   1  -1  588.41  200.56   1
   3  -1   2 2231.30  672.91   1
   3  -1   2 1993.86  672.30   1
  -3   1  -2 2578.40  677.27   1
  -3   1  -2 2335.48  671.37   1
   3  -1   339341.86 6137.36   1
   3  -1   332760.96 9149.58   1
   3  -1   331992.99 9148.32   1
   3  -1   324350.29 7019.98   1
   3  -1   331419.12 7028.86   1
  -3   1  -332225.54 6130.59   1
  -3   1  -334471.45 9150.57   1
  -3   1  -333839.88 9142.28   1
  -3   1  -330808.84 7029.84   1
   3  -1   4  923.84  203.96   1
   3  -1   4 1078.09  298.22   1
   3  -1   4  800.54  299.83   1
   3  -1   4  998.15  262.69   1
   3  -1   4  833.84  268.83   1
  -3   1  -4  784.76  198.93   1
  -3   1  -4  869.59  299.41   1
  -3   1  -4 1023.42  292.99   1
   3  -1   5 1043.31  260.63   1
   3  -1   5 1259.22  383.07   1
   3  -1   5 1259.99  386.20   1
   3  -1   5 1210.61  333.95   1
   3  -1   5  875.33  335.53   1
  -3   1  -5 1136.31  257.30   1
  -3   1  -5 1405.46  386.17   1
  -3   1  -5 1332.79  377.00   1
  -3   1  -5 1206.82  345.33   1
   3  -1   6 8755.04 1817.71   1
   3  -1   610076.39 2704.84   1
   3  -1   6 8972.80 2708.69   1
   3  -1   610602.82 2113.98   1
   3  -1   6 8686.18 2119.20   1
  -3   1  -6 9494.48 1813.99   1
  -3   1  -6 8635.38 2706.18   1
  -3   1  -610704.60 2696.09   1
  -3   1  -6 8877.39 2126.87   1
   3  -1   7 4652.59 1064.43   1
   3  -1   7 6348.48 1578.81   1
   3  -1   7 4986.54 1582.17   1
   3  -1   7 5975.59 1253.17   1
   3  -1   7 4529.70 1261.74   1
  -3   1  -7 5860.48 1060.64   1
  -3   1  -7 5201.44 1580.85   1
  -3   1  -7 5599.10 1570.81   1
  -3   1  -7 6357.88 1266.92   1
   3  -1   8 2792.51  781.27   1
   3  -1   8 2881.13  645.98   1
   3  -1   8 1614.03  655.62   1
  -3   1  -8 2791.03  527.55   1
  -3   1  -8 2684.26  775.57   1
  -3   1  -8 2676.71  657.48   1
   3  -1   9   46.77   49.13   1
   3  -1   9   74.86   94.57   1
  -3   1  -9   58.08   39.04   1
  -3   1  -9   55.37   43.33   1
  -3   1  -9   46.29   91.80   1
   3  -1  10   93.42   57.65   1
   3  -1  10   67.02   87.86   1
  -3   1 -10   31.43   38.56   1
  -3   1 -10   49.93   47.67   1
  -3   1 -10   59.52   97.06   1
   3  -1  11  344.39  132.54   1
   3  -1  11  266.80  147.86   1
  -3   1 -11  312.94  123.74   1
  -3   1 -11  263.35  143.75   1
   3  -1  12  540.68  143.77   1
   3  -1  12  415.64  153.41   1
  -3   1 -12  536.96   95.30   1
  -3   1 -12    1.52  122.84   1
  -3   1 -12    2.14  142.01   1
   3  -1  13  346.12  167.52   1
  -3   1 -13  552.55  107.54   1
  -3   1 -13   -7.38  160.56   1
  -3   1 -14    1.40   50.13   1
   3   0   0 5800.15 1031.33   1
  -3   0   0 6672.96 1031.45   1
  -3   0   0 6435.85 1031.36   1
   3   0   0 4961.05 1692.73   1
   3   0   1  372.38   97.67   1
   3   0   1  423.20  147.98   1
   3   0   1  342.99  147.11   1
  -3   0  -1  371.81  148.46   1
  -3   0  -1  455.26  146.97   1
   3   0   2 8183.85 1668.14   1
   3   0   2 8949.14 2488.86   1
   3   0   2 8575.28 2489.78   1
  -3   0  -2 8885.85 1664.87   1
  -3   0  -2 8885.27 2488.25   1
  -3   0  -2 9096.00 2486.52   1
   3   0   3  750.37  171.39   1
   3   0   3  668.06  248.30   1
   3   0   3  727.15  252.31   1
   3   0   3  488.05  219.28   1
   3   0   3 1015.63  232.07   1
  -3   0  -3  841.86  249.89   1
  -3   0  -3  752.60  246.48   1
  -3   0  -3  911.38  229.77   1
   3   0   4 7776.21 1343.84   1
   3   0   4 6850.01 1999.47   1
   3   0   4 7129.62 1999.59   1
   3   0   4 7107.72 1558.54   1
   3   0   4 7670.90 1583.01   1
  -3   0  -4 5216.15 1338.91   1
  -3   0  -4 7424.80 1998.84   1
  -3   0  -4 7149.31 1991.79   1
  -3   0  -4 7323.56 1574.49   1
   3   0   5  695.27  181.29   1
   3   0   5  779.59  258.50   1
   3   0   5  727.48  259.35   1
   3   0   5  697.10  231.38   1
   3   0   5  959.46  249.75   1
  -3   0  -5  797.45  174.22   1
  -3   0  -5  733.27  260.74   1
  -3   0  -5  852.11  254.20   1
  -3   0  -5  934.89  243.93   1
   3   0   6 6021.90 1088.19   1
   3   0   6 5841.63 1613.74   1
   3   0   6 5319.00 1614.65   1
   3   0   6 5770.74 1273.00   1
   3   0   6 5750.52 1296.06   1
  -3   0  -6 5761.20 1082.64   1
  -3   0  -6 5028.39 1616.21   1
  -3   0  -6 5739.61 1605.59   1
  -3   0  -6 6308.23 1290.73   1
   3   0   7 1232.14  326.33   1
   3   0   7 1639.84  474.97   1
   3   0   7 1391.34  476.36   1
   3   0   7 1755.79  404.50   1
   3   0   7 1477.26  427.81   1
  -3   0  -7 1764.83  320.93   1
  -3   0  -7 1187.51  477.87   1
  -3   0  -7 1744.15  467.27   1
  -3   0  -7 1883.36  420.30   1
   3   0   8 4362.04 1215.27   1
   3   0   8 4303.49  974.63   1
  -3   0  -8 3933.49  817.62   1
  -3   0  -8 4111.58 1209.24   1
  -3   0  -8 4700.51  992.40   1
   3   0   9 8461.88 2387.45   1
   3   0   9 8414.66 1870.22   1
  -3   0  -9 8337.07 1604.42   1
  -3   0  -9 8335.17 2380.36   1
  -3   0  -9 9014.18 1887.03   1
   3   0  10 2396.14  780.20   1
   3   0  10 2602.95  644.63   1
  -3   0 -10 2472.17  527.54   1
  -3   0 -10 2916.64  777.40   1
  -3   0 -10 2941.98  659.19   1
   3   0  11 1840.37  511.98   1
  -3   0 -11 2446.88  346.61   1
  -3   0 -11 1587.31  501.02   1
  -3   0 -11   21.79  434.28   1
   3   0  12  268.95  131.04   1
  -3   0 -12  283.82   81.11   1
  -3   0 -12    8.09  121.24   1
  -3   0 -13    8.65  113.56   1
  -3   0 -13    7.63  171.76   1
   3   1   0 1035.08  313.61   1
   3   1   0  979.18  314.36   1
  -3  -1   0 1004.38  314.07   1
  -3  -1   0  922.96  315.18   1
   3   1   1 9555.42 1735.10   1
   3   1   110580.46 2823.75   1
  -3  -1  -1 9519.37 1888.76   1
  -3  -1  -1 9787.54 2824.80   1
  -3  -1  -110428.08 2825.22   1
   3   1   2 2443.54  505.03   1
   3   1   2 2621.09  756.03   1
   3   1   2 2422.02  756.53   1
   3   1   2 2654.74  626.58   1
  -3  -1  -2 2355.75  504.22   1
  -3  -1  -2 2634.94  756.71   1
  -3  -1  -2 2714.29  754.85   1
  -3  -1  -2 2724.83  620.47   1
   3   1   316262.22 2876.87   1
   3   1   315455.58 4291.27   1
   3   1   314568.87 4292.48   1
   3   1   315560.12 3311.19   1
   3   1   315939.82 3332.61   1
  -3  -1  -314733.67 2874.45   1
  -3  -1  -315622.89 4292.30   1
  -3  -1  -314799.82 4288.56   1
  -3  -1  -315585.71 3321.45   1
   3   1   4 4234.75 1280.40   1
   3   1   4 4731.78 1281.74   1
   3   1   4 4343.11 1011.31   1
   3   1   4 4288.28 1035.89   1
  -3  -1  -4 4187.66  856.43   1
  -3  -1  -4 4551.92 1280.44   1
  -3  -1  -4 4616.16 1275.14   1
  -3  -1  -4 4300.56 1028.63   1
   3   1   513648.04 2438.12   1
   3   1   513868.79 3634.90   1
   3   1   512307.92 3636.06   1
   3   1   511492.25 2810.53   1
   3   1   513641.24 2835.79   1
  -3  -1  -513397.78 2435.52   1
  -3  -1  -513191.52 3637.04   1
  -3  -1  -512418.55 3628.04   1
  -3  -1  -512135.81 2825.61   1
   3   1   614672.17 2810.37   1
   3   1   615297.68 4186.69   1
   3   1   615407.51 4190.75   1
   3   1   614612.92 3236.54   1
   3   1   615532.50 3266.03   1
  -3  -1  -613975.94 2806.23   1
  -3  -1  -613867.04 4190.79   1
  -3  -1  -615519.64 4180.15   1
  -3  -1  -615220.04 3249.05   1
   3   1   717101.31 4470.20   1
   3   1   714789.67 4475.30   1
   3   1   716252.68 3453.02   1
   3   1   716317.08 3485.93   1
  -3  -1  -716069.82 2997.68   1
  -3  -1  -715708.96 4475.29   1
  -3  -1  -715655.15 4461.69   1
   3   1   8 2567.90  723.80   1
   3   1   8 2350.80  594.63   1
  -3  -1  -8 2510.65  487.69   1
  -3  -1  -8 2343.71  718.01   1
  -3  -1  -8 2552.78  613.36   1
   3   1   9 1523.83  445.70   1
   3   1   9 1483.99  384.16   1
  -3  -1  -9 1088.30  300.18   1
  -3  -1  -9 1521.66  439.73   1
  -3  -1  -9 1599.16  398.55   1
   3   1  10  334.49  160.96   1
   3   1  10  461.85  161.00   1
  -3  -1 -10  550.70  110.31   1
  -3  -1 -10  391.78  156.60   1
  -3  -1 -10  453.55  170.66   1
   3   1  11   29.23   60.86   1
   3   1  11   51.37   91.66   1
  -3  -1 -11   97.49   38.04   1
  -3  -1 -11   14.28   60.08   1
  -3  -1 -11   34.03   78.46   1
   3   1  12    8.99   89.35   1
  -3  -1 -12   -1.91   28.81   1
  -3  -1 -12  -11.42   72.30   1
  -3  -1 -13    0.89   35.43   1
   3   2   0  981.49  384.15   1
   3   2   0 1240.66  386.80   1
   3   2   0 2052.81  332.07   1
  -3  -2   0 1119.95  253.18   1
  -3  -2   0 1079.72  382.98   1
  -3  -2   0 1330.71  384.69   1
  -3  -2   0 1307.13  328.97   1
   3   2   1 2181.06  756.45   1
   3   2   1 3008.97  759.13   1
   3   2   1 2611.54  615.23   1
   3   2   1 2502.46  632.27   1
  -3  -2  -1 2370.54  503.47   1
  -3  -2  -1 2865.41  754.45   1
  -3  -2  -1 2569.46  756.97   1
  -3  -2  -1 2284.74  614.61   1
  -3  -2  -1 2517.44  617.30   1
   3   2   2 3306.38  950.65   1
   3   2   2 3372.46  947.17   1
   3   2   2 3390.44  759.26   1
   3   2   2 3405.74  778.54   1
  -3  -2  -2 3012.92  631.21   1
  -3  -2  -2 3543.65  942.15   1
  -3  -2  -2 3302.74  946.67   1
  -3  -2  -2 2161.97  762.12   1
   3   2   3 3160.88  589.19   1
   3   2   3 2824.21  876.55   1
   3   2   3 2963.39  875.38   1
   3   2   3 3023.53  703.42   1
   3   2   3 2938.00  725.42   1
  -3  -2  -3 2570.27  583.43   1
  -3  -2  -3 3170.94  870.51   1
  -3  -2  -3 3111.70  873.11   1
  -3  -2  -3 3141.61  709.50   1
   3   2   4 1724.06  356.49   1
   3   2   4 1610.92  524.91   1
   3   2   4 1733.20  527.94   1
   3   2   4 1905.43  437.69   1
   3   2   4 1676.16  460.14   1
  -3  -2  -4 1677.92  351.76   1
  -3  -2  -4 1722.14  523.66   1
  -3  -2  -4 1907.08  523.49   1
  -3  -2  -4 1650.74  444.32   1
   3   2   5  586.73  169.86   1
   3   2   5  731.65  247.42   1
   3   2   5  684.68  223.30   1
   3   2   5  778.35  246.81   1
  -3  -2  -5  761.45  165.78   1
  -3  -2  -5  628.95  244.67   1
  -3  -2  -5  893.86  240.32   1
  -3  -2  -5  725.54  231.33   1
   3   2   6 1438.98  428.92   1
   3   2   6 1136.37  433.12   1
   3   2   6 1581.10  366.26   1
   3   2   6 1178.19  395.95   1
  -3  -2  -6 1392.16  288.16   1
  -3  -2  -6 1153.05  428.64   1
  -3  -2  -6 1598.93  423.69   1
  -3  -2  -6 1660.86  381.52   1
   3   2   7 1834.92  568.12   1
   3   2   7 2000.80  472.17   1
  -3  -2  -7 1924.35  382.00   1
  -3  -2  -7 1847.84  559.74   1
  -3  -2  -7 1941.82  486.46   1
   3   2   812901.92 3617.03   1
   3   2   812692.58 2802.08   1
  -3  -2  -813895.37 2427.86   1
  -3  -2  -812250.53 3611.58   1
  -3  -2  -813242.24 2822.03   1
   3   2   9  591.32  255.16   1
   3   2   9  802.30  234.92   1
  -3  -2  -9  866.89  175.88   1
  -3  -2  -9  847.85  252.17   1
  -3  -2  -9  774.87  247.00   1
   3   2  10  160.39  108.80   1
   3   2  10  263.43  119.31   1
  -3  -2 -10  412.88   76.81   1
  -3  -2 -10  154.02   99.49   1
  -3  -2 -10   -3.47  120.12   1
   3   2  11  672.80  160.95   1
  -3  -2 -11  366.86  105.16   1
  -3  -2 -11    5.60  160.68   1
  -3  -2 -12    7.25   39.47   1
   3   3   0 1203.51  329.38   1
   3   3   0 1847.87  493.38   1
   3   3   0 1751.87  492.19   1
   3   3   0 1508.20  417.88   1
  -3  -3   0 1515.87  332.37   1
  -3  -3   0 1580.55  489.03   1
  -3  -3   0 1709.69  493.46   1
   3   3   1 1169.68  323.20   1
   3   3   1 1005.20  325.60   1
   3   3   1 1147.65  284.13   1
   3   3   1  964.02  301.24   1
  -3  -3  -1  877.14  322.68   1
  -3  -3  -1 1148.10  324.74   1
  -3  -3  -1  638.24  285.14   1
  -3  -3  -1 1024.72  285.61   1
   3   3   2  300.53  102.83   1
   3   3   2  527.56  150.14   1
   3   3   2  361.62  147.62   1
   3   3   2  346.78  139.17   1
  -3  -3  -2  339.39   95.87   1
  -3  -3  -2  417.70  145.58   1
  -3  -3  -2  379.63  146.12   1
  -3  -3  -2  271.47  144.63   1
  -3  -3  -2  463.42  147.83   1
   3   3   3 8707.06 1882.02   1
   3   3   311342.94 2806.69   1
   3   3   3 9834.61 2807.71   1
   3   3   3 9772.82 2179.10   1
   3   3   3 8464.61 2205.64   1
  -3  -3  -311399.93 1878.62   1
  -3  -3  -3 9860.86 2804.90   1
  -3  -3  -310362.21 2803.72   1
  -3  -3  -3 6186.75 2185.45   1
  -3  -3  -310409.81 2189.75   1
   3   3   4  915.52  257.56   1
   3   3   4 1189.51  378.66   1
   3   3   4 1247.61  383.64   1
   3   3   4 1314.22  326.51   1
   3   3   4 1003.41  350.60   1
  -3  -3  -4 1357.40  254.06   1
  -3  -3  -4 1277.81  381.12   1
  -3  -3  -4 1305.17  378.00   1
  -3  -3  -4  850.97  330.65   1
  -3  -3  -4 1384.29  334.01   1
   3   3   5 1521.90  391.51   1
   3   3   5 1054.54  393.24   1
   3   3   5 1326.58  335.37   1
   3   3   5  935.47  359.81   1
  -3  -3  -5 1340.89  261.80   1
  -3  -3  -5 1149.53  390.64   1
  -3  -3  -5 1269.29  384.15   1
  -3  -3  -5 1140.88  340.96   1
   3   3   6  586.38  205.59   1
   3   3   6  615.02  192.81   1
  -3  -3  -6  620.50  140.90   1
  -3  -3  -6  559.66  199.86   1
  -3  -3  -6  558.26  198.48   1
   3   3   7 3014.31  985.89   1
   3   3   7 3800.97  795.01   1
  -3  -3  -7 3604.43  662.35   1
  -3  -3  -7 3342.91  977.75   1
  -3  -3  -7 3579.47  806.53   1
   3   3   8 1981.81  657.28   1
   3   3   8 2445.73  545.10   1
  -3  -3  -8 2520.17  444.68   1
  -3  -3  -8 2141.94  651.24   1
  -3  -3  -8 2240.01  557.89   1
   3   3   9  207.67  107.75   1
  -3  -3  -9  250.64   67.86   1
  -3  -3  -9   -5.43  107.64   1
  -3  -3 -10  638.61  256.58   1
  -3  -3 -10  -28.16  338.71   1
  -3  -3 -11   -1.40  351.80   1
  -3  -3 -11    4.52  453.40   1
   3   4   0 4098.44 1104.88   1
   3   4   0 4105.78 1106.68   1
   3   4   0 4022.62  889.34   1
   3   4   0 2561.22  892.38   1
  -3  -4   0 4118.05 1099.87   1
  -3  -4   0 4078.07 1104.38   1
  -3  -4   0 2172.07  882.53   1
   3   4   1 4774.40 1313.98   1
   3   4   1 7821.05 1959.40   1
   3   4   1 7908.77 1963.72   1
   3   4   1 7129.21 1537.50   1
   3   4   1 5477.02 1553.99   1
  -3  -4  -1 7377.41 1312.50   1
  -3  -4  -1 6916.94 1956.13   1
  -3  -4  -1 7329.72 1961.06   1
  -3  -4  -1 4886.64 1540.44   1
   3   4   2 5100.41 1377.70   1
   3   4   2 7624.34 2053.95   1
   3   4   2 7686.32 2057.11   1
   3   4   2 6733.19 1600.68   1
   3   4   2 6815.43 1633.16   1
  -3  -4  -2 7839.85 1375.08   1
  -3  -4  -2 7114.72 2049.38   1
  -3  -4  -2 7842.49 2053.11   1
  -3  -4  -2 6533.18 1615.39   1
  -3  -4  -2 7894.94 1611.86   1
   3   4   3 5142.34 1489.79   1
   3   4   3 5210.87 1493.07   1
   3   4   3 5243.44 1178.09   1
  -3  -4  -3 5839.71  996.38   1
  -3  -4  -3 5013.62 1485.61   1
  -3  -4  -3 5675.74 1487.27   1
  -3  -4  -3 3394.69 1183.68   1
  -3  -4  -3 5041.70 1181.44   1
   3   4   4  114.46   90.34   1
   3   4   4  309.98  108.02   1
  -3  -4  -4  172.23   63.50   1
  -3  -4  -4  184.91   89.49   1
  -3  -4  -4  308.22  112.94   1
   3   4   5 6280.34 1709.85   1
   3   4   5 6058.79 1342.11   1
  -3  -4  -5 6055.25 1143.59   1
  -3  -4  -5 5761.50 1702.21   1
  -3  -4  -5 5748.37 1356.39   1
   3   4   6  787.11  341.31   1
   3   4   6 1271.50  302.35   1
  -3  -4  -6 1198.88  229.49   1
  -3  -4  -6 1092.16  335.63   1
  -3  -4  -6 1182.28  309.75   1
   3   4   7 1542.90  510.39   1
   3   4   7 2196.73  432.07   1
  -3  -4  -7 2009.24  343.75   1
  -3  -4  -7 1316.66  504.21   1
  -3  -4  -7 1886.15  439.57   1
   3   4   8   88.69   75.13   1
  -3  -4  -8   98.28   45.56   1
  -3  -4  -8    1.64   84.61   1
   3   4   9  848.69  135.88   1
  -3  -4  -9    2.54   77.15   1
  -3  -4  -9   17.50  132.24   1
  -3  -4 -10    3.97   35.82   1
   3   5   0 2424.24  723.64   1
   3   5   0 4719.97 1081.52   1
   3   5   0 4663.50  874.63   1
   3   5   0 2016.70  874.64   1
  -3  -5   0 3828.82  729.50   1
  -3  -5   0 4503.99 1079.45   1
  -3  -5   0 2364.01  865.53   1
   3   5   1   27.95   42.69   1
   3   5   1   27.25   63.12   1
   3   5   1   17.80   67.56   1
  -3  -5  -1   22.77   50.22   1
  -3  -5  -1   66.23   44.11   1
   3   5   2  308.19  110.89   1
   3   5   2  164.97  116.62   1
  -3  -5  -2  242.65   78.67   1
  -3  -5  -2  275.26  109.76   1
  -3  -5  -2  202.11  125.26   1
   3   5   3  764.33  228.54   1
   3   5   3  618.14  206.49   1
  -3  -5  -3  662.78  154.93   1
  -3  -5  -3  634.31  225.89   1
  -3  -5  -3  576.64  217.84   1
   3   5   4 4197.35 1310.84   1
   3   5   4 4979.94 1045.95   1
  -3  -5  -4 5187.76  879.64   1
  -3  -5  -4 4276.09 1308.67   1
  -3  -5  -4 4506.26 1051.32   1
   3   5   5   33.24   52.93   1
   3   5   5   46.71   85.28   1
  -3  -5  -5   72.50   51.46   1
  -3  -5  -5   26.15   77.76   1
   3   5   6   30.92  107.74   1
   3   5   6  490.49  127.24   1
  -3  -5  -6  471.08   78.21   1
  -3  -5  -6  189.00  100.64   1
  -3  -5  -6   48.85  135.57   1
   3   5   7  179.79   89.58   1
  -3  -5  -7   23.93   43.88   1
  -3  -5  -7  -35.95  109.00   1
   3   5   8   14.84   65.12   1
  -3  -5  -8    3.97   37.73   1
  -3  -5  -8   -7.26  103.07   1
  -3  -5  -9  -18.10   37.24   1
   3   6   0 2720.15  872.91   1
   3   6   0 2878.43  714.71   1
  -3  -6   0 3257.58  871.67   1
   3   6   1   -0.51   46.45   1
   3   6   1    6.27   70.84   1
  -3  -6  -1   54.18   53.18   1
  -3  -6  -1   18.21   38.57   1
   3   6   2  954.05  330.08   1
   3   6   2 1017.75  294.43   1
  -3  -6  -2 1271.96  241.73   1
  -3  -6  -2  971.92  325.85   1
   3   6   3  202.59  106.76   1
   3   6   3  267.89  133.03   1
  -3  -6  -3  227.81   96.46   1
  -3  -6  -3  205.79  103.40   1
  -3  -6  -3  256.88  142.14   1
   3   6   4 1318.65  581.37   1
   3   6   4 2895.71  492.35   1
  -3  -6  -4 3071.24  398.09   1
  -3  -6  -4 1919.03  580.46   1
  -3  -6  -4  361.07  487.24   1
   3   6   5  277.12   93.22   1
  -3  -6  -5   16.76   60.81   1
  -3  -6  -5  -28.38  104.43   1
   3   6   6   46.27   84.93   1
  -3  -6  -6   18.97   48.03   1
  -3  -6  -6    2.89   98.89   1
   3   6   7  635.54  157.69   1
  -3  -6  -7    6.02   81.68   1
  -3  -6  -8   11.39   48.93   1
   3   7   0 2479.21  598.54   1
  -3  -7   0 2372.84  713.91   1
   3   7   1 2563.50  529.34   1
   3   7   1 2922.64  466.79   1
  -3  -7  -1  414.26  363.27   1
  -3  -7  -1  981.11  526.47   1
   3   7   2 2763.90  515.67   1
   3   7   2 3022.19  448.22   1
  -3  -7  -2   26.92  347.38   1
  -3  -7  -2  870.21  504.54   1
   3   7   3   24.07   58.35   1
   3   7   3   26.29  106.31   1
  -3  -7  -3   -7.32   81.75   1
  -3  -7  -3   12.32   41.49   1
  -3  -7  -4  -22.56  255.86   1
  -3  -7  -4   18.91  325.03   1
   3   7   5   50.16  115.03   1
  -3  -7  -5   32.34   84.68   1
  -3  -7  -5   17.47  126.46   1
  -3  -7  -6  -22.45   74.28   1
   3   8   0  755.70  184.14   1
   3   8   0 1021.56  216.82   1
  -3  -8   0   18.18  180.93   1
   3   8   1 1721.80  221.19   1
  -3  -8  -1   12.16  173.73   1
   3   8   2 1346.28  387.09   1
  -3  -8  -3   28.25   60.78   1
   4 -10   0   14.39  315.32   1
  -4  10   0 1980.75  315.39   1
  -4  10   0   16.85  305.18   1
   4 -10   1    1.62   36.69   1
  -4  10  -1    1.34  134.58   1
  -4  10  -1   10.98   36.29   1
  -4  10  -1   -7.00   98.21   1
   4 -10   2   25.18  139.86   1
  -4  10  -2   20.16  142.08   1
  -4  10  -2  727.99  138.41   1
  -4  10  -2   52.64  187.29   1
   4 -10   3  260.23  101.27   1
  -4  10  -3   12.23  140.84   1
  -4  10  -3  203.74   94.00   1
  -4  10  -4  -23.61  180.00   1
   4 -10   4 1068.35  251.16   1
  -4  10  -4   21.71  204.75   1
  -4  10  -4  802.87  239.47   1
  -4  10  -5  752.31  100.29   1
   4 -10   5  575.56  197.88   1
  -4  10  -5  -22.92  181.16   1
  -4  10  -5   -3.19  283.93   1
   4 -10   6 2688.83  721.76   1
  -4  10  -6   -4.41  509.12   1
  -4  10  -6 2872.10  710.89   1
   4 -10   7  981.80  356.71   1
  -4  10  -7 1165.36  348.59   1
   4  -9   0 1579.03  432.08   1
  -4   9   0 1630.37  427.43   1
  -4   9   0    6.50  391.13   1
   4  -9   1   49.61   47.65   1
  -4   9  -1   24.40  111.36   1
  -4   9  -1   60.37   44.45   1
  -4   9  -1   -7.41   94.87   1
   4  -9   2 4912.35 1177.70   1
  -4   9  -2    0.93  803.85   1
  -4   9  -2 5478.70 1174.02   1
  -4   9  -2   43.99  967.70   1
   4  -9   3  101.56   70.07   1
  -4   9  -3  129.31   66.35   1
  -4   9  -3   63.75  168.89   1
   4  -9   4 1883.60  517.82   1
  -4   9  -4 1828.17  513.33   1
  -4   9  -4   -0.55  501.78   1
   4  -9   5 3504.48  805.31   1
  -4   9  -5   17.70  559.38   1
  -4   9  -5 3399.95  799.12   1
  -4   9  -5   13.18  711.99   1
   4  -9   6   96.33   54.45   1
  -4   9  -6  -12.52   68.50   1
  -4   9  -6   59.57   47.75   1
  -4   9  -6  -16.04  164.25   1
   4  -9   7   53.77   48.90   1
  -4   9  -7   24.64   63.82   1
  -4   9  -7   37.64   41.50   1
  -4   9  -7  -21.65  159.86   1
   4  -9   8   31.91   44.26   1
  -4   9  -8  -21.24  110.37   1
  -4   9  -8   38.70   43.93   1
   4  -9   9 2666.80  480.55   1
  -4   9  -9 2783.56  479.30   1
   4  -8   0 2162.06  673.78   1
  -4   8   0 2336.38  666.72   1
  -4   8   0 2349.36  578.22   1
   4  -8   1  111.51   61.17   1
  -4   8  -1  121.83   84.06   1
  -4   8  -1   84.73   55.29   1
  -4   8  -1   49.66  103.86   1
   4  -8   2 3274.42 1053.60   1
  -4   8  -2 3840.74  726.53   1
  -4   8  -2 3760.49 1046.32   1
  -4   8  -2 4046.09  882.12   1
   4  -8   3  830.78  288.79   1
  -4   8  -3  932.27  221.53   1
  -4   8  -3  870.38  282.02   1
  -4   8  -3 1163.32  323.73   1
   4  -8   4 1334.46  439.84   1
  -4   8  -4 1439.26  323.25   1
  -4   8  -4 1453.27  434.11   1
  -4   8  -4 1700.20  441.08   1
   4  -8   5  791.01  233.19   1
  -4   8  -5   81.12  181.33   1
  -4   8  -5  915.54  229.14   1
  -4   8  -5   -1.43  270.93   1
   4  -8   6 8517.56 2005.12   1
  -4   8  -6   19.84 1349.18   1
  -4   8  -6 9886.04 2001.71   1
  -4   8  -6    0.33 1614.74   1
   4  -8   7  342.51  128.49   1
  -4   8  -7  328.87  123.28   1
  -4   8  -7    5.14  198.02   1
   4  -8   8 1124.43  288.19   1
  -4   8  -8   41.79  206.86   1
  -4   8  -8 1132.54  279.88   1
  -4   8  -8   27.97  318.63   1
   4  -8   9  284.78   47.95   1
  -4   8  -9  219.74   42.55   1
  -4   8  -9    6.55   90.94   1
  -4   8  -9   19.00  153.93   1
   4  -8  10 1092.25  362.91   1
  -4   8 -10 1121.44  353.01   1
   4  -7   0 3810.02 1063.24   1
  -4   7   0 3293.85  740.14   1
  -4   7   0 3663.10 1055.60   1
  -4   7   0 3610.09  871.34   1
   4  -7   114379.75 3943.50   1
  -4   7  -113348.97 2656.66   1
  -4   7  -113886.01 3936.54   1
  -4   7  -114507.44 3073.13   1
   4  -7   2 3319.58  999.32   1
  -4   7  -2 3724.50  684.41   1
  -4   7  -2 3445.19  992.97   1
  -4   7  -2 3449.60  838.54   1
   4  -7   3   66.58   44.77   1
  -4   7  -3   17.66   55.63   1
  -4   7  -3   43.69   40.81   1
  -4   7  -3   72.35   92.64   1
   4  -7   4  363.52  135.54   1
  -4   7  -4  263.95  109.43   1
  -4   7  -4  353.74  129.00   1
  -4   7  -4  391.10  190.62   1
   4  -7   5  297.28  109.86   1
  -4   7  -5  132.20   92.73   1
  -4   7  -5  283.07  103.45   1
  -4   7  -5  195.20  162.73   1
   4  -7   6 3821.01 1100.12   1
  -4   7  -6 3977.18 1093.58   1
  -4   7  -6 2717.80  931.84   1
   4  -7   7 2817.88  572.72   1
  -4   7  -7  175.68  391.80   1
  -4   7  -7 2173.11  567.21   1
  -4   7  -7   19.16  520.88   1
   4  -7   8 1208.45  315.13   1
  -4   7  -8  -10.21  225.08   1
  -4   7  -8 1358.00  311.30   1
  -4   7  -8  -21.13  329.30   1
   4  -7   9  545.89  167.39   1
  -4   7  -9   10.39  128.62   1
  -4   7  -9  603.57  161.08   1
  -4   7  -9  -14.79  217.89   1
   4  -7  10 2863.26  723.35   1
  -4   7 -10   -1.70  486.51   1
  -4   7 -10 3110.20  712.15   1
   4  -7  11    8.21   24.00   1
  -4   7 -11   14.75   41.45   1
   4  -6   0 1522.53  234.81   1
   4  -6   0  573.89  347.22   1
  -4   6   0 1582.10  286.09   1
  -4   6   0  677.38  274.59   1
  -4   6   0 1657.60  402.28   1
  -4   6   0 1804.23  368.04   1
  -4   6   0 1096.90  367.31   1
   4  -6   1 6937.52  905.60   1
  -4   6  -1 5799.10 1004.81   1
  -4   6  -1  790.31  992.56   1
  -4   6  -1 6019.89 1479.38   1
  -4   6  -1 6288.17 1199.49   1
   4  -6   2 2679.82  598.02   1
   4  -6   2 1078.15  489.93   1
  -4   6  -2 1006.81  408.25   1
  -4   6  -2  829.96  397.45   1
  -4   6  -2 2889.69  590.02   1
  -4   6  -2 3822.79  534.49   1
  -4   6  -2  679.20  503.47   1
   4  -6   3  478.31  169.26   1
  -4   6  -3  348.91  128.75   1
  -4   6  -3  495.42  162.62   1
  -4   6  -3  478.78  198.23   1
   4  -6   4 1785.99  475.85   1
  -4   6  -4  905.32  326.63   1
  -4   6  -4 1717.02  469.50   1
  -4   6  -4 1241.25  439.51   1
   4  -6   5 4576.39 1199.15   1
  -4   6  -5 4177.72  816.08   1
  -4   6  -5 3884.67 1192.03   1
  -4   6  -5 3930.31 1001.38   1
   4  -6   6  705.79  215.43   1
  -4   6  -6  600.24  208.07   1
  -4   6  -6  469.35  245.09   1
   4  -6   7  359.58  139.40   1
  -4   6  -7  333.27  112.99   1
  -4   6  -7  401.72  133.18   1
  -4   6  -7  163.88  187.94   1
   4  -6   8 1694.63  440.17   1
  -4   6  -8  300.24  305.43   1
  -4   6  -8 1923.68  435.52   1
  -4   6  -8    9.79  412.23   1
  -4   6  -9  165.45   33.30   1
   4  -6   9  173.89   73.02   1
   4  -6   9   55.48  139.04   1
  -4   6  -9   -0.28   76.58   1
  -4   6  -9  -22.24  155.87   1
   4  -6  10  358.87  130.33   1
   4  -6  10  117.09  185.87   1
  -4   6 -10  372.66  123.86   1
  -4   6 -10   50.81  197.61   1
   4  -6  11  140.14   72.69   1
  -4   6 -11   18.10   92.90   1
  -4   6 -11   77.11   60.93   1
   4  -5   0  272.96   40.12   1
   4  -5   0   87.42   94.35   1
  -4   5   0   85.84   63.45   1
  -4   5   0  108.99   61.47   1
  -4   5   0  256.54   81.70   1
  -4   5   0  244.52  104.99   1
  -4   5   0   57.36  103.67   1
   4  -5   1 2689.65  593.36   1
   4  -5   1 1217.66  485.16   1
  -4   5  -1 1998.47  584.07   1
  -4   5  -1 2241.14  516.62   1
  -4   5  -1  892.50  500.42   1
   4  -5   2   50.68   36.70   1
   4  -5   2   25.83   49.62   1
  -4   5  -2    0.67   34.71   1
  -4   5  -2    4.78   31.29   1
  -4   5  -2   38.44   30.77   1
  -4   5  -2    5.39   68.27   1
  -4   5  -2   15.37   57.14   1
   4  -5   3  997.12  271.96   1
   4  -5   3  685.01  247.22   1
  -4   5  -3 1074.89  191.76   1
  -4   5  -3  451.74  186.24   1
  -4   5  -3 1023.21  263.56   1
  -4   5  -3  811.35  270.81   1
  -4   5  -3  171.02  249.19   1
   4  -5   4 2274.52  552.25   1
   4  -5   4  429.92  455.60   1
  -4   5  -4 1875.94  376.10   1
  -4   5  -4 1726.79  385.31   1
  -4   5  -4 2483.29  544.23   1
  -4   5  -4 1685.48  491.83   1
  -4   5  -4  368.24  463.44   1
   4  -5   5 4801.38 1286.35   1
  -4   5  -5 4004.97  869.97   1
  -4   5  -5 4551.74 1278.94   1
  -4   5  -5 3778.41 1058.11   1
   4  -5   6 5848.84  978.02   1
  -4   5  -6 4729.74 1084.19   1
  -4   5  -6 5812.16 1598.86   1
   4  -5   7  954.28  276.38   1
   4  -5   7  490.89  278.77   1
  -4   5  -7  870.83  269.07   1
  -4   5  -7  780.61  291.20   1
   4  -5   8  190.96   84.60   1
   4  -5   8   49.15  109.57   1
  -4   5  -8  200.49   78.87   1
  -4   5  -8   89.07  150.24   1
   4  -5   9   10.81   19.73   1
   4  -5   9  -28.91  116.10   1
  -4   5  -9   -1.55   72.17   1
  -4   5  -9    2.91   25.54   1
  -4   5  -9    8.06  133.09   1
   4  -5  10 3828.79  495.82   1
   4  -5  10 1985.66  703.85   1
  -4   5 -10   18.39  560.69   1
  -4   5 -10 4075.20  825.59   1
  -4   5 -10   23.54  713.70   1
  -4   5 -11   -6.77   22.59   1
   4  -5  11  112.13   54.03   1
  -4   5 -11  -21.76   55.67   1
   4  -4   0 3670.69  942.24   1
   4  -4   0 3053.79  940.15   1
  -4   4   0 1488.44  626.93   1
  -4   4   0 2753.80  944.01   1
  -4   4   0 4000.02  936.78   1
  -4   4   0 4884.96  776.72   1
  -4   4   0 3478.45  768.10   1
   4  -4   1 1744.00  467.65   1
   4  -4   1 1385.61  468.53   1
   4  -4   1  980.26  389.56   1
  -4   4  -1 1489.59  468.84   1
  -4   4  -1 1938.29  462.83   1
  -4   4  -1 1481.44  413.72   1
  -4   4  -1  877.67  402.15   1
   4  -4   2 1402.94  324.38   1
   4  -4   2  679.41  325.43   1
   4  -4   2  449.86  277.40   1
  -4   4  -2  982.45  221.83   1
  -4   4  -2  754.08  215.89   1
  -4   4  -2  977.30  325.15   1
  -4   4  -2 1401.39  317.80   1
  -4   4  -2  939.73  302.10   1
   4  -4   3 2738.63  714.98   1
   4  -4   3 1744.72  581.13   1
  -4   4  -3 1819.03  482.01   1
  -4   4  -3 2829.01  488.43   1
  -4   4  -3 2554.69  706.09   1
  -4   4  -3 2289.09  607.96   1
   4  -4   4 3746.42  933.56   1
   4  -4   4 3063.68  758.38   1
   4  -4   4 1478.93  746.70   1
  -4   4  -4 3838.22  924.24   1
  -4   4  -4 4117.78  780.25   1
  -4   4  -4 1366.04  754.45   1
   4  -4   510001.04 1457.68   1
  -4   4  -5 9325.65 1456.35   1
   4  -4   5 7180.25 1862.36   1
   4  -4   5 3254.77 1849.49   1
  -4   4  -5 9825.59 1597.58   1
  -4   4  -5 9374.31 1886.58   1
  -4   4  -5 6144.04 1863.83   1
   4  -4   6 1827.26  270.95   1
   4  -4   6  602.60  403.83   1
  -4   4  -6 1646.12  327.04   1
  -4   4  -6 1625.73  461.15   1
  -4   4  -6 1149.37  421.17   1
   4  -4   7   58.84   20.89   1
   4  -4   7    8.36   77.67   1
  -4   4  -7   30.03   61.37   1
  -4   4  -7   43.48   39.17   1
  -4   4  -8 7863.55 1279.23   1
   4  -4   8 7874.48 2090.38   1
   4  -4   8 5890.21 1658.03   1
  -4   4  -8 6389.20 1408.72   1
  -4   4  -8 6843.57 1676.89   1
   4  -4   9 1224.44  309.64   1
   4  -4   9  738.48  300.47   1
  -4   4  -9  100.90  212.48   1
  -4   4  -9 1200.07  302.96   1
  -4   4  -9  747.98  322.89   1
   4  -4  10  199.01   72.26   1
   4  -4  10   98.31  119.60   1
  -4   4 -10   -0.00   63.95   1
  -4   4 -10  119.82   67.21   1
  -4   4 -10   13.23  115.07   1
   4  -4  11  831.83  250.22   1
  -4   4 -11    7.72  158.11   1
  -4   4 -11    5.97  216.22   1
  -4   4 -11  -38.49  237.88   1
   4  -3   014556.68 2762.52   1
  -4   3   016540.43 2763.29   1
   4  -3   016775.36 4474.65   1
   4  -3   1  914.65  233.09   1
   4  -3   1  569.50  229.49   1
  -4   3  -1  286.53  151.83   1
  -4   3  -1  759.72  234.27   1
  -4   3  -1  821.82  226.29   1
  -4   3  -2 1350.14  327.04   1
   4  -3   2 1958.99  562.93   1
  -4   3  -2 2354.74  384.80   1
  -4   3  -2 1958.81  557.55   1
   4  -3   3 1880.47  376.55   1
   4  -3   3 1130.10  376.99   1
   4  -3   3  734.81  323.79   1
  -4   3  -3 1194.82  377.32   1
  -4   3  -3   96.26  328.14   1
   4  -3   4 3651.03  922.30   1
   4  -3   4 2355.95  746.78   1
  -4   3  -4 3735.67  914.03   1
  -4   3  -4 2774.02  761.27   1
  -4   3  -4 1184.96  746.70   1
   4  -3   5  530.43  156.28   1
   4  -3   5  402.33  159.92   1
   4  -3   5   25.96  153.32   1
  -4   3  -5  483.15  108.93   1
  -4   3  -5  513.33  147.73   1
  -4   3  -5  370.08  170.02   1
  -4   3  -5  179.08  155.47   1
   4  -3   6 1654.61  411.40   1
   4  -3   6  431.90  351.65   1
  -4   3  -6 1293.11  281.62   1
  -4   3  -6 1789.69  403.02   1
  -4   3  -6 1306.01  375.06   1
  -4   3  -6  195.36  352.91   1
   4  -3   7 2980.81  846.57   1
   4  -3   7 2421.48  700.63   1
  -4   3  -7 2000.68  571.98   1
  -4   3  -7 3511.55  839.77   1
  -4   3  -7 2159.57  710.98   1
   4  -3   8 1717.35  461.30   1
   4  -3   8 1162.44  409.25   1
  -4   3  -8 1411.55  317.60   1
  -4   3  -8 1644.68  454.68   1
  -4   3  -8  766.32  417.35   1
   4  -3   9   59.85   55.22   1
   4  -3   9   76.72  105.18   1
  -4   3  -9   62.80   61.29   1
  -4   3  -9   88.18   52.78   1
  -4   3  -9   19.55  108.38   1
   4  -3  10   -6.08   33.37   1
   4  -3  10   -6.45  106.30   1
  -4   3 -10    4.12   24.65   1
   4  -3  11   -7.29   39.26   1
  -4   3 -11   -3.24   52.74   1
  -4   3 -11    2.42   40.18   1
  -4   3 -12   17.24   49.53   1
   4  -2   0 7465.06 1355.53   1
  -4   2   0 7744.99 1355.62   1
   4  -2   0 7905.09 2217.70   1
  -4   2   0 8150.37 2215.44   1
   4  -2   1  866.65  319.90   1
   4  -2   1  938.34  322.07   1
  -4   2  -1 1007.33  320.07   1
  -4   2  -1 1156.37  316.14   1
   4  -2   2  884.11  289.74   1
   4  -2   2  758.25  288.87   1
  -4   2  -2  894.01  192.90   1
  -4   2  -2  897.15  290.27   1
  -4   2  -2  984.89  283.26   1
   4  -2   3  937.54  372.03   1
  -4   2  -3 1211.51  251.19   1
  -4   2  -3 1399.69  368.84   1
   4  -2   4 4774.22 1352.98   1
  -4   2  -4 4515.11  908.24   1
  -4   2  -4 4774.45 1347.11   1
   4  -2   5 2665.47  412.93   1
   4  -2   5 1477.34  570.74   1
  -4   2  -5 2830.67  472.07   1
  -4   2  -5 2682.62  690.25   1
  -4   2  -5 2201.43  586.53   1
  -4   2  -5 1030.58  572.90   1
   4  -2   6 1187.73  351.08   1
   4  -2   6  602.45  305.42   1
   4  -2   6  201.89  305.37   1
  -4   2  -6 1511.41  243.93   1
  -4   2  -6 1225.03  341.96   1
  -4   2  -6 1439.90  323.17   1
   4  -2   7 7384.42 1846.88   1
   4  -2   7 3114.07 1451.71   1
  -4   2  -7 7357.63 1242.65   1
  -4   2  -7 6519.94 1837.41   1
   4  -2   8  282.54  105.59   1
   4  -2   8  136.79  124.98   1
  -4   2  -8  195.68   79.77   1
  -4   2  -8  282.91  101.12   1
  -4   2  -8  140.82  138.57   1
   4  -2   9 4845.94  949.29   1
   4  -2   9 2303.28  772.12   1
  -4   2  -9 1394.32  636.91   1
  -4   2  -9 3255.29  940.47   1
  -4   2  -9 3036.94  791.15   1
   4  -2  10  699.00  118.32   1
   4  -2  10  441.91  162.63   1
  -4   2 -10   12.51   80.63   1
  -4   2 -10    6.75  103.56   1
  -4   2 -10  -14.29  147.45   1
  -4   2 -11   15.48  174.98   1
  -4   2 -11  -10.89  253.15   1
   4  -1   0  769.31  222.23   1
   4  -1   0  540.96  221.18   1
  -4   1   0  508.47  221.96   1
  -4   1   0  753.67  219.23   1
   4  -1   1 1469.05  392.11   1
   4  -1   1 1084.28  394.51   1
  -4   1  -1 1037.94  395.46   1
  -4   1  -1 1401.21  390.83   1
   4  -1   2  945.60  156.28   1
  -4   1  -2  951.43  155.67   1
   4  -1   2  862.16  288.22   1
  -4   1  -2  819.51  189.25   1
  -4   1  -2  776.62  287.04   1
   4  -1   3 4383.66 1139.69   1
   4  -1   3 3507.44 1142.51   1
  -4   1  -3 3315.33 1139.85   1
  -4   1  -3 4356.48 1132.17   1
   4  -1   4 8951.48 2332.07   1
  -4   1  -4 6187.68 1562.16   1
  -4   1  -4 8815.49 2326.00   1
   4  -1   5 3403.39  919.88   1
   4  -1   5 1874.38  734.53   1
   4  -1   5 2029.48  741.85   1
  -4   1  -5 3923.76  620.31   1
  -4   1  -5 3722.75  913.48   1
  -4   1  -5 2387.67  748.08   1
   4  -1   6 4831.99 1155.95   1
   4  -1   6 3430.12  918.38   1
   4  -1   6 1297.99  926.66   1
  -4   1  -6 4522.25  777.60   1
  -4   1  -6 4165.52 1145.43   1
   4  -1   7 5999.78 1572.28   1
  -4   1  -7 4319.84 1056.06   1
  -4   1  -7 6049.88 1563.11   1
  -4   1  -7 4140.11 1253.36   1
   4  -1   8  432.14  134.83   1
   4  -1   8  206.90  153.29   1
  -4   1  -8  323.94  105.04   1
  -4   1  -8  367.45  129.34   1
  -4   1  -8  161.55  167.43   1
   4  -1   9  257.56   69.14   1
   4  -1   9  124.76  121.56   1
  -4   1  -9  -13.19   67.55   1
  -4   1  -9   11.04   66.13   1
  -4   1  -9  134.75  121.38   1
   4  -1  10 1550.66  222.11   1
   4  -1  10  692.51  217.06   1
  -4   1 -10    5.23  208.39   1
  -4   1 -10  -11.41  214.60   1
  -4   1 -11   -0.99   50.07   1
   4   0   0 7614.70 1153.19   1
   4   0   0 6633.96 1889.21   1
  -4   0   0 5842.54 1886.67   1
   4   0   1 1753.96  568.86   1
   4   0   1 1980.46  572.12   1
  -4   0  -1 1672.25  571.76   1
  -4   0  -1 2103.39  565.92   1
   4   0   211290.83 3180.50   1
   4   0   212209.92 3186.57   1
  -4   0  -210640.61 2128.21   1
  -4   0  -211068.48 3178.76   1
   4   0   3   18.57   59.47   1
   4   0   3   84.35   52.98   1
  -4   0  -3   59.92   42.87   1
  -4   0  -3   86.61   49.80   1
   4   0   4 6798.62 1400.57   1
   4   0   4 7717.83 2076.37   1
  -4   0  -4 7555.76 1390.18   1
  -4   0  -4 7043.93 2068.78   1
   4   0   5 3034.55  873.48   1
   4   0   5 1882.17  700.51   1
  -4   0  -5 3296.95  586.92   1
  -4   0  -5 3444.70  868.34   1
  -4   0  -5 2362.10  709.54   1
   4   0   6 7812.04 2218.02   1
  -4   0  -6 7723.62 1487.25   1
  -4   0  -6 8369.73 2209.51   1
  -4   0  -6 6082.17 1744.69   1
   4   0   7 1219.08  335.27   1
   4   0   7  566.75  291.46   1
  -4   0  -7 1102.25  226.28   1
  -4   0  -7 1136.49  325.95   1
  -4   0  -7  816.90  306.38   1
   4   0   8  447.16  130.98   1
   4   0   8  176.72  136.17   1
  -4   0  -8  301.79   91.70   1
  -4   0  -8  289.25  125.18   1
  -4   0  -8  299.55  156.79   1
  -4   0  -9    0.39  137.64   1
  -4   0  -9   -5.27  200.83   1
  -4   0  -9  907.63  225.75   1
  -4   0 -10   -5.75   93.49   1
  -4   0 -10  -45.40  135.48   1
  -4   0 -11   -0.00   33.90   1
   4   1   0  917.38  166.08   1
  -4  -1   0 1109.12  166.18   1
   4   1   0  922.30  303.76   1
  -4  -1   0  795.83  299.24   1
   4   1   1 2071.28  399.75   1
   4   1   1 1992.52  591.29   1
   4   1   1 2112.18  593.85   1
  -4  -1  -1 1816.76  391.11   1
  -4  -1  -1 1700.18  589.96   1
  -4  -1  -1 2141.96  588.74   1
   4   1   2    4.33   23.45   1
  -4  -1  -2    3.59   22.13   1
   4   1   3   28.81   48.42   1
   4   1   3   23.11   35.71   1
  -4  -1  -3   32.31   30.13   1
  -4  -1  -3   29.13   33.56   1
   4   1   4  343.67  129.43   1
   4   1   4  544.79  172.93   1
  -4  -1  -4  433.77  119.25   1
  -4  -1  -4  527.20  166.63   1
  -4  -1  -4  351.84  163.69   1
   4   1   5 1644.13  463.83   1
   4   1   5  996.47  386.45   1
   4   1   5 1309.61  413.00   1
  -4  -1  -5 1452.81  311.59   1
  -4  -1  -5 1816.31  458.18   1
  -4  -1  -5 1203.48  398.25   1
   4   1   6 4808.84 1242.90   1
   4   1   6 2956.99  985.15   1
  -4  -1  -6 4314.48  833.59   1
  -4  -1  -6 4459.03 1234.85   1
   4   1   7  612.10  193.15   1
   4   1   7  345.83  185.77   1
  -4  -1  -7  560.26  130.67   1
  -4  -1  -7  564.85  182.17   1
  -4  -1  -7  359.72  192.27   1
   4   1   8  561.62  116.11   1
   4   1   8  259.08  136.45   1
  -4  -1  -8    3.19  106.87   1
  -4  -1  -8  291.40  133.62   1
   4   1   9   97.81   58.68   1
  -4  -1  -9    0.32   43.10   1
  -4  -1  -9    4.81   46.06   1
  -4  -1  -9  -20.47   98.62   1
  -4  -1 -10   -4.76   29.74   1
   4   2   0 1532.25  247.13   1
  -4  -2   0 1284.41  431.41   1
   4   2   1 5617.24 1583.76   1
  -4  -2  -1 5513.40 1064.53   1
  -4  -2  -1 5472.51 1581.22   1
   4   2   2 3689.08  818.19   1
   4   2   2 4458.75 1216.48   1
  -4  -2  -2 4367.51  811.63   1
  -4  -2  -2 4161.96 1211.65   1
   4   2   3  807.45  220.30   1
   4   2   3  993.24  311.08   1
  -4  -2  -3  798.15  206.20   1
  -4  -2  -3 1160.21  309.65   1
   4   2   4  511.78  168.19   1
   4   2   4  276.22  154.61   1
   4   2   4  280.00  188.64   1
  -4  -2  -4  404.58  111.46   1
  -4  -2  -4  582.21  162.63   1
  -4  -2  -4  349.16  165.74   1
   4   2   5 1199.24  345.80   1
   4   2   5  756.24  301.10   1
  -4  -2  -5 1096.96  231.11   1
  -4  -2  -5 1203.61  339.53   1
  -4  -2  -5  789.63  305.37   1
   4   2   6 6203.94 1601.76   1
   4   2   6 4325.98 1259.72   1
  -4  -2  -6 5044.03 1071.75   1
  -4  -2  -6 6283.25 1594.54   1
  -4  -2  -6 4741.50 1274.55   1
   4   2   7   59.97   55.09   1
   4   2   7   13.09   83.03   1
  -4  -2  -7   -0.29   37.91   1
  -4  -2  -7   14.37   39.21   1
  -4  -2  -7   49.12   97.46   1
   4   2   8 1117.07  159.15   1
   4   2   8  642.57  171.69   1
  -4  -2  -8   -0.79   98.82   1
  -4  -2  -8  -10.36  140.51   1
  -4  -2  -8   50.51  164.37   1
   4   3   0  137.45   73.16   1
  -4  -3   0  122.76   70.59   1
   4   3   1 4488.52 1131.82   1
   4   3   1 5822.81 1684.42   1
  -4  -3  -1 6280.76 1136.52   1
  -4  -3  -1 6568.00 1681.17   1
   4   3   2  254.74   95.43   1
   4   3   2   75.56  105.79   1
   4   3   2   56.29  117.87   1
  -4  -3  -2  195.70   69.56   1
  -4  -3  -2  203.22   93.02   1
   4   3   3  747.70  241.83   1
   4   3   3  536.70  226.03   1
  -4  -3  -3  755.20  239.16   1
   4   3   4  250.49  105.96   1
   4   3   4  122.51  116.19   1
  -4  -3  -4  219.78   76.33   1
  -4  -3  -4  274.09  101.39   1
   4   3   5 4719.64 1247.93   1
   4   3   5 2751.20  988.05   1
  -4  -3  -5 4829.93  834.53   1
  -4  -3  -5 4666.05 1240.26   1
  -4  -3  -5 3380.43  998.48   1
   4   3   6   44.55   55.70   1
   4   3   6   30.27   65.31   1
  -4  -3  -6   17.10   39.90   1
  -4  -3  -6   -4.71   37.12   1
  -4  -3  -6  -12.16   85.61   1
   4   3   7   -0.81   44.44   1
  -4  -3  -7   13.50   38.14   1
  -4  -3  -7   17.81   44.07   1
  -4  -3  -7   22.99  102.14   1
  -4  -3  -8   -4.81   37.51   1
   4   4   0  321.15  126.35   1
   4   4   0   60.02  153.87   1
  -4  -4   0  472.97  126.11   1
  -4  -4   0   30.67  138.30   1
   4   4   1  106.86   74.78   1
   4   4   1   71.08   95.88   1
  -4  -4  -1   49.02   73.77   1
  -4  -4  -1  168.23   66.68   1
   4   4   2  264.51  125.67   1
  -4  -4  -2  149.00  110.08   1
  -4  -4  -2  382.94  125.82   1
   4   4   3 2106.11  646.56   1
   4   4   3 1456.85  542.25   1
  -4  -4  -3 2207.87  436.77   1
  -4  -4  -3 2450.87  643.68   1
   4   4   4   12.70   29.99   1
   4   4   4   10.85   91.89   1
  -4  -4  -4  -34.42   63.15   1
  -4  -4  -4    4.52   24.28   1
   4   4   5    6.74   41.12   1
   4   4   5   25.82   82.83   1
  -4  -4  -5  -19.96   58.82   1
  -4  -4  -5   -3.16   39.34   1
  -4  -4  -5  -25.23  113.00   1
  -4  -4  -6    4.88   49.10   1
  -4  -4  -7  -22.06   39.98   1
   4   5   0 1192.78  362.82   1
   4   5   0  590.83  357.63   1
  -4  -5   0 1267.59  362.64   1
   4   5   1 3510.52  746.66   1
   4   5   1  859.86  622.82   1
  -4  -5  -1 2192.85  738.83   1
   4   5   2  372.98   86.01   1
   4   5   2  147.77  125.36   1
  -4  -5  -2  -11.69   90.28   1
  -4  -5  -2    0.23   77.95   1
  -4  -5  -3   13.36  308.94   1
  -4  -5  -3  -18.59  430.86   1
   4   5   4   18.39   45.93   1
  -4  -5  -4   15.54  102.42   1
  -4  -5  -4    8.54   39.85   1
  -4  -5  -5  -11.94   90.03   1
   4   6   0 3344.86  481.12   1
   4   6   0 1057.74  456.03   1
  -4  -6   0    5.33  471.30   1
   4   6   1 2583.21  383.02   1
  -4  -6  -1    7.97  367.74   1
   4   6   2 1338.36  223.60   1
  -4  -6  -2   10.20  211.34   1
   5  -9   0   -0.83   69.16   1
  -5   9   0  181.94   63.93   1
   5  -9   1 2304.23  658.01   1
  -5   9  -1 2126.51  650.56   1
   5  -9   2   18.53   38.86   1
  -5   9  -2   23.75   34.52   1
   5  -9   3   -8.42   34.14   1
  -5   9  -3   24.21   28.33   1
  -5   9  -4  147.01   76.11   1
   5  -9   5 2084.75  634.40   1
  -5   9  -5 2148.61  631.06   1
   5  -8   0  411.18  123.00   1
  -5   8   0  -14.81  114.83   1
  -5   8   0  333.61  117.18   1
  -5   8   0  -28.00  191.81   1
   5  -8   1 1201.12  199.53   1
  -5   8  -1   -3.69  259.08   1
  -5   8  -1 1512.79  347.92   1
  -5   8  -1  -14.15  374.58   1
   5  -8   2  307.34  100.69   1
  -5   8  -2    8.60   96.61   1
  -5   8  -2  241.52   93.84   1
  -5   8  -2   24.25  179.85   1
   5  -8   3  126.95   70.94   1
  -5   8  -3  114.45   64.74   1
   5  -8   4  812.96  269.61   1
  -5   8  -4  813.70  262.46   1
  -5   8  -5  542.16  187.74   1
   5  -8   6  566.60  221.34   1
  -5   8  -6  704.05  217.31   1
   5  -8   7    4.02   39.65   1
  -5   8  -7   38.63   37.03   1
   5  -7   0  429.90  150.46   1
  -5   7   0   55.21  121.60   1
  -5   7   0  518.74  142.72   1
  -5   7   0   90.42  213.47   1
   5  -7   1  122.15   31.17   1
  -5   7  -1   97.09   59.51   1
  -5   7  -1   54.37  141.62   1
   5  -7   2 2826.44  443.28   1
  -5   7  -2 2710.84  442.25   1
  -5   7  -2  134.60  656.43   1
   5  -7   3  422.44   73.93   1
  -5   7  -3  410.58  141.81   1
  -5   7  -3   27.30  217.14   1
   5  -7   4 1148.73  353.04   1
  -5   7  -4  -48.96  260.47   1
  -5   7  -4 1473.72  347.20   1
   5  -7   5  273.82   96.98   1
  -5   7  -5  -12.03  128.39   1
  -5   7  -5  225.34   90.23   1
   5  -7   6  392.55  173.27   1
  -5   7  -6  532.94  167.21   1
   5  -7   7  409.14  157.90   1
  -5   7  -7  420.76  152.33   1
   5  -7   8    3.53   34.48   1
  -5   7  -8   11.50   30.45   1
   5  -6   0 2564.33  686.27   1
  -5   6   0 2516.53  676.12   1
  -5   6   0  113.22  593.80   1
   5  -6   1   13.52   36.68   1
  -5   6  -1   18.21   29.54   1
  -5   6  -1   21.84   93.28   1
   5  -6   2  240.59   93.36   1
  -5   6  -2   90.61   93.18   1
  -5   6  -2  193.76   85.10   1
  -5   6  -2  172.09  147.02   1
   5  -6   3  140.65   29.71   1
   5  -6   3   26.03  115.48   1
  -5   6  -3   -4.03   61.22   1
  -5   6  -3   59.71  115.14   1
   5  -6   4 1376.74  272.91   1
   5  -6   4   79.11  279.17   1
  -5   6  -4  139.61  192.44   1
  -5   6  -4 1013.14  264.49   1
  -5   6  -4   16.31  290.51   1
   5  -6   5 1455.18  486.12   1
  -5   6  -5 1700.09  479.90   1
   5  -6   6 1021.27  300.13   1
  -5   6  -6   14.31  229.97   1
  -5   6  -6 1175.94  293.58   1
   5  -6   7  102.32   62.24   1
  -5   6  -7   79.06   55.89   1
   5  -6   8 1691.16  475.32   1
  -5   6  -8 1430.95  468.51   1
   5  -6   9  811.97  262.49   1
  -5   6  -9  755.36  258.63   1
   5  -5   018142.53 4737.07   1
  -5   5   015937.74 4729.12   1
  -5   5  -1 1886.48  309.32   1
   5  -5   1 1595.70  534.53   1
   5  -5   2  870.55  302.33   1
  -5   5  -2  969.21  293.21   1
   5  -5   3 2409.59  707.81   1
  -5   5  -3 2365.15  697.76   1
   5  -5   4 5611.13 1562.87   1
  -5   5  -4 5354.74 1553.23   1
   5  -5   5  260.49  105.16   1
  -5   5  -5   -0.63   86.41   1
  -5   5  -5  303.27   98.16   1
   5  -5   6    9.30   31.00   1
  -5   5  -6    5.84   29.74   1
   5  -5   7  294.17  104.66   1
  -5   5  -7   17.65  109.92   1
  -5   5  -7  264.71   98.38   1
   5  -5   8 2125.52  642.70   1
  -5   5  -8 2167.59  634.99   1
  -5   5  -9   32.06   42.30   1
   5  -4   0 2932.01  523.19   1
  -5   4   0 3046.13  872.08   1
   5  -4   1 5103.81 1430.85   1
  -5   4  -1 4894.22 1424.89   1
   5  -4   2 4651.51 1281.27   1
  -5   4  -2 4297.58 1273.41   1
   5  -4   3  641.99  182.54   1
  -5   4  -3   53.15  128.86   1
  -5   4  -3  618.76  173.77   1
   5  -4   4 1937.97  340.04   1
  -5   4  -4 2418.51  339.71   1
  -5   4  -4  889.75  396.47   1
   5  -4   5 1733.15  440.97   1
  -5   4  -5  671.08  304.21   1
  -5   4  -5 1539.26  431.01   1
   5  -4   6  826.92  241.11   1
  -5   4  -6  184.02  180.62   1
  -5   4  -6  855.11  232.97   1
  -5   4  -7   87.44   25.14   1
   5  -4   7   72.84   54.02   1
  -5   4  -7    3.24   60.30   1
  -5   4  -8  328.11   64.09   1
   5  -4   8  311.17  131.47   1
   5  -4   9  240.36   73.52   1
  -5   4  -9    9.32   61.72   1
   5  -3   0 1724.05  308.50   1
  -5   3   0 1779.00  526.01   1
   5  -3   1 4396.87  872.95   1
  -5   3  -1 5498.23 1434.18   1
   5  -3   2 1079.39  360.03   1
  -5   3  -2 1184.39  355.00   1
   5  -3   3 3324.02  993.59   1
  -5   3  -3 3485.04  986.65   1
   5  -3   4 4469.41  963.31   1
  -5   3  -4  366.02  642.38   1
  -5   3  -4 3912.76  953.08   1
   5  -3   5 3765.06  896.93   1
  -5   3  -5  346.72  599.23   1
  -5   3  -5 3821.69  886.34   1
   5  -3   6 2517.87  633.83   1
  -5   3  -6  825.24  429.67   1
  -5   3  -6 2423.19  623.87   1
   5  -3   7 6561.77 1375.84   1
  -5   3  -7   -7.01  920.31   1
  -5   3  -7 5726.69 1367.04   1
   5  -3   8  676.29  126.47   1
  -5   3  -8  -10.46  115.27   1
   5  -3   9  604.54  122.08   1
  -5   3  -9    8.59  110.59   1
   5  -2   0  372.01  138.38   1
  -5   2   0  334.16  134.37   1
   5  -2   1 2908.74  851.72   1
  -5   2  -1 2891.01  844.09   1
   5  -2   2  374.81  162.64   1
  -5   2  -2  475.86  156.82   1
  -5   2  -315275.98 2647.54   1
   5  -2   412859.36 2094.18   1
  -5   2  -411488.20 3392.02   1
   5  -2   5  233.83   87.72   1
  -5   2  -5   28.76   73.88   1
  -5   2  -5  197.48   79.30   1
   5  -2   6 1639.61  443.97   1
  -5   2  -6  405.07  296.27   1
  -5   2  -6 1818.49  433.93   1
  -5   2  -7  -18.88   88.72   1
  -5   2  -7   -7.23  113.00   1
   5  -2   8   42.71   41.58   1
  -5   2  -8   -2.63   38.72   1
   5  -1   0 1778.71  573.25   1
  -5   1   0 2028.12  571.97   1
   5  -1   1  247.07   47.71   1
  -5   1  -1  222.69   46.14   1
   5  -1   2 1062.46  363.41   1
  -5   1  -2 1207.93  356.41   1
   5  -1   3   27.51   35.05   1
  -5   1  -3    5.18   30.55   1
  -5   1  -4 3357.23  603.18   1
   5  -1   4 3584.58 1007.55   1
   5  -1   5   85.50   60.98   1
  -5   1  -5   58.44   80.24   1
  -5   1  -5   83.32   55.66   1
   5  -1   6  234.48   72.72   1
  -5   1  -6   77.46   83.83   1
  -5   1  -6   28.69   60.89   1
   5  -1   7  121.57   54.90   1
  -5   1  -7   48.17   61.00   1
  -5   1  -7    7.80   44.42   1
   5  -1   8   49.66   55.83   1
  -5   1  -8   16.20   44.90   1
   5   0   0 8870.22 2698.53   1
  -5   0   010142.77 2695.24   1
   5   0   1  291.50  136.88   1
  -5   0  -1  404.74  135.55   1
   5   0   2 2438.94  716.59   1
  -5   0  -2 2392.93  711.05   1
   5   0   3 1103.98  346.44   1
  -5   0  -3 1065.49  338.72   1
   5   0   4 1930.62  485.39   1
  -5   0  -4  656.85  320.91   1
  -5   0  -4 1942.96  478.90   1
   5   0   5  459.80  130.85   1
  -5   0  -5  199.15  122.24   1
   5   0   6 1454.11  219.20   1
  -5   0  -6   14.18  202.14   1
   5   0   7   93.68   53.55   1
  -5   0  -7   -1.38   42.65   1
   5   1   0   15.78   32.73   1
  -5  -1   0   14.91   28.71   1
   5   1   1   62.78   49.23   1
  -5  -1  -1   57.07   46.35   1
   5   1   2 1370.87  439.56   1
  -5  -1  -2 1469.85  436.56   1
   5   1   3 4855.87 1385.99   1
  -5  -1  -3 4785.25 1377.65   1
   5   1   4 1792.37  305.39   1
  -5  -1  -4  228.39  293.28   1
   5   1   5  746.79  141.66   1
  -5  -1  -5   15.54  129.76   1
   5   1   6  259.12   78.78   1
  -5  -1  -6    6.24   67.05   1
   5   2   0 7032.68 1912.55   1
  -5  -2   0 6433.61 1908.20   1
   5   2   1 3129.71  902.65   1
  -5  -2  -1 3032.21  898.26   1
   5   2   2   29.93   41.99   1
  -5  -2  -2   44.12   39.67   1
   5   2   3  747.69  139.87   1
  -5  -2  -3    7.86  127.58   1
   5   2   4 1034.45  179.22   1
  -5  -2  -4    8.43  163.68   1
   5   2   5   -9.82   35.52   1
  -5  -2  -5    1.28   30.76   1
   5   3   0  172.04   39.46   1
  -5  -3   0  117.77   79.22   1
   5   3   1   10.13   34.64   1
  -5  -3  -1   -8.59   33.48   1
   5   3   2  223.15   71.06   1
  -5  -3  -2   14.73   66.54   1
   5   3   3  129.66   54.68   1
  -5  -3  -3   -6.10   45.94   1
   5   3   4  229.99  117.07   1
   5   4   0 2650.83  391.95   1
  -5  -4   0   -7.99  380.07   1
   5   4   1  346.10   95.16   1
  -5  -4  -1   -0.60   82.09   1
   5   4   2 1804.15  287.63   1
  -5  -4  -2   -4.08  275.59   1
   5   5   0  942.24  174.70   1
  -5  -5   0   14.10  162.49   1
   6  -7   0  634.81  237.48   1
  -6   7   0  716.45  227.83   1
   6  -7   1 2697.18  454.65   1
  -6   7  -1 2509.09  758.44   1
   6  -7   2  222.42   43.70   1
  -6   7  -2  156.00   39.14   1
   6  -7   3  280.68   52.87   1
  -6   7  -3  214.28   48.92   1
   6  -6   0  632.64  225.69   1
  -6   6   0  649.13  215.35   1
   6  -6   1 1234.38  200.05   1
  -6   6  -1 1029.04  346.36   1
   6  -6   2  168.72   91.53   1
  -6   6  -2  159.70   80.95   1
   6  -6   3  859.83  288.05   1
  -6   6  -3  867.97  278.72   1
   6  -6   4  225.01  108.24   1
  -6   6  -4  245.72  101.14   1
   6  -6   5  104.89   33.25   1
  -6   6  -5  122.99   29.80   1
   6  -5   0   77.51   62.46   1
  -6   5   0   94.84   55.75   1
   6  -5   1  462.83  170.94   1
  -6   5  -1  442.40  161.20   1
   6  -5   2  717.73  115.94   1
  -6   5  -2  555.66  112.65   1
   6  -5   3  403.66  150.44   1
  -6   5  -3  358.96  140.58   1
   6  -5   4  391.42  153.75   1
  -6   5  -4  376.67  143.55   1
   6  -5   5  384.31  146.63   1
  -6   5  -5  346.12  137.92   1
  -6   4   0  970.14  165.34   1
   6  -4   0  861.33  301.93   1
   6  -4   1  420.85  167.09   1
  -6   4  -1  458.18  160.37   1
   6  -4   2   24.95   22.65   1
  -6   4  -2   17.28   18.00   1
  -6   4  -3  926.80  164.15   1
   6  -4   3  905.84  303.24   1
   6  -4   4 4037.46  637.06   1
  -6   4  -4 3375.46  634.97   1
   6  -4   5 2458.48  721.03   1
  -6   4  -5 2386.38  710.38   1
   6  -3   0  456.46  173.07   1
  -6   3   0  465.47  167.14   1
   6  -3   1  692.13  237.22   1
  -6   3  -1  686.12  231.76   1
   6  -3   211744.32 3331.44   1
  -6   3  -211875.19 3323.60   1
   6  -3   3 1773.81  556.35   1
  -6   3  -3 1867.10  546.68   1
   6  -3   4 2494.43  392.24   1
  -6   3  -4 2043.93  389.79   1
   6  -3   5  872.53  300.45   1
  -6   3  -5  931.98  290.11   1
   6  -2   0 1243.01  384.84   1
  -6   2   0 1191.27  376.70   1
   6  -2   1   31.93   44.13   1
  -6   2  -1   35.30   39.55   1
   6  -2   2  800.71  283.69   1
  -6   2  -2  896.00  278.17   1
   6  -2   3 2893.18  885.47   1
  -6   2  -3 3105.60  877.61   1
   6  -2   4 1646.42  510.76   1
  -6   2  -4 1670.73  500.18   1
   6  -2   5 1193.51  185.00   1
  -6   2  -5   -4.10  166.50   1
   6  -1   0  243.77  118.31   1
  -6   1   0  295.79  113.31   1
   6  -1   1  350.72  156.26   1
  -6   1  -1  440.02  149.62   1
   6  -1   2  382.95  143.57   1
  -6   1  -2  332.46  137.01   1
   6  -1   3 2313.86  713.17   1
  -6   1  -3 2454.94  706.43   1
   6  -1   4   -0.00   41.20   1
  -6   1  -4   14.01   36.80   1
   6   0   0   90.37   65.01   1
  -6   0   0  108.38   60.98   1
   6   0   1 4972.87 1493.72   1
  -6   0  -1 5364.83 1485.17   1
   6   0   2 1793.98  424.82   1
  -6   0  -2 1012.63  414.17   1
   6   0   3  227.57   71.41   1
  -6   0  -3   -9.39   60.66   1
   6   1   0  427.73  164.47   1
  -6  -1   0  442.22  161.29   1
   6   1   1 1206.91  198.76   1
  -6  -1  -1    3.38  184.86   1
   6   1   2  639.02  124.82   1
  -6  -1  -2   -2.57  109.53   1
   6   2   0  507.12  110.99   1
  -6  -2   0   -0.17  102.18   1
   0   0   0
;
_shelx_hkl_checksum              30724
loop_
_space_group_symop_operation_xyz
'x, y, z'
'-x, -y, -z'
loop_
_atom_site_label
_atom_site_type_symbol
_atom_site_fract_x
_atom_site_fract_y
_atom_site_fract_z
_atom_site_U_iso_or_equiv
_atom_site_adp_type
_atom_site_occupancy
_atom_site_site_symmetry_order
_atom_site_calc_flag
_atom_site_refinement_flags_posn
_atom_site_refinement_flags_adp
F1 F 0.8812(4) 0.4895(2) 0.23946(16) 0.0346(5) Uani 1 1 d . .
F2 F 0.5265(5) 0.3766(2) 0.27520(18) 0.0395(6) Uani 1 1 d . .
F3 F 0.8538(5) 0.4800(3) 0.39135(16) 0.0463(7) Uani 1 1 d . .
F4 F 0.6853(5) 0.6326(2) 0.53439(15) 0.0421(6) Uani 1 1 d . .
F5 F 0.6745(5) 0.8559(3) 0.54593(15) 0.0443(7) Uani 1 1 d . .
F6 F 1.0105(4) 0.7876(3) 0.50887(15) 0.0395(6) Uani 1 1 d . .
O1 O 0.3337(4) 0.7581(2) 0.25748(16) 0.0219(5) Uani 1 1 d . .
O2 O 0.4983(5) 0.9719(2) 0.15292(17) 0.0257(6) Uani 1 1 d . .
C1 C 0.5559(7) 0.7926(4) 0.0207(2) 0.0269(7) Uani 1 1 d . .
H1A H 0.6837 0.7399 0.0000 0.032 Uiso 1 1 calc R U
H1B H 0.5178 0.8527 -0.0292 0.032 Uiso 1 1 calc R U
S2 S 0.25680(16) 0.66328(9) 0.02503(6) 0.0264(3) Uani 1 1 d . .
C3 C 0.3835(7) 0.5775(3) 0.1242(2) 0.0241(7) Uani 1 1 d . .
H3A H 0.2387 0.5051 0.1382 0.029 Uiso 1 1 calc R U
H3B H 0.5122 0.5263 0.1024 0.029 Uiso 1 1 calc R U
C3A C 0.5116(6) 0.6841(3) 0.2175(2) 0.0203(7) Uani 1 1 d . .
C4 C 0.6241(6) 0.6283(3) 0.3100(2) 0.0217(7) Uani 1 1 d . .
C5 C 0.6264(7) 0.7289(3) 0.3866(2) 0.0231(7) Uani 1 1 d . .
C6 C 0.5145(7) 0.8449(3) 0.3416(2) 0.0236(7) Uani 1 1 d . .
H6 H 0.4384 0.9063 0.3869 0.028 Uiso 1 1 calc R U
C6A C 0.7378(7) 0.9282(3) 0.2966(2) 0.0229(7) Uani 1 1 d . .
H6A H 0.9084 0.9586 0.3437 0.028 Uiso 1 1 calc R U
C7 C 0.6747(7) 1.0517(4) 0.2423(3) 0.0284(8) Uani 1 1 d . .
H7 H 0.6083 1.1258 0.2814 0.034 Uiso 1 1 calc R U
C8 C 0.9190(8) 1.1093(4) 0.2028(3) 0.0338(8) Uani 1 1 d . .
H8 H 1.0442 1.1980 0.2270 0.041 Uiso 1 1 calc R U
C9 C 0.9205(7) 1.0093(4) 0.1270(3) 0.0298(8) Uani 1 1 d . .
H9 H 1.0477 1.0118 0.0864 0.036 Uiso 1 1 calc R U
C9A C 0.6753(7) 0.8897(3) 0.1191(2) 0.0233(7) Uani 1 1 d . .
C9B C 0.7384(6) 0.8115(3) 0.2073(2) 0.0213(7) Uani 1 1 d . .
H9B H 0.9092 0.7842 0.2106 0.026 Uiso 1 1 calc R U
C10 C 0.7252(7) 0.4954(3) 0.3053(2) 0.0259(7) Uani 1 1 d . .
C11 C 0.7474(8) 0.7477(4) 0.4934(2) 0.0298(8) Uani 1 1 d . .
loop_
_atom_site_aniso_label
_atom_site_aniso_U_11
_atom_site_aniso_U_22
_atom_site_aniso_U_33
_atom_site_aniso_U_23
_atom_site_aniso_U_13
_atom_site_aniso_U_12
F1 0.0377(13) 0.0283(11) 0.0479(13) 0.0136(9) 0.0201(10) 0.0172(9)
F2 0.0398(14) 0.0163(10) 0.0628(15) 0.0092(9) 0.0146(11) 0.0025(9)
F3 0.0690(18) 0.0436(13) 0.0325(11) 0.0096(10) -0.0041(11) 0.0346(13)
F4 0.0582(16) 0.0359(12) 0.0290(11) 0.0135(9) 0.0025(10) 0.0038(11)
F5 0.0622(17) 0.0441(13) 0.0254(11) -0.0064(9) -0.0015(10) 0.0247(12)
F6 0.0295(13) 0.0525(14) 0.0305(11) 0.0068(10) -0.0053(9) 0.0051(10)
O1 0.0194(12) 0.0210(11) 0.0241(11) 0.0006(8) 0.0019(9) 0.0063(9)
O2 0.0248(13) 0.0222(12) 0.0315(12) 0.0062(9) 0.0020(10) 0.0103(10)
C1 0.0285(18) 0.0291(17) 0.0250(15) 0.0089(13) 0.0057(13) 0.0078(14)
S2 0.0241(5) 0.0294(5) 0.0237(4) 0.0043(3) -0.0002(3) 0.0056(4)
C3 0.0254(18) 0.0203(15) 0.0250(15) 0.0013(12) 0.0036(13) 0.0047(13)
C3A 0.0189(16) 0.0187(15) 0.0238(15) 0.0029(11) 0.0034(12) 0.0067(12)
C4 0.0216(17) 0.0176(15) 0.0256(15) 0.0044(11) 0.0033(12) 0.0043(13)
C5 0.0229(17) 0.0210(15) 0.0237(15) 0.0038(12) 0.0017(12) 0.0036(13)
C6 0.0258(17) 0.0197(15) 0.0223(14) -0.0005(11) -0.0019(13) 0.0064(13)
C6A 0.0221(17) 0.0170(15) 0.0279(15) 0.0027(12) -0.0003(13) 0.0052(13)
C7 0.0295(19) 0.0188(16) 0.0343(17) 0.0034(13) -0.0014(14) 0.0066(14)
C8 0.032(2) 0.0225(17) 0.044(2) 0.0123(15) 0.0009(16) 0.0011(15)
C9 0.0236(18) 0.0286(18) 0.0378(18) 0.0137(14) 0.0014(14) 0.0055(14)
C9A 0.0221(17) 0.0221(15) 0.0293(16) 0.0088(12) 0.0041(13) 0.0109(13)
C9B 0.0188(16) 0.0194(15) 0.0257(15) 0.0052(12) 0.0011(12) 0.0064(13)
C10 0.0323(19) 0.0226(16) 0.0248(15) 0.0074(12) 0.0057(13) 0.0083(14)
C11 0.037(2) 0.0256(17) 0.0258(16) 0.0037(13) 0.0024(14) 0.0079(15)
loop_
_atom_type_symbol
_atom_type_description
_atom_type_scat_dispersion_real
_atom_type_scat_dispersion_imag
_atom_type_scat_source
C C 0.0070 0.0030 'International Tables Vol C Tables 4.2.6.8 and 6.1.1.4'
H H 0.0000 0.0000 'International Tables Vol C Tables 4.2.6.8 and 6.1.1.4'
O O 0.0210 0.0120 'International Tables Vol C Tables 4.2.6.8 and 6.1.1.4'
F F 0.0330 0.0200 'International Tables Vol C Tables 4.2.6.8 and 6.1.1.4'
S S 0.1970 0.2290 'International Tables Vol C Tables 4.2.6.8 and 6.1.1.4'
loop_
_geom_angle_atom_site_label_1
_geom_angle_atom_site_label_2
_geom_angle_atom_site_label_3
_geom_angle
C6 O1 C3A 97.5(2)
C9A O2 C7 96.4(2)
C9A C1 S2 112.5(2)
C9A C1 H1A 109.1
S2 C1 H1A 109.1
C9A C1 H1B 109.1
S2 C1 H1B 109.1
H1A C1 H1B 107.8
C1 S2 C3 98.85(16)
C3A C3 S2 112.6(2)
C3A C3 H3A 109.1
S2 C3 H3A 109.1
C3A C3 H3B 109.1
S2 C3 H3B 109.1
H3A C3 H3B 107.8
O1 C3A C3 112.8(3)
O1 C3A C4 99.8(2)
C3 C3A C4 119.3(3)
O1 C3A C9B 102.7(2)
C3 C3A C9B 115.9(3)
C4 C3A C9B 104.0(2)
C5 C4 C10 131.0(3)
C5 C4 C3A 105.4(3)
C10 C4 C3A 123.4(3)
C4 C5 C11 130.7(3)
C4 C5 C6 105.4(3)
C11 C5 C6 123.2(3)
O1 C6 C5 100.7(2)
O1 C6 C6A 103.7(2)
C5 C6 C6A 105.0(3)
O1 C6 H6 115.2
C5 C6 H6 115.2
C6A C6 H6 115.2
C6 C6A C9B 100.4(2)
C6 C6A C7 116.3(3)
C9B C6A C7 100.8(2)
C6 C6A H6A 112.7
C9B C6A H6A 112.7
C7 C6A H6A 112.7
O2 C7 C8 101.4(3)
O2 C7 C6A 102.2(2)
C8 C7 C6A 105.1(3)
O2 C7 H7 115.4
C8 C7 H7 115.4
C6A C7 H7 115.4
C9 C8 C7 105.7(3)
C9 C8 H8 127.2
C7 C8 H8 127.2
C8 C9 C9A 105.8(3)
C8 C9 H9 127.1
C9A C9 H9 127.1
O2 C9A C1 111.8(3)
O2 C9A C9 101.1(3)
C1 C9A C9 119.2(3)
O2 C9A C9B 102.1(2)
C1 C9A C9B 115.8(3)
C9 C9A C9B 104.6(3)
C9A C9B C6A 101.4(2)
C9A C9B C3A 114.9(3)
C6A C9B C3A 101.5(2)
C9A C9B H9B 112.6
C6A C9B H9B 112.6
C3A C9B H9B 112.6
F3 C10 F1 108.2(3)
F3 C10 F2 106.4(3)
F1 C10 F2 105.6(3)
F3 C10 C4 113.8(3)
F1 C10 C4 111.9(3)
F2 C10 C4 110.5(3)
F4 C11 F6 107.0(3)
F4 C11 F5 107.1(3)
F6 C11 F5 105.4(3)
F4 C11 C5 114.9(3)
F6 C11 C5 112.1(3)
F5 C11 C5 109.8(3)
loop_
_geom_bond_atom_site_label_1
_geom_bond_atom_site_label_2
_geom_bond_distance
F1 C10 1.338(4)
F2 C10 1.353(4)
F3 C10 1.334(4)
F4 C11 1.322(4)
F5 C11 1.356(4)
F6 C11 1.352(5)
O1 C6 1.433(4)
O1 C3A 1.441(4)
O2 C9A 1.452(4)
O2 C7 1.452(4)
C1 C9A 1.517(5)
C1 S2 1.822(4)
C1 H1A 0.9900
C1 H1B 0.9900
S2 C3 1.824(3)
C3 C3A 1.513(4)
C3 H3A 0.9900
C3 H3B 0.9900
C3A C4 1.553(4)
C3A C9B 1.572(4)
C4 C5 1.341(4)
C4 C10 1.493(4)
C5 C11 1.503(5)
C5 C6 1.539(4)
C6 C6A 1.559(5)
C6 H6 1.0000
C6A C9B 1.565(4)
C6A C7 1.565(5)
C6A H6A 1.0000
C7 C8 1.523(5)
C7 H7 1.0000
C8 C9 1.336(5)
C8 H8 0.9500
C9 C9A 1.530(5)
C9 H9 0.9500
C9A C9B 1.561(4)
C9B H9B 1.0000
loop_
_geom_torsion_atom_site_label_1
_geom_torsion_atom_site_label_2
_geom_torsion_atom_site_label_3
_geom_torsion_atom_site_label_4
_geom_torsion
C9A C1 S2 C3 -56.3(3)
C1 S2 C3 C3A 56.1(3)
C6 O1 C3A C3 179.6(2)
C6 O1 C3A C4 52.0(3)
C6 O1 C3A C9B -55.0(3)
S2 C3 C3A O1 62.0(3)
S2 C3 C3A C4 178.6(2)
S2 C3 C3A C9B -56.0(3)
O1 C3A C4 C5 -32.8(3)
C3 C3A C4 C5 -156.1(3)
C9B C3A C4 C5 73.0(3)
O1 C3A C4 C10 152.0(3)
C3 C3A C4 C10 28.8(5)
C9B C3A C4 C10 -102.1(3)
C10 C4 C5 C11 4.6(6)
C3A C4 C5 C11 -170.0(3)
C10 C4 C5 C6 175.0(3)
C3A C4 C5 C6 0.4(3)
C3A O1 C6 C5 -52.2(3)
C3A O1 C6 C6A 56.3(3)
C4 C5 C6 O1 32.4(3)
C11 C5 C6 O1 -156.2(3)
C4 C5 C6 C6A -75.0(3)
C11 C5 C6 C6A 96.3(4)
O1 C6 C6A C9B -34.6(3)
C5 C6 C6A C9B 70.7(3)
O1 C6 C6A C7 73.0(3)
C5 C6 C6A C7 178.3(3)
C9A O2 C7 C8 50.6(3)
C9A O2 C7 C6A -57.8(3)
C6 C6A C7 O2 -72.3(3)
C9B C6A C7 O2 35.1(3)
C6 C6A C7 C8 -177.8(3)
C9B C6A C7 C8 -70.4(3)
O2 C7 C8 C9 -32.6(3)
C6A C7 C8 C9 73.5(3)
C7 C8 C9 C9A 0.4(4)
C7 O2 C9A C1 -178.0(3)
C7 O2 C9A C9 -50.2(3)
C7 O2 C9A C9B 57.6(3)
S2 C1 C9A O2 -59.7(3)
S2 C1 C9A C9 -177.1(2)
S2 C1 C9A C9B 56.7(3)
C8 C9 C9A O2 31.9(3)
C8 C9 C9A C1 154.8(3)
C8 C9 C9A C9B -73.8(3)
O2 C9A C9B C6A -34.9(3)
C1 C9A C9B C6A -156.6(3)
C9 C9A C9B C6A 70.1(3)
O2 C9A C9B C3A 73.6(3)
C1 C9A C9B C3A -48.0(4)
C9 C9A C9B C3A 178.7(3)
C6 C6A C9B C9A 119.4(3)
C7 C6A C9B C9A -0.1(3)
C6 C6A C9B C3A 0.8(3)
C7 C6A C9B C3A -118.8(3)
O1 C3A C9B C9A -75.7(3)
C3 C3A C9B C9A 47.7(4)
C4 C3A C9B C9A -179.3(2)
O1 C3A C9B C6A 32.8(3)
C3 C3A C9B C6A 156.2(3)
C4 C3A C9B C6A -70.9(3)
C5 C4 C10 F3 -4.8(5)
C3A C4 C10 F3 168.9(3)
C5 C4 C10 F1 -127.9(4)
C3A C4 C10 F1 45.9(4)
C5 C4 C10 F2 114.8(4)
C3A C4 C10 F2 -71.5(4)
C4 C5 C11 F4 -52.3(5)
C6 C5 C11 F4 138.7(3)
C4 C5 C11 F6 70.1(5)
C6 C5 C11 F6 -98.9(4)
C4 C5 C11 F5 -173.1(3)
C6 C5 C11 F5 17.9(5)
