#------------------------------------------------------------------------------
#$Date: 2019-11-17 07:00:16 +0200 (Sun, 17 Nov 2019) $
#$Revision: 228540 $
#$URL: file:///home/coder/svn-repositories/cod/cif/7/12/19/7121967.cif $
#------------------------------------------------------------------------------
#
# This file is available in the Crystallography Open Database (COD),
# http://www.crystallography.net/
#
# All data on this site have been placed in the public domain by the
# contributors.
#
data_7121967
loop_
_publ_author_name
'Gruber, Stefan'
'Ametamey, Simon M.'
'Schibli, Roger'
_publ_section_title
;
 Unexpected reactivity of cyclic perfluorinated iodanes with
 electrophiles.
;
_journal_issue                   65
_journal_name_full
'Chemical communications (Cambridge, England)'
_journal_page_first              8999
_journal_page_last               9002
_journal_paper_doi               10.1039/c8cc04558e
_journal_volume                  54
_journal_year                    2018
_chemical_formula_moiety         'C15 H9 Br Cl F4 I O3'
_chemical_formula_sum            'C15 H9 Br Cl F4 I O3'
_chemical_formula_weight         555.49
_space_group_crystal_system      triclinic
_space_group_IT_number           2
_space_group_name_Hall           '-P 1'
_space_group_name_H-M_alt        'P -1'
_symmetry_Int_Tables_number      2
_symmetry_space_group_name_Hall  '-P 1'
_symmetry_space_group_name_H-M   'P -1'
_audit_creation_date             2018-04-03
_audit_creation_method
;
Olex2 1.2
(compiled 2017.08.10 svn.r3458 for OlexSys, GUI svn.r5381)
;
_audit_update_record
;
2018-06-05 deposited with the CCDC.
2018-07-13 downloaded from the CCDC.
;
_cell_angle_alpha                74.798(2)
_cell_angle_beta                 84.253(2)
_cell_angle_gamma                86.584(2)
_cell_formula_units_Z            2
_cell_length_a                   7.9867(2)
_cell_length_b                   8.2391(2)
_cell_length_c                   13.6897(2)
_cell_measurement_reflns_used    25100
_cell_measurement_temperature    100.0(1)
_cell_measurement_theta_max      79.1290
_cell_measurement_theta_min      3.3470
_cell_volume                     864.41(3)
_computing_cell_refinement       'CrysAlisPro 1.171.39.31d (Rigaku OD, 2017)'
_computing_data_collection       'CrysAlisPro 1.171.39.31d (Rigaku OD, 2017)'
_computing_data_reduction        'CrysAlisPro 1.171.39.31d (Rigaku OD, 2017)'
_computing_molecular_graphics    'Olex2 (Dolomanov et al., 2009)'
_computing_publication_material  'Olex2 (Dolomanov et al., 2009)'
_computing_structure_refinement  'olex2.refine (Bourhis et al., 2015)'
_computing_structure_solution    'XT (Sheldrick, 2015)'
_diffrn_ambient_environment      N~2~
_diffrn_ambient_temperature      100.0(1)
_diffrn_detector                 'CCD plate'
_diffrn_detector_type            'Pilatus 300K'
_diffrn_measured_fraction_theta_full 0.9785
_diffrn_measured_fraction_theta_max 0.9785
_diffrn_measurement_details
;
List of Runs (angles in degrees, time in seconds):

  # Type    Start    End  Width  t~exp~   \w     \q     \k     \f   Frames
#--------------------------------------------------------------------------
  1  \w     21.00 110.00   0.50    0.10    --   42.00  71.00  -7.95  178
  2  \w     37.00 125.00   0.50    0.10    --   49.37  38.00 150.00  176
  3  \w     34.00 121.00   0.50    0.10    --   49.37  57.00  90.00  174
  4  \w     20.00 109.00   0.50    0.10    --   42.00  73.00 151.88  178
  5  \w     37.00 125.00   0.50    0.10    --   49.37  38.00 -30.00  176
  6  \w     37.00 125.00   0.50    0.10    --   49.37  38.00  30.00  176
  7  \w     86.00 177.00   0.50    0.14    --  110.00  77.00  60.00  182
  8  \w     86.00 177.00   0.50    0.14    --  110.00  77.00  90.00  182
  9  \w     33.00 121.00   0.50    0.10    --   54.00  72.00  13.49  176
 10  \w     53.00 142.00   0.50    0.10    --   74.00  70.00 -20.82  178
 11  \w     32.00 121.00   0.50    0.10    --   54.00  73.00-165.02  178
 12  \w     86.00 177.00   0.50    0.14    --  110.00  77.00 -60.00  182
 13  \w     86.00 177.00   0.50    0.14    --  110.00  77.00 -30.00  182
 14  \w     86.00 177.00   0.50    0.14    --  110.00  77.00-180.00  182
 15  \w     98.00 178.00   0.50    0.14    --  110.00  38.00-150.00  160
 16  \w     86.00 177.00   0.50    0.14    --  110.00  77.00-150.00  182
 17  \w     94.00 178.00   0.50    0.14    --  110.00  57.00 -90.00  168
 18  \w     94.00 178.00   0.50    0.14    --  110.00  57.00 -30.00  168
 19  \w     94.00 178.00   0.50    0.14    --  110.00  57.00  30.00  168
 20  \w     86.00 177.00   0.50    0.14    --  110.00  77.00 120.00  182
 21  \w     86.00 177.00   0.50    0.14    --  110.00  77.00 150.00  182
 22  \w    -94.00  -3.00   0.50    0.14    --  -70.00  77.00 -60.00  182
 23  \w   -140.00 -51.00   0.50    0.14    --  -70.00 -64.00   3.87  178
 24  \w   -137.00 -48.00   0.50    0.14    --  -70.00 -73.00-112.17  178
 25  \w   -137.00 -48.00   0.50    0.14    --  -70.00 -72.00 -45.80  178
 26  \w   -138.00 -49.00   0.50    0.14    --  -70.00 -69.00  78.26  178
 27  \w   -138.00 -49.00   0.50    0.14    --  -70.00 -70.00  30.82  178
 28  \w   -137.00 -48.00   0.50    0.14    --  -70.00 -72.00 -56.88  178
 29  \w   -138.00 -49.00   0.50    0.14    --  -70.00 -69.00 123.24  178
 30  \w   -137.00 -49.00   0.50    0.14    --  -70.00 -71.00-158.01  176
 31  \w   -125.00 -37.00   0.50    0.10    --  -49.37 -19.00 -60.00  176
 32  \w   -138.00 -49.00   0.50    0.14    --  -70.00 -69.00 137.26  178
 33  \w   -137.00 -48.00   0.50    0.14    --  -70.00 -72.00 106.94  178
 34  \w   -138.00 -49.00   0.50    0.14    --  -70.00 -70.00  57.87  178
 35  \w   -125.00 -36.00   0.50    0.10    --  -58.00 -72.00  45.60  178
 36  \w   -137.00 -48.00   0.50    0.14    --  -70.00 -73.00-102.37  178
 37  \w   -140.00 -52.00   0.50    0.14    --  -70.00 -63.00 -93.12  176
 38  \w    -26.00  49.00   0.50    0.10    --   49.37 -38.00  90.00  150
 39  \w     38.00  84.00   0.50    0.14    --  110.00 -57.00 -90.00   92
 40  \w     94.00 178.00   0.50    0.14    --  110.00  57.00 -60.00  168
 41  \w     94.00 178.00   0.50    0.14    --  110.00  57.00 150.00  168
 42  \w     98.00 178.00   0.50    0.14    --  110.00  38.00  90.00  160
 43  \w     98.00 178.00   0.50    0.14    --  110.00  38.00-120.00  160
 44  \w     86.00 177.00   0.50    0.14    --  110.00  77.00   0.00  182
 45  \w     98.00 178.00   0.50    0.14    --  110.00  38.00 -90.00  160
 46  \w     86.00 177.00   0.50    0.14    --  110.00  77.00-120.00  182
 47  \w     94.00 178.00   0.50    0.14    --  110.00  57.00   0.00  168
 48  \w     86.00 177.00   0.50    0.14    --  110.00  77.00  30.00  182
 49  \w    -95.00  -9.00   0.50    0.14    --  -70.00 125.00  30.00  172
 50  \w    -38.00 -12.00   0.50    0.10    --   14.00 131.00 158.07   52
 51  \w      7.00  36.00   0.50    0.10    --   34.00  85.00  85.51   58
 52  \w      7.00  36.00   0.50    0.10    --   34.00  85.00-127.84   58
 53  \w      7.00  36.00   0.50    0.10    --   34.00  85.00 -21.21   58
 54  \w     59.00 120.00   0.50    0.10    --   49.37 178.00   0.00  122
 55  \w     40.00 110.00   0.50    0.14    --  110.00 -99.00-150.00  140
 56  \w     40.00 110.00   0.50    0.14    --  110.00 -99.00-180.00  140
 57  \w     40.00 110.00   0.50    0.14    --  110.00 -99.00 -90.00  140
 58  \w     39.00 122.00   0.50    0.14    --  110.00-125.00-180.00  166
 59  \w     40.00 110.00   0.50    0.14    --  110.00 -99.00 -60.00  140
 60  \w     40.00 110.00   0.50    0.14    --  110.00 -99.00  30.00  140
 61  \w     40.00 110.00   0.50    0.14    --  110.00 -99.00  90.00  140
 62  \w   -121.00 -33.00   0.50    0.10    --  -54.00 -71.00 130.59  176
 63  \w   -125.00 -36.00   0.50    0.10    --  -58.00 -73.00-131.44  178
;
_diffrn_measurement_device       'four-circle diffractometer'
_diffrn_measurement_device_type  'XtaLAB Synergy, Dualflex, Pilatus 300K'
_diffrn_measurement_method       '\w scans'
_diffrn_radiation_type           'Cu K\a'
_diffrn_radiation_wavelength     1.54184
_diffrn_reflns_av_R_equivalents  0.0495
_diffrn_reflns_av_unetI/netI     0.0250
_diffrn_reflns_limit_h_max       10
_diffrn_reflns_limit_h_min       -10
_diffrn_reflns_limit_k_max       10
_diffrn_reflns_limit_k_min       -10
_diffrn_reflns_limit_l_max       17
_diffrn_reflns_limit_l_min       -17
_diffrn_reflns_number            33322
_diffrn_reflns_theta_full        79.8599
_diffrn_reflns_theta_max         79.86
_diffrn_reflns_theta_min         3.36
_exptl_absorpt_coefficient_mu    19.206
_exptl_absorpt_correction_T_max  0.825
_exptl_absorpt_correction_T_min  0.270
_exptl_absorpt_correction_type   gaussian
_exptl_absorpt_process_details
;
CrysAlisPro 1.171.39.31d (Rigaku Oxford Diffraction, 2017)
Numerical absorption correction based on gaussian integration over
            a multifaceted crystal model
Empirical absorption correction using spherical harmonics,
 implemented in SCALE3 ABSPACK scaling algorithm.
;
_exptl_crystal_colour            'clear colourless'
_exptl_crystal_colour_lustre     clear
_exptl_crystal_colour_primary    colourless
_exptl_crystal_density_diffrn    2.1340
_exptl_crystal_description       plate
_exptl_crystal_F_000             528.7898
_exptl_crystal_size_max          0.123
_exptl_crystal_size_mid          0.066
_exptl_crystal_size_min          0.028
_refine_diff_density_max         0.8921
_refine_diff_density_min         -1.3032
_refine_diff_density_rms         0.1262
_refine_ls_d_res_high            0.7832
_refine_ls_d_res_low             13.1597
_refine_ls_goodness_of_fit_ref   1.0775
_refine_ls_hydrogen_treatment    mixed
_refine_ls_matrix_type           full
_refine_ls_number_constraints    17
_refine_ls_number_parameters     229
_refine_ls_number_reflns         3694
_refine_ls_number_restraints     1
_refine_ls_restrained_S_all      1.0773
_refine_ls_R_factor_all          0.0285
_refine_ls_R_factor_gt           0.0275
_refine_ls_shift/su_max          0.0013
_refine_ls_shift/su_mean         0.0000
_refine_ls_structure_factor_coef Fsqd
_refine_ls_weighting_details
'w=1/[\s^2^(Fo^2^)+(0.0300P)^2^+2.2325P] where P=(Fo^2^+2Fc^2^)/3'
_refine_ls_weighting_scheme      calc
_refine_ls_wR_factor_gt          0.0684
_refine_ls_wR_factor_ref         0.0690
_reflns_Friedel_coverage         0.0
_reflns_limit_h_max              10
_reflns_limit_h_min              -10
_reflns_limit_k_max              10
_reflns_limit_k_min              -10
_reflns_limit_l_max              17
_reflns_limit_l_min              0
_reflns_number_gt                3576
_reflns_number_total             3694
_reflns_threshold_expression     I>=2u(I)
_iucr_refine_instructions_details
;
TITL rs300118_1_1_a.res in P-1
REM Old TITL rs300118_1_1 in P-1
REM SHELXT solution in P-1
REM R1 0.098, Rweak 0.015, Alpha 0.050, Orientation as input
REM Formula found by SHELXT: C15 O3 F4 Cl Br I
CELL 1.54184 7.9867 8.2391 13.6897 74.798 84.253 86.584
ZERR 2 0.0002 0.0002 0.0002 0.002 0.002 0.002
LATT 1
SFAC C H Br Cl F I O
UNIT 30 18 2 2 8 2 6
DFIX 0.93 O2 H2

L.S. 8 0 0
PLAN  20
BOND $H
list 4
fmap 2 53
acta 
OMIT -8 -5 4
WGHT 0.03 2.2325
FVAR 0.390336
REM <olex2.extras>
REM <HklSrc "%.\\rs300118_1_1.hkl">
REM </olex2.extras>

I1    6     0.63809  0.55521  0.63452  11.00000  0.01715  0.01540  0.02278 =
 -0.00623 -0.00224 -0.00431 
Br1   3    -0.05914 -0.26210  0.92105  11.00000  0.04527  0.04426  0.03520 =
 -0.01412  0.00566 -0.03213 
Cl1   4     0.69951  0.64491  0.42360  11.00000  0.01972  0.02029  0.02408 =
 -0.00713 -0.00204 -0.00038 
F1    5     0.60558  0.65160  0.83067  11.00000  0.03335  0.02636  0.02831 =
 -0.01351  0.00129 -0.01372 
F2    5     0.74943  0.41615  0.84125  11.00000  0.02377  0.03251  0.03115 =
 -0.00123 -0.01025 -0.00744 
F3    5     0.31919  0.51370  0.82327  11.00000  0.02162  0.02456  0.04603 =
 -0.01182 -0.00185 -0.00375 
F4    5     0.44705  0.36268  0.94946  11.00000  0.03701  0.04287  0.02078 =
 -0.00923  0.00261 -0.02090 
O1    7     0.45871  0.27544  0.80695  11.00000  0.02237  0.02026  0.02704 =
 -0.00759  0.00008 -0.00987 
O2    7     0.61955  1.13749  0.61395  11.00000  0.01855  0.01829  0.06053 =
 -0.01599 -0.01008  0.00194 
H2    2     0.51604  1.18906  0.60481  11.00000 -1.50000 
O3    7     0.49393  0.90042  0.62539  11.00000  0.01503  0.01904  0.10684 =
 -0.01947 -0.01159  0.00032 
C1    1     0.79268  0.89515  0.62821  11.00000  0.01713  0.01555  0.02193 =
 -0.00673 -0.00221 -0.00371 
C2    1     0.10002 -0.08982  0.89110  11.00000  0.03091  0.03003  0.02294 =
 -0.01073  0.00185 -0.01755 
C3    1     1.12343  0.75895  0.62948  11.00000  0.01445  0.02736  0.02865 =
 -0.00635 -0.00448 -0.00093 
AFIX 43
H3    2     1.23321  0.71452  0.62854  11.00000 -1.20000 
AFIX 0
C4    1     0.33023  0.15478  0.84056  11.00000  0.02182  0.02278  0.02277 =
 -0.00566  0.00123 -0.01352 
C5    1     0.61370  0.50579  0.80331  11.00000  0.02289  0.02090  0.02372 =
 -0.00646 -0.00409 -0.00817 
C6    1     0.98883  0.65672  0.63028  11.00000  0.01512  0.02056  0.02763 =
 -0.00397 -0.00367 -0.00220 
AFIX 43
H6    2     1.00791  0.54401  0.63092  11.00000 -1.20000 
AFIX 0
C7    1     0.16363  0.20011  0.82573  11.00000  0.02765  0.02418  0.02630 =
 -0.00633 -0.00405 -0.00493 
AFIX 43
H7    2     0.13075  0.31170  0.79835  11.00000 -1.20000 
AFIX 0
C8    1     0.93065  0.99299  0.62860  11.00000  0.01717  0.01971  0.02414 =
 -0.00562 -0.00185 -0.00469 
AFIX 43
H8    2     0.91227  1.10582  0.62785  11.00000 -1.20000 
AFIX 0
C9    1     0.45401  0.40848  0.84681  11.00000  0.02370  0.02168  0.02315 =
 -0.00718 -0.00069 -0.00845 
C10   1     0.82748  0.72671  0.63011  11.00000  0.01516  0.02050  0.02206 =
 -0.00781 -0.00369 -0.00684 
C11   1     1.09333  0.92501  0.63008  11.00000  0.01727  0.02724  0.02514 =
 -0.00639 -0.00321 -0.00704 
AFIX 43
H11   2     1.18258  0.99166  0.63149  11.00000 -1.20000 
AFIX 0
C12   1     0.38416 -0.00780  0.88007  11.00000  0.02442  0.02525  0.02966 =
 -0.00701 -0.00337 -0.00651 
AFIX 43
H12   2     0.49735 -0.03391  0.88928  11.00000 -1.20000 
AFIX 0
C13   1     0.61924  0.97777  0.62192  11.00000  0.02003  0.02374  0.02835 =
 -0.01002 -0.00022 -0.00782 
C14   1     0.04659  0.07455  0.85283  11.00000  0.02132  0.03902  0.02877 =
 -0.01400 -0.00106 -0.01190 
AFIX 43
H14   2    -0.06697  0.10125  0.84521  11.00000 -1.20000 
AFIX 0
C15   1     0.26618 -0.13385  0.90634  11.00000  0.03711  0.02295  0.03160 =
 -0.00818 -0.00074 -0.00876 
AFIX 43
H15   2     0.29920 -0.24543  0.93362  11.00000 -1.20000 
AFIX 0
HKLF 4

END
Q1 1 0.6 0.555556 0.711111 11 0.05 0.89
Q2 1 0.68 0.62963 0.488889 11 0.05 0.76
Q3 1 0.56 1.037037 0.6 11 0.05 0.73
Q4 1 -0.12 -0.185185 0.911111 11 0.05 0.59
Q5 1 0.6 0.703704 0.555556 11 0.05 0.59
Q6 1 0.56 0.444444 0.844444 11 0.05 0.51
Q7 1 0.64 0.407407 0.644444 11 0.05 0.47
Q8 1 0.8 0.407407 0.777778 11 0.05 0.46
Q9 1 0.48 0.555556 0.666667 11 0.05 0.42
Q10 1 0.76 0.407407 0.533333 11 0.05 0.4
Q11 1 1 0.962963 0.6 11 0.05 0.39
Q12 1 -0.16 -0.407407 1.044444 11 0.05 0.38
Q13 1 0.76 0.481481 0.644444 11 0.05 0.38
Q14 1 0.92 1.37037 0.555556 11 0.05 0.38
Q15 1 0.52 0.925926 0.577778 11 0.05 0.37
Q16 1 0.92 1.148148 0.644444 11 0.05 0.37
Q17 1 0.08 -0.148148 0.888889 11 0.05 0.37
Q18 1 0.88 0.925926 0.644444 11 0.05 0.36
Q19 1 0.36 0.111111 0.755556 11 0.05 0.36
Q20 1 1 0.555556 0.622222 11 0.05 0.35

  REM The information below was added by Olex2.
  REM
  REM R1 = 0.0275 for 3576 Fo > 4sig(Fo) and 0.0285 for all 3694 data
  REM 229 parameters refined using 1 restraints
  REM Highest difference peak 0.8921, deepest hole -1.3032
  REM Mean Shift 0.0000, Max Shift 0.0013.

  REM +++ Tabular Listing of Refinement Information +++
  REM R1_all = 0.0285
  REM R1_gt = 0.0275
  REM wR_ref = 0.0690
  REM GOOF = 1.0775
  REM Shift_max = 0.0013
  REM Shift_mean = 0.0000
  REM Reflections_all = 3694
  REM Reflections_gt = 3576
  REM Parameters = 229
  REM Hole = -1.3032
  REM Peak = 0.8921
  REM Flack = n/a

  
;
_cod_data_source_file            c8cc04558e2.cif
_cod_data_source_block           rs300118_1_1
_cod_depositor_comments
'Adding full bibliography for 7121965--7121967.cif.'
_cod_database_code               7121967
_olex2_refinement_description
;
;
_iucr_refine_fcf_details
;
data_rs300118_1_1_CCDC1
_computing_structure_refinement   'XL (Sheldrick, 2008)'
_shelx_refln_list_code            4
loop_
  _space_group_symop_id
  _space_group_symop_operation_xyz
  1  x,y,z
  2  -x,-y,-z

_space_group_crystal_system       triclinic
_space_group_IT_number            2
_space_group_name_H-M_alt         'P -1'
_space_group_name_Hall            '-P 1'
_symmetry_space_group_name_H-M    'P -1'
_symmetry_space_group_name_Hall   '-P 1'
_symmetry_Int_Tables_number       2
_cell_length_a                    7.9867(2)
_cell_length_b                    8.2391(2)
_cell_length_c                    13.6897(2)
_cell_angle_alpha                 74.798(2)
_cell_angle_beta                  84.253(2)
_cell_angle_gamma                 86.584(2)
_cell_volume                      864.41(3)
loop_
  _refln_index_h
  _refln_index_k
  _refln_index_l
  _refln_F_squared_calc
  _refln_F_squared_meas
  _refln_F_squared_sigma
  _refln_F_squared_weight
  _refln_observed_status
-10 -1 1 12.026 15.752 7.154 705.133 o
-10 0 1 771.553 652.865 69.013 8.298 o
-10 1 1 70.190 63.992 11.354 200.172 o
-9 -4 1 1843.670 1739.910 67.227 4.962 o
-9 -4 2 157.617 111.976 9.230 135.481 o
-9 -3 1 59.591 63.274 8.447 271.241 o
-9 -3 2 338.305 305.785 26.942 36.748 o
-9 -3 3 131.600 102.784 14.570 114.621 o
-9 -3 4 1338.780 1068.320 75.872 5.739 o
-9 -2 1 1055.800 1052.510 33.031 12.838 o
-9 -2 2 133.952 141.594 14.996 104.482 o
-9 -2 3 1379.720 1347.790 46.673 8.247 o
-9 -2 4 107.699 111.067 10.695 155.135 o
-9 -2 5 856.667 651.892 29.845 17.783 o
-9 -1 1 1344.450 1347.500 39.615 9.204 o
-9 -1 2 549.446 560.299 31.532 22.796 o
-9 -1 3 1563.940 1513.850 104.799 3.441 o
-9 -1 4 3.388 -0.686 5.278 1735.050 o
-9 -1 5 270.101 284.243 16.395 60.073 o
-9 -1 6 1519.730 1178.170 112.921 3.231 o
-9 0 1 664.497 659.207 22.901 23.793 o
-9 0 2 2079.630 2162.860 60.360 4.624 o
-9 0 3 460.328 486.934 22.811 32.326 o
-9 0 4 54.958 50.892 6.727 340.813 o
-9 0 5 360.169 341.766 25.159 37.162 o
-9 0 6 1150.150 1028.460 42.697 10.556 o
-9 1 1 706.985 671.046 51.093 12.419 o
-9 1 2 1479.130 1621.370 50.540 7.083 o
-9 1 3 89.668 104.322 12.973 147.341 o
-9 1 4 92.014 101.680 11.159 165.319 o
-9 1 5 871.842 924.247 38.746 13.597 o
-9 1 6 165.484 157.291 9.494 119.600 o
-9 2 1 1204.540 1324.400 61.373 7.191 o
-9 2 2 182.062 152.260 13.155 97.751 o
-9 2 3 116.223 110.108 21.363 78.952 o
-9 2 4 441.854 385.672 24.711 33.260 o
-9 2 5 911.555 882.029 31.711 15.221 o
-9 2 6 10.996 2.129 4.650 1440.400 o
-9 3 1 732.986 810.764 59.267 9.971 o
-9 3 2 8.296 27.828 15.555 207.428 o
-9 3 3 404.445 395.176 39.380 22.026 o
-9 3 4 870.684 791.533 54.803 10.323 o
-9 3 5 436.245 298.367 27.369 32.483 o
-8 -6 1 1517.240 1393.480 52.930 7.085 o
-8 -5 1 285.471 287.668 17.128 56.745 o
-8 -5 2 1793.480 1828.960 58.392 5.503 o
-8 -5 3 41.926 30.903 10.107 302.246 o
-8 -4 1 523.101 497.787 24.678 28.595 o
-8 -4 2 390.983 337.771 17.017 45.735 o
-8 -4 3 760.093 731.375 29.985 18.525 o
-8 -4 4 160.848 157.360 11.014 114.003 o
-8 -4 5 1061.550 1163.800 67.996 7.005 o
-8 -3 1 1994.450 1995.860 52.396 5.295 o
-8 -3 2 800.776 788.276 34.166 16.232 o
-8 -3 3 1852.140 1835.660 59.770 5.303 o
-8 -3 4 693.889 665.205 22.449 23.270 o
-8 -3 5 502.688 504.808 34.215 22.631 o
-8 -3 6 2228.750 2206.580 65.571 4.167 o
-8 -3 7 365.877 250.664 19.034 47.977 o
-8 -2 1 846.206 832.542 25.010 18.169 o
-8 -2 2 3596.810 3502.030 68.553 2.369 o
-8 -2 3 550.965 543.883 17.625 31.605 o
-8 -2 4 476.473 417.342 14.696 40.104 o
-8 -2 5 406.510 393.383 16.249 43.667 o
-8 -2 6 2827.300 3012.040 79.791 2.808 o
-8 -2 7 12.088 13.158 6.162 866.289 o
-8 -2 8 12.964 5.569 3.885 1477.680 o
-8 -1 1 1508.660 1503.120 35.893 8.526 o
-8 -1 2 2507.050 2527.100 56.044 3.953 o
-8 -1 3 0.375 5.037 5.872 1471.630 o
-8 -1 4 104.039 123.800 11.433 146.867 o
-8 -1 5 1411.200 1444.800 40.703 8.580 o
-8 -1 6 133.223 160.640 14.383 105.144 o
-8 -1 7 60.225 60.751 7.273 298.840 o
-8 -1 8 231.919 227.738 14.484 73.921 o
-8 0 1 1772.290 1851.140 51.218 5.978 o
-8 0 2 254.530 272.052 17.613 59.932 o
-8 0 3 203.307 211.199 16.604 73.793 o
-8 0 4 937.791 926.123 37.173 13.427 o
-8 0 5 864.566 930.838 31.807 15.434 o
-8 0 6 183.576 205.260 14.479 85.409 o
-8 0 7 102.051 102.354 9.828 170.896 o
-8 0 8 1938.780 2011.210 72.844 4.339 o
-8 0 9 243.687 187.841 20.281 59.505 o
-8 1 1 346.387 384.069 22.774 39.754 o
-8 1 2 24.389 33.359 8.986 400.486 o
-8 1 3 181.345 201.191 15.200 83.649 o
-8 1 4 1827.450 1876.410 41.825 6.396 o
-8 1 5 125.596 138.742 10.322 138.584 o
-8 1 6 242.377 225.805 15.283 70.231 o
-8 1 7 368.728 377.009 23.522 37.885 o
-8 1 8 1844.040 2056.740 96.113 3.395 o
-8 1 9 81.178 59.049 10.221 208.248 o
-8 2 1 67.564 74.682 9.612 225.706 o
-8 2 2 246.569 256.828 16.159 65.209 o
-8 2 3 1135.380 1217.050 35.994 11.177 o
-8 2 4 1827.640 1904.900 57.738 5.404 o
-8 2 5 114.933 104.542 10.702 152.403 o
-8 2 6 41.482 52.438 8.133 338.321 o
-8 2 7 1387.230 1228.100 74.260 5.655 o
-8 2 8 718.824 836.059 39.355 15.191 o
-8 2 9 88.884 76.729 13.061 155.781 o
-8 3 1 150.872 127.024 14.538 104.018 o
-8 3 2 57.581 75.843 10.535 222.320 o
-8 3 3 3125.810 3338.810 124.185 1.798 o
-8 3 4 682.843 709.504 30.359 19.708 o
-8 3 5 228.415 193.472 19.420 63.195 o
-8 3 6 26.600 16.764 10.905 332.906 o
-8 3 7 1333.970 1556.660 124.046 2.810 o
-8 3 8 178.724 177.239 15.913 83.986 o
-8 4 1 159.205 150.189 23.873 60.693 o
-8 4 2 395.579 359.581 85.192 6.923 o
-8 4 3 849.656 770.091 78.103 6.679 o
-8 4 4 284.870 259.158 19.109 54.333 o
-8 4 5 22.335 23.590 8.208 481.180 o
-8 4 6 548.130 536.194 31.038 23.352 o
-8 4 7 158.255 134.169 10.798 120.873 o
-8 5 1 2.590 7.810 15.424 230.582 o
-7 -7 1 236.157 253.293 18.353 61.420 o
-7 -7 2 1498.590 1318.760 67.668 5.914 o
-7 -6 1 504.588 515.987 20.357 32.035 o
-7 -6 2 327.490 322.211 16.141 52.701 o
-7 -6 3 303.047 323.618 29.311 34.864 o
-7 -6 4 71.169 53.311 7.337 280.855 o
-7 -5 1 2814.810 2779.550 59.887 3.375 o
-7 -5 2 636.195 610.353 21.070 25.954 o
-7 -5 3 1500.640 1452.360 38.060 8.462 o
-7 -5 4 1244.610 1195.250 42.003 9.736 o
-7 -5 5 1231.760 1272.010 52.310 8.260 o
-7 -5 6 1365.360 1356.550 47.777 8.161 o
-7 -4 1 784.610 726.006 22.114 20.958 o
-7 -4 2 2650.250 2613.370 67.090 3.428 o
-7 -4 3 131.443 147.922 12.648 118.301 o
-7 -4 4 1187.920 1219.440 33.636 11.195 o
-7 -4 5 491.844 516.373 25.454 28.698 o
-7 -4 6 2479.680 2540.230 67.144 3.633 o
-7 -4 7 290.474 283.250 18.234 54.355 o
-7 -4 8 22.410 18.443 5.841 699.601 o
-7 -3 1 1941.310 1922.050 42.731 6.000 o
-7 -3 2 4499.880 4323.760 74.343 1.720 o
-7 -3 3 275.598 252.793 12.898 68.838 o
-7 -3 4 182.260 203.493 13.114 91.057 o
-7 -3 5 2259.110 2363.010 63.935 4.094 o
-7 -3 6 662.792 649.189 34.719 18.626 o
-7 -3 7 439.168 480.112 23.197 32.931 o
-7 -3 8 36.366 45.847 7.014 411.134 o
-7 -3 9 1413.250 1179.960 44.035 8.748 o
-7 -2 1 3033.860 2953.550 46.155 3.362 o
-7 -2 2 32.710 36.701 5.312 542.364 o
-7 -2 3 383.221 378.088 12.700 49.901 o
-7 -2 4 1185.870 1094.260 25.909 12.823 o
-7 -2 5 1343.880 1334.200 28.577 10.518 o
-7 -2 6 983.519 983.067 23.716 15.735 o
-7 -2 7 407.339 427.441 18.413 40.268 o
-7 -2 8 1669.230 1609.090 41.915 7.239 o
-7 -2 9 166.401 164.787 11.040 110.434 o
-7 -2 10 461.679 306.571 25.006 33.742 o
-7 -1 1 854.953 945.423 23.837 17.569 o
-7 -1 2 55.474 62.446 6.401 329.959 o
-7 -1 3 81.132 84.473 7.261 235.477 o
-7 -1 4 837.071 817.849 19.372 20.025 o
-7 -1 5 88.480 83.188 7.137 227.171 o
-7 -1 6 246.047 224.965 10.470 82.181 o
-7 -1 7 278.015 279.498 11.853 68.608 o
-7 -1 8 1432.280 1553.850 34.534 8.874 o
-7 -1 9 126.049 111.800 7.576 167.193 o
-7 -1 10 9.440 4.241 3.850 1779.250 o
-7 0 1 88.048 93.564 8.855 199.361 o
-7 0 2 36.043 36.270 6.804 445.610 o
-7 0 3 1579.750 1570.300 32.806 8.354 o
-7 0 4 7592.230 7594.290 105.173 0.714 o
-7 0 5 184.236 185.825 13.562 91.026 o
-7 0 6 261.980 246.342 13.114 70.955 o
-7 0 7 1150.720 1180.620 27.772 12.478 o
-7 0 8 3137.710 3115.990 71.682 2.725 o
-7 0 9 86.828 77.444 6.718 239.563 o
-7 0 10 185.471 198.890 14.649 85.064 o
-7 0 11 795.022 668.078 42.071 14.415 o
-7 1 1 1016.050 1058.800 28.983 13.939 o
-7 1 2 39.640 49.266 7.471 372.820 o
-7 1 3 3685.960 3985.390 62.539 2.260 o
-7 1 4 1218.200 1263.580 31.645 11.142 o
-7 1 5 4.395 7.497 6.829 971.271 o
-7 1 6 522.913 513.246 19.785 31.808 o
-7 1 7 1515.660 1555.910 37.404 8.253 o
-7 1 8 48.079 66.864 7.762 309.870 o
-7 1 9 160.604 161.205 10.914 113.858 o
-7 1 10 597.914 602.003 21.402 26.938 o
-7 1 11 292.023 259.651 14.615 62.553 o
-7 2 1 15.348 -5.775 7.568 711.756 o
-7 2 2 846.931 864.110 28.254 17.009 o
-7 2 3 3711.580 3898.460 93.567 1.903 o
-7 2 4 389.529 374.319 18.465 42.848 o
-7 2 5 173.205 171.490 12.811 99.048 o
-7 2 6 1437.700 1511.110 39.921 8.417 o
-7 2 7 438.284 457.935 20.413 35.952 o
-7 2 8 183.058 180.326 14.026 90.151 o
-7 2 9 92.041 107.170 20.975 85.822 o
-7 2 10 1197.880 1270.840 46.270 9.187 o
-7 2 11 13.373 -1.165 4.204 1516.460 o
-7 3 1 213.529 194.418 16.126 75.001 o
-7 3 2 2246.600 2399.470 57.825 4.317 o
-7 3 3 577.811 551.333 26.669 25.116 o
-7 3 4 252.587 273.400 17.869 59.509 o
-7 3 5 989.766 1000.090 41.418 11.842 o
-7 3 6 1584.770 1704.550 39.469 7.551 o
-7 3 7 17.804 17.084 5.923 765.509 o
-7 3 8 3.059 4.616 5.327 1569.560 o
-7 3 9 1595.330 1580.990 73.415 5.089 o
-7 3 10 1090.890 1034.860 48.100 9.942 o
-7 3 11 47.543 32.527 6.265 420.226 o
-7 4 1 649.001 679.235 40.681 16.230 o
-7 4 2 470.716 550.858 41.319 18.775 o
-7 4 3 138.087 178.670 20.453 73.424 o
-7 4 4 46.835 64.378 12.527 206.061 o
-7 4 5 1640.230 1766.860 54.803 6.134 o
-7 4 6 540.667 584.261 27.311 25.228 o
-7 4 7 10.431 14.307 6.963 763.338 o
-7 4 8 871.893 786.816 30.361 16.569 o
-7 4 9 794.489 680.683 118.960 3.490 o
-7 4 10 559.750 436.000 37.673 20.252 o
-7 5 1 1627.190 1817.380 97.002 3.623 o
-7 5 2 529.792 567.540 35.007 21.135 o
-7 5 3 2.369 -4.197 11.444 424.475 o
-7 5 4 394.118 449.980 35.109 24.741 o
-7 5 5 1534.180 1899.550 137.435 2.279 o
-7 5 6 1022.800 976.946 86.701 5.345 o
-7 5 7 47.354 44.966 13.196 203.860 o
-7 5 8 812.123 668.180 36.797 15.922 o
-7 5 9 417.189 435.671 37.805 22.514 o
-7 6 1 1431.900 1617.000 116.564 3.016 o
-7 6 2 833.860 864.254 81.844 6.189 o
-7 6 3 0.472 14.672 14.596 254.075 o
-7 6 4 840.622 767.903 69.374 7.890 o
-7 6 5 985.524 960.973 54.412 9.511 o
-7 6 6 899.868 771.626 44.008 12.654 o
-7 6 7 8.299 -8.992 12.667 330.294 o
-7 6 8 402.123 255.968 25.466 36.833 o
-7 7 3 141.936 105.603 21.593 74.016 o
-7 7 4 797.711 640.512 49.750 12.306 o
-6 -8 1 397.850 317.692 23.569 37.855 o
-6 -7 1 1708.680 1736.480 53.834 6.080 o
-6 -7 2 102.557 115.532 11.153 152.927 o
-6 -7 3 765.707 853.979 29.451 17.776 o
-6 -7 4 1125.980 1041.750 49.618 9.518 o
-6 -6 1 646.182 686.656 30.075 20.617 o
-6 -6 2 1809.510 1808.610 44.014 6.398 o
-6 -6 3 203.116 214.943 16.273 74.561 o
-6 -6 4 2172.680 2176.830 55.100 4.701 o
-6 -6 5 529.421 551.629 23.364 28.491 o
-6 -6 6 1610.380 1575.480 58.742 6.125 o
-6 -5 1 1374.200 1363.930 30.604 10.036 o
-6 -5 2 2724.780 2748.570 48.895 3.753 o
-6 -5 3 1678.970 1576.950 34.452 7.826 o
-6 -5 4 671.992 728.351 23.448 22.641 o
-6 -5 5 2348.790 2459.030 54.667 4.249 o
-6 -5 6 234.968 231.429 13.331 76.234 o
-6 -5 7 992.688 934.992 30.114 14.515 o
-6 -5 8 38.811 48.321 6.281 423.638 o
-6 -4 1 2641.550 2593.590 40.688 4.160 o
-6 -4 2 118.879 113.250 7.701 171.515 o
-6 -4 3 178.800 168.724 9.102 113.667 o
-6 -4 4 124.205 138.816 9.485 145.212 o
-6 -4 5 1907.880 1936.170 44.929 5.942 o
-6 -4 6 779.661 865.480 25.774 18.676 o
-6 -4 7 124.677 122.277 10.867 139.765 o
-6 -4 8 228.679 206.209 18.365 65.234 o
-6 -4 9 253.813 284.397 15.198 64.643 o
-6 -3 1 2749.450 2641.190 36.939 4.064 o
-6 -3 2 2167.950 2106.280 41.474 5.353 o
-6 -3 3 71.687 85.898 7.256 249.809 o
-6 -3 4 2442.970 2355.130 37.488 4.743 o
-6 -3 5 279.681 299.494 11.208 68.081 o
-6 -3 6 1595.400 1583.140 29.371 8.528 o
-6 -3 7 929.874 953.820 22.441 16.845 o
-6 -3 8 1258.170 1312.070 33.090 10.553 o
-6 -3 9 15.229 13.615 4.210 1125.550 o
-6 -3 10 112.645 119.873 9.471 159.251 o
-6 -2 1 186.270 172.181 8.300 113.284 o
-6 -2 2 3141.600 3031.080 39.319 3.328 o
-6 -2 3 515.072 454.570 13.154 38.100 o
-6 -2 4 2240.160 2107.090 38.666 5.317 o
-6 -2 5 440.014 428.047 14.331 42.290 o
-6 -2 6 426.892 423.486 14.961 42.682 o
-6 -2 7 2884.610 2882.660 49.061 3.496 o
-6 -2 8 487.026 469.012 15.227 37.706 o
-6 -2 9 80.301 92.531 8.477 214.093 o
-6 -2 10 48.976 60.493 6.655 346.580 o
-6 -2 11 1829.420 1987.280 65.505 4.887 o
-6 -1 1 1155.970 1164.730 22.494 13.270 o
-6 -1 2 195.601 195.078 8.415 105.428 o
-6 -1 3 6618.990 6536.140 78.313 0.952 o
-6 -1 4 2845.190 2722.380 40.899 3.803 o
-6 -1 5 301.959 278.287 10.970 66.794 o
-6 -1 6 206.472 204.507 11.092 91.980 o
-6 -1 7 3014.780 3106.410 61.990 3.006 o
-6 -1 8 649.408 633.805 17.824 26.809 o
-6 -1 9 115.916 116.405 7.982 170.413 o
-6 -1 10 633.279 743.655 30.015 20.382 o
-6 -1 11 566.739 580.122 32.761 21.607 o
-6 -1 12 8.080 15.424 7.285 744.490 o
-6 0 1 1414.470 1448.500 28.104 9.838 o
-6 0 2 3366.700 3246.900 48.975 2.885 o
-6 0 3 8397.360 8518.370 125.936 0.578 o
-6 0 4 67.116 45.867 6.004 329.372 o
-6 0 5 16.169 17.402 5.503 845.214 o
-6 0 6 6649.850 6649.470 90.571 0.908 o
-6 0 7 505.216 477.354 16.982 35.306 o
-6 0 8 1.350 7.365 5.139 1683.320 o
-6 0 9 70.098 80.399 8.094 243.393 o
-6 0 10 2911.510 3164.350 76.359 2.772 o
-6 0 11 14.966 11.900 5.711 893.145 o
-6 0 12 52.828 57.621 5.897 359.153 o
-6 1 1 101.924 96.990 7.758 194.760 o
-6 1 2 2986.360 3021.160 57.410 3.158 o
-6 1 3 582.566 604.086 21.298 27.403 o
-6 1 4 48.512 45.879 7.896 334.371 o
-6 1 5 387.348 380.288 16.322 45.333 o
-6 1 6 1632.410 1662.820 37.842 7.584 o
-6 1 7 136.340 134.059 11.426 126.922 o
-6 1 8 10.517 10.117 6.190 926.768 o
-6 1 9 2478.220 2474.670 54.514 4.071 o
-6 1 10 175.729 177.084 11.971 101.117 o
-6 1 11 16.763 18.651 7.411 607.181 o
-6 1 12 59.095 65.236 7.415 292.985 o
-6 2 1 2130.130 2039.820 41.838 5.485 o
-6 2 2 1261.070 1267.710 32.420 10.756 o
-6 2 3 9.277 18.411 6.339 841.582 o
-6 2 4 111.424 100.411 9.970 162.911 o
-6 2 5 4380.490 4594.520 90.337 1.589 o
-6 2 6 349.193 334.925 19.111 46.002 o
-6 2 7 2.038 7.346 6.505 1123.060 o
-6 2 8 1124.770 1146.730 30.350 12.405 o
-6 2 9 3151.370 3316.290 72.889 2.628 o
-6 2 10 500.436 456.671 25.439 29.362 o
-6 2 11 13.998 19.012 8.445 535.891 o
-6 2 12 1124.990 1170.570 51.016 9.035 o
-6 2 13 795.411 625.648 32.652 17.801 o
-6 3 1 4168.180 4430.240 87.281 1.708 o
-6 3 2 102.949 147.315 15.086 113.511 o
-6 3 3 38.920 37.462 8.411 361.603 o
-6 3 4 1093.910 1093.810 34.864 12.057 o
-6 3 5 3347.420 3538.820 72.293 2.449 o
-6 3 6 353.733 351.468 23.097 39.820 o
-6 3 7 18.151 20.140 7.516 577.756 o
-6 3 8 2453.330 2497.540 57.862 3.981 o
-6 3 9 516.419 561.090 18.076 32.308 o
-6 3 10 816.608 783.559 29.269 17.623 o
-6 3 11 46.060 61.021 8.308 308.019 o
-6 3 12 975.812 890.579 62.417 8.372 o
-6 4 1 2863.920 3045.090 72.236 2.936 o
-6 4 2 160.177 163.402 21.450 67.680 o
-6 4 3 608.328 615.613 28.402 22.781 o
-6 4 4 1786.530 1882.470 62.226 5.233 o
-6 4 5 1479.240 1555.260 59.786 6.364 o
-6 4 6 1105.780 1144.910 51.102 9.155 o
-6 4 7 478.786 509.430 25.967 28.814 o
-6 4 8 1467.460 1546.530 44.492 7.796 o
-6 4 9 132.114 113.868 10.609 139.845 o
-6 4 10 489.157 442.683 35.712 22.522 o
-6 4 11 222.913 203.950 19.059 64.213 o
-6 4 12 442.195 342.075 31.930 27.410 o
-6 5 1 2109.190 2334.970 86.586 3.425 o
-6 5 2 266.962 267.537 32.541 33.199 o
-6 5 3 837.605 876.766 37.813 14.343 o
-6 5 4 1013.710 1074.470 46.696 10.473 o
-6 5 5 965.727 1035.040 45.617 11.045 o
-6 5 6 436.486 472.580 33.354 24.876 o
-6 5 7 897.331 993.821 53.966 9.902 o
-6 5 8 431.475 432.399 32.611 26.005 o
-6 5 9 91.178 127.297 23.070 73.923 o
-6 5 10 24.617 48.371 19.230 128.748 o
-6 5 11 410.226 326.477 70.654 9.551 o
-6 6 1 1158.580 1238.840 80.255 5.515 o
-6 6 2 262.447 252.487 28.778 38.912 o
-6 6 3 1090.990 1103.650 69.235 6.863 o
-6 6 4 134.306 116.421 24.662 62.763 o
-6 6 5 295.640 286.012 31.335 33.350 o
-6 6 6 8.983 5.096 17.708 172.578 o
-6 6 7 1028.530 1072.030 68.460 7.141 o
-6 6 8 123.938 165.418 27.336 53.257 o
-6 6 9 3.000 5.679 9.566 569.639 o
-6 6 10 420.722 368.295 29.797 29.510 o
-6 7 1 97.087 121.290 33.932 40.890 o
-6 7 2 350.768 387.316 38.576 23.619 o
-6 7 3 483.271 542.719 48.897 15.257 o
-6 7 4 193.333 245.617 31.065 38.688 o
-6 7 5 19.558 6.486 14.515 233.163 o
-6 7 6 1091.990 1114.690 63.059 7.592 o
-6 7 7 649.322 673.195 43.142 15.357 o
-6 7 8 357.005 253.108 28.747 34.817 o
-5 -8 1 924.162 932.265 47.889 11.116 o
-5 -8 2 302.252 268.787 22.665 46.044 o
-5 -8 3 25.478 33.110 7.805 459.697 o
-5 -7 1 598.245 647.335 26.387 23.704 o
-5 -7 2 2097.250 2085.370 52.750 5.008 o
-5 -7 3 1855.890 1828.790 44.740 6.209 o
-5 -7 4 970.688 997.392 30.088 14.431 o
-5 -7 5 897.644 887.163 53.335 10.267 o
-5 -6 1 2962.400 2808.360 55.482 3.318 o
-5 -6 2 401.694 413.147 16.777 42.769 o
-5 -6 3 1670.450 1626.550 40.219 7.336 o
-5 -6 4 57.201 72.757 7.291 291.356 o
-5 -6 5 1689.220 1686.670 58.244 5.869 o
-5 -6 6 345.883 340.336 16.815 49.326 o
-5 -6 7 158.341 179.521 11.405 108.955 o
-5 -5 1 2799.540 2786.380 41.943 3.798 o
-5 -5 2 883.849 877.807 20.942 18.373 o
-5 -5 3 476.172 442.755 15.797 38.511 o
-5 -5 4 1521.980 1583.660 37.034 8.206 o
-5 -5 5 39.971 50.278 6.992 387.040 o
-5 -5 6 1195.600 1307.170 30.011 11.370 o
-5 -5 7 430.174 441.724 24.981 32.389 o
-5 -5 8 1286.550 1407.590 43.036 8.921 o
-5 -5 9 187.402 148.691 10.327 109.022 o
-5 -4 1 1.397 11.272 3.783 2301.790 o
-5 -4 2 3104.000 2976.220 39.938 3.385 o
-5 -4 3 81.559 94.834 6.797 233.185 o
-5 -4 4 3294.060 3234.060 47.604 2.970 o
-5 -4 5 817.042 808.874 21.725 19.775 o
-5 -4 6 968.510 1015.570 23.129 15.840 o
-5 -4 7 2493.770 2548.130 45.480 4.275 o
-5 -4 8 260.642 250.787 12.188 72.936 o
-5 -4 9 108.866 100.849 8.274 180.830 o
-5 -4 10 296.761 304.290 13.749 60.875 o
-5 -3 1 2778.910 2709.120 36.231 3.992 o
-5 -3 2 2304.850 2115.730 33.202 5.370 o
-5 -3 3 3525.060 3399.580 45.652 2.747 o
-5 -3 4 600.212 608.676 15.931 29.619 o
-5 -3 5 962.284 908.307 22.243 16.764 o
-5 -3 6 1057.360 1027.680 21.758 15.025 o
-5 -3 7 5619.680 5746.740 78.959 1.196 o
-5 -3 8 100.972 114.037 8.753 177.434 o
-5 -3 9 13.886 20.723 5.149 908.533 o
-5 -3 10 844.630 962.705 28.863 16.265 o
-5 -3 11 1084.430 1100.790 29.823 12.999 o
-5 -2 1 1695.130 1590.330 25.586 8.344 o
-5 -2 2 4540.570 4338.440 52.209 1.858 o
-5 -2 3 9103.900 8645.250 91.391 0.568 o
-5 -2 4 67.094 75.816 5.731 294.971 o
-5 -2 5 70.593 64.674 5.477 304.571 o
-5 -2 6 4808.080 4738.620 57.578 1.650 o
-5 -2 7 942.013 958.606 19.492 17.281 o
-5 -2 8 1.850 4.975 4.059 2488.680 o
-5 -2 9 78.592 97.413 7.387 227.881 o
-5 -2 10 2120.660 2342.460 42.059 5.188 o
-5 -2 11 22.841 17.065 6.444 644.186 o
-5 -2 12 39.958 50.220 6.043 422.689 o
-5 -1 1 145.632 140.767 8.052 140.955 o
-5 -1 2 7961.320 7767.190 108.178 0.668 o
-5 -1 3 200.694 213.816 9.704 96.786 o
-5 -1 4 5.311 3.998 3.526 2446.520 o
-5 -1 5 496.416 464.467 12.839 39.056 o
-5 -1 6 4480.250 4277.770 51.562 1.901 o
-5 -1 7 1177.600 1147.490 23.177 13.061 o
-5 -1 8 31.629 34.152 4.505 609.030 o
-5 -1 9 2225.500 2248.590 36.892 5.269 o
-5 -1 10 450.808 444.490 13.939 41.450 o
-5 -1 11 160.273 161.240 11.307 112.025 o
-5 -1 12 495.675 603.870 25.123 27.542 o
-5 -1 13 1774.110 1781.900 64.888 5.181 o
-5 0 1 1959.320 1800.940 45.256 5.962 o
-5 0 2 4107.800 3984.290 78.681 1.893 o
-5 0 3 122.042 122.251 8.383 160.218 o
-5 0 4 88.174 89.599 6.883 226.216 o
-5 0 5 3769.130 3705.840 49.099 2.437 o
-5 0 6 400.278 398.320 12.248 48.138 o
-5 0 7 160.176 144.502 8.278 130.913 o
-5 0 8 1152.930 1151.450 23.459 13.219 o
-5 0 9 3962.430 4077.480 59.282 2.126 o
-5 0 10 15.647 19.421 5.008 904.958 o
-5 0 11 32.692 34.036 5.875 521.418 o
-5 0 12 1813.040 2201.020 88.876 3.652 o
-5 0 13 1281.620 1486.310 56.864 7.238 o
-5 1 1 4727.700 4470.490 117.335 1.312 o
-5 1 2 71.678 67.083 6.994 271.916 o
-5 1 3 18.359 20.337 4.693 880.892 o
-5 1 4 4633.610 4448.900 59.339 1.754 o
-5 1 5 2942.910 2930.260 46.365 3.463 o
-5 1 6 28.772 29.652 5.713 580.807 o
-5 1 7 9.935 8.808 4.991 1231.980 o
-5 1 8 5728.490 5759.570 84.573 1.151 o
-5 1 9 1235.440 1182.280 25.845 12.092 o
-5 1 10 123.699 126.835 8.739 154.761 o
-5 1 11 133.197 130.939 9.447 142.461 o
-5 1 12 1412.050 1587.110 78.775 4.993 o
-5 1 13 309.179 301.330 22.367 44.977 o
-5 1 14 117.100 98.650 10.567 154.110 o
-5 2 1 2026.500 2060.450 39.624 5.792 o
-5 2 2 103.877 117.109 8.020 180.297 o
-5 2 3 651.765 685.194 23.608 23.465 o
-5 2 4 8727.510 8663.440 131.940 0.543 o
-5 2 5 703.359 667.567 28.675 20.416 o
-5 2 6 157.550 158.275 11.213 114.082 o
-5 2 7 534.791 548.831 20.637 30.170 o
-5 2 8 4151.630 4210.980 62.324 1.978 o
-5 2 9 219.893 222.897 11.787 84.448 o
-5 2 10 369.290 359.738 16.607 47.033 o
-5 2 11 958.906 980.420 26.833 15.359 o
-5 2 12 246.955 264.081 13.760 70.402 o
-5 2 13 161.466 164.202 13.627 99.816 o
-5 2 14 28.412 20.587 3.968 771.960 o
-5 3 1 1499.400 1445.180 35.319 8.743 o
-5 3 2 852.645 798.214 24.360 18.516 o
-5 3 3 1621.940 1552.960 36.428 7.931 o
-5 3 4 4123.330 4203.790 71.866 1.907 o
-5 3 5 835.495 802.940 29.335 17.228 o
-5 3 6 611.830 609.563 27.413 23.284 o
-5 3 7 1185.120 1206.120 35.608 10.960 o
-5 3 8 942.967 980.605 30.645 14.660 o
-5 3 9 137.501 160.698 12.410 114.809 o
-5 3 10 24.130 34.282 6.456 550.029 o
-5 3 11 638.927 664.611 25.891 22.897 o
-5 3 12 163.145 173.082 13.616 98.098 o
-5 3 13 18.406 19.504 11.256 337.942 o
-5 3 14 853.351 612.158 42.924 13.904 o
-5 4 1 414.776 362.338 18.711 41.394 o
-5 4 2 111.845 115.929 11.999 139.835 o
-5 4 3 2847.880 2837.490 58.203 3.354 o
-5 4 4 305.704 322.908 18.431 50.867 o
-5 4 5 510.607 510.102 23.221 29.837 o
-5 4 6 172.931 184.880 14.216 91.308 o
-5 4 7 1321.130 1420.430 41.235 8.956 o
-5 4 8 89.156 79.026 11.449 173.407 o
-5 4 9 6.997 9.356 7.269 812.416 o
-5 4 10 1167.200 1174.950 41.698 10.227 o
-5 4 11 366.151 410.891 26.086 34.350 o
-5 4 12 356.453 363.794 22.879 39.627 o
-5 4 13 171.274 131.821 26.417 53.184 o
-5 5 1 2248.230 2344.340 58.742 4.318 o
-5 5 2 458.600 417.566 22.006 34.479 o
-5 5 3 1965.820 1962.440 50.675 5.474 o
-5 5 4 34.202 39.118 9.697 325.836 o
-5 5 5 351.007 387.373 24.205 37.675 o
-5 5 6 1335.470 1365.420 47.999 8.229 o
-5 5 7 1128.030 1117.760 44.444 10.150 o
-5 5 8 406.362 420.760 25.055 33.624 o
-5 5 9 203.783 179.888 16.964 75.170 o
-5 5 10 1387.610 1360.810 77.044 5.323 o
-5 5 11 675.313 713.307 48.480 13.239 o
-5 5 12 887.585 843.950 81.615 6.141 o
-5 5 13 335.462 248.158 24.678 41.444 o
-5 6 1 29.486 79.567 18.633 126.242 o
-5 6 2 1132.010 1258.780 48.914 9.126 o
-5 6 3 625.533 656.494 37.749 17.793 o
-5 6 4 740.542 709.599 32.196 18.142 o
-5 6 5 1308.140 1312.350 48.370 8.387 o
-5 6 6 1579.280 1665.180 81.595 4.540 o
-5 6 7 1023.820 1002.000 43.433 11.225 o
-5 6 8 489.478 494.443 42.260 18.419 o
-5 6 9 1211.050 1197.570 71.999 6.213 o
-5 6 10 1026.870 1229.370 94.249 4.602 o
-5 6 11 928.326 945.133 49.974 10.636 o
-5 6 12 84.700 79.613 15.555 131.698 o
-5 7 1 1541.110 1720.950 77.895 4.778 o
-5 7 2 2249.550 2665.690 124.962 2.189 o
-5 7 3 765.550 881.995 45.581 12.812 o
-5 7 4 4.152 23.462 16.146 200.712 o
-5 7 5 1291.830 1390.760 68.670 6.170 o
-5 7 6 2035.680 2190.950 96.039 3.206 o
-5 7 7 1521.240 1588.490 71.193 5.356 o
-5 7 8 113.373 91.316 17.764 101.509 o
-5 7 9 242.970 229.781 38.855 27.268 o
-5 7 10 896.658 804.069 62.483 8.767 o
-5 7 11 600.205 375.880 31.241 23.811 o
-5 8 2 1410.620 1622.910 107.179 3.404 o
-5 8 3 706.874 715.941 47.376 13.329 o
-5 8 4 43.990 52.053 15.311 167.607 o
-5 8 5 479.064 450.045 55.197 13.298 o
-5 8 6 671.414 757.798 69.440 8.363 o
-5 8 7 358.260 417.229 48.700 17.072 o
-5 8 8 79.246 66.946 19.034 106.680 o
-4 -9 1 338.629 324.377 21.790 43.230 o
-4 -9 2 268.478 181.409 19.165 59.872 o
-4 -8 1 1445.610 1467.450 81.534 4.841 o
-4 -8 2 232.005 249.612 25.848 45.667 o
-4 -8 3 1969.930 2302.130 89.880 3.435 o
-4 -8 4 80.818 84.871 12.461 165.568 o
-4 -8 5 954.437 696.956 41.874 13.059 o
-4 -7 1 3967.090 3973.110 84.990 1.886 o
-4 -7 2 960.922 945.757 29.180 14.992 o
-4 -7 3 1371.000 1347.890 34.674 9.645 o
-4 -7 4 536.131 560.979 24.996 27.094 o
-4 -7 5 247.862 270.057 19.288 57.057 o
-4 -7 6 954.570 1082.130 49.025 10.334 o
-4 -7 7 281.167 243.039 24.481 45.181 o
-4 -6 1 177.711 144.345 10.524 112.452 o
-4 -6 2 1737.440 1773.280 52.253 6.079 o
-4 -6 3 790.490 758.958 25.519 19.417 o
-4 -6 4 430.890 445.122 23.774 33.412 o
-4 -6 5 1720.510 1789.690 37.639 7.096 o
-4 -6 6 471.639 504.642 16.649 36.493 o
-4 -6 7 1700.720 1847.070 74.618 4.668 o
-4 -6 8 136.941 143.378 16.147 96.978 o
-4 -6 9 1127.690 943.990 37.514 11.864 o
-4 -5 1 3483.240 3464.470 57.573 2.600 o
-4 -5 2 1090.610 1055.550 23.782 14.194 o
-4 -5 3 4484.140 4400.590 63.664 1.791 o
-4 -5 4 57.960 63.880 6.169 326.040 o
-4 -5 5 2696.820 2708.030 44.651 3.914 o
-4 -5 6 626.559 656.351 19.784 26.223 o
-4 -5 7 4492.060 4621.250 75.469 1.663 o
-4 -5 8 168.716 181.589 12.054 102.218 o
-4 -5 9 152.665 146.169 12.419 111.803 o
-4 -5 10 961.395 975.913 50.567 10.278 o
-4 -4 1 3781.800 3748.130 55.062 2.355 o
-4 -4 2 2833.550 2755.710 38.114 3.853 o
-4 -4 3 6045.540 5841.780 76.454 1.112 o
-4 -4 4 1296.320 1245.590 23.718 11.669 o
-4 -4 5 610.715 581.966 16.428 29.470 o
-4 -4 6 2912.140 2892.600 42.037 3.601 o
-4 -4 7 1317.280 1285.060 25.470 11.189 o
-4 -4 8 517.635 571.680 19.821 30.909 o
-4 -4 9 130.497 144.133 10.032 136.399 o
-4 -4 10 1452.000 1531.510 36.127 8.685 o
-4 -4 11 44.287 36.770 5.299 464.399 o
-4 -3 1 168.558 149.623 9.779 118.554 o
-4 -3 2 6929.610 6579.030 83.715 0.892 o
-4 -3 3 181.900 165.510 7.399 119.765 o
-4 -3 4 149.079 139.464 6.808 145.942 o
-4 -3 5 649.322 608.644 14.195 28.765 o
-4 -3 6 2174.350 2083.650 32.602 5.716 o
-4 -3 7 570.950 551.030 14.385 32.559 o
-4 -3 8 56.137 68.181 6.585 315.548 o
-4 -3 9 1738.620 1829.210 43.809 6.574 o
-4 -3 10 107.259 131.700 11.493 142.106 o
-4 -3 11 496.611 532.266 21.248 31.377 o
-4 -3 12 193.275 181.891 11.107 98.646 o
-4 -2 1 1164.320 1093.850 22.414 13.526 o
-4 -2 2 7716.110 7402.010 89.175 0.741 o
-4 -2 3 1.303 6.648 3.565 2912.240 o
-4 -2 4 86.231 78.984 4.734 264.479 o
-4 -2 5 6146.000 5819.590 60.868 1.142 o
-4 -2 6 125.991 120.576 7.072 167.346 o
-4 -2 7 516.188 479.375 14.629 36.418 o
-4 -2 8 88.353 93.690 8.058 208.752 o
-4 -2 9 4662.430 4915.200 66.239 1.619 o
-4 -2 10 42.245 60.773 7.285 349.627 o
-4 -2 11 76.475 86.685 7.339 239.923 o
-4 -2 12 1603.900 1835.500 49.463 6.529 o
-4 -2 13 623.458 657.528 19.269 26.537 o
-4 -1 1 6892.120 6789.050 84.552 0.881 o
-4 -1 2 790.850 798.982 23.643 19.703 o
-4 -1 3 147.392 139.436 8.405 138.349 o
-4 -1 4 1282.590 1264.480 26.697 11.351 o
-4 -1 5 7344.780 7204.730 87.771 0.794 o
-4 -1 6 1093.160 1078.430 18.987 14.805 o
-4 -1 7 813.598 742.280 15.222 22.331 o
-4 -1 8 2772.090 2712.200 36.325 3.998 o
-4 -1 9 2193.020 2187.100 39.050 5.317 o
-4 -1 10 6.427 17.930 5.448 1083.590 o
-4 -1 11 547.175 605.239 18.333 30.209 o
-4 -1 12 2268.370 2562.160 50.836 4.423 o
-4 -1 13 110.792 106.089 8.834 171.630 o
-4 -1 14 205.931 201.773 12.699 87.079 o
-4 0 1 4252.100 3844.260 69.529 1.950 o
-4 0 2 1829.650 1791.200 42.939 6.435 o
-4 0 3 406.602 426.337 13.824 45.051 o
-4 0 4 16131.900 16203.400 213.805 0.180 o
-4 0 5 586.307 565.387 16.025 30.820 o
-4 0 6 20.002 27.346 4.471 809.070 o
-4 0 7 1894.570 1884.890 28.945 6.895 o
-4 0 8 7075.620 7054.800 80.664 0.849 o
-4 0 9 145.007 142.117 7.726 142.736 o
-4 0 10 388.464 401.953 13.290 47.856 o
-4 0 11 1971.100 2137.880 38.225 5.896 o
-4 0 12 728.209 774.433 23.156 21.190 o
-4 0 13 84.165 102.342 9.333 192.957 o
-4 0 14 10.320 9.055 4.988 1212.920 o
-4 1 1 481.202 478.349 13.477 39.064 o
-4 1 2 167.413 158.033 7.517 127.550 o
-4 1 3 2336.590 1971.990 36.451 5.340 o
-4 1 4 8777.910 8042.090 113.487 0.586 o
-4 1 5 26.138 28.687 5.592 619.354 o
-4 1 6 577.651 597.918 17.925 29.527 o
-4 1 7 2295.670 2185.620 45.152 4.890 o
-4 1 8 708.111 697.720 17.420 24.570 o
-4 1 9 201.885 206.516 9.684 97.555 o
-4 1 10 55.582 63.147 6.440 327.660 o
-4 1 11 1394.280 1440.370 29.903 9.793 o
-4 1 12 234.206 240.681 10.927 81.861 o
-4 1 13 144.594 136.001 12.616 115.641 o
-4 1 14 1012.870 1122.790 41.307 11.325 o
-4 1 15 302.851 272.042 17.985 54.178 o
-4 2 1 28.560 38.401 5.798 540.529 o
-4 2 2 1350.010 1468.640 46.907 8.109 o
-4 2 3 10403.100 9835.540 183.901 0.379 o
-4 2 4 3491.880 3520.510 76.313 2.314 o
-4 2 5 157.853 131.905 9.631 128.029 o
-4 2 6 253.294 264.471 13.335 70.384 o
-4 2 7 2061.230 2075.930 40.231 5.667 o
-4 2 8 619.967 682.546 19.515 26.174 o
-4 2 9 40.459 29.480 5.720 491.726 o
-4 2 10 1790.140 1815.370 36.173 6.932 o
-4 2 11 584.292 566.027 18.810 29.342 o
-4 2 12 310.412 319.730 13.611 58.632 o
-4 2 13 153.132 169.835 13.768 100.770 o
-4 2 14 1453.010 1641.170 86.373 4.421 o
-4 2 15 244.661 226.703 16.974 65.448 o
-4 3 1 642.128 595.807 17.148 27.893 o
-4 3 2 186.278 181.020 12.940 93.578 o
-4 3 3 2570.550 2387.760 40.570 4.419 o
-4 3 4 109.373 101.347 9.150 171.857 o
-4 3 5 321.231 328.135 16.060 53.133 o
-4 3 6 4161.630 4043.590 79.629 1.851 o
-4 3 7 119.908 116.490 10.946 143.556 o
-4 3 8 264.014 267.553 13.658 67.809 o
-4 3 9 872.245 830.625 25.300 17.732 o
-4 3 10 2888.380 2852.460 59.198 3.286 o
-4 3 11 248.078 234.800 13.621 72.916 o
-4 3 12 383.031 362.842 17.686 44.587 o
-4 3 13 1443.610 1531.170 56.361 6.782 o
-4 3 14 909.024 911.816 27.141 16.249 o
-4 3 15 425.780 399.290 59.792 12.244 o
-4 4 1 112.817 150.993 10.644 140.002 o
-4 4 2 3771.550 3796.780 61.842 2.272 o
-4 4 3 699.639 690.277 27.272 20.870 o
-4 4 4 537.735 507.355 18.613 32.164 o
-4 4 5 1209.000 1093.200 29.612 12.088 o
-4 4 6 3539.310 3613.970 64.892 2.419 o
-4 4 7 997.088 1004.410 29.786 14.208 o
-4 4 8 660.378 668.744 26.315 22.223 o
-4 4 9 3247.400 3389.450 74.026 2.525 o
-4 4 10 1159.710 1220.660 35.494 11.090 o
-4 4 11 1408.430 1447.400 36.590 9.018 o
-4 4 12 269.573 267.396 14.438 65.339 o
-4 4 13 1138.310 1116.920 41.660 10.547 o
-4 4 14 306.866 303.775 23.554 43.190 o
-4 5 1 7429.490 7615.560 109.463 0.721 o
-4 5 2 2795.810 3055.510 66.053 3.124 o
-4 5 3 1507.690 1620.700 43.263 7.641 o
-4 5 4 28.105 17.155 7.685 499.939 o
-4 5 5 8859.170 9045.010 150.657 0.500 o
-4 5 6 2992.780 2992.430 63.458 3.042 o
-4 5 7 2032.830 2097.460 50.010 5.244 o
-4 5 8 336.942 317.981 18.133 48.989 o
-4 5 9 2604.360 2676.930 70.975 3.334 o
-4 5 10 2316.080 2368.780 55.165 4.340 o
-4 5 11 702.430 709.932 26.171 21.097 o
-4 5 12 566.965 552.608 29.614 23.624 o
-4 5 13 444.033 448.735 33.290 25.019 o
-4 5 14 878.567 714.677 49.881 11.559 o
-4 6 1 3892.210 4152.310 81.918 1.913 o
-4 6 2 702.667 788.303 32.907 17.859 o
-4 6 3 50.994 47.450 10.447 256.477 o
-4 6 4 89.950 78.383 12.688 158.636 o
-4 6 5 1154.920 1284.210 44.038 9.667 o
-4 6 6 1568.040 1620.440 55.160 6.454 o
-4 6 7 9.874 10.308 8.920 559.514 o
-4 6 8 793.331 885.961 35.497 15.381 o
-4 6 9 68.203 78.541 13.135 169.348 o
-4 6 10 806.199 856.582 43.250 13.222 o
-4 6 11 238.829 181.036 18.791 64.383 o
-4 6 12 781.156 632.649 54.049 11.335 o
-4 6 13 52.380 47.781 16.211 150.764 o
-4 7 1 2886.030 3053.190 98.178 2.379 o
-4 7 2 2058.600 2185.700 79.984 3.790 o
-4 7 3 104.951 146.557 19.666 85.879 o
-4 7 4 353.023 389.081 28.142 33.058 o
-4 7 5 895.299 907.835 38.009 13.654 o
-4 7 6 1517.530 1578.930 47.803 7.274 o
-4 7 7 19.942 26.235 8.774 450.839 o
-4 7 8 631.294 760.392 55.142 11.520 o
-4 7 9 344.839 361.593 41.246 22.006 o
-4 7 10 196.137 162.602 26.604 49.576 o
-4 7 11 227.875 262.663 39.052 27.039 o
-4 7 12 632.665 591.025 48.634 13.953 o
-4 8 1 475.429 494.694 35.407 22.490 o
-4 8 2 455.233 501.374 85.946 6.610 o
-4 8 3 142.414 174.518 39.183 30.074 o
-4 8 4 190.717 281.762 48.437 19.797 o
-4 8 5 282.447 312.598 25.443 41.447 o
-4 8 6 14.073 8.800 13.715 264.620 o
-4 8 7 836.701 866.276 47.969 11.805 o
-4 8 8 376.145 360.801 36.491 24.996 o
-4 8 9 362.516 328.042 30.592 31.187 o
-4 8 10 59.422 63.730 18.771 116.136 o
-3 -9 1 630.987 703.191 59.398 10.617 o
-3 -9 2 610.832 631.729 33.375 20.125 o
-3 -9 3 605.242 457.238 44.466 16.327 o
-3 -8 1 179.334 170.653 17.069 80.036 o
-3 -8 2 1166.770 1169.790 38.072 10.804 o
-3 -8 3 221.292 236.344 22.988 52.868 o
-3 -8 4 557.653 515.844 25.726 26.654 o
-3 -8 5 597.087 664.993 48.306 14.052 o
-3 -8 6 584.562 408.302 29.010 25.212 o
-3 -7 1 3827.700 3929.530 68.446 2.136 o
-3 -7 2 1962.450 1949.470 43.019 5.902 o
-3 -7 3 2229.020 2400.170 68.782 3.927 o
-3 -7 4 179.355 172.543 13.969 92.271 o
-3 -7 5 3275.570 3154.810 88.660 2.330 o
-3 -7 6 1152.180 1227.780 58.702 7.797 o
-3 -7 7 1944.420 2051.530 89.828 3.564 o
-3 -7 8 361.226 270.208 17.699 49.619 o
-3 -6 1 1276.880 1346.860 31.674 10.518 o
-3 -6 2 416.435 411.102 17.765 40.892 o
-3 -6 3 2155.330 2096.220 47.807 5.116 o
-3 -6 4 3195.120 3200.650 63.151 2.809 o
-3 -6 5 244.034 231.794 14.938 70.420 o
-3 -6 6 848.082 890.075 26.824 17.231 o
-3 -6 7 373.883 359.603 19.606 42.887 o
-3 -6 8 844.348 835.684 46.646 12.168 o
-3 -6 9 42.975 45.731 10.363 275.618 o
-3 -6 10 547.928 409.577 20.886 32.014 o
-3 -5 1 1009.660 1043.550 23.893 15.069 o
-3 -5 2 6525.230 6484.870 71.857 0.987 o
-3 -5 3 1431.860 1355.830 26.147 10.187 o
-3 -5 4 567.538 514.979 15.800 32.624 o
-3 -5 5 915.613 874.789 20.193 18.101 o
-3 -5 6 2703.750 2756.620 40.990 3.959 o
-3 -5 7 1.129 4.878 4.139 2543.070 o
-3 -5 8 32.042 25.619 5.070 612.096 o
-3 -5 9 880.598 895.710 31.223 15.606 o
-3 -5 10 267.691 274.698 13.940 66.166 o
-3 -5 11 142.205 115.441 14.528 108.818 o
-3 -4 1 1244.380 1212.320 24.606 12.070 o
-3 -4 2 7247.760 7122.870 90.052 0.805 o
-3 -4 3 861.051 872.843 21.686 18.566 o
-3 -4 4 48.883 45.500 4.952 428.619 o
-3 -4 5 2740.840 2660.850 37.828 4.043 o
-3 -4 6 70.385 74.090 6.189 281.479 o
-3 -4 7 562.708 582.000 15.197 31.837 o
-3 -4 8 522.221 551.483 15.455 33.956 o
-3 -4 9 1566.590 1640.100 29.681 8.506 o
-3 -4 10 290.892 318.443 13.067 61.936 o
-3 -4 11 191.817 212.658 15.566 79.111 o
-3 -4 12 1555.710 1544.640 47.130 7.269 o
-3 -3 1 2096.260 2002.880 32.557 6.004 o
-3 -3 2 274.827 299.410 9.477 71.921 o
-3 -3 3 238.372 214.788 10.332 85.307 o
-3 -3 4 794.655 736.262 17.284 22.211 o
-3 -3 5 5849.980 5550.900 59.118 1.239 o
-3 -3 6 2366.790 2242.110 30.641 5.192 o
-3 -3 7 92.270 78.656 5.688 242.770 o
-3 -3 8 2309.520 2346.000 36.919 5.009 o
-3 -3 9 2421.180 2454.640 36.814 4.714 o
-3 -3 10 349.295 378.206 12.958 52.606 o
-3 -3 11 279.557 304.540 11.131 67.864 o
-3 -3 12 1794.650 1977.650 52.026 5.738 o
-3 -3 13 191.749 179.792 11.649 97.316 o
-3 -2 1 7850.360 8004.430 97.360 0.685 o
-3 -2 2 8798.520 9209.500 106.369 0.554 o
-3 -2 3 639.298 676.390 16.591 27.026 o
-3 -2 4 16205.600 15291.500 162.183 0.197 o
-3 -2 5 5304.320 5029.990 63.042 1.425 o
-3 -2 6 2854.180 2773.400 35.114 3.873 o
-3 -2 7 2070.550 1995.910 27.916 6.265 o
-3 -2 8 4399.880 4472.040 49.648 1.906 o
-3 -2 9 1187.550 1211.920 21.741 12.890 o
-3 -2 10 27.908 33.130 4.414 660.214 o
-3 -2 11 3380.420 3591.880 51.419 2.710 o
-3 -2 12 902.737 990.718 25.480 16.255 o
-3 -2 13 4.766 13.564 6.115 1044.810 o
-3 -2 14 88.026 80.119 7.257 228.474 o
-3 -1 1 619.409 615.761 12.975 30.166 o
-3 -1 2 5054.000 4962.050 61.540 1.514 o
-3 -1 3 2280.760 2119.480 36.425 5.304 o
-3 -1 4 11704.300 11077.400 131.089 0.353 o
-3 -1 5 52.141 56.375 5.029 387.214 o
-3 -1 6 17.954 21.300 3.851 988.882 o
-3 -1 7 10241.600 9873.500 90.844 0.464 o
-3 -1 8 127.213 131.612 7.047 162.251 o
-3 -1 9 141.744 139.222 6.720 151.186 o
-3 -1 10 25.951 33.591 4.330 686.994 o
-3 -1 11 3855.580 4084.340 59.958 2.172 o
-3 -1 12 186.145 202.238 10.196 101.124 o
-3 -1 13 0.527 4.339 4.997 1969.520 o
-3 -1 14 648.051 723.759 22.574 23.583 o
-3 -1 15 347.565 291.645 14.429 54.896 o
-3 0 1 155.818 154.900 5.986 141.033 o
-3 0 2 1275.060 1179.340 29.678 11.311 o
-3 0 3 8843.530 8489.090 110.371 0.570 o
-3 0 4 2536.120 2522.270 40.852 4.362 o
-3 0 5 628.857 624.039 17.192 27.847 o
-3 0 6 1342.920 1325.910 27.555 10.662 o
-3 0 7 3943.500 3797.800 52.363 2.275 o
-3 0 8 133.314 123.369 6.713 162.876 o
-3 0 9 806.891 860.849 18.494 20.418 o
-3 0 10 3162.420 3165.380 42.527 3.193 o
-3 0 11 486.583 492.443 14.595 37.595 o
-3 0 12 105.609 110.845 8.318 178.830 o
-3 0 13 24.758 26.055 5.898 623.293 o
-3 0 14 2170.970 2257.150 47.600 4.951 o
-3 0 15 73.097 82.549 6.924 255.540 o
-3 1 1 5177.160 5338.520 79.443 1.340 o
-3 1 2 296.850 217.340 14.587 64.717 o
-3 1 3 7401.070 6962.890 94.360 0.788 o
-3 1 4 465.587 482.281 20.334 34.284 o
-3 1 5 1272.850 1321.810 36.870 9.957 o
-3 1 6 4430.770 4387.400 74.908 1.729 o
-3 1 7 164.803 167.140 9.738 116.704 o
-3 1 8 137.031 156.438 8.830 136.941 o
-3 1 9 574.995 543.334 14.664 32.401 o
-3 1 10 2545.280 2648.030 44.257 4.165 o
-3 1 11 420.345 416.126 14.120 44.163 o
-3 1 12 26.813 26.096 5.731 615.085 o
-3 1 13 2031.690 2219.720 41.852 5.502 o
-3 1 14 509.539 582.207 19.044 31.527 o
-3 1 15 629.802 711.540 30.181 20.636 o
-3 2 1 432.563 535.182 25.971 29.847 o
-3 2 2 14299.800 14051.000 213.854 0.220 o
-3 2 3 139.606 140.854 8.584 141.327 o
-3 2 4 91.272 80.403 7.931 215.024 o
-3 2 5 4456.980 4506.400 88.029 1.597 o
-3 2 6 11606.000 12133.400 213.361 0.290 o
-3 2 7 47.179 53.999 7.194 347.322 o
-3 2 8 40.782 52.905 7.522 360.262 o
-3 2 9 8469.480 8636.570 111.565 0.589 o
-3 2 10 1855.090 1918.630 37.269 6.527 o
-3 2 11 1638.260 1656.980 31.686 8.030 o
-3 2 12 54.067 70.131 7.617 294.489 o
-3 2 13 3272.140 3523.680 61.789 2.662 o
-3 2 14 479.504 527.029 20.141 32.953 o
-3 2 15 588.305 637.287 20.709 27.084 o
-3 2 16 137.060 116.498 14.767 108.940 o
-3 3 1 3577.470 3496.990 62.962 2.457 o
-3 3 2 2472.590 2378.800 45.381 4.434 o
-3 3 3 139.667 114.357 7.843 154.297 o
-3 3 4 602.717 568.949 25.574 24.936 o
-3 3 5 6212.540 6085.620 175.837 0.723 o
-3 3 6 1169.670 1054.520 31.725 12.188 o
-3 3 7 2181.200 2124.630 55.819 4.698 o
-3 3 8 1391.760 1407.770 36.791 9.164 o
-3 3 9 4444.740 4321.200 93.161 1.587 o
-3 3 10 176.375 195.022 12.239 97.179 o
-3 3 11 1468.740 1520.160 43.834 7.901 o
-3 3 12 716.318 786.273 23.817 21.059 o
-3 3 13 909.191 945.741 29.822 15.386 o
-3 3 14 158.443 166.815 18.429 78.960 o
-3 3 15 0.674 4.616 5.405 1696.190 o
-3 3 16 357.278 272.287 17.054 50.852 o
-3 4 1 11363.100 11482.300 204.283 0.310 o
-3 4 2 1289.110 1178.710 58.209 7.516 o
-3 4 3 1810.530 1663.650 48.408 6.295 o
-3 4 4 3610.120 3386.260 60.551 2.503 o
-3 4 5 5376.350 5243.220 88.420 1.260 o
-3 4 6 2219.330 2065.390 39.410 5.374 o
-3 4 7 1089.740 1094.860 31.154 12.744 o
-3 4 8 2749.770 2720.730 58.781 3.496 o
-3 4 9 959.459 980.133 42.111 11.965 o
-3 4 10 1550.130 1560.880 35.998 8.229 o
-3 4 11 104.601 109.785 10.464 159.886 o
-3 4 12 577.189 586.690 22.891 26.892 o
-3 4 13 435.104 436.342 17.093 39.777 o
-3 4 14 232.964 267.792 18.884 59.686 o
-3 4 15 863.402 860.847 62.404 8.797 o
-3 5 1 7335.780 7649.470 108.661 0.730 o
-3 5 2 672.855 692.185 23.609 22.933 o
-3 5 3 1.256 -3.814 6.420 1324.780 o
-3 5 4 2506.070 2436.540 54.779 4.051 o
-3 5 5 1435.590 1376.450 30.901 9.643 o
-3 5 6 1861.790 1723.080 35.973 6.866 o
-3 5 7 767.797 720.276 23.851 20.710 o
-3 5 8 1394.990 1436.030 39.978 8.744 o
-3 5 9 67.922 67.960 9.458 232.750 o
-3 5 10 346.407 336.472 17.897 47.883 o
-3 5 11 1695.320 1672.620 42.883 6.987 o
-3 5 12 639.381 608.938 26.183 23.332 o
-3 5 13 354.269 341.922 24.755 37.935 o
-3 5 14 235.027 242.030 31.012 37.013 o
-3 5 15 808.791 624.786 52.375 11.616 o
-3 6 1 1814.380 1916.220 45.206 6.175 o
-3 6 2 1400.090 1356.770 35.378 9.400 o
-3 6 3 310.096 318.848 15.682 55.268 o
-3 6 4 157.153 170.294 11.966 108.264 o
-3 6 5 470.927 442.685 22.836 32.743 o
-3 6 6 644.661 674.210 32.199 19.797 o
-3 6 7 1559.120 1469.470 48.074 7.291 o
-3 6 8 169.220 176.214 18.419 76.242 o
-3 6 9 114.487 115.515 15.384 113.068 o
-3 6 10 32.530 21.771 10.166 338.357 o
-3 6 11 807.261 842.662 43.255 13.266 o
-3 6 12 839.683 912.467 57.393 9.685 o
-3 6 13 315.035 316.152 57.855 13.786 o
-3 6 14 276.799 213.723 18.050 59.733 o
-3 7 1 2257.770 2359.040 62.857 4.139 o
-3 7 2 63.168 94.954 17.791 117.442 o
-3 7 3 2708.810 2551.590 140.159 1.788 o
-3 7 4 326.044 331.331 23.194 41.776 o
-3 7 5 1544.340 1536.790 48.051 7.235 o
-3 7 6 203.778 210.369 16.035 75.598 o
-3 7 7 2601.740 2602.690 66.263 3.504 o
-3 7 8 1983.160 1976.140 54.216 5.241 o
-3 7 9 462.528 482.072 29.485 26.998 o
-3 7 10 436.564 427.312 34.471 24.552 o
-3 7 11 933.959 979.872 91.984 5.011 o
-3 7 12 2541.610 2468.350 143.342 1.791 o
-3 7 13 77.346 39.774 16.802 132.512 o
-3 8 1 678.118 631.023 45.117 14.603 o
-3 8 2 618.942 561.786 49.666 13.823 o
-3 8 3 1450.400 1805.040 136.254 2.351 o
-3 8 4 522.148 609.060 53.254 13.155 o
-3 8 5 197.668 247.004 29.708 40.722 o
-3 8 6 725.628 768.929 49.316 12.472 o
-3 8 7 1395.160 1432.120 91.069 4.319 o
-3 8 8 1398.100 1398.150 94.446 4.137 o
-3 8 9 1.949 27.398 16.758 187.654 o
-3 8 10 190.895 207.203 39.183 28.425 o
-3 8 11 676.306 663.680 56.116 11.291 o
-3 9 1 2.254 0.901 11.835 396.192 o
-3 9 2 799.561 782.672 169.103 1.845 o
-3 9 3 1413.160 1411.500 108.754 3.403 o
-3 9 4 1468.550 1817.900 124.899 2.668 o
-3 9 5 38.491 23.562 22.512 97.981 o
-3 9 6 299.219 267.488 30.608 34.467 o
-3 9 7 1536.820 1492.170 76.511 5.036 o
-3 9 8 833.569 745.007 47.031 12.440 o
-3 9 9 60.100 56.050 18.115 123.455 o
-2 -9 1 1479.730 1274.630 138.715 2.360 o
-2 -9 2 296.407 283.534 37.083 27.132 o
-2 -9 4 12.155 5.316 5.644 1057.260 o
-2 -8 1 2877.330 3020.150 71.816 2.945 o
-2 -8 2 342.291 358.024 18.771 46.152 o
-2 -8 3 660.367 681.452 26.671 21.938 o
-2 -8 4 1375.010 1302.050 78.890 5.246 o
-2 -8 5 879.634 851.267 42.566 12.869 o
-2 -8 6 1069.260 924.834 52.309 9.587 o
-2 -7 1 1107.990 1175.600 34.621 11.715 o
-2 -7 2 3305.180 3329.340 73.742 2.513 o
-2 -7 3 87.415 92.609 10.258 183.322 o
-2 -7 4 1529.610 1461.720 45.086 7.672 o
-2 -7 5 319.298 303.769 19.091 49.445 o
-2 -7 6 1500.280 1470.200 85.635 4.510 o
-2 -7 7 74.607 117.220 22.775 78.843 o
-2 -7 8 126.475 152.920 15.241 103.643 o
-2 -6 1 1427.480 1517.620 34.820 8.950 o
-2 -6 2 2918.330 2909.430 54.247 3.338 o
-2 -6 3 18.250 32.218 6.527 605.900 o
-2 -6 4 138.434 148.443 10.086 130.839 o
-2 -6 5 1705.700 1686.930 32.582 7.658 o
-2 -6 6 118.489 130.871 9.284 152.855 o
-2 -6 7 151.574 149.920 8.776 131.323 o
-2 -6 8 161.096 166.787 13.876 98.368 o
-2 -6 9 667.379 632.526 42.924 15.456 o
-2 -6 10 43.597 49.981 9.123 304.965 o
-2 -5 1 8203.600 8276.810 102.562 0.636 o
-2 -5 2 682.526 662.033 19.131 24.979 o
-2 -5 3 4689.740 4676.330 66.592 1.647 o
-2 -5 4 108.842 107.930 8.105 179.180 o
-2 -5 5 3420.300 3403.980 47.313 2.804 o
-2 -5 6 207.962 214.160 10.281 92.931 o
-2 -5 7 1643.570 1635.400 29.796 8.185 o
-2 -5 8 2618.380 2597.280 52.407 3.880 o
-2 -5 9 214.613 231.842 12.668 82.006 o
-2 -5 10 109.037 117.968 10.730 151.625 o
-2 -5 11 731.572 718.049 25.417 20.797 o
-2 -4 1 5080.330 5148.040 78.490 1.393 o
-2 -4 2 1895.640 2025.340 52.199 5.470 o
-2 -4 3 864.457 831.629 25.435 17.795 o
-2 -4 4 4940.610 4799.600 68.732 1.535 o
-2 -4 5 263.964 275.809 11.618 71.564 o
-2 -4 6 2004.160 2013.390 37.279 6.011 o
-2 -4 7 580.046 590.981 18.290 29.362 o
-2 -4 8 5903.470 6015.600 78.974 1.114 o
-2 -4 9 17.177 12.126 5.267 912.658 o
-2 -4 10 329.351 323.604 12.829 57.542 o
-2 -4 11 741.388 826.621 27.580 18.950 o
-2 -4 12 1284.140 1330.010 44.923 8.866 o
-2 -4 13 1.837 6.623 3.742 2633.300 o
-2 -3 1 2838.920 2987.950 48.175 3.507 o
-2 -3 2 5461.080 5430.690 72.683 1.292 o
-2 -3 3 3693.710 3382.370 51.544 2.563 o
-2 -3 4 12022.900 11588.000 150.657 0.324 o
-2 -3 5 531.421 499.758 14.149 35.519 o
-2 -3 6 1035.240 951.675 18.164 16.347 o
-2 -3 7 8140.210 7783.150 81.151 0.693 o
-2 -3 8 757.045 709.684 17.666 23.192 o
-2 -3 9 83.220 80.115 6.823 241.785 o
-2 -3 10 182.293 179.781 8.882 111.147 o
-2 -3 11 3927.240 4182.910 63.166 2.081 o
-2 -3 12 29.623 38.464 7.432 442.848 o
-2 -3 13 5.525 15.526 5.278 1196.770 o
-2 -3 14 174.001 154.194 9.262 117.771 o
-2 -2 1 4434.280 4584.170 67.805 1.745 o
-2 -2 2 1463.800 1358.020 22.387 10.329 o
-2 -2 3 11774.100 10754.600 116.150 0.364 o
-2 -2 4 1171.040 996.687 18.646 14.463 o
-2 -2 5 260.993 229.075 8.385 83.262 o
-2 -2 6 1335.690 1296.880 26.898 10.871 o
-2 -2 7 7422.380 7111.050 75.528 0.813 o
-2 -2 8 1104.890 1059.060 19.098 14.767 o
-2 -2 9 635.894 648.542 14.833 28.291 o
-2 -2 10 2223.740 2299.350 32.767 5.362 o
-2 -2 11 486.233 524.160 14.353 36.980 o
-2 -2 12 169.958 165.307 10.297 112.482 o
-2 -2 13 270.496 271.065 13.373 67.233 o
-2 -2 14 1570.000 1739.900 50.213 6.689 o
-2 -2 15 26.396 25.902 5.806 614.516 o
-2 -1 1 77.335 91.349 5.135 264.911 o
-2 -1 2 6238.120 6006.000 73.163 1.072 o
-2 -1 3 3714.630 3400.050 54.885 2.504 o
-2 -1 4 302.655 295.067 8.860 68.813 o
-2 -1 5 341.580 337.973 9.844 59.399 o
-2 -1 6 6812.430 6367.590 68.162 0.960 o
-2 -1 7 77.583 78.949 5.346 274.081 o
-2 -1 8 80.952 72.052 4.932 279.979 o
-2 -1 9 384.349 387.996 10.737 51.436 o
-2 -1 10 4085.450 4147.650 49.612 2.130 o
-2 -1 11 75.623 82.463 5.746 268.773 o
-2 -1 12 17.087 29.909 4.740 808.955 o
-2 -1 13 1801.820 2013.080 38.619 6.468 o
-2 -1 14 1041.540 1079.180 26.199 14.132 o
-2 -1 15 55.730 57.018 7.778 302.519 o
-2 0 1 34.711 54.893 4.473 500.481 o
-2 0 2 20651.900 19599.600 254.011 0.119 o
-2 0 3 289.374 315.020 9.898 67.721 o
-2 0 4 134.492 139.681 6.980 154.484 o
-2 0 5 4851.380 4836.790 60.854 1.601 o
-2 0 6 8245.220 8003.930 127.806 0.604 o
-2 0 7 402.849 375.612 12.359 48.735 o
-2 0 8 19.641 18.622 3.711 998.112 o
-2 0 9 7005.780 6985.580 78.316 0.867 o
-2 0 10 1640.180 1633.370 26.039 8.458 o
-2 0 11 562.794 562.084 16.013 31.765 o
-2 0 12 825.517 864.167 19.573 19.771 o
-2 0 13 2236.120 2375.290 39.002 5.049 o
-2 0 14 350.470 359.632 15.564 49.903 o
-2 0 15 635.157 703.122 22.293 24.241 o
-2 0 16 483.542 384.593 21.986 34.144 o
-2 1 1 1657.920 1404.040 25.296 8.948 o
-2 1 2 3897.210 3482.430 81.025 2.063 o
-2 1 3 1314.390 1313.200 29.337 10.674 o
-2 1 4 30.500 40.739 4.151 607.453 o
-2 1 5 10564.700 10191.200 154.843 0.393 o
-2 1 6 1192.390 1104.750 24.400 12.945 o
-2 1 7 52.553 48.322 6.276 366.142 o
-2 1 8 1391.760 1344.330 25.898 10.482 o
-2 1 9 6178.160 6048.970 67.725 1.094 o
-2 1 10 190.266 200.334 8.882 104.767 o
-2 1 11 1244.920 1171.060 21.932 12.559 o
-2 1 12 2278.760 2457.570 37.379 4.947 o
-2 1 13 703.749 748.500 19.794 23.196 o
-2 1 14 235.693 254.092 13.308 74.177 o
-2 1 15 5.676 3.470 6.688 1023.300 o
-2 1 16 484.251 508.756 19.425 33.682 o
-2 2 1 17421.500 17024.100 348.640 0.133 o
-2 2 2 1855.430 1849.480 41.324 6.388 o
-2 2 3 96.862 105.902 10.375 168.101 o
-2 2 4 11545.900 11226.900 260.875 0.270 o
-2 2 5 7467.580 7008.260 140.616 0.678 o
-2 2 6 2603.930 2475.300 49.064 4.070 o
-2 2 7 1006.600 933.654 25.483 15.384 o
-2 2 8 7563.360 7390.340 95.643 0.745 o
-2 2 9 1803.240 1776.100 30.888 7.266 o
-2 2 10 659.430 703.649 17.730 25.617 o
-2 2 11 58.657 54.985 6.328 333.383 o
-2 2 12 1475.770 1613.720 31.994 8.776 o
-2 2 13 387.151 367.284 15.438 46.863 o
-2 2 14 75.966 78.939 8.597 227.392 o
-2 2 15 718.107 852.454 27.994 18.962 o
-2 2 16 197.812 227.910 12.290 87.297 o
-2 3 1 7924.110 7323.210 206.452 0.503 o
-2 3 2 2085.870 2025.840 54.590 4.993 o
-2 3 3 525.926 567.303 23.981 27.954 o
-2 3 4 13855.900 12892.200 294.894 0.202 o
-2 3 5 124.679 107.368 10.211 149.265 o
-2 3 6 4092.760 3947.110 91.476 1.777 o
-2 3 7 24.471 31.425 6.793 535.526 o
-2 3 8 3833.320 3594.680 52.500 2.397 o
-2 3 9 102.643 85.710 7.440 203.607 o
-2 3 10 232.743 214.238 11.067 84.633 o
-2 3 11 1243.920 1242.650 28.695 11.438 o
-2 3 12 199.463 204.830 12.423 89.186 o
-2 3 13 756.615 729.676 24.326 20.654 o
-2 3 14 354.952 391.864 16.100 47.552 o
-2 3 15 1222.170 1271.530 35.766 10.523 o
-2 3 16 204.233 203.374 11.870 90.092 o
-2 4 1 843.301 779.441 46.438 12.411 o
-2 4 2 6381.210 6020.640 128.522 0.868 o
-2 4 3 1014.380 1030.260 42.561 11.364 o
-2 4 4 3993.170 3821.260 90.313 1.848 o
-2 4 5 55.682 55.696 9.982 251.768 o
-2 4 6 1407.940 1399.670 34.477 9.354 o
-2 4 7 2449.220 2319.610 45.808 4.502 o
-2 4 8 952.345 873.278 24.779 16.533 o
-2 4 9 384.391 445.473 16.858 42.754 o
-2 4 10 615.864 602.009 19.674 27.342 o
-2 4 11 2165.110 2185.370 44.427 5.158 o
-2 4 12 508.934 498.875 19.260 33.004 o
-2 4 13 1018.080 1026.740 29.079 14.050 o
-2 4 14 1731.450 1795.990 46.938 6.427 o
-2 4 15 655.628 687.842 34.246 18.655 o
-2 4 16 700.319 728.772 33.659 18.003 o
-2 5 1 3527.950 3516.070 63.037 2.480 o
-2 5 2 59.584 37.727 9.317 277.077 o
-2 5 3 4763.990 4715.980 98.379 1.407 o
-2 5 4 370.910 345.384 15.426 48.992 o
-2 5 5 2576.860 2568.500 54.172 3.898 o
-2 5 6 1641.780 1600.470 34.458 7.921 o
-2 5 7 3103.620 3019.190 49.741 3.198 o
-2 5 8 1804.280 1776.910 41.438 6.619 o
-2 5 9 336.645 321.759 18.172 48.804 o
-2 5 10 2330.920 2389.760 62.199 4.052 o
-2 5 11 1159.690 1192.960 32.351 11.665 o
-2 5 12 2710.010 2798.890 63.804 3.369 o
-2 5 13 20.821 24.230 7.937 507.653 o
-2 5 14 830.666 867.755 43.121 13.030 o
-2 5 15 427.787 430.154 20.988 36.533 o
-2 5 16 828.579 642.762 29.227 18.447 o
-2 6 1 996.739 996.993 28.318 14.557 o
-2 6 2 1779.380 1821.970 41.528 6.620 o
-2 6 3 2446.140 2678.140 52.504 4.043 o
-2 6 4 180.876 218.565 14.577 84.196 o
-2 6 5 19.956 22.724 6.893 604.024 o
-2 6 6 2637.560 2608.790 55.410 3.767 o
-2 6 7 1888.930 1938.650 49.259 5.738 o
-2 6 8 2895.360 2979.300 59.157 3.222 o
-2 6 9 771.837 744.233 24.098 20.339 o
-2 6 10 653.050 662.438 27.717 21.783 o
-2 6 11 1077.520 1088.040 39.200 11.413 o
-2 6 12 1787.030 1789.060 50.219 6.080 o
-2 6 13 471.041 375.860 45.687 17.610 o
-2 6 14 102.617 149.249 30.716 46.798 o
-2 6 15 637.347 567.582 31.461 21.142 o
-2 7 1 22.601 16.088 9.875 397.791 o
-2 7 2 3548.070 3593.750 70.841 2.340 o
-2 7 3 2549.490 2623.570 58.442 3.774 o
-2 7 4 2148.910 2207.170 52.590 4.822 o
-2 7 5 178.906 154.888 13.270 97.765 o
-2 7 6 1691.230 1626.320 59.831 5.816 o
-2 7 7 2852.980 2611.280 66.152 3.265 o
-2 7 8 1760.980 1689.390 59.442 5.637 o
-2 7 9 213.277 220.285 17.253 69.546 o
-2 7 10 531.062 558.412 30.850 23.587 o
-2 7 11 1388.250 1318.780 64.762 6.401 o
-2 7 12 72.295 76.200 32.357 46.940 o
-2 7 13 75.659 64.079 14.662 150.267 o
-2 7 14 374.130 373.451 37.017 24.492 o
-2 8 1 945.572 976.258 51.477 10.183 o
-2 8 2 1159.040 1515.900 89.129 4.654 o
-2 8 3 3402.060 3482.910 127.501 1.655 o
-2 8 4 616.683 755.671 49.788 13.109 o
-2 8 5 674.351 681.080 42.043 15.470 o
-2 8 6 586.127 620.436 33.951 20.329 o
-2 8 7 2143.730 2180.180 66.543 4.253 o
-2 8 8 6.867 3.071 17.388 181.289 o
-2 8 9 217.545 218.133 22.034 56.282 o
-2 8 10 674.400 635.638 48.802 13.425 o
-2 8 11 325.100 325.100 31.517 31.465 o
-2 9 1 594.441 603.561 40.591 17.284 o
-2 9 2 899.924 893.589 55.352 9.853 o
-2 9 3 756.542 949.353 63.159 8.881 o
-2 9 4 19.794 9.400 13.514 260.300 o
-2 9 5 272.661 326.189 29.276 36.095 o
-2 9 6 862.941 841.905 57.080 9.795 o
-2 9 7 78.513 95.512 17.411 114.761 o
-2 9 8 404.940 377.578 37.140 23.746 o
-2 9 9 412.686 393.590 35.153 24.913 o
-2 9 10 1111.650 980.374 51.531 9.411 o
-2 9 11 86.205 46.140 13.323 165.503 o
-2 10 2 839.735 549.413 45.681 13.457 o
-2 10 3 192.942 120.830 25.400 54.477 o
-2 10 4 219.880 197.293 32.226 36.755 o
-2 10 5 590.474 442.694 46.403 15.748 o
-1 -9 1 1582.940 1815.670 124.440 2.634 o
-1 -9 2 1249.770 1273.900 73.804 5.898 o
-1 -9 3 2.087 4.397 7.417 929.889 o
-1 -8 1 788.047 851.606 36.418 15.336 o
-1 -8 2 1489.380 1577.600 52.330 6.957 o
-1 -8 3 397.575 391.238 23.443 36.287 o
-1 -8 4 1056.010 1146.500 61.066 7.911 o
-1 -8 5 336.574 327.398 21.622 43.505 o
-1 -7 1 2138.950 2225.340 50.384 4.918 o
-1 -7 2 521.003 534.345 25.336 27.665 o
-1 -7 3 513.186 555.528 24.619 28.073 o
-1 -7 4 892.661 912.607 35.099 14.388 o
-1 -7 5 988.449 1000.610 39.307 12.284 o
-1 -7 6 391.366 418.209 28.950 30.429 o
-1 -7 7 291.554 237.767 23.787 45.888 o
-1 -7 8 855.308 677.100 227.418 1.056 o
-1 -7 9 186.232 155.747 18.640 74.291 o
-1 -6 1 4664.430 4748.960 74.156 1.595 o
-1 -6 2 3218.700 3359.260 74.935 2.537 o
-1 -6 3 1420.990 1479.420 31.368 9.409 o
-1 -6 4 644.038 645.906 20.070 25.761 o
-1 -6 5 191.852 201.040 10.666 97.902 o
-1 -6 6 2084.890 1970.300 42.633 5.620 o
-1 -6 7 1402.120 1338.200 33.607 9.630 o
-1 -6 8 1844.040 1891.010 39.983 6.441 o
-1 -6 9 177.950 174.830 10.776 105.863 o
-1 -6 10 327.465 309.065 31.635 31.521 o
-1 -5 1 39.665 32.954 6.600 444.683 o
-1 -5 2 3173.130 3159.630 55.727 2.971 o
-1 -5 3 4327.720 4448.520 69.277 1.800 o
-1 -5 4 3401.840 3483.470 55.550 2.677 o
-1 -5 5 1484.130 1373.260 30.602 9.432 o
-1 -5 6 418.857 390.733 13.980 45.288 o
-1 -5 7 3952.970 3797.000 70.010 2.091 o
-1 -5 8 1985.260 1976.190 39.889 5.976 o
-1 -5 9 517.889 520.453 18.606 32.687 o
-1 -5 10 167.990 180.434 16.028 85.475 o
-1 -5 11 1290.970 1480.690 48.042 8.177 o
-1 -5 12 110.545 81.204 8.753 183.726 o
-1 -4 1 1790.710 1802.350 38.320 6.818 o
-1 -4 2 862.074 847.091 21.974 18.672 o
-1 -4 3 14982.500 15332.100 253.711 0.188 o
-1 -4 4 138.364 128.558 7.761 150.917 o
-1 -4 5 63.474 63.179 5.919 316.911 o
-1 -4 6 1116.680 1047.130 21.133 14.401 o
-1 -4 7 5608.330 5499.280 64.286 1.282 o
-1 -4 8 300.578 281.000 10.629 67.378 o
-1 -4 9 128.898 122.051 7.688 160.265 o
-1 -4 10 1680.050 1740.040 42.063 6.991 o
-1 -4 11 463.476 497.233 17.283 36.562 o
-1 -4 12 340.473 328.432 24.034 39.903 o
-1 -4 13 134.283 141.735 9.528 138.242 o
-1 -3 1 1533.080 1521.050 38.804 8.128 o
-1 -3 2 5066.670 4888.760 65.193 1.502 o
-1 -3 3 10271.900 10281.100 139.034 0.416 o
-1 -3 4 1100.960 1134.800 25.984 13.364 o
-1 -3 5 49.657 50.326 6.127 377.731 o
-1 -3 6 4845.620 4497.120 54.975 1.693 o
-1 -3 7 611.988 548.407 13.924 31.247 o
-1 -3 8 742.143 768.592 15.974 23.404 o
-1 -3 9 246.694 245.281 9.005 83.296 o
-1 -3 10 2147.910 2154.270 34.169 5.637 o
-1 -3 11 112.560 128.560 8.280 165.824 o
-1 -3 12 46.695 52.681 8.429 313.852 o
-1 -3 13 2143.490 2248.080 91.481 3.262 o
-1 -3 14 260.888 256.299 13.529 69.399 o
-1 -2 1 144.179 168.853 7.102 138.700 o
-1 -2 2 12157.600 11893.000 145.628 0.318 o
-1 -2 3 183.406 150.559 8.236 119.028 o
-1 -2 4 11.805 9.514 4.620 1238.270 o
-1 -2 5 2009.210 1968.220 36.132 6.109 o
-1 -2 6 3244.470 3079.850 54.585 2.965 o
-1 -2 7 196.575 177.158 9.100 105.767 o
-1 -2 8 206.785 197.384 7.574 103.917 o
-1 -2 9 4902.480 4808.540 52.572 1.631 o
-1 -2 10 829.497 824.598 18.175 20.422 o
-1 -2 11 5.137 13.854 3.842 1741.970 o
-1 -2 12 479.819 493.753 16.974 36.110 o
-1 -2 13 2793.040 2916.070 51.804 3.515 o
-1 -2 14 259.160 233.458 15.043 67.778 o
-1 -2 15 69.798 62.193 7.738 266.618 o
-1 -1 1 458.371 364.820 12.394 44.895 o
-1 -1 2 731.346 612.947 15.115 25.902 o
-1 -1 3 2690.450 2651.640 42.962 3.999 o
-1 -1 4 33.588 43.363 4.165 566.181 o
-1 -1 5 14776.400 13530.700 166.613 0.233 o
-1 -1 6 545.485 585.195 13.515 33.366 o
-1 -1 7 168.514 175.068 8.390 119.504 o
-1 -1 8 1389.290 1340.700 29.253 10.161 o
-1 -1 9 6952.840 6769.430 74.958 0.895 o
-1 -1 10 26.651 32.061 4.874 648.677 o
-1 -1 11 38.375 24.388 4.473 592.821 o
-1 -1 12 2304.580 2433.080 39.532 4.853 o
-1 -1 13 406.646 473.353 15.393 41.976 o
-1 -1 14 236.342 268.817 12.063 75.883 o
-1 -1 15 20.864 15.444 4.158 948.885 o
-1 -1 16 594.383 437.575 31.766 22.983 o
-1 0 1 12063.200 11271.200 312.672 0.229 o
-1 0 2 2112.020 1996.450 56.149 4.900 o
-1 0 3 661.305 680.294 29.347 20.737 o
-1 0 4 5446.720 5005.190 65.925 1.377 o
-1 0 5 23029.400 21792.000 241.650 0.100 o
-1 0 6 212.897 216.828 8.505 96.455 o
-1 0 7 862.142 869.250 16.102 19.947 o
-1 0 8 3587.420 3333.990 49.621 2.677 o
-1 0 9 4249.940 4332.990 52.680 1.983 o
-1 0 10 1401.490 1438.810 24.630 10.263 o
-1 0 11 36.852 41.570 4.953 511.329 o
-1 0 12 1535.450 1598.460 29.835 8.722 o
-1 0 13 64.192 73.267 7.572 269.957 o
-1 0 14 768.663 809.833 20.416 21.031 o
-1 0 15 392.445 430.673 16.476 43.124 o
-1 0 16 140.022 125.245 10.864 130.916 o
-1 1 1 14793.400 14257.600 464.714 0.130 o
-1 1 2 2624.700 2668.690 50.463 3.881 o
-1 1 3 6278.220 6268.220 104.332 0.946 o
-1 1 4 21960.200 20206.600 276.227 0.107 o
-1 1 5 6252.350 5818.460 83.296 1.054 o
-1 1 6 342.104 276.058 10.111 62.800 o
-1 1 7 435.171 481.316 15.361 40.075 o
-1 1 8 2698.590 2587.030 41.871 4.057 o
-1 1 9 1157.710 1260.320 22.838 12.797 o
-1 1 10 259.853 289.433 9.872 74.617 o
-1 1 11 2536.540 2686.600 39.943 4.263 o
-1 1 12 363.827 379.969 13.441 50.626 o
-1 1 13 249.334 239.476 11.879 76.636 o
-1 1 14 136.415 145.185 8.750 140.916 o
-1 1 15 1965.310 2181.270 48.191 5.382 o
-1 1 16 243.551 248.763 12.465 75.399 o
-1 2 1 4223.910 3992.390 97.965 1.663 o
-1 2 2 6950.570 7093.060 178.455 0.624 o
-1 2 3 4515.720 4224.300 87.169 1.629 o
-1 2 4 11473.100 10446.500 192.226 0.329 o
-1 2 5 173.138 172.725 8.328 118.310 o
-1 2 6 6217.790 6255.530 87.956 1.009 o
-1 2 7 10104.700 9775.270 119.046 0.452 o
-1 2 8 319.683 280.532 10.882 64.317 o
-1 2 9 715.632 766.024 17.403 23.582 o
-1 2 10 241.580 216.169 8.802 88.261 o
-1 2 11 4106.460 4181.640 65.113 1.980 o
-1 2 12 126.274 134.449 8.544 151.837 o
-1 2 13 573.757 580.139 18.036 29.897 o
-1 2 14 1871.230 2052.760 40.378 6.137 o
-1 2 15 986.233 1039.280 30.960 13.900 o
-1 2 16 599.565 616.916 22.494 26.100 o
-1 2 17 13.565 10.611 3.350 1446.970 o
-1 3 1 2426.140 2251.850 51.329 4.402 o
-1 3 2 2046.450 2067.240 52.678 5.118 o
-1 3 3 13485.500 13186.700 252.878 0.224 o
-1 3 4 1687.980 1696.740 49.742 6.471 o
-1 3 5 457.547 423.251 14.415 41.281 o
-1 3 6 2440.080 2459.260 51.840 4.217 o
-1 3 7 3646.930 3457.080 75.860 2.255 o
-1 3 8 1283.700 1334.620 31.168 10.576 o
-1 3 9 465.264 455.781 14.929 39.460 o
-1 3 10 8505.410 8750.420 99.082 0.599 o
-1 3 11 1034.360 1063.560 26.547 14.212 o
-1 3 12 1697.670 1694.280 38.367 7.272 o
-1 3 13 62.427 55.714 7.857 286.341 o
-1 3 14 3452.020 3516.800 70.050 2.427 o
-1 3 15 468.183 580.544 23.304 30.014 o
-1 3 16 1036.490 1045.290 26.129 14.359 o
-1 3 17 82.173 75.167 6.675 249.803 o
-1 4 1 530.661 480.703 25.585 27.985 o
-1 4 2 5082.980 5426.640 118.801 1.141 o
-1 4 3 1077.820 1066.350 36.945 11.891 o
-1 4 4 257.108 245.837 20.145 55.467 o
-1 4 5 239.283 290.814 13.812 69.406 o
-1 4 6 10939.600 11385.300 206.300 0.321 o
-1 4 7 786.710 728.456 27.257 19.120 o
-1 4 8 2448.460 2384.200 49.848 4.323 o
-1 4 9 2315.760 2332.880 43.740 4.779 o
-1 4 10 2445.300 2363.390 45.153 4.495 o
-1 4 11 2091.420 2137.020 46.499 5.257 o
-1 4 12 1190.930 1199.990 30.382 11.718 o
-1 4 13 1546.690 1585.410 37.145 8.097 o
-1 4 14 172.962 185.275 12.987 96.400 o
-1 4 15 1101.220 1181.370 34.362 11.785 o
-1 4 16 11.505 9.587 5.260 1097.250 o
-1 5 1 37.948 59.969 10.104 278.422 o
-1 5 2 7356.510 7573.230 160.790 0.620 o
-1 5 3 3403.760 3473.480 89.495 2.176 o
-1 5 4 1676.140 1584.190 46.027 6.937 o
-1 5 5 1062.770 984.807 25.956 14.431 o
-1 5 6 2853.430 2688.130 54.149 3.518 o
-1 5 7 5057.780 5053.370 63.987 1.487 o
-1 5 8 2162.260 2023.440 39.644 5.529 o
-1 5 9 2671.560 2639.320 46.691 3.939 o
-1 5 10 92.314 115.068 8.904 183.386 o
-1 5 11 3036.920 3167.230 59.692 3.008 o
-1 5 12 139.409 159.011 11.458 119.860 o
-1 5 13 576.234 575.782 22.687 27.191 o
-1 5 14 209.640 243.401 16.641 70.133 o
-1 5 15 231.914 231.732 16.548 67.975 o
-1 5 16 229.986 248.688 30.946 37.184 o
-1 6 1 3363.760 3277.010 59.944 2.712 o
-1 6 2 2582.580 2664.810 54.087 3.836 o
-1 6 3 3495.620 3523.180 61.754 2.516 o
-1 6 4 508.740 488.669 17.338 34.634 o
-1 6 5 2604.170 2550.580 46.567 4.089 o
-1 6 6 1055.400 1033.790 24.707 14.491 o
-1 6 7 2903.600 2768.210 44.936 3.624 o
-1 6 8 3.993 6.066 5.333 1467.020 o
-1 6 9 878.139 866.020 28.555 16.526 o
-1 6 10 746.218 785.428 30.601 18.121 o
-1 6 11 269.825 279.285 19.428 54.165 o
-1 6 12 340.571 357.157 18.495 46.696 o
-1 6 13 332.210 301.879 21.686 44.503 o
-1 6 14 984.943 977.596 43.794 11.463 o
-1 6 15 30.196 36.049 9.934 333.096 o
-1 6 16 502.271 275.986 25.072 32.705 o
-1 7 1 3972.570 3871.070 74.404 2.018 o
-1 7 2 1380.150 1420.260 44.066 8.394 o
-1 7 3 3953.070 3980.530 83.443 1.907 o
-1 7 4 198.620 173.297 13.199 90.420 o
-1 7 5 1022.860 941.529 37.060 12.717 o
-1 7 6 2180.700 2075.560 50.773 4.959 o
-1 7 7 509.513 507.034 26.365 27.663 o
-1 7 8 1108.090 1048.130 41.702 10.907 o
-1 7 9 336.383 332.592 20.257 45.322 o
-1 7 10 2328.780 2306.690 58.715 4.235 o
-1 7 11 105.919 111.232 13.802 129.345 o
-1 7 12 1055.220 1024.200 67.310 7.276 o
-1 7 13 1220.180 1201.450 55.609 8.008 o
-1 7 15 48.941 28.025 9.582 305.107 o
-1 8 1 1275.270 1429.270 61.701 6.835 o
-1 8 2 663.377 788.225 36.691 16.952 o
-1 8 3 22.265 30.426 9.641 382.407 o
-1 8 4 148.401 185.607 17.935 81.096 o
-1 8 5 521.059 600.861 32.697 22.285 o
-1 8 6 1106.490 1140.890 55.462 8.525 o
-1 8 7 1031.760 935.734 46.294 10.823 o
-1 8 8 703.324 672.246 33.017 18.599 o
-1 8 9 814.167 828.871 40.265 14.083 o
-1 8 10 616.073 634.970 100.582 4.815 o
-1 8 11 1038.360 931.594 84.601 5.542 o
-1 8 12 661.976 535.699 26.634 23.405 o
-1 8 13 1453.860 1055.440 67.077 6.329 o
-1 9 1 589.533 597.302 52.734 12.920 o
-1 9 2 547.994 594.612 53.615 12.920 o
-1 9 3 646.647 691.807 56.400 11.299 o
-1 9 4 443.299 495.413 39.606 20.475 o
-1 9 5 1465.720 1491.160 87.555 4.421 o
-1 9 6 247.320 250.816 26.448 43.584 o
-1 9 7 759.398 775.225 183.378 1.592 o
-1 9 8 1017.230 970.774 55.475 9.182 o
-1 9 9 1920.350 1880.610 93.428 3.511 o
-1 9 10 98.533 95.946 18.344 101.375 o
-1 9 11 158.174 117.811 24.087 61.907 o
-1 10 1 809.653 675.552 42.268 14.197 o
-1 10 2 19.695 19.640 10.912 349.489 o
-1 10 3 548.135 587.930 40.608 17.918 o
-1 10 4 646.713 647.075 63.139 9.830 o
-1 10 5 1688.390 1819.150 112.101 2.984 o
-1 10 6 21.250 8.166 10.326 394.826 o
-1 10 7 230.527 148.341 44.401 23.187 o
-1 10 8 858.009 590.959 50.669 11.853 o
0 -9 1 791.479 781.321 76.626 6.970 o
0 -9 2 323.485 294.954 37.673 25.843 o
0 -9 3 1029.550 1051.570 69.505 7.036 o
0 -8 1 106.659 124.102 14.361 121.792 o
0 -8 2 503.125 515.781 26.708 27.477 o
0 -8 3 402.494 442.464 27.388 31.126 o
0 -8 4 678.256 633.423 62.548 9.861 o
0 -8 5 284.908 274.936 36.164 28.432 o
0 -8 7 194.731 107.179 15.293 90.887 o
0 -7 1 67.912 74.883 10.636 208.071 o
0 -7 2 1334.570 1422.760 41.090 8.909 o
0 -7 3 785.390 879.949 89.636 5.458 o
0 -7 4 2051.850 2023.060 51.906 5.186 o
0 -7 5 979.642 952.316 40.972 12.164 o
0 -7 6 818.966 800.262 28.601 17.691 o
0 -7 7 1091.060 1056.230 62.548 7.745 o
0 -7 8 814.373 794.158 58.873 9.748 o
0 -7 9 254.913 248.880 25.794 44.340 o
0 -6 1 2504.640 2538.940 43.799 4.314 o
0 -6 2 1175.480 1189.840 33.949 11.324 o
0 -6 3 5492.660 5640.130 90.308 1.185 o
0 -6 4 229.942 253.679 14.447 72.203 o
0 -6 5 1011.800 938.769 27.945 14.778 o
0 -6 6 1040.600 1024.750 31.464 13.382 o
0 -6 7 2156.030 2149.310 50.575 4.946 o
0 -6 8 17.185 8.719 5.918 848.611 o
0 -6 9 112.390 108.271 13.144 132.238 o
0 -6 10 859.662 812.641 38.885 14.140 o
0 -6 11 159.506 100.353 14.636 104.962 o
0 -5 1 3492.430 3536.070 67.420 2.435 o
0 -5 2 4531.070 4873.310 79.582 1.580 o
0 -5 3 7565.360 7656.930 128.522 0.668 o
0 -5 4 817.010 859.687 22.476 19.139 o
0 -5 5 308.399 274.053 12.505 63.522 o
0 -5 6 4212.650 4114.790 63.851 1.959 o
0 -5 7 279.590 285.737 14.068 63.567 o
0 -5 8 175.054 182.156 12.015 100.367 o
0 -5 9 286.809 295.233 19.127 52.475 o
0 -5 10 1880.230 1913.940 55.724 5.412 o
0 -5 11 120.100 114.050 11.424 140.370 o
0 -5 12 225.989 213.483 18.342 65.172 o
0 -4 1 120.134 150.116 12.537 123.315 o
0 -4 2 4683.130 4577.940 135.882 1.182 o
0 -4 3 83.002 46.945 8.215 247.667 o
0 -4 4 217.432 205.065 13.075 82.960 o
0 -4 5 121.476 95.325 7.913 175.227 o
0 -4 6 2227.360 2169.200 47.763 4.922 o
0 -4 7 1217.580 1165.900 26.942 12.140 o
0 -4 8 391.492 373.345 15.058 46.756 o
0 -4 9 1009.730 960.374 24.732 15.358 o
0 -4 10 365.714 345.946 14.809 50.202 o
0 -4 11 361.972 375.434 18.745 44.241 o
0 -4 12 800.794 823.976 33.423 16.262 o
0 -4 13 1288.320 1386.470 63.265 6.698 o
0 -3 1 2814.290 2611.170 49.860 3.705 o
0 -3 2 5506.430 5184.840 74.979 1.300 o
0 -3 3 860.433 763.708 16.098 20.946 o
0 -3 4 77.020 66.241 5.172 291.962 o
0 -3 5 7415.210 7301.410 98.001 0.761 o
0 -3 6 440.378 399.220 13.153 44.276 o
0 -3 7 162.288 137.690 7.226 136.708 o
0 -3 8 2423.090 2298.780 34.222 4.924 o
0 -3 9 3363.720 3275.140 45.418 2.926 o
0 -3 10 159.976 145.412 8.190 131.224 o
0 -3 11 56.574 49.109 6.579 342.526 o
0 -3 12 2159.570 2189.200 43.653 5.197 o
0 -3 13 869.647 916.142 36.445 14.238 o
0 -3 14 56.910 60.574 7.277 307.290 o
0 -2 1 11584.100 11247.500 164.298 0.334 o
0 -2 2 84.835 104.532 5.981 230.801 o
0 -2 3 2057.850 2082.570 30.251 6.093 o
0 -2 4 4602.280 4379.050 57.174 1.794 o
0 -2 5 12310.100 12208.200 150.908 0.307 o
0 -2 6 487.543 458.294 14.569 38.458 o
0 -2 7 25.854 31.244 5.407 622.818 o
0 -2 8 7906.390 7608.390 74.956 0.733 o
0 -2 9 1561.020 1543.140 24.413 9.143 o
0 -2 10 238.858 233.451 8.984 86.427 o
0 -2 11 149.772 160.067 8.163 132.828 o
0 -2 12 2545.160 2522.640 39.434 4.386 o
0 -2 13 36.655 39.306 6.996 425.968 o
0 -2 14 151.433 147.855 9.715 126.828 o
0 -2 15 471.904 432.415 29.983 27.023 o
0 -1 1 5505.370 5067.090 79.380 1.294 o
0 -1 2 2.021 2.990 3.285 3560.750 o
0 -1 3 3508.680 3649.690 54.798 2.558 o
0 -1 4 16771.900 15815.000 182.751 0.182 o
0 -1 5 5629.690 5610.990 72.985 1.232 o
0 -1 6 11.383 6.762 4.163 1449.080 o
0 -1 7 107.552 143.890 8.792 159.753 o
0 -1 8 3724.940 3689.430 57.879 2.374 o
0 -1 9 901.795 900.498 19.859 18.193 o
0 -1 10 515.609 527.634 14.576 35.337 o
0 -1 11 1063.630 1077.330 22.659 14.544 o
0 -1 12 316.345 332.090 12.628 58.821 o
0 -1 13 25.514 27.508 5.468 641.728 o
0 -1 14 10.594 10.672 6.394 882.347 o
0 -1 15 900.120 974.708 29.963 15.293 o
0 -1 16 40.532 50.472 12.601 220.912 o
0 0 1 318.641 315.007 10.784 62.346 o
0 0 2 8.302 6.051 2.618 2402.270 o
0 0 3 1707.300 1476.860 23.370 8.677 o
0 0 4 66462.400 63464.200 616.873 0.013 o
0 0 5 8015.450 8202.290 84.323 0.681 o
0 0 6 90.995 104.232 6.026 221.695 o
0 0 7 11558.400 11868.300 133.840 0.343 o
0 0 8 1065.030 1149.050 28.467 13.197 o
0 0 9 4108.810 4367.740 55.094 2.021 o
0 0 10 986.865 988.971 19.840 16.423 o
0 0 11 6534.620 6793.310 78.236 0.946 o
0 0 12 192.859 174.807 9.060 107.585 o
0 0 13 257.620 246.755 11.148 76.178 o
0 0 14 1661.300 1730.880 36.106 7.494 o
0 0 15 2019.600 2163.990 57.301 4.859 o
0 0 16 534.701 496.986 23.957 28.760 o
0 1 0 8159.420 8347.730 175.126 0.520 o
0 1 1 312.501 344.326 10.673 61.436 o
0 1 2 2171.960 1997.340 51.746 5.000 o
0 1 3 9670.030 9086.250 142.445 0.467 o
0 1 4 5971.500 6442.270 72.293 1.083 o
0 1 5 1304.960 1201.420 19.258 12.251 o
0 1 6 6977.160 7161.510 82.617 0.850 o
0 1 7 8229.190 8368.690 100.675 0.633 o
0 1 8 5249.670 5713.570 71.637 1.313 o
0 1 9 224.335 232.976 9.776 87.922 o
0 1 10 9821.010 9949.870 100.634 0.477 o
0 1 11 1460.640 1529.400 26.550 9.518 o
0 1 12 23.308 24.140 5.203 711.531 o
0 1 13 494.388 522.468 15.836 35.595 o
0 1 14 3655.580 3797.060 63.893 2.312 o
0 1 15 404.065 434.808 16.847 41.875 o
0 1 16 295.632 325.287 15.980 55.888 o
0 1 17 682.079 517.567 24.795 24.096 o
0 2 0 1306.180 1270.280 44.285 8.979 o
0 2 1 3230.560 3376.320 86.885 2.326 o
0 2 2 7632.370 7487.400 135.222 0.656 o
0 2 3 678.555 614.079 15.994 27.039 o
0 2 4 3414.770 3449.310 47.259 2.792 o
0 2 5 172.727 180.215 6.343 124.359 o
0 2 6 14351.100 13731.700 149.535 0.244 o
0 2 7 214.465 188.169 8.071 101.498 o
0 2 8 3881.620 4222.060 79.662 1.927 o
0 2 9 1424.700 1372.110 26.246 10.171 o
0 2 10 6765.410 6767.710 75.423 0.921 o
0 2 11 702.582 735.828 17.468 24.223 o
0 2 12 1761.760 1836.600 34.043 7.117 o
0 2 13 1040.380 1086.730 25.365 14.258 o
0 2 14 814.901 868.352 26.277 17.988 o
0 2 15 791.056 867.084 24.972 18.741 o
0 2 16 101.750 95.475 8.794 184.894 o
0 2 17 369.350 354.747 16.103 47.868 o
0 3 0 25.881 26.919 6.675 550.348 o
0 3 1 270.359 338.099 13.278 62.904 o
0 3 2 23476.700 24448.300 350.252 0.083 o
0 3 3 102.209 128.903 9.764 161.035 o
0 3 4 1772.290 1783.780 37.208 6.971 o
0 3 5 5274.690 5384.220 83.564 1.291 o
0 3 6 11350.500 11354.600 148.963 0.349 o
0 3 7 2502.470 2453.090 48.557 4.238 o
0 3 8 95.735 81.016 8.441 202.827 o
0 3 9 3726.210 3822.150 65.975 2.243 o
0 3 10 718.414 739.637 20.489 22.715 o
0 3 11 5636.150 5851.060 87.294 1.149 o
0 3 12 869.224 941.423 22.217 17.806 o
0 3 13 694.125 753.426 21.877 22.555 o
0 3 14 108.134 92.279 8.126 187.071 o
0 3 15 964.198 971.454 28.820 14.907 o
0 3 16 963.497 975.785 29.674 14.701 o
0 3 17 222.074 216.807 13.186 80.471 o
0 4 0 347.629 304.068 16.829 50.665 o
0 4 1 3032.280 2897.580 80.271 2.700 o
0 4 2 7788.640 8052.450 136.386 0.620 o
0 4 3 654.945 556.861 42.022 16.294 o
0 4 4 0.667 7.762 4.215 2325.720 o
0 4 5 2778.130 2442.620 46.004 3.946 o
0 4 6 1612.660 1440.260 34.321 8.362 o
0 4 7 6069.100 5872.480 100.573 1.020 o
0 4 8 871.593 903.374 25.213 17.270 o
0 4 9 1586.830 1515.000 29.124 8.735 o
0 4 10 90.463 110.026 8.074 196.737 o
0 4 11 2259.240 2275.850 46.293 4.832 o
0 4 12 805.382 802.245 27.639 18.170 o
0 4 13 592.946 573.663 20.925 27.754 o
0 4 14 235.750 243.413 16.151 67.641 o
0 4 15 231.795 249.171 16.478 66.944 o
0 4 16 154.557 165.282 10.772 116.131 o
0 4 17 423.426 290.507 20.069 41.413 o
0 5 0 212.655 226.987 15.313 74.871 o
0 5 1 7168.560 7265.430 119.675 0.741 o
0 5 2 5918.080 6375.230 145.563 0.841 o
0 5 3 9784.950 10112.000 242.940 0.337 o
0 5 4 1660.710 1613.610 39.261 7.463 o
0 5 5 598.911 629.086 25.284 24.474 o
0 5 6 3826.530 3815.200 62.867 2.227 o
0 5 7 4323.920 4226.030 64.689 1.882 o
0 5 8 2306.770 2185.730 38.743 5.104 o
0 5 9 679.244 678.911 22.322 23.497 o
0 5 10 1048.360 1073.170 29.760 13.434 o
0 5 11 2.844 -1.155 6.357 1278.430 o
0 5 12 777.682 782.910 26.036 19.256 o
0 5 13 1721.940 1733.420 43.170 6.799 o
0 5 14 614.638 627.366 30.206 21.634 o
0 5 15 520.551 517.451 31.594 23.777 o
0 5 16 429.820 412.326 19.865 37.983 o
0 6 0 1430.870 1415.770 32.916 9.364 o
0 6 1 1903.090 1746.200 38.400 6.570 o
0 6 2 2257.230 2306.430 65.431 4.075 o
0 6 3 543.527 584.431 24.233 27.049 o
0 6 4 3914.150 4035.620 85.846 1.886 o
0 6 5 94.910 96.626 8.244 197.309 o
0 6 6 2459.410 2399.890 44.858 4.455 o
0 6 7 1181.000 1127.030 25.877 12.733 o
0 6 8 2452.390 2266.100 44.060 4.596 o
0 6 9 1079.440 996.783 29.903 13.469 o
0 6 10 380.452 386.258 18.029 43.568 o
0 6 11 2106.970 2021.750 54.396 4.969 o
0 6 12 1060.960 1062.890 34.263 12.524 o
0 6 13 3017.270 3012.140 73.097 2.818 o
0 6 14 21.411 29.475 8.592 445.471 o
0 6 15 402.810 411.904 68.915 9.837 o
0 6 16 721.145 539.306 41.349 15.959 o
0 7 0 1192.910 1229.430 36.441 10.720 o
0 7 1 888.267 898.649 33.761 14.842 o
0 7 2 979.067 1183.270 42.453 11.135 o
0 7 3 1838.130 1851.720 52.367 5.759 o
0 7 4 773.018 863.467 30.244 17.360 o
0 7 5 1604.430 1652.170 44.332 7.185 o
0 7 6 328.092 385.003 23.168 40.203 o
0 7 7 3402.740 3178.580 79.473 2.407 o
0 7 8 1486.830 1483.220 47.645 7.538 o
0 7 9 2641.490 2579.600 72.578 3.300 o
0 7 10 8.020 12.044 8.887 571.108 o
0 7 11 793.396 797.614 40.789 14.248 o
0 7 12 1561.300 1553.310 102.649 3.523 o
0 7 13 1840.430 1756.170 84.197 4.051 o
0 7 14 161.012 145.915 42.103 26.641 o
0 8 0 80.638 106.572 15.281 129.741 o
0 8 1 2661.310 2852.740 103.315 2.435 o
0 8 2 22.479 31.345 10.276 350.297 o
0 8 3 1316.660 1538.900 54.147 7.340 o
0 8 4 211.068 246.708 22.860 53.601 o
0 8 5 3608.200 3956.390 101.876 1.831 o
0 8 6 184.794 192.384 25.265 52.464 o
0 8 7 567.387 531.429 30.920 23.078 o
0 8 8 1863.750 1921.920 69.274 4.681 o
0 8 9 1056.170 1009.310 45.216 10.686 o
0 8 10 43.111 48.495 13.409 202.521 o
0 8 11 113.388 95.824 31.504 45.928 o
0 8 12 1430.800 1235.010 119.288 3.011 o
0 8 13 30.162 33.079 11.158 292.945 o
0 9 0 1188.780 1182.380 96.382 4.323 o
0 9 1 2285.540 2560.020 280.843 0.640 o
0 9 2 677.555 744.633 46.240 13.784 o
0 9 3 1676.800 1983.710 104.114 3.233 o
0 9 4 2708.420 2922.930 93.968 2.596 o
0 9 5 1169.150 1276.820 64.635 6.983 o
0 9 6 133.475 127.579 21.529 73.885 o
0 9 7 1052.020 943.663 52.097 9.658 o
0 9 8 2981.810 3057.270 150.511 1.522 o
0 9 9 27.217 23.754 9.447 385.609 o
0 9 10 17.268 14.785 11.465 338.999 o
0 9 11 1075.250 1032.010 78.563 5.976 o
0 9 12 657.397 445.057 41.349 17.148 o
0 10 0 1301.040 1050.720 44.434 9.472 o
0 10 1 235.924 266.735 29.765 38.310 o
0 10 2 79.759 88.217 15.108 136.330 o
0 10 3 1008.540 1162.980 58.654 8.373 o
0 10 4 1190.940 1394.110 99.434 4.042 o
0 10 5 16.128 22.202 17.524 164.083 o
0 10 6 24.981 28.419 17.590 154.985 o
0 10 7 863.588 672.252 83.682 6.096 o
0 10 8 192.151 242.317 33.538 35.014 o
0 10 9 18.911 11.551 9.517 447.545 o
1 -10 0 262.890 174.846 21.462 55.366 o
1 -9 0 221.686 277.707 34.706 31.836 o
1 -9 1 63.356 60.711 24.219 78.252 o
1 -9 2 552.968 543.178 53.819 12.987 o
1 -9 3 412.652 454.771 43.318 19.074 o
1 -9 4 271.439 204.775 24.022 48.000 o
1 -8 0 26.181 27.009 13.950 224.476 o
1 -8 1 1561.730 1607.710 91.323 4.049 o
1 -8 2 517.415 610.795 35.932 20.486 o
1 -8 3 1518.240 1648.850 70.071 5.390 o
1 -8 4 92.004 69.571 27.238 60.923 o
1 -8 5 1244.730 1344.690 94.446 4.311 o
1 -8 6 595.944 670.047 53.819 12.333 o
1 -8 7 659.732 519.334 25.903 24.012 o
1 -7 0 34.133 64.232 11.932 235.185 o
1 -7 1 3127.520 3274.790 80.640 2.517 o
1 -7 2 2067.680 2131.900 79.759 3.818 o
1 -7 3 2608.350 2839.470 78.785 3.054 o
1 -7 4 21.107 19.094 10.456 367.519 o
1 -7 5 866.861 871.052 42.149 12.994 o
1 -7 6 1850.420 1794.860 49.468 5.973 o
1 -7 7 239.053 265.050 24.210 47.796 o
1 -7 8 13.652 8.029 6.538 825.320 o
1 -7 9 359.499 311.431 20.333 44.376 o
1 -6 0 1374.330 1293.310 27.665 10.558 o
1 -6 1 721.360 727.349 28.880 19.551 o
1 -6 2 3009.160 3098.880 62.275 3.009 o
1 -6 3 501.043 487.651 20.180 32.850 o
1 -6 4 728.232 684.374 27.537 20.318 o
1 -6 5 404.739 432.880 22.777 35.732 o
1 -6 6 1011.990 986.606 31.469 13.799 o
1 -6 7 330.760 333.195 23.620 40.862 o
1 -6 8 273.854 267.858 17.159 58.983 o
1 -6 9 957.267 951.334 65.812 7.836 o
1 -6 10 95.048 118.694 18.377 98.929 o
1 -6 11 463.207 264.566 22.643 37.049 o
1 -5 0 359.282 298.503 14.229 53.715 o
1 -5 1 2985.360 2912.640 47.275 3.411 o
1 -5 2 2019.600 1986.600 39.501 5.900 o
1 -5 3 929.110 930.089 23.215 16.833 o
1 -5 4 208.253 221.521 13.288 82.487 o
1 -5 5 3256.020 3225.660 81.302 2.446 o
1 -5 6 144.269 154.793 10.804 122.426 o
1 -5 7 1598.700 1589.920 39.516 7.698 o
1 -5 8 582.261 624.938 24.034 25.605 o
1 -5 9 1914.340 1887.540 57.746 5.259 o
1 -5 10 37.405 30.642 7.519 419.402 o
1 -5 11 482.290 500.538 28.035 27.302 o
1 -5 12 985.240 899.921 38.467 12.858 o
1 -4 0 284.706 303.917 13.415 63.001 o
1 -4 1 6447.260 5930.590 95.525 0.975 o
1 -4 2 193.408 173.323 10.751 101.255 o
1 -4 3 964.317 925.134 26.424 15.699 o
1 -4 4 880.894 838.697 33.991 15.155 o
1 -4 5 3964.460 3830.730 69.372 2.084 o
1 -4 6 57.984 56.002 6.508 329.435 o
1 -4 7 696.020 642.421 18.410 25.184 o
1 -4 8 4215.080 4100.030 64.232 1.958 o
1 -4 9 326.716 320.852 15.662 53.590 o
1 -4 10 233.773 218.780 13.676 76.638 o
1 -4 11 214.596 197.322 12.216 87.192 o
1 -4 12 2304.870 2413.300 91.540 3.079 o
1 -4 13 15.993 12.406 5.428 910.527 o
1 -3 0 3293.770 2921.780 67.493 2.761 o
1 -3 1 20056.000 20000.100 300.539 0.115 o
1 -3 2 3449.330 3466.490 52.423 2.692 o
1 -3 3 4440.280 4412.870 65.930 1.789 o
1 -3 4 8091.340 7681.510 116.314 0.647 o
1 -3 5 4273.230 4298.550 66.773 1.871 o
1 -3 6 23.442 25.104 5.142 708.904 o
1 -3 7 3083.110 2936.550 43.156 3.373 o
1 -3 8 6362.160 6357.100 79.006 1.004 o
1 -3 9 24.822 27.292 5.353 659.947 o
1 -3 10 492.387 448.967 16.460 36.987 o
1 -3 11 1754.990 1729.860 33.148 7.372 o
1 -3 12 927.846 941.484 24.917 16.381 o
1 -3 13 1.527 -0.010 6.169 1415.550 o
1 -3 14 55.614 63.703 8.933 267.956 o
1 -2 0 32663.700 31378.600 925.292 0.031 o
1 -2 1 107.026 136.478 14.515 117.993 o
1 -2 2 16.484 27.865 4.742 837.903 o
1 -2 3 10092.200 9882.920 131.594 0.439 o
1 -2 4 12371.700 12228.500 150.043 0.306 o
1 -2 5 40.039 39.475 4.456 517.791 o
1 -2 6 275.573 306.183 10.561 69.362 o
1 -2 7 5670.390 5521.550 74.178 1.228 o
1 -2 8 1274.680 1338.620 24.814 11.370 o
1 -2 9 19.449 29.375 5.777 674.422 o
1 -2 10 121.794 116.781 8.116 164.498 o
1 -2 11 2026.110 1962.470 34.517 6.148 o
1 -2 12 77.981 78.471 7.452 242.420 o
1 -2 13 132.103 136.351 8.816 145.686 o
1 -2 14 1017.380 1024.280 53.716 9.362 o
1 -2 15 494.926 510.712 26.954 27.600 o
1 -1 0 31552.300 29979.200 847.247 0.035 o
1 -1 1 5343.120 5094.300 158.183 0.926 o
1 -1 2 609.504 723.194 18.091 26.554 o
1 -1 3 11204.300 10613.800 128.355 0.380 o
1 -1 4 220.592 183.127 6.468 104.670 o
1 -1 5 1098.780 1074.950 16.904 15.055 o
1 -1 6 4575.890 4667.250 53.657 1.770 o
1 -1 7 4520.650 4554.850 60.437 1.770 o
1 -1 8 1242.950 1300.700 26.199 11.560 o
1 -1 9 250.641 275.295 10.896 75.418 o
1 -1 10 6394.460 6653.650 79.398 0.975 o
1 -1 11 1136.670 1164.480 24.955 13.084 o
1 -1 12 14.986 19.662 5.518 844.058 o
1 -1 13 626.749 613.334 20.038 26.685 o
1 -1 14 2489.650 2629.240 58.774 3.830 o
1 -1 15 473.328 502.906 19.354 34.319 o
1 -1 16 180.777 161.127 11.071 105.942 o
1 0 0 3745.870 3761.510 103.527 1.798 o
1 0 1 297.224 312.606 8.662 68.590 o
1 0 2 17423.300 17256.800 314.005 0.140 o
1 0 3 1226.500 1097.580 20.438 13.213 o
1 0 4 395.972 445.093 9.849 48.767 o
1 0 5 324.083 339.822 8.251 63.365 o
1 0 6 18082.000 17979.900 188.770 0.155 o
1 0 7 590.818 587.896 14.056 31.237 o
1 0 8 89.522 115.865 7.712 198.473 o
1 0 9 1512.480 1510.140 28.626 9.132 o
1 0 10 6804.480 7001.390 72.846 0.904 o
1 0 11 261.491 287.566 11.192 71.885 o
1 0 12 504.051 475.512 15.783 36.285 o
1 0 13 3129.650 3177.130 50.683 3.087 o
1 0 14 899.614 928.788 21.799 17.568 o
1 0 15 277.428 300.063 17.971 55.303 o
1 0 16 36.597 38.051 6.473 453.347 o
1 1 0 215.492 170.210 5.755 110.493 o
1 1 1 394.114 444.432 11.206 47.778 o
1 1 2 6151.190 6223.010 93.091 1.006 o
1 1 3 1789.010 2020.230 46.105 6.056 o
1 1 4 1560.090 1574.490 22.097 9.229 o
1 1 5 11496.400 11388.300 120.704 0.360 o
1 1 6 3329.850 3006.240 39.844 3.150 o
1 1 7 279.172 270.106 9.252 74.068 o
1 1 8 464.604 433.866 11.740 42.667 o
1 1 9 6664.360 6812.490 76.667 0.929 o
1 1 10 1208.530 1174.240 20.671 13.005 o
1 1 11 997.837 1013.580 21.861 15.757 o
1 1 12 19.015 26.725 5.399 734.130 o
1 1 13 867.601 951.502 23.388 17.467 o
1 1 14 331.954 312.390 12.604 58.211 o
1 1 15 266.682 260.361 12.056 71.446 o
1 1 16 498.198 503.094 24.261 29.589 o
1 1 17 51.345 51.112 5.810 379.116 o
1 2 0 380.575 401.916 13.644 48.096 o
1 2 1 12789.000 13205.700 170.743 0.274 o
1 2 2 16631.500 16901.400 179.633 0.178 o
1 2 3 44.524 50.105 3.796 476.131 o
1 2 4 1309.790 1425.670 20.076 11.305 o
1 2 5 17956.200 17439.800 180.889 0.160 o
1 2 6 4758.040 4569.430 54.835 1.713 o
1 2 7 4011.380 3893.510 49.263 2.239 o
1 2 8 558.316 557.944 14.488 32.875 o
1 2 9 2295.970 2181.300 31.574 5.373 o
1 2 10 1667.360 1690.940 25.255 8.269 o
1 2 11 1891.660 1934.500 32.395 6.658 o
1 2 12 2283.170 2399.850 37.409 4.992 o
1 2 13 52.788 54.947 6.871 337.314 o
1 2 14 983.093 1030.770 28.911 14.400 o
1 2 15 25.633 26.042 7.103 525.749 o
1 2 16 873.349 934.628 35.224 14.434 o
1 2 17 163.165 166.956 11.004 111.386 o
1 3 0 46.940 60.414 5.980 373.204 o
1 3 1 14032.800 14236.000 170.609 0.238 o
1 3 2 7724.880 7984.060 108.129 0.679 o
1 3 3 5447.450 5424.420 71.317 1.302 o
1 3 4 1222.210 1232.180 19.703 12.754 o
1 3 5 2573.450 2461.390 53.966 3.975 o
1 3 6 3483.040 3514.820 48.921 2.696 o
1 3 7 3870.150 3784.910 57.663 2.267 o
1 3 8 4044.230 4142.920 69.740 1.974 o
1 3 9 216.706 221.801 9.912 90.793 o
1 3 10 491.537 508.978 14.525 36.975 o
1 3 11 27.170 27.114 5.682 610.157 o
1 3 12 1946.610 1982.630 33.698 6.371 o
1 3 13 547.936 576.924 16.769 31.612 o
1 3 14 157.208 150.629 9.972 122.206 o
1 3 15 1201.330 1349.520 34.010 10.657 o
1 3 16 308.639 357.872 16.658 51.979 o
1 3 17 1069.810 1040.530 28.499 13.624 o
1 4 0 5183.590 5098.460 77.360 1.379 o
1 4 1 2915.970 2786.340 53.877 3.409 o
1 4 2 7046.700 7242.970 97.198 0.806 o
1 4 3 180.326 162.948 8.165 118.015 o
1 4 4 11329.300 11322.500 152.822 0.348 o
1 4 5 456.124 514.621 15.093 38.231 o
1 4 6 5486.760 5583.490 74.422 1.261 o
1 4 7 1024.580 987.792 30.823 13.815 o
1 4 8 5175.030 5040.770 71.894 1.416 o
1 4 9 860.966 890.287 19.998 18.864 o
1 4 10 47.903 49.610 5.752 398.057 o
1 4 11 1992.300 1977.810 37.730 6.063 o
1 4 12 1270.830 1244.420 29.937 11.091 o
1 4 13 3327.700 3465.060 84.755 2.287 o
1 4 14 83.869 112.640 10.599 173.597 o
1 4 15 1136.250 1236.410 41.318 10.287 o
1 4 16 624.459 652.384 41.815 16.195 o
1 4 17 1099.480 1086.050 42.989 10.627 o
1 5 0 2883.280 3008.780 73.255 2.913 o
1 5 1 252.175 223.187 13.178 74.331 o
1 5 2 8498.810 8716.080 178.622 0.487 o
1 5 3 2768.930 3063.370 62.976 3.213 o
1 5 4 3204.050 3395.440 165.268 1.291 o
1 5 5 79.029 83.590 7.914 229.918 o
1 5 6 1925.330 1886.660 35.945 6.448 o
1 5 7 4263.860 4179.880 61.283 1.944 o
1 5 8 2166.520 2169.090 42.281 5.259 o
1 5 9 3328.560 3310.610 51.466 2.854 o
1 5 10 781.090 767.730 21.590 20.813 o
1 5 11 1011.910 996.580 28.359 14.400 o
1 5 12 1779.580 1816.070 40.475 6.694 o
1 5 13 3227.660 3171.170 62.831 2.801 o
1 5 14 896.350 909.745 35.823 14.184 o
1 5 15 120.063 131.029 17.815 93.995 o
1 5 16 1141.530 1252.040 62.026 7.387 o
1 5 17 225.959 158.766 18.377 68.823 o
1 6 0 84.859 93.072 9.335 197.123 o
1 6 1 2051.080 2013.560 39.809 5.780 o
1 6 2 210.638 290.683 14.042 73.406 o
1 6 3 6458.260 6252.500 104.665 0.921 o
1 6 4 1354.540 1365.350 46.276 8.354 o
1 6 5 2145.680 2090.900 46.849 5.181 o
1 6 6 1046.540 1055.860 27.849 13.888 o
1 6 7 2179.600 1998.170 42.035 5.416 o
1 6 8 5195.090 5155.600 75.394 1.378 o
1 6 9 1369.150 1281.120 31.312 10.217 o
1 6 10 1631.570 1573.500 37.326 7.786 o
1 6 11 287.346 278.680 16.872 57.515 o
1 6 12 3572.970 3538.400 93.549 2.030 o
1 6 13 192.635 174.834 15.787 81.854 o
1 6 14 572.059 518.919 24.475 27.015 o
1 6 15 218.114 240.453 19.000 62.707 o
1 6 16 639.502 580.786 46.206 14.771 o
1 7 0 1579.660 1649.950 39.274 7.679 o
1 7 1 1891.530 1936.140 47.749 5.821 o
1 7 2 4822.640 4942.110 94.591 1.390 o
1 7 3 1689.170 1792.500 60.236 5.624 o
1 7 4 5669.730 5925.110 113.355 1.029 o
1 7 5 600.132 567.936 25.330 25.147 o
1 7 6 2396.040 2581.930 62.108 3.862 o
1 7 7 974.856 1008.550 35.231 13.221 o
1 7 8 6842.550 6926.800 180.126 0.632 o
1 7 9 139.776 132.495 14.983 104.155 o
1 7 10 143.202 144.679 19.112 81.016 o
1 7 11 1072.100 1111.850 42.123 10.858 o
1 7 12 1123.170 1077.870 57.374 8.309 o
1 7 13 244.790 192.021 22.512 53.831 o
1 7 14 139.216 108.630 14.430 111.663 o
1 7 15 1117.330 1158.620 68.324 6.841 o
1 8 0 1816.410 1977.230 65.929 4.892 o
1 8 1 573.718 588.270 32.589 21.502 o
1 8 2 952.267 1062.290 48.847 10.429 o
1 8 3 2087.200 2307.420 88.960 3.370 o
1 8 4 1715.250 1931.360 59.063 5.514 o
1 8 5 0.228 19.905 12.358 339.977 o
1 8 6 39.290 37.259 12.241 240.473 o
1 8 7 2265.120 2190.320 77.888 3.663 o
1 8 8 407.182 392.477 28.095 31.143 o
1 8 9 384.179 360.648 23.580 37.467 o
1 8 10 50.574 85.454 19.870 106.276 o
1 8 11 1665.740 1552.600 62.045 5.784 o
1 8 12 184.954 166.259 32.948 37.723 o
1 9 0 1508.050 1746.360 131.660 2.466 o
1 9 1 157.506 171.880 55.132 16.665 o
1 9 2 330.020 310.826 33.821 29.117 o
1 9 3 2480.110 2667.660 86.630 3.005 o
1 9 4 466.331 522.253 33.594 23.561 o
1 9 5 392.236 442.754 30.437 28.683 o
1 9 6 661.406 745.853 86.767 6.012 o
1 9 7 932.404 932.861 50.868 10.470 o
1 9 8 0.677 0.328 10.291 532.727 o
1 9 9 338.981 234.295 30.821 33.345 o
1 9 10 2457.510 2094.810 103.831 2.730 o
1 9 11 228.478 209.274 21.718 56.419 o
1 9 12 95.984 56.707 16.999 118.880 o
1 10 0 205.857 175.831 23.037 56.946 o
1 10 1 179.948 141.636 25.597 54.184 o
1 10 2 190.625 188.038 30.782 40.672 o
1 10 3 745.443 707.785 64.058 9.174 o
1 10 4 74.585 57.494 22.709 84.728 o
1 10 5 199.838 152.465 31.372 40.044 o
1 10 6 1217.490 1003.820 62.647 7.447 o
1 10 7 151.976 194.077 34.720 35.659 o
1 10 8 313.354 240.479 33.670 30.788 o
1 10 9 338.156 209.172 27.303 38.498 o
2 -9 0 101.947 164.843 21.242 77.227 o
2 -9 1 1137.520 1248.130 66.429 6.898 o
2 -9 2 880.944 959.028 73.706 6.964 o
2 -9 3 585.466 500.910 44.499 16.293 o
2 -9 4 44.357 41.414 10.567 271.595 o
2 -8 0 998.900 1038.570 45.989 10.778 o
2 -8 1 1749.400 2087.720 108.242 3.005 o
2 -8 2 1711.390 2055.020 86.144 3.938 o
2 -8 3 119.420 164.550 40.430 29.260 o
2 -8 4 406.947 370.579 35.480 25.032 o
2 -8 5 584.776 618.197 58.348 11.294 o
2 -8 6 644.321 645.237 51.653 12.739 o
2 -8 7 52.830 29.929 8.664 321.079 o
2 -7 0 1159.920 1076.570 40.278 10.764 o
2 -7 1 659.009 762.675 39.547 16.102 o
2 -7 2 2229.610 2214.260 65.923 4.147 o
2 -7 3 422.644 436.577 31.033 27.428 o
2 -7 4 825.000 811.649 37.185 14.942 o
2 -7 5 412.116 474.781 31.614 26.740 o
2 -7 6 69.506 55.636 14.482 159.302 o
2 -7 7 488.123 470.793 33.352 23.800 o
2 -7 8 735.093 666.671 64.812 9.138 o
2 -7 9 732.360 587.940 41.086 15.696 o
2 -6 0 88.272 109.372 10.286 174.712 o
2 -6 1 1255.240 1314.930 39.195 9.764 o
2 -6 2 20.344 25.455 6.685 605.093 o
2 -6 3 709.744 698.757 29.069 19.891 o
2 -6 4 1399.960 1509.160 45.716 7.980 o
2 -6 5 861.268 847.174 31.315 16.066 o
2 -6 6 811.249 764.585 33.337 16.511 o
2 -6 7 593.736 602.352 25.705 24.681 o
2 -6 8 1693.380 1553.420 58.783 5.964 o
2 -6 9 631.805 581.750 40.968 16.829 o
2 -6 10 251.551 213.967 15.575 68.976 o
2 -5 0 2304.040 2221.520 36.391 5.156 o
2 -5 1 2768.460 2589.240 45.371 3.881 o
2 -5 2 1679.380 1632.770 30.285 8.014 o
2 -5 3 1888.320 1848.980 57.346 5.365 o
2 -5 4 6626.250 6687.980 166.340 0.694 o
2 -5 5 439.070 446.724 22.268 34.445 o
2 -5 6 230.646 223.819 15.320 72.126 o
2 -5 7 1812.920 1731.310 54.312 5.821 o
2 -5 8 3294.020 3362.690 76.247 2.469 o
2 -5 9 9.229 27.823 7.767 601.042 o
2 -5 10 43.704 35.876 12.215 235.434 o
2 -5 11 1030.780 973.011 34.993 12.964 o
2 -5 12 452.560 428.153 26.383 30.593 o
2 -4 0 5981.130 5799.000 124.603 0.947 o
2 -4 1 458.577 497.409 15.883 37.931 o
2 -4 2 2831.200 2789.300 59.080 3.373 o
2 -4 3 3700.180 3427.130 55.851 2.493 o
2 -4 4 3728.630 3572.630 66.983 2.296 o
2 -4 5 4.044 9.735 5.048 1472.120 o
2 -4 6 80.386 80.402 8.419 222.853 o
2 -4 7 3352.000 3261.320 72.445 2.527 o
2 -4 8 638.511 616.830 23.622 24.543 o
2 -4 9 62.276 65.040 8.801 256.981 o
2 -4 10 128.282 104.152 10.705 144.146 o
2 -4 11 1059.380 1062.520 34.644 12.465 o
2 -4 12 6.301 1.784 5.728 1311.110 o
2 -4 13 44.807 42.563 6.835 388.823 o
2 -3 0 4790.370 4525.880 106.232 1.370 o
2 -3 1 26.883 33.677 5.612 586.502 o
2 -3 2 69.797 63.981 5.421 308.542 o
2 -3 3 13252.300 12895.100 182.537 0.262 o
2 -3 4 46.663 43.631 4.729 452.496 o
2 -3 5 158.538 151.746 8.646 128.108 o
2 -3 6 471.148 444.862 13.624 40.478 o
2 -3 7 3177.340 3181.820 47.935 3.088 o
2 -3 8 110.673 106.604 7.170 186.427 o
2 -3 9 150.607 162.251 9.346 125.819 o
2 -3 10 1500.110 1533.800 33.887 8.678 o
2 -3 11 461.034 472.674 17.789 36.856 o
2 -3 12 32.007 33.036 8.629 386.700 o
2 -3 13 696.634 683.253 24.600 22.113 o
2 -3 14 1052.130 1103.070 34.761 12.346 o
2 -2 0 2100.660 2276.650 112.622 2.631 o
2 -2 1 854.743 815.794 52.629 10.798 o
2 -2 2 2872.510 2807.750 51.821 3.488 o
2 -2 3 6314.050 6111.320 95.368 0.982 o
2 -2 4 212.774 199.334 7.568 101.697 o
2 -2 5 606.931 657.117 15.107 28.969 o
2 -2 6 8353.590 8101.830 104.863 0.627 o
2 -2 7 177.545 168.239 8.141 118.166 o
2 -2 8 54.889 56.975 5.943 351.968 o
2 -2 9 703.682 697.373 18.116 24.423 o
2 -2 10 4105.480 4052.470 55.747 2.093 o
2 -2 11 149.752 123.404 9.284 136.314 o
2 -2 12 25.137 20.075 5.085 725.369 o
2 -2 13 1845.740 1867.010 38.867 6.534 o
2 -2 14 595.546 676.079 22.432 25.470 o
2 -2 15 311.614 254.999 13.754 62.061 o
2 -1 0 272.996 285.351 11.105 70.383 o
2 -1 1 269.491 238.774 9.271 78.716 o
2 -1 2 7070.110 6917.360 86.951 0.845 o
2 -1 3 311.339 392.962 10.165 59.324 o
2 -1 4 689.802 764.867 14.653 25.143 o
2 -1 5 3913.160 3772.790 46.770 2.352 o
2 -1 6 7100.220 6935.640 79.728 0.855 o
2 -1 7 43.816 45.229 4.792 461.878 o
2 -1 8 410.102 435.663 12.168 46.025 o
2 -1 9 5478.330 5425.970 64.326 1.322 o
2 -1 10 1573.020 1630.090 28.420 8.593 o
2 -1 11 796.738 787.779 20.183 20.786 o
2 -1 12 126.294 127.401 8.392 155.279 o
2 -1 13 2538.210 2587.110 43.419 4.241 o
2 -1 14 106.094 120.041 10.388 155.897 o
2 -1 15 316.685 321.894 16.756 52.718 o
2 -1 16 208.505 146.726 15.863 81.211 o
2 0 0 1008.520 996.706 19.979 16.080 o
2 0 1 12800.500 12703.000 150.842 0.288 o
2 0 2 12331.600 12089.300 143.891 0.312 o
2 0 3 308.769 319.981 8.757 66.206 o
2 0 4 246.310 283.140 8.031 81.324 o
2 0 5 19646.300 18900.900 210.690 0.134 o
2 0 6 2400.540 2310.060 31.526 5.033 o
2 0 7 4176.510 4157.790 53.478 2.052 o
2 0 8 771.736 776.754 19.595 21.551 o
2 0 9 4645.330 4631.370 52.657 1.756 o
2 0 10 1060.680 1096.040 20.080 14.895 o
2 0 11 942.341 953.211 19.944 17.221 o
2 0 12 787.502 779.682 18.939 21.417 o
2 0 13 389.314 417.861 14.556 45.837 o
2 0 14 469.312 432.363 14.697 40.083 o
2 0 15 56.044 45.301 7.341 329.033 o
2 0 16 494.225 553.790 24.788 28.544 o
2 1 0 3931.910 4013.450 50.715 2.237 o
2 1 1 20994.000 21622.100 265.646 0.109 o
2 1 2 563.825 552.545 10.984 34.529 o
2 1 3 4095.050 4238.010 43.977 2.144 o
2 1 4 6411.080 6335.360 65.934 1.032 o
2 1 5 14317.700 14115.900 148.904 0.241 o
2 1 6 91.190 99.837 5.844 226.414 o
2 1 7 2909.970 2945.540 43.609 3.544 o
2 1 8 5092.560 5162.600 72.797 1.417 o
2 1 9 912.823 929.659 18.741 18.061 o
2 1 10 555.775 582.855 14.364 32.540 o
2 1 11 437.919 428.257 13.149 43.464 o
2 1 12 1763.950 1850.560 30.378 7.302 o
2 1 13 62.843 64.463 7.345 286.765 o
2 1 14 280.402 309.935 12.855 64.211 o
2 1 15 1831.500 1905.320 39.654 6.475 o
2 1 16 544.922 634.303 24.212 26.349 o
2 1 17 337.906 238.675 11.765 63.248 o
2 2 0 17989.300 18079.100 215.668 0.151 o
2 2 1 5478.140 5439.490 61.444 1.332 o
2 2 2 2834.440 2876.120 37.219 3.794 o
2 2 3 4295.610 4515.700 47.863 1.953 o
2 2 4 8850.220 8730.840 91.657 0.583 o
2 2 5 2304.500 2206.900 29.533 5.391 o
2 2 6 1681.470 1662.540 27.604 8.124 o
2 2 7 454.554 446.594 12.418 42.385 o
2 2 8 1273.800 1213.580 23.260 12.007 o
2 2 9 1068.360 1013.170 20.056 15.270 o
2 2 10 407.508 418.163 13.452 45.643 o
2 2 11 3609.710 3640.200 50.689 2.544 o
2 2 12 485.788 509.887 16.030 36.156 o
2 2 13 1099.300 1104.050 26.629 13.408 o
2 2 14 2.445 1.737 5.691 1529.550 o
2 2 15 1887.260 2077.990 45.008 5.822 o
2 2 16 361.072 361.437 16.693 47.476 o
2 2 17 787.755 730.641 25.043 19.855 o
2 3 0 22775.900 23743.400 260.343 0.095 o
2 3 1 100.675 90.416 5.716 221.000 o
2 3 2 9639.370 10102.200 131.864 0.455 o
2 3 3 986.871 1045.070 19.671 16.105 o
2 3 4 4551.700 4795.480 61.073 1.710 o
2 3 5 717.180 705.564 14.364 25.297 o
2 3 6 718.916 743.663 17.218 23.828 o
2 3 7 6980.750 6968.250 85.420 0.856 o
2 3 8 780.337 787.589 17.296 21.973 o
2 3 9 3998.980 4049.810 52.341 2.177 o
2 3 10 2054.600 2051.200 34.992 5.944 o
2 3 11 2522.770 2516.570 43.395 4.315 o
2 3 12 1928.130 2037.650 37.135 6.179 o
2 3 13 2140.390 2221.040 45.409 5.130 o
2 3 14 1368.090 1436.380 31.737 9.753 o
2 3 15 688.099 742.632 24.540 21.723 o
2 3 16 1366.310 1406.720 42.249 8.677 o
2 3 17 153.290 150.916 11.876 113.621 o
2 4 0 700.522 626.994 15.735 26.331 o
2 4 1 1164.360 1170.390 24.125 12.944 o
2 4 2 4.755 5.630 3.555 2385.580 o
2 4 3 13877.100 14547.200 236.397 0.214 o
2 4 4 457.220 387.192 12.649 43.979 o
2 4 5 1855.920 1852.250 30.644 6.983 o
2 4 6 3584.620 3688.700 54.023 2.505 o
2 4 7 6393.390 6420.450 75.841 1.003 o
2 4 8 2705.280 2592.260 34.844 4.206 o
2 4 9 2254.060 2151.990 34.459 5.396 o
2 4 10 5609.410 5629.540 83.572 1.192 o
2 4 11 739.571 758.906 20.233 22.163 o
2 4 12 3134.580 3118.730 54.110 3.048 o
2 4 13 194.560 190.058 13.318 88.931 o
2 4 14 880.451 902.400 24.848 17.254 o
2 4 15 461.134 489.310 21.237 33.566 o
2 4 16 532.182 564.873 22.896 28.513 o
2 4 17 187.356 176.848 10.596 103.202 o
2 5 0 134.867 110.625 8.435 154.850 o
2 5 1 3646.580 3580.490 88.827 2.053 o
2 5 2 5874.910 5789.390 101.841 1.054 o
2 5 3 4376.180 4158.100 93.176 1.633 o
2 5 4 7727.700 7958.760 147.321 0.608 o
2 5 5 90.551 77.810 8.294 212.875 o
2 5 6 4397.640 4385.190 71.441 1.768 o
2 5 7 1669.070 1710.020 33.023 7.719 o
2 5 8 10507.100 10897.700 156.816 0.380 o
2 5 9 224.061 243.027 12.923 78.297 o
2 5 10 921.900 872.493 26.298 16.543 o
2 5 11 1285.860 1297.160 31.908 10.583 o
2 5 12 2278.780 2319.740 47.280 4.725 o
2 5 13 367.830 363.115 16.376 47.313 o
2 5 14 250.340 275.990 16.729 62.177 o
2 5 15 1012.380 1071.180 48.409 10.184 o
2 5 16 17.943 15.089 6.393 722.036 o
2 6 0 2121.890 2164.270 41.331 5.394 o
2 6 1 290.031 269.969 13.567 64.222 o
2 6 2 5350.410 5337.240 97.177 1.212 o
2 6 3 934.278 926.637 26.868 15.931 o
2 6 4 4733.680 5005.950 89.543 1.437 o
2 6 5 2027.120 2184.880 47.982 5.267 o
2 6 6 762.938 726.993 25.281 20.221 o
2 6 7 2600.460 2587.450 51.827 3.924 o
2 6 8 438.865 467.411 20.181 35.921 o
2 6 9 2229.320 2146.970 62.102 4.346 o
2 6 10 68.607 81.397 9.135 227.519 o
2 6 11 2498.090 2399.870 55.867 4.050 o
2 6 12 963.559 963.998 30.624 14.544 o
2 6 13 760.482 762.147 27.444 19.199 o
2 6 14 956.240 956.312 27.321 15.411 o
2 6 15 455.823 447.191 27.755 29.034 o
2 6 16 974.590 894.560 179.079 1.631 o
2 7 0 2187.760 2320.030 56.954 4.492 o
2 7 1 59.005 58.536 9.222 260.023 o
2 7 2 1896.350 2008.570 49.082 5.657 o
2 7 3 3582.250 3921.200 119.153 1.643 o
2 7 4 127.742 135.872 15.372 105.163 o
2 7 5 48.724 65.345 10.431 245.437 o
2 7 6 288.137 339.152 18.023 52.379 o
2 7 7 3492.550 3505.440 90.532 2.114 o
2 7 8 458.023 477.805 25.758 30.125 o
2 7 9 239.022 247.700 20.086 57.305 o
2 7 10 558.931 603.255 33.706 21.041 o
2 7 11 683.189 634.468 30.032 20.452 o
2 7 12 480.578 475.813 29.866 26.334 o
2 7 13 325.261 307.688 22.567 43.440 o
2 7 14 1655.570 1774.340 70.030 5.063 o
2 7 15 7.896 7.220 9.123 568.555 o
2 8 0 253.097 266.448 22.000 51.031 o
2 8 1 422.202 499.410 38.292 21.568 o
2 8 2 105.193 132.680 14.959 116.305 o
2 8 3 2707.890 2921.950 100.618 2.452 o
2 8 4 353.304 371.578 28.753 32.708 o
2 8 5 382.924 469.466 37.169 23.268 o
2 8 6 896.260 905.444 50.549 10.790 o
2 8 7 140.005 121.786 13.546 114.485 o
2 8 8 366.247 356.268 20.253 42.636 o
2 8 9 1297.120 1323.980 55.992 7.525 o
2 8 10 2432.680 2448.500 153.420 1.663 o
2 8 11 63.763 54.841 11.352 213.085 o
2 8 12 106.565 99.943 11.311 153.992 o
2 8 14 1226.980 1102.110 63.861 7.146 o
2 9 0 185.291 171.243 40.233 27.830 o
2 9 1 271.355 305.576 55.394 15.135 o
2 9 2 1103.170 1126.490 46.442 9.932 o
2 9 3 78.084 96.125 14.685 139.312 o
2 9 4 465.897 447.701 30.051 26.929 o
2 9 5 696.327 715.016 45.943 13.844 o
2 9 6 3487.630 3653.840 120.183 1.696 o
2 9 7 312.519 302.429 20.729 47.339 o
2 9 8 235.390 196.398 28.698 41.834 o
2 9 9 1354.660 1365.480 75.153 5.521 o
2 9 10 2378.490 2145.890 118.238 2.390 o
2 9 11 19.798 -4.346 7.793 631.811 o
2 9 12 260.819 196.308 26.319 44.651 o
2 10 0 252.547 117.352 16.605 73.407 o
2 10 1 1309.930 1186.840 71.277 6.097 o
2 10 2 1321.480 1139.780 74.822 5.799 o
2 10 3 124.994 59.398 18.902 95.606 o
2 10 4 229.502 192.701 22.578 55.039 o
2 10 5 3208.460 2839.130 154.172 1.455 o
2 10 6 956.565 965.592 73.378 6.832 o
2 10 7 13.477 2.691 12.733 309.794 o
2 10 8 292.678 207.334 30.454 36.127 o
3 -9 0 767.041 880.021 131.266 2.911 o
3 -9 1 646.117 768.773 45.782 14.080 o
3 -9 2 487.911 355.205 37.411 22.237 o
3 -8 0 161.469 200.574 30.466 42.438 o
3 -8 1 415.104 529.316 40.811 19.946 o
3 -8 2 19.512 19.321 16.971 172.066 o
3 -8 3 827.410 799.470 66.946 8.261 o
3 -8 4 420.311 483.242 64.386 10.759 o
3 -8 5 82.828 73.968 20.281 95.885 o
3 -8 6 274.954 210.288 24.744 46.196 o
3 -7 0 903.068 934.001 36.484 13.852 o
3 -7 1 275.926 299.928 25.034 42.822 o
3 -7 2 472.139 537.020 33.817 23.156 o
3 -7 3 1528.120 1890.660 90.414 3.991 o
3 -7 4 2982.830 3344.000 140.929 1.610 o
3 -7 5 6.288 3.117 11.812 377.488 o
3 -7 6 515.192 537.760 41.867 18.033 o
3 -7 7 902.101 831.812 99.664 4.535 o
3 -7 8 1651.190 1563.970 90.770 4.012 o
3 -6 0 455.888 439.545 20.168 35.792 o
3 -6 1 646.462 673.152 29.876 20.818 o
3 -6 2 688.937 682.282 28.559 20.585 o
3 -6 3 1833.240 1884.200 72.431 4.582 o
3 -6 4 1638.640 1741.840 50.252 6.502 o
3 -6 5 842.346 860.115 60.166 9.265 o
3 -6 6 252.083 242.591 20.417 55.515 o
3 -6 7 1068.530 1068.820 70.159 6.848 o
3 -6 8 214.771 205.968 18.318 67.251 o
3 -6 9 145.602 119.977 27.894 51.851 o
3 -6 10 224.052 191.665 16.979 70.887 o
3 -5 0 3199.010 3096.940 69.832 2.724 o
3 -5 1 75.449 73.974 8.183 238.500 o
3 -5 2 131.090 125.546 9.770 143.069 o
3 -5 3 5117.080 5255.330 78.766 1.368 o
3 -5 4 1887.470 1940.550 46.434 5.900 o
3 -5 5 11.749 20.531 8.452 546.872 o
3 -5 6 186.401 196.778 20.173 66.129 o
3 -5 7 934.180 969.659 34.919 13.800 o
3 -5 8 200.243 209.229 14.207 82.409 o
3 -5 9 24.503 28.605 9.134 402.621 o
3 -5 10 488.387 475.918 51.434 14.498 o
3 -5 11 57.811 66.931 9.964 239.390 o
3 -5 12 1.083 0.019 4.209 2951.020 o
3 -4 0 402.937 360.522 24.265 35.840 o
3 -4 1 135.047 116.897 9.537 144.921 o
3 -4 2 1886.860 1764.490 34.424 6.818 o
3 -4 3 3482.520 3459.980 59.436 2.576 o
3 -4 4 3.980 10.600 5.377 1335.260 o
3 -4 5 234.428 213.459 12.219 81.135 o
3 -4 6 3034.880 3009.850 55.644 3.155 o
3 -4 7 51.954 53.748 7.974 311.284 o
3 -4 8 25.943 27.081 7.649 484.205 o
3 -4 9 1227.420 1180.880 38.997 10.289 o
3 -4 10 2144.250 2034.930 60.597 4.613 o
3 -4 11 20.555 18.160 8.936 459.252 o
3 -4 12 103.438 107.888 10.956 156.759 o
3 -4 13 1049.770 922.455 49.322 10.204 o
3 -3 0 215.993 215.377 11.047 88.411 o
3 -3 1 66.090 84.554 8.039 247.556 o
3 -3 2 3322.660 3189.330 64.273 2.703 o
3 -3 3 29.852 22.777 6.301 560.964 o
3 -3 4 298.454 290.792 12.568 63.616 o
3 -3 5 1806.100 1800.040 34.436 7.011 o
3 -3 6 4173.260 4275.160 63.686 1.943 o
3 -3 7 379.989 381.765 15.668 46.583 o
3 -3 8 150.452 120.483 9.988 132.423 o
3 -3 9 2987.770 2988.530 63.132 3.054 o
3 -3 10 1596.100 1634.440 43.598 7.298 o
3 -3 11 51.200 62.651 11.618 219.128 o
3 -3 12 339.134 306.258 16.677 51.537 o
3 -3 13 1114.010 1165.310 44.453 10.099 o
3 -3 14 202.978 177.913 18.676 69.840 o
3 -2 0 67.090 111.208 6.510 247.111 o
3 -2 1 11218.600 11100.400 178.658 0.337 o
3 -2 2 6110.100 5952.270 89.645 1.046 o
3 -2 3 39.304 34.934 6.311 454.459 o
3 -2 4 36.246 46.458 5.920 456.781 o
3 -2 5 13020.900 12600.800 158.180 0.281 o
3 -2 6 5022.070 5025.970 71.919 1.460 o
3 -2 7 2.084 7.904 4.094 2215.860 o
3 -2 8 904.362 869.988 20.728 18.177 o
3 -2 9 3502.200 3478.120 52.083 2.655 o
3 -2 10 1960.430 1976.510 36.840 6.189 o
3 -2 11 237.364 246.663 12.628 76.283 o
3 -2 12 1229.740 1225.590 46.399 9.129 o
3 -2 13 558.675 548.252 21.345 28.941 o
3 -2 14 166.012 142.697 11.816 110.757 o
3 -2 15 19.952 12.626 5.327 842.696 o
3 -1 0 628.874 593.255 14.793 29.443 o
3 -1 1 33631.400 34030.100 488.978 0.043 o
3 -1 2 481.645 519.427 12.327 38.698 o
3 -1 3 1266.370 1410.580 23.614 11.311 o
3 -1 4 4750.130 4828.760 62.637 1.626 o
3 -1 5 10079.600 10023.500 114.508 0.451 o
3 -1 6 497.535 501.164 13.852 37.331 o
3 -1 7 44.460 59.919 5.035 412.683 o
3 -1 8 7352.300 7426.150 75.528 0.802 o
3 -1 9 132.938 145.474 9.525 137.971 o
3 -1 10 711.813 663.736 16.746 25.154 o
3 -1 11 338.461 311.200 10.945 59.918 o
3 -1 12 2720.830 2805.230 59.255 3.470 o
3 -1 13 24.027 20.384 5.721 678.580 o
3 -1 14 6.827 11.813 8.150 668.108 o
3 -1 15 705.859 643.629 26.539 21.491 o
3 0 0 12431.600 12112.900 141.093 0.310 o
3 0 1 6688.260 6589.040 80.340 0.933 o
3 0 2 2529.130 2638.870 39.303 4.326 o
3 0 3 1299.020 1354.320 23.276 11.315 o
3 0 4 10866.600 10701.000 119.995 0.397 o
3 0 5 577.013 490.012 13.103 34.278 o
3 0 6 2054.700 2020.110 30.964 6.153 o
3 0 7 85.950 82.001 5.772 249.608 o
3 0 8 3257.810 3215.800 41.354 3.099 o
3 0 9 61.193 71.397 5.464 321.046 o
3 0 10 428.050 433.179 12.013 44.951 o
3 0 11 2395.020 2424.900 33.810 4.872 o
3 0 12 452.838 468.708 17.700 37.435 o
3 0 13 129.622 123.342 8.732 151.994 o
3 0 14 144.610 133.045 11.429 123.378 o
3 0 15 1484.570 1673.380 46.367 7.357 o
3 0 16 211.886 196.435 12.252 87.811 o
3 1 0 25530.300 25377.200 278.050 0.079 o
3 1 1 74.357 89.508 5.971 261.142 o
3 1 2 4646.160 4807.320 54.537 1.712 o
3 1 3 371.849 373.902 9.232 54.796 o
3 1 4 3081.080 3078.890 41.508 3.331 o
3 1 5 2072.810 2196.940 32.917 5.810 o
3 1 6 208.425 218.951 7.175 101.031 o
3 1 7 4497.880 4298.990 57.056 1.852 o
3 1 8 83.885 81.934 5.054 262.352 o
3 1 9 2040.900 2039.500 26.741 6.331 o
3 1 10 1708.990 1685.850 24.537 8.149 o
3 1 11 3731.920 3800.230 45.316 2.469 o
3 1 12 566.610 576.734 18.972 29.658 o
3 1 13 539.194 565.143 18.498 31.104 o
3 1 14 1087.930 1119.110 28.870 13.060 o
3 1 15 885.000 948.934 27.964 16.105 o
3 1 16 815.355 815.841 30.168 17.147 o
3 2 0 17759.300 18443.500 206.907 0.153 o
3 2 1 463.714 523.668 11.643 40.033 o
3 2 2 23.869 31.960 3.478 792.404 o
3 2 3 11861.600 12202.900 119.751 0.336 o
3 2 4 2126.720 2217.040 31.857 5.699 o
3 2 5 2977.670 3099.670 39.690 3.457 o
3 2 6 8395.730 8614.340 105.854 0.603 o
3 2 7 7564.140 7437.420 91.307 0.751 o
3 2 8 2232.330 2199.810 32.294 5.466 o
3 2 9 1394.980 1366.060 22.027 10.761 o
3 2 10 6355.010 6300.790 68.562 1.038 o
3 2 11 1617.580 1652.730 26.907 8.457 o
3 2 12 4558.530 4630.790 65.539 1.708 o
3 2 13 5.077 6.558 5.640 1289.560 o
3 2 14 1005.080 1099.060 26.602 14.314 o
3 2 15 623.974 644.139 25.181 23.785 o
3 2 16 980.528 909.752 37.767 13.013 o
3 2 17 92.072 65.518 9.025 208.753 o
3 3 0 435.558 411.367 11.965 45.235 o
3 3 1 648.054 680.223 15.099 27.324 o
3 3 2 13002.100 13982.900 156.276 0.267 o
3 3 3 1009.810 1025.100 18.803 16.097 o
3 3 4 1196.600 1164.120 22.990 12.854 o
3 3 5 107.917 102.097 6.702 195.756 o
3 3 6 13411.900 13654.600 160.506 0.260 o
3 3 7 899.417 882.278 21.686 17.928 o
3 3 8 3113.700 3106.550 41.173 3.290 o
3 3 9 225.645 237.861 8.888 89.291 o
3 3 10 4472.700 4510.500 56.631 1.822 o
3 3 11 456.361 460.305 16.188 38.773 o
3 3 12 950.489 971.034 22.360 16.489 o
3 3 13 527.981 556.777 17.256 32.472 o
3 3 14 666.874 680.414 21.017 24.331 o
3 3 15 659.293 701.249 24.866 22.569 o
3 3 16 213.566 205.406 12.227 86.464 o
3 3 17 316.126 277.217 17.646 53.308 o
3 4 0 2495.870 2423.020 41.770 4.474 o
3 4 1 361.562 387.584 14.561 49.131 o
3 4 2 10218.500 10449.600 141.628 0.412 o
3 4 3 1610.190 1741.600 37.173 7.575 o
3 4 4 9232.330 9828.190 136.475 0.477 o
3 4 5 4449.570 4756.580 68.130 1.707 o
3 4 6 1539.110 1426.680 29.056 9.169 o
3 4 7 3874.760 3947.100 49.473 2.299 o
3 4 8 2199.330 2254.360 31.689 5.499 o
3 4 9 1897.700 1876.370 30.854 6.804 o
3 4 10 240.911 250.268 11.604 77.876 o
3 4 11 2273.130 2239.450 40.547 5.053 o
3 4 12 179.038 181.945 11.757 100.284 o
3 4 13 407.217 413.149 16.783 42.416 o
3 4 14 461.274 466.115 19.505 35.531 o
3 4 15 461.422 477.452 21.212 33.818 o
3 4 16 662.653 697.112 28.897 20.766 o
3 5 0 3529.010 3693.420 60.564 2.458 o
3 5 1 4190.320 4134.650 62.978 1.972 o
3 5 2 4947.900 4803.610 78.286 1.476 o
3 5 3 1925.690 1959.060 35.533 6.369 o
3 5 4 1119.060 1164.110 25.807 13.107 o
3 5 5 2153.920 2228.570 39.495 5.337 o
3 5 6 1101.510 1202.420 24.712 13.262 o
3 5 7 3594.320 3735.930 52.858 2.497 o
3 5 8 1831.240 1853.740 35.299 6.801 o
3 5 9 265.032 282.084 14.439 64.960 o
3 5 10 1090.910 1131.500 30.262 12.745 o
3 5 11 839.674 849.787 26.799 17.620 o
3 5 12 3068.780 2977.430 64.368 2.968 o
3 5 13 297.609 317.376 18.782 51.190 o
3 5 14 2203.000 2330.600 72.665 3.849 o
3 5 15 49.736 50.455 8.072 318.970 o
3 5 16 561.906 575.077 46.808 15.248 o
3 6 0 1198.500 1215.400 30.019 11.664 o
3 6 1 112.608 104.716 9.990 160.264 o
3 6 2 916.469 847.466 25.035 17.093 o
3 6 3 1308.060 1343.880 33.173 10.166 o
3 6 4 1103.290 1194.080 29.712 12.492 o
3 6 5 869.975 908.040 26.728 16.859 o
3 6 6 1022.130 1050.200 33.318 13.062 o
3 6 7 529.208 510.013 20.388 31.215 o
3 6 8 3378.690 3377.860 60.633 2.656 o
3 6 9 133.358 143.323 11.770 123.970 o
3 6 10 603.289 589.138 24.842 25.083 o
3 6 11 0.827 -0.665 8.044 865.675 o
3 6 12 662.471 713.675 37.033 17.277 o
3 6 13 1648.710 1585.060 44.079 7.172 o
3 6 14 455.025 460.466 20.338 35.209 o
3 6 15 132.014 114.690 11.546 132.923 o
3 6 16 25.899 17.721 7.745 508.804 o
3 7 0 646.918 738.265 29.386 20.471 o
3 7 1 187.410 195.676 13.596 88.927 o
3 7 2 6696.560 6975.450 112.028 0.825 o
3 7 3 738.347 755.505 31.828 17.995 o
3 7 4 2937.300 2953.250 90.886 2.523 o
3 7 5 398.641 425.936 21.494 37.511 o
3 7 6 7171.180 7615.700 117.057 0.729 o
3 7 7 4.119 11.014 7.811 757.397 o
3 7 8 1081.810 1182.550 43.981 10.297 o
3 7 9 4661.850 4675.350 106.743 1.379 o
3 7 10 2110.720 2096.130 60.326 4.629 o
3 7 11 16.259 14.709 7.607 612.293 o
3 7 12 212.626 251.168 19.994 60.161 o
3 7 13 4173.600 4169.460 127.408 1.385 o
3 7 14 373.715 337.723 40.479 22.266 o
3 7 15 102.471 87.160 14.374 131.990 o
3 8 0 962.967 996.908 38.323 12.691 o
3 8 1 619.476 600.903 30.307 21.738 o
3 8 2 1691.680 1972.270 85.113 4.049 o
3 8 3 2179.270 2482.250 84.563 3.374 o
3 8 4 1178.150 1220.370 57.808 7.839 o
3 8 5 2739.720 2910.340 90.743 2.653 o
3 8 6 718.193 722.217 59.981 10.068 o
3 8 7 1451.180 1428.700 55.586 6.971 o
3 8 8 1085.130 1072.440 56.792 8.533 o
3 8 9 3722.100 3651.880 116.611 1.671 o
3 8 10 8.872 16.099 12.164 329.494 o
3 8 11 66.956 62.039 9.543 237.133 o
3 8 12 1487.950 1456.030 98.519 3.814 o
3 8 13 950.015 952.990 62.483 8.345 o
3 9 0 308.383 301.024 26.191 39.284 o
3 9 1 3481.910 3547.280 187.382 1.058 o
3 9 2 93.117 87.494 13.304 147.056 o
3 9 3 315.029 331.495 24.781 40.142 o
3 9 4 1071.700 1158.720 178.587 1.611 o
3 9 5 3620.700 4181.550 161.939 1.195 o
3 9 6 8.980 11.536 13.187 291.360 o
3 9 7 23.056 24.579 9.016 424.782 o
3 9 8 2135.850 2197.060 98.617 3.049 o
3 9 9 727.236 721.897 51.423 12.050 o
3 9 10 0.143 -1.608 7.146 1113.370 o
3 9 11 29.074 17.475 6.789 554.599 o
3 10 2 128.134 64.648 12.339 142.232 o
3 10 3 78.527 49.750 11.945 189.745 o
3 10 4 2585.240 2039.020 83.190 3.265 o
3 10 5 570.923 488.834 42.136 17.539 o
3 10 6 28.829 21.987 12.076 277.464 o
3 10 7 227.568 159.029 22.315 57.505 o
4 -8 0 425.820 377.258 60.317 12.137 o
4 -8 1 72.413 82.041 29.601 54.360 o
4 -8 2 590.547 706.670 73.181 8.022 o
4 -8 3 918.395 878.956 76.134 6.673 o
4 -8 4 564.188 446.435 46.271 16.031 o
4 -7 0 446.271 467.408 33.301 24.756 o
4 -7 1 430.392 455.104 31.001 27.011 o
4 -7 2 908.246 1110.660 58.334 8.867 o
4 -7 3 2554.460 2626.140 122.942 2.126 o
4 -7 4 376.159 419.460 59.463 12.560 o
4 -7 5 226.898 321.536 48.240 19.259 o
4 -6 0 8.005 -0.295 12.173 356.505 o
4 -6 1 72.951 66.579 10.473 209.635 o
4 -6 2 274.331 312.626 20.108 50.996 o
4 -6 3 1253.520 1293.050 51.375 8.260 o
4 -6 4 23.887 22.549 11.544 306.747 o
4 -6 5 168.805 155.233 17.375 82.386 o
4 -6 6 277.004 300.188 45.393 20.616 o
4 -6 7 26.126 38.858 15.084 192.757 o
4 -6 8 26.658 21.195 12.733 261.712 o
4 -6 9 350.074 334.662 35.901 26.355 o
4 -5 0 10.590 0.059 8.415 658.711 o
4 -5 1 972.427 1048.930 28.183 14.569 o
4 -5 2 2991.520 3183.530 57.448 3.082 o
4 -5 3 833.494 919.388 28.082 16.878 o
4 -5 4 39.904 49.496 10.718 268.304 o
4 -5 5 2020.840 2103.280 68.413 4.381 o
4 -5 6 2100.680 2209.590 66.735 4.281 o
4 -5 7 2.418 11.349 9.090 602.849 o
4 -5 8 207.123 227.120 17.590 68.960 o
4 -5 9 2476.280 2563.090 172.206 1.396 o
4 -5 10 993.357 970.111 77.677 6.268 o
4 -5 11 33.383 43.279 9.188 340.784 o
4 -4 0 1289.070 1350.390 26.950 10.993 o
4 -4 1 1842.550 1890.730 30.426 6.975 o
4 -4 2 1768.350 1678.030 28.547 7.699 o
4 -4 3 1223.470 1223.590 28.927 11.614 o
4 -4 4 1889.400 1830.780 43.870 6.174 o
4 -4 5 4190.640 4281.470 70.706 1.874 o
4 -4 6 616.234 620.313 38.038 18.014 o
4 -4 7 710.244 726.890 26.594 20.636 o
4 -4 8 1524.640 1481.310 41.710 7.969 o
4 -4 9 2786.150 2720.070 69.627 3.190 o
4 -4 10 177.241 128.493 14.379 96.842 o
4 -4 11 99.855 118.271 15.657 116.060 o
4 -4 12 927.925 930.275 53.617 9.973 o
4 -3 0 1059.840 1065.630 32.392 12.874 o
4 -3 1 11567.600 11678.400 182.964 0.316 o
4 -3 2 753.688 758.845 20.444 21.806 o
4 -3 3 132.494 114.288 7.815 159.595 o
4 -3 4 2204.050 2109.110 36.959 5.456 o
4 -3 5 7995.340 8153.080 104.892 0.654 o
4 -3 6 26.821 29.947 5.962 579.868 o
4 -3 7 234.318 216.929 11.842 81.855 o
4 -3 8 1465.080 1445.460 34.348 8.989 o
4 -3 9 1145.750 1144.650 29.154 12.443 o
4 -3 10 260.120 251.254 14.876 66.773 o
4 -3 11 243.377 197.499 14.985 73.134 o
4 -3 12 702.220 742.198 35.549 17.185 o
4 -3 13 26.611 27.277 17.032 162.810 o
4 -2 0 5695.640 5758.390 92.720 1.124 o
4 -2 1 16176.600 16620.100 234.609 0.172 o
4 -2 2 357.354 405.934 15.461 47.629 o
4 -2 3 290.647 292.940 13.931 61.977 o
4 -2 4 3772.480 3554.230 53.315 2.437 o
4 -2 5 1915.700 1828.260 32.713 6.728 o
4 -2 6 1908.020 1860.050 31.231 6.779 o
4 -2 7 2724.130 2775.180 42.546 3.886 o
4 -2 8 1686.890 1673.650 30.932 7.863 o
4 -2 9 344.848 363.745 14.516 51.633 o
4 -2 10 860.802 817.705 30.191 16.566 o
4 -2 11 2383.870 2322.670 82.663 3.331 o
4 -2 12 728.081 770.922 41.204 14.823 o
4 -2 13 161.695 168.566 21.632 66.517 o
4 -2 14 171.717 148.242 21.044 68.538 o
4 -1 0 5402.920 4840.380 76.805 1.358 o
4 -1 1 2128.670 2081.380 37.529 5.628 o
4 -1 2 330.191 361.906 11.975 56.597 o
4 -1 3 4220.710 4316.730 75.915 1.810 o
4 -1 4 440.533 386.137 14.233 43.705 o
4 -1 5 79.175 62.335 6.363 272.380 o
4 -1 6 234.140 255.355 9.875 82.928 o
4 -1 7 5184.990 5181.550 58.126 1.459 o
4 -1 8 107.132 118.702 6.888 186.370 o
4 -1 9 102.498 109.333 8.147 184.051 o
4 -1 10 496.026 487.071 14.709 37.169 o
4 -1 11 2195.570 2225.760 36.986 5.350 o
4 -1 12 220.295 229.999 11.136 85.459 o
4 -1 13 5.726 19.437 7.031 787.171 o
4 -1 14 1517.640 1532.510 49.290 7.212 o
4 -1 15 388.914 381.533 19.844 41.041 o
4 0 0 5102.630 4779.110 67.429 1.496 o
4 0 1 1098.860 1225.510 21.926 13.592 o
4 0 2 41.291 43.878 5.593 449.533 o
4 0 3 6558.140 6465.950 80.868 0.960 o
4 0 4 62.461 63.890 5.784 321.571 o
4 0 5 2085.970 2233.970 41.515 5.389 o
4 0 6 3616.600 3644.330 51.685 2.526 o
4 0 7 3966.850 3879.390 49.061 2.270 o
4 0 8 424.604 418.790 12.852 44.966 o
4 0 9 103.246 102.019 7.158 196.619 o
4 0 10 2712.540 2774.630 40.439 3.948 o
4 0 11 1915.640 1995.390 39.949 6.121 o
4 0 12 1633.470 1595.340 33.098 8.065 o
4 0 13 160.793 155.964 10.682 115.961 o
4 0 14 481.469 501.184 28.612 26.895 o
4 0 15 598.463 625.025 30.772 21.667 o
4 0 16 704.000 412.700 32.816 20.659 o
4 1 0 150.829 140.332 7.763 139.676 o
4 1 1 82.908 90.291 5.348 252.875 o
4 1 2 4002.920 4052.910 48.278 2.209 o
4 1 3 4103.180 4347.970 51.773 2.055 o
4 1 4 37.205 41.818 4.606 523.450 o
4 1 5 89.960 109.111 7.111 208.344 o
4 1 6 10083.600 9892.100 117.136 0.451 o
4 1 7 2548.310 2571.160 38.743 4.362 o
4 1 8 1236.450 1205.360 23.099 12.346 o
4 1 9 1146.210 1177.210 23.616 13.143 o
4 1 10 2304.970 2357.610 32.807 5.136 o
4 1 11 1325.840 1343.720 25.570 10.929 o
4 1 12 1440.830 1514.270 32.070 9.160 o
4 1 13 1682.690 1748.940 45.176 6.746 o
4 1 14 277.626 304.847 15.109 60.581 o
4 1 15 383.454 356.038 18.104 44.270 o
4 1 16 5.494 7.363 4.999 1475.940 o
4 2 0 1490.220 1493.210 27.171 9.407 o
4 2 1 2555.120 2668.200 35.929 4.348 o
4 2 2 16388.100 16811.500 155.206 0.186 o
4 2 3 1592.800 1550.920 25.500 8.894 o
4 2 4 3058.190 3047.130 47.756 3.263 o
4 2 5 4653.640 4738.650 60.886 1.685 o
4 2 6 5829.560 5805.280 74.862 1.163 o
4 2 7 2935.850 2906.270 46.144 3.488 o
4 2 8 1725.080 1707.440 28.061 7.836 o
4 2 9 3293.480 3383.510 47.026 2.917 o
4 2 10 946.745 970.698 20.463 16.937 o
4 2 11 701.882 650.464 16.847 25.548 o
4 2 12 51.477 55.530 5.790 370.755 o
4 2 13 914.006 940.728 25.317 16.461 o
4 2 14 577.960 563.096 21.042 28.296 o
4 2 15 36.679 30.827 8.521 377.501 o
4 2 16 606.664 479.957 22.267 27.948 o
4 3 0 3226.940 3311.030 46.474 3.011 o
4 3 1 4840.540 4878.690 71.017 1.540 o
4 3 2 1613.450 1643.600 27.094 8.482 o
4 3 3 3186.860 3352.370 48.516 2.996 o
4 3 4 1440.560 1505.300 27.252 9.625 o
4 3 5 5102.030 5153.260 64.845 1.456 o
4 3 6 199.242 243.316 9.408 93.999 o
4 3 7 4180.580 4127.070 51.282 2.074 o
4 3 8 303.734 292.401 10.317 66.607 o
4 3 9 800.807 771.606 16.518 21.938 o
4 3 10 321.263 329.598 11.979 59.378 o
4 3 11 102.328 106.020 7.541 191.751 o
4 3 12 1310.930 1286.570 26.139 11.151 o
4 3 13 205.818 223.578 11.165 89.517 o
4 3 14 1251.800 1260.620 31.052 11.016 o
4 3 15 159.813 165.069 12.424 106.001 o
4 3 16 854.198 825.914 47.885 11.841 o
4 4 0 540.502 556.534 14.995 33.353 o
4 4 1 5521.130 5693.960 66.721 1.271 o
4 4 2 1484.690 1463.740 33.565 8.933 o
4 4 3 5220.360 5455.830 68.658 1.365 o
4 4 4 499.410 490.185 14.518 37.056 o
4 4 5 1520.270 1587.390 26.841 9.052 o
4 4 6 1382.130 1447.830 26.228 10.200 o
4 4 7 939.083 957.734 22.067 16.782 o
4 4 8 3063.680 3103.470 41.996 3.328 o
4 4 9 443.328 425.717 12.720 43.556 o
4 4 10 2931.060 2857.740 41.432 3.611 o
4 4 11 485.529 485.365 15.225 37.367 o
4 4 12 1323.050 1416.170 32.307 9.986 o
4 4 13 1155.420 1155.340 28.565 12.419 o
4 4 14 1960.880 2018.310 70.327 4.427 o
4 4 15 707.362 751.472 28.689 19.656 o
4 4 16 209.057 200.509 11.413 90.774 o
4 5 0 1925.200 1969.420 32.958 6.484 o
4 5 1 303.712 322.430 11.779 62.242 o
4 5 2 5556.980 5560.160 74.060 1.249 o
4 5 3 7.243 87.219 9.699 334.247 o
4 5 4 3701.980 3815.400 60.039 2.326 o
4 5 5 118.026 139.289 8.559 155.695 o
4 5 6 4995.970 5363.430 70.922 1.426 o
4 5 7 1177.450 1206.580 27.889 12.155 o
4 5 8 2693.610 2786.480 49.417 3.754 o
4 5 9 2493.920 2497.010 44.736 4.333 o
4 5 10 839.314 845.416 26.009 17.885 o
4 5 11 586.513 609.568 20.058 27.893 o
4 5 12 793.486 801.844 26.445 18.731 o
4 5 13 3483.250 3619.910 67.195 2.419 o
4 5 14 54.182 71.907 10.245 235.546 o
4 5 15 124.547 161.654 13.883 110.786 o
4 5 16 281.471 206.586 13.994 68.970 o
4 6 0 592.206 654.692 24.412 24.791 o
4 6 1 134.513 140.718 11.509 125.698 o
4 6 2 5092.510 5211.680 80.156 1.373 o
4 6 3 5538.370 5692.820 82.212 1.205 o
4 6 4 1112.540 1175.140 28.155 12.745 o
4 6 5 1413.740 1474.920 31.682 9.426 o
4 6 6 1202.750 1180.060 40.265 10.239 o
4 6 7 2207.090 2423.380 54.606 4.479 o
4 6 8 1817.230 1894.660 41.429 6.423 o
4 6 9 5345.060 5310.630 97.106 1.216 o
4 6 10 303.886 325.402 19.571 49.021 o
4 6 11 27.820 35.826 7.509 455.633 o
4 6 12 1784.590 1896.610 57.311 5.521 o
4 6 13 1900.420 1834.600 47.489 5.931 o
4 6 14 211.710 198.317 21.023 60.519 o
4 6 15 31.843 36.492 7.093 453.587 o
4 7 0 632.922 660.651 25.216 23.390 o
4 7 1 3422.370 3535.800 73.506 2.388 o
4 7 2 510.906 471.427 21.735 31.599 o
4 7 3 3430.730 3635.420 78.683 2.282 o
4 7 4 3517.550 3765.250 124.901 1.617 o
4 7 5 3565.070 3744.970 73.614 2.253 o
4 7 6 4.462 10.658 7.257 848.618 o
4 7 7 183.765 208.327 14.482 85.025 o
4 7 8 5441.520 5734.280 124.813 1.028 o
4 7 9 1410.750 1427.060 53.603 7.282 o
4 7 10 325.721 341.569 21.442 44.004 o
4 7 11 40.045 44.727 9.997 293.668 o
4 7 12 2937.450 2963.580 83.736 2.667 o
4 7 13 6.474 4.316 5.946 1183.530 o
4 7 14 160.981 119.849 9.255 131.549 o
4 8 0 782.318 784.940 29.335 18.059 o
4 8 1 2522.040 2726.140 74.844 3.277 o
4 8 2 655.964 711.926 32.418 19.243 o
4 8 3 305.004 334.637 25.023 40.248 o
4 8 4 3556.210 3785.680 80.245 2.160 o
4 8 5 178.966 211.379 16.733 77.555 o
4 8 6 135.870 124.413 11.144 131.330 o
4 8 7 249.469 264.749 20.409 54.724 o
4 8 8 2476.590 2562.860 75.371 3.373 o
4 8 9 322.177 313.613 21.390 45.228 o
4 8 10 80.407 71.921 9.752 208.569 o
4 8 11 1134.640 1148.630 39.667 10.801 o
4 8 12 316.391 293.762 19.665 49.125 o
4 9 0 2664.130 2659.140 93.392 2.712 o
4 9 1 105.325 106.706 16.540 109.826 o
4 9 2 75.545 75.377 9.047 223.426 o
4 9 3 453.757 486.938 31.979 25.317 o
4 9 4 2209.850 2150.490 120.317 2.411 o
4 9 5 355.273 343.441 31.733 30.007 o
4 9 6 20.280 45.705 14.746 202.159 o
4 9 7 1456.420 1518.070 66.808 5.871 o
4 9 8 408.949 321.594 32.488 28.076 o
4 9 9 474.955 355.306 31.405 26.827 o
4 9 10 350.200 282.489 36.689 26.258 o
5 -8 0 7.088 4.069 17.852 171.787 o
5 -8 1 389.659 262.729 41.414 21.963 o
5 -8 2 940.613 874.362 71.474 7.209 o
5 -8 3 540.653 395.504 40.102 19.515 o
5 -7 0 60.073 68.015 23.776 80.534 o
5 -7 1 380.687 441.684 57.790 13.034 o
5 -7 2 961.604 1194.580 107.966 3.819 o
5 -7 3 229.850 214.292 44.434 22.642 o
5 -7 4 92.147 117.155 33.867 41.356 o
5 -7 5 565.309 739.749 64.977 9.572 o
5 -6 0 728.424 721.686 42.565 14.609 o
5 -6 1 801.848 817.253 42.529 13.604 o
5 -6 2 498.154 506.838 31.391 24.502 o
5 -6 3 627.864 637.759 41.607 16.317 o
5 -6 4 992.155 945.738 55.297 9.363 o
5 -6 5 1408.640 1486.450 117.680 3.020 o
5 -6 6 161.968 129.559 33.998 37.708 o
5 -6 7 470.869 408.828 36.886 22.404 o
5 -5 0 479.980 574.260 25.299 28.300 o
5 -5 1 1813.480 1976.580 54.039 5.580 o
5 -5 2 121.424 110.161 12.056 135.754 o
5 -5 3 1570.470 1578.670 48.159 7.084 o
5 -5 4 2334.710 2563.660 77.509 3.434 o
5 -5 5 1372.330 1351.910 75.256 5.494 o
5 -5 6 5.332 13.106 8.159 677.103 o
5 -5 7 271.333 234.888 39.322 26.123 o
5 -5 8 1771.060 1738.600 80.695 4.315 o
5 -5 9 606.690 523.754 90.344 5.851 o
5 -4 0 4073.400 4254.700 62.163 2.005 o
5 -4 1 1650.060 1629.650 33.141 7.932 o
5 -4 2 69.207 85.056 7.922 243.901 o
5 -4 3 61.059 66.048 6.818 300.377 o
5 -4 4 5253.360 5315.240 137.445 1.025 o
5 -4 5 443.084 417.905 21.098 36.003 o
5 -4 6 1.693 3.367 7.277 984.435 o
5 -4 7 171.898 199.247 14.881 87.149 o
5 -4 8 1069.310 985.134 32.817 13.041 o
5 -4 9 44.760 29.856 8.232 361.234 o
5 -4 10 19.461 16.812 10.804 360.151 o
5 -4 11 428.919 451.358 41.283 20.031 o
5 -3 0 5513.720 5751.690 73.436 1.240 o
5 -3 1 1170.540 1180.740 25.393 12.669 o
5 -3 2 78.731 69.070 7.465 248.819 o
5 -3 3 2492.200 2394.770 42.117 4.491 o
5 -3 4 1347.940 1348.560 29.197 10.383 o
5 -3 5 137.865 169.216 10.569 123.397 o
5 -3 6 39.451 37.820 8.316 362.749 o
5 -3 7 3491.880 3443.120 64.301 2.508 o
5 -3 8 39.522 46.041 7.406 381.866 o
5 -3 9 29.800 21.107 6.859 529.750 o
5 -3 10 180.150 183.010 16.561 80.618 o
5 -3 11 1696.040 1817.310 66.737 5.169 o
5 -3 12 38.689 26.636 11.060 284.289 o
5 -3 13 54.735 29.207 8.598 318.839 o
5 -2 0 2250.000 2271.120 38.161 5.152 o
5 -2 1 1531.630 1625.590 29.889 8.674 o
5 -2 2 20.014 17.808 4.331 918.863 o
5 -2 3 2397.500 2449.740 42.005 4.602 o
5 -2 4 53.730 57.732 6.494 340.149 o
5 -2 5 159.365 150.454 8.984 126.333 o
5 -2 6 643.732 653.932 19.406 25.970 o
5 -2 7 1463.390 1554.170 34.157 8.770 o
5 -2 8 125.733 128.340 10.167 142.562 o
5 -2 9 195.806 188.491 11.876 94.143 o
5 -2 10 1635.280 1680.980 71.925 5.048 o
5 -2 11 511.678 575.245 23.979 28.259 o
5 -2 12 458.447 456.028 37.875 21.585 o
5 -2 13 154.453 135.979 14.127 103.713 o
5 -2 14 1046.310 681.795 45.352 11.671 o
5 -1 0 61.006 64.519 10.548 225.146 o
5 -1 1 338.852 361.791 16.359 49.674 o
5 -1 2 4219.200 4378.160 61.592 1.918 o
5 -1 3 2882.520 2978.530 45.010 3.529 o
5 -1 4 75.751 92.678 7.516 233.805 o
5 -1 5 40.812 35.225 5.814 467.462 o
5 -1 6 7528.210 7567.130 99.478 0.733 o
5 -1 7 1519.790 1511.850 27.656 9.173 o
5 -1 8 226.585 235.944 11.827 81.531 o
5 -1 9 942.235 933.427 24.681 16.310 o
5 -1 10 2430.820 2442.770 44.314 4.483 o
5 -1 11 1553.700 1572.990 32.346 8.495 o
5 -1 12 109.245 118.853 10.779 150.782 o
5 -1 13 628.273 549.102 31.325 21.534 o
5 -1 14 266.884 258.072 18.026 58.437 o
5 0 0 7.621 1.812 5.184 1441.720 o
5 0 1 366.487 346.112 14.419 50.636 o
5 0 2 10472.100 10611.100 151.175 0.391 o
5 0 3 1163.500 1148.730 28.034 12.463 o
5 0 4 241.733 234.407 10.813 81.241 o
5 0 5 1479.160 1457.360 24.962 9.744 o
5 0 6 6853.630 6766.320 81.853 0.894 o
5 0 7 1505.260 1501.610 26.309 9.380 o
5 0 8 409.787 388.973 12.335 47.669 o
5 0 9 1782.790 1791.350 29.022 7.415 o
5 0 10 663.699 672.882 20.210 24.852 o
5 0 11 1280.770 1250.070 28.767 11.157 o
5 0 12 9.741 18.646 5.624 949.031 o
5 0 13 864.240 896.835 37.828 14.013 o
5 0 14 56.774 67.866 10.326 233.083 o
5 0 15 87.254 79.313 8.790 209.428 o
5 1 0 1305.300 1299.010 26.403 11.117 o
5 1 1 6896.260 7097.400 117.844 0.781 o
5 1 2 4150.650 4335.680 62.170 1.952 o
5 1 3 2058.640 2105.200 37.556 5.759 o
5 1 4 300.937 312.636 12.787 61.537 o
5 1 5 4915.330 4940.490 58.714 1.574 o
5 1 6 1176.850 1173.440 24.260 12.807 o
5 1 7 2762.740 2715.690 38.016 3.973 o
5 1 8 351.500 312.992 11.026 58.200 o
5 1 9 1517.690 1571.480 27.361 9.063 o
5 1 10 357.176 361.810 12.823 52.805 o
5 1 11 242.221 235.304 9.868 83.365 o
5 1 12 849.026 835.615 25.590 17.939 o
5 1 13 786.277 829.490 26.889 18.490 o
5 1 14 388.489 382.899 20.566 40.184 o
5 1 15 96.943 90.041 9.000 190.067 o
5 2 0 11.742 16.790 4.137 1208.210 o
5 2 1 12961.600 13057.900 165.935 0.274 o
5 2 2 1240.630 1798.420 32.366 9.414 o
5 2 3 6570.210 6638.930 79.465 0.949 o
5 2 4 2363.610 2362.880 31.834 5.045 o
5 2 5 3277.560 3198.510 40.208 3.105 o
5 2 6 599.781 584.748 16.036 29.993 o
5 2 7 1513.090 1568.930 27.633 9.069 o
5 2 8 3804.050 3752.660 51.432 2.378 o
5 2 9 656.315 667.949 16.985 26.495 o
5 2 10 1187.270 1150.530 22.075 13.114 o
5 2 11 767.081 760.931 17.168 22.569 o
5 2 12 1290.140 1326.150 26.022 11.171 o
5 2 13 1009.240 981.505 26.149 14.959 o
5 2 14 685.096 707.092 29.715 19.958 o
5 2 15 983.094 1015.250 47.762 10.594 o
5 3 0 5035.400 4995.160 60.945 1.517 o
5 3 1 190.784 199.114 9.020 104.323 o
5 3 2 1940.090 1984.260 28.215 6.638 o
5 3 3 650.761 692.182 14.554 27.276 o
5 3 4 6399.440 6592.030 70.926 1.000 o
5 3 5 170.458 199.332 8.793 112.255 o
5 3 6 640.962 694.357 16.017 26.956 o
5 3 7 1101.660 1079.300 21.974 14.260 o
5 3 8 2570.740 2602.500 40.899 4.250 o
5 3 9 1697.360 1637.870 29.768 7.969 o
5 3 10 377.680 416.094 13.962 47.417 o
5 3 11 3125.890 3092.340 50.337 3.133 o
5 3 12 574.411 588.103 18.813 29.302 o
5 3 13 2477.760 2513.100 54.163 4.057 o
5 3 14 64.356 69.640 12.058 192.246 o
5 3 15 875.086 935.454 34.093 14.705 o
5 4 0 4693.530 4630.440 52.366 1.739 o
5 4 1 109.521 123.072 6.750 183.052 o
5 4 2 1822.680 1928.240 32.197 6.886 o
5 4 3 3407.150 3600.030 50.592 2.698 o
5 4 4 1392.890 1418.170 26.140 10.232 o
5 4 5 3410.440 3467.890 43.738 2.832 o
5 4 6 104.096 99.693 6.965 198.830 o
5 4 7 3629.800 3702.010 53.574 2.477 o
5 4 8 947.909 946.122 21.214 16.927 o
5 4 9 6488.660 6591.540 81.580 0.959 o
5 4 10 822.920 835.656 19.755 20.012 o
5 4 11 852.943 912.458 23.862 17.820 o
5 4 12 1141.880 1179.820 32.259 11.849 o
5 4 13 1774.240 1766.170 55.540 5.787 o
5 4 14 242.477 244.166 14.489 70.854 o
5 4 15 280.909 284.110 14.986 61.672 o
5 5 0 928.547 982.758 20.269 17.140 o
5 5 1 2537.650 2567.070 38.552 4.387 o
5 5 2 49.328 43.866 6.667 374.250 o
5 5 3 5292.030 5569.100 75.814 1.302 o
5 5 4 1573.980 1732.700 38.431 7.621 o
5 5 5 4905.690 5207.230 69.419 1.481 o
5 5 6 573.534 620.492 18.636 28.903 o
5 5 7 676.514 716.754 20.907 23.729 o
5 5 8 4205.810 4448.790 76.755 1.784 o
5 5 9 1578.290 1634.210 34.989 8.058 o
5 5 10 704.685 683.471 22.186 22.948 o
5 5 11 53.638 70.988 8.439 275.710 o
5 5 12 2729.020 2781.160 63.927 3.357 o
5 5 13 25.068 34.553 7.734 462.026 o
5 5 14 61.337 73.777 9.011 246.858 o
5 5 15 429.515 351.911 14.801 45.062 o
5 6 0 540.250 571.632 18.709 30.817 o
5 6 1 1752.690 1821.560 43.648 6.557 o
5 6 2 989.124 1161.250 38.138 11.952 o
5 6 3 1387.270 1457.880 33.707 9.394 o
5 6 4 4377.120 4560.890 64.616 1.794 o
5 6 5 53.511 44.170 9.113 288.530 o
5 6 6 495.094 557.952 19.305 32.354 o
5 6 7 260.268 313.051 15.886 60.589 o
5 6 8 3822.480 3827.280 72.976 2.112 o
5 6 9 206.496 223.868 14.171 79.809 o
5 6 10 485.432 515.591 24.922 29.302 o
5 6 11 552.545 572.357 22.723 27.901 o
5 6 12 365.966 371.319 23.258 38.477 o
5 6 13 227.476 235.650 19.229 61.294 o
5 6 14 536.833 567.588 29.446 24.212 o
5 7 0 4577.820 4863.280 103.620 1.398 o
5 7 1 449.024 498.808 24.310 31.270 o
5 7 2 682.938 719.097 30.342 19.638 o
5 7 3 547.428 597.517 24.343 26.696 o
5 7 4 5306.100 5778.340 122.033 1.058 o
5 7 5 204.870 206.789 16.577 73.985 o
5 7 6 33.465 32.402 8.652 381.179 o
5 7 7 1876.220 1937.940 49.988 5.725 o
5 7 8 503.216 515.440 19.865 32.459 o
5 7 9 231.098 240.581 16.372 67.926 o
5 7 10 354.473 336.487 24.773 38.033 o
5 7 11 2496.380 2541.790 65.908 3.653 o
5 7 12 65.701 83.877 9.114 230.283 o
5 7 13 82.908 81.538 12.433 165.583 o
5 8 0 1472.050 1530.120 48.913 7.391 o
5 8 1 387.616 396.326 27.228 32.612 o
5 8 2 75.893 80.517 12.814 166.689 o
5 8 3 1953.410 2021.820 62.203 4.840 o
5 8 4 16.210 40.463 8.894 426.449 o
5 8 5 745.984 758.406 27.847 19.309 o
5 8 6 292.489 335.528 20.108 48.623 o
5 8 7 2797.170 2811.920 88.459 2.699 o
5 8 8 778.839 815.549 34.792 16.127 o
5 8 9 542.375 527.255 21.921 29.427 o
5 8 10 1759.850 1788.720 81.549 4.254 o
5 8 11 1114.020 1018.580 32.426 12.626 o
5 9 1 30.253 19.952 8.401 435.447 o
5 9 2 624.159 505.640 23.153 26.565 o
5 9 3 737.941 681.427 36.044 16.940 o
5 9 4 435.722 417.416 27.547 30.299 o
5 9 5 55.568 38.402 8.724 301.062 o
5 9 6 2579.760 2499.960 91.589 2.861 o
5 9 7 174.691 112.802 11.536 114.546 o
5 9 8 33.859 32.948 10.173 318.177 o
5 9 9 307.323 216.917 20.412 51.680 o
6 -7 0 308.745 484.830 56.838 13.682 o
6 -7 1 606.851 688.883 75.084 7.698 o
6 -7 2 2.996 13.127 21.003 125.363 o
6 -7 3 340.081 414.078 50.865 16.212 o
6 -7 4 525.120 498.613 48.503 15.243 o
6 -6 0 1085.770 1373.680 69.611 6.531 o
6 -6 1 469.448 497.173 48.045 15.932 o
6 -6 2 112.075 102.853 25.340 63.702 o
6 -6 3 1071.960 1121.400 103.831 3.998 o
6 -6 4 1897.790 2276.670 153.253 1.801 o
6 -6 5 157.804 136.320 32.357 40.668 o
6 -6 6 25.019 40.657 10.452 321.495 o
6 -5 0 2781.390 3103.570 91.591 2.554 o
6 -5 1 98.641 135.113 19.892 87.275 o
6 -5 2 27.362 33.401 13.655 225.796 o
6 -5 3 1383.550 1423.060 87.719 4.542 o
6 -5 4 1909.520 2007.650 109.341 2.900 o
6 -5 5 6.776 29.360 12.517 302.363 o
6 -5 6 15.654 32.094 22.643 101.885 o
6 -5 7 601.128 697.415 65.764 9.359 o
6 -5 8 167.608 181.738 27.631 48.588 o
6 -4 0 1188.080 1269.010 39.228 10.230 o
6 -4 1 100.006 102.299 12.125 149.788 o
6 -4 2 36.914 47.808 8.441 349.684 o
6 -4 3 1484.500 1548.040 62.258 6.153 o
6 -4 4 164.412 151.757 16.887 85.727 o
6 -4 5 33.218 34.333 12.544 244.632 o
6 -4 6 442.537 487.836 31.569 25.869 o
6 -4 7 698.009 686.715 34.568 17.959 o
6 -4 8 18.837 38.789 16.605 171.320 o
6 -4 9 264.289 251.284 27.186 41.359 o
6 -4 10 965.880 1018.490 70.162 7.146 o
6 -3 0 42.167 154.120 14.854 141.380 o
6 -3 1 18.150 11.108 6.671 713.511 o
6 -3 2 873.897 945.653 28.789 16.042 o
6 -3 3 1411.340 1437.460 33.244 9.373 o
6 -3 4 2.383 0.539 5.797 1520.160 o
6 -3 5 764.258 703.321 27.833 19.459 o
6 -3 6 1814.670 1855.760 56.903 5.527 o
6 -3 7 613.527 612.871 27.128 23.361 o
6 -3 8 51.682 84.238 15.079 154.079 o
6 -3 9 1156.020 1104.370 48.661 9.393 o
6 -3 10 1168.980 1192.510 49.003 9.097 o
6 -3 11 372.527 266.985 21.209 43.733 o
6 -3 12 85.861 30.191 10.370 217.995 o
6 -2 0 71.425 128.760 10.576 177.647 o
6 -2 1 402.536 433.252 15.559 43.347 o
6 -2 2 4214.290 4304.010 67.703 1.886 o
6 -2 3 398.345 402.405 16.449 43.688 o
6 -2 4 27.311 21.820 5.842 623.225 o
6 -2 5 2287.170 2300.530 42.640 4.896 o
6 -2 6 3828.720 3944.630 62.427 2.196 o
6 -2 7 363.842 351.329 18.028 45.875 o
6 -2 8 100.226 78.048 10.580 174.608 o
6 -2 9 1721.630 1777.010 41.806 6.831 o
6 -2 10 1234.980 1245.570 52.514 8.270 o
6 -2 11 436.388 463.099 22.018 34.445 o
6 -2 12 28.047 32.021 12.372 260.181 o
6 -2 13 379.894 197.424 23.759 41.716 o
6 -1 0 13.744 15.558 4.986 1000.070 o
6 -1 1 5413.000 5592.220 77.450 1.264 o
6 -1 2 2760.600 2722.980 41.291 3.900 o
6 -1 3 215.208 235.852 11.281 85.528 o
6 -1 4 26.545 46.173 7.195 450.852 o
6 -1 5 5031.760 5103.660 72.086 1.446 o
6 -1 6 1838.520 1788.280 37.941 6.721 o
6 -1 7 198.022 190.808 11.838 93.386 o
6 -1 8 113.674 112.753 9.890 157.494 o
6 -1 9 1216.110 1213.070 34.025 10.980 o
6 -1 10 380.107 391.897 17.877 43.589 o
6 -1 11 44.782 51.416 8.823 309.001 o
6 -1 12 734.169 753.703 29.183 19.035 o
6 -1 13 264.884 240.345 18.842 57.815 o
6 0 0 139.980 100.049 8.154 156.950 o
6 0 1 16388.600 16467.000 232.871 0.171 o
6 0 2 1388.120 1432.530 36.707 9.133 o
6 0 3 2331.850 2353.490 39.950 4.862 o
6 0 4 600.062 560.563 16.943 29.930 o
6 0 5 4466.790 4485.410 66.054 1.764 o
6 0 6 2464.640 2412.870 44.123 4.459 o
6 0 7 90.342 102.033 8.201 199.855 o
6 0 8 1502.620 1544.260 30.163 8.969 o
6 0 9 396.574 423.774 15.047 44.596 o
6 0 10 1254.230 1250.950 41.148 9.669 o
6 0 11 279.424 281.705 14.409 63.163 o
6 0 12 1448.370 1555.690 44.225 7.872 o
6 0 13 446.202 370.720 25.337 32.781 o
6 0 14 196.583 166.538 15.896 81.490 o
6 1 0 3322.480 3277.430 44.566 2.971 o
6 1 1 3733.400 3828.390 54.688 2.363 o
6 1 2 84.934 191.037 10.526 145.485 o
6 1 3 101.122 102.892 7.140 198.661 o
6 1 4 3454.910 3502.920 49.834 2.709 o
6 1 5 103.797 127.537 8.284 173.388 o
6 1 6 286.683 299.702 12.529 64.658 o
6 1 7 4260.670 4330.390 63.152 1.899 o
6 1 8 2874.760 2935.500 43.320 3.594 o
6 1 9 72.815 78.331 6.979 259.028 o
6 1 10 33.408 37.099 5.911 503.630 o
6 1 11 4442.470 4549.950 128.125 1.284 o
6 1 12 1573.950 1603.870 62.075 5.917 o
6 1 13 642.751 640.694 28.414 21.857 o
6 1 14 132.217 90.756 9.574 154.874 o
6 2 0 1447.910 1441.040 23.396 10.094 o
6 2 1 61.620 64.629 5.596 326.854 o
6 2 2 2493.640 2494.880 36.013 4.580 o
6 2 3 3145.720 3161.480 40.877 3.236 o
6 2 4 643.592 669.502 16.209 27.162 o
6 2 5 474.059 467.350 14.009 39.371 o
6 2 6 67.278 88.909 6.980 259.477 o
6 2 7 3483.560 3482.590 51.133 2.679 o
6 2 8 719.205 720.490 19.763 23.176 o
6 2 9 1346.900 1308.770 31.782 10.211 o
6 2 10 173.231 165.616 10.571 109.986 o
6 2 11 1127.200 1189.720 28.176 12.566 o
6 2 12 600.790 596.436 18.162 28.670 o
6 2 13 645.596 641.476 27.845 22.066 o
6 2 14 204.113 207.678 17.795 70.224 o
6 2 15 97.785 78.497 12.470 155.562 o
6 3 0 2064.510 2087.000 29.731 6.090 o
6 3 1 376.235 364.305 11.139 52.865 o
6 3 2 298.296 296.807 10.488 66.796 o
6 3 3 3032.450 3108.680 47.306 3.266 o
6 3 4 1893.140 1936.380 32.020 6.670 o
6 3 5 3895.820 3978.930 53.978 2.236 o
6 3 6 4111.760 4124.490 54.212 2.085 o
6 3 7 784.984 812.688 20.497 20.677 o
6 3 8 3238.420 3297.950 49.910 2.955 o
6 3 9 1527.490 1575.200 32.831 8.562 o
6 3 10 1424.710 1421.530 36.391 9.023 o
6 3 11 255.547 287.294 14.287 66.227 o
6 3 12 2017.750 1985.950 40.579 5.853 o
6 3 13 0.123 4.456 4.842 2118.750 o
6 3 14 141.900 153.216 13.434 108.779 o
6 3 15 358.701 228.521 16.456 53.643 o
6 4 0 617.726 652.571 17.729 27.501 o
6 4 1 946.027 909.974 18.665 17.736 o
6 4 2 2305.780 2343.280 36.106 5.045 o
6 4 3 1996.050 2173.280 34.163 5.974 o
6 4 4 1856.910 2002.580 34.830 6.536 o
6 4 5 513.825 504.003 16.646 34.567 o
6 4 6 1215.690 1342.890 31.956 10.865 o
6 4 7 855.116 886.257 23.380 18.105 o
6 4 8 2513.920 2542.070 43.414 4.309 o
6 4 9 305.446 305.682 14.289 58.837 o
6 4 10 92.359 121.384 9.920 170.125 o
6 4 11 591.913 583.537 19.667 28.340 o
6 4 12 467.249 453.659 20.235 34.911 o
6 4 13 791.057 824.179 31.832 16.875 o
6 4 14 122.805 140.743 12.042 127.583 o
6 5 0 5539.350 5490.040 77.531 1.247 o
6 5 1 311.982 277.225 12.325 63.166 o
6 5 2 990.827 1087.550 27.092 14.416 o
6 5 3 1621.420 1677.100 35.717 7.759 o
6 5 4 6966.470 7021.770 91.797 0.840 o
6 5 5 298.389 320.195 16.128 55.609 o
6 5 6 56.167 74.064 8.499 266.239 o
6 5 7 1346.740 1425.430 36.452 9.373 o
6 5 8 2090.870 2128.270 49.849 5.114 o
6 5 9 476.727 479.545 18.300 35.532 o
6 5 10 659.823 669.556 23.014 23.730 o
6 5 11 554.178 562.726 23.602 27.447 o
6 5 12 32.750 40.202 7.093 438.834 o
6 5 13 87.395 100.261 11.018 171.105 o
6 5 14 1963.580 1827.570 76.889 4.227 o
6 6 0 3335.640 3346.820 72.245 2.514 o
6 6 1 1885.190 1903.520 49.310 5.782 o
6 6 2 255.243 254.508 15.562 65.619 o
6 6 3 1921.730 1938.960 42.255 6.052 o
6 6 4 215.107 231.243 13.867 78.385 o
6 6 5 2230.170 2300.400 49.863 4.723 o
6 6 6 446.808 461.777 18.223 37.448 o
6 6 7 2290.560 2352.850 54.133 4.426 o
6 6 8 1147.320 1109.470 29.572 12.501 o
6 6 9 665.005 673.266 25.328 22.532 o
6 6 10 3056.930 3096.520 94.047 2.361 o
6 6 11 818.317 839.751 30.088 16.983 o
6 6 12 991.941 985.334 35.244 13.174 o
6 6 13 473.988 431.720 18.543 36.572 o
6 7 0 25.518 28.067 7.692 481.121 o
6 7 1 282.563 320.246 17.037 55.559 o
6 7 2 653.316 709.640 27.271 21.537 o
6 7 3 1209.610 1153.890 36.301 10.867 o
6 7 4 1126.290 1125.350 36.885 11.383 o
6 7 5 81.492 110.200 12.511 155.435 o
6 7 6 2711.340 2947.760 133.166 1.843 o
6 7 7 471.079 469.354 24.339 30.991 o
6 7 8 1265.990 1254.080 52.493 8.148 o
6 7 9 327.632 373.434 21.643 42.609 o
6 7 10 2946.030 2944.460 77.450 2.801 o
6 7 11 24.927 24.875 5.852 631.393 o
6 7 12 45.614 43.001 6.464 397.902 o
6 8 0 281.718 259.110 27.511 39.737 o
6 8 1 41.660 47.406 8.436 335.479 o
6 8 2 3404.140 3254.570 70.906 2.521 o
6 8 3 93.083 85.973 8.590 201.210 o
6 8 4 352.201 371.713 20.236 43.048 o
6 8 5 376.113 376.195 18.058 44.145 o
6 8 6 3563.450 3441.450 76.342 2.296 o
6 8 7 77.675 70.369 13.007 166.793 o
6 8 8 28.335 27.150 8.039 447.010 o
6 8 9 1844.530 1668.450 51.473 6.005 o
6 8 10 552.504 377.922 21.304 32.120 o
7 -6 0 818.410 814.111 76.922 6.844 o
7 -6 2 438.913 486.012 61.236 11.531 o
7 -6 3 767.745 751.366 72.328 7.656 o
7 -6 4 134.581 85.913 25.334 62.141 o
7 -6 5 61.085 37.542 13.914 181.223 o
7 -5 0 38.853 88.408 35.114 41.996 o
7 -5 1 84.497 121.638 35.868 37.774 o
7 -5 2 370.723 426.411 43.922 19.453 o
7 -5 3 457.897 495.988 68.718 9.559 o
7 -5 4 33.681 5.119 25.269 82.380 o
7 -5 5 400.971 440.200 55.460 13.741 o
7 -5 6 686.339 812.142 69.243 8.276 o
7 -5 7 149.692 121.570 22.807 67.069 o
7 -4 0 46.230 65.647 16.399 146.722 o
7 -4 1 108.556 81.189 13.932 134.327 o
7 -4 2 964.389 1077.910 89.348 5.132 o
7 -4 3 30.986 24.182 10.216 337.340 o
7 -4 4 70.081 103.392 28.813 56.113 o
7 -4 5 845.704 862.275 62.832 8.782 o
7 -4 6 1135.850 1181.670 63.567 7.316 o
7 -4 7 80.718 84.928 11.344 179.462 o
7 -4 9 731.460 559.389 44.368 14.704 o
7 -3 0 510.661 450.286 23.568 30.575 o
7 -3 1 2986.180 3166.990 72.878 2.789 o
7 -3 2 2827.460 3011.710 75.084 2.913 o
7 -3 3 140.617 139.830 13.909 108.832 o
7 -3 4 393.315 352.474 32.465 28.102 o
7 -3 5 3522.560 3680.190 104.719 1.875 o
7 -3 6 1426.400 1397.730 43.861 8.281 o
7 -3 7 431.635 444.803 28.123 29.496 o
7 -3 8 368.087 387.813 27.467 33.243 o
7 -3 9 1460.860 1175.260 123.456 2.859 o
7 -3 10 220.015 183.181 29.010 42.469 o
7 -2 0 1097.620 1161.770 33.359 12.049 o
7 -2 1 5361.770 5545.370 89.041 1.228 o
7 -2 2 541.554 527.933 20.293 30.524 o
7 -2 3 38.762 65.826 8.795 306.789 o
7 -2 4 1075.650 1086.530 32.136 12.713 o
7 -2 5 2253.810 2250.020 55.345 4.510 o
7 -2 6 288.150 282.802 16.204 58.510 o
7 -2 7 28.289 30.718 10.180 337.079 o
7 -2 8 770.931 777.432 28.490 18.562 o
7 -2 9 381.191 429.357 35.991 24.562 o
7 -2 10 19.034 27.977 6.851 591.431 o
7 -2 11 401.297 355.128 26.055 34.093 o
7 -1 0 2607.760 2698.480 48.234 3.943 o
7 -1 1 2781.020 3026.560 52.447 3.456 o
7 -1 2 21.423 11.389 7.725 568.960 o
7 -1 3 152.240 163.452 13.010 105.839 o
7 -1 4 1273.920 1311.860 35.383 10.169 o
7 -1 5 414.728 400.292 17.893 41.172 o
7 -1 6 119.062 137.631 13.180 122.123 o
7 -1 7 1188.300 1122.470 35.970 11.145 o
7 -1 8 633.334 593.892 25.794 23.825 o
7 -1 9 64.111 56.933 10.121 234.289 o
7 -1 10 0.322 6.312 6.185 1314.360 o
7 -1 11 1498.140 1601.110 71.256 5.379 o
7 -1 12 730.982 623.619 83.682 6.350 o
7 0 0 3504.710 3545.850 59.079 2.539 o
7 0 1 1983.250 2024.110 48.515 5.489 o
7 0 2 8.628 31.205 9.325 463.180 o
7 0 3 2253.280 2274.260 42.273 4.994 o
7 0 4 437.043 484.975 17.640 37.875 o
7 0 5 727.066 752.441 26.669 20.099 o
7 0 6 3.529 9.028 6.488 1055.490 o
7 0 7 6046.400 6011.400 96.094 1.029 o
7 0 8 389.274 403.809 17.441 43.122 o
7 0 9 259.913 277.912 14.803 65.135 o
7 0 10 137.402 136.028 14.519 107.024 o
7 0 11 2461.310 2542.060 78.086 3.314 o
7 0 12 695.909 669.073 27.624 20.977 o
7 0 13 156.098 119.977 18.837 82.127 o
7 1 0 369.463 357.715 15.611 48.377 o
7 1 1 475.837 500.370 17.983 35.352 o
7 1 2 713.676 714.939 19.750 23.365 o
7 1 3 3129.460 3239.430 56.378 2.963 o
7 1 4 288.712 277.200 12.175 66.592 o
7 1 5 336.856 364.267 17.059 48.742 o
7 1 6 1404.720 1453.300 36.133 9.069 o
7 1 7 1917.120 1917.350 40.046 6.211 o
7 1 8 465.435 445.247 17.357 37.688 o
7 1 9 8.591 9.459 5.525 1132.250 o
7 1 10 582.250 603.346 20.765 27.721 o
7 1 11 364.535 418.753 20.679 40.385 o
7 1 12 593.090 605.249 27.234 23.828 o
7 1 13 54.025 30.305 6.053 403.404 o
7 2 0 1361.120 1389.140 29.891 10.116 o
7 2 1 1537.210 1502.230 27.872 9.094 o
7 2 2 1901.830 1981.540 35.526 6.404 o
7 2 3 2098.470 2152.270 36.708 5.650 o
7 2 4 3376.460 3406.080 54.365 2.740 o
7 2 5 1324.060 1370.830 35.514 9.730 o
7 2 6 1629.700 1715.660 32.688 7.878 o
7 2 7 1117.190 1177.260 28.851 12.588 o
7 2 8 3520.270 3440.600 53.968 2.631 o
7 2 9 21.069 24.777 6.514 616.020 o
7 2 10 71.463 100.414 8.753 216.547 o
7 2 11 994.788 1016.710 31.920 13.723 o
7 2 12 679.440 672.155 26.170 21.882 o
7 2 13 154.062 121.968 16.735 92.283 o
7 3 0 1693.100 1660.830 29.482 7.959 o
7 3 1 82.597 63.773 6.665 259.416 o
7 3 2 4990.960 5239.670 74.407 1.426 o
7 3 3 2444.640 2716.990 47.100 4.178 o
7 3 4 1386.470 1426.650 37.527 9.066 o
7 3 5 78.047 99.760 9.776 195.165 o
7 3 6 1035.090 1101.990 26.361 14.055 o
7 3 7 2611.070 2680.200 47.863 3.960 o
7 3 8 187.123 215.491 12.516 90.572 o
7 3 9 1227.360 1258.070 33.423 10.856 o
7 3 10 169.445 174.666 12.908 99.253 o
7 3 11 1223.100 1088.850 34.244 11.298 o
7 3 12 43.975 44.996 7.638 358.941 o
7 3 13 1205.270 1218.570 44.762 9.481 o
7 4 0 2522.380 2409.610 47.938 4.260 o
7 4 1 1510.110 1521.740 32.020 8.826 o
7 4 2 182.324 193.860 11.386 99.029 o
7 4 3 3141.870 3148.490 56.026 2.996 o
7 4 4 118.357 142.040 14.632 111.871 o
7 4 5 2182.160 2337.690 50.501 4.746 o
7 4 6 82.091 93.029 9.695 195.489 o
7 4 7 2064.140 2063.200 56.983 4.884 o
7 4 8 164.919 179.136 11.561 106.045 o
7 4 9 2058.090 2191.850 48.588 5.174 o
7 4 10 869.352 910.622 29.881 16.007 o
7 4 11 56.278 60.771 9.009 267.831 o
7 4 12 81.455 108.311 9.129 195.146 o
7 4 13 1043.620 1003.930 52.769 9.451 o
7 5 0 61.476 63.703 9.115 253.196 o
7 5 1 1065.730 1102.210 34.306 12.332 o
7 5 2 249.425 250.316 13.761 71.092 o
7 5 3 3439.210 3414.880 61.453 2.591 o
7 5 4 1420.440 1526.290 41.013 8.347 o
7 5 5 672.831 701.589 24.801 22.319 o
7 5 6 1324.980 1355.740 37.220 9.561 o
7 5 7 551.560 540.690 20.415 29.884 o
7 5 8 1371.310 1443.470 36.015 9.260 o
7 5 9 910.150 950.542 32.423 14.709 o
7 5 10 3610.680 3509.870 74.493 2.279 o
7 5 11 121.466 128.112 8.964 154.191 o
7 5 12 186.449 192.542 12.297 94.518 o
7 6 0 1586.950 1558.270 45.489 7.291 o
7 6 1 98.741 93.612 10.954 165.422 o
7 6 2 1888.800 1974.910 51.694 5.563 o
7 6 3 106.915 115.831 13.272 132.045 o
7 6 4 1913.990 1991.570 52.016 5.477 o
7 6 5 1030.320 1075.300 34.806 12.606 o
7 6 6 2172.440 2298.080 69.866 4.010 o
7 6 7 493.699 462.176 19.217 34.428 o
7 6 8 497.258 564.824 30.433 24.504 o
7 6 9 2828.340 2893.990 74.392 2.972 o
7 6 10 666.387 720.545 33.423 18.615 o
7 6 11 306.017 251.302 13.847 62.821 o
7 7 0 391.832 349.110 16.410 46.016 o
7 7 1 881.205 848.641 33.728 15.173 o
7 7 2 2922.900 2999.570 72.788 2.897 o
7 7 3 1122.900 1145.450 34.069 11.808 o
7 7 4 120.730 118.175 10.621 145.120 o
7 7 5 3207.360 3287.930 83.763 2.414 o
7 7 6 636.461 619.479 30.400 21.218 o
7 7 7 22.293 23.409 5.806 673.384 o
7 7 8 266.047 318.517 32.620 32.264 o
7 7 9 2587.870 2428.980 84.713 3.066 o
7 7 10 28.769 19.804 7.384 506.660 o
7 8 4 487.863 368.327 19.766 36.325 o
7 8 5 1638.320 1283.900 47.499 7.385 o
8 -5 0 199.028 158.044 26.581 49.584 o
8 -5 3 29.462 3.085 16.474 179.564 o
8 -5 4 247.538 202.346 30.979 37.377 o
8 -4 0 715.319 663.680 62.614 9.647 o
8 -4 1 1413.180 1377.930 64.909 6.267 o
8 -4 2 517.329 498.227 47.682 15.643 o
8 -4 3 62.335 110.263 35.770 39.105 o
8 -4 4 931.112 1205.090 103.109 4.120 o
8 -4 5 607.036 571.173 52.506 12.962 o
8 -4 6 245.853 207.531 32.948 34.498 o
8 -4 7 5.222 1.641 7.548 865.248 o
8 -3 0 1494.360 1527.930 50.604 7.170 o
8 -3 1 1657.250 1723.710 57.664 5.939 o
8 -3 2 294.803 304.103 23.737 43.631 o
8 -3 3 124.342 112.099 15.222 111.238 o
8 -3 4 1197.980 1075.300 129.756 2.768 o
8 -3 5 274.303 301.632 109.870 4.468 o
8 -3 6 30.606 31.968 11.984 266.978 o
8 -3 7 286.470 235.589 18.762 56.019 o
8 -3 8 547.901 431.797 29.386 25.557 o
8 -2 0 1918.640 1991.380 57.752 5.157 o
8 -2 1 122.801 178.007 16.010 96.841 o
8 -2 2 184.704 158.770 15.757 85.301 o
8 -2 3 414.256 461.096 28.663 29.312 o
8 -2 4 680.014 692.517 33.806 18.465 o
8 -2 5 16.655 22.674 9.028 462.329 o
8 -2 6 23.441 39.219 12.411 260.865 o
8 -2 7 1118.920 1171.730 40.195 10.740 o
8 -2 8 309.275 353.201 25.254 39.226 o
8 -2 9 3.154 1.596 6.793 1097.230 o
8 -1 0 393.123 392.013 19.757 40.603 o
8 -1 1 190.257 210.020 14.494 83.412 o
8 -1 2 582.671 569.726 26.784 24.717 o
8 -1 3 1451.810 1575.040 55.599 6.772 o
8 -1 4 72.451 65.126 11.584 193.577 o
8 -1 5 102.417 96.946 10.211 168.917 o
8 -1 6 1170.180 1163.140 36.824 10.998 o
8 -1 7 2080.910 2077.570 81.927 3.744 o
8 -1 8 286.002 340.047 20.933 47.569 o
8 -1 9 20.896 14.108 6.022 730.265 o
8 -1 10 816.679 805.442 37.670 14.910 o
8 0 0 257.245 241.166 14.576 68.623 o
8 0 1 544.719 556.322 23.448 27.910 o
8 0 2 2267.080 2448.120 63.731 4.039 o
8 0 3 2119.550 2124.140 42.550 5.388 o
8 0 4 822.652 851.641 27.124 17.744 o
8 0 5 54.198 66.641 9.235 261.130 o
8 0 6 1279.950 1414.000 41.850 9.079 o
8 0 7 1441.870 1422.490 39.340 8.641 o
8 0 8 1329.460 1269.180 38.753 9.566 o
8 0 9 85.074 79.473 10.152 193.478 o
8 0 10 244.741 265.169 14.197 69.611 o
8 0 11 447.338 408.359 21.180 35.948 o
8 1 0 437.846 452.104 21.091 35.474 o
8 1 1 59.090 62.273 8.321 276.077 o
8 1 2 4430.000 4611.480 75.909 1.682 o
8 1 3 1165.470 1182.480 38.350 10.731 o
8 1 4 1129.570 1222.210 31.591 11.891 o
8 1 5 387.891 381.796 20.620 40.184 o
8 1 6 1816.230 1842.630 42.701 6.418 o
8 1 7 891.848 910.318 28.559 16.098 o
8 1 8 243.494 230.966 14.098 72.760 o
8 1 9 538.548 571.764 23.779 27.654 o
8 1 10 434.020 422.984 21.418 35.991 o
8 1 11 582.260 525.792 20.228 29.234 o
8 2 0 1254.190 1265.240 34.314 10.553 o
8 2 1 1344.810 1329.180 34.504 9.849 o
8 2 2 1657.600 1655.730 40.965 7.274 o
8 2 3 1455.010 1540.590 35.681 8.694 o
8 2 4 120.797 104.222 10.049 154.172 o
8 2 5 818.945 898.085 26.154 17.760 o
8 2 6 547.326 577.576 23.034 27.785 o
8 2 7 931.894 944.086 29.113 15.323 o
8 2 8 421.439 405.081 17.387 41.167 o
8 2 9 817.431 891.483 33.552 15.666 o
8 2 10 380.794 336.976 18.265 44.886 o
8 2 11 211.674 208.856 14.295 79.867 o
8 2 12 721.945 473.071 71.606 8.248 o
8 3 0 55.060 77.304 11.282 211.223 o
8 3 1 1320.680 1340.860 35.889 9.780 o
8 3 2 234.719 247.909 16.047 67.736 o
8 3 3 2130.830 2176.230 48.638 5.051 o
8 3 4 1366.550 1362.170 32.713 9.851 o
8 3 5 413.941 463.186 17.783 39.542 o
8 3 6 647.713 694.581 22.289 24.050 o
8 3 7 191.736 195.667 12.568 91.711 o
8 3 8 1660.840 1693.220 57.627 5.967 o
8 3 9 1044.590 1078.420 50.322 9.687 o
8 3 10 1126.960 1080.280 38.082 11.320 o
8 3 11 146.084 105.557 10.909 132.517 o
8 3 12 369.009 253.277 26.122 37.599 o
8 4 0 2028.750 1971.720 58.934 4.923 o
8 4 1 225.171 244.389 16.111 69.212 o
8 4 2 825.217 834.231 30.788 16.720 o
8 4 3 4.031 16.670 6.787 884.593 o
8 4 4 3833.180 3893.550 87.255 1.930 o
8 4 5 815.508 845.568 25.623 18.339 o
8 4 6 1011.020 1058.380 27.191 14.341 o
8 4 7 582.227 592.114 20.386 28.103 o
8 4 8 1262.340 1369.220 51.876 8.035 o
8 4 9 2707.290 2767.270 67.712 3.287 o
8 4 10 512.610 515.091 32.178 23.600 o
8 4 11 727.709 540.159 42.596 15.438 o
8 5 0 982.877 956.469 35.463 13.319 o
8 5 1 228.513 240.595 15.204 71.451 o
8 5 2 1548.110 1610.860 49.482 6.990 o
8 5 3 727.252 758.535 26.655 20.050 o
8 5 4 656.961 696.182 28.411 21.088 o
8 5 5 2539.480 2592.900 59.077 3.784 o
8 5 6 96.016 106.093 9.278 180.188 o
8 5 7 109.688 121.253 10.154 155.047 o
8 5 8 296.689 322.933 19.136 50.428 o
8 5 9 2640.080 2651.830 79.825 3.075 o
8 5 10 39.925 28.436 6.521 459.323 o
8 6 0 625.077 606.420 22.216 25.717 o
8 6 1 2097.470 2129.020 56.144 4.814 o
8 6 2 20.060 15.120 6.291 704.883 o
8 6 3 534.245 554.996 30.133 23.989 o
8 6 4 1131.280 1190.930 40.389 10.584 o
8 6 5 2806.780 2751.160 71.169 3.122 o
8 6 6 446.802 415.935 22.414 34.632 o
8 6 7 31.240 27.977 5.910 553.935 o
8 6 8 1833.840 1757.140 58.804 5.469 o
8 6 9 449.306 347.384 19.889 38.623 o
9 -3 1 7.404 8.007 13.389 290.814 o
9 -3 2 48.503 58.610 17.721 132.067 o
9 -3 4 140.982 145.712 16.886 91.824 o
9 -3 5 34.377 14.893 6.919 515.158 o
9 -2 0 157.050 143.664 14.135 101.687 o
9 -2 1 5.952 -3.288 13.614 293.916 o
9 -2 2 1152.210 1155.400 92.411 4.637 o
9 -2 3 1178.010 1240.160 50.773 8.719 o
9 -2 4 223.308 213.506 17.057 69.132 o
9 -2 5 85.387 79.302 12.233 166.919 o
9 -2 6 1285.980 1326.210 90.967 4.497 o
9 -2 7 1017.680 732.446 30.108 15.295 o
9 -1 0 30.256 15.471 6.262 592.572 o
9 -1 1 545.356 579.199 30.373 23.357 o
9 -1 2 2745.470 3084.010 98.302 2.440 o
9 -1 3 644.729 559.951 31.622 21.001 o
9 -1 4 45.013 53.302 14.977 171.424 o
9 -1 5 920.033 932.282 32.899 14.585 o
9 -1 6 1140.710 1199.650 62.694 7.382 o
9 -1 7 611.223 579.627 24.504 25.190 o
9 -1 8 5.186 5.023 4.254 1930.140 o
9 0 0 324.126 348.344 16.748 50.904 o
9 0 1 902.580 947.086 31.450 15.044 o
9 0 2 1271.380 1349.860 84.313 4.955 o
9 0 3 750.703 799.896 37.446 15.664 o
9 0 4 230.087 233.421 18.732 62.380 o
9 0 5 719.878 724.564 54.857 11.219 o
9 0 6 255.951 254.225 14.594 67.815 o
9 0 7 267.170 263.017 16.085 62.344 o
9 0 8 38.162 40.358 5.822 467.566 o
9 0 9 403.683 282.181 19.424 43.685 o
9 1 0 50.348 40.254 7.496 350.084 o
9 1 1 1560.590 1620.600 44.003 7.401 o
9 1 2 145.518 159.986 12.857 109.510 o
9 1 3 548.189 566.105 28.699 24.425 o
9 1 4 449.244 481.752 31.520 25.818 o
9 1 5 714.383 767.211 35.313 16.973 o
9 1 6 303.174 319.618 24.604 41.361 o
9 1 7 50.103 40.835 7.739 342.159 o
9 1 8 949.868 902.682 42.888 12.120 o
9 1 9 570.813 483.377 17.934 31.804 o
9 2 0 528.383 534.126 20.462 30.763 o
9 2 1 915.510 932.866 38.491 13.269 o
9 2 2 243.648 256.247 16.146 65.670 o
9 2 3 25.582 56.854 9.870 318.991 o
9 2 4 838.736 843.544 38.427 14.314 o
9 2 5 663.314 731.951 26.134 21.635 o
9 2 6 948.054 960.843 33.119 14.133 o
9 2 7 1037.840 1013.600 29.273 13.889 o
9 2 8 671.694 669.251 31.893 19.551 o
9 2 9 1114.880 1064.900 38.527 11.368 o
9 3 0 1256.540 1274.930 45.672 9.005 o
9 3 1 453.785 483.312 23.515 32.045 o
9 3 2 281.595 318.932 19.045 52.040 o
9 3 3 1251.240 1294.110 38.671 9.907 o
9 3 4 1220.700 1241.830 37.497 10.373 o
9 3 5 1223.670 1308.710 62.289 7.060 o
9 3 6 86.104 85.192 9.168 202.279 o
9 3 7 1035.320 1014.480 31.325 13.499 o
9 3 8 932.824 848.039 25.953 16.646 o
9 3 9 1303.300 1042.520 35.381 10.773 o
9 4 0 220.152 207.258 15.201 75.622 o
9 4 1 1445.890 1415.620 48.471 7.704 o
9 4 2 36.522 34.739 8.722 362.588 o
9 4 3 1175.690 1180.100 37.666 10.784 o
9 4 4 623.222 676.133 22.913 24.550 o
9 4 5 1893.990 1777.060 49.509 5.892 o
9 4 6 319.918 305.691 16.487 53.610 o
9 4 7 177.657 169.033 11.784 102.572 o
9 4 8 703.758 560.113 20.094 25.314 o
9 5 1 1271.820 1029.230 33.563 11.278 o
9 5 2 122.489 105.677 11.169 143.438 o
9 5 3 98.312 82.106 10.670 173.494 o
9 5 4 2074.640 1922.800 68.977 4.404 o
9 5 5 244.158 209.318 13.046 77.351 o
9 5 6 120.328 100.368 10.662 150.587 o
10 -1 0 104.442 74.832 11.256 165.048 o
10 -1 1 633.618 474.795 24.410 25.999 o
10 -1 2 400.135 291.476 26.778 34.625 o
10 0 0 295.494 266.142 18.771 53.670 o
10 0 1 290.029 236.106 14.521 64.517 o
10 0 2 287.751 285.369 16.140 58.535 o
10 0 3 54.478 57.704 7.835 303.343 o
10 0 4 343.397 246.581 17.116 53.121 o
10 1 0 1138.680 1045.820 33.569 12.135 o
10 1 1 633.534 605.999 26.296 23.433 o
10 1 2 5.481 9.358 7.821 747.840 o
10 1 3 935.950 934.479 36.864 13.480 o
10 1 4 837.023 677.612 25.644 19.282 o
10 1 5 987.679 820.608 48.831 10.880 o
10 2 0 668.431 539.240 34.917 19.239 o
10 2 1 665.874 526.160 26.516 23.484 o
10 2 2 216.604 168.838 13.777 84.691 o
10 2 3 1631.790 1363.520 66.211 5.727 o
10 2 4 705.525 586.955 39.117 16.710 o
;
_olex2_submission_special_instructions 'No special instructions were received'
_oxdiff_exptl_absorpt_empirical_details
;
Empirical correction (ABSPACK) includes:
- Absorption correction using spherical harmonics
- Frame scaling
- Detector area scaling
;
loop_
_space_group_symop_id
_space_group_symop_operation_xyz
1 x,y,z
2 -x,-y,-z
loop_
_atom_site_label
_atom_site_type_symbol
_atom_site_fract_x
_atom_site_fract_y
_atom_site_fract_z
_atom_site_U_iso_or_equiv
_atom_site_adp_type
_atom_site_occupancy
_atom_site_refinement_flags_posn
I1 I 0.63809(2) 0.55521(3) 0.634517(14) 0.01801(7) Uani 1.000000 .
Br1 Br -0.05914(6) -0.26210(6) 0.92105(3) 0.04022(13) Uani 1.000000 .
Cl1 Cl 0.69951(10) 0.64491(10) 0.42360(6) 0.02111(17) Uani 1.000000 .
F4 F 0.6056(3) 0.6516(3) 0.83067(16) 0.0279(5) Uani 1.000000 .
F3 F 0.7494(3) 0.4162(3) 0.84125(16) 0.0296(5) Uani 1.000000 .
F2 F 0.3192(3) 0.5137(3) 0.82327(18) 0.0302(5) Uani 1.000000 .
F1 F 0.4470(3) 0.3627(3) 0.94946(15) 0.0329(5) Uani 1.000000 .
O1 O 0.4587(3) 0.2754(3) 0.80695(18) 0.0227(5) Uani 1.000000 .
O2 O 0.6195(3) 1.1375(3) 0.6140(2) 0.0310(6) Uani 1.000000 D
H2 H 0.516(4) 1.189(6) 0.605(4) 0.0465(9) Uiso 1.000000 DR
O3 O 0.4939(3) 0.9004(4) 0.6254(3) 0.0460(9) Uani 1.000000 .
C14 C 0.7927(4) 0.8952(4) 0.6282(2) 0.0177(6) Uani 1.000000 .
C1 C 0.1000(5) -0.0898(5) 0.8911(3) 0.0268(8) Uani 1.000000 .
C11 C 1.1234(4) 0.7589(5) 0.6295(3) 0.0235(7) Uani 1.000000 .
H3 H 1.2332(4) 0.7145(5) 0.6285(3) 0.0282(9) Uiso 1.000000 R
C4 C 0.3302(4) 0.1548(5) 0.8406(3) 0.0222(7) Uani 1.000000 .
C8 C 0.6137(4) 0.5058(5) 0.8033(3) 0.0219(7) Uani 1.000000 .
C10 C 0.9888(4) 0.6567(5) 0.6303(3) 0.0213(7) Uani 1.000000 .
H6 H 1.0079(4) 0.5440(5) 0.6309(3) 0.0256(8) Uiso 1.000000 R
C5 C 0.1636(5) 0.2001(5) 0.8257(3) 0.0258(8) Uani 1.000000 .
H7 H 0.1307(5) 0.3117(5) 0.7983(3) 0.0310(9) Uiso 1.000000 R
C13 C 0.9307(4) 0.9930(5) 0.6286(3) 0.0202(7) Uani 1.000000 .
H8 H 0.9123(4) 1.1058(5) 0.6278(3) 0.0242(8) Uiso 1.000000 R
C7 C 0.4540(5) 0.4085(5) 0.8468(3) 0.0224(7) Uani 1.000000 .
C9 C 0.8275(4) 0.7267(4) 0.6301(2) 0.0184(7) Uani 1.000000 .
C12 C 1.0933(4) 0.9250(5) 0.6301(3) 0.0229(7) Uani 1.000000 .
H11 H 1.1826(4) 0.9917(5) 0.6315(3) 0.0275(9) Uiso 1.000000 R
C3 C 0.3842(5) -0.0078(5) 0.8801(3) 0.0262(8) Uani 1.000000 .
H12 H 0.4974(5) -0.0339(5) 0.8893(3) 0.0314(9) Uiso 1.000000 R
C15 C 0.6192(4) 0.9778(5) 0.6219(3) 0.0233(7) Uani 1.000000 .
C6 C 0.0466(5) 0.0746(5) 0.8528(3) 0.0283(8) Uani 1.000000 .
H14 H -0.0670(5) 0.1012(5) 0.8452(3) 0.0340(10) Uiso 1.000000 R
C2 C 0.2662(5) -0.1339(5) 0.9063(3) 0.0302(8) Uani 1.000000 .
H15 H 0.2992(5) -0.2454(5) 0.9336(3) 0.0362(10) Uiso 1.000000 R
loop_
_atom_site_aniso_label
_atom_site_aniso_U_11
_atom_site_aniso_U_22
_atom_site_aniso_U_33
_atom_site_aniso_U_12
_atom_site_aniso_U_13
_atom_site_aniso_U_23
I1 0.01715(11) 0.01540(12) 0.02278(11) -0.00431(8) -0.00224(7) -0.00623(8)
Br1 0.0453(3) 0.0443(3) 0.0352(2) -0.0321(2) 0.00566(18) -0.01412(19)
Cl1 0.0197(4) 0.0203(4) 0.0241(4) -0.0004(3) -0.0020(3) -0.0071(3)
F4 0.0333(12) 0.0264(12) 0.0283(10) -0.0137(9) 0.0013(9) -0.0135(9)
F3 0.0238(11) 0.0325(13) 0.0311(11) -0.0074(9) -0.0103(8) -0.0012(9)
F2 0.0216(10) 0.0246(12) 0.0460(13) -0.0038(9) -0.0018(9) -0.0118(10)
F1 0.0370(12) 0.0429(14) 0.0208(10) -0.0209(11) 0.0026(9) -0.0092(9)
O1 0.0224(12) 0.0203(13) 0.0270(12) -0.0099(10) 0.0001(10) -0.0076(10)
O2 0.0186(12) 0.0183(14) 0.0605(18) 0.0019(10) -0.0101(12) -0.0160(13)
O3 0.0150(13) 0.0190(15) 0.107(3) 0.0003(11) -0.0116(15) -0.0195(16)
C14 0.0171(15) 0.0155(16) 0.0219(15) -0.0037(13) -0.0022(12) -0.0067(13)
C1 0.0309(19) 0.030(2) 0.0229(16) -0.0176(17) 0.0019(14) -0.0107(15)
C11 0.0145(15) 0.027(2) 0.0286(17) -0.0009(14) -0.0045(13) -0.0063(15)
C4 0.0218(17) 0.0228(19) 0.0228(16) -0.0135(15) 0.0012(13) -0.0057(14)
C8 0.0229(17) 0.0209(18) 0.0237(16) -0.0082(14) -0.0041(13) -0.0065(14)
C10 0.0151(15) 0.0206(18) 0.0276(17) -0.0022(14) -0.0037(13) -0.0040(14)
C5 0.0277(19) 0.024(2) 0.0263(17) -0.0049(16) -0.0040(14) -0.0063(15)
C13 0.0172(16) 0.0197(18) 0.0241(16) -0.0047(14) -0.0018(12) -0.0056(13)
C7 0.0237(17) 0.0217(18) 0.0232(16) -0.0084(15) -0.0007(13) -0.0072(14)
C9 0.0152(15) 0.0205(17) 0.0221(15) -0.0068(13) -0.0037(12) -0.0078(13)
C12 0.0173(16) 0.027(2) 0.0251(17) -0.0070(14) -0.0032(13) -0.0064(14)
C3 0.0244(18) 0.025(2) 0.0297(18) -0.0065(16) -0.0034(14) -0.0070(15)
C15 0.0200(17) 0.0237(19) 0.0284(17) -0.0078(15) -0.0002(13) -0.0100(15)
C6 0.0213(17) 0.039(2) 0.0288(18) -0.0119(17) -0.0011(14) -0.0140(17)
C2 0.037(2) 0.023(2) 0.0316(19) -0.0088(17) -0.0007(16) -0.0082(16)
loop_
_atom_type_symbol
_atom_type_scat_dispersion_real
_atom_type_scat_dispersion_imag
_atom_type_scat_Cromer_Mann_a1
_atom_type_scat_Cromer_Mann_a2
_atom_type_scat_Cromer_Mann_a3
_atom_type_scat_Cromer_Mann_a4
_atom_type_scat_Cromer_Mann_b1
_atom_type_scat_Cromer_Mann_b2
_atom_type_scat_Cromer_Mann_b3
_atom_type_scat_Cromer_Mann_b4
_atom_type_scat_Cromer_Mann_c
_atom_type_scat_source
_atom_type_scat_dispersion_source
C 0.01920 0.00962 2.31000 1.02000 1.58860 0.86500 20.84390 10.20750 0.56870
51.65120 0.215599998832
'International Tables Volume C Table 6.1.1.4 (pp. 500-502)'
'Henke, Gullikson and Davis, At. Data and Nucl. Data Tables, 1993, 54, 2'
Cl 0.36843 0.69943 11.46040 7.19640 6.25560 1.64550 0.01040 1.16620 18.51940
47.77840 -9.55739974976
'International Tables Volume C Table 6.1.1.4 (pp. 500-502)'
'Henke, Gullikson and Davis, At. Data and Nucl. Data Tables, 1993, 54, 2'
I -0.19206 6.94430 20.14720 18.99490 7.51380 2.27350 4.34700 0.38140 27.76600
66.87760 4.07119989395
'International Tables Volume C Table 6.1.1.4 (pp. 500-502)'
'Henke, Gullikson and Davis, At. Data and Nucl. Data Tables, 1993, 54, 2'
H 0.00000 0.00000 0.49300 0.32291 0.14019 0.04081 10.51090 26.12570 3.14236
57.79970 0.0030380000826
'International Tables Volume C Table 6.1.1.4 (pp. 500-502)'
'Henke, Gullikson and Davis, At. Data and Nucl. Data Tables, 1993, 54, 2'
F 0.07537 0.05506 3.53920 2.64120 1.51700 1.02430 10.28250 4.29440 0.26150
26.14760 0.277599990368
'International Tables Volume C Table 6.1.1.4 (pp. 500-502)'
'Henke, Gullikson and Davis, At. Data and Nucl. Data Tables, 1993, 54, 2'
O 0.05239 0.03377 3.04850 2.28680 1.54630 0.86700 13.27710 5.70110 0.32390
32.90890 0.250800013542
'International Tables Volume C Table 6.1.1.4 (pp. 500-502)'
'Henke, Gullikson and Davis, At. Data and Nucl. Data Tables, 1993, 54, 2'
Br -0.67402 1.33011 17.17890 5.23580 5.63770 3.98510 2.17230 16.57960 0.26090
41.43280 2.95569992065
'International Tables Volume C Table 6.1.1.4 (pp. 500-502)'
'Henke, Gullikson and Davis, At. Data and Nucl. Data Tables, 1993, 54, 2'
loop_
_exptl_crystal_face_index_h
_exptl_crystal_face_index_k
_exptl_crystal_face_index_l
_exptl_crystal_face_perp_dist
-3 -2 6 0.0081
3 0 -6 0.0251
-1 5 0 0.0487
3 -4 -4 0.0568
-3 -3 -7 0.0367
3 3 7 0.0293
-4 2 -4 0.0447
4 -2 3 0.0592
1 -3 -7 0.0458
0 0 -9 0.0271
-1 4 -4 0.0420
1 -1 -9 0.0297
4 4 2 0.0236
-4 -2 -6 0.0378
1 1 -7 0.0207
4 3 -2 0.0138
5 -1 -3 0.0441
loop_
_geom_angle_atom_site_label_1
_geom_angle_atom_site_label_2
_geom_angle_atom_site_label_3
_geom_angle
C8 I1 Cl1 172.85(9)
C9 I1 Cl1 84.68(9)
C9 I1 C8 88.16(12)
C7 O1 C4 119.1(3)
C15 O2 H2 113(3)
C9 C14 C13 116.8(3)
C15 C14 C13 119.0(3)
C15 C14 C9 124.1(3)
C6 C1 Br1 119.1(3)
C2 C1 Br1 118.8(3)
C2 C1 C6 122.0(3)
C10 C11 H3 119.9(2)
C12 C11 H3 119.9(2)
C12 C11 C10 120.1(3)
C5 C4 O1 120.9(3)
C3 C4 O1 116.0(3)
C3 C4 C5 122.8(3)
F4 C8 I1 110.3(2)
F3 C8 I1 109.7(2)
F3 C8 F4 107.8(3)
C7 C8 I1 109.4(2)
C7 C8 F4 109.5(3)
C7 C8 F3 110.0(3)
H6 C10 C11 120.7(2)
C9 C10 C11 118.7(3)
C9 C10 H6 120.7(2)
H7 C5 C4 120.9(2)
C6 C5 C4 118.2(4)
C6 C5 H7 120.9(2)
H8 C13 C14 119.3(2)
C12 C13 C14 121.4(3)
C12 C13 H8 119.3(2)
F1 C7 F2 105.8(3)
O1 C7 F2 113.2(3)
O1 C7 F1 112.5(3)
C8 C7 F2 108.4(3)
C8 C7 F1 109.9(3)
C8 C7 O1 107.1(3)
C14 C9 I1 123.1(2)
C10 C9 I1 114.1(3)
C10 C9 C14 122.8(3)
C13 C12 C11 120.2(3)
H11 C12 C11 119.9(2)
H11 C12 C13 119.9(2)
H12 C3 C4 120.6(2)
C2 C3 C4 118.8(4)
C2 C3 H12 120.6(3)
O3 C15 O2 124.3(4)
C14 C15 O2 113.0(3)
C14 C15 O3 122.8(3)
C5 C6 C1 119.4(4)
H14 C6 C1 120.3(2)
H14 C6 C5 120.3(2)
C3 C2 C1 118.7(4)
H15 C2 C1 120.6(2)
H15 C2 C3 120.6(3)
loop_
_geom_bond_atom_site_label_1
_geom_bond_atom_site_label_2
_geom_bond_distance
I1 Cl1 2.7865(8)
I1 C8 2.229(3)
I1 C9 2.117(3)
Br1 C1 1.898(3)
F4 C8 1.345(4)
F3 C8 1.344(4)
F2 C7 1.352(5)
F1 C7 1.352(4)
O1 C4 1.428(4)
O1 C7 1.344(4)
O2 H2 0.911(19)
O2 C15 1.292(5)
O3 C15 1.209(4)
C14 C13 1.405(4)
C14 C9 1.393(5)
C14 C15 1.507(5)
C1 C6 1.376(6)
C1 C2 1.376(6)
C11 H3 0.9300
C11 C10 1.402(5)
C11 C12 1.377(6)
C4 C5 1.381(5)
C4 C3 1.368(6)
C8 C7 1.531(5)
C10 H6 0.9300
C10 C9 1.380(5)
C5 H7 0.9300
C5 C6 1.388(5)
C13 H8 0.9300
C13 C12 1.384(5)
C12 H11 0.9300
C3 H12 0.9300
C3 C2 1.396(5)
C6 H14 0.9300
C2 H15 0.9300
loop_
_restr_distance_atom_site_label_1
_restr_distance_atom_site_label_2
_restr_distance_site_symmetry_2
_restr_distance_target
_restr_distance_target_weight_param
_restr_distance_diff
O2 H2 1 0.9300 0.0200 0.0186
