#------------------------------------------------------------------------------
#$Date: 2019-11-17 06:29:55 +0200 (Sun, 17 Nov 2019) $
#$Revision: 228424 $
#$URL: file:///home/coder/svn-repositories/cod/cif/7/12/12/7121293.cif $
#------------------------------------------------------------------------------
#
# This file is available in the Crystallography Open Database (COD),
# http://www.crystallography.net/
#
# All data on this site have been placed in the public domain by the
# contributors.
#
data_7121293
loop_
_publ_author_name
'Shuku, Yoshiaki'
'Mizuno, Asato'
'Ushiroguchi, Ryo'
'Hyun, Chang Seok'
'Ryu, Young Jun'
'An, Byeong-Kwan'
'Kwon, Ji Eon'
'Park, Soo Young'
'Tsuchiizu, Masahisa'
'Awaga, Kunio'
_publ_section_title
;
 An exotic band structure of a supramolecular honeycomb lattice formed by
 a pancake \p-\p interaction between triradical trianions of triptycene
 tribenzoquinone.
;
_journal_issue                   31
_journal_name_full
'Chemical communications (Cambridge, England)'
_journal_page_first              3815
_journal_page_last               3818
_journal_paper_doi               10.1039/c8cc00753e
_journal_volume                  54
_journal_year                    2018
_chemical_formula_moiety         'C20 H8 O6 Rb3'
_chemical_formula_sum            'C20 H8 O6 Rb3'
_chemical_formula_weight         600.68
_space_group_crystal_system      hexagonal
_space_group_IT_number           175
_space_group_name_Hall           '-P 6'
_space_group_name_H-M_alt        'P 6/m'
_symmetry_space_group_name_Hall  '-P 6'
_symmetry_space_group_name_H-M   'P 6/m'
_atom_sites_solution_hydrogens   geom
_atom_sites_solution_primary     direct
_atom_sites_solution_secondary   difmap
_audit_update_record
;
2018-01-13 deposited with the CCDC.
2018-02-12 downloaded from the CCDC.
;
_cell_angle_alpha                90.0000
_cell_angle_beta                 90.0000
_cell_angle_gamma                120.0000
_cell_formula_units_Z            2
_cell_length_a                   11.6406(19)
_cell_length_b                   11.6406(19)
_cell_length_c                   8.6575(14)
_cell_measurement_reflns_used    3264
_cell_measurement_temperature    123
_cell_measurement_theta_max      27.45
_cell_measurement_theta_min      3.10
_cell_volume                     1016.0(3)
_computing_cell_refinement       CrystalClear
_computing_data_collection       'CrystalClear (Rigaku/MSC Inc., 2006)'
_computing_data_reduction        CrystalClear
_computing_molecular_graphics    'CrystalStructure 4.2.2'
_computing_publication_material  'CrystalStructure 4.2.2 (Rigaku, 2016)'
_computing_structure_refinement  'SHELXL Version 2016/4 (Sheldrick, 2008)'
_computing_structure_solution    'SIR92 (Altomare, et al., 1994)'
_diffrn_ambient_temperature      123
_diffrn_detector_area_resol_mean 7.314
_diffrn_measured_fraction_theta_full 0.991
_diffrn_measured_fraction_theta_max 0.988
_diffrn_measurement_device_type  'Rigaku Saturn70'
_diffrn_measurement_method       \w
_diffrn_radiation_type           'Mo K\a'
_diffrn_radiation_wavelength     0.71075
_diffrn_reflns_av_R_equivalents  0.0222
_diffrn_reflns_Laue_measured_fraction_full 0.991
_diffrn_reflns_Laue_measured_fraction_max 0.988
_diffrn_reflns_limit_h_max       13
_diffrn_reflns_limit_h_min       -15
_diffrn_reflns_limit_k_max       15
_diffrn_reflns_limit_k_min       -15
_diffrn_reflns_limit_l_max       11
_diffrn_reflns_limit_l_min       -9
_diffrn_reflns_number            8096
_diffrn_reflns_point_group_measured_fraction_full 0.991
_diffrn_reflns_point_group_measured_fraction_max 0.988
_diffrn_reflns_theta_full        25.242
_diffrn_reflns_theta_max         27.456
_diffrn_reflns_theta_min         3.102
_diffrn_standards_number         0
_exptl_absorpt_coefficient_mu    7.217
_exptl_absorpt_correction_T_max  0.930
_exptl_absorpt_correction_T_min  0.835
_exptl_absorpt_correction_type   multi-scan
_exptl_absorpt_process_details   'REQAB (Rigaku, 1998)'
_exptl_crystal_colour            red
_exptl_crystal_density_diffrn    1.963
_exptl_crystal_density_method    'not measured'
_exptl_crystal_description       prism
_exptl_crystal_F_000             574.00
_exptl_crystal_size_max          0.180
_exptl_crystal_size_mid          0.020
_exptl_crystal_size_min          0.010
_refine_diff_density_max         1.72
_refine_diff_density_min         -0.81
_refine_ls_extinction_method     none
_refine_ls_goodness_of_fit_ref   1.119
_refine_ls_hydrogen_treatment    constr
_refine_ls_number_parameters     46
_refine_ls_number_reflns         827
_refine_ls_number_restraints     0
_refine_ls_R_factor_all          0.0254
_refine_ls_R_factor_gt           0.0249
_refine_ls_shift/su_max          0.000
_refine_ls_structure_factor_coef Fsqd
_refine_ls_weighting_details
'w = 1/[\s^2^(Fo^2^)+(0.0292P)^2^+1.9709P] where P=(Fo^2^+2Fc^2^)/3'
_refine_ls_weighting_scheme      calc
_refine_ls_wR_factor_gt          0.0617
_refine_ls_wR_factor_ref         0.0621
_reflns_Friedel_coverage         0.000
_reflns_number_gt                815
_reflns_number_total             827
_reflns_threshold_expression     F^2^>2.0\s(F^2^)
_cod_data_source_file            c8cc00753e2.cif
_cod_data_source_block           Rb3TT
_cod_depositor_comments
'Adding full bibliography for 7121292--7121294.cif.'
_cod_database_code               7121293
_shelx_res_file
;
TITL xray320
 shelxl.res created by SHELXL-2016/4 at 22:27:50 on 20-Jul-2017
CELL  0.71075 11.64060 11.64060 8.65750 90.00000 90.00000 120.00000
ZERR  2 0.00190 0.00190 0.00140 0.00000 0.00000 0.00000
LATT 1
SYMM    -Y,    +X-Y,    +Z
SYMM    -X+Y,    -X,    +Z
SYMM    -X,    -Y,    +Z
SYMM    +Y,    -X+Y,    +Z
SYMM    +X-Y,    +X,    +Z
SFAC C H O RB
UNIT 40 16 12 6
L.S. 20
FMAP 2
PLAN 25
WPDB -2
HTAB
BOND $H
CONF
LIST 4
TEMP -149.8
ACTA
SIZE 0.180 0.020 0.010
ABIN
WGHT    0.029200    1.970900
FVAR       0.46952
RB6   4    0.686974    0.130527    0.000000    10.50000    0.01872    0.01290 =
         0.01283    0.00000    0.00000    0.00365
O5    3    0.896037    0.346651    0.184083    11.00000    0.01312    0.01723 =
         0.00813   -0.00153    0.00218    0.00444
C1    1    1.004451    0.353132    0.420934    11.00000    0.01009    0.01438 =
         0.01446   -0.00099    0.00131    0.00520
AFIX  43
H1    2    1.077154    0.355419    0.368244    11.00000   -1.20000
AFIX   0
C2    1    0.898259    0.349797    0.330995    11.00000    0.01075    0.00840 =
         0.00944   -0.00035    0.00093    0.00238
C3    1    0.791295    0.343150    0.420895    11.00000    0.01049    0.00944 =
         0.00891    0.00008    0.00024    0.00469
C4    1    0.666667    0.333333    0.351092    10.33333    0.01038    0.01038 =
         0.00714    0.00000    0.00000    0.00519
AFIX  13
H4    2    0.666666    0.333333    0.235585    10.33333   -1.20000
AFIX   0
HKLF 4




REM  xray320
REM R1 =  0.0249 for     815 Fo > 4sig(Fo)  and  0.0254 for all     827 data
REM     46 parameters refined using      0 restraints

END

WGHT      0.0292      1.9707

REM No hydrogen bonds found for HTAB generation

REM Highest difference peak  1.718,  deepest hole -0.814,  1-sigma level  0.096
Q1    1   0.7469  0.1070  0.0000  10.50000  0.05    1.72
Q2    1   0.9520  0.3539  0.3795  11.00000  0.05    0.44
Q3    1   0.7298  0.3346  0.3809  11.00000  0.05    0.41
Q4    1   0.7884  0.3412  0.5000  10.50000  0.05    0.40
Q5    1   0.8416  0.3420  0.3782  11.00000  0.05    0.39
Q6    1   0.7010  0.2016  0.0000  10.50000  0.05    0.35
Q7    1   1.0015  0.3630  0.5000  10.50000  0.05    0.35
Q8    1   1.0000  0.0000  0.0000  10.08333  0.05    0.29
Q9    1   0.5753  0.1408  0.0000  10.50000  0.05    0.24
Q10   1   0.7722  0.1990  0.0000  10.50000  0.05    0.24
Q11   1   0.6353  0.2081  0.0000  10.50000  0.05    0.23
Q12   1   0.8136  0.2943  0.0664  11.00000  0.05    0.17
Q13   1   0.9164  0.2170  0.3443  11.00000  0.05    0.17
Q14   1   0.8839  0.2111  0.1664  11.00000  0.05    0.16
Q15   1   0.9377  0.1364  0.0000  10.50000  0.05    0.16
Q16   1   0.7623  0.0059  0.0000  10.50000  0.05    0.15
Q17   1   0.5000  0.0000  0.0000  10.25000  0.05    0.15
Q18   1   0.6399  0.0883  0.1485  11.00000  0.05    0.14
Q19   1   0.6667  0.3333  0.0401  10.33333  0.05    0.14
Q20   1   0.6517  0.2630  0.0000  10.50000  0.05    0.13
Q21   1   1.0163  0.2334  0.3790  11.00000  0.05    0.13
Q22   1   0.8927  0.4389  0.1484  11.00000  0.05    0.13
Q23   1   0.9635  0.2089  0.0389  11.00000  0.05    0.12
Q24   1   0.7798  0.4455  0.4106  11.00000  0.05    0.12
Q25   1   0.9359  0.2849  0.0000  10.50000  0.05    0.12
;
_shelx_res_checksum              39913
_shelx_hkl_file
;
   0   0   4 1599.77   30.86
   0   0   4 1599.96   30.65
   0   0  -4 1639.45   31.51
   0   0   510534.07  200.41
   0   0   6 4196.72   80.06
   0   0   7 3310.51   63.90
   0   0   7 3286.78   62.85
   0   0   8  403.74    9.35
   0   0   9 2123.78   41.86
   1   1   0   47.38    2.20
  -1  -1   0   49.11    2.07
   1   1   0   45.84    1.81
  -1  -1   0   47.73    1.97
   0   1   1    4.17    1.29
   1   1   1  280.98    6.07
  -1   0   1    4.65    1.47
   1   0   1    3.67    0.54
  -1   0   1    4.11    0.75
   0   1   1    3.41    1.75
  -1  -1   1  287.16    6.27
   1   1   1  284.13    5.72
   1   0   1    7.69    1.69
   0  -1   1    3.52    0.60
   0  -1   1    2.16    1.06
  -1  -1   1  296.41    6.05
   1   0  -1    4.56    1.48
  -1  -1  -1  285.46    6.13
  -1   0  -1    5.74    1.14
   1   1  -1  282.94    5.61
   0  -1  -1    3.51    1.63
   0  -1  -1    5.59    1.03
   0   1  -1    3.45    1.32
   1   1  -1  289.52    6.16
  -1  -1  -1  286.86    5.99
  -1   0   2  282.61    6.04
   0  -1   2  297.68    6.21
   0  -1   2  279.46    5.39
  -1  -1   2  150.09    4.05
   1   0   2  301.29    5.99
   0   1   2  294.78    5.98
   1   0   2  293.17    5.83
  -1  -1   2  141.09    2.89
   0   1   2  292.13    5.91
   1   0   2  280.49    5.70
  -1   0   2  287.50    5.59
   1   1   2  145.48    3.42
   1   1   2  145.15    3.37
   0  -1  -2  288.56    5.92
  -1  -1  -2  138.65    3.19
  -1  -1  -2  152.91    5.90
   0   1  -2  283.02    5.88
   1   0  -2  301.88    6.19
   1   1  -2  145.42    2.96
  -1   0  -2  284.62    5.94
   1   1  -2  140.25    3.45
   0  -1  -2  301.24    6.24
  -1   0   3  271.04    5.32
   1   1   3   18.62    1.68
  -1  -1   3   12.44    2.31
   1   0   3  270.22    5.62
   0   1   3  265.67    5.57
   1   0   3  263.68    5.73
   0   1   3  256.01    5.53
   1   1   3   21.40    1.58
   0  -1   3  267.76    6.09
  -1   0   3  271.34    5.42
   0   1   3  265.48    5.64
  -1   0   3  265.39    5.92
   1   0   3  261.03    5.57
   1   0  -3  261.14    5.63
   0   1  -3  268.30    5.69
   1   1  -3   18.82    1.51
  -1  -1  -3   19.17    4.90
  -1  -1  -3   19.77    1.34
   0  -1  -3  276.79    5.86
  -1   0  -3  266.87    5.65
   1   1   4  138.28    3.23
   0   1   4   51.05    1.77
   0  -1   4   52.69    1.25
  -1   0   4   51.40    1.41
   0   1   4   54.01    1.90
   0  -1   4   54.69    2.61
  -1   0   4   57.14    3.15
  -1   0   4   46.08    1.38
   0   1   4   53.59    1.98
   1   0   4   54.94    2.22
   1   0   4   47.43    1.61
   1   1   4  134.44    3.36
   1   0   4   53.24    2.06
  -1  -1   4  131.95    4.29
   1   1   4  139.83    3.42
   0  -1  -4   52.00    3.68
  -1  -1  -4  146.50    3.91
   0   1  -4   50.46    2.05
   1   0  -4   52.03    1.99
  -1   0  -4   53.66    4.51
   1   0   5  537.26   10.76
  -1   0   5  558.54   11.68
   0   1   5  548.35   10.97
  -1   0   5  551.29   10.70
  -1   0   5  555.17   10.77
   0  -1   5  529.45   10.21
   1   0   5  560.85   11.13
   0   1   5  534.25   10.87
   1   1   5  128.70    3.31
   1   1   5  141.98    3.50
   0  -1   5  535.18   11.16
   1   1   5  142.39    3.73
  -1  -1   5  141.24    4.55
   0   1   5  536.58   11.17
   1   0   5  544.63   11.12
  -1  -1  -5  137.64    4.83
  -1   0  -5  565.02   11.51
   0  -1  -5  553.54   11.15
  -1   0   6  196.46    5.30
   0  -1   6  190.85    3.93
   0  -1   6  199.61    5.43
  -1   0   6  195.73    4.08
   1   0   6  196.23    4.77
   0   1   6  192.07    5.04
   1   1   6  129.33    3.66
   0   1   6  191.21    4.52
  -1  -1   6  128.80    4.77
  -1   0   6  198.11    4.15
   0   1   6  192.24    4.62
   0  -1   6  191.27    3.88
   1   0   6  195.91    4.38
  -1  -1  -6  116.44    4.09
  -1   0  -6  199.75    5.60
   1   1   7   56.99    2.67
   0   1   7  113.42    3.97
   1   0   7  102.27    2.67
  -1   0   7  106.32    2.23
   1   0   7  119.07    3.71
  -1   0   7  111.57    2.41
   0  -1   7  114.29    4.76
   0   1   7  105.78    2.88
   0   1   7  107.52    3.46
  -1   0   7  114.87    4.52
  -1  -1   7   61.28    3.86
  -1   0  -7  110.48    5.40
  -1  -1  -7   57.63    7.42
   1   1   8    3.07    2.14
  -1  -1   8    2.22    1.81
   0   1   8   10.17    2.00
   0  -1   8    7.07    2.41
  -1   0   8   13.68    3.59
   1   1   8    3.02    1.68
   0   1   8   15.00    2.79
   1   0   8   15.84    2.42
  -1   0   9  111.33    4.82
   1   0   9   99.86    3.88
   0  -1   9  112.45    5.24
  -1  -1   9   25.18    3.44
   0   1   9  121.26    4.90
   1   1   9   23.83    2.73
  -1   0  10   48.61    3.84
  -1  -1  10   48.35    4.17
  -2  -1   0  567.84   11.46
  -2  -1   0  560.61   11.27
   2   1   0  561.95   11.19
   2   1   0  567.65   11.25
   1   2   0 2218.44   42.55
   2   1   1  777.13   15.10
  -2  -1   1  767.52   15.01
  -2  -1   1  757.03   15.12
   1  -1   1    5.87    1.10
   1  -1   1    2.03    0.76
  -1   1   1    6.44    2.13
  -2  -1  -1  753.55   14.68
   1  -1  -1    3.71    1.61
   2   1  -1  728.94   14.45
   1  -1  -1    2.95    0.86
  -1   1  -1    3.30    0.73
   2   1  -1  752.09   14.61
  -1   1  -1    5.52    1.06
  -2  -1  -1  758.37   15.02
   1  -1   2  289.60    5.80
  -1   1   2  292.41    5.94
  -1   1   2  293.88    6.17
  -2  -1   2 2772.03   53.20
   1  -1   2  285.08    5.79
  -1   1   2  297.33    6.20
   2   1   2 2968.61   56.84
  -2  -1   2 2778.72   53.01
  -2  -1  -2 2783.36   53.39
   2   1  -2 2792.49   53.56
  -1   1  -2  292.48    5.94
  -1   1  -2  288.26    5.73
   1  -1  -2  285.35    5.72
   2   1  -2 2834.85   54.07
  -1   1   3  278.73    6.17
   1  -1   3  262.15    5.41
  -1   1   3  258.19    5.37
  -2  -1   3 1286.04   25.38
  -1   1   3  268.57    5.55
  -1   1   3  271.12    6.01
   2   1   3 1295.29   24.88
   1   2   3 5686.21  108.54
   2   1   3 1273.27   24.92
  -2  -1   3 1284.36   24.58
   1  -1   3  270.09    5.64
  -1  -2   3 5585.25  106.72
  -1   1  -3  260.36    5.50
  -2  -1  -3 1303.48   25.43
  -1   1  -3  272.28    5.58
  -2  -1  -3 1295.90   24.95
   2   1  -3 1291.68   24.69
  -1  -2   4 5036.15   96.44
  -2  -1   4  744.31   15.35
   1  -1   4   54.84    2.45
   1   2   4 5276.52  100.66
   2   1   4  732.40   14.33
  -1   1   4   55.49    2.99
  -1   1   4   52.82    2.14
  -1   1   4   47.00    1.93
   1  -1   4   49.34    1.45
  -1   1   4   54.37    3.31
  -1  -2  -4 5295.49  101.25
  -1   1  -4   50.23    1.59
  -2  -1  -4  759.82   15.40
  -2  -1  -4  762.77   15.17
   1  -1   5  531.43   10.44
  -1   1   5  535.34   11.12
  -1  -2   5 2549.39   49.50
   2   1   5   94.45    2.62
   1   2   5 2360.88   45.36
  -1   1   5  553.07   10.99
  -2  -1   5   96.79    4.14
   2   1   5   92.88    2.58
   1  -1   5  564.65   11.57
  -1   1   5  550.88   10.92
  -1  -2  -5 2510.81   48.30
  -2  -1  -5   95.66    5.49
  -1  -2  -5 2451.38   47.51
  -1   1  -5  520.92   10.52
  -1   1  -5  554.42   11.10
  -1   1   6  191.17    4.30
   1  -1   6  197.14    4.27
  -1   1   6  198.24    5.34
   2   1   6   12.30    1.32
   1   2   6 1784.05   34.64
  -2  -1   6    9.61    2.79
   1  -1   6  202.54    5.25
   2   1   6   11.27    1.70
  -1  -2   6 1857.12   36.52
  -1   1   6  195.32    4.43
  -1  -2  -6 1829.42   35.98
  -1   1  -6  193.18    4.35
  -2  -1  -6    8.01    2.96
   2   1   7  310.67    6.95
  -1   1   7  113.93    4.17
  -2  -1   7  306.39    8.70
  -1  -2   7 2484.73   48.63
   1   2   7 2410.97   46.60
  -1   1   7  110.28    3.25
   1  -1   7  118.03    3.90
  -1   1  -7  112.05    3.74
  -1  -2  -7 2496.61   48.34
  -2  -1  -7  309.41    7.28
   1   2   8 2422.31   46.91
   1  -1   8   15.75    2.43
   1   2   8 2522.09   48.88
  -1  -2   8 2528.68   49.56
  -2  -1   8  775.11   16.93
  -2  -1  -8  791.86   16.69
  -1  -2   9 1190.01   24.53
   1  -1   9  108.03    4.48
  -1   1   9  111.46    5.10
  -2  -1   9  157.02    6.56
  -2  -1  -9  142.86    4.69
  -1  -2  10  973.89   20.81
  -2  -1  10   56.91    4.83
  -1   1  10   63.13    4.48
  -2  -1  11   54.38    4.09
   0  -2   0  372.93    7.81
  -2   0   0  365.82    7.50
  -2   0   0  372.43    7.61
   2   0   0  379.31    7.61
   0   2   0  390.63    7.96
   0  -2   0  366.58    7.61
   2   0   0  377.14    7.58
   0   2   0  373.69    7.79
   2   2   0 2996.44   57.36
   2   2   1  372.28    8.11
  -2   0   1   19.84    1.78
   2   0   1   16.45    1.69
  -2  -2   1  392.72    8.56
   0   2   1   17.61    3.09
  -2  -2   1  388.73    9.20
   2   0   1   15.31    0.88
   0  -2   1   16.83    2.32
   0   2   1   20.12    1.58
   2   2   1  386.78    8.19
  -2  -2  -1  403.19    9.78
   0   2  -1   19.33    2.94
   0   2  -1   15.89    1.38
   0   2  -1   15.97    1.53
  -2  -2  -1  386.24    8.27
   2   2  -1  388.30    7.94
   2   0  -1   15.83    1.34
   0  -2  -1   18.93    1.45
   2   2  -1  383.01    8.10
  -2   0  -1   17.44    1.82
   2   0  -1   16.04    1.06
   0  -2  -1   10.66    1.80
   2   0   2  161.47    3.37
   0   2   2  159.96    5.20
   2   2   2  832.12   16.31
   0   2   2  165.27    3.71
  -2   0   2  156.10    4.15
   2   0   2  152.17    3.49
   2   2   2  821.41   16.29
  -2   0   2  156.23    3.27
   0  -2   2  160.80    4.01
  -2  -2   2  829.88   16.79
  -2  -2   2  861.42   16.89
   0   2  -2  157.12    3.29
   0   2  -2  153.92    3.65
   2   0  -2  152.75    3.77
  -2  -2  -2  833.34   16.38
   0  -2  -2  159.05    3.67
  -2   0  -2  168.05    4.56
   2   2  -2  863.42   16.80
   2   0  -2  151.87    3.20
   0   2  -2  160.40    3.40
  -2  -2  -2  859.86   18.09
   0  -2  -2  164.27    4.62
   0  -2   3   42.89    2.79
   2   2   3  185.86    4.14
  -2   0   3   39.07    1.35
   2   0   3   41.34    1.32
   0   2   3   37.17    1.80
   2   0   3   41.96    2.24
  -2  -2   3  197.25    5.51
  -2  -2   3  192.19    4.27
  -2   0   3   40.53    2.72
   2   0   3   38.95    1.30
   0   2   3   39.95    3.12
   2   2  -3  188.89    3.99
  -2   0  -3   38.77    2.57
   2   0  -3   36.50    1.22
   0   2  -3   40.09    1.97
   2   0  -3   38.77    2.32
  -2  -2  -3  202.57    4.71
   0  -2  -3   38.72    4.79
   0  -2  -3   41.60    2.22
  -2   0   4    1.03    0.47
   2   0   4    2.43    0.97
   2   0   4    0.85    0.71
  -2   0   4   -0.94    1.67
   0   2   4   -1.11    0.78
   2   0   4   -0.38    0.80
   2   2   4  300.06    6.35
  -2   0   4    0.18    0.24
   0   2   4    0.90    0.87
   0  -2   4   -0.40    1.49
  -2  -2   4  293.47    7.44
   0   2  -4    1.13    0.99
   2   2  -4  292.31    5.71
  -2  -2  -4  303.98    7.94
   0  -2  -4   -0.54    1.12
  -2  -2  -4  295.90    6.53
  -2   0  -4   -0.17    1.03
   0  -2  -4   -0.43    1.45
   2   0   5    0.14    0.73
   0   2   5   -1.35    1.08
  -2   0   5    1.67    1.69
  -2  -2   5  953.64   19.54
   0   2   5    1.57    1.01
   2   2   5  927.64   18.22
   0  -2   5   -0.22    1.38
   2   0   5    0.39    0.67
   2   0   5   -0.37    0.68
  -2   0  -5    1.49    0.69
  -2  -2  -5  922.48   18.61
   0  -2  -5    0.84    1.14
  -2  -2  -5  930.61   19.72
   2   0   6   26.01    1.79
  -2  -2   6  258.77    7.10
   2   2   6  234.26    5.34
   2   2   6  249.58    5.84
   0   2   6   22.98    2.73
   2   0   6   23.23    1.21
   0  -2   6   23.90    2.90
  -2   0   6   24.48    3.30
  -2   0  -6   17.82    3.32
  -2  -2  -6  252.55    7.52
   2   0   7    2.24    1.28
   0  -2   7    4.92    2.72
   0   2   7    0.20    1.15
   2   2   7  491.24   10.31
   0   2   7   -0.66    1.30
  -2   0   7    1.24    2.25
  -2  -2   7  492.96   11.54
  -2  -2  -7  476.03   11.11
  -2   0  -7    0.54    0.67
   0   2   8   26.10    2.58
  -2   0   8   22.85    3.63
  -2  -2   8   10.46    3.48
   0   2   8   23.40    2.44
   0  -2   8   23.62    3.58
   2   0   8   16.82    2.09
   2   2   8   19.09    2.20
  -2  -2  -8   19.19    3.31
  -2   0  -8   24.83    5.00
   0  -2   9    3.38    1.67
   0   2   9   -0.79    1.56
  -2   0   9    5.62    2.86
  -2  -2   9  173.25    6.81
   0  -2  10    2.26    2.17
  -2   0  10    0.22    1.92
  -2  -2  10  232.29    7.71
  -1   2   0   47.22    1.89
  -2  -3   0   99.82    3.91
  -2  -3   0  100.01    3.83
  -1   2   0   43.50    1.75
   1  -2   0   44.97    1.73
  -3  -1   0  526.47   10.83
   2   3   0   98.37    3.40
   2   3   0  106.28    3.48
   3   1   0  524.84   10.61
   3   1   0  496.87   10.20
  -3  -1   0  545.26   11.24
   1  -2   0   47.77    2.44
   3   1   1  153.04    3.89
  -2  -3   1    0.61    0.78
  -2  -3   1    2.08    1.94
  -3  -1   1  152.01    4.17
   2   3   1    4.10    1.70
  -1   2   1  277.16    6.05
  -3  -1   1  154.31    4.19
   3   1   1  150.77    4.14
  -1   2   1  279.11    5.92
   1  -2   1  282.52    5.72
   1  -2   1  281.49    5.88
  -2  -3  -1    0.11    1.58
   3   1  -1  155.07    3.96
   3   1  -1  152.88    3.79
  -1   2  -1  284.16    5.84
  -1   2  -1  300.65    6.08
  -3  -1  -1  155.72    3.95
   1  -2  -1  287.82    5.94
  -2  -3  -1    2.27    1.30
  -3  -1  -1  155.46    4.49
   2   3  -1    0.06    0.91
   1  -2  -1  273.18    5.80
   1  -2   2  144.11    3.58
  -2  -3   2  614.87   12.85
   2   3   2  612.06   12.31
  -1   2   2  140.38    3.40
  -3  -1   2  135.11    4.44
   1  -2   2  140.63    3.09
   3   1   2  129.40    2.99
  -1   2   2  144.46    3.29
  -3  -1   2  130.31    3.39
  -1   2   2  141.92    3.44
  -2  -3   2  613.01   12.20
  -2  -3  -2  640.02   13.16
  -2  -3  -2  611.87   12.67
  -1   2  -2  138.91    3.30
  -3  -1  -2  132.04    4.23
   3   1  -2  126.62    3.03
  -3  -1  -2  134.06    3.57
   1  -2  -2  146.01    3.87
   2   3  -2  602.48   11.95
  -1   2  -2  141.57    3.17
   3   1   3   28.07    1.42
  -3  -1   3   33.73    2.96
   1  -2   3   12.41    2.11
  -1   2   3   14.42    1.67
  -3  -1   3   28.66    1.65
  -2  -3   3  118.37    4.30
   1  -2   3   19.21    1.10
   2   3   3  121.67    3.34
  -2  -3   3  123.23    4.78
  -3  -1  -3   31.54    1.75
   3   1  -3   27.21    1.38
  -2  -3  -3  117.23    3.38
  -3  -1  -3   29.17    3.02
  -2  -3  -3  128.54    4.13
  -1   2  -3   19.49    1.47
   2   3  -3  113.61    2.88
  -1   2  -3   21.48    1.62
  -1   2   4  141.75    4.18
  -3  -1   4  169.00    5.83
   2   3   4   27.25    1.51
   3   1   4  171.47    3.83
   1  -2   4  136.01    3.01
   1  -2   4  135.48    3.67
  -1   2   4  138.38    3.60
  -3  -1   4  165.03    3.54
  -1   2   4  135.09    4.22
  -1   2   4  132.84    3.40
  -2  -3   4   24.50    3.61
  -1   2  -4  127.89    3.21
  -1   2  -4  137.67    3.23
  -3  -1  -4  172.13    4.30
   2   3  -4   33.21    1.81
  -2  -3  -4   33.40    7.20
   3   1  -4  167.52    3.52
  -2  -3  -4   35.95    2.16
   2   3  -4   31.06    1.19
  -3  -1  -4  165.87    4.87
  -1   2   5  137.55    3.89
   3   1   5    7.03    1.19
  -2  -3   5    2.35    3.03
  -1   2   5  139.82    3.89
   1  -2   5  134.03    4.15
   1  -2   5  136.37    3.01
  -1   2   5  132.33    3.30
  -3  -1   5    2.10    2.40
   3   1   5    3.69    1.33
  -2  -3  -5   11.46    2.24
  -1   2  -5  129.55    3.41
  -2  -3  -5   16.30    3.44
  -3  -1  -5    6.52    2.73
  -1   2  -5  137.32    3.27
   3   1   6    0.05    0.78
   3   1   6    1.01    1.05
   1  -2   6  126.33    4.39
  -1   2   6  127.69    4.18
   1  -2   6  121.69    2.83
  -2  -3   6   85.00    5.06
  -1   2   6  126.62    3.64
  -3  -1   6    4.33    3.23
  -1   2   6  116.69    3.11
  -2  -3  -6   91.56    4.64
  -3  -1  -6    2.94    1.98
  -2  -3  -6   91.31    8.61
  -1   2  -6  122.23    3.05
  -1   2   7   56.66    3.53
  -3  -1   7   36.65    4.34
   3   1   7   35.20    2.20
   2   3   7   68.61    3.09
  -2  -3   7   70.50    5.02
  -1   2   7   62.40    2.79
   1  -2   7   53.73    3.32
  -3  -1  -7   30.30    6.34
  -2  -3  -7   63.49    8.72
  -2  -3   8  107.75    5.36
  -1   2   8    4.80    1.59
  -1   2   8    5.10    1.44
   1  -2   8    5.90    1.99
  -3  -1   8   79.99    4.93
  -2  -3  -8  107.83   10.05
  -3  -1  -8   76.85    8.56
   1  -2   9   25.81    3.28
  -2  -3   9    5.41    2.17
  -3  -1   9    3.31    2.46
  -1   2   9   25.91    3.55
  -3  -1  -9   -0.72    1.40
  -1   2  10   46.02    3.90
  -3  -1  10    3.33    3.28
  -2  -3  10    4.84    3.20
  -1  -3   0    9.15    4.59
   1   3   0   15.61    1.70
  -2   1   0   43.39    1.55
  -1  -3   0   15.76    2.23
  -3  -2   0  165.41    4.76
   2  -1   0   47.91    2.12
  -2   1   0   50.23    2.26
  -3  -2   0  165.10    4.88
   3   2   0  167.78    4.43
  -2   1   0   45.40    2.14
   1   3   0   16.37    1.50
   3   2   0  163.35    4.47
  -3  -2   1  119.86    3.52
  -3  -2   1  126.21    3.93
  -1  -3   1  934.94   19.16
   1   3   1  905.64   17.87
   1   3   1  918.43   18.12
   2  -1   1  283.19    5.59
   3   2   1  124.02    3.49
  -2   1   1  281.51    5.89
  -1  -3   1  902.19   18.00
   2  -1   1  278.53    5.77
  -2   1   1  301.43    6.29
   2  -1  -1  273.99    5.71
   3   2  -1  121.69    3.42
  -3  -2  -1  122.48    4.12
  -3  -2  -1  120.69    3.85
  -2   1  -1  296.55    6.14
  -1  -3  -1  898.45   17.91
   1   3  -1  896.95   17.76
   1   3  -1  944.52   18.51
  -1  -3   2  454.63   10.04
   1   3   2  469.87    9.78
  -1  -3   2  459.75    9.26
   3   2   2  573.67   11.45
  -3  -2   2  589.30   12.63
  -2   1   2  145.24    3.75
   2  -1   2  142.94    3.30
  -3  -2   2  580.07   11.67
   2  -1   2  145.06    2.94
  -2   1   2  148.62    3.34
  -3  -2  -2  591.43   12.52
   1   3  -2  462.76    9.26
   2  -1  -2  143.86    3.63
   3   2  -2  571.12   11.39
  -1  -3  -2  473.52   10.60
  -3  -2  -2  599.12   12.09
   2  -1  -2  144.42    3.17
  -2   1  -2  146.03    3.56
  -1  -3  -2  480.78   10.36
  -1  -3   3  415.93    9.23
   3   2   3   19.64    1.32
  -3  -2   3   24.06    3.58
  -3  -2   3   23.71    3.52
   1   3   3  423.10    8.67
   2  -1   3   13.51    1.45
  -2   1   3   16.93    1.17
  -2   1   3   17.50    2.02
  -3  -2  -3   26.82    6.42
   2  -1  -3   16.40    1.14
  -2   1  -3   20.03    1.02
   3   2  -3   21.85    1.35
   1   3  -3  425.21    8.54
  -1  -3  -3  403.51    8.76
  -1  -3  -3  411.56    9.29
  -3  -2  -3   19.13    1.62
   1   3  -3  422.18    8.40
  -2   1  -3   16.65    1.71
  -1  -3   4  395.98    9.01
   2  -1   4  135.43    3.19
  -3  -2   4   19.66    3.44
  -2   1   4  141.48    3.16
  -2   1   4  139.74    3.98
   1   3   4  375.02    7.75
  -2   1   4  139.43    3.85
  -3  -2   4    9.77    2.36
   2  -1   4  138.10    3.11
   3   2   4   15.27    1.18
   2  -1   4  134.89    3.14
  -3  -2  -4   18.01    1.66
  -1  -3  -4  401.72    8.82
  -2   1  -4  142.87    3.67
  -3  -2  -4   22.14    3.76
  -1  -3  -4  397.65    8.79
   3   2  -4   15.25    0.88
  -1  -3   5   63.91    4.25
   2  -1   5  134.21    3.50
  -3  -2   5  132.25    5.61
  -2   1   5  139.80    3.17
   3   2   5  133.08    3.28
  -2   1   5  135.77    3.66
  -2   1   5  144.78    4.40
   2  -1   5  137.32    3.25
   2  -1   5  137.73    3.27
  -1  -3  -5   58.52    3.96
  -3  -2  -5  142.87    3.80
  -3  -2  -5  129.23    5.18
  -1  -3  -5   58.02    3.28
  -2   1  -5  133.33    3.69
   2  -1   6  121.30    3.09
   3   2   6  127.44    3.61
   2  -1   6  122.27    3.25
   2  -1   6  121.48    3.44
  -3  -2   6  127.12    5.95
  -2   1   6  121.23    3.03
  -2   1   6  123.89    2.95
  -2   1   6  132.86    5.07
  -1  -3   6  180.97    6.57
  -3  -2  -6  136.86    9.85
  -1  -3  -6  172.14    9.00
  -2   1  -6  125.52    4.84
  -1  -3  -6  177.46    5.36
  -3  -2   7  272.71    8.22
  -2   1   7   57.82    4.11
   2  -1   7   56.62    2.82
   1   3   7   51.51    2.95
  -2   1   7   57.81    1.92
   3   2   7  279.19    6.42
  -1  -3   7   58.86    4.86
  -2   1  -7   50.13    7.01
  -3  -2  -7  271.80    8.00
  -1  -3  -7   55.28    3.69
  -2   1   8    3.94    2.84
   1   3   8  302.15    7.07
   2  -1   8   12.19    2.74
  -3  -2   8    9.28    3.49
  -1  -3   8  289.75    8.44
   1   3   8  310.78    7.84
  -3  -2  -8    0.67    1.52
  -2   1  -8    4.87    1.28
  -3  -2   9   15.44    4.39
  -2   1   9   17.41    3.13
   1   3   9   80.09    3.89
  -1  -3   9   78.31    5.57
  -3  -2  -9    8.64    3.31
  -2   1  10   53.30    4.78
  -1  -3  10   36.17    4.32
  -3  -2  10   21.61    4.59
  -3  -3   0 1168.86   23.26
   0   3   0  856.10   16.77
   3   0   0  775.32   15.21
   3   0   0  801.69   15.58
   0  -3   0  859.24   16.90
   0   3   0  821.89   16.21
  -3   0   0  836.91   16.39
   0  -3   0  818.40   16.32
  -3   0   0  803.73   15.84
  -3  -3   0 1248.49   25.05
   3   0   1 1285.90   24.72
   0  -3   1 1270.69   24.71
  -3  -3   1 1499.67   29.59
   0   3   1 1352.55   26.26
  -3   0   1 1249.49   24.16
   3   0   1 1287.17   25.11
  -3   0   1 1293.12   25.27
  -3  -3   1 1551.27   30.52
   0   3   1 1272.96   24.68
   3   0  -1 1269.76   24.52
   0  -3  -1 1272.21   24.74
   0  -3  -1 1275.17   24.89
  -3   0  -1 1281.95   25.03
   0   3  -1 1289.44   24.86
  -3   0  -1 1310.62   25.19
   0   3  -1 1239.62   23.90
  -3  -3  -1 1493.72   29.92
   0   3  -1 1239.76   24.21
   3   0  -1 1255.37   24.18
  -3  -3  -1 1446.96   28.26
   0   3   2   32.43    4.68
   0   3   2   30.89    2.04
  -3  -3   2  239.55    6.55
   3   0   2   29.41    1.73
   3   3   2  236.32    5.48
   3   0   2   29.33    1.14
  -3   0   2   29.69    1.76
  -3  -3   2  241.54    5.96
  -3   0   2   32.24    3.00
  -3   0  -2   27.38    2.27
  -3   0  -2   27.18    1.41
   0  -3  -2   35.83    4.22
   3   0  -2   29.82    1.96
   3   0  -2   32.09    1.46
   0  -3  -2   31.18    1.88
   0   3  -2   29.08    1.76
  -3  -3  -2  239.64    6.09
   0   3  -2   29.10    1.71
   3   3  -2  227.27    5.25
  -3  -3  -2  248.66    7.59
   0   3  -2   29.83    2.09
   3   0   3    0.79    0.43
  -3  -3   3  344.32    8.61
  -3   0   3    1.55    1.25
   3   0   3    5.51    1.67
   0   3   3    3.05    1.37
   0  -3   3    3.77    2.10
  -3   0   3    5.15    2.40
   3   3   3  344.74    7.32
  -3  -3   3  345.36    7.30
   0   3   3    1.92    1.01
   0  -3  -3    3.64    1.66
  -3  -3  -3  359.52    7.99
   3   3  -3  336.43    7.07
   0   3  -3    0.75    1.36
   0   3  -3    2.33    0.79
   3   0  -3    3.66    0.95
  -3  -3  -3  339.98    9.53
  -3   0  -3    6.07    2.14
   0   3  -3    2.14    0.79
   0  -3  -3    3.39    1.46
   3   0   4  272.23    5.42
   0  -3   4  270.20    6.81
   3   3   4  615.61   12.35
  -3  -3   4  610.14   13.75
   3   0   4  264.96    5.34
  -3  -3   4  611.47   12.32
   0   3   4  260.68    5.74
  -3   0   4  267.29    5.40
  -3   0   4  264.54    7.12
   3   3  -4  599.03   11.85
   0  -3  -4  264.33    6.11
  -3  -3  -4  608.77   12.43
  -3   0  -4  271.82    6.29
   0   3  -4  262.06    5.20
   0  -3  -4  276.93    6.57
  -3  -3  -4  607.14   13.53
   3   0  -4  263.51    5.32
   3   0   5    3.47    0.85
   0  -3   5    9.28    3.05
  -3  -3   5  533.44   12.10
  -3   0   5    3.69    0.57
  -3   0   5    3.95    0.66
  -3   0   5    4.74    3.06
   3   0   5    5.97    1.02
   3   3  -5  519.42   10.15
  -3   0  -5    7.76    2.21
   0  -3  -5    7.40    2.18
   3   3  -5  520.29   10.20
  -3  -3  -5  563.76   12.20
   0  -3  -5    5.80    2.35
  -3  -3  -5  534.50   13.50
  -3  -3   6  922.86   19.62
   3   0   6  126.13    3.03
   3   0   6  128.80    3.27
  -3   0   6  125.95    4.83
   0   3   6  123.33    3.90
   0   3   6  125.70    4.14
   0  -3   6  128.47    4.41
  -3  -3  -6  931.93   18.93
  -3   0  -6  127.74    4.77
  -3  -3  -6  911.95   19.17
   0  -3   7    1.03    1.82
  -3  -3   7  215.28    7.99
   0   3   7    2.47    1.47
   3   3   7  211.34    5.40
   0   3   7    0.89    1.64
   3   0   7    4.15    1.45
  -3   0   7    4.45    3.02
  -3  -3  -7  231.85    6.51
  -3   0  -7    0.44    0.84
  -3   0   8   48.33    4.30
   0  -3   8   44.59    4.01
   0   3   8   50.50    3.14
  -3  -3   8  112.23    6.60
   0   3   8   47.86    2.98
  -3   0  -8   39.62    7.77
  -3  -3  -8   95.98    8.58
  -3  -3   9  168.96    6.94
   0   3   9   -0.86    1.36
   0  -3   9    1.37    1.70
  -3   0   9    3.75    2.31
  -3  -3  -9  168.46    8.01
  -3   0  -9    0.28    0.73
  -3   0  10   14.18    3.54
  -3  -3  10  214.77    7.85
  -3  -4   0  340.90    8.37
   1  -3   0  556.92   11.26
  -3  -4   0  338.97    8.27
  -1   3   0  570.32   11.45
  -1   3   0  527.84   10.68
   1  -3   0  559.97   11.17
  -1   3   1  743.54   14.73
  -4  -1   1 4728.63   90.50
  -3  -4   1  221.81    6.11
   1  -3   1  751.14   14.62
  -1   3   1  741.50   14.74
  -3  -4   1  214.67    6.29
   1  -3   1  742.22   14.70
  -1   3  -1  757.15   14.84
  -4  -1  -1 4930.89   94.14
   1  -3  -1  722.27   14.43
  -3  -4  -1  225.66    6.22
  -3  -4  -1  227.06    8.59
  -1   3  -1  712.28   13.98
   4   1  -1 4799.32   91.69
  -3  -4   2 1360.58   27.44
   4   1   2  724.76   14.20
   1  -3   2 2752.15   52.81
  -4  -1   2  735.37   14.69
  -1   3   2 2737.92   52.51
  -1   3   2 2744.46   52.56
  -4  -1   2  712.42   14.71
  -3  -4   2 1363.01   27.37
  -1   3   2 2940.46   56.29
   1  -3   2 2813.94   53.74
  -4  -1  -2  768.60   15.58
  -4  -1  -2  731.47   14.51
  -3  -4  -2 1303.80   25.89
   4   1  -2  714.68   14.20
  -1   3  -2 2763.39   52.92
  -3  -4  -2 1360.36   27.00
  -1   3   3 1300.84   25.39
  -4  -1   3 3110.57   60.14
  -3  -4   3  676.41   13.69
  -3  -4   3  668.68   14.87
   4   1   3 3075.61   58.75
  -1   3   3 1321.69   25.66
  -4  -1   3 3114.70   59.70
  -1   3   3 1295.24   25.21
   1  -3   3 1286.43   25.07
   1  -3   3 1267.91   24.34
  -1   3  -3 1254.78   24.39
  -4  -1  -3 3220.12   62.09
  -3  -4  -3  662.35   16.29
  -1   3  -3 1308.53   25.16
  -4  -1  -3 3138.31   60.04
  -3  -4  -3  679.01   14.35
   1  -3  -3 1261.29   24.79
   4   1  -3 3105.86   59.40
   1  -3   4  722.75   14.64
   1  -3   4  732.31   14.19
  -3  -4   4  385.94    9.96
  -1   3   4  745.01   14.90
  -1   3   4  740.18   14.89
  -4  -1   4 1981.21   38.07
   4   1   4 2060.08   39.45
  -4  -1   4 1998.92   39.18
  -1   3  -4  719.36   14.36
  -3  -4  -4  379.89   12.49
  -3  -4  -4  402.84    9.43
   3   4  -4  366.54    7.61
  -4  -1  -4 2030.38   38.91
  -4  -1  -4 2009.02   39.23
   1  -3  -4  749.19   15.97
   4   1  -4 1985.23   38.07
  -1   3  -4  749.72   14.56
  -1   3   5   82.84    2.96
  -4  -1   5 2104.32   40.26
   4   1   5 2096.29   40.13
   1  -3   5   92.68    3.50
  -4  -1   5 2117.73   41.65
   1  -3   5   87.68    2.10
  -3  -4   5  450.10   11.18
  -1   3  -5   88.50    2.30
   1  -3  -5   93.21    3.55
  -3  -4  -5  455.04   11.04
   4   1  -5 2058.34   39.35
  -3  -4  -5  449.23   10.06
  -4  -1  -5 2114.62   41.36
   3   4  -5  440.61    8.99
   3   4  -5  426.89    8.55
  -3  -4   6   35.45    4.40
  -1   3   6    8.37    2.30
   1  -3   6    6.87    3.01
   4   1   6 4566.84   87.06
  -1   3   6   10.56    2.42
  -4  -1   6 4564.64   88.28
  -4  -1  -6 4654.13   89.84
  -3  -4  -6   30.26    5.75
  -3  -4  -6   27.33    5.83
  -3  -4   7  457.21   11.49
  -4  -1   7  544.56   13.18
   1  -3   7  301.13    7.73
  -1   3   7  299.61    6.96
  -1   3   7  294.78    7.33
  -3  -4  -7  460.58   10.04
  -3  -4  -7  446.89   11.50
  -4  -1  -7  579.88   13.78
  -4  -1   8  759.94   17.02
  -3  -4   8  361.00   10.33
  -1   3   8  775.68   16.18
  -1   3   8  778.15   15.90
   1  -3   8  787.14   16.54
  -3  -4  -8  372.12   12.26
  -4  -1  -8  764.47   16.62
   1  -3   9  145.36    5.30
  -4  -1   9  994.01   21.70
  -1   3   9  141.53    4.93
  -3  -4   9  189.42    7.72
  -3  -4  -9  181.09    5.95
  -4  -1  -9  953.15   20.95
  -4  -1  10  561.49   13.63
  -1   3  10   56.47    3.47
  -2   2   0  364.67    7.34
  -2  -4   0 2284.57   44.38
  -2   2   0  371.58    7.75
   2  -2   0  384.30    7.79
  -4  -2   0  166.39    4.69
  -2  -4   0 2385.06   46.31
  -4  -2   0  178.63    5.40
  -4  -2   1   28.39    3.39
  -2  -4   1 1751.13   34.22
   2  -2   1   17.05    1.40
   4   2   1   30.88    1.78
  -2   2   1   17.74    1.68
  -2  -4   1 1843.70   36.01
   2  -2   1   15.85    1.82
  -4  -2   1   33.08    3.02
  -2   2   1   18.92    1.92
  -4  -2  -1   28.67    2.72
  -2   2  -1   15.56    1.44
  -4  -2  -1   35.88    2.61
   2  -2  -1   17.19    1.21
  -2   2  -1   16.33    1.21
   2  -2  -1   15.67    3.34
  -2  -4  -1 1810.69   35.23
  -2  -4   2 4159.72   80.05
  -2  -4   2 4170.70   80.34
  -2   2   2  160.24    4.02
   4   2   2  343.40    7.33
   2  -2   2  158.45    3.57
  -4  -2   2  357.92    8.05
   2  -2   2  154.05    3.45
  -2   2   2  161.75    3.86
  -4  -2   2  355.46    8.55
  -2  -4  -2 4187.21   80.58
  -4  -2  -2  361.74    8.04
  -2   2  -2  158.25    3.57
   4   2  -2  336.39    7.24
   2   4  -2 4101.24   78.45
  -2   2  -2  151.30    3.28
   2  -2  -2  153.51    3.49
  -4  -2  -2  355.07    8.83
   2  -2  -2  169.67    5.61
  -2  -4   3 2161.50   41.61
  -4  -2   3  160.81    5.70
   2  -2   3   40.03    1.82
  -2  -4   3 2224.60   43.42
   4   2   3  161.33    4.00
  -2   2   3   41.90    2.36
  -2   2   3   38.11    2.48
   2  -2   3   35.14    1.98
  -2   2   3   38.09    1.89
  -4  -2   3  162.49    4.32
  -2   2  -3   41.22    1.58
  -2  -4  -3 2210.06   42.90
   2   4  -3 2155.07   41.46
   2  -2  -3   36.69    1.72
   4   2  -3  152.26    3.93
  -2  -4  -3 2219.79   44.62
  -4  -2  -3  159.88    5.56
  -2   2  -3   41.03    2.04
  -4  -2  -3  162.84    4.13
   2  -2   4    1.76    0.57
  -4  -2   4   71.80    4.27
  -2   2   4    0.22    1.58
  -2   2   4   -0.13    0.86
  -4  -2   4   77.84    3.28
   2  -2   4   -1.38    0.76
  -2   2   4    0.41    0.55
  -2  -4   4 1978.85   39.04
   4   2   4   75.16    2.27
  -2   2  -4    1.73    0.77
   2   4  -4 2052.13   39.43
  -2  -4  -4 2132.47   41.50
  -4  -2  -4   85.24    7.84
  -2  -4  -4 2054.88   40.82
  -2   2  -4    0.70    0.64
  -4  -2  -4   75.03    2.53
   2   4  -4 1987.31   38.16
   2  -2   5    0.44    0.87
  -2   2   5    0.44    0.52
   4   2   5  133.17    3.25
  -4  -2   5  138.78    5.84
  -4  -2   5  134.64    3.61
  -2  -4   5 1972.83   39.05
  -2   2   5    1.82    1.17
   2  -2   5    0.14    0.60
  -2   2   5    5.07    2.37
  -4  -2  -5  134.13    4.99
   2   4  -5 1862.96   35.65
  -2   2  -5    1.31    0.97
  -2  -4  -5 1956.03   38.19
  -2   2  -5   -0.08    0.73
  -4  -2  -5  131.80    6.01
   4   2  -5  133.24    3.17
   2   4  -5 1905.82   36.46
  -2  -4  -5 1956.26   39.66
  -2  -4   6  526.40   12.73
   2  -2   6   17.32    1.99
  -4  -2   6   13.64    3.67
  -2   2   6   28.63    3.35
   2  -2   6   24.80    1.40
  -2   2   6   24.07    1.80
  -2   2   6   18.86    2.94
  -4  -2  -6   10.35    3.26
  -2   2  -6   18.29    1.62
  -2   2  -6   22.73    1.41
  -2  -4  -6  545.94   12.11
  -2  -4  -6  529.63   15.19
  -2  -4   7 1847.74   37.06
  -2   2   7    1.70    1.55
  -2   2   7   -0.79    1.83
   2  -2   7   -0.17    1.05
  -4  -2   7  134.20    5.93
  -2   2  -7    0.49    0.75
  -2  -4  -7 1868.39   37.40
  -4  -2  -7  117.92    8.75
  -2  -4  -7 1908.83   37.46
   2  -2   8   25.55    2.79
  -2   2   8   23.27    3.36
  -2  -4   8  924.04   19.87
  -4  -2   8   62.90    5.19
  -4  -2  -8   66.76   10.12
  -2  -4  -8  933.53   19.49
  -2   2  -8   17.13    2.92
  -4  -2   9   68.47    5.35
   2   4   9  736.15   15.93
  -2   2   9    3.87    1.87
  -2  -4   9  710.78   16.03
  -4  -2  -9   43.00   11.44
  -2  -4  10  667.87   15.29
  -4  -2  10   19.45    4.59
  -2   2  10   -0.15    1.84
  -1  -4   0  515.28   11.13
  -1  -4   0  522.25   11.27
  -4  -3   0  592.32   13.21
  -4  -3   0  543.49   11.93
  -4  -3   1  295.74    7.47
  -1  -4   1  727.48   15.10
  -1  -4   1  745.95   15.54
  -4  -3   1  297.95    9.22
  -1  -4  -1  698.37   15.39
  -4  -3  -1  297.10    7.30
  -1  -4  -1  706.21   14.44
   1   4  -1  752.31   14.98
  -4  -3  -1  296.47    7.93
  -4  -3   2  555.11   12.52
  -1  -4   2   16.54    3.05
  -4  -3   2  560.52   12.12
  -1  -4  -2   21.71    1.91
   1   4  -2   15.85    2.02
  -1  -4  -2   28.98    7.27
  -4  -3  -2  559.80   12.01
  -4  -3  -2  530.13   15.03
   1   4  -2   18.03    3.20
  -4  -3   3  321.64    8.87
  -1  -4   3  311.56    7.90
  -4  -3   3  323.78    8.23
  -4  -3  -3  324.59    8.86
  -1  -4  -3  333.99    7.64
   1   4  -3  322.62    6.84
  -4  -3  -3  328.60    7.68
   1   4  -3  315.51    6.55
  -3   1  -3 5578.48  106.54
  -1  -4  -3  303.86    9.78
   3  -1   4 4879.57   93.19
   3  -1   4 5139.25   97.76
  -1  -4   4  195.06    6.44
  -4  -3   4  292.84    6.93
  -4  -3   4  307.28    9.04
  -3   1   4 5227.85  100.14
   1   4  -4  188.21    4.08
  -4  -3  -4  294.89    7.69
  -1  -4  -4  196.80    7.08
   3  -1  -4 5097.60   97.11
  -4  -3  -4  298.86    7.11
  -3   1  -4 5293.66  101.14
   4   3  -4  277.41    5.91
   1   4  -4  193.54    4.37
  -1  -4  -4  200.17    5.61
  -3   1   5 2442.50   47.41
  -3   1   5 2403.55   46.00
  -1  -4   5   90.61    4.45
  -4  -3   5  287.57    7.08
   3  -1   5 2453.90   46.85
  -4  -3   5  310.00    9.56
  -3   1   5 2440.44   46.65
   3  -1   5 2413.66   46.13
  -4  -3  -5  315.18    7.28
   1   4  -5   80.99    1.84
   4   3  -5  290.54    6.03
  -4  -3  -5  310.05    8.18
  -3   1  -5 2417.18   46.67
  -1  -4  -5   84.42    4.47
  -1  -4  -5   91.69    5.65
   3  -1   6 1832.19   35.22
  -1  -4   6  805.72   17.31
  -3   1   6 1860.30   36.56
  -3   1   6 1803.59   34.51
   3  -1   6 1775.56   34.05
  -4  -3   6  113.91    6.36
  -3   1   6 1773.27   33.97
  -1  -4  -6  820.51   17.31
  -1  -4  -6  853.11   18.06
  -4  -3  -6  111.47   12.04
  -3   1  -6 1853.61   36.15
  -4  -3  -6  110.92    3.36
   3  -1   7 2451.58   47.14
  -1  -4   7    4.34    3.19
  -3   1   7 2450.28   48.05
  -4  -3   7  310.11    9.19
  -4  -3  -7  313.93    8.70
  -3   1  -7 2505.71   48.47
  -3   1   8 2473.92   48.70
   1   4   8   92.14    4.25
  -1  -4   8   97.16    5.46
  -4  -3   8   85.66    6.52
   1   4   8   95.99    4.05
  -3   1  -8 2545.36   49.26
  -4  -3  -8   76.33   14.00
  -1  -4   9   74.96    5.44
   1   4   9   73.36    4.12
  -4  -3   9  121.71    6.63
  -3   1   9 1158.25   24.15
  -4  -3  -9  122.55    7.39
  -1  -4  10   11.81    3.67
  -3   1  10  992.81   21.02
  -3   1  11  688.59   15.41
  -4  -4   0  395.15    9.43
   0   4   0 2902.28   55.83
  -4  -4   0  407.87   10.12
  -4   0   0 2724.02   52.26
   0   4   0 2679.20   51.41
   4   0   0 2759.26   52.97
  -4   0   0 2672.01   51.45
   0  -4   0 2756.96   53.06
   0  -4   1  362.44    8.15
  -4   0   1  353.67    7.54
   4   0   1  355.75    7.26
   0   4   1  373.85    8.14
  -4   0   1  374.31    8.12
  -4  -4   1  221.30    7.07
  -4  -4   1  234.34    8.86
   0   4  -1  357.49    7.77
   0   4  -1  381.72    8.27
  -4   0  -1  381.18    8.36
   0  -4  -1  362.89    8.06
   0   4  -1  375.27    7.90
  -4  -4  -1  225.01    6.66
  -4   0  -1  370.93    7.70
   4   0  -1  348.93    7.36
  -4  -4  -1  225.26    6.71
   4   0  -1  356.47    7.54
   0  -4  -1  360.42    8.06
  -4   0   2  108.63    4.18
  -4  -4   2   35.98    3.68
  -4  -4   2   35.78    6.92
   0   4   2  108.99    3.25
   4   0   2  109.11    2.51
   0  -4   2  107.57    4.18
  -4   0   2  109.61    3.09
  -4   0  -2  112.43    4.81
  -4  -4  -2   37.86    3.22
  -4   0  -2  104.32    2.75
  -4  -4  -2   35.81    6.09
   0  -4  -2  115.42    3.78
   0   4  -2  109.90    2.93
   0  -4  -2  109.70    4.19
   4   0  -2  105.04    2.78
   0   4  -2  108.71    3.07
  -4  -4   3  103.37    5.72
   0  -4   3  327.80    7.82
  -4  -4   3  103.32    4.42
   4   0   3  299.38    5.91
  -4   0   3  324.71    7.69
  -4   0   3  308.17    6.58
   0   4  -3  318.63    6.66
   4   0  -3  307.16    6.40
  -4   0  -3  316.66    7.57
   0  -4  -3  318.12    7.34
   0   4  -3  310.67    6.51
  -4  -4  -3  107.45    4.20
  -4  -4  -3  107.26    5.98
  -4  -4   4   36.24    4.86
   0  -4   4  110.49    4.27
  -4   0   4  110.43    4.82
   4   0   4  107.55    2.18
  -4  -4   4   36.03    6.39
  -4   0   4  105.08    2.80
  -4  -4  -4   41.65   10.23
   0  -4  -4  108.86    3.60
  -4   0  -4  113.41    4.54
   0   4  -4  109.12    2.86
   0  -4  -4  110.09    4.32
   0   4  -4  107.58    3.12
  -4  -4  -4   38.00    3.53
   4   0  -4  104.74    2.59
  -4   0   5  533.47   12.30
   4   0   5  511.96    9.87
  -4  -4   5   23.35    4.09
  -4   0   5  519.04   10.33
   0  -4   5  525.26   11.79
  -4  -4  -5   29.23    2.82
  -4  -4  -5   40.32    9.92
  -4   0  -5  515.79   11.22
   0   4  -5  508.21    9.86
   4   0  -5  507.67    9.96
   0  -4  -5  516.18   11.51
   0  -4   6  545.05   12.24
  -4  -4   6  501.36   12.77
   4   0   6  532.97   10.39
   0   4   6  533.12   11.52
  -4   0   6  551.34   12.67
   4   0   6  533.64   10.38
  -4  -4  -6  508.11   12.71
   0  -4  -6  566.43   12.82
  -4  -4  -6  505.25   10.90
  -4   0  -6  534.45   12.03
   0  -4   7   85.60    4.24
   0   4   7   81.72    4.03
  -4   0   7   85.37    5.34
  -4  -4   7   23.13    5.02
   0   4   7   80.06    3.58
  -4   0  -7   83.33    7.37
  -4  -4  -7   15.23    6.35
   0   4   8   20.48    2.50
  -4   0   8   21.08    4.64
  -4  -4   8    7.74    2.92
   0   4   8   26.56    3.82
  -4   0  -8   26.08    4.99
  -4  -4  -8    8.96    4.69
   0   4   9  138.24    5.14
  -4  -4   9   37.48    5.48
   0   4   9  144.97    4.76
   0  -4   9  144.96    5.99
  -4   0   9  153.06    7.54
  -4   0  -9  134.49    5.71
  -4  -4  -9   33.18   10.42
   0  -4  10   82.20    5.25
  -4   0  10   71.76    5.95
  -1   4   0  517.89   10.67
   1  -4   0  530.70   10.86
  -5  -1   0  262.22    6.70
  -4  -5   0 1080.51   25.20
  -4  -5   0 1066.45   22.21
  -1   4   0  512.82   10.52
  -5  -1   0  271.78    6.50
  -1   4   1  154.94    4.40
  -5  -1   1  471.70   10.47
  -5  -1   1  463.83   10.51
  -1   4   1  158.17    4.10
   1  -4   1  147.69    3.79
   5   1   1  449.44    9.36
  -4  -5   1  761.53   17.25
  -1   4   1  153.74    3.95
   1  -4   1  157.44    4.81
  -4  -5   1  727.14   15.99
  -4  -5  -1  772.28   16.48
  -1   4  -1  143.27    3.79
  -4  -5  -1  759.87   17.34
   1  -4  -1  152.78    4.58
  -5  -1  -1  467.49   10.10
  -5  -1  -1  449.42   10.05
  -1   4  -1  150.16    3.99
  -4  -5   2  156.66    7.95
  -1   4   2  128.43    3.79
  -5  -1   2  380.47    9.02
  -5  -1   2  371.12    8.23
  -1   4   2  135.74    5.66
   1  -4   2  123.45    3.27
  -4  -5   2  155.42    6.46
   5   1   2  381.08    7.92
   1  -4   2  134.65    4.31
  -1   4   2  135.70    4.24
   1  -4  -2  135.77    4.06
  -1   4  -2  125.26    3.75
  -5  -1  -2  379.72    8.09
  -4  -5  -2  160.89    5.63
  -1   4  -2  133.96    3.57
  -4  -5  -2  153.24    5.87
  -5  -1  -2  385.04    9.20
   1  -4   3   25.78    1.38
  -5  -1   3  404.18    8.62
   1  -4   3   27.04    2.97
  -1   4   3   28.14    2.57
  -5  -1   3  417.92   10.11
   5   1   3  412.81    8.39
  -4  -5   3  467.69   10.61
  -4  -5   3  498.21   12.43
  -4  -5  -3  482.47   11.28
   1  -4  -3   26.19    2.47
  -1   4  -3   31.89    1.75
  -5  -1  -3  401.28    8.31
  -4  -5  -3  486.01   12.20
  -5  -1  -3  415.37   10.18
  -1   4   4  166.76    4.70
  -5  -1   4  309.46    8.09
  -4  -5   4  351.60    8.14
   1  -4   4  163.05    3.66
   5   1   4  299.24    6.20
  -4  -5   4  348.34   10.11
  -5  -1   4  297.62    6.48
   1  -4   4  170.75    5.14
  -5  -1  -4  305.13    6.36
  -5  -1  -4  305.23    8.13
  -4  -5  -4  364.87    8.70
  -1   4  -4  167.20    3.96
   5   1  -4  286.35    6.24
  -4  -5  -4  353.28   14.67
   1  -4  -4  167.52    6.63
  -4  -5   5  344.51    9.90
   5   1   5  203.73    4.30
  -5  -1   5  205.33    4.96
   1  -4   5   11.61    2.73
  -1   4   5    3.08    1.57
  -5  -1   5  225.59    7.55
   4   5  -5  342.44    7.48
  -5  -1  -5  219.93    6.85
   1  -4  -5    4.17    1.89
  -4  -5  -5  344.32   10.36
  -5  -1  -5  209.04    4.63
  -4  -5  -5  352.70    8.66
  -1   4  -5    4.34    1.25
   1  -4   6    0.21    1.68
  -5  -1   6  265.13    8.46
  -1   4   6    0.70    1.62
  -4  -5   6  930.27   20.61
   1  -4  -6    1.44    2.91
  -5  -1  -6  273.85   11.68
  -4  -5  -6  892.07   18.45
  -4  -5  -6  920.56   20.69
  -4  -5   7   84.50    6.59
  -1   4   7   29.92    3.09
  -1   4   7   28.57    2.63
   1  -4   7   31.25    3.51
  -5  -1   7  157.64    7.70
  -5  -1  -7  147.90    6.63
  -4  -5  -7   89.99   12.83
  -1   4   8   80.08    3.62
  -4  -5   8  123.62    6.16
  -5  -1   8  206.24    7.70
  -1   4   8   82.20    4.33
   1  -4   8   86.56    5.02
  -5  -1  -8  205.06    7.39
  -4  -5  -8  132.21   10.59
   1  -4   9    1.92    1.67
  -4  -5   9  174.65    7.14
  -5  -1   9  119.69    6.74
  -1   4   9    1.38    1.61
  -4  -5  -9  186.04    7.42
  -5  -1  -9  108.48    7.58
  -5  -1  10   57.29    5.29
   2  -3   0 2249.79   43.16
  -3  -5   0    8.35    3.91
  -2   3   0 2187.04   41.89
  -5  -2   0  651.88   13.96
  -5  -2   0  644.41   13.62
  -3  -5   0   21.90    3.06
  -3  -5   1  105.37    4.59
  -5  -2   1  203.87    5.98
  -5  -2   1  192.83    5.48
  -3  -5   1  102.98    6.41
  -3  -5  -1  104.75    4.89
  -5  -2  -1  198.67    5.46
  -5  -2  -1  197.61    5.39
  -3  -5  -1  109.28    4.29
  -5  -2   2  106.04    3.80
  -3  -5   2   19.48    4.01
  -3  -5   2   24.53    3.93
  -5  -2   2  110.02    4.60
  -2   3  -2 7759.85  147.75
  -5  -2  -2  110.44    5.20
  -3  -5  -2   26.10    5.10
  -3  -5  -2   16.78    3.04
  -5  -2  -2  112.11    3.85
  -3  -5   3   39.05    4.16
  -5  -2   3   52.42    4.55
  -5  -2   3   59.38    3.27
  -3  -5   3   34.86    6.28
   2  -3   3 5606.62  106.92
   5   2   3   51.74    1.87
  -3  -5  -3   35.62    5.77
  -5  -2  -3   57.75    4.33
  -5  -2  -3   51.37    2.65
  -3  -5  -3   33.43    3.03
  -2   3  -3 5586.57  106.50
  -2   3   4 5121.83   97.79
  -2   3   4 5270.14  100.64
   2  -3   4 5209.49   99.48
   5   2   4  144.94    3.59
   2  -3   4 5132.65   97.82
  -5  -2   4  146.48    5.68
  -3  -5   4   10.87    3.54
  -5  -2   4  146.01    5.19
  -2   3  -4 5027.02   95.93
  -2   3  -4 5291.06  100.90
  -3  -5  -4   11.83    2.59
   3   5  -4   11.26    1.83
  -5  -2  -4  144.33    5.83
  -3  -5  -4    8.54    4.22
   2  -3  -4 5220.28   99.91
   5   2  -4  136.18    3.36
  -5  -2  -4  145.13    3.87
  -3  -5   5    2.11    2.81
   2  -3   5 2315.83   44.34
  -2   3   5 2474.72   47.98
  -2   3   5 2473.57   47.61
  -5  -2   5  278.41    6.42
  -2   3   5 2470.69   47.53
  -5  -2   5  285.22    8.88
   2  -3   5 2430.07   46.81
  -5  -2  -5  295.68    6.52
   5   2  -5  271.28    5.76
  -3  -5  -5    1.45    0.98
   3   5  -5    2.00    1.10
  -5  -2  -5  297.91   10.28
  -2   3  -5 2454.30   47.16
  -3  -5  -5    2.09    1.63
  -2   3  -5 2445.08   46.87
   2  -3   6 1789.59   34.32
  -3  -5   6  166.03    6.95
  -2   3   6 1826.58   35.78
  -5  -2   6  172.16    6.96
   2  -3   6 1832.33   35.64
  -2   3   6 1896.95   36.80
  -5  -2  -6  180.07    4.28
  -5  -2  -6  174.15    8.56
  -2   3  -6 1849.71   35.58
  -3  -5  -6  161.70   10.79
  -3  -5  -6  165.01    6.09
  -5  -2   7  165.89    7.44
  -2   3   7 2451.71   47.87
   2  -3   7 2495.92   48.28
  -3  -5   7   29.70    4.81
  -2   3   7 2534.75   48.89
  -2   3  -7 2463.63   47.18
  -3  -5  -7   15.43    4.56
  -3  -5  -7   21.20    5.02
  -5  -2  -7  151.37   10.60
   2  -3   8 2511.79   48.71
  -3  -5   8   16.05    4.48
  -5  -2   8   11.05    4.41
  -2   3   8 2467.06   48.22
  -5  -2  -8    1.88    1.87
  -3  -5  -8   17.90    3.82
  -3  -5   9   11.49    4.59
  -5  -2   9   70.76    5.76
  -2   3   9 1166.72   23.80
  -5  -2  -9   44.04   11.16
  -2   3  10  989.95   20.63
  -2  -5   0  857.00   17.79
   3  -2   0  535.33   10.79
  -3   2   0  558.45   10.99
  -3   2   0  560.59   11.23
   3  -2   0  533.73   10.65
  -2  -5   0  823.20   17.03
  -5  -3   0  705.12   16.20
  -5  -3   0  735.65   15.67
   3  -2   1  737.66   14.32
  -2  -5   1  171.63    5.81
  -2  -5   1  184.62    8.94
  -5  -3   1 1211.28   24.64
  -3   2   1  772.10   15.17
   3  -2   1  765.46   14.96
  -3   2   1  757.74   14.87
  -5  -3   1 1238.41   25.63
   3  -2  -1  717.96   14.18
  -3   2  -1  738.82   14.63
  -5  -3  -1 1186.43   23.65
  -3   2  -1  736.85   14.23
   3  -2  -1  731.33   14.27
  -2  -5  -1  171.39    5.43
  -2  -5  -1  173.90    5.04
  -5  -3  -1 1197.36   24.28
  -3   2   2 2836.60   54.41
  -3   2   2 2840.20   54.34
  -3   2   2 2850.88   54.66
  -5  -3   2 1912.99   37.82
   3  -2   2 2854.02   54.59
   3  -2   2 2721.28   51.84
  -2  -5   2  238.65    6.06
  -2  -5   2  248.03    7.04
  -5  -3   2 1934.77   38.06
  -5  -3  -2 1906.61   39.30
  -3   2  -2 2790.90   53.48
  -2  -5  -2  248.02    7.61
  -2  -5  -2  248.81    6.83
  -5  -3  -2 1895.56   37.10
  -3   2  -2 2758.74   52.55
   3  -2  -2 2825.73   54.02
  -2  -5   3   52.78    5.17
  -5  -3   3 1152.50   23.37
  -3   2   3 1309.16   25.62
  -5  -3   3 1116.09   23.35
   3  -2   3 1269.66   24.60
   3  -2   3 1268.60   24.31
  -3   2   3 1275.02   24.67
  -5  -3  -3 1145.61   24.34
  -2  -5  -3   51.97    3.84
  -2  -5  -3   59.15    3.39
  -5  -3  -3 1085.17   21.80
  -3   2  -3 1257.58   24.54
   3  -2  -3 1282.35   24.75
  -3   2  -3 1272.33   24.33
   2   5  -3   55.52    2.99
   3  -2   4  741.70   14.64
  -3   2   4  734.05   15.02
   3  -2   4  737.05   14.29
  -2  -5   4  162.06    6.39
  -3   2   4  753.45   14.86
  -5  -3   4 1119.57   22.39
  -5  -3   4 1111.92   23.22
  -3   2  -4  726.39   14.03
  -2  -5  -4  152.48    8.49
  -5  -3  -4 1077.85   23.24
   2   5  -4  157.73    4.16
  -2  -5  -4  164.93    5.33
   3  -2  -4  736.31   14.42
  -5  -3  -4 1083.46   21.49
  -3   2  -4  729.01   14.59
  -3   2   5   91.18    2.63
   3  -2   5   89.65    2.65
  -3   2   5   94.04    4.15
  -2  -5   5  386.00   10.09
  -3   2   5   91.64    3.90
   3  -2   5   88.62    2.61
  -5  -3   5  764.97   15.68
  -5  -3   5  783.44   17.88
  -5  -3  -5  770.05   15.48
  -2  -5  -5  398.54    9.30
   2   5  -5  379.06    7.86
  -3   2  -5   97.73    3.52
  -2  -5  -5  385.22   12.79
  -5  -3  -5  782.21   17.65
  -3   2   6    7.65    1.73
   3  -2   6    8.69    2.11
   3  -2   6   10.17    1.61
  -3   2   6   13.12    2.71
  -3   2   6    8.94    1.20
  -5  -3   6  314.68    9.79
   3  -2   6   10.98    1.32
  -2  -5   6  111.01    5.76
  -5  -3  -6  320.34    7.46
  -2  -5  -6  111.88   10.67
  -5  -3  -6  311.19   13.70
  -2  -5  -6  102.14    5.70
  -3   2  -6    9.53    2.13
   3  -2   7  297.07    6.68
  -3   2   7  308.56    8.22
  -5  -3   7  784.63   17.47
  -2  -5   7  281.02    8.47
  -3   2   7  308.37    6.68
  -2  -5  -7  275.07    7.50
  -2  -5  -7  259.26    8.09
  -3   2  -7  298.96    6.73
  -5  -3  -7  840.33   22.82
  -2  -5   8    5.48    3.69
  -3   2   8  773.53   16.63
  -5  -3   8  638.75   15.98
  -5  -3  -8  630.47   16.10
  -3   2  -8  780.96   15.71
   2   5   9   69.10    4.54
  -2  -5   9   74.94    5.78
  -5  -3   9  331.29   10.85
  -3   2   9  155.63    6.02
  -5  -3  -9  329.66    9.01
  -3   2  10   54.34    4.62
  -3   2  11   52.16    3.95
  -4   1   0   17.58    2.44
  -1  -5   0  204.14    7.58
   4  -1   0   14.57    1.46
   4  -1   0   16.74    1.89
  -5  -4   0  498.10   11.32
  -5  -4   0  507.42   13.70
  -1  -5   0  199.34    5.79
  -4   1   0   16.04    1.61
  -4   1   1  926.21   18.27
  -5  -4   1   88.53    5.23
   4  -1   1  925.01   17.86
  -4   1   1  917.06   18.02
  -1  -5   1   -2.64    1.57
  -5  -4   1   87.37    6.96
  -1  -5   1    5.89    3.05
   4  -1   1  873.98   17.17
  -1  -5  -1    0.55    1.62
  -5  -4  -1   90.59    4.72
  -4   1  -1  913.52   18.13
  -5  -4  -1   82.51    8.19
   4  -1  -1  894.22   17.43
   4  -1  -1  921.24   18.01
  -4   1  -1  887.67   17.28
  -1  -5  -1   -0.77    2.04
  -5  -4   2   97.48    7.62
  -5  -4   2   93.02    5.05
   4  -1   2  463.72    9.66
  -4   1   2  472.06    9.66
  -4   1   2  478.92   10.21
  -1  -5   2    2.19    2.34
  -1  -5  -2    0.70    1.72
  -1  -5  -2   -0.09    1.79
  -4   1  -2  478.29    9.26
  -5  -4  -2   93.61    9.39
   1   5  -2   -2.56    1.61
  -5  -4  -2  101.48    4.48
   4  -1  -2  452.07    9.10
  -4   1  -2  476.97   10.00
  -1  -5   3    3.30    3.03
  -5  -4   3  114.04    6.18
  -5  -4   3  125.44    6.24
  -4   1   3  423.95    8.71
  -4   1   3  442.46   10.08
  -4   1  -3  428.86    9.48
  -1  -5  -3    2.87    1.94
  -5  -4  -3  121.52    7.51
   4  -1  -3  404.73    8.18
   1   5  -3    1.85    1.81
   1   5  -3    3.28    1.50
  -1  -5  -3    3.57    2.83
  -5  -4  -3  118.94    4.34
  -5  -4   4   63.51    7.64
  -4   1   4  387.34    8.90
  -1  -5   4    0.25    2.50
  -5  -4   4   73.01    5.33
  -4   1   4  397.51    8.09
  -5  -4  -4   63.95    9.47
  -1  -5  -4    3.31    2.47
   1   5  -4   -0.19    0.60
  -4   1  -4  395.81    8.75
  -5  -4  -4   73.29    4.04
  -1  -5  -4    1.12    1.32
   1   5  -4    1.04    1.16
   4  -1  -4  388.56    7.87
  -4   1   5   60.17    1.99
  -5  -4   5  177.56    7.41
  -4   1   5   58.24    4.23
  -1  -5   5   30.16    4.46
  -1  -5  -5   28.51    3.26
   1   5  -5   31.40    1.52
  -1  -5  -5   34.58    3.15
  -5  -4  -5  183.41    6.66
  -4   1  -5   66.94    3.38
   1   5  -5   30.03    1.69
  -5  -4  -5  197.72    5.85
  -1  -5   6   15.06    3.26
  -4   1   6  156.70    3.59
  -4   1   6  166.37    3.71
   4  -1   6  170.79    3.47
  -4   1   6  175.06    6.06
  -5  -4   6  137.53    8.09
  -1  -5  -6   12.11    3.77
  -5  -4  -6  122.99    7.14
  -4   1  -6  174.05    5.19
  -1  -5  -6   17.74    2.66
   1   5   7    0.24    2.38
  -4   1   7   55.96    4.82
  -1  -5   7    3.72    2.28
  -5  -4   7   85.62    7.29
  -5  -4  -7   68.04   10.92
  -4   1  -7   55.39    3.37
  -1  -5  -7    1.08    1.57
   1   5   8    1.65    2.20
  -1  -5   8    4.92    3.32
  -5  -4   8   16.82    4.26
  -4   1   8  292.84    8.32
   1   5   8    9.10    3.30
  -4   1  -8  297.68    8.51
  -5  -4  -8    9.18    3.75
  -4   1   9   73.81    5.44
  -1  -5   9    5.09    2.77
   1   5   9    5.79    3.42
  -5  -4   9   62.94    6.36
  -5  -4  -9   60.51    9.58
  -4   1  -9   59.92    9.71
  -4   1  10   31.37    5.36
   5   0   0 1417.93   27.45
  -5  -5   0 1085.77   22.95
  -5   0   0 1509.74   29.46
   0  -5   0 1544.24   30.46
   0   5   0 1572.99   30.76
  -5  -5   0  999.91   24.85
  -5   0   0 1540.27   30.43
   0  -5   1 1492.22   29.46
  -5   0   1 1437.76   28.33
  -5   0   1 1417.24   27.77
  -5  -5   1  903.27   21.50
  -5  -5   1  908.84   19.50
   5   0   1 1409.09   27.21
   0   5   1 1482.89   29.01
  -5   0  -1 1447.01   28.54
  -5  -5  -1  864.51   22.83
  -5   0  -1 1477.75   28.61
  -5  -5  -1  918.63   19.58
   0  -5  -1 1408.91   27.77
   0   5  -1 1451.29   28.28
  -5  -5   2  253.42    7.13
  -5  -5   2  249.76    8.26
   5   0   2  176.29    3.89
  -5   0   2  173.83    5.62
   0  -5   2  182.56    5.72
  -5   0   2  179.84    4.67
  -5  -5  -2  250.24    8.75
  -5   0  -2  178.95    5.58
  -5  -5  -2  250.47    7.66
  -5   0  -2  175.40    4.22
   0   5  -2  177.97    4.59
   5   0  -2  169.75    4.09
   0  -5  -2  179.30    5.30
   0   5  -2  178.56    4.52
  -5   0   3  700.79   14.18
  -5   0   3  680.77   14.33
  -5  -5   3  708.66   16.40
  -5  -5   3  705.20   16.31
   5   0   3  686.70   13.30
   0  -5   3  682.00   14.45
  -5   0  -3  696.72   14.62
  -5  -5  -3  730.70   15.71
   5   0  -3  676.81   13.47
   0   5  -3  687.44   13.70
  -5  -5  -3  718.60   17.63
   0  -5  -3  677.62   14.34
   0   5  -3  693.26   13.96
  -5   0  -3  682.68   13.33
  -5   0   4  524.22   12.11
  -5   0   4  526.08   10.76
   0  -5   4  510.58   11.61
  -5  -5   4  475.72   12.14
  -5  -5   4  455.43   10.96
   0   5  -4  507.22   10.42
  -5  -5  -4  458.57   10.84
  -5   0  -4  524.63   11.81
   0  -5  -4  489.97   10.88
  -5  -5  -4  450.90   14.08
   0   5  -4  516.00   10.40
   5   0  -4  501.31   10.17
  -5   0   5  479.12   11.56
  -5  -5   5  399.58   11.44
   0   5   5  464.52   10.87
   0  -5   5  461.18   10.99
  -5   0   5  471.98    9.78
  -5   0  -5  470.50   10.76
   0   5  -5  457.23    9.16
  -5  -5  -5  385.28   12.26
   5   0  -5  452.85    9.14
  -5  -5  -5  371.14    9.58
   0   5  -5  439.63    8.80
   0  -5  -5  481.09   11.73
   0  -5   6 1214.56   25.03
  -5   0   6 1198.89   23.13
   0   5   6 1208.52   24.57
  -5   0   6 1214.48   25.20
  -5  -5   6 1057.25   23.05
   5   0  -6 1145.42   22.05
  -5   0  -6 1248.47   25.29
   0  -5  -6 1184.97   25.45
  -5  -5  -6 1060.79   24.13
  -5   0   7  104.30    6.15
   0  -5   7   96.55    5.40
   0   5   7   88.82    4.20
  -5  -5   7  117.35    7.90
   0  -5  -7   98.68    8.86
  -5   0  -7  106.13    8.93
  -5  -5  -7  111.73    7.93
   0   5   8  214.74    5.89
  -5  -5   8  255.84    9.60
  -5   0   8  229.58    7.50
   0   5   8  220.97    6.06
   0  -5   8  224.13    7.11
  -5  -5  -8  237.84   13.90
  -5   0  -8  206.25    9.19
  -5   0   9  224.31    7.67
   0   5   9  215.39    6.20
   0  -5   9  235.26    7.66
  -5   0  -9  220.62    6.49
  -5   0  10  132.31    7.24
   0  -5  10  116.90    5.39
  -6  -1   0   16.72    2.98
  -6  -1   0   13.65    2.56
  -5  -6   0   87.32   10.75
  -5  -6   0   80.53    5.10
  -6  -1   1  794.75   16.85
   1  -5   1 4943.35   94.65
  -6  -1   1  784.19   16.28
  -5  -6   1    4.71    4.35
  -5  -6   1    1.55    3.08
  -6  -1  -1  794.98   16.28
  -5  -6  -1    1.79    2.61
  -5  -6  -1    1.09    1.79
  -1   5  -1 5139.82   98.14
   1  -5  -1 4962.46   95.05
  -6  -1  -1  785.73   16.51
   6   1   2  468.64    9.57
  -5  -6   2  311.72    9.37
  -6  -1   2  465.37   10.72
  -5  -6   2  289.93    9.23
   1  -5   2  743.70   15.26
  -6  -1   2  468.41   10.36
  -1   5   2  744.77   15.20
  -1   5  -2  767.38   15.28
  -6  -1  -2  472.63    9.95
   1  -5  -2  730.72   15.22
  -5  -6  -2  312.71    8.92
  -6  -1  -2  466.80   10.50
  -5  -6  -2  285.47   12.96
  -1   5  -2  740.40   14.68
  -5  -6   3   24.92    5.47
  -6  -1   3  372.37    8.66
   6   1   3  362.53    7.53
  -5  -6   3   11.40    4.28
   1  -5   3 3154.28   60.80
  -1   5   3 3203.90   61.78
  -6  -1   3  376.45    9.54
  -6  -1  -3  376.75    9.90
  -5  -6  -3   24.98    4.20
  -1   5  -3 3183.82   61.02
  -6  -1  -3  363.78    7.78
   1  -5  -3 3129.02   60.38
  -5  -6  -3   17.43    5.42
  -1   5  -3 3180.50   60.87
   1  -5   4 2012.74   39.39
  -6  -1   4  514.83   12.80
  -5  -6   4   26.90    2.95
  -1   5   4 1959.83   38.31
  -5  -6   4   31.07    4.85
   6   1   4  493.59    9.80
  -6  -1   4  515.06   10.80
   1  -5  -4 2071.64   40.52
  -6  -1  -4  521.46   12.30
  -5  -6  -4   27.93    7.54
  -6  -1  -4  517.41   10.44
  -1   5  -4 2014.92   38.69
  -1   5  -4 2076.38   39.91
  -5  -6  -4   25.49    3.80
   1  -5   5 2125.30   41.57
  -6  -1   5   83.71    3.34
  -6  -1   5   90.22    6.10
  -5  -6   5  148.51    7.72
  -1   5   5 2089.32   40.88
   1  -5  -5 2062.88   40.94
  -5  -6  -5  131.18    8.31
  -1   5  -5 2093.85   40.16
  -6  -1  -5   81.66    4.90
  -1   5  -5 2089.42   40.09
  -5  -6  -5  127.51    5.06
   1  -5   6 4586.90   88.30
  -1   5   6 4633.19   89.08
  -5  -6   6   72.05    6.50
  -6  -1   6  196.50    7.59
  -5  -6  -6   62.16    6.08
  -1   5  -6 4404.32   83.88
  -6  -1  -6  199.92    6.93
   1  -5  -6 4677.11   91.76
  -1   5   7  558.35   12.25
   1  -5   7  565.20   12.53
  -5  -6   7  247.47    9.05
  -6  -1   7  146.87    7.09
  -5  -6  -7  231.62   12.08
  -6  -1  -7  132.48   10.77
   1  -5  -7  572.69   12.85
  -6  -1   8  306.44   10.15
  -1   5   8  741.85   15.97
  -1   5   8  706.49   15.07
   1  -5   8  736.93   16.02
  -6  -1  -8  280.48    9.52
  -1   5   9  932.99   19.34
   1  -5   9  968.08   20.44
  -6  -1   9   90.92    6.91
  -6  -1  -9   61.82   10.84
  -2   4   0 3021.42   57.95
   2  -4   0 3127.54   60.04
  -6  -2   0   11.10    2.51
  -4  -6   0  900.30   20.19
  -4  -6   0  875.24   18.60
  -2   4   0 3155.29   60.44
  -6  -2   0   11.22    3.10
  -6  -2   1  614.91   13.44
  -2   4   1  391.02    8.58
   2  -4   1  373.78    7.77
  -2   4   1  378.37    8.06
   2  -4   1  377.96    8.06
  -6  -2   1  613.71   13.35
  -4  -6   1  138.90    6.35
  -4  -6   1  131.14    6.45
  -4  -6  -1  134.78    6.28
  -4  -6  -1  146.70   10.99
   2  -4  -1  395.77    8.61
  -6  -2  -1  613.34   13.09
   2  -4  -1  358.59    7.60
  -6  -2  -1  601.47   13.55
  -2   4  -1  377.18    7.98
  -2   4  -1  383.55    8.21
  -2   4   2  832.83   16.49
  -4  -6   2  300.41    8.25
  -4  -6   2  304.61    8.84
  -6  -2   2 1363.71   27.02
   2  -4   2  854.64   16.76
   2  -4   2  852.36   17.00
  -6  -2   2 1400.03   28.32
  -2   4   2  880.02   17.47
  -2   4  -2  827.29   16.29
   2  -4  -2  860.21   17.17
  -4  -6  -2  293.25   10.26
  -2   4  -2  837.79   16.54
  -4  -6  -2  313.78    8.36
  -6  -2  -2 1427.68   28.33
   2  -4  -2  828.36   16.42
  -6  -2  -2 1369.56   27.84
  -4  -6   3  240.97    7.48
   2  -4   3  183.89    4.09
   2  -4   3  191.15    4.87
  -2   4   3  189.10    4.84
  -6  -2   3  834.44   17.82
  -4  -6   3  247.77    8.30
  -6  -2   3  837.77   17.14
  -2   4  -3  195.05    4.52
  -4  -6  -3  250.33    7.81
  -6  -2  -3  811.94   17.62
  -6  -2  -3  785.87   15.99
  -2   4  -3  183.29    4.41
   2  -4  -3  190.34    7.50
  -4  -6  -3  244.85   11.56
   2  -4   4  292.08    6.62
  -6  -2   4  713.84   14.60
  -2   4   4  290.12    6.70
  -4  -6   4  143.92    6.50
   2  -4   4  297.08    6.19
  -6  -2   4  730.02   16.30
  -6  -2  -4  715.05   16.21
   2  -4  -4  289.17    7.18
  -2   4  -4  298.67    6.36
  -6  -2  -4  693.17   14.06
  -4  -6  -4  127.79    5.56
  -2   4  -4  283.19    6.25
   4   6  -4  129.25    4.54
  -4  -6  -4  116.64   16.74
   2  -4   5  908.23   17.70
  -2   4   5  928.48   18.60
  -6  -2   5  231.56    6.54
  -6  -2   5  244.87    8.98
  -4  -6   5  401.49   12.03
   2  -4   5  928.69   18.74
  -4  -6  -5  391.26    9.59
  -6  -2  -5  246.04    5.52
  -6  -2  -5  235.03   10.17
   2  -4  -5  926.60   19.64
  -4  -6  -5  391.63   13.67
  -2   4  -5  929.70   18.19
   4   6  -5  390.96    8.64
   2  -4   6  242.80    5.12
  -6  -2   6   70.32    5.90
  -2   4   6  243.56    6.07
   2  -4   6  249.76    6.35
  -4  -6   6  150.04    7.68
  -2   4   6  251.10    6.91
  -6  -2  -6   49.06   11.13
  -4  -6  -6  127.64    7.22
  -2   4  -6  246.38    5.41
  -4  -6  -6  137.12    5.16
  -4  -6   7  219.09    8.60
   2  -4   7  480.37   10.55
  -2   4   7  479.17   10.39
  -2   4   7  472.41   10.63
  -6  -2   7  393.76   11.48
  -6  -2  -7  378.96   12.06
  -4  -6  -7  218.01   10.79
  -2   4  -7  462.98    9.20
  -4  -6   8   34.38    5.76
   2  -4   8   14.96    2.56
  -2   4   8   15.70    2.20
  -2   4   8   16.53    3.52
  -6  -2   8  805.31   18.58
  -6  -2  -8  839.99   18.27
  -4  -6  -8   38.04    5.17
  -2   4   9  163.37    5.59
  -6  -2   9  151.46    7.28
  -6  -2  -9  164.22    9.52
  -2   4  10  243.63    7.35
   3  -3   0  805.45   15.82
  -3  -6   0 2086.14   42.08
  -3  -6   0 2070.51   40.96
  -3   3   0  850.77   16.75
  -6  -3   0   79.91    4.19
  -3   3   0  782.53   15.30
   3  -3   0  859.15   16.81
  -6  -3   0   92.61    4.69
   3  -3   1 1260.19   24.36
  -6  -3   1  682.51   16.32
  -3   3   1 1253.75   24.34
  -3  -6   1  483.90   11.82
   3  -3   1 1263.67   24.39
  -3   3   1 1271.97   24.69
  -6  -3   1  685.14   15.19
  -3  -6   1  473.66   11.40
  -6  -3  -1  667.71   16.09
   3  -3  -1 1288.76   25.28
  -3  -6  -1  481.18   13.09
  -3   3  -1 1256.45   24.24
   3  -3  -1 1280.72   24.78
  -3  -6  -1  478.93   11.35
  -3   3  -1 1289.81   25.03
  -6  -3  -1  686.17   14.99
  -3  -6   2  566.05   13.56
  -6  -3   2   47.48    3.82
  -6  -3   2   47.52    7.55
  -3   3   2   27.09    2.48
  -3  -6   2  548.45   13.52
  -3   3   2   34.39    2.22
   3  -3   2   32.47    1.94
   3  -3   2   30.96    1.79
  -6  -3  -2   51.94    6.10
  -6  -3  -2   44.49    3.43
   3  -3  -2   30.15    1.84
   3  -3  -2   37.03    5.06
  -3   3  -2   30.33    1.60
  -3  -6  -2  550.99   12.67
  -3   3  -2   31.26    2.50
  -3  -6  -2  541.06   15.95
  -3   3   3    2.10    1.28
   3  -3   3    4.46    1.28
  -3  -6   3  754.50   16.65
  -6  -3   3  172.83    6.70
  -6  -3   3  162.97    6.12
   3  -3   3    2.02    1.19
   3  -3  -3    4.64    2.53
  -3  -6  -3  788.77   17.50
  -6  -3  -3  165.64    5.59
  -3   3  -3    2.97    1.88
  -6  -3  -3  163.31    7.46
  -3   3  -3    0.96    1.08
   3  -3  -3    3.06    1.48
  -3  -6  -3  772.47   16.84
  -6  -3   4  294.67    7.73
  -3  -6   4  393.73   10.59
  -3   3   4  259.87    6.71
   3  -3   4  271.97    5.87
  -3   3   4  276.26    6.30
   3  -3   4  260.62    5.77
  -6  -3   4  307.50    9.77
  -6  -3  -4  298.62    8.61
  -3   3  -4  267.51    6.02
   3   6  -4  382.57    8.61
  -3  -6  -4  402.02   10.11
  -3  -6  -4  374.88   14.31
  -6  -3  -4  291.15    7.11
  -3   3  -4  257.91    5.47
   3  -3  -4  256.23    5.71
   3  -3   5    7.84    1.11
   3  -3   5    4.49    1.53
  -3  -6   5  725.40   16.68
  -3   3   5    4.36    1.81
  -6  -3   5   63.57    5.68
  -6  -3   5   51.22    5.54
  -3   3   5    8.25    1.67
  -3   3   5    3.18    1.03
   3   6  -5  733.39   14.83
  -3  -6  -5  737.64   16.65
  -6  -3  -5   65.37    2.78
  -3   3  -5    4.51    1.52
  -6  -3  -5   66.19   11.02
  -3   3  -5    5.94    1.05
  -3  -6  -5  714.51   15.67
  -3   3   6  130.80    4.56
  -6  -3   6  498.06   13.25
   3  -3   6  123.71    3.77
  -3   3   6  121.10    3.44
  -3  -6   6  665.15   15.66
   3  -3   6  116.95    3.12
  -3  -6  -6  677.77   17.20
  -3   3  -6  121.37    3.10
  -3   3  -6  124.59    3.63
  -3  -6  -6  653.19   14.24
  -6  -3  -6  493.24   12.88
  -3   3   7    0.58    2.29
  -3   3   7    1.08    0.92
  -6  -3   7   20.11    5.22
   3  -3   7   -0.32    1.04
  -3  -6   7  364.47   10.86
  -6  -3  -7   21.53    6.95
  -3  -6  -7  363.57    8.97
  -3  -6  -7  361.33   10.30
  -3   3  -7    2.92    1.41
  -3  -6   8  135.57    7.42
  -3   3   8   55.44    5.34
  -6  -3   8   96.68    7.24
  -6  -3  -8   87.20   11.71
  -3   3  -8   32.49    5.43
  -3  -6  -8  132.12    6.74
  -3   3   9    2.73    3.37
  -3   3  10   20.21    3.23
  -4   2   0 3150.61   60.40
  -6  -4   0    6.99    3.73
  -6  -4   0    5.37    2.73
  -4   2   0 3090.88   59.14
  -2  -6   0  268.12    7.96
  -2  -6   0  271.48    7.73
  -2  -6   1  699.45   14.74
  -4   2   1  390.48    8.51
  -2  -6   1  670.97   14.87
  -6  -4   1  136.14   10.15
  -6  -4   1  137.75    5.99
  -4   2   1  379.27    8.00
  -4   2   1  400.12    8.29
   4  -2   1  372.41    7.69
  -2  -6  -1  673.47   14.96
  -6  -4  -1  136.77    5.28
  -2  -6  -1  642.85   14.50
  -6  -4  -1  139.51    6.95
   4  -2  -1  361.96    7.56
  -4   2  -1  388.43    7.80
  -4   2  -1  384.49    8.19
  -4   2  -1  378.67    7.55
  -4   2   2  848.01   17.08
  -6  -4   2  287.64    8.99
   4  -2   2  828.58   16.41
  -6  -4   2  284.08    7.65
  -4   2   2  869.26   17.19
  -2  -6   2 1100.91   22.69
  -4   2   2  864.68   17.16
  -6  -4  -2  296.84    7.83
  -6  -4  -2  289.53    9.99
  -4   2  -2  819.59   15.75
   4  -2  -2  802.97   15.74
  -2  -6  -2 1055.13   24.40
  -4   2  -2  823.74   16.35
  -2  -6  -2 1053.55   21.54
   4  -2   3  189.52    4.44
  -6  -4   3  150.65    7.47
  -4   2   3  199.77    5.31
  -2  -6   3  656.21   14.89
  -4   2   3  197.73    4.74
  -6  -4   3  157.51    7.14
  -4   2  -3  187.90    4.84
  -2  -6  -3  647.35   17.07
  -6  -4  -3  176.63    9.52
  -2  -6  -3  650.97   14.64
   2   6  -3  652.11   13.71
   4  -2  -3  184.65    4.24
  -6  -4  -3  152.86    5.23
  -2  -6   4  647.60   14.89
  -6  -4   4  138.63    5.16
  -6  -4   4  150.18    8.00
  -4   2   4  303.02    7.68
  -4   2   4  294.67    6.36
  -2  -6  -4  646.10   16.12
   2   6  -4  668.84   13.87
  -6  -4  -4  139.15    6.96
   4  -2  -4  294.63    6.22
  -2  -6  -4  677.58   14.76
  -4   2  -4  290.31    6.71
  -6  -4  -4  125.03    5.04
  -4   2   5  938.88   19.50
  -4   2   5  905.28   17.75
   4  -2   5  919.56   17.62
  -2  -6   5  413.77   10.97
  -6  -4   5   60.27    5.46
   2   6  -5  406.86    8.57
  -6  -4  -5   58.07    9.60
  -2  -6  -5  422.71   10.33
  -2  -6  -5  387.01   11.88
   4  -2  -5  922.16   18.06
  -4   2  -5  915.65   18.50
  -6  -4  -5   53.97    3.11
   4  -2   6  243.46    5.03
   4  -2   6  247.15    5.03
  -6  -4   6   12.50    5.10
  -4   2   6  265.18    7.87
  -2  -6   6  168.47    7.13
  -4   2   6  242.21    5.51
  -4   2   6  236.84    5.45
  -6  -4  -6   12.80    4.80
  -2  -6  -6  176.81    7.35
  -2  -6  -6  166.49    8.85
  -4   2  -6  241.00    6.27
  -4   2   7  465.19    9.46
  -2  -6   7  487.69   12.56
  -6  -4   7   65.11    6.64
  -4   2   7  484.24   11.06
  -6  -4  -7   73.07    6.16
  -4   2  -7  476.80   10.32
  -2  -6  -7  467.50   12.12
  -2  -6  -7  482.76   12.01
  -2  -6   8  414.18   11.15
  -6  -4   8  207.38    8.81
  -4   2   8   17.09    3.60
   2   6   8  411.47   10.58
  -4   2  -8   16.99    3.60
  -6  -4  -8  189.89   11.60
  -4   2   9  166.93    5.98
   2   6   9  186.63    6.91
  -2  -6   9  177.31    7.45
  -4   2  10  229.13    7.60
  -1  -6   0   18.37    2.93
  -5   1   0  518.30   10.80
  -1  -6   0   25.39    3.08
  -6  -5   0  377.60   11.39
  -6  -5   0  374.82   10.40
   5  -1   0  510.47   10.25
  -5   1   0  545.90   11.55
  -5   1   1  733.16   14.84
  -6  -5   1  269.65    8.78
  -1  -6   1  405.96    9.71
  -6  -5   1  261.40    8.10
  -5   1   1  702.12   14.14
   5  -1   1  739.70   14.44
  -5   1  -1  707.01   14.38
  -6  -5  -1  263.90    7.79
  -1  -6  -1  395.76    9.42
   5  -1  -1  685.73   13.84
  -6  -5  -1  261.90    8.05
  -5   1  -1  742.40   14.63
  -1  -6  -1  384.66    8.76
   1   6  -1  400.38    9.29
  -6  -5   2  259.69    8.67
  -5   1   2   20.67    2.40
  -6  -5   2  263.59    8.44
   5  -1   2   17.62    1.01
  -5   1   2   19.32    2.74
  -1  -6   2 1515.80   30.30
  -1  -6  -2 1515.50   30.00
   1   6  -2 1560.93   30.50
  -6  -5  -2  242.86   11.52
  -5   1  -2   16.01    2.79
  -6  -5  -2  259.92    8.28
   5  -1  -2   16.84    1.49
  -1  -6  -2 1515.26   30.05
  -6  -5   3  174.39    7.64
  -5   1   3  317.73    7.15
  -1  -6   3  636.59   14.22
  -5   1   3  320.56    7.63
  -6  -5   3  178.72    7.40
  -6  -5  -3  189.86    7.27
  -1  -6  -3  643.99   14.13
  -5   1  -3  328.90    8.12
  -6  -5  -3  188.84    7.19
  -1  -6  -3  641.53   13.77
   5  -1  -3  309.51    6.77
   1   6  -3  650.03   13.56
  -1  -6   4  567.41   12.86
  -6  -5   4  226.23    6.38
  -5   1   4  191.59    5.95
  -5   1   4  200.28    4.68
  -6  -5   4  233.99    8.45
  -1  -6  -4  582.62   13.14
  -6  -5  -4  236.76    7.15
   5  -1  -4  185.59    4.30
  -5   1  -4  206.80    5.99
  -6  -5  -4  217.33   13.76
   1   6  -4  560.21   11.58
  -1  -6  -4  559.48   12.45
  -6  -5   5  280.66   10.01
  -5   1   5   91.36    4.97
  -1  -6   5  182.32    7.14
  -5   1   5   86.83    2.72
   1   6  -5  178.04    4.26
   5  -1  -5   80.54    2.38
  -6  -5  -5  254.31    8.21
  -1  -6  -5  183.50    5.96
  -5   1  -5   91.00    4.25
  -1  -6  -5  185.73    6.20
  -5   1   6  793.52   15.58
   1   6   6   13.42    4.37
  -1  -6   6    3.79    2.66
  -6  -5   6  161.09    8.48
  -5   1   6  802.42   17.30
  -6  -5  -6  156.56   11.70
  -1  -6  -6   10.54    3.13
   5  -1  -6  772.27   15.12
  -5   1  -6  826.04   17.44
  -6  -5   7  166.13    8.37
  -1  -6   7  407.52   10.85
  -5   1   7    5.47    2.48
   1   6   7  393.81    9.78
  -5   1  -7    3.51    3.14
  -6  -5  -7  165.00   14.29
  -1  -6  -7  407.70   10.02
  -5   1   8  100.31    5.84
   1   6   8  702.96   15.92
  -1  -6   8  695.94   16.11
  -5   1  -8   96.27   11.72
  -1  -6  -8  691.26   14.91
  -5   1   9   70.77    5.66
   1   6   9  122.89    5.30
  -1  -6   9  107.38    6.18
  -5   1  -9   62.11   10.79
  -5   1  10   10.74    4.03
  -6   0   0  690.39   14.27
   0  -6   0  666.99   14.23
  -6  -6   0  179.07    7.32
  -6  -6   0  160.11    8.96
   0   6   0  686.91   14.35
  -6   0   0  677.24   14.47
   0  -6   1   46.38    4.08
  -6   0   1   41.93    3.03
  -6   0   1   41.40    2.80
   6   0   1   39.14    1.74
  -6  -6   1  165.60    6.29
   0   6   1   46.89    3.19
  -6  -6   1  161.30    7.13
   0  -6  -1   42.32    3.66
  -6   0  -1   43.42    2.75
  -6   0  -1   43.87    3.29
  -6  -6  -1  149.85   13.71
  -6  -6  -1  167.82    8.15
   0   6  -1   49.80    3.07
  -6  -6   2   28.57    6.86
  -6   0   2  225.34    6.64
  -6   0   2  218.12    5.89
  -6  -6   2   46.01    5.41
   6   0   2  215.11    4.73
   0   6   2  210.85    6.43
   0  -6   2  216.66    6.27
  -6  -6  -2   33.36    9.91
  -6   0  -2  223.35    5.27
   0  -6  -2  217.16    5.97
  -6  -6  -2   34.51    4.28
  -6   0  -2  223.55    6.96
   0   6  -2  211.75    5.45
   0   6   3  117.93    5.53
  -6   0   3  101.65    5.20
  -6   0   3  101.13    3.84
  -6  -6   3   50.39    5.93
   0  -6   3  116.01    5.21
  -6  -6   3   31.71    8.62
   6   0   3  108.03    2.74
  -6  -6  -3   43.80    4.22
  -6   0  -3  106.48    2.99
   0   6  -3  100.86    3.40
   0  -6  -3  110.98    5.02
  -6   0  -3  112.37    5.29
  -6  -6  -3   43.11   10.52
  -6  -6   4  105.65    7.10
   0   6   4   -0.82    2.47
  -6   0   4   -2.23    2.78
   6   0   4    1.88    0.46
  -6   0   4    2.99    1.89
   0  -6   4    4.40    3.11
  -6  -6  -4   81.99   14.56
  -6   0  -4    1.41    2.51
   0   6  -4    0.19    0.43
   0   6  -4    4.34    1.79
   0  -6  -4    0.53    2.03
  -6  -6  -4   93.79    4.82
   0   6   5  178.77    6.47
  -6   0   5  175.13    4.82
  -6   0   5  161.91    6.07
  -6  -6   5   69.62    5.97
   0  -6   5  165.88    6.04
  -6   0  -5  176.61    6.41
  -6  -6  -5   74.01   15.96
   0  -6  -5  175.96    6.02
   0   6  -5  167.79    4.14
   6   0  -5  158.87    3.96
   0   6   6    4.52    3.43
  -6  -6   6  116.98    7.25
  -6   0   6   10.75    3.91
   0  -6   6    4.98    2.96
   0  -6  -6    1.62    1.95
  -6   0  -6    1.49    2.13
   0   6  -6    1.32    0.56
  -6  -6  -6  123.83    8.30
  -6   0   7  114.69    7.04
   0   6   7  100.81    5.36
   0  -6   7  113.32    5.65
  -6   0  -7  113.14    7.12
   0  -6  -7  109.03    8.75
   0   6   8    0.17    2.21
   0  -6   8    0.30    2.32
  -6   0   8    9.02    4.18
   0  -6  -8    0.60    2.12
  -6   0  -8    1.98    1.57
   0  -6   9   39.95    4.28
   0   6   9   33.28    3.55
  -6   0   9   41.93    5.42
  -6   0  -9   25.00    6.89
  -6  -7   0  587.07   17.23
  -1   6   0  260.21    6.84
  -6  -7   0  587.94   15.07
   1  -6   0  272.36    7.37
  -7  -1   0    4.12    2.07
  -7  -1   0    4.54    3.44
  -6  -7   1  591.06   17.06
  -7  -1   1  242.69    7.34
  -1   6   1  447.59    9.98
  -6  -7   1  574.40   14.63
   1  -6   1  462.71   10.44
  -7  -1   1  224.69    6.69
  -7  -1  -1  253.32    7.04
  -7  -1  -1  237.64    6.69
  -6  -7  -1  593.53   14.20
  -1   6  -1  442.54    9.49
  -6  -7  -1  572.26   16.07
   1  -6  -1  461.85   10.23
  -7  -1   2   44.86    3.08
  -6  -7   2  770.93   18.20
   1  -6   2  387.78    9.41
  -7  -1   2   47.52    5.04
  -6  -7   2  758.82   18.07
  -1   6   2  393.09    9.41
  -1   6  -2  384.60    8.38
  -6  -7  -2  713.83   22.60
  -6  -7  -2  802.60   18.20
   1  -6  -2  390.11    9.22
  -7  -1  -2   46.05    3.21
  -7  -1  -2   45.59    4.83
  -6  -7   3  506.68   13.56
  -7  -1   3   10.83    2.94
  -1   6   3  410.77    9.54
   1  -6   3  440.88   10.51
  -6  -7   3  547.22   13.99
  -7  -1   3   12.17    3.96
  -6  -7  -3  538.58   13.06
  -1   6  -3  411.62    8.84
  -7  -1  -3   13.81    1.83
  -7  -1  -3   11.21    3.92
  -6  -7  -3  507.73   13.72
   1  -6  -3  402.14    9.43
   1  -6   4  304.62    7.79
  -7  -1   4  150.45    6.50
  -6  -7   4  534.28   14.52
  -1   6   4  312.43    8.04
  -7  -1   4  136.81    4.52
  -6  -7  -4  543.54   16.64
  -7  -1  -4  133.44    3.68
  -6  -7  -4  543.13   13.11
  -1   6  -4  294.95    6.42
  -7  -1  -4  143.55    6.62
   1  -6  -4  296.04    7.91
  -1   6  -4  309.21    6.73
   1  -6   5  220.97    7.00
  -7  -1   5   17.88    2.72
  -1   6   5  212.78    6.45
  -7  -1   5   18.20    4.69
  -6  -7   5  520.38   14.39
  -7  -1  -5   14.51    3.61
  -6  -7  -5  500.06   18.11
  -1   6  -5  213.63    5.26
  -1   6  -5  201.59    4.62
   1  -6  -5  218.79    6.48
  -7  -1   6   74.38    5.94
   1  -6   6  271.78    7.48
  -1   6   6  274.19    7.84
  -1   6  -6  266.46    5.64
   1  -6  -6  265.91    7.15
  -7  -1  -6   66.02   10.42
  -7  -1   7   35.59    5.95
   1  -6   7  148.43    5.79
  -1   6   7  145.26    5.54
  -7  -1  -7   22.46    7.79
   1  -6  -7  147.22    5.52
  -1   6   8  223.26    6.38
   1  -6   8  194.68    6.28
  -7  -1   8   38.88    5.02
  -1   6   8  198.84    5.87
  -7  -1  -8   32.02    8.42
  -7  -1   9    5.76    3.22
  -1   6   9  112.30    4.56
   1  -6   9  119.80    5.31
  -1   6   9  109.40    5.00
  -7  -1  -9    0.94    2.80
  -2   5   0  164.31    4.34
  -7  -2   0  112.68    5.63
   2  -5   0  159.68    4.75
  -5  -7   0   82.58    5.02
  -5  -7   0   74.70    9.79
  -7  -2   0  115.92    5.46
  -5  -7   1  114.12    7.35
  -7  -2   1  526.75   12.56
  -7  -2   1  533.34   12.77
  -2   5   1  123.12    4.30
   2  -5   1  128.87    4.39
  -5  -7   1  112.66    5.95
   2  -5   1  122.19    3.56
  -7  -2  -1  531.38   12.75
  -7  -2  -1  526.86   11.55
   2  -5  -1  126.01    4.57
  -2   5  -1  123.98    4.09
  -5  -7  -1  115.55    6.50
  -5  -7  -1  115.20    6.05
  -2   5   2  583.24   12.28
  -5  -7   2  723.19   17.25
   2  -5   2  578.86   12.11
   2  -5   2  562.02   11.34
  -5  -7   2  742.84   17.46
  -7  -2   2  241.31    6.97
  -7  -2   2  232.31    7.37
  -7  -2  -2  243.19    8.07
   2  -5  -2  572.73   12.14
  -2   5  -2  561.86   11.45
  -5  -7  -2  732.16   17.03
  -5  -7  -2  746.40   19.14
  -7  -2  -2  240.18    6.59
  -2   5   3   24.52    2.90
   2  -5   3   25.10    1.65
   2  -5   3   23.13    3.60
  -7  -2   3  248.18    8.41
  -5  -7   3  254.93    8.77
  -7  -2   3  244.19    7.18
  -5  -7   3  245.88    6.90
   2  -5  -3   26.90    3.41
  -5  -7  -3  259.02    8.11
  -7  -2  -3  230.25    7.47
  -7  -2  -3  235.88    6.14
  -2   5  -3   23.50    2.06
  -5  -7  -3  251.51    8.29
  -5  -7   4  214.68    8.72
   2  -5   4   16.82    1.30
  -7  -2   4  343.17   10.14
  -7  -2   4  355.52    8.42
  -2   5   4   19.42    2.79
   2  -5   4   13.04    2.34
  -5  -7  -4  215.69    8.79
   5   7  -4  219.49    6.53
  -5  -7  -4  210.29    6.85
   2  -5  -4   20.94    4.30
  -2   5  -4   18.68    1.49
  -7  -2  -4  361.53   10.62
  -7  -2   5  125.14    3.96
  -2   5   5  145.34    4.75
   2  -5   5  140.27    4.50
  -7  -2   5  152.14    6.89
   2  -5   5  134.42    3.23
  -5  -7   5  248.59    9.16
  -5  -7  -5  223.97   14.45
  -2   5  -5  139.80    3.45
  -5  -7  -5  219.38    7.08
   2  -5  -5  147.11    4.57
  -7  -2  -5  129.04    6.13
   2  -5   6  120.82    4.66
  -5  -7   6   10.05    4.76
  -2   5   6  123.26    4.30
  -7  -2   6  249.39    8.99
   2  -5  -6  132.84    8.19
  -7  -2  -6  233.55    7.59
  -5  -7  -6    2.62    2.80
  -2   5  -6  132.38    3.40
   2  -5   7  280.18    7.18
  -2   5   7  285.84    7.65
  -7  -2   7   88.33    6.71
  -2   5   7  285.91    7.11
  -7  -2  -7   87.34    5.08
  -7  -2   8  167.92    8.42
  -2   5   8    6.43    2.68
  -2   5   8    0.34    1.76
   2  -5   8    0.93    1.92
  -7  -2  -8  162.07   11.40
   2  -5   9    4.92    2.48
  -2   5  10   31.51    3.58
  -7  -3   0    9.60    3.58
  -3   4   0   16.91    2.27
  -3   4   0   10.76    2.21
  -4  -7   0  184.67    7.41
   3  -4   0   16.12    1.60
  -4  -7   0  169.11    7.18
   3  -4   0   11.24    2.18
  -7  -3   0   13.87    2.92
  -7  -3   1  521.70   12.19
  -3   4   1  888.19   17.59
   3  -4   1  924.57   18.25
  -7  -3   1  512.67   12.93
  -3   4   1  862.27   17.09
  -4  -7   1    0.83    2.93
  -4  -7   1    3.98    2.91
   3  -4   1  907.69   17.81
   3  -4  -1  867.18   17.09
   3  -4  -1  898.59   17.83
  -3   4  -1  908.49   17.79
  -4  -7  -1    1.59    2.45
  -7  -3  -1  525.48   12.24
  -4  -7  -1    0.75    2.31
  -7  -3  -1  497.01   12.12
  -3   4   2  484.00   10.05
  -4  -7   2   28.58    3.63
  -4  -7   2   33.14    4.86
   3  -4   2  471.33    9.71
  -7  -3   2  344.70    9.80
   3  -4   2  456.28    9.35
  -7  -3   2  343.79    8.41
  -3   4  -2  451.32    9.22
  -3   4  -2  482.13   10.09
  -7  -3  -2  346.63   10.72
  -7  -3  -2  363.15    9.10
  -4  -7  -2   31.64    4.54
   3  -4  -2  444.35    9.31
  -4  -7  -2   29.87    8.78
   3  -4  -2  476.16   10.53
  -7  -3   3  249.69    9.61
   3  -4   3  424.31    8.59
  -4  -7   3    4.35    3.06
   3  -4   3  436.03    9.09
  -7  -3   3  273.83    8.35
  -3   4   3  426.47    9.33
  -3   4  -3  412.78    8.47
   3  -4  -3  442.56   10.03
  -4  -7  -3    1.90    2.19
  -7  -3  -3  252.63    9.78
  -3   4  -3  425.63    8.96
  -7  -3  -3  258.07    7.00
  -4  -7  -3    1.19    2.67
  -7  -3   4  370.60   10.39
  -3   4   4  392.87    8.46
   3  -4   4  387.66    7.97
  -7  -3   4  385.33   11.45
  -4  -7   4   10.12    4.50
   3  -4   4  400.26    8.74
  -7  -3  -4  362.22    8.33
   4   7  -4    7.68    2.54
  -4  -7  -4   -2.47    3.02
  -4  -7  -4    3.70    2.36
  -3   4  -4  400.91    8.42
  -3   4  -4  389.68    8.17
  -7  -3  -4  393.86   11.51
   3  -4  -4  412.07    9.57
   3  -4   5   58.33    2.06
   3  -4   5   55.74    2.58
  -4  -7   5   73.90    5.06
  -3   4   5   60.18    3.91
  -7  -3   5   95.56    6.52
  -3   4   5   63.02    3.21
  -3   4  -5   55.45    2.24
  -3   4  -5   59.16    2.43
  -4  -7  -5   75.19    5.56
  -7  -3  -5   79.09   11.40
  -4  -7  -5   72.05    4.68
  -4  -7   6    4.42    3.23
  -3   4   6  170.76    4.63
   3  -4   6  164.55    4.50
   3  -4   6  157.08    3.75
  -3   4   6  173.25    5.49
  -7  -3   6  143.91    7.81
  -4  -7  -6   -1.43    2.56
  -3   4  -6  174.52    4.44
  -4  -7  -6    1.93    1.85
  -7  -3  -6  141.66    6.47
  -7  -3   7  126.67    7.90
   3  -4   7   47.66    3.00
  -3   4   7   52.11    3.97
  -3   4   7   49.49    2.86
  -4  -7   7   69.22    6.03
  -7  -3  -7  126.69    7.65
  -4  -7  -7   72.64    6.38
  -7  -3   8  323.68   10.67
  -3   4   8  295.51    8.37
  -3   4   8  297.69    6.82
   3  -4   8  299.09    7.22
  -7  -3  -8  299.46   11.11
  -3   4   9   76.92    4.63
  -3   4  10   29.81    3.83
  -3  -7   0    8.36    3.97
  -7  -4   0  806.73   21.39
   4  -3   0  505.45   10.27
  -7  -4   0  841.97   18.18
   4  -3   0  537.77   10.95
  -4   3   0  530.94   10.99
  -3  -7   0    6.64    3.71
  -4   3   0  513.25   10.29
   4  -3   1  156.53    4.70
  -7  -4   1  310.76   11.75
  -3  -7   1  146.46    7.03
  -7  -4   1  316.91    8.96
  -3  -7   1  151.67    5.57
  -4   3   1  145.76    3.72
  -4   3   1  153.00    4.36
  -3  -7  -1  144.62   12.71
   4  -3  -1  161.09    7.34
  -4   3  -1  147.75    3.43
   4  -3  -1  146.10    3.82
  -7  -4  -1  316.77    8.66
  -3  -7  -1  144.63    6.02
  -4   3  -1  154.02    4.07
  -7  -4  -1  292.61   10.25
  -4   3   2  131.97    4.03
   4  -3   2  130.29    3.21
  -7  -4   2  299.16    9.67
   4  -3   2  125.85    3.50
  -7  -4   2  297.32    9.61
  -3  -7   2  277.43    8.63
  -7  -4  -2  291.75   10.62
  -4   3  -2  128.13    3.08
  -7  -4  -2  290.69    8.75
   4  -3  -2  126.02    3.29
  -3  -7  -2  292.85    8.79
  -4   3  -2  129.55    3.80
  -3  -7  -2  269.02   10.84
   4  -3  -2  131.56    4.18
  -7  -4   3  217.87    6.85
  -3  -7   3  184.55    7.65
  -7  -4   3  219.02    8.43
  -4   3   3   34.34    2.86
  -4   3   3   29.24    2.45
   4  -3   3   24.46    1.54
   4  -3   3   26.12    1.32
  -7  -4  -3  223.44    7.73
  -4   3  -3   25.02    2.47
  -3  -7  -3  183.09    7.10
   3   7  -3  197.73    6.63
   4  -3  -3   25.61    1.69
  -7  -4  -3  215.13    6.74
  -4   3  -3   27.11    1.30
  -3  -7  -3  201.00    7.16
  -4   3   4  167.40    4.42
  -4   3   4  162.51    5.04
  -7  -4   4  251.42    8.68
  -3  -7   4  137.29    6.65
  -7  -4   4  251.49    7.47
   4  -3   4  165.10    3.63
  -4   3  -4  166.43    4.81
  -3  -7  -4  146.41    6.30
  -7  -4  -4  255.57    7.46
  -3  -7  -4  138.59   12.44
   3   7  -4  134.43    4.85
  -4   3  -4  163.07    3.47
   4  -3  -4  159.34    3.97
  -7  -4  -4  252.84    8.91
  -4   3   5    2.59    0.98
  -4   3   5    3.99    3.20
  -7  -4   5  384.88   11.79
   4  -3   5    2.92    1.01
  -3  -7   5   28.06    5.68
  -4   3  -5    4.18    0.64
   4  -3  -5    3.46    1.33
  -3  -7  -5   27.02    9.25
  -4   3  -5    0.88    1.25
  -7  -4  -5  394.25   12.10
   3   7  -5   22.76    2.38
  -3  -7  -5   31.23    4.72
  -3  -7   6    8.21    4.49
  -7  -4   6  244.21    9.18
  -4   3   6    2.36    3.35
   4  -3   6    0.72    0.65
  -4   3   6    0.51    0.40
  -4   3   6   -0.07    1.12
  -3  -7  -6    9.64    3.58
  -7  -4  -6  221.78   13.40
  -4   3  -6    0.47    1.35
  -3  -7  -6    8.77    4.06
  -7  -4   7  261.75   10.03
  -4   3   7   30.95    4.07
  -3  -7   7   57.98    5.31
  -4   3   7   34.49    2.45
   4  -3   7   30.33    2.15
  -7  -4  -7  268.65    8.78
  -4   3  -7   32.02    2.82
  -3  -7  -7   61.26    4.66
  -4   3   8   80.16    5.08
  -3  -7   8  247.33    9.62
   3   7   8  235.76    8.17
  -4   3  -8   80.77    3.31
  -4   3   9    6.50    2.57
  -4   3  10    3.01    2.29
  -7  -5   0   44.60    6.57
  -7  -5   0   49.85    5.33
  -5   2   0   95.14    3.11
  -2  -7   0   72.29    5.49
  -5   2   0   91.10    3.88
  -5   2   0   94.66    3.35
  -2  -7   0   71.17    4.16
  -7  -5   1   93.15    8.47
  -2  -7   1   21.93    3.33
  -7  -5   1  107.79    6.74
  -5   2   1   -0.54    1.30
  -5   2   1    4.58    2.23
  -5   2   1    2.21    1.67
  -7  -5  -1  110.68    6.06
  -2  -7  -1   25.73    3.45
  -5   2  -1   -0.47    0.66
  -7  -5  -1  100.65    6.51
  -2  -7  -1   23.79    3.98
  -5   2  -1    2.58    1.44
   5  -2  -1    0.52    1.53
  -5   2  -1    0.68    2.04
  -5   2   2  631.21   12.80
  -5   2   2  612.19   12.63
  -7  -5   2   64.55    5.36
  -7  -5   2   50.88   12.31
  -2  -7   2    5.16    2.76
  -5   2  -2  593.00   12.65
  -5   2  -2  604.99   11.77
   5  -2  -2  593.34   11.98
  -5   2  -2  591.31   11.49
   2   7  -2   12.96    3.66
  -7  -5  -2   55.79    7.54
  -2  -7  -2   10.47    4.73
  -2  -7  -2   11.68    3.89
  -7  -5  -2   63.97    4.83
  -2  -7   3    2.58    3.15
  -5   2   3  123.79    3.55
  -7  -5   3  109.31    7.57
  -7  -5   3   86.90    8.17
  -5   2   3  119.80    4.51
  -7  -5  -3  100.36    6.75
  -7  -5  -3  101.51    5.07
  -5   2  -3  125.90    4.27
  -2  -7  -3    0.45    2.85
  -2  -7  -3    1.83    2.42
   2   7  -3    2.38    1.58
   5  -2  -3  110.09    3.07
  -5   2   4   29.59    1.71
  -5   2   4   31.77    3.92
  -7  -5   4   60.29    6.22
  -2  -7   4    1.51    2.65
  -2  -7  -4   -1.21    2.71
   5  -2  -4   31.59    1.84
   2   7  -4    3.14    2.14
  -2  -7  -4    4.35    2.30
  -5   2  -4   30.22    3.62
  -7  -5  -4   65.82    4.34
  -7  -5  -4   64.51    9.60
  -7  -5   5   31.44    5.33
  -5   2   5    5.99    3.28
  -5   2   5   10.22    1.57
  -2  -7   5   24.41    4.71
   2   7  -5   16.19    1.77
  -2  -7  -5   16.44    3.24
  -5   2  -5    8.81    2.36
  -7  -5  -5   29.71   11.04
  -2  -7  -5   22.26    4.29
   5  -2  -5    5.84    1.09
  -5   2   6   85.25    2.97
  -5   2   6   86.68    4.84
  -7  -5   6   73.89    6.96
  -2  -7   6    6.38    2.84
  -5   2  -6   74.03    4.02
  -2  -7  -6   12.86    4.07
  -7  -5  -6   78.85    7.98
  -5   2   7   79.64    5.48
   2   7   7    4.30    2.61
  -2  -7   7    4.32    3.99
  -2  -7  -7    4.72    2.75
  -5   2  -7   71.39    4.09
  -2  -7   8    5.94    4.62
   2   7   8    4.94    3.90
  -5   2   8  119.53    6.42
  -5   2  -8  113.69    4.80
  -5   2   9    4.29    2.65
  -5   2  -9    5.19    1.72
  -5   2  10    2.86    3.76
  -6   1   0  194.03    5.20
   1   7   0  743.93   16.12
  -1  -7   0  755.38   16.17
  -7  -6   0  212.45    7.81
   6  -1   0  187.01    4.37
  -6   1   0  199.99    5.86
  -7  -6   0  203.10    7.43
  -6   1   1    0.82    1.86
   1   7   1  761.34   16.39
  -6   1   1    1.56    1.53
  -1  -7   1  771.48   17.13
  -7  -6   1   30.65    9.53
   6  -1   1   -0.22    0.81
  -7  -6   1   40.62    5.71
   1   7  -1  778.43   16.20
  -1  -7  -1  755.19   16.42
  -7  -6  -1   34.61   10.16
  -6   1  -1    3.27    3.21
  -6   1  -1    2.20    1.59
  -7  -6  -1   39.25    4.63
  -1  -7   2  346.71    9.23
   6  -1   2   -0.20    0.83
  -7  -6   2  115.16    9.43
  -6   1   2    5.06    3.30
  -7  -6   2  120.60    6.36
  -6   1   2    0.69    1.52
  -6   1  -2   -0.06    2.26
  -6   1  -2    0.43    0.76
  -7  -6  -2  131.26    5.98
  -1  -7  -2  350.44    9.23
   1   7  -2  346.14    8.58
  -7  -6  -2  107.76    7.07
  -6   1   3    1.87    2.46
  -1  -7   3  338.33    9.49
  -6   1   3    0.54    1.60
  -7  -6   3  108.99    4.70
  -7  -6   3  109.58    6.75
  -6   1  -3    1.61    2.37
   1   7  -3  346.56    8.01
  -1  -7  -3  350.83    9.48
  -7  -6  -3  117.91    5.93
  -6   1  -3    2.85    0.50
  -7  -6  -3  103.60    6.09
  -6   1   4    2.72    3.43
  -6   1   4    1.55    1.69
  -7  -6   4   48.04    6.12
  -1  -7   4  464.39   11.71
   1   7  -4  460.54   10.02
  -1  -7  -4  457.19   10.96
  -6   1  -4   -0.14    2.33
  -7  -6  -4   47.10    9.45
  -1  -7   5  396.74   10.45
  -6   1   5   29.81    4.27
  -7  -6   5  100.97    7.11
   1   7   5  386.17   10.36
  -6   1   5   29.05    2.22
   1   7  -5  397.81    8.60
  -1  -7  -5  401.69    9.99
  -6   1  -5   29.79    3.64
   6  -1  -5   27.01    1.51
  -7  -6  -5  101.11    9.00
   1   7   6  518.52   12.75
  -6   1   6   15.33    4.06
  -1  -7   6  531.23   12.73
  -6   1   6   11.65    1.63
  -6   1  -6    7.52    2.65
  -1  -7  -6  519.95   13.78
  -6   1   7   -0.27    2.82
   1   7   7  252.27    8.75
  -1  -7   7  240.14    8.11
  -6   1  -7    1.98    1.98
  -1  -7  -7  254.79    7.90
  -1  -7   8  113.95    5.90
  -6   1   8   -0.94    2.90
   1   7   8  124.01    5.86
  -1  -7  -8  115.76    8.80
  -6   1  -8    0.57    1.22
   1   7   9  140.82    5.95
  -6   1   9    7.26    3.89
  -1  -7   9  149.25    6.41
  -6   1  -9    4.40    2.80
  -6   1  10    4.20    2.87
  -7  -7   0   15.93    7.12
  -7   0   0  416.89    9.34
   0  -7   0  402.81   10.21
   0   7   0  398.70    9.10
  -7   0   0  407.79   10.58
  -7  -7   0   23.67    4.30
   0   7   1 1903.69   37.49
  -7   0   1 1925.32   37.89
   0  -7   1 1957.98   38.68
  -7   0   1 1943.32   38.25
  -7  -7   1   17.21    4.72
  -7  -7   1   12.68    7.41
   0   7  -1 1874.74   36.79
  -7  -7  -1   24.46    4.45
  -7   0  -1 1832.86   36.30
   0  -7  -1 1979.61   38.99
  -7  -7  -1   20.74    6.50
  -7   0  -1 1965.85   38.25
   0  -7   2 1169.01   24.09
  -7   0   2 1194.10   24.21
   0   7   2 1255.61   25.32
  -7  -7   2   19.99    5.58
  -7   0   2 1173.74   23.99
  -7  -7   2    6.75    4.12
   7   0   2 1215.11   23.65
   0  -7  -2 1211.23   24.85
  -7  -7  -2   18.30    4.17
  -7   0  -2 1205.73   23.71
   0   7  -2 1252.78   24.81
  -7   0  -2 1209.28   24.77
  -7  -7   3   46.92    6.37
  -7  -7   3   36.68    5.33
  -7   0   3 1044.72   21.31
   7   0   3 1037.49   20.12
   0   7   3 1021.15   21.54
   0  -7   3 1045.40   21.79
  -7   0   3 1043.11   21.81
  -7  -7  -3   27.55   11.64
  -7  -7  -3   51.69    5.16
  -7   0  -3 1029.54   20.20
  -7   0  -3 1051.59   21.71
   0   7  -3 1053.39   21.18
   0  -7  -3 1081.06   22.21
  -7  -7   4   17.70    5.02
  -7   0   4 1362.19   26.86
  -7   0   4 1413.32   29.01
   0  -7   4 1402.16   28.75
   0   7   4 1322.12   26.92
   0   7  -4 1322.46   26.01
  -7  -7  -4    8.12    3.06
  -7   0  -4 1397.38   28.50
   0  -7  -4 1380.27   27.94
  -7   0   5  530.59   11.24
   0   7   5  529.02   12.78
  -7   0   5  514.48   13.03
   0  -7   5  529.33   12.35
  -7   0  -5  543.46   13.10
   0  -7  -5  527.89   12.19
   0   7  -5  524.56   10.78
  -7   0   6  756.36   17.41
   0  -7   6  724.95   16.27
   0   7   6  736.02   16.26
  -7   0  -6  757.65   16.68
   0  -7  -6  723.90   17.03
   0   7   7  483.92   11.70
  -7   0   7  472.27   12.47
   0  -7   7  490.36   12.07
  -7   0  -7  471.27   11.92
   0  -7  -7  486.05   11.31
  -7   0   8  688.61   16.90
   0  -7   8  686.15   15.59
   0   7   8  706.50   15.74
   0  -7  -8  723.59   15.82
  -7   0  -8  702.05   15.82
   0  -7   9  286.98    8.78
   0   7   9  303.55    8.87
  -7   0   9  296.76   10.37
  -7   0  -9  291.72    9.75
  -7  -8   0    1.08    2.10
  -8  -1   0 1052.70   21.98
  -8  -1   0 1041.96   21.57
   1  -7   0    8.38    3.31
  -7  -8   0   13.31    4.22
  -1   7   0   21.25    3.35
  -7  -8   1   20.51    4.55
  -1   7   1  809.79   16.91
  -8  -1   1  152.34    5.78
  -8  -1   1  158.02    6.68
   1  -7   1  750.75   16.14
   1  -7  -1  758.62   16.49
  -8  -1  -1  161.66    5.22
  -7  -8  -1   20.09    5.15
  -8  -1  -1  156.89    6.04
  -1   7  -1  786.09   16.39
  -7  -8  -1   12.34    8.02
  -8  -1   2  205.46    7.59
  -1   7   2  465.06   10.71
   1  -7   2  456.52   10.54
  -8  -1   2  194.07    6.40
  -1   7  -2  474.02   10.26
  -8  -1  -2  204.16    7.61
  -8  -1  -2  192.24    5.37
   1  -7  -2  466.23   10.68
  -1   7   3  357.75    8.91
  -8  -1   3  246.49    6.92
   1  -7   3  359.01    8.96
  -8  -1   3  259.68    9.24
   1  -7  -3  366.36    9.25
  -8  -1  -3  230.99    5.70
  -1   7  -3  374.07    8.64
  -8  -1  -3  254.18    8.70
  -1   7   4  521.77   12.11
   1  -7   4  524.55   12.43
  -8  -1   4  125.62    6.04
  -8  -1   4  128.62    4.57
  -1   7  -4  531.84   11.37
  -8  -1  -4  124.63    6.73
   1  -7  -4  519.58   12.02
   1  -7   5   93.67    4.94
  -8  -1   5  343.54    9.87
  -8  -1   5  350.86    8.18
  -1   7   5   80.71    4.93
   1  -7  -5   81.03    4.42
  -8  -1  -5  342.84    9.83
  -1   7  -5   76.67    2.82
  -1   7   6  180.81    5.85
  -8  -1   6  242.39    9.53
   1  -7   6  177.09    6.50
  -1   7  -6  180.22    4.47
  -8  -1  -6  228.62   13.84
   1  -7  -6  191.69   10.30
  -1   7   7  152.25    6.10
  -8  -1   7  145.71    7.45
   1  -7   7  146.87    5.93
   1  -7  -7  132.18    5.12
  -8  -1  -7  161.61    8.99
  -1   7   8  293.52    8.61
  -8  -1   8   25.04    5.32
   1  -7   8  265.72    7.97
   1  -7  -8  296.73    8.06
  -8  -1  -8   17.08    7.50
  -1   7   9   83.91    4.71
   1  -7   9   79.64    5.07
  -1   7   9   84.06    4.37
  -2   6   0  173.80    5.17
  -6  -8   0   16.54    4.99
  -6  -8   0    3.23    3.82
   2  -6   0  173.89    5.44
  -8  -2   0  957.78   20.51
  -8  -2   0  962.24   20.14
  -8  -2   1  201.32    7.04
  -8  -2   1  188.36    6.15
  -2   6   1   36.37    2.89
  -6  -8   1    8.29    2.81
  -6  -8   1    6.57    4.47
   2  -6   1   29.61    3.95
  -8  -2  -1  193.34    6.06
  -6  -8  -1    6.11    2.83
   2  -6  -1   33.59    3.58
  -6  -8  -1    4.49    2.04
  -8  -2  -1  184.01    6.62
  -2   6  -1   30.41    2.51
  -6  -8   2   62.93    4.93
  -6  -8   2   62.20    6.13
   2  -6   2  348.77    8.14
  -8  -2   2  271.81    8.59
  -2   6   2  347.94    8.26
  -8  -2   2  263.99    7.55
  -6  -8  -2   69.56   10.41
  -8  -2  -2  281.36    7.41
  -6  -8  -2   61.70    5.75
  -2   6  -2  353.89    7.96
  -8  -2  -2  276.04    8.31
   2  -6  -2  361.85    8.39
  -8  -2   3  390.22    9.70
  -8  -2   3  385.78   10.81
  -2   6   3  160.06    5.12
  -6  -8   3   11.58    4.57
   2  -6   3  152.03    5.04
   2  -6  -3  155.67    4.94
  -6  -8  -3    6.64    3.11
  -6  -8  -3   10.12    3.36
  -2   6  -3  160.94    4.25
  -8  -2  -3  418.14   11.65
  -8  -2  -3  389.93    9.16
  -8  -2   4  168.23    5.54
   2  -6   4   78.19    4.83
   2  -6   4   73.49    2.40
  -2   6   4   77.37    4.39
  -6  -8   4   20.47    5.37
  -8  -2   4  163.40    7.86
  -2   6  -4   75.51    2.87
   2  -6  -4   83.90    4.62
  -6  -8  -4   14.16    6.07
  -8  -2  -4  170.26    7.03
  -8  -2   5  362.66   11.01
  -2   6   5  142.50    5.19
   2  -6   5  131.06    4.70
  -8  -2  -5  340.44    9.49
  -2   6  -5  141.13    4.07
   2  -6  -5  140.88    7.54
  -8  -2   6  283.38   10.11
  -2   6   6    6.68    2.74
   2  -6   6   10.36    2.66
   2  -6  -6   18.01    4.01
  -8  -2  -6  263.57   13.92
  -8  -2   7  197.44    9.70
   2  -6   7  120.42    5.16
  -2   6   7  122.27    4.47
  -8  -2  -7  174.05   10.44
   2  -6  -7  128.09    5.58
  -2   6   8   66.19    3.70
   2  -6   8   63.25    4.04
  -8  -2   8   62.49    6.54
  -2   6   8   61.85    4.38
  -8  -2  -8   53.41   18.44
  -2   6   9   55.18    3.49
  -2   6   9   59.87    4.63
   2  -6   9   48.89    4.03
  -5  -8   0   68.30   11.67
  -8  -3   0    1.74    2.97
  -5  -8   0   85.29    5.17
  -3   5   0   90.47    3.64
  -3   5   0   92.19    3.34
   3  -5   0   95.36    3.92
  -8  -3   0    3.37    2.69
  -5  -8   1   84.86    5.22
  -8  -3   1  128.61    5.98
  -3   5   1    0.50    1.80
  -5  -8   1   80.14    6.47
  -8  -3   1  137.50    9.62
   3  -5   1   -0.09    1.33
   3  -5   1    4.24    2.22
  -5  -8  -1   85.59    5.59
  -8  -3  -1  135.39   12.06
  -8  -3  -1  129.23    6.45
  -3   5  -1   -0.62    1.40
   3  -5  -1    0.86    1.73
  -3   5  -1    0.81    1.40
  -5  -8  -1   67.96   13.16
   3  -5   2  616.03   12.31
   3  -5   2  603.40   12.47
  -5  -8   2  171.66    8.31
  -8  -3   2  194.83    6.46
  -8  -3   2  186.86    6.64
  -5  -8   2  159.60    6.38
  -3   5   2  633.39   12.95
  -5  -8  -2  153.74    7.00
   3  -5  -2  604.11   12.63
  -8  -3  -2  177.47    8.15
  -3   5  -2  583.43   11.83
  -3   5  -2  632.19   12.87
  -8  -3  -2  207.96    7.25
  -8  -3   3  144.10    6.91
   3  -5   3  117.90    3.94
  -3   5   3  122.61    3.91
  -8  -3   3  156.95    7.23
   3  -5   3  113.37    3.06
  -5  -8   3   54.73    5.44
  -8  -3  -3  149.77   11.98
  -3   5  -3  123.79    4.12
   5   8  -3   66.52    4.59
  -8  -3  -3  164.97    5.84
  -5  -8  -3   53.83    8.79
  -5  -8  -3   64.38    5.12
   3  -5  -3  120.76    4.00
  -5  -8   4  108.75    7.48
  -3   5   4   36.47    2.92
  -8  -3   4  134.14    7.39
  -8  -3   4  107.48    7.29
   3  -5   4   32.58    2.87
   3  -5   4   28.01    1.52
   3  -5  -4   38.15    7.39
  -8  -3  -4  122.54   10.68
  -3   5  -4   31.22    2.23
  -5  -8  -4  111.37    5.46
  -5  -8  -4   96.91    6.06
  -5  -8   5   82.83    6.37
   3  -5   5    5.64    2.67
  -3   5   5   12.34    2.40
   3  -5   5   11.32    1.25
  -8  -3   5   27.77    5.63
  -8  -3  -5    9.75    3.69
  -3   5  -5    9.00    1.89
   3  -5  -5    7.60    4.00
  -5  -8  -5   72.68   10.92
  -3   5   6   86.43    3.89
   3  -5   6   86.81    3.79
   3  -5   6   77.82    2.36
  -8  -3   6   25.67    4.69
  -8  -3  -6   10.53    6.28
  -3   5  -6   82.37    2.98
   3  -5   7   67.85    3.47
  -3   5   7   65.93    4.23
  -8  -3   7   47.84    6.80
  -3   5   7   73.20    3.43
  -8  -3  -7   27.26   11.26
  -3   5  -7   65.95    2.64
  -3   5   8  119.91    4.46
  -3   5   8  106.69    5.07
   3  -5   8  107.50    4.24
  -3   5   9    3.95    3.38
  -3   5  10    4.68    3.10
  -4   4   0 2623.20   50.33
  -4  -8   0  145.23    6.09
  -8  -4   0  241.75    8.82
  -4   4   0 2766.58   53.23
   4  -4   0 2752.83   52.88
   4  -4   0 2677.70   51.39
  -4  -8   0  136.60    6.51
  -8  -4   0  228.52    8.39
  -8  -4   1  426.20   10.98
   4  -4   1  369.59    7.78
   4  -4   1  351.03    7.34
  -4   4   1  355.86    7.77
  -4   4   1  367.19    7.98
  -4  -8   1   63.62    4.40
  -4  -8   1   63.26    5.84
  -8  -4   1  448.72   12.20
  -8  -4  -1  465.19   11.92
   4  -4  -1  360.26    7.77
  -8  -4  -1  422.57   16.97
  -4   4  -1  350.12    7.73
   4  -4  -1  357.71    9.83
  -4   4  -1  352.51    7.34
  -4  -8  -1   64.43    7.74
  -4  -8  -1   71.00    5.66
  -4   4   2  111.94    3.47
  -8  -4   2  518.66   13.96
  -8  -4   2  526.11   13.94
   4  -4   2  108.12    3.09
   4  -4   2  103.41    3.35
  -4  -8   2  247.65    9.29
   4   8  -2  254.13    7.75
  -8  -4  -2  537.51   13.23
  -4   4  -2  108.46    3.74
   4  -4  -2  112.81    5.99
  -4  -8  -2  251.39    8.28
  -8  -4  -2  495.46   13.66
  -4  -8  -2  230.70    9.64
  -8  -4   3  340.87    9.62
  -4  -8   3   76.70    5.70
  -8  -4   3  359.97   10.84
  -4   4   3  323.20    7.27
   4  -4   3  321.75    6.87
   4  -4   3  298.66    6.55
  -4   4  -3  301.67    6.29
   4  -4  -3  324.54    7.56
  -4  -8  -3   72.43    6.54
  -4   4  -3  318.23    7.01
  -8  -4  -3  332.59   10.02
  -4  -8  -3   82.55    5.80
  -8  -4  -3  341.24    9.29
   4   8  -3   77.06    5.26
  -4  -8   4  102.99    6.52
  -4   4   4  111.56    3.32
  -8  -4   4  404.74   11.85
   4  -4   4  104.06    3.05
  -4  -8  -4  108.03    5.35
   4   8  -4   95.88    4.42
  -4  -8  -4   99.29    6.57
  -4   4  -4  101.85    2.73
  -8  -4  -4  381.70   12.19
  -4   4  -4  110.81    3.66
  -8  -4   5  284.23   10.67
   4  -4   5  531.18   10.77
  -4   4   5  534.21   11.84
  -4  -8   5  138.94    7.60
  -4   4   5  526.39   11.13
  -8  -4  -5  262.70    9.64
  -4   4  -5  503.15   10.16
  -4  -8  -5  144.88    7.55
  -4   4  -5  529.19   11.12
  -4  -8  -5  138.16    5.94
  -4   4   6  531.37   11.01
  -4  -8   6    7.46    4.41
   4  -4   6  541.76   11.26
  -4   4   6  531.12   12.01
  -8  -4   6  169.41    8.48
  -4  -8  -6    5.66    4.38
  -4   4  -6  513.77   10.33
  -8  -4  -6  157.76    7.35
  -4   4  -6  530.63   11.21
   4  -4   7   85.06    3.33
  -4   4   7   81.49    4.29
  -4   4   7   82.02    3.47
  -4   4  -7   82.33    3.20
  -4   4   8   24.37    3.69
  -4   4  -8   17.56    1.87
  -4   4   9  139.51    5.89
  -4   4  10   72.24    5.12
  -5   3   0  166.08    4.53
  -8  -5   0  597.94   14.51
  -5   3   0  158.46    4.49
  -8  -5   0  549.98   13.22
  -5   3   0  153.61    3.75
  -3  -8   0  612.91   15.09
  -3  -8   0  596.38   13.81
  -5   3   1  126.84    3.68
  -5   3   1  117.15    4.42
  -3  -8   1  677.14   15.90
  -8  -5   1  177.09    9.52
  -8  -5   1  185.72    7.37
  -5   3   1  124.52    3.60
   5  -3   1  122.40    3.11
  -3  -8  -1  678.52   15.36
  -3  -8  -1  684.38   16.00
  -8  -5  -1  174.74   18.75
   3   8  -1  661.68   14.94
  -5   3  -1  117.91    4.15
  -8  -5  -1  196.44    7.38
  -5   3  -1  119.71    3.01
   5  -3   2  575.67   11.46
  -5   3   2  573.92   11.96
  -8  -5   2    8.05    4.28
  -8  -5   2    7.54    3.12
  -5   3   2  621.37   12.90
  -3  -8   2 1193.25   25.51
  -5   3  -2  573.20   11.28
  -8  -5  -2    3.93    3.42
  -3  -8  -2 1175.05   24.79
  -8  -5  -2   11.31    3.00
   3   8  -2 1183.71   24.49
  -3  -8  -2 1182.94   24.62
  -5   3  -2  596.63   12.50
  -8  -5   3  186.27    9.86
  -3  -8   3  719.21   17.06
  -5   3   3   22.97    2.21
   5  -3   3   23.78    1.39
  -8  -5   3  171.67    6.28
  -5   3   3   29.89    3.45
  -5   3  -3   21.25    0.98
  -3  -8  -3  703.77   16.63
  -3  -8  -3  735.35   17.74
   3   8  -3  694.52   15.19
  -5   3  -3   23.89    2.57
  -8  -5  -3  178.61    6.41
  -8  -5  -3  171.91    9.85
  -5   3   4   17.50    2.26
  -8  -5   4   54.61    5.79
  -5   3   4   18.11    3.16
  -3  -8   4  708.97   16.68
   3   8  -4  707.76   15.05
  -8  -5  -4   48.58    8.73
  -3  -8  -4  703.46   16.87
  -3  -8  -4  730.15   16.40
  -5   3  -4   14.02    2.80
  -8  -5   5  105.09    6.72
  -5   3   5  142.79    5.29
  -3  -8   5  646.68   15.44
  -5   3   5  141.79    3.87
  -5   3  -5  140.55    4.28
  -3  -8  -5  640.42   15.47
  -3  -8  -5  641.08   14.57
  -8  -5  -5   96.24    9.78
  -5   3   6  133.82    3.83
  -3  -8   6  200.90    8.21
  -5   3   6  135.05    5.40
  -3  -8  -6  200.01    7.56
  -5   3  -6  134.46    4.80
  -5   3   7  285.36    7.98
  -3  -8   7  629.28   15.53
   3   8   7  632.97   15.81
  -5   3   7  278.02    6.59
  -5   3  -7  278.57    6.99
  -5   3   8   -0.18    2.67
  -5   3  -8    2.38    1.42
  -5   3  10   33.11    5.87
  -8  -6   0  212.72    7.82
   2   8   0  690.46   15.45
  -6   2   0 2436.93   46.96
  -8  -6   0  211.37    7.82
  -2  -8   0  709.40   16.35
  -6   2   0 2447.00   47.51
  -6   2   0 2308.98   44.41
  -6   2   1 1772.75   34.59
  -8  -6   1  135.50    6.42
  -2  -8   1  388.80   10.39
  -6   2   1 1779.99   34.61
  -8  -6   1  134.87    7.38
  -8  -6  -1  128.81    6.93
   2   8  -1  369.95    9.98
  -8  -6  -1  144.40    6.73
  -6   2  -1 1824.42   35.17
  -6   2  -1 1840.12   36.00
  -6   2  -1 1792.39   34.57
  -2  -8  -1  372.08   10.21
  -8  -6   2   56.55    4.79
  -6   2   2 4315.28   82.89
  -2  -8   2  224.30    8.14
  -6   2   2 4243.04   81.36
  -8  -6   2   35.37   12.93
  -2  -8  -2  213.03    7.00
  -8  -6  -2   49.90    8.42
  -6   2  -2 4104.58   78.93
  -6   2  -2 4015.49   76.59
  -8  -6  -2   56.22    4.52
  -6   2  -2 4102.91   78.27
  -2  -8  -2  227.03    7.59
   2   8  -2  227.40    6.48
  -6   2   3 2199.89   42.56
  -6   2   3 2282.67   44.53
  -8  -6   3  134.02    8.23
  -8  -6   3  164.83    8.16
  -2  -8   3  203.68    7.84
  -8  -6  -3  154.50   10.42
  -2  -8  -3  191.06    7.30
  -2  -8  -3  195.03    6.89
   2   8  -3  203.95    6.70
  -6   2  -3 2252.58   43.84
  -2  -8   4  273.15    9.29
  -8  -6   4   81.16    5.88
  -6   2   4 2058.77   39.90
  -6   2   4 2068.72   40.70
  -2  -8  -4  276.05    8.78
  -8  -6  -4   84.75    7.25
  -6   2  -4 2093.39   41.06
   2   8  -4  277.66    7.25
  -2  -8   5  307.14    9.14
  -6   2   5 1978.47   39.25
  -6   2   5 1917.06   37.14
   2   8   5  316.67    9.29
  -6   2  -5 1879.01   37.08
  -2  -8  -5  317.27    8.80
  -2  -8   6  309.08    9.87
  -6   2   6  530.54   12.60
  -6   2   6  510.19   10.58
   2   8   6  292.65    9.29
  -6   2  -6  523.16   11.70
  -2  -8  -6  315.30    8.73
   2   8   7  204.52    8.79
  -6   2   7 1842.82   37.09
  -2  -8   7  204.67    7.72
  -2  -8  -7  185.39    5.83
  -6   2  -7 1842.48   36.67
  -2  -8   8   33.22    4.71
   2   8   8   31.32    4.42
  -6   2   8  939.28   20.53
  -6   2  -8  914.87   19.20
  -6   2   9  724.86   16.99
  -6   2  -9  713.32   15.34
  -6   2  10  657.60   16.03
   1   8   0   32.64    3.95
  -7   1   0   21.73    2.56
  -1  -8   0   28.36    3.90
  -8  -7   0   60.50   10.34
  -8  -7   0   70.29    5.92
  -7   1   0   26.05    3.33
   1   8   1   40.33    3.96
   7  -1   1  398.42    8.33
  -7   1   1  414.68    9.70
  -8  -7   1   -0.37    2.17
  -8  -7   1    2.48    2.94
  -7   1   1  388.19    9.43
  -1  -8   1   41.91    4.42
  -7   1  -1  398.43    9.57
  -8  -7  -1    4.72    4.63
  -8  -7  -1    1.30    3.00
  -7   1  -1  409.46    8.85
  -1  -8  -1   48.10    5.11
   1   8  -1   38.16    3.87
  -7   1   2 1604.24   31.66
   1   8   2   26.76    4.80
   7  -1   2 1563.75   30.17
  -1  -8   2   25.43    5.08
  -7   1   2 1490.50   29.67
  -1  -8  -2   19.43    4.06
   1   8  -2   18.26    2.67
  -7   1  -2 1481.83   29.53
  -7   1  -2 1519.63   29.46
   1   8   3   18.32    3.53
  -7   1   3  635.84   14.24
  -7   1   3  625.44   13.14
  -1  -8  -3   22.63    4.04
  -7   1  -3  628.26   12.42
  -7   1  -3  633.95   14.27
  -7   1  -3  612.78   12.14
   1   8  -3   18.80    3.12
  -1  -8   4   34.56    6.02
  -7   1   4  554.36   13.16
   1   8   4   43.82    4.77
  -7   1   4  571.18   11.95
  -7   1  -4  554.56   12.63
   1   8  -4   28.37    3.23
  -1  -8  -4   31.10    4.08
  -7   1   5  175.15    7.15
  -7   1   5  174.92    4.59
   1   8   5   19.36    4.72
  -1  -8   5   17.83    4.78
   1   8  -5   15.72    2.35
  -7   1  -5  188.53    6.48
  -1  -8  -5   20.38    3.65
   1   8   6   25.13    4.83
  -7   1   6    7.43    2.18
  -1  -8   6   28.86    5.12
  -7   1   6    3.64    3.86
  -1  -8  -6   35.88    3.89
  -7   1  -6   10.67    2.95
  -7   1   7  384.61   10.83
   1   8   7   13.47    3.24
  -1  -8   7   19.71    4.23
  -7   1  -7  393.72   10.41
  -1  -8  -7   15.47    4.63
   1   8   8    5.63    2.94
  -7   1   8  684.23   16.16
  -1  -8   8    1.51    3.01
  -1  -8  -8    2.87    2.03
  -7   1  -8  676.70   15.25
  -7   1   9  126.48    7.50
  -7   1  -9   93.44   11.77
   0  -8   0  217.23    7.50
   0   8   0  211.52    7.11
  -8   0   0  218.11    6.70
  -8   0   0  216.18    7.77
   0   8   1  178.80    6.53
   0  -8   1  171.72    6.43
  -8   0   1  164.16    5.58
  -8   0   1  176.82    6.28
   0  -8  -1  174.52    6.08
  -8   0  -1  168.80    5.17
  -8   0  -1  168.56    6.55
   0   8  -1  181.83    6.17
  -8   0   2  119.18    4.93
   0   8   2  136.61    6.32
   0  -8   2  133.36    6.20
  -8   0   2  121.23    5.30
   0  -8  -2  136.85    5.74
   0   8  -2  132.11    5.25
  -8   0  -2  129.66    4.44
  -8   0  -2  126.34    5.82
  -8   0   3  174.64    6.74
   0  -8   3  171.72    7.49
   0   8   3  162.85    6.19
  -8   0   3  172.05    6.32
   0  -8  -3  166.15    6.40
  -8   0  -3  174.26    6.38
  -8   0  -3  175.69    4.71
   0   8  -3  171.44    5.28
  -8   0   4  126.57    4.76
   0   8   4  116.10    5.44
   0  -8   4  116.93    5.96
  -8   0   4  125.81    6.36
   0   8  -4  122.24    4.28
   0  -8  -4  116.78    5.32
  -8   0  -4  120.90    5.91
   0  -8   5  134.18    6.84
  -8   0   5  113.88    3.81
  -8   0   5  122.10    7.19
   0   8   5  125.00    5.86
   0  -8  -5  111.96    5.47
  -8   0  -5  126.97    6.31
   0   8  -5  115.69    3.68
   0  -8   6  132.83    6.15
  -8   0   6  129.15    7.07
   0   8   6  126.29    5.58
   0  -8  -6  150.44    6.89
  -8   0  -6  139.13    6.66
   0  -8   7   54.89    5.70
  -8   0   7   58.85    6.41
   0   8   7   60.01    4.96
   0  -8  -7   50.35    9.57
  -8   0  -7   51.22    5.75
  -8   0   8   74.70    6.79
   0  -8   8   73.15    6.33
   0   8   8   72.90    5.76
   0  -8  -8   64.58    7.22
  -8   0  -8   58.07   11.50
   1  -8   0    0.28    2.80
  -9  -1   0 1296.75   26.77
  -9  -1   0 1323.32   27.18
  -1   8   0    3.40    2.48
  -9  -1   1  203.01    7.36
  -9  -1   1  190.84    6.54
   1  -8   1  246.69    7.95
  -1   8   1  238.44    6.90
  -9  -1  -1  202.78    8.24
   1  -8  -1  241.70    7.79
  -1   8  -1  246.09    6.67
  -9  -1  -1  193.65    5.88
   1  -8   2   49.07    4.97
  -9  -1   2  301.23    9.04
  -9  -1   2  310.66    9.47
  -1   8   2   48.31    5.50
  -9  -1  -2  305.43    9.32
  -9  -1  -2  301.25    7.97
   1  -8  -2   46.04    4.69
  -1   8  -2   41.76    4.09
  -1   8   3   18.38    3.65
  -9  -1   3  353.80    9.06
   1  -8   3   18.11    3.88
  -9  -1   3  348.21    9.99
  -9  -1  -3  362.99   10.72
  -9  -1  -3  340.85    7.89
  -1   8  -3   16.13    2.81
  -1   8   4  132.79    5.84
  -9  -1   4  170.02    6.11
  -9  -1   4  160.07    7.76
   1  -8   4  135.28    6.06
   1  -8  -4  144.31    5.96
  -1   8  -4  148.31    4.70
  -9  -1  -4  162.93    6.79
  -1   8   5   19.37    4.01
   1  -8   5   10.85    3.62
  -9  -1   5  488.12   13.23
  -1   8  -5   16.65    2.38
   1  -8  -5   21.86    2.99
  -9  -1  -5  479.29   12.80
  -9  -1   6  267.97   10.10
   1  -8   6   77.50    5.19
  -1   8   6   75.43    5.48
   1  -8  -6   68.96   13.55
  -9  -1  -6  261.50    9.29
  -9  -1   7  245.56    9.52
  -1   8   7   28.12    4.64
   1  -8   7   26.52    4.47
  -9  -1  -7  237.87   10.69
   1  -8  -7   27.34    9.33
  -1   8   8   48.64    4.87
   1  -8   8   39.16    4.47
   1  -8  -8   27.00    9.74
  -1   8   9   11.24    3.67
  -1   8   9    4.36    1.77
   1  -8   9    8.13    3.60
  -9  -2   0   -0.51    2.76
  -2   7   0  662.76   14.13
  -9  -2   0    5.53    2.60
   2  -7   0  640.00   13.93
  -9  -2   1   94.15    5.50
  -2   7   1  195.51    5.83
   2  -7   1  195.73    5.85
  -9  -2   1   89.37    5.06
  -2   7  -1  192.25    5.44
   2  -7  -1  202.90    6.42
  -9  -2  -1   98.59    5.71
  -9  -2  -1   88.00    6.06
  -9  -2   2   66.80    4.13
   2  -7   2  106.09    5.42
  -2   7   2  105.32    4.56
  -9  -2   2   68.19    5.29
  -9  -2  -2   77.88    5.88
   2  -7  -2  108.90    5.58
  -2   7  -2  115.59    4.71
  -9  -2  -2   69.11    4.70
  -9  -2   3   64.05    3.73
   2  -7   3   51.57    4.03
  -2   7   3   57.25    3.94
  -9  -2   3   77.20    5.59
  -9  -2  -3   62.78    4.01
  -2   7  -3   58.41    3.12
  -9  -2  -3   60.72    5.32
   2  -7  -3   59.99    4.34
   2  -7   4  153.75    5.82
  -9  -2   4   56.70    6.94
  -2   7   4  145.22    5.14
  -9  -2   4   62.87    5.54
   2  -7  -4  150.93    6.20
  -9  -2  -4   61.60    6.20
  -2   7  -4  149.47    4.52
   2  -7   5  297.21    8.38
  -2   7   5  294.50    7.71
  -9  -2   5    9.68    4.68
   2  -7  -5  294.60    8.38
  -9  -2  -5    4.43    3.78
  -2   7  -5  291.93    6.71
  -9  -2   6   33.95    6.21
   2  -7   6  187.66    6.31
  -2   7   6  185.11    6.42
   2  -7  -6  187.23    6.26
  -2   7  -6  190.25    4.83
  -9  -2  -6   19.64    7.11
  -2   7   7  163.21    6.26
   2  -7   7  152.06    5.27
  -9  -2  -7    5.55    4.60
   2  -7  -7  166.47    7.27
  -2   7   8    5.66    3.21
   2  -7   8    2.49    2.69
   2  -7   9   70.85    4.93
  -2   7   9   62.88    3.62
  -2   7   9   67.53    4.09
  -9  -3   0  127.74    5.83
  -3   6   0 1181.09   23.36
   3  -6   0 1216.18   24.26
  -6  -9   0   33.12    4.28
  -6  -9   0   27.77    4.21
  -9  -3   0  119.50    8.29
  -3   6   1 1531.05   30.12
   3  -6   1 1460.20   28.77
  -9  -3   1  299.85    9.81
  -9  -3   1  281.23    8.26
  -3   6  -1 1465.57   28.76
  -9  -3  -1  282.86    8.87
  -9  -3  -1  316.21    9.33
   3  -6  -1 1400.26   27.67
  -9  -3   2   92.32   11.60
   3  -6   2  237.94    6.10
  -3   6   2  235.39    5.76
  -9  -3   2   99.08    6.31
  -9  -3  -2   94.46    5.13
  -3   6  -2  243.32    5.74
   3  -6  -2  239.45    6.58
  -9  -3  -2   84.25   10.34
  -9  -3   3  125.98    6.58
  -3   6   3  354.58    8.21
  -9  -3   3  120.26   10.52
   3  -6   3  344.95    8.14
  -3   6  -3  338.21    7.71
   3  -6  -3  342.08    8.27
  -9  -3  -3  127.44    8.72
   3  -6   4  623.36   13.22
  -9  -3   4  207.47    9.44
  -3   6   4  611.57   12.97
  -9  -3  -4  170.87    8.58
  -3   6  -4  613.14   12.59
   3  -6  -4  605.13   13.32
  -3   6   5  532.95   11.81
  -9  -3   5   83.97    6.65
   3  -6   5  535.59   11.84
   3  -6  -5  532.39   13.11
  -3   6  -5  521.59   10.82
  -9  -3  -5   70.00   13.50
   3  -6   6  946.26   19.63
  -9  -3   6  203.24    8.66
  -3   6   6  941.10   19.38
  -3   6  -6  935.55   18.57
   3  -6  -6  924.99   21.22
  -9  -3  -6  200.33    8.74
   3  -6   7  225.23    6.29
  -3   6   7  218.66    6.73
  -3   6   7  225.81    6.45
  -3   6  -7  213.35    4.94
   3  -6   8  102.47    4.94
  -3   6   8  114.16    4.65
  -3   6   8  105.48    4.94
  -3   6   9  187.14    6.87
  -3   6  10  223.61    7.24
  -5  -9   0   32.04    4.28
  -4   5   0  527.72   11.07
   4  -5   0  519.14   10.84
  -5  -9   0   37.72    5.60
  -9  -4   0    6.11    3.35
  -9  -4   1  131.82    6.21
   4  -5   1  736.41   14.86
  -5  -9   1   42.20    6.11
  -4   5   1  745.47   15.09
  -9  -4   1  110.68    8.42
   4  -5  -1  719.96   14.61
  -4   5  -1  699.50   14.03
  -9  -4  -1  131.23    6.30
  -5  -9  -1   32.15    4.87
  -9  -4  -1  123.41   12.56
  -4   5  -1  688.26   13.99
  -5  -9  -1   43.47    5.34
  -9  -4   2   56.80    5.38
  -5  -9   2   20.00    5.60
  -4   5   2   16.97    2.81
   4  -5   2   15.09    2.29
  -9  -4   2   55.91    6.49
  -5  -9  -2   15.89    3.39
   5   9  -2   19.43    4.15
  -4   5  -2   24.43    2.58
  -9  -4  -2   65.25    4.70
  -5  -9  -2   16.41    4.18
   4  -5  -2   27.27    5.18
  -9  -4  -2   61.00    7.84
  -4   5  -2   15.33    1.63
  -9  -4   3   34.32    5.13
  -4   5   3  312.11    7.20
   4  -5   3  318.09    7.27
  -9  -4   3   21.49    7.76
  -5  -9  -3   31.62    3.99
  -4   5  -3  309.02    6.73
  -4   5  -3  317.14    7.18
  -9  -4  -3   28.88   11.64
   5   9  -3   31.16    4.11
  -5  -9  -3   36.76    5.47
   4  -5  -3  324.25    7.98
  -9  -4   4   87.11    5.96
  -4   5   4  203.41    5.79
   4  -5   4  202.76    5.02
  -4   5  -4  186.97    4.63
  -9  -4  -4   73.88   13.00
  -4   5  -4  198.66    5.03
   4  -5  -4  194.73    5.86
  -9  -4   5    7.96    6.31
   4  -5   5   85.15    3.32
  -4   5   5   94.81    4.42
   4  -5  -5   89.77    4.79
  -4   5  -5   78.80    2.61
  -9  -4  -5   -0.35    2.72
  -4   5  -5   85.40    3.84
  -4   5   6  805.43   17.27
   4  -5   6  822.36   16.67
  -4   5   6  810.26   16.72
  -4   5  -6  809.21   16.37
   4  -5   7    0.60    1.22
  -4   5   7    5.17    3.33
  -4   5   7    6.51    2.58
  -4   5  -7    2.92    1.37
  -4   5   8   90.90    3.25
  -4   5   8   97.14    4.87
  -4   5   9   79.01    5.27
  -4   5  10   15.28    3.65
  -9  -5   0   29.96   11.18
  -5   4   0 8040.73  153.26
  -9  -5   0   42.60    5.60
  -4  -9   0  227.03    9.78
  -9  -5   1  228.03    8.11
  -4  -9   1   13.27    3.39
   5  -4   1 4882.53   93.38
  -9  -5   1  220.54   13.34
  -4  -9  -1   16.22    3.77
  -5   4  -1 5043.28   96.58
   4   9  -1   17.55    3.44
  -5   4  -1 4751.63   90.73
   5  -4  -1 4887.83   93.73
  -4  -9  -1    6.69    3.16
  -9  -5  -1  235.81    8.26
  -9  -5  -1  255.31    8.76
  -9  -5   2    4.97    2.72
   5  -4   2  736.29   14.49
  -9  -5   2   -0.09    2.26
  -4  -9   2   14.97    4.36
  -5   4   2  738.77   15.00
  -5   4  -2  706.67   13.92
  -9  -5  -2    5.97    3.76
  -4  -9  -2   12.29    3.21
  -9  -5  -2    7.52    3.92
  -5   4  -2  723.90   14.87
  -4  -9  -2   10.19    4.46
   4   9  -2   12.21    4.30
   5  -4  -2  728.70   14.84
  -5   4   3 3195.50   61.72
   5  -4   3 3116.84   59.55
  -5   4   3 3065.01   59.05
  -4  -9   3   47.42    6.40
  -9  -5   3  104.96    6.96
  -5   4  -3 3165.05   60.97
   4   9  -3   38.95    4.28
  -5   4  -3 3088.65   59.01
  -9  -5  -3  107.52    8.58
  -4  -9  -3   44.68    4.55
  -4  -9  -3   47.69    5.80
  -4  -9   4    9.55    4.55
   5  -4   4 1989.94   38.15
  -5   4   4 2025.33   39.69
  -5   4   4 2073.96   40.25
  -5   4  -4 2053.94   39.95
  -4  -9  -4    4.26    2.37
  -5   4  -4 2045.91   39.17
  -4  -9  -4    9.42    3.02
  -4  -9   5   53.73    6.52
  -5   4   5 2176.08   42.76
  -5   4   5 2077.78   40.41
   5  -4   5 2118.47   40.59
  -4  -9  -5   59.38    4.62
  -5   4  -5 2098.27   40.85
  -5   4  -5 2018.82   38.63
  -5   4   6 4436.16   85.80
   5  -4   6 4447.33   84.85
  -5   4   6 4617.06   88.50
  -5   4  -6 4635.20   88.96
  -5   4  -6 4422.37   84.27
  -5   4   7  566.38   12.03
  -5   4   7  569.65   13.36
  -5   4  -7  562.58   12.21
  -5   4   8  696.82   15.54
  -5   4  -8  737.10   15.44
  -5   4   9  950.11   20.57
  -5   4  10  542.90   13.19
  -9  -6   0  582.90   16.32
  -6   3   0 1197.15   23.71
  -6   3   0 1232.85   24.10
   3   9   0   67.01    5.49
  -3  -9   0   75.57    5.44
  -6   3   0 1168.33   22.82
  -9  -6   0  626.81   16.45
  -3  -9   1   11.87    5.22
  -6   3   1 1476.82   28.80
  -6   3   1 1454.82   28.58
  -6   3  -1 1506.73   29.11
  -6   3  -1 1456.18   28.14
  -6   3  -1 1402.77   27.67
   3   9  -1    1.10    2.75
  -3  -9   2    1.07    2.96
  -6   3   2  235.16    5.68
  -6   3   2  238.68    6.39
   3   9  -2    8.32    2.52
  -6   3  -2  244.55    5.32
  -3  -9  -2    9.44    3.44
  -6   3  -2  241.93    6.42
  -6   3  -2  230.86    4.95
  -6   3   3  341.99    8.19
  -6   3   3  332.96    7.35
  -3  -9   3   10.16    4.55
   3   9  -3    6.69    3.23
  -6   3  -3  336.86    7.81
  -6   3  -3  320.66    6.29
  -3  -9  -3    8.84    3.83
  -6   3   4  585.98   12.17
  -3  -9   4    5.95    3.11
  -6   3   4  609.46   13.33
   3   9   4    8.88    3.38
  -3  -9  -4   18.37    5.02
   3   9  -4    8.59    3.29
  -6   3  -4  621.79   13.51
  -6   3   5  534.05   11.11
  -3  -9   5    3.03    3.39
  -6   3   5  519.33   11.81
   3   9   5    3.09    3.43
  -3  -9  -5    2.25    2.22
  -6   3  -5  556.60   12.63
  -6   3   6  922.98   19.79
  -6   3   6  923.81   18.41
  -6   3  -6  920.94   19.31
  -3  -9  -6    3.59    3.11
  -6   3   7  223.29    7.58
  -6   3  -7  218.63    6.74
  -6   3   8   96.73    5.48
  -6   3  -8  102.19    4.58
  -6   3   9  176.63    6.88
  -6   3  10  225.40    8.61
  -7   2   0  840.13   16.97
  -7   2   0  829.50   17.11
   2   9   0   87.02    5.28
  -2  -9   0   97.52    5.92
   2   9   1  272.95    8.50
  -7   2   1  174.69    5.53
  -2  -9   1  277.20    9.62
  -7   2   1  168.51    4.72
  -7   2  -1  163.55    5.06
  -2  -9  -1  276.23    9.08
  -7   2  -1  176.58    4.54
  -7   2  -1  188.52    6.86
   2   9  -1  261.03    7.93
   2   9   2  399.55   11.78
  -2  -9   2  421.26   11.53
  -7   2   2  244.88    6.94
  -7   2   2  245.55    6.83
  -7   2  -2  238.57    5.32
   2   9  -2  396.39    9.82
  -7   2  -2  242.67    6.84
  -7   2  -2  228.53    5.32
  -2  -9  -2  402.31   11.27
   2   9   3  284.89    9.22
  -7   2   3   61.25    4.66
  -2  -9   3  272.72    9.23
  -7   2   3   48.80    3.51
   2   9  -3  302.35    8.69
  -7   2  -3   49.69    1.43
  -2  -9  -3  289.43    9.23
  -7   2  -3   57.55    4.55
   2   9   4  248.56    8.26
  -2  -9   4  252.59    9.16
  -7   2   4  156.81    4.51
  -7   2   4  157.00    6.02
   2   9  -4  248.98    6.96
  -2  -9  -4  270.78    8.88
  -7   2  -4  154.33    6.11
  -2  -9   5  155.15    8.09
   2   9   5  165.85    7.97
  -7   2   5  373.85    8.13
  -7   2   5  388.82   10.00
  -2  -9  -5  151.47    5.94
  -7   2  -5  382.92   10.16
  -7   2   6  100.02    3.90
  -7   2   6  105.69    5.48
   2   9   6   72.48    5.74
  -2  -9   6   78.25    6.99
  -7   2  -6   97.19    5.00
  -2  -9  -6   57.33    3.84
   2   9   7  138.59    7.51
  -2  -9   7  137.13    7.92
  -7   2   7  263.26    8.79
  -7   2  -7  263.41    7.97
  -7   2   8    1.07    2.91
  -7   2  -8    3.55    2.38
  -7   2   9   74.12    6.04
  -7   2  -9   65.32   10.86
  -8   1   0  755.90   16.62
  -1  -9   0   65.69    5.19
   1   9   0   76.23    5.50
  -8   1   0  762.28   15.99
  -8   1   1  780.16   16.60
  -8   1   1  766.90   16.11
  -1  -9   1  443.59   12.25
   1   9   1  420.58   10.62
  -8   1  -1  788.14   17.16
   1   9  -1  429.03   10.43
  -8   1  -1  737.40   15.28
  -1  -9  -1  411.12   11.33
  -8   1   2  341.64    8.59
   1   9   2  293.63    9.49
  -8   1   2  340.59    9.06
   8  -1   2  335.62    7.11
  -1  -9   2  278.10    8.71
  -8   1  -2  357.90    9.89
  -8   1  -2  341.63    7.58
   1   9  -2  279.44    8.01
  -1  -9  -2  279.32    9.96
  -1  -9   3  248.61    8.92
  -8   1   3  347.58    8.37
   1   9   3  235.00    7.83
  -8   1   3  356.54    9.64
  -8   1  -3  344.54    7.36
  -8   1  -3  325.39    7.07
   1   9  -3  241.03    7.28
  -8   1  -3  368.46   10.91
  -1  -9  -3  224.44    7.04
  -1  -9   4  310.38    9.59
  -8   1   4  453.48   11.68
  -8   1   4  470.99   11.01
   1   9   4  318.95    9.75
  -1  -9  -4  330.95   10.32
   1   9  -4  309.32    7.77
  -8   1  -4  462.07   11.76
  -1  -9   5  142.86    7.64
  -8   1   5  402.80    9.29
  -8   1   5  393.63   11.35
   1   9   5  126.61    6.97
  -1  -9  -5  126.56    6.20
  -8   1  -5  391.99   10.78
  -8   1   6  528.68   13.36
  -1  -9   6  168.68    7.30
   1   9   6  157.81    7.05
  -8   1  -6  513.91   12.52
  -1  -9  -6  173.36    6.84
  -1  -9   7  113.97    7.18
  -8   1   7  254.94    8.89
   1   9   7   97.04    5.98
  -8   1  -7  257.97    8.59
  -1  -9  -7   96.33    6.58
  -8   1   8  125.77    8.12
  -8   1  -8  114.12    5.66
  -8   1   9  145.79    7.06
  -8   1  -9  133.51    7.48
   0  -9   0 3524.09   68.73
  -9   0   0 3588.37   69.56
  -9   0   0 3447.38   67.22
   0   9   0 3560.08   69.15
  -9   0   1  162.65    5.63
   0   9   1  169.92    6.99
  -9   0   1  168.09    6.22
   0  -9   1  166.97    7.60
  -9   0  -1  156.92    6.60
   0  -9  -1  168.13    6.75
  -9   0  -1  157.87    5.15
   0   9  -1  166.25    6.08
   0   9   2  443.20   11.28
  -9   0   2  453.01   11.38
   0  -9   2  446.88   11.53
  -9   0   2  444.29   10.56
  -9   0  -2  455.07   10.33
   0   9  -2  442.50   10.17
  -9   0  -2  447.42   11.80
   0  -9  -2  434.32   11.68
   0  -9   3  529.05   12.84
  -9   0   3  542.22   12.35
   0   9   3  546.57   13.27
  -9   0   3  545.14   13.59
   0   9  -3  546.40   12.53
  -9   0  -3  515.50   10.99
   0  -9  -3  549.28   13.81
  -9   0  -3  529.32   12.98
  -9   0   4  179.13    6.36
   0  -9   4  178.00    7.36
  -9   0   4  184.83    8.07
   0   9   4  191.78    7.17
  -9   0  -4  190.32    8.37
   0  -9  -4  176.91    6.56
   0   9  -4  188.67    5.91
   0  -9   5 1126.12   24.30
  -9   0   5 1162.60   25.18
   0   9   5 1161.83   24.61
  -9   0  -5 1172.72   25.43
   0   9  -5 1155.07   23.31
   0  -9  -5 1211.09   25.65
   0   9   6  533.14   13.26
  -9   0   6  520.90   13.98
   0  -9   6  492.24   12.73
   0  -9  -6  498.36   12.20
  -9   0  -6  531.42   13.67
   0   9   7  483.48   12.74
   0  -9   7  503.01   12.94
  -9   0   7  476.61   13.38
   0  -9  -7  451.76   11.38
  -9   0  -7  474.73   12.12
  -9   0   8    7.77    4.70
   0   9   8    9.36    3.79
   0  -9   8   16.70    4.55
   0  -9  -8   10.02    3.94
  -9   0  -8    5.91    3.90
 -10  -1   0  152.14    7.06
 -10  -1   0  133.47    5.43
   1  -9   0 1012.56   21.54
  -1   9   0 1096.15   22.48
 -10  -1   1  101.61    5.79
 -10  -1   1  112.74    6.81
  -1   9   1  169.43    7.16
   1  -9   1  163.78    6.60
 -10  -1  -1  102.25    5.47
  -1   9  -1  160.32    5.78
   1  -9  -1  151.71    6.59
 -10  -1  -1   94.16    5.76
 -10  -1   2  112.27    5.17
   1  -9   2  196.19    7.86
  -1   9   2  196.42    7.01
 -10  -1   2  105.58    5.80
   1  -9  -2  193.90    6.47
  -1   9  -2  194.93    5.85
 -10  -1  -2  105.59    6.19
 -10  -1  -2  114.48    5.00
  -1   9   3  250.52    8.62
 -10  -1   3  170.15    6.91
 -10  -1   3  164.67    8.27
   1  -9   3  250.06    8.38
  -1   9  -3  236.10    6.73
   1  -9  -3  258.09    8.21
 -10  -1  -3  183.04    7.99
  -1   9   4  130.81    5.92
 -10  -1   4   70.54    4.76
   1  -9   4  127.71    6.59
 -10  -1   4   72.47    6.00
  -1   9  -4  136.03    4.67
 -10  -1  -4   92.26    7.50
   1  -9  -4  137.60    6.48
 -10  -1   5   89.92    5.97
  -1   9   5  369.65   10.62
   1  -9   5  360.35    9.76
 -10  -1  -5  102.64    7.58
   1  -9  -5  356.56    9.87
  -1   9  -5  358.23    8.25
   1  -9   6  233.68    8.67
  -1   9   6  242.80    8.65
 -10  -1   6   94.61    6.92
 -10  -1  -6   96.46   12.28
   1  -9  -6  246.75    7.40
   1  -9   7  162.37    7.13
  -1   9   7  155.00    6.17
   1  -9  -7  149.13   10.22
  -1   9   8   12.82    3.73
   1  -9   8   24.14    5.06
   1  -9  -8   13.87    4.76
  -2   8   0   14.38    3.05
   2  -8   0    6.63    3.75
 -10  -2   0   72.56    4.70
 -10  -2   0   74.26    5.81
  -2   8   1  597.58   12.94
 -10  -2   1  614.52   14.84
   2  -8   1  597.17   13.34
 -10  -2   1  582.52   14.57
   2  -8  -1  589.33   12.97
  -2   8  -1  606.33   13.13
 -10  -2  -1  609.98   15.54
 -10  -2  -1  601.23   13.62
   2  -8   2 1379.30   27.95
 -10  -2   2  490.04   13.06
 -10  -2   2  486.74   12.26
  -2   8   2 1395.38   28.07
  -2   8  -2 1439.11   28.56
   2  -8  -2 1441.28   29.03
 -10  -2  -2  491.56   11.89
 -10  -2  -2  493.96   13.51
  -2   8   3  817.19   17.50
   2  -8   3  838.33   18.05
 -10  -2   3  323.86   10.39
 -10  -2   3  330.65    9.32
 -10  -2  -3  344.39   10.31
   2  -8  -3  830.67   17.88
  -2   8  -3  826.78   17.05
  -2   8   4  703.44   15.44
 -10  -2   4  482.92   13.64
   2  -8   4  704.25   15.48
  -2   8  -4  706.75   14.66
   2  -8  -4  677.11   14.80
 -10  -2  -4  496.57   13.17
 -10  -2   5  171.01    8.03
  -2   8   5  243.98    7.50
   2  -8   5  230.53    7.07
   2  -8  -5  245.31    7.89
 -10  -2  -5  176.84    8.00
  -2   8  -5  233.63    6.08
  -2   8   6   64.01    4.54
   2  -8   6   65.71    5.27
   2  -8  -6   60.43    4.64
  -2   8  -6   59.50    2.70
  -2   8   7  371.18    9.78
   2  -8   7  384.04   10.39
   2  -8  -7  379.97   10.90
   2  -8   8  834.56   18.55
  -2   8   8  818.07   17.65
   2  -8  -8  842.36   18.51
  -2   8   9  161.01    5.85
  -2   8   9  162.15    5.99
   2  -8   9  157.43    6.02
 -10  -3   0    2.07    3.21
 -10  -3   0   11.97    3.29
   3  -7   0  572.61   12.36
  -3   7   0  558.22   12.06
  -3   7   1  300.79    7.76
   3  -7   1  302.81    7.85
 -10  -3   1  252.88    8.91
 -10  -3   1  261.30    8.99
 -10  -3  -1  253.91    8.49
 -10  -3  -1  275.15    8.91
   3  -7  -1  289.24    7.55
  -3   7  -1  284.62    6.86
   3  -7   2  543.22   11.92
  -3   7   2  536.14   11.69
 -10  -3   2  262.92    9.38
 -10  -3   2  263.38    8.39
   3  -7  -2  545.95   11.96
 -10  -3  -2  229.78   12.93
  -3   7  -2  536.94   11.36
  -3   7   3  322.31    8.38
 -10  -3   3  212.15    9.04
   3  -7   3  314.68    8.15
 -10  -3   3  184.94    6.41
  -3   7  -3  319.09    7.40
 -10  -3  -3  200.34   14.12
   3  -7  -3  329.97    8.64
  -3   7   4  293.50    7.72
 -10  -3   4  250.52   10.69
   3  -7   4  290.90    7.42
   3  -7  -4  309.36   10.73
 -10  -3  -4  195.38   15.52
  -3   7  -4  298.05    7.47
  -3   7   5  296.88    8.07
   3  -7   5  312.59    7.96
  -3   7  -5  308.07    7.30
   3  -7  -5  321.97    8.79
  -3   7   6  111.38    5.25
   3  -7   6  113.37    4.75
  -3   7  -6  110.90    3.41
   3  -7  -6  108.40    7.69
  -3   7   7  302.53    7.93
   3  -7   7  284.30    8.00
   3  -7  -7  317.09   11.56
  -3   7   8   92.98    5.76
   3  -7   8   88.59    4.81
  -3   7   8   86.69    4.39
  -3   7   9  108.38    5.56
   4  -6   0 2362.43   45.86
 -10  -4   0    9.69    5.53
  -4   6   0 2373.55   45.98
 -10  -4   1    5.82    3.78
  -4   6   1 1749.41   34.22
 -10  -4   1    2.08    1.82
   4  -6   1 1851.34   36.16
  -4   6  -1 1755.55   34.37
   4  -6  -1 1844.38   36.05
 -10  -4  -1    3.38    2.33
 -10  -4  -1    5.32    3.59
   4  -6   2 4146.82   79.54
 -10  -4   2   12.18    6.91
 -10  -4   2   12.38    3.02
  -4   6   2 3957.88   76.16
  -4   6  -2 4198.70   80.53
   4  -6  -2 4192.77   80.72
 -10  -4  -2   16.23    6.36
 -10  -4   3   -0.26    2.65
  -4   6   3 2237.58   43.56
 -10  -4   3    1.63    1.49
   4  -6   3 2234.15   43.26
 -10  -4  -3    1.33    1.87
  -4   6  -3 2272.48   44.11
   4  -6  -3 2311.34   46.79
   4  -6   4 2106.54   40.98
  -4   6   4 2122.98   41.62
  -4   6  -4 2092.15   40.68
   4  -6  -4 2045.22   41.16
  -4   6   5 1992.15   39.09
   4  -6   5 1942.89   37.88
  -4   6  -5 1909.63   37.28
   4  -6  -5 1931.98   39.31
   4  -6   6  532.06   11.38
  -4   6   6  545.93   12.08
  -4   6  -6  527.77   11.09
   4  -6  -6  537.21   12.27
  -4   6   7 1810.07   36.37
  -4   6   7 1838.97   36.26
   4  -6   7 1839.79   36.08
  -4   6  -7 1866.78   36.26
  -4   6   8  922.48   19.12
  -4   6   8  912.09   19.42
  -4   6   9  687.94   15.37
  -4   6  10  644.11   14.81
   5  -5   0 1473.20   28.79
  -5   5   0 1465.17   28.86
  -5   5   1 1496.00   29.34
   5  -5   1 1418.73   27.68
  -5   5  -1 1398.52   27.21
   5  -5  -1 1410.13   28.12
  -5   5  -1 1388.07   27.21
  -5   5   2  180.82    5.42
   5  -5   2  180.56    4.78
   5  -5  -2  183.83    5.48
  -5   5  -2  181.60    5.34
   5  -5   3  700.21   14.04
  -5   5   3  702.19   14.48
  -5   5  -3  665.85   13.30
  -5   5  -3  692.48   14.24
   5  -5  -3  683.73   15.93
   5  -5   4  521.96   10.67
  -5   5   4  526.56   11.49
  -5   5  -4  498.28   10.16
  -5   5  -4  533.25   11.30
   5  -5  -4  506.88   11.46
  -5   5   5  462.42   10.13
   5  -5   5  473.93    9.96
  -5   5   5  470.70   10.73
  -5   5  -5  469.11   10.12
  -5   5  -5  451.30    9.26
  -5   5   6 1214.25   24.96
   5  -5   6 1215.58   23.85
  -5   5   6 1214.71   24.38
  -5   5  -6 1156.19   22.49
  -5   5  -6 1227.19   24.48
  -5   5   7  100.99    3.79
  -5   5   7  108.27    5.92
  -5   5  -7   97.37    4.22
  -5   5   8  221.49    7.05
  -5   5  -8  221.16    5.86
  -5   5   9  223.10    7.74
  -5   5  10  122.53    5.67
  -6   4   0  161.99    4.15
   4  10   0 1144.62   24.66
   6  -4   0  172.63    4.63
  -4 -10   0 1161.67   25.29
  -6   4   0  172.67    5.26
  -6   4   1   35.69    2.91
   6  -4   1   30.78    2.57
   4  10   1  628.19   15.13
  -4 -10   1  668.14   17.10
  -6   4   1   37.20    4.14
  -4 -10  -1  644.65   15.71
  -6   4  -1   36.27    3.16
  -6   4  -1   27.06    1.88
   4  10  -1  640.41   15.81
  -4 -10   2  298.00   11.46
   6  -4   2  344.07    7.66
  -6   4   2  352.59    8.20
   4  10   2  292.85    9.87
  -6   4   2  352.65    8.16
   4  10  -2  291.70    9.11
  -6   4  -2  343.07    8.18
  -4 -10  -2  323.28   11.57
  -6   4  -2  330.23    6.89
  -6   4   3  156.36    4.74
   4  10   3  617.77   15.51
  -4 -10   3  633.47   15.72
   6  -4   3  159.39    4.04
  -6   4   3  160.94    5.50
  -6   4  -3  155.26    3.47
   4  10  -3  645.58   14.96
  -4 -10  -3  663.53   16.27
  -6   4  -3  162.55    5.16
  -6   4   4   83.34    4.61
  -6   4   4   73.79    3.55
   6  -4   4   74.83    2.28
  -6   4  -4   74.32    1.78
  -6   4  -4   70.21    3.84
  -6   4   5  141.31    6.27
  -6   4   5  131.68    4.05
  -6   4  -5  136.95    5.15
  -6   4   6   11.41    1.96
  -6   4   6   13.16    4.12
  -6   4  -6    9.76    3.22
  -6   4   7  133.98    4.41
  -6   4   7  142.51    7.34
  -6   4  -7  127.98    5.28
  -6   4   8   63.93    5.22
  -6   4  -8   69.28    4.40
  -6   4   9   54.57    5.65
  -6   4  10   14.18    3.73
  -7   3   0  333.31    8.11
  -3 -10   0  447.06   12.82
  -7   3   0  337.90    7.81
   3  10   0  441.91   11.82
  -7   3   1  222.76    6.02
  -7   3   1  225.62    5.98
  -3 -10   1   72.56    5.87
   3  10   1   88.79    7.12
  -7   3  -1  221.62    5.23
   3  10  -1   68.13    5.15
  -7   3  -1  235.31    6.80
  -7   3  -1  207.70    5.17
  -3 -10  -1   78.79    6.36
  -7   3   2 1407.43   27.89
  -3 -10   2  101.34    7.04
   3  10   2   96.37    5.46
  -7   3   2 1352.51   26.90
   3  10  -2   99.53    5.44
  -7   3  -2 1355.33   27.23
  -7   3  -2 1309.59   25.36
  -7   3  -2 1333.12   25.75
  -3 -10  -2  102.03    6.53
   3  10   3  147.32    7.34
  -7   3   3  661.49   14.24
  -3 -10   3  133.70    6.62
  -7   3   3  683.54   14.23
  -7   3  -3  629.66   12.20
  -7   3  -3  659.79   14.15
   3  10  -3  164.14    6.48
  -3 -10  -3  152.34    7.16
  -7   3   4  397.82    9.10
  -3 -10   4   66.52    7.11
  -7   3   4  377.30    9.74
   3  10   4   64.61    5.96
  -3 -10  -4   56.91    4.99
  -7   3  -4  398.04    9.79
  -7   3   5  436.63    9.47
  -7   3   5  423.36   10.23
  -7   3  -5  470.44   11.75
  -7   3   6   29.65    3.36
  -7   3   6   28.39    2.63
  -7   3  -6   31.30    3.57
  -7   3   7  456.83   11.73
  -7   3  -7  456.24   10.96
  -7   3   8  357.58    9.94
  -7   3  -8  377.62    9.67
  -7   3   9  170.26    7.06
  -7   3  -9  179.78    6.36
  -2 -10   0   43.81    5.98
   2  10   0   37.97    4.45
  -8   2   0  257.39    7.39
  -8   2   0  257.57    6.65
   2  10   1   16.50    5.12
  -2 -10   1   10.05    4.50
  -8   2   1  674.31   14.46
  -8   2   1  650.91   13.91
   2  10  -1    4.72    3.78
  -8   2  -1  662.61   13.74
  -2 -10  -1   10.18    4.10
  -8   2  -1  665.98   14.75
  -8   2   2 1067.20   21.85
   2  10   2    5.93    3.31
  -2 -10   2    5.00    3.08
  -8   2   2 1058.37   21.57
   2  10  -2    3.99    2.55
  -2 -10  -2   -2.67    3.26
  -8   2  -2 1074.77   21.14
  -8   2  -2 1087.01   22.50
  -8   2  -2 1028.15   20.59
  -2 -10   3    1.41    3.12
  -8   2   3  652.93   14.62
   2  10   3    5.33    3.46
  -8   2   3  656.25   13.98
  -8   2  -3  624.25   12.27
   2  10  -3    2.91    3.08
  -8   2  -3  666.69   15.22
  -8   2  -3  641.31   12.69
  -2 -10  -3    1.86    2.98
  -8   2   4  642.52   14.80
  -8   2   4  645.18   13.76
  -2 -10   4    7.94    3.58
   2  10   4    0.02    3.27
   2  10  -4    3.09    2.76
  -2 -10  -4    1.09    2.56
  -8   2  -4  658.23   15.01
  -8   2   5  402.14   10.79
   2  10   5   13.83    4.80
  -2 -10   5    9.13    5.19
  -8   2   5  400.27    9.02
  -8   2  -5  399.73   10.49
  -2 -10  -5   19.12    4.15
  -8   2   6  160.44    7.06
  -8   2   6  164.36    4.47
  -8   2  -6  181.18    6.42
  -8   2   7  459.44   12.38
  -8   2  -7  464.48   12.08
  -8   2   8  417.91   12.96
  -8   2  -8  412.71   10.86
  -8   2   9  192.68    8.02
  -8   2  -9  157.47    7.48
  -9   1   0   23.80    3.00
  -1 -10   0  142.60    6.60
   1  10   0  134.70    6.44
  -9   1   0   28.97    4.71
   1  10   1   39.75    4.69
  -9   1   1   48.06    3.82
  -9   1   1   37.95    3.46
  -1 -10   1   55.62    5.53
  -1 -10  -1   33.50    4.82
  -9   1  -1   39.35    5.31
  -9   1  -1   38.59    2.89
   1  10  -1   39.38    5.35
  -9   1   2   24.13    3.76
  -9   1   2   18.22    3.95
   1  10   2   16.90    3.70
  -1 -10   2   13.59    4.35
  -9   1  -2   28.84    4.35
  -1 -10  -2   14.35    3.41
  -9   1  -2   18.59    2.35
   1  10  -2   13.03    3.75
   1  10   3   15.55    4.71
  -9   1   3   17.99    2.54
  -9   1   3   24.70    4.10
  -1 -10   3    8.88    3.19
  -1 -10  -3   14.86    6.04
  -9   1  -3   12.40    1.61
   1  10  -3    6.97    2.96
  -9   1  -3   19.79    4.81
  -9   1   4   28.81    3.38
  -9   1   4   33.18    4.44
   1  10   4   44.20    5.69
  -1 -10   4   19.30    4.87
  -1 -10  -4   29.27    4.53
   1  10  -4   17.90    3.64
  -9   1  -4   31.51    4.68
  -1 -10   5   51.37    5.34
  -9   1   5   12.67    3.71
   1  10   5   44.25    5.06
  -9   1  -5   24.53    5.27
  -1 -10  -5   51.24    4.43
  -1 -10   6   40.25    7.06
   1  10   6   52.15    5.70
  -9   1   6   23.34    5.18
  -9   1  -6   26.95    4.91
  -1 -10  -6   40.38    4.14
  -9   1   7    7.17    3.01
  -9   1   8    1.37    3.21
  -9   1  -8   13.10    4.35
 -10   0   0  330.25    9.71
 -10   0   0  350.59   10.12
   0 -10   0  334.84    9.56
   0  10   0  333.71    9.84
 -10   0   1    1.87    4.01
 -10   0   1    4.33    3.68
   0 -10   1    7.40    3.86
   0  10   1   -0.89    2.95
   0 -10  -1    4.43    2.96
 -10   0  -1    1.44    1.85
 -10   0  -1    6.86    4.51
   0  10  -1    0.70    2.37
 -10   0   2   25.10    3.94
   0 -10   2   29.93    5.12
   0  10   2   31.69    5.10
 -10   0   2   25.37    3.67
 -10   0  -2   31.00    4.93
   0 -10  -2   36.40    5.90
 -10   0  -2   24.69    3.06
   0  10  -2   33.52    4.64
   0  10   3   57.24    5.86
 -10   0   3   53.28    5.18
 -10   0   3   54.65    4.39
   0 -10   3   58.10    6.16
   0 -10  -3   50.34    5.18
   0  10  -3   44.72    4.41
 -10   0  -3   58.60    6.00
   0 -10   4    5.64    2.92
 -10   0   4    1.56    1.64
   0  10   4    1.99    2.99
 -10   0   4    1.63    2.86
 -10   0  -4    2.64    2.86
   0  10  -4    6.93    3.59
   0 -10  -4    2.75    3.43
   0 -10   5   96.69    6.77
   0  10   5   95.36    6.45
 -10   0   5   92.59    6.40
   0 -10  -5   87.89    5.18
 -10   0  -5   89.75    6.24
   0  10   6   23.94    5.04
   0 -10   6   27.97    5.08
 -10   0   6   30.11    6.27
 -10   0  -6   27.11    4.90
   0 -10  -6   28.07    4.59
 -10   0   7   37.12    4.35
   0 -10   7   47.65    5.69
   0  10   7   39.13    4.78
   0 -10  -7   23.42    9.96
 -10   0  -7   39.37    5.21
   1 -10   0 1286.25   27.20
 -11  -1   0  105.26    5.50
  -1  10   0 1301.09   27.14
 -11  -1   0   88.96    5.13
   1 -10   1  197.10    8.04
  -1  10   1  194.83    6.62
 -11  -1   1   65.71    4.73
 -11  -1   1   64.84    5.47
   1 -10  -1  199.62    7.41
 -11  -1  -1   54.45    4.09
  -1  10  -1  186.31    6.32
 -11  -1  -1   58.91    5.14
 -11  -1   2   22.31    5.07
  -1  10   2  289.58    9.13
 -11  -1   2   23.80    3.90
   1 -10   2  300.74    9.49
 -11  -1  -2   20.00    5.28
   1 -10  -2  291.00    8.82
  -1  10  -2  306.39    8.31
  -1  10   3  381.50   10.68
 -11  -1   3   17.33    3.69
   1 -10   3  365.90   11.14
 -11  -1   3   24.41    5.54
  -1  10  -3  348.40    8.79
 -11  -1  -3   24.34    5.73
   1 -10  -3  368.64   10.62
   1 -10   4  161.28    7.42
 -11  -1   4   34.00    4.53
  -1  10   4  153.59    6.59
 -11  -1  -4   41.83    5.89
  -1  10  -4  166.54    5.80
   1 -10  -4  165.45    6.75
   1 -10   5  476.51   12.57
  -1  10   5  479.93   12.52
   1 -10  -5  497.81   13.04
 -11  -1  -5   47.79    5.46
  -1  10  -5  467.18   10.57
   1 -10   6  259.91    8.52
  -1  10   6  274.84    8.70
   1 -10  -6  276.20    8.74
   1 -10   7  210.70    7.70
  -1  10   7  223.03    7.72
   1 -10  -7  234.10    7.71
 -11  -2   0  140.05    7.41
  -2   9   0  110.20    4.97
   2  -9   0  110.69    5.95
 -11  -2   0  125.71    5.83
   2  -9   1  530.86   12.86
  -2   9   1  516.91   11.74
 -11  -2   1   47.35    5.17
 -11  -2   1   44.85    5.67
   2  -9  -1  546.15   13.09
 -11  -2  -1   41.56    3.67
 -11  -2  -1   49.52    4.50
  -2   9  -1  519.56   11.77
   2  -9   2  246.72    8.22
 -11  -2   2   69.04    5.68
  -2   9   2  232.92    7.66
 -11  -2   2   68.17    5.35
 -11  -2  -2   67.28    5.05
  -2   9  -2  239.85    6.98
   2  -9  -2  251.80    8.56
   2  -9   3  229.05    7.20
  -2   9   3  233.21    7.42
 -11  -2   3   19.67    5.05
 -11  -2   3   28.88    5.06
   2  -9  -3  244.06    8.25
  -2   9  -3  232.62    6.44
 -11  -2  -3   28.15    5.24
 -11  -2   4   53.80    5.25
   2  -9   4  366.25   10.38
  -2   9   4  335.67    8.84
 -11  -2  -4   27.65   15.24
   2  -9  -4  357.56   10.57
  -2   9  -4  337.50    7.88
  -2   9   5  133.32    5.42
   2  -9   5  138.43    6.36
   2  -9  -5  146.42    6.46
  -2   9  -5  134.03    4.76
   2  -9   6  245.43    7.66
  -2   9   6  228.06    7.31
   2  -9  -6  232.34    8.16
   2  -9   7   87.10    5.31
  -2   9   7  110.67    6.01
   2  -9  -7  102.43    4.98
  -2   9   8  176.32    7.17
   2  -9   8  153.29    6.48
   2  -9  -8  158.91   13.95
 -11  -3   0  296.12   11.38
  -3   8   0  701.91   14.85
   3  -8   0  703.09   15.24
 -11  -3   1  161.70    7.63
  -3   8   1 1205.68   24.27
   3  -8   1 1227.96   24.94
 -11  -3   1  115.90   10.18
   3  -8  -1 1173.60   23.88
  -3   8  -1 1218.46   24.44
 -11  -3  -1  133.90   11.05
 -11  -3   2   98.56    6.57
   3  -8   2 1963.56   38.88
  -3   8   2 1928.18   38.17
 -11  -3   2  101.85    6.47
 -11  -3  -2   99.20    7.02
   3  -8  -2 1875.26   37.20
  -3   8  -2 1974.39   38.80
  -3   8   3 1134.67   23.08
   3  -8   3 1164.44   23.79
   3  -8  -3 1141.04   23.39
  -3   8  -3 1158.82   23.34
   3  -8   4 1133.13   23.56
  -3   8   4 1100.76   22.72
   3  -8  -4 1099.11   22.85
  -3   8  -4 1130.12   22.67
  -3   8   5  805.81   17.16
   3  -8   5  780.20   16.72
   3  -8  -5  798.56   19.10
  -3   8  -5  771.41   15.91
   3  -8   6  313.04    8.29
  -3   8   6  304.78    8.18
  -3   8  -6  305.51    6.94
   3  -8  -6  315.06   11.20
  -3   8   7  819.93   17.69
   3  -8   7  828.72   17.80
   3  -8  -7  835.08   18.27
  -3   8   8  618.97   14.26
   3  -8   8  638.33   14.48
   3  -8  -8  648.77   14.63
  -3   8   9  327.88    8.66
  -3   8   9  311.66    9.11
   4  -7   0  337.25    8.09
  -4   7   0  344.06    8.58
   4  -7   1  219.77    5.85
  -4   7   1  224.59    6.51
  -4   7  -1  217.92    5.62
   4  -7  -1  224.14    6.37
  -4   7   2 1333.89   26.51
   4  -7   2 1367.97   27.37
   4  -7  -2 1331.19   26.57
  -4   7  -2 1429.84   28.31
   4  -7   3  669.37   14.19
  -4   7   3  676.85   14.61
   4  -7  -3  680.03   14.62
  -4   7  -3  654.99   13.79
   4  -7   4  387.77    8.86
  -4   7   4  401.35    9.31
   4  -7  -4  383.63    9.52
  -4   7  -4  391.19    8.75
  -4   7   5  457.32   11.08
   4  -7   5  431.29   10.23
  -4   7  -5  447.75    9.87
   4  -7  -5  440.43   11.58
   4  -7   6   33.79    3.61
  -4   7   6   24.19    2.76
  -4   7  -6   29.38    2.51
   4  -7  -6   28.41    8.90
  -4   7   7  456.73   10.59
   4  -7   7  454.43   10.51
  -4   7  -7  431.34    9.30
  -4   7   8  353.83    9.64
  -4   7   8  388.14    9.56
  -4   7   9  175.23    6.36
  -5   6   0  199.70    5.65
   5  -6   0  195.97    5.48
   5  -6   1    4.36    2.54
  -5   6   1    0.63    2.44
  -5   6  -1    4.33    2.92
   5  -6  -1    2.16    2.05
  -5   6   2    0.18    2.21
   5  -6   2   -2.28    1.30
  -5   6  -2    5.48    3.43
   5  -6  -2    2.51    1.25
   5  -6   3    3.68    1.89
  -5   6   3   -1.03    2.10
  -5   6  -3    1.26    2.75
   5  -6  -3   -1.23    2.12
  -5   6   4    4.87    3.10
   5  -6   4    3.25    2.09
   5  -6  -4    3.10    2.58
  -5   6  -4    1.55    1.53
  -5   6   5   32.67    3.20
   5  -6  -5   35.78    4.58
  -5   6  -5   29.68    3.15
  -5   6   6   17.17    2.69
  -5   6   6   13.88    3.56
   5  -6   6    6.84    1.95
  -5   6  -6   16.53    2.67
  -5   6   7    3.10    2.70
  -5   6   7    1.15    2.60
   5  -6   7    0.67    1.06
  -5   6  -7   -0.07    1.26
  -5   6   8    5.59    3.25
  -5   6   8   12.90    5.41
  -5   6   9    7.06    3.54
  -5   6  10    1.86    2.30
   6  -5   0  278.51    6.93
  -6   5   0  267.07    6.76
   6  -5   1  448.07    9.38
  -6   5   1  446.02   10.04
  -6   5  -1  462.59   10.26
   6  -5  -1  452.41    9.73
  -6   5  -1  427.47    9.03
   6  -5   2  384.57    8.41
  -6   5   2  393.83    8.89
   6  -5  -2  386.99    8.81
  -6   5  -2  378.25    8.50
  -6   5  -2  368.69    7.87
  -6   5   3  411.65    9.42
   6  -5   3  405.92    8.35
  -6   5  -3  408.73    9.28
  -6   5  -3  402.77    8.35
  -6   5   4  298.52    7.74
  -6   5   4  301.43    7.43
   6  -5   4  303.40    6.53
  -6   5  -4  286.62    6.11
  -6   5  -4  306.30    7.49
   6  -5   5  213.88    4.81
  -6   5   5  201.98    5.82
  -6   5   5  212.60    6.77
  -6   5  -5  214.78    6.33
  -6   5  -5  203.99    4.50
  -6   5   6  266.62    6.94
  -6   5   6  265.65    8.12
  -6   5  -6  277.57    7.03
  -6   5   7  151.07    4.79
  -6   5   7  147.05    6.72
  -6   5  -7  144.32    5.16
  -6   5   8  211.04    7.87
  -6   5  -8  210.55    6.15
  -6   5   9  114.14    6.03
  -6   5  10   54.94    5.15
  -7   4   0  559.46   12.06
  -7   4   0  564.38   11.91
  -7   4   1  288.35    6.84
  -7   4   1  292.75    7.19
  -7   4  -1  288.31    6.44
  -7   4  -1  302.58    7.60
  -7   4   2  526.59   11.20
  -7   4   2  529.72   11.33
  -7   4  -2  529.14   10.66
  -7   4  -2  551.39   11.10
  -7   4  -2  529.25   11.93
  -7   4   3  328.73    8.32
  -7   4   3  315.75    8.17
  -7   4  -3  320.70    8.13
  -7   4  -3  323.43    6.61
  -7   4  -3  308.54    6.33
  -7   4   4  296.61    8.26
  -7   4   4  293.29    7.55
  -7   4  -4  298.61    7.48
  -7   4   5  300.54    7.21
  -7   4   5  312.48    8.36
  -7   4  -5  313.72    8.19
  -7   4   6  118.86    6.09
  -7   4   6  112.78    3.99
  -7   4  -6  115.81    4.88
  -7   4   7  300.13    6.98
  -7   4   7  305.15    9.63
  -7   4  -7  304.17    9.03
  -7   4   8   92.69    6.02
  -7   4  -8   93.59    5.00
  -7   4   9  108.57    5.86
  -3 -11   0   33.38    5.46
  -8   3   0   12.00    2.78
  -8   3   0    8.68    1.59
   3  11   0   34.18    4.82
  -8   3   1  106.82    4.95
  -8   3   1  108.54    4.52
   3  11   1  300.49    9.57
  -3 -11   1  292.13   11.17
  -8   3  -1  104.46    3.50
   3  11  -1  312.22    9.36
  -3 -11  -1  313.82   10.37
  -8   3  -1  100.70    4.13
   3  11   2    8.54    3.30
  -8   3   2   25.13    3.92
  -3 -11   2    6.17    4.75
  -8   3   2   16.10    2.37
  -8   3  -2   16.25    1.47
  -8   3  -2   18.96    1.69
  -8   3  -2   23.49    4.38
  -3 -11  -2    4.07    4.47
   3  11  -2   -0.25    2.52
  -8   3   3   33.48    4.43
  -8   3   3   37.72    3.05
  -8   3  -3   30.33    1.52
  -8   3  -3   37.69    4.32
  -8   3  -3   27.72    1.34
  -8   3   4   12.76    3.33
  -8   3   4   12.81    3.02
  -8   3  -4    6.11    2.21
  -8   3   5    3.58    1.58
  -8   3   5   -0.63    2.91
  -8   3  -5   -0.67    2.32
  -8   3   6  164.51    4.73
  -8   3   6  179.93    7.03
  -8   3  -6  166.59    6.30
  -8   3   7   26.30    5.58
  -8   3  -7   22.35    3.58
  -8   3   8    6.30    3.39
  -8   3   9    8.75    4.13
  -8   3  -9    3.24    2.67
   2  11   0    5.99    2.70
  -2 -11   0    2.42    3.10
  -9   2   0   71.60    5.16
  -9   2   0   69.67    3.95
  -9   2   1   22.12    3.10
   2  11   1   51.64    5.11
  -9   2   1   19.66    3.57
  -2 -11   1   60.66    6.07
  -9   2  -1   20.72    2.81
  -9   2  -1   20.95    4.44
  -2 -11  -1   55.29    5.62
   2  11  -1   51.84    4.91
  -2 -11   2   -0.92    3.26
  -9   2   2   16.91    4.63
   2  11   2   12.33    5.31
  -9   2   2    5.53    3.40
  -9   2  -2    2.85    2.70
  -2 -11  -2   -1.54    2.84
  -9   2  -2    3.20    1.77
   2  11  -2   14.79    4.55
  -2 -11   3   49.60    6.08
  -9   2   3   -0.34    2.45
  -9   2   3    3.97    2.49
   2  11   3   54.16    5.43
  -2 -11  -3   50.83    5.96
  -9   2  -3    6.86    3.41
   2  11  -3   50.30    4.62
  -9   2  -3    1.96    1.11
   2  11   4   14.15    5.13
  -2 -11   4   16.46    4.71
  -9   2   4    5.51    2.49
  -9   2   4    6.16    2.71
  -9   2  -4    3.23    3.80
  -2 -11  -4   19.48    3.55
  -9   2   5   13.64    4.78
  -9   2   5   14.56    2.22
  -9   2  -5   12.90    4.35
  -9   2   6   16.85    5.44
  -9   2  -6    5.68    4.29
  -9   2   7   11.40    4.56
  -9   2  -7    4.05    2.49
  -9   2   8    7.78    4.82
  -9   2  -8    0.79    2.33
  -1 -11   0  259.36    9.10
   1  11   0  277.35    9.47
 -10   1   0   75.70    5.22
 -10   1   0   65.12    4.36
 -10   1   1  439.79   12.50
   1  11   1  723.98   17.12
  -1 -11   1  712.11   17.32
 -10   1   1  417.48   10.92
 -10   1  -1  401.98    9.69
  -1 -11  -1  740.07   17.86
 -10   1  -1  404.46   11.14
   1  11  -1  725.83   16.31
  -1 -11   2  821.01   19.27
   1  11   2  784.40   18.11
 -10   1   2  268.73    8.37
 -10   1   2  268.65    8.56
  -1 -11  -2  791.92   18.51
 -10   1  -2  267.89    6.75
 -10   1  -2  265.10    9.08
   1  11  -2  793.57   17.57
  -1 -11   3  533.58   14.17
   1  11   3  514.08   13.46
 -10   1   3  235.50    7.86
 -10   1   3  237.05    7.53
  -1 -11  -3  545.13   13.72
   1  11  -3  525.85   12.19
 -10   1  -3  241.81    8.93
 -10   1   4  313.47    9.82
 -10   1   4  311.79    8.76
   1  11   4  617.92   15.38
  -1 -11   4  645.84   16.65
  -1 -11  -4  634.63   15.57
 -10   1  -4  320.38   10.17
   1  11   5  359.52   10.67
 -10   1   5  116.72    4.65
  -1 -11   5  377.69   11.49
 -10   1   5  118.92    6.87
  -1 -11  -5  373.78   10.74
 -10   1  -5  124.94    7.73
 -10   1   6  163.50    8.97
 -10   1  -6  161.07    7.44
 -10   1   7  108.15    5.82
 -10   1  -7   92.89    5.43
   0  11   0    9.52    4.10
 -11   0   0    6.51    2.20
   0 -11   0    4.72    3.00
 -11   0   0   11.82    4.35
 -11   0   1  396.19   10.39
 -11   0   1  395.13   11.29
   0 -11   1  410.29   11.88
   0  11   1  387.00   10.39
   0 -11  -1  408.50   11.54
 -11   0  -1  401.53    9.99
   0  11  -1  420.16   11.19
 -11   0  -1  384.59   11.14
 -11   0   2  249.52    8.59
   0  11   2  250.03    8.58
   0 -11   2  262.83    9.26
 -11   0   2  249.05    7.99
   0 -11  -2  265.70    8.95
 -11   0  -2  245.95    8.58
   0  11  -2  256.78    7.84
   0  11   3  220.10    8.45
 -11   0   3  204.12    8.60
 -11   0   3  201.60    7.40
   0 -11   3  209.23    7.93
   0  11  -3  201.85    6.41
   0 -11  -3  213.04    8.92
 -11   0  -3  201.26    8.42
 -11   0   4  283.60   10.03
   0  11   4  300.21   10.16
 -11   0   4  278.07    7.88
   0 -11   4  274.49    9.76
   0 -11  -4  309.17    9.07
 -11   0  -4  293.52    9.94
   0  11  -4  296.62    8.59
   0  11   5   43.19    5.70
   0 -11   5   43.43    5.56
 -11   0   5   47.44    7.19
   0 -11  -5   40.40    4.60
 -11   0  -5   55.78    6.84
   0 -11   6  101.09    7.63
   0  11   6   94.74    6.61
 -11   0   6   83.30    6.68
   0 -11  -6   93.69    6.03
 -11   0  -6   98.20    6.74
   1 -11   0  144.96    7.07
 -12  -1   0   34.28    4.60
 -12  -1   0   39.81    5.97
  -1  11   0  140.08    6.12
 -12  -1   1    1.38    2.69
 -12  -1   1    3.13    2.31
  -1  11   1  101.52    6.11
   1 -11   1  107.57    6.68
   1 -11  -1  103.76    6.51
  -1  11  -1  101.49    5.50
   1 -11   2  119.59    7.05
 -12  -1   2    3.42    2.69
 -12  -1   2    3.15    2.35
  -1  11   2  109.77    5.69
   1 -11  -2  102.72    7.32
 -12  -1  -2    2.73    2.88
  -1  11  -2  109.99    5.74
 -12  -1   3    4.32    2.86
 -12  -1   3    4.73    2.70
  -1  11   3  175.14    8.31
   1 -11   3  172.30    7.71
   1 -11  -3  180.27    7.40
  -1  11  -3  177.41    6.33
 -12  -1  -3   -0.53    2.91
   1 -11   4   76.43    6.89
  -1  11   4   67.39    4.92
  -1  11  -4   67.80    4.39
   1 -11  -4   73.53    5.20
   1 -11   5   92.94    6.86
  -1  11   5   77.53    6.12
   1 -11  -5   84.59    5.88
  -1  11   6   96.57    6.22
   1 -11   6  102.71    6.92
   1 -11  -6  112.64    6.61
  -2  10   0  969.82   20.62
   2 -10   0  959.12   21.20
   2 -10   1  210.59    7.36
  -2  10   1  198.35    6.72
  -2  10  -1  193.59    5.88
   2 -10  -1  176.47    6.88
  -2  10   2  292.01    8.69
   2 -10   2  292.69    9.16
   2 -10  -2  283.83    9.13
  -2  10  -2  280.28    8.00
   2 -10   3  397.74   10.76
  -2  10   3  385.66   10.18
  -2  10  -3  404.28   10.05
   2 -10  -3  399.40   10.73
   2 -10   4  178.11    7.18
  -2  10   4  163.09    6.51
  -2  10  -4  161.35    5.39
   2 -10  -4  161.69    6.57
   2 -10   5  347.75   10.03
  -2  10   5  351.38    9.91
  -2  10  -5  341.44    8.50
   2 -10  -5  338.68   10.57
   2 -10   6  277.66    9.10
  -2  10   6  280.62    8.89
   2 -10  -6  295.57    9.83
   2 -10   7  189.64    7.71
  -2  10   7  183.99    7.36
   2 -10  -7  180.29   11.58
  -2  10   8   78.09    5.32
   2 -10   8   77.98    5.05
   2 -10  -8   68.07    7.81
  -3   9   0   90.46    4.37
   3  -9   0  101.79    6.04
  -3   9   1  693.30   15.28
   3  -9   1  689.91   15.32
   3  -9  -1  692.61   15.38
  -3   9  -1  674.44   14.48
   3  -9   2   47.29    4.95
  -3   9   2   53.53    4.82
   3  -9  -2   43.67    4.79
  -3   9  -2   45.35    3.60
   3  -9   3  174.56    6.66
  -3   9   3  177.89    6.65
  -3   9  -3  163.50    5.24
   3  -9  -3  175.84    7.31
  -3   9   4  296.92    8.59
   3  -9   4  305.16    8.42
  -3   9  -4  302.24    7.59
   3  -9  -4  292.91    8.32
   3  -9   5   71.31    5.28
  -3   9   5   70.53    5.53
   3  -9  -5   78.85   12.40
  -3   9  -5   68.39    3.67
  -3   9   6  476.41   11.83
   3  -9   6  497.75   12.27
   3  -9  -6  507.48   13.49
  -3   9  -6  478.89   10.59
  -3   9   7   29.00    4.29
   3  -9   7   21.17    4.19
   3  -9  -7   22.00    6.80
   3  -9   8   98.22    5.44
  -3   9   8  103.51    5.62
   3  -9  -8  105.37   10.28
   4  -8   0  397.42    9.47
  -4   8   0  399.13    9.63
  -4   8   1  222.87    6.29
   4  -8   1  234.03    7.35
  -4   8  -1  225.49    6.06
   4  -8  -1  220.80    6.67
   4  -8   2   35.66    3.80
  -4   8   2   36.38    4.15
  -4   8  -2   41.55    3.66
   4  -8  -2   35.46    4.27
   4  -8   3  106.35    4.90
  -4   8   3  103.54    4.47
   4  -8  -3  110.15    5.37
  -4   8  -3  110.72    4.73
   4  -8   4   38.38    3.70
  -4   8   4   31.36    3.80
  -4   8  -4   35.31    2.56
   4  -8  -4   36.75    8.74
   4  -8   5   35.05    3.69
  -4   8   5   30.23    3.77
  -4   8  -5   28.10    2.64
   4  -8  -5   28.73    8.31
   4  -8   6  474.36   11.19
  -4   8   6  499.72   11.99
  -4   8  -6  502.99   10.90
   4  -8  -6  497.09   12.33
  -4   8   7   26.60    4.38
   4  -8   7   17.12    3.73
   4  -8  -7   12.03    6.01
  -4   8   8    9.79    3.52
  -4   8   8   12.80    2.68
  -4   8   9   41.82    4.79
  -5   7   0  867.76   17.89
   5  -7   0  889.09   18.20
   5  -7   1  175.19    5.50
  -5   7   1  187.36    5.95
   5  -7  -1  180.30    5.44
  -5   7  -1  174.73    5.01
   5  -7   2  249.62    6.64
  -5   7   2  242.39    6.61
   5  -7  -2  242.00    6.84
  -5   7  -2  238.11    6.70
  -5   7   3   52.49    4.12
   5  -7   3   61.17    4.09
  -5   7  -3   59.16    3.62
   5  -7  -3   58.77    6.26
   5  -7   4  164.78    5.05
  -5   7   4  165.46    5.17
   5  -7  -4  163.18    6.20
  -5   7  -4  170.92    5.79
  -5   7   5  396.93    9.99
   5  -7   5  392.68    8.89
   5  -7  -5  383.58    9.67
  -5   7  -5  381.28    8.55
  -5   7   6  101.41    4.60
   5  -7   6  111.77    4.29
   5  -7  -6  109.23    5.82
  -5   7  -6  100.30    3.93
  -5   7   7  271.92    7.93
   5  -7   7  270.90    6.88
  -5   7   7  254.99    7.00
  -5   7  -7  252.67    6.47
  -5   7   8    3.45    2.65
  -5   7   8    8.46    2.89
  -5   7   9   73.83    5.19
   6  -6   0  696.07   15.38
  -6   6   0  667.29   14.38
   6  -6   1   41.59    2.61
  -6   6   1   40.97    3.99
  -6   6  -1   42.16    3.82
   6  -6  -1   51.50    8.72
  -6   6   2  223.89    6.90
   6  -6   2  220.59    5.46
  -6   6  -2  210.29    5.62
   6  -6  -2  212.20    5.98
  -6   6   3  109.97    4.38
   6  -6   3  109.69    3.41
   6  -6  -3  120.46    8.40
  -6   6  -3  100.87    3.01
  -6   6  -3  106.45    4.51
  -6   6   4    5.35    3.09
   6  -6   4    0.21    1.03
  -6   6  -4    1.39    2.35
  -6   6  -4    3.81    1.40
   6  -6  -4    4.65    3.65
  -6   6   5  164.89    6.04
  -6   6   5  183.94    5.91
   6  -6   5  166.15    4.47
  -6   6  -5  169.06    5.42
  -6   6  -5  156.02    3.88
   6  -6   6    1.70    0.84
  -6   6   6    0.65    2.75
  -6   6   6    5.73    3.09
  -6   6  -6    3.22    2.28
  -6   6   7  109.54    5.33
  -6   6   7  115.20    5.78
  -6   6  -7  105.59    4.53
  -6   6   8    2.57    2.77
  -6   6  -8   -0.01    1.30
  -6   6   9   37.55    5.00
   7  -5   0  656.15   13.40
  -7   5   0  616.15   13.20
  -7   5   1  196.22    5.67
   7  -5   1  190.63    4.73
  -7   5  -1  196.62    5.72
  -7   5   2  104.89    4.17
   7  -5   2  115.36    3.14
  -7   5   2  111.47    4.69
  -7   5  -2  107.56    4.50
   7  -5   3   54.29    2.67
  -7   5   3   63.85    4.78
  -7   5   3   58.59    3.56
  -7   5  -3   50.30    2.15
  -7   5  -3   62.33    4.36
  -7   5   4  151.96    5.91
   7  -5   4  146.07    3.58
  -7   5   4  146.22    4.73
  -7   5  -4  140.37    3.32
  -7   5  -4  155.73    5.69
  -7   5   5  291.26    8.71
  -7   5   5  287.82    7.53
  -7   5  -5  301.53    7.94
  -7   5   6  181.59    5.18
  -7   5   6  183.20    6.39
  -7   5  -6  180.69    5.80
  -7   5   7  153.10    6.64
  -7   5   7  158.72    4.85
  -7   5  -7  156.32    6.31
  -7   5   8    3.04    3.05
  -7   5  -8    9.84    2.92
  -7   5   9   52.19    5.89
  -8   4   0  388.73    9.49
  -8   4   0  405.65    9.01
  -8   4   1  213.86    6.10
  -8   4   1  221.27    6.72
  -8   4  -1  223.29    6.83
  -8   4  -1  224.17    5.92
  -8   4   2   41.70    4.07
  -8   4   2   39.25    3.34
  -8   4  -2   34.21    4.44
  -8   4  -2   29.52    1.67
  -8   4  -2   33.86    1.86
  -8   4   3  113.14    4.57
  -8   4   3  105.91    4.99
  -8   4  -3  118.45    5.55
  -8   4  -3  101.76    2.64
  -8   4   4   42.21    3.66
  -8   4   4   37.56    4.34
  -8   4  -4   36.69    4.14
  -8   4   5   35.22    4.72
  -8   4   5   25.26    2.78
  -8   4  -5   28.04    4.49
  -8   4   6  507.38   13.05
  -8   4   6  494.32   10.59
  -8   4  -6  484.73   12.03
  -8   4   7   21.31    4.29
  -8   4  -7   16.09    3.43
  -8   4   8   11.26    5.00
  -8   4  -8    3.57    2.69
  -8   4   9   39.71    6.59
  -9   3   0 2142.09   41.89
  -9   3   0 2136.48   42.19
  -9   3   1  488.37   12.12
  -9   3   1  480.10   10.96
  -9   3  -1  475.34   10.65
  -9   3  -1  487.12   11.78
  -9   3   2  552.30   12.77
  -9   3   2  569.85   13.35
  -9   3  -2  543.92   12.80
  -9   3  -2  543.20   11.26
  -9   3   3  810.43   17.10
  -9   3   3  783.53   16.98
  -9   3  -3  782.71   15.42
  -9   3  -3  786.92   17.32
  -9   3   4  384.35    9.11
  -9   3   4  376.27    9.96
  -9   3  -4  390.60   11.30
  -9   3   5  724.97   16.52
  -9   3   5  714.97   15.06
  -9   3  -5  722.39   16.77
  -9   3   6  649.37   13.79
  -9   3   6  668.34   16.39
  -9   3  -6  651.21   15.14
  -9   3   7  366.14   11.03
  -9   3  -7  349.34    9.50
  -9   3   8  128.49    7.13
  -9   3  -8  128.38    6.57
 -10   2   0  697.40   15.24
 -10   2   0  701.65   16.19
 -10   2   1  371.76    9.32
 -10   2   1  372.67   10.01
 -10   2  -1  388.34    9.10
 -10   2  -1  371.86   11.08
 -10   2   2  223.39    7.27
 -10   2   2  230.25    8.49
 -10   2  -2  226.21    8.67
 -10   2  -2  224.78    5.74
 -10   2   3  200.22    8.18
 -10   2   3  195.94    6.89
 -10   2  -3  190.48    7.47
 -10   2   4  281.91    9.68
 -10   2   4  269.44    7.75
 -10   2  -4  289.59   10.02
 -10   2   5  304.69   10.76
 -10   2   5  302.18    8.12
 -10   2  -5  299.88    9.60
 -10   2   6  314.51   10.93
 -10   2  -6  303.23    9.74
 -10   2   7  206.32    8.81
 -10   2  -7  208.32    8.14
 -10   2   8   34.43    6.95
 -10   2  -8   29.23    4.28
   1  12   0    7.56    4.68
  -1 -12   0    3.22    3.30
 -11   1   0  132.35    5.85
 -11   1   0  142.56    7.08
 -11   1   1   40.20    4.03
   1  12   1   57.13    6.38
 -11   1   1   36.14    5.24
  -1 -12   1   56.83    5.87
 -11   1  -1   39.08    4.04
  -1 -12  -1   54.51    5.39
 -11   1  -1   35.90    4.39
   1  12  -1   55.28    5.42
  -1 -12   2   17.93    4.72
 -11   1   2   11.91    3.51
 -11   1   2   18.66    4.01
   1  12   2   15.67    4.92
 -11   1  -2   31.88    5.94
  -1 -12  -2   19.16    5.25
   1  12  -2   12.00    4.01
  -1 -12   3   46.84    7.23
 -11   1   3    8.39    3.30
 -11   1   3   12.76    4.86
   1  12   3   38.23    5.04
 -11   1  -3    5.02    3.35
   1  12  -3   31.60    3.86
  -1 -12  -3   40.69    4.98
 -11   1   4   35.04    5.87
 -11   1   4   34.73    4.38
 -11   1  -4   33.90    5.30
 -11   1   5   52.99    5.97
 -11   1  -5   36.92    4.78
 -11   1   6   54.95    7.32
 -11   1  -6   41.14    6.02
   0  12   0  126.62    6.36
   0 -12   0  126.41    8.38
 -12   0   0  138.16    7.08
 -12   0   0  109.38    5.82
   0  12   1  227.05    8.10
 -12   0   1  215.05    7.35
 -12   0   1  223.00    8.08
   0 -12   1  235.62    9.10
   0  12  -1  215.66    7.60
   0 -12  -1  239.33    9.05
 -12   0  -1  212.15    8.36
 -12   0   2  171.85    7.97
 -12   0   2  149.53    7.10
   0 -12   2  155.36    7.66
   0  12   2  142.92    7.19
   0 -12  -2  149.83    7.65
   0  12  -2  148.05    6.07
 -12   0  -2  166.38    7.34
 -12   0   3  125.84    7.12
   0  12   3  118.46    6.46
 -12   0   3  106.32    5.05
   0 -12   3  115.66    7.92
   0  12  -3  104.42    5.12
   0 -12  -3  119.41    6.94
 -12   0  -3  110.48    7.98
 -12   0   4  167.02    8.15
   0 -12   4  171.23    7.90
   0  12   4  175.24    8.61
 -12   0  -4  179.22    8.23
   0 -12  -4  190.32    8.07
   1 -12   0   98.96    7.71
  -1  12   0   97.94    6.56
  -1  12   1   64.38    6.06
   1 -12   1   64.65    6.04
   1 -12  -1   65.61    6.58
  -1  12  -1   72.37    5.38
   1 -12   2   13.36    4.70
  -1  12   2   18.30    4.85
  -1  12  -2   23.88    3.90
   1 -12  -2   20.18    3.67
   1 -12   3   17.11    4.97
  -1  12   3   19.96    4.40
   1 -12  -3   21.61    5.16
  -1  12  -3   26.53    3.98
  -1  12   4   45.46    5.67
   1 -12   4   47.01    6.23
   1 -12  -4   27.62    4.67
  -1  12  -4   38.88    4.23
   1 -12   5   50.72    6.79
  -1  12   5   60.70    5.39
   1 -12  -5   50.08    6.45
   2 -11   0    1.99    2.86
  -2  11   0   -0.49    2.99
  -2  11   1   91.04    5.74
   2 -11   1   99.25    7.39
  -2  11  -1   88.43    5.13
   2 -11  -1   96.83    6.43
  -2  11   2   62.62    5.60
   2 -11   2   81.81    6.18
   2 -11  -2   67.85    6.19
  -2  11  -2   72.73    4.96
  -2  11   3   70.99    6.07
   2 -11   3   67.72    5.60
   2 -11  -3   67.57    6.24
  -2  11  -3   69.67    4.36
  -2  11   4   74.26    6.19
   2 -11   4   67.04    6.59
  -2  11  -4   64.48    4.44
   2 -11  -4   62.84    5.01
  -2  11   5    2.29    3.57
   2 -11   5   17.20    4.52
  -2  11  -5    1.66    1.71
   2 -11  -5   17.91    5.15
   2 -11   6   25.76    6.25
  -2  11   6   27.35    4.24
   2 -11  -6   23.84    7.39
   2 -11   7    8.98    3.58
  -2  11   7   20.02    4.99
   2 -11  -7   10.53    4.58
   3 -10   0    9.92    4.05
  -3  10   0    8.86    4.12
  -3  10   1  503.87   12.11
   3 -10   1  527.77   13.09
   3 -10  -1  512.00   12.41
  -3  10  -1  503.21   11.76
   3 -10   2  353.09    9.41
  -3  10   2  350.11    9.26
   3 -10  -2  353.71   10.02
  -3  10  -2  362.71    8.85
  -3  10   3  254.95    7.78
   3 -10   3  270.52    8.77
   3 -10  -3  252.89    7.78
  -3  10  -3  263.78    7.15
  -3  10   4  371.44    9.97
   3 -10   4  372.91   10.26
  -3  10  -4  375.70    9.15
   3 -10  -4  380.14   10.28
  -3  10   5   88.03    5.51
   3 -10   5   83.01    5.53
  -3  10  -5   90.87    4.40
   3 -10  -5   93.55    5.23
   3 -10   6  145.81    6.70
  -3  10   6  135.46    6.55
   3 -10  -6  125.93    8.88
   3 -10   7  138.16    6.09
  -3  10   7  126.52    6.06
   3 -10  -7  129.35    5.90
   3 -10   8  301.36    8.89
  -3  10   8  299.34    8.46
   3 -10  -8  273.93    8.53
   4  -9   0  505.72   11.88
  -4   9   0  499.43   11.42
  -4   9   1   87.94    5.22
   4  -9   1   95.71    5.52
  -4   9  -1   81.31    4.59
   4  -9  -1   94.12    5.16
  -4   9   2   99.51    5.32
   4  -9   2  105.94    5.68
   4  -9  -2  107.72    5.99
  -4   9  -2   93.41    4.38
  -4   9   3  118.15    5.41
  -4   9  -3  128.59    4.98
   4  -9  -3  110.30    5.31
   4  -9   4   72.27    4.88
  -4   9   4   67.93    4.92
  -4   9  -4   69.24    4.20
   4  -9  -4   71.54    4.94
  -4   9   5  175.37    6.38
   4  -9   5  195.92    6.60
   4  -9  -5  188.16    6.79
  -4   9  -5  188.88    5.93
   4  -9   6  127.33    5.22
  -4   9   6  125.35    5.40
  -4   9  -6  124.16    4.71
   4  -9  -6  130.78    5.56
   4  -9   7   78.01    4.79
  -4   9   7   65.08    5.02
   4  -9  -7   78.12    7.81
  -4   9   8   18.89    3.75
   4  -9  -8   14.89    4.87
  -4   9   9   69.50    4.76
  -4   9   9   72.54    4.58
  -5   8   0   18.10    3.36
   5  -8   0   15.49    4.29
   5  -8   1   99.22    4.64
  -5   8   1  104.62    4.67
   5  -8  -1  108.98    4.75
  -5   8  -1  104.04    5.07
  -5   8   2   19.24    3.73
   5  -8   2   16.17    3.49
   5  -8  -2   24.29    4.04
  -5   8  -2   25.18    3.57
   5  -8   3   32.44    2.86
  -5   8   3   34.86    4.06
   5  -8  -3   38.43    8.92
  -5   8  -3   38.38    3.47
  -5   8   4    9.24    2.86
   5  -8   4   11.86    3.37
  -5   8  -4   14.80    2.81
   5  -8  -4   10.18    2.97
  -5   8   5    3.37    2.35
   5  -8   5   -1.02    1.80
  -5   8  -5   -2.64    1.64
   5  -8  -5    0.94    1.83
   5  -8   6  170.10    5.45
  -5   8   6  182.15    6.92
   5  -8  -6  184.19    6.66
  -5   8  -6  165.70    5.14
  -5   8   7   20.00    3.37
   5  -8   7   14.87    3.03
   5  -8  -7   21.78    4.15
  -5   8   8   15.59    3.21
  -5   8   8   19.02    4.27
  -5   8   9    6.44    2.86
  -6   7   0   23.83    3.67
   6  -7   0   21.39    3.10
   6  -7   1  411.68    9.39
  -6   7   1  384.01    8.83
   6  -7  -1  405.45    9.88
  -6   7  -1  403.03    9.85
  -6   7   2 1602.51   31.86
   6  -7   2 1533.91   30.24
  -6   7  -2 1581.21   31.34
   6  -7  -2 1514.21   30.35
  -6   7   3  657.50   14.10
   6  -7   3  637.06   13.42
   6  -7  -3  633.90   13.88
  -6   7  -3  642.40   13.90
  -6   7   4  557.06   12.34
   6  -7   4  574.85   12.02
   6  -7  -4  553.53   13.72
  -6   7  -4  588.74   13.21
  -6   7   5  180.60    5.75
   6  -7   5  180.25    5.12
   6  -7  -5  188.86    6.70
  -6   7  -5  172.01    5.08
  -6   7   6    5.11    3.03
  -6   7   6    3.59    2.10
  -6   7  -6    9.85    3.12
  -6   7   7  396.03    9.35
  -6   7   7  390.03   10.46
  -6   7  -7  404.28    9.60
  -6   7   8  656.03   15.19
  -6   7   8  674.96   14.66
  -6   7   9  117.57    7.40
   7  -6   0    7.90    2.62
  -7   6   0   14.62    2.91
  -7   6   1  825.17   17.20
   7  -6   1  784.01   16.49
   7  -6  -1  790.02   16.91
  -7   6  -1  778.69   16.31
   7  -6   2  458.41   10.72
  -7   6   2  469.62   11.02
   7  -6  -2  463.53   12.14
  -7   6  -2  445.00    9.97
  -7   6   3  366.21    8.66
   7  -6   3  356.65    7.98
   7  -6  -3  368.41    9.41
  -7   6  -3  377.96    9.19
  -7   6   4  517.56   12.15
   7  -6   4  522.36   10.83
  -7   6   4  535.61   12.37
  -7   6  -4  527.83   11.85
  -7   6  -4  489.05   10.01
  -7   6   5   82.64    4.60
   7  -6   5   78.41    2.62
  -7   6   5   86.53    5.64
  -7   6  -5   89.61    4.56
  -7   6   6  209.56    6.98
  -7   6   6  192.47    6.80
  -7   6  -6  181.10    6.67
  -7   6   7  144.81    6.24
  -7   6   7  152.82    5.77
  -7   6  -7  141.92    5.42
  -7   6   8  284.73    9.09
  -7   6  -8  275.85    7.53
  -7   6   9   72.47    5.15
  -8   5   0  721.63   15.31
  -8   5   0  715.94   14.67
  -8   5   1 1224.69   24.77
  -8   5   1 1233.37   24.85
  -8   5  -1 1233.38   24.78
  -8   5  -1 1191.42   23.52
  -8   5   2 1979.89   39.04
  -8   5   2 1960.07   38.58
  -8   5  -2 1924.35   38.16
  -8   5  -2 1926.08   37.24
  -8   5  -2 1842.43   35.62
  -8   5   3 1140.19   23.53
  -8   5   3 1145.71   23.44
  -8   5  -3 1138.90   22.14
  -8   5  -3 1172.85   24.20
  -8   5  -3 1107.98   21.62
  -8   5   4 1169.29   24.14
  -8   5   4 1105.22   22.33
  -8   5  -4 1125.96   23.32
  -8   5  -4 1070.97   20.62
  -8   5   5  751.65   16.88
  -8   5   5  769.69   16.05
  -8   5  -5  795.93   17.19
  -8   5   6  311.89    7.81
  -8   5   6  331.50    9.84
  -8   5  -6  297.61    7.94
  -8   5   7  807.43   18.05
  -8   5  -7  823.41   17.57
  -8   5   8  628.35   15.77
  -8   5  -8  650.96   14.94
  -8   5   9  314.86   10.72
  -9   4   0 1066.78   21.89
  -9   4   0 1052.61   21.22
  -9   4   1  760.99   16.27
  -9   4   1  758.03   15.94
  -9   4  -1  766.50   16.52
  -9   4  -1  772.65   16.01
  -9   4   2  163.46    5.94
  -9   4   2  154.02    5.73
  -9   4  -2  150.33    4.30
  -9   4  -2  153.86    6.56
  -9   4   3  493.78   11.30
  -9   4   3  478.04   11.55
  -9   4  -3  471.51    9.54
  -9   4  -3  493.54   11.84
  -9   4   4  351.91    8.72
  -9   4   4  375.87   10.63
  -9   4  -4  359.50    9.68
  -9   4   5  342.30   10.41
  -9   4   5  331.67    8.26
  -9   4  -5  341.19    9.89
  -9   4   6  888.43   19.42
  -9   4   6  910.37   18.72
  -9   4  -6  923.44   20.19
  -9   4   7   93.79    6.35
  -9   4  -7   81.38    5.13
  -9   4   8  136.21    7.43
  -9   4  -8  128.80    5.99
  -9   4   9  186.44    7.80
  -9   4  -9  187.92    7.22
 -10   3   0    9.45    4.71
 -10   3   0    3.59    1.71
 -10   3   1  136.98    6.06
 -10   3   1  143.11    5.54
 -10   3  -1  148.64    5.00
 -10   3  -1  146.06    6.69
 -10   3   2  272.02    7.61
 -10   3   2  273.90    8.30
 -10   3  -2  271.63    6.29
 -10   3  -2  272.87    8.80
 -10   3   3  192.48    7.69
 -10   3   3  187.29    6.84
 -10   3  -3  177.27    4.26
 -10   3  -3  183.45    7.86
 -10   3   4  135.20    5.42
 -10   3   4  143.50    7.28
 -10   3  -4  125.22    6.07
 -10   3   5   26.12    3.16
 -10   3   5   24.75    5.04
 -10   3  -5   28.53    4.86
 -10   3   6    9.63    4.05
 -10   3  -6   10.91    4.39
 -10   3   7   77.12    6.16
 -10   3  -7   70.27    5.92
 -10   3   8  251.46    9.99
 -10   3  -8  246.87    8.38
 -11   2   0   91.13    6.25
 -11   2   0   87.43    4.88
 -11   2   1  283.97    8.84
 -11   2   1  244.50    8.36
 -11   2  -1  261.74    9.63
 -11   2  -1  264.73    7.46
 -11   2   2  401.50   11.65
 -11   2   2  394.52   10.67
 -11   2  -2  407.87   12.47
 -11   2  -2  406.05    9.23
 -11   2   3  278.46    8.58
 -11   2   3  288.75    9.87
 -11   2  -3  296.54   10.40
 -11   2   4  267.42    9.10
 -11   2   4  269.82    8.04
 -11   2  -4  272.52    9.85
 -11   2   5  153.54    7.10
 -11   2  -5  166.41    7.37
 -11   2   6   66.69    6.73
 -11   2  -6   70.85    6.94
 -11   2   7  140.83    7.29
 -11   2  -7  135.00    7.22
 -12   1   0  266.09    8.16
 -12   1   0  263.24    8.94
 -12   1   1  695.68   15.89
 -12   1   1  700.32   16.35
 -12   1  -1  719.25   17.42
 -12   1  -1  727.79   16.08
 -12   1   2  800.82   17.88
 -12   1   2  799.48   17.99
 -12   1  -2  788.50   18.14
 -12   1   3  491.86   12.22
 -12   1   3  510.33   13.33
 -12   1  -3  552.41   15.33
 -12   1   4  618.67   15.22
 -12   1   4  616.09   14.41
 -12   1  -4  623.56   15.01
 -12   1   5  381.51   12.22
 -12   1  -5  391.49   12.59
   0  13   0    5.65    2.85
 -13   0   0    8.59    3.04
   0 -13   0   12.40    4.77
 -13   0   1   50.18    4.55
   0 -13   1   66.13    5.82
 -13   0   1   65.80    6.82
   0  13   1   58.09    4.69
   0 -13  -1   61.35    5.72
 -13   0  -1   64.33    7.28
   0  13  -1   57.12    5.59
  -1  13   0   28.90    4.19
   1 -13   0   38.97    5.74
  -1  13   1   11.45    3.28
   1 -13   1    5.83    3.42
  -1  13  -1    3.22    2.98
   1 -13  -1   -5.62    3.33
  -1  13   2    4.11    3.55
   1 -13   2   -0.55    3.26
  -1  13  -2    1.71    2.67
   1 -13  -2    3.74    3.24
  -1  13   3    0.03    2.78
   1 -13   3   11.02    3.10
   1 -13  -3    9.42    4.14
  -1  13  -3    3.81    3.13
   2 -12   0   63.35    6.69
  -2  12   0   54.57    4.47
  -2  12   1  616.22   15.17
   2 -12   1  613.64   14.88
  -2  12  -1  582.18   13.87
   2 -12  -1  625.54   15.41
   2 -12   2  504.59   13.30
  -2  12   2  496.39   12.42
  -2  12  -2  480.70   11.37
   2 -12  -2  504.90   13.45
   2 -12   3  324.10   10.76
  -2  12   3  333.24   10.29
  -2  12  -3  332.96    8.89
   2 -12  -3  353.40   10.82
  -2  12   4  477.94   12.40
   2 -12   4  503.89   12.98
   2 -12  -4  484.69   13.80
  -2  12  -4  502.75   11.69
  -2  12   5  158.36    6.82
   2 -12   5  194.04    8.05
   2 -12  -5  158.38    6.51
  -3  11   0    2.86    4.38
   3 -11   0    6.66    4.27
   3 -11   1  124.11    6.60
  -3  11   1  133.64    6.25
  -3  11  -1  137.42    6.27
   3 -11  -1  141.38    6.94
  -3  11   2  188.10    7.16
   3 -11   2  208.02    8.46
  -3  11  -2  205.29    7.49
   3 -11  -2  195.02    8.23
  -3  11   3  154.35    6.76
   3 -11   3  164.60    6.99
  -3  11  -3  160.46    6.10
   3 -11  -3  176.38    8.19
  -3  11   4  122.90    7.11
   3 -11   4  111.99    6.26
  -3  11  -4  123.25    6.08
   3 -11  -4  124.49    6.71
   3 -11   5   16.50    4.50
  -3  11   5   26.56    5.12
  -3  11  -5   22.40    3.12
   3 -11  -5   10.25    3.38
  -3  11   6   15.55    4.15
   3 -11   6   11.87    4.49
   3 -11  -6   20.66    4.85
  -3  11   7   45.56    5.01
   3 -11   7   27.61    4.16
   3 -11  -7   26.64   12.97
   4 -10   0    1.70    2.80
  -4  10   0    9.22    4.56
  -4  10   1  134.40    5.60
   4 -10   1  141.38    6.18
  -4  10  -1  143.02    5.72
   4 -10  -1  139.04    6.55
  -4  10   2  291.96    8.69
   4 -10   2  279.92    8.30
  -4  10  -2  296.85    8.48
   4 -10  -2  305.71    9.49
   4 -10   3  151.29    6.07
  -4  10   3  160.20    6.16
   4 -10  -3  166.30    7.21
  -4  10  -3  164.89    5.95
   4 -10   4  136.54    5.80
  -4  10   4  131.07    6.07
  -4  10  -4  128.20    5.29
   4 -10  -4  141.60    6.24
  -4  10   5   60.80    4.38
   4 -10   5   78.20    6.06
   4 -10  -5   72.59   11.53
  -4  10  -5   62.21    4.29
   4 -10   6    7.36    3.23
  -4  10   6   10.76    5.31
  -4  10  -6    6.14    2.25
   4 -10  -6   10.03    4.06
  -4  10   7   75.86    5.46
   4 -10   7   62.41    4.86
   4 -10  -7   63.20   13.71
  -4  10   8  199.21    7.28
   4 -10  -8  188.28    7.31
  -5   9   0 1077.19   22.01
   5  -9   0 1049.35   21.68
   5  -9   1  726.22   15.63
  -5   9   1  780.32   16.83
  -5   9  -1  751.25   15.98
   5  -9  -1  763.83   16.54
  -5   9   2  152.32    5.93
   5  -9   2  155.64    5.79
   5  -9  -2  165.85    6.08
  -5   9  -2  153.40    5.62
  -5   9   3  479.84   11.47
   5  -9   3  489.67   11.56
  -5   9  -3  491.14   11.43
   5  -9  -3  484.11   11.83
  -5   9   4  363.39    9.47
   5  -9   4  344.69    8.56
  -5   9  -4  376.08    9.59
   5  -9  -4  359.06    9.81
  -5   9   5  346.75   10.17
   5  -9   5  334.95    8.79
  -5   9  -5  347.80    9.18
   5  -9  -5  335.38    9.73
   5  -9   6  912.59   19.41
  -5   9   6  895.20   19.29
   5  -9  -6  925.37   20.16
  -5   9  -6  881.75   18.32
  -5   9   7   97.65    5.72
   5  -9   7   90.14    4.87
   5  -9  -7   95.48   10.65
  -5   9   8  138.97    6.64
  -5   9   8  131.78    5.48
  -5   9   9  183.97    6.97
   6  -8   0  246.50    6.76
  -6   8   0  263.17    7.48
  -6   8   1  668.70   14.53
   6  -8   1  667.76   14.57
   6  -8  -1  659.43   14.64
  -6   8  -1  652.47   14.07
  -6   8   2 1090.14   22.52
   6  -8   2 1089.54   22.05
  -6   8  -2 1087.34   22.22
   6  -8  -2 1050.49   22.64
   6  -8   3  667.13   14.25
  -6   8   3  653.37   14.63
  -6   8  -3  670.34   14.52
   6  -8  -3  654.63   15.30
   6  -8   4  668.47   14.33
  -6   8   4  655.27   14.47
   6  -8  -4  647.31   14.60
  -6   8  -4  677.85   14.73
   6  -8   5  411.93    9.42
  -6   8   5  408.63   10.00
   6  -8  -5  405.40   10.05
  -6   8  -5  426.01   10.06
   6  -8   6  165.01    4.88
  -6   8   6  163.79    5.74
   6  -8  -6  158.80    6.63
  -6   8  -6  163.28    5.45
  -6   8   7  460.06   11.05
  -6   8   7  452.73   11.62
  -6   8  -7  453.85   10.46
  -6   8   8  386.80   10.65
  -6   8   8  395.18    9.78
  -6   8   9  176.40    8.19
   7  -7   0  410.70   10.22
  -7   7   0  429.89   10.35
  -7   7   1 1986.28   39.44
   7  -7   1 1994.00   39.17
  -7   7  -1 1926.10   38.33
   7  -7  -1 1978.87   39.69
   7  -7   2 1164.72   23.33
  -7   7   2 1212.05   24.62
   7  -7  -2 1247.62   25.91
  -7   7  -2 1214.68   24.89
   7  -7   3 1050.58   20.92
  -7   7   3 1058.39   21.72
  -7   7  -3 1041.96   21.47
   7  -7  -3 1059.97   22.75
  -7   7   4 1365.84   27.61
   7  -7   4 1374.58   27.00
   7  -7  -4 1397.38   28.33
  -7   7  -4 1455.14   29.30
  -7   7   5  544.89   12.26
   7  -7   5  534.86   11.33
  -7   7   5  548.28   13.16
  -7   7  -5  548.48   12.29
  -7   7   6  724.94   16.26
  -7   7   6  742.04   15.90
  -7   7  -6  741.79   16.00
  -7   7   7  456.00   10.63
  -7   7   7  486.78   12.28
  -7   7  -7  482.31   11.25
  -7   7   8  679.23   16.14
  -7   7   9  291.57    9.01
  -8   6   0   11.95    3.32
   8  -6   0    7.94    2.33
   8  -6   1  602.41   12.89
  -8   6   1  603.45   13.36
   8  -6  -1  587.75   12.88
  -8   6  -1  602.59   13.36
  -8   6   2 1378.68   27.73
   8  -6   2 1402.99   28.30
  -8   6   2 1391.74   28.19
  -8   6  -2 1426.92   28.76
  -8   6   3  836.28   17.78
  -8   6   3  830.91   17.56
   8  -6   3  833.17   17.13
  -8   6  -3  816.46   17.72
  -8   6  -3  770.74   15.40
   8  -6   4  705.31   14.46
  -8   6   4  680.02   15.35
  -8   6   4  680.29   14.57
  -8   6  -4  692.21   15.24
  -8   6   5  236.13    8.00
  -8   6   5  219.92    6.25
  -8   6  -5  250.45    7.13
  -8   6   6   61.00    6.04
  -8   6   6   59.22    4.12
  -8   6  -6   57.10    4.63
  -8   6   7  377.91    9.00
  -8   6   7  376.27   10.63
  -8   6  -7  398.82   10.66
  -8   6   8  792.96   18.28
  -8   6  -8  833.13   18.19
  -8   6   9  167.10    8.58
  -9   5   0  526.50   12.35
  -9   5   0  494.68   10.87
  -9   5   1   90.34    5.02
  -9   5   1   89.39    4.35
  -9   5  -1   86.89    4.14
  -9   5  -1   91.39    5.21
  -9   5   2  102.70    5.67
  -9   5   2   97.99    5.06
  -9   5  -2   97.36    3.54
  -9   5  -2  104.31    6.21
  -9   5   3  115.78    5.14
  -9   5   3  126.93    5.58
  -9   5  -3  123.25    5.90
  -9   5  -3  119.81    3.32
  -9   5   4   66.97    3.97
  -9   5   4   76.14    6.04
  -9   5  -4   78.57    5.77
  -9   5   5  179.80    5.94
  -9   5   5  195.42    8.21
  -9   5  -5  196.01    7.36
  -9   5   6  127.88    6.28
  -9   5   6  126.76    5.51
  -9   5  -6  130.73    6.45
  -9   5   7   82.67    6.91
  -9   5  -7   63.15    5.34
  -9   5   8   14.66    4.76
  -9   5  -8    9.12    2.71
  -9   5   9   70.99    5.47
 -10   4   0  889.58   18.98
 -10   4   0  890.95   18.32
 -10   4   1  142.12    6.22
 -10   4   1  139.86    5.64
 -10   4  -1  139.70    4.74
 -10   4  -1  147.73    6.33
 -10   4   2  300.85    8.20
 -10   4   2  312.56    8.63
 -10   4  -2  296.28    6.81
 -10   4  -2  299.01    8.94
 -10   4   3  251.40    8.70
 -10   4   3  244.16    7.96
 -10   4  -3  232.26    7.81
 -10   4  -3  244.70    5.47
 -10   4   4  139.63    6.85
 -10   4   4  142.42    5.42
 -10   4  -4  132.73    6.25
 -10   4   5  385.89   10.98
 -10   4   5  400.71    9.85
 -10   4  -5  396.01   11.30
 -10   4   6  138.21    6.94
 -10   4   6  135.99    5.16
 -10   4  -6  159.23    7.80
 -10   4   7  199.01    7.92
 -10   4  -7  220.14    7.93
 -10   4   8   37.88    6.02
 -10   4  -8   43.91    5.89
 -11   3   0  610.86   14.84
 -11   3   0  606.68   14.15
 -11   3   1  663.50   15.85
 -11   3   1  634.74   14.48
 -11   3  -1  668.78   15.40
 -11   3  -1  668.95   14.46
 -11   3   2 1191.63   24.83
 -11   3   2 1177.16   24.95
 -11   3  -2 1199.24   23.92
 -11   3  -2 1176.54   25.38
 -11   3   3  719.34   16.93
 -11   3   3  669.18   15.21
 -11   3  -3  687.20   16.67
 -11   3   4  696.67   15.14
 -11   3   4  713.44   16.92
 -11   3  -4  716.27   17.25
 -11   3   5  662.51   16.37
 -11   3   5  626.37   13.70
 -11   3  -5  668.42   16.27
 -11   3   6  199.97    8.87
 -11   3  -6  204.08    8.50
 -11   3   7  638.76   15.96
 -11   3  -7  645.07   15.43
 -12   2   0   40.93    5.95
 -12   2   0   39.84    4.42
 -12   2   1    2.72    2.16
 -12   2   1    5.55    4.86
 -12   2  -1   -0.55    1.70
 -12   2  -1   14.02    5.40
 -12   2   2    2.46    2.53
 -12   2   2    0.03    2.46
 -12   2  -2    1.81    2.83
 -12   2   3    0.03    2.14
 -12   2   3   -2.24    2.77
 -12   2  -3    0.24    3.15
 -12   2   4   -0.70    1.96
 -12   2   4    6.39    3.86
 -12   2  -4    5.55    3.43
 -12   2   5    9.52    4.35
 -12   2  -5   10.52    4.73
 -13   1   0   -1.28    2.04
 -13   1   0    3.07    3.15
 -13   1   1   56.00    5.08
 -13   1   1   40.72    5.02
 -13   1  -1   60.26    6.39
 -13   1   2    3.92    3.43
 -13   1   2   11.77    3.87
 -13   1   3   34.99    4.66
 -13   1   3   33.70    4.57
 -13   1  -3   55.19    6.25
   2 -13   0  129.97    6.51
  -2  13   0  141.45    6.94
   2 -13   1   57.70    6.87
  -2  13   1   54.85    6.53
  -2  13  -1   55.99    5.47
   2 -13  -1   51.89    7.03
   2 -13   2   77.65    6.75
  -2  13   2   65.04    5.21
   2 -13  -2   65.23    6.36
  -2  13  -2   78.73    5.15
  -2  13   3   33.98    5.03
   2 -13   3   34.30    4.68
  -2  13  -3   25.72    4.43
   2 -13  -3   31.75    4.91
   2 -13   4   58.09    6.76
  -2  13   4   50.52    5.86
   2 -13  -4   55.24    5.62
  -2  13  -4   52.56    4.39
   3 -12   0  131.45    7.23
  -3  12   0  144.53    6.70
   3 -12   1  292.19    9.66
  -3  12   1  297.66    9.07
  -3  12  -1  285.68    9.35
   3 -12  -1  299.33    9.68
  -3  12   2   97.69    5.54
   3 -12   2   90.24    6.03
  -3  12  -2  101.03    5.24
   3 -12  -2  100.66    5.92
  -3  12   3  133.13    6.12
   3 -12   3  119.36    7.10
   3 -12  -3  127.97    6.82
  -3  12  -3  126.00    5.40
  -3  12   4  178.20    7.45
   3 -12   4  185.90    7.56
   3 -12  -4  188.30    7.11
  -3  12  -4  176.35    6.61
  -3  12   5   96.36    6.04
   3 -12   5   86.05    6.38
   3 -12  -5   89.25    6.47
  -3  12   6  200.57    8.30
   3 -12   6  187.34    7.34
   3 -12  -6  191.41    7.74
   4 -11   0  831.38   18.24
  -4  11   0  823.92   18.01
   4 -11   1  302.25    9.19
  -4  11   1  316.73   10.18
  -4  11  -1  320.75    9.39
   4 -11  -1  309.03    9.60
  -4  11   2  294.65    8.53
   4 -11   2  284.82    8.82
  -4  11  -2  297.14    8.38
   4 -11  -2  287.49    8.83
  -4  11   3  210.99    7.42
   4 -11   3  218.19    7.53
  -4  11  -3  210.08    6.88
   4 -11  -3  211.52    8.01
  -4  11   4  247.04    7.76
   4 -11   4  269.50    8.53
  -4  11  -4  256.69    7.61
   4 -11  -4  259.54    9.37
  -4  11   5  371.63   10.44
   4 -11   5  380.99   10.33
  -4  11  -5  401.81    9.83
   4 -11  -5  394.67   11.31
   4 -11   6  245.62    7.77
  -4  11   6  238.46    7.62
   4 -11  -6  241.37   15.74
   4 -11   7  266.02    8.52
  -4  11   7  286.48    9.66
   4 -11  -7  292.00    9.24
  -5  10   0 1078.47   22.69
   5 -10   0 1066.69   22.83
   5 -10   1  896.79   19.48
  -5  10   1  872.65   18.62
  -5  10  -1  928.97   19.77
   5 -10  -1  911.35   19.85
  -5  10   2  239.72    8.13
   5 -10   2  256.46    7.58
  -5  10  -2  258.63    7.98
   5 -10  -2  242.23    8.17
   5 -10   3  703.74   15.54
  -5  10   3  703.90   15.99
   5 -10  -3  705.72   15.77
  -5  10  -3  703.17   15.20
   5 -10   4  466.45   11.60
  -5  10   4  451.42   12.06
  -5  10  -4  455.42   11.00
   5 -10  -4  476.89   13.46
   5 -10   5  374.89    9.60
  -5  10   5  381.40   10.01
   5 -10  -5  418.29   14.00
  -5  10  -5  386.16    9.74
  -5  10   6 1059.39   22.83
   5 -10   6 1062.60   22.27
  -5  10  -6 1087.09   22.33
   5 -10  -6 1094.27   23.53
   5 -10   7  104.93    5.01
  -5  10   7  127.53    6.21
   5 -10  -7  116.02    6.14
  -5  10   8  236.27    7.55
   5 -10  -8  266.12    8.38
   6  -9   0 2057.53   40.94
  -6   9   0 2056.72   40.69
  -6   9   1  480.86   11.45
   6  -9   1  472.72   11.01
   6  -9  -1  457.60   10.64
  -6   9  -1  479.05   11.24
  -6   9   2  557.56   12.81
   6  -9   2  541.36   12.24
  -6   9  -2  542.41   12.34
   6  -9  -2  558.65   13.11
   6  -9   3  813.62   17.38
  -6   9   3  786.63   17.03
  -6   9  -3  802.00   17.77
   6  -9  -3  773.23   20.39
   6  -9   4  384.53    9.35
  -6   9   4  389.66    9.94
   6  -9  -4  375.85   13.20
  -6   9  -4  391.70    9.31
   6  -9   5  735.35   15.99
  -6   9   5  751.84   16.64
  -6   9  -5  723.32   15.79
   6  -9  -5  724.23   18.40
   6  -9   6  684.02   14.98
  -6   9   6  660.88   14.98
   6  -9  -6  690.83   16.41
  -6   9  -6  677.36   14.69
  -6   9   7  360.23    9.29
   6  -9  -7  364.09   10.33
  -6   9   8  130.03    6.76
  -6   9   8  129.20    5.22
  -7   8   0  771.55   16.63
   7  -8   0  762.96   16.04
  -7   8   1  749.34   16.09
   7  -8   1  753.05   15.68
  -7   8  -1  790.62   16.74
   7  -8  -1  757.56   17.30
  -7   8   2  337.31    8.61
   7  -8   2  342.92    8.22
  -7   8  -2  340.60    9.10
   7  -8  -2  332.85    9.59
   7  -8   3  367.36    8.66
  -7   8   3  353.14    9.43
   7  -8  -3  351.64   12.12
  -7   8  -3  347.46    9.14
  -7   8   4  459.22   10.79
   7  -8   4  459.27   10.32
  -7   8  -4  469.12   10.87
   7  -8  -4  456.29   12.04
   7  -8   5  401.40    9.15
  -7   8   5  417.94   10.82
  -7   8  -5  391.69    9.38
   7  -8  -5  400.03   10.68
  -7   8   6  519.01   12.25
  -7   8   6  519.18   12.88
  -7   8  -6  509.34   11.92
  -7   8   7  247.33    8.10
  -7   8   7  248.07    7.64
  -7   8  -7  247.81    7.19
  -7   8   8  122.89    6.44
  -7   8   8  127.16    5.61
  -7   8   9  134.31    7.51
   8  -7   0    5.38    1.86
  -8   7   0    6.95    4.37
   8  -7   1  242.33    9.80
  -8   7   1  245.09    7.05
   8  -7  -1  234.56   10.99
  -8   7  -1  234.22    7.07
  -8   7   2   37.33    4.20
   8  -7   2   49.47    6.08
  -8   7  -2   40.19    3.84
   8  -7  -2   49.55   10.19
  -8   7   3    8.00    2.99
   8  -7   3   15.63    2.50
  -8   7  -3    9.43    2.96
   8  -7  -3   13.13    3.04
  -8   7   4  148.64    6.14
   8  -7   4  134.43    5.84
  -8   7   4  152.37    6.54
  -8   7  -4  146.13    6.10
  -8   7   5   15.83    5.31
  -8   7   5   19.25    3.40
  -8   7  -5   20.48    4.17
  -8   7   6   72.24    5.95
  -8   7   6   75.02    4.53
  -8   7  -6   65.84    4.36
  -8   7   7   31.96    4.89
  -8   7   7   36.69    3.47
  -8   7  -7   24.96    3.94
  -8   7   8   44.43    6.39
  -8   7  -8   35.33    4.07
  -8   7   9    1.46    3.02
  -9   6   0   90.21    4.40
  -9   6   0   91.00    4.94
  -9   6   1  701.22   15.08
  -9   6   1  681.75   14.67
  -9   6  -1  680.74   15.00
  -9   6  -1  692.55   14.44
  -9   6   2   49.60    4.52
  -9   6   2   59.23    5.07
  -9   6  -2   50.28    2.85
  -9   6  -2   42.95    4.24
  -9   6   3  163.09    5.62
  -9   6  -3  169.53    6.63
  -9   6  -3  160.96    4.07
  -9   6   4  288.64    8.29
  -9   6   4  301.23    8.04
  -9   6  -4  289.50    6.06
  -9   6  -4  316.85    9.45
  -9   6   5   72.08    4.61
  -9   6   5   73.16    6.99
  -9   6  -5   77.88    5.08
  -9   6   6  500.72   12.88
  -9   6   6  469.67   11.01
  -9   6  -6  497.01   12.78
  -9   6   7   28.60    4.61
  -9   6  -7   39.67    4.31
  -9   6   8  106.92    6.98
  -9   6  -8  112.98    5.94
 -10   5   0 1064.84   22.65
 -10   5   0 1050.90   21.50
 -10   5   1  913.39   19.49
 -10   5   1  892.38   18.57
 -10   5  -1  904.47   18.45
 -10   5  -1  906.45   19.68
 -10   5   2  253.11    8.11
 -10   5   2  263.07    7.86
 -10   5  -2  254.27    8.05
 -10   5  -2  244.08    5.91
 -10   5   3  731.24   16.48
 -10   5   3  718.55   16.08
 -10   5  -3  720.10   14.36
 -10   5  -3  723.66   16.46
 -10   5   4  461.29   11.20
 -10   5   4  451.03   11.58
 -10   5  -4  468.42   11.83
 -10   5   5  386.72   10.52
 -10   5   5  391.24    9.78
 -10   5  -5  408.56   11.10
 -10   5   6 1096.77   23.67
 -10   5   6 1059.51   21.78
 -10   5  -6 1123.28   24.56
 -10   5   7  115.66    7.83
 -10   5  -7  102.35    5.84
 -10   5   8  246.56    8.90
 -10   5  -8  245.93    8.34
 -11   4   0  194.89    8.15
 -11   4   0  188.82    6.97
 -11   4   1    1.45    2.41
 -11   4   1    3.41    3.23
 -11   4  -1    4.72    4.19
 -11   4  -1    1.17    2.39
 -11   4   2   30.38    4.14
 -11   4   2   31.78    3.80
 -11   4  -2   33.23    2.38
 -11   4  -2   27.04    4.10
 -11   4   3   10.11    3.86
 -11   4   3    9.68    4.71
 -11   4  -3    6.00    3.18
 -11   4   4    1.05    2.11
 -11   4   4    4.09    2.70
 -11   4  -4    5.94    3.20
 -11   4   5   77.78    4.55
 -11   4   5   86.96    6.71
 -11   4  -5   75.23    5.77
 -11   4   6   -0.90    3.57
 -11   4  -6    4.20    3.89
 -11   4   7   67.05    5.99
 -11   4  -7   69.12    5.97
 -12   3   0   78.27    5.16
 -12   3   0   70.62    5.79
 -12   3   1    7.74    3.22
 -12   3  -1    8.36    2.98
 -12   3  -1    5.04    1.70
 -12   3   2    8.58    4.06
 -12   3   2    6.63    2.84
 -12   3  -2   10.07    3.04
 -12   3   3   -0.77    3.07
 -12   3   3    8.72    3.94
 -12   3  -3   -0.19    3.32
 -12   3   4   11.10    2.87
 -12   3   4   11.23    3.03
 -12   3  -4   12.78    4.88
 -12   3   5    2.93    3.07
 -12   3  -5    5.51    2.89
 -12   3   6    6.22    3.40
 -12   3  -6    6.23    4.18
 -13   2   0   -0.09    1.97
 -13   2   0    5.83    4.01
 -13   2   1   47.64    5.02
 -13   2   1   41.35    3.62
 -13   2  -1   54.96    5.34
 -13   2   2    3.99    2.80
 -13   2   2    1.57    2.74
 -13   2  -2    6.41    4.67
 -13   2   3   44.16    4.95
 -13   2   3   48.00    5.89
 -13   2   4   11.41    3.90
 -13   2   4   10.84    3.38
 -13   2  -4    7.55    2.97
   3 -13   0   10.55    5.74
  -3  13   0    9.89    5.05
  -3  13   1  247.71    7.90
   3 -13   1  251.37    9.32
   3 -13  -1  239.26    8.12
  -3  13  -1  269.40    9.03
  -3  13   2  261.53    9.13
   3 -13   2  255.96    9.44
   3 -13  -2  263.78    9.88
  -3  13  -2  265.14    7.84
  -3  13   3  203.39    8.49
   3 -13   3  192.46    8.17
   3 -13  -3  217.21    8.86
  -3  13  -3  208.94    7.16
   3 -13   4  213.94    8.54
  -3  13   4  217.16    8.38
   3 -13  -4  210.79    8.14
  -3  13  -4  242.08    7.86
   4 -12   0  232.45    8.61
  -4  12   0  244.78    8.79
  -4  12   1  433.60   12.13
   4 -12   1  447.81   11.83
  -4  12  -1  432.31   11.49
   4 -12  -1  427.87   11.82
  -4  12   2  512.74   12.72
   4 -12   2  552.32   14.15
   4 -12  -2  516.69   13.17
  -4  12  -2  515.36   12.31
  -4  12   3  338.44    9.68
   4 -12   3  348.51   10.57
   4 -12  -3  351.82   10.65
  -4  12  -3  345.93    9.68
  -4  12   4  405.97   11.02
   4 -12   4  393.41   10.77
   4 -12  -4  398.95   10.55
  -4  12  -4  410.93   10.28
   4 -12   5  272.40    8.67
  -4  12   5  249.88    8.67
   4 -12  -5  277.78    9.54
  -4  12  -5  269.28    8.02
  -4  12   6  161.89    7.18
   4 -12   6  148.27    6.37
   4 -12  -6  158.06    7.22
  -5  11   0  381.95    9.94
   5 -11   0  375.56   10.27
   5 -11   1  257.25    7.78
  -5  11   1  263.23    8.56
  -5  11  -1  265.62    7.87
   5 -11  -1  263.04    8.17
  -5  11   2  261.84    8.16
   5 -11   2  256.03    8.16
   5 -11  -2  255.30    8.37
  -5  11  -2  252.27    7.29
  -5  11   3  184.41    7.47
   5 -11   3  197.99    6.86
  -5  11  -3  182.03    6.79
   5 -11  -3  183.33    7.19
   5 -11   4  224.76    7.02
  -5  11   4  232.52    8.20
  -5  11  -4  239.76    7.67
   5 -11  -4  229.84    8.11
   5 -11   5  277.39    8.35
  -5  11   5  274.90   10.15
   5 -11  -5  246.79   15.94
  -5  11  -5  257.88    7.22
  -5  11   6  166.00    6.87
   5 -11   6  163.90    6.23
   5 -11  -6  158.67    7.14
  -5  11   7  157.33    6.78
   5 -11   7  161.61    5.87
   5 -11  -7  172.03    8.15
   6 -10   0  908.07   19.82
  -6  10   0  873.88   18.84
   6 -10   1  131.69    5.46
  -6  10   1  134.33    5.61
   6 -10  -1  147.73    7.20
  -6  10  -1  142.58    6.19
  -6  10   2  298.22    8.37
   6 -10   2  305.18    8.20
  -6  10  -2  303.28    8.69
   6 -10  -2  304.18    8.77
   6 -10   3  248.18    7.26
  -6  10   3  243.26    7.96
   6 -10  -3  247.52    8.42
  -6  10  -3  255.24    7.82
   6 -10   4  157.20    5.76
  -6  10   4  146.97    6.50
   6 -10  -4  139.88   12.40
  -6  10  -4  145.33    5.93
   6 -10   5  396.60    9.93
  -6  10   5  373.42    9.83
   6 -10  -5  382.15   11.58
  -6  10  -5  385.23   10.07
   6 -10   6  133.13    5.38
  -6  10   6  152.64    6.74
  -6  10  -6  141.09    5.05
   6 -10  -6  130.24    9.60
  -6  10   7  214.74    7.28
   6 -10  -7  224.64   11.38
  -6  10   8   33.80    3.58
  -6  10   8   42.33    4.93
   7  -9   0   72.68    4.90
  -7   9   0   61.74    4.88
   7  -9   1   27.10    4.55
  -7   9   1   25.75    3.21
   7  -9  -1   19.44    3.90
  -7   9  -1   24.23    4.70
  -7   9   2    4.78    2.87
   7  -9   2    2.97    1.98
   7  -9  -2    5.52    2.24
  -7   9  -2    5.20    3.70
   7  -9   3    1.36    2.03
  -7   9   3    1.63    2.60
  -7   9  -3   -1.21    3.09
   7  -9  -3   -0.47    2.66
   7  -9   4    5.82    2.31
  -7   9   4    5.76    3.31
  -7   9  -4    4.04    2.15
   7  -9  -4    7.30    3.84
   7  -9   5   10.80    2.05
  -7   9   5   17.89    3.93
  -7   9  -5   11.64    3.44
   7  -9  -5   14.43    3.57
  -7   9   6    1.70    2.66
   7  -9  -6    3.79    2.82
  -7   9  -6   10.55    4.49
  -7   9   7    6.39    4.29
  -7   9   7    2.93    2.36
  -7   9  -7    0.25    1.79
  -7   9   8    3.81    2.22
  -7   9   8   -1.08    2.86
  -8   8   0  214.03    7.66
   8  -8   0  224.83    6.57
   8  -8   1  170.81    5.92
  -8   8   1  183.44    6.94
   8  -8  -1  177.69   11.46
  -8   8  -1  186.53    7.23
  -8   8   2  126.68    6.20
   8  -8   2  121.24    4.38
   8  -8  -2  132.28    6.11
  -8   8  -2  128.33    5.26
  -8   8   3  186.60    7.77
   8  -8   3  165.36    4.68
   8  -8  -3  174.55   11.60
  -8   8  -3  172.86    6.15
   8  -8   4  125.66    4.25
  -8   8   4  115.85    5.51
   8  -8  -4  126.31    5.75
  -8   8  -4  126.50    5.90
  -8   8   5  126.29    6.42
  -8   8   5  122.87    6.15
  -8   8  -5  121.56    6.27
  -8   8   6  137.49    6.51
  -8   8   6  141.56    5.91
  -8   8  -6  136.09    5.54
  -8   8   7   52.89    4.51
  -8   8   7   48.48    5.16
  -8   8  -7   46.40    4.17
  -8   8   8   70.55    6.07
   9  -7   0  106.47    4.08
  -9   7   0  117.10    5.31
   9  -7   1  511.61   12.32
  -9   7   1  507.20   11.81
  -9   7  -1  530.97   12.76
  -9   7   2  239.61    7.55
  -9   7   2  236.37    8.09
   9  -7   2  224.40    6.52
  -9   7  -2  244.78    7.95
   9  -7   3  230.18    9.49
  -9   7   3  223.34    6.96
  -9   7   3  227.17    7.46
  -9   7  -3  241.16    8.07
  -9   7   4  333.22    9.05
  -9   7   4  356.05   10.03
  -9   7  -4  355.46    9.59
  -9   7   5  138.39    6.07
  -9   7   5  144.99    7.11
  -9   7  -5  138.66    6.55
  -9   7   6  240.69    7.18
  -9   7   6  244.28    8.87
  -9   7  -6  232.38    7.91
  -9   7   7  101.59    4.94
  -9   7   7   90.28    6.68
  -9   7  -7  110.00    5.55
  -9   7   8  177.57    7.25
  -9   7  -8  172.15    6.75
 -10   6   0    2.43    2.02
 -10   6   0    6.34    4.22
 -10   6   1  138.27    5.29
 -10   6   1  136.92    6.15
 -10   6  -1  142.00    4.54
 -10   6  -1  140.29    6.64
 -10   6   2  292.94    8.45
 -10   6   2  281.39    8.44
 -10   6  -2  286.57    6.63
 -10   6  -2  292.57    8.34
 -10   6   3  166.18    6.58
 -10   6   3  170.49    5.99
 -10   6  -3  151.60    3.95
 -10   6  -3  164.59    6.71
 -10   6   4  145.01    5.72
 -10   6   4  128.80    6.21
 -10   6  -4  147.76    7.74
 -10   6   5   63.56    5.88
 -10   6   5   61.94    4.02
 -10   6  -5   59.43    5.57
 -10   6   6   11.66    4.53
 -10   6   6    6.36    1.69
 -10   6  -6   11.58    4.14
 -10   6   7   66.56    5.23
 -10   6  -7   76.42    5.71
 -10   6   8  198.21    8.59
 -10   6  -8  206.30    7.05
 -11   5   0   82.67    5.63
 -11   5   0   79.79    4.76
 -11   5   1    3.75    4.52
 -11   5   1    7.38    3.19
 -11   5  -1   -0.29    2.71
 -11   5  -1    5.76    2.89
 -11   5   2  314.16    9.37
 -11   5   2  312.70    9.32
 -11   5  -2  296.88    7.01
 -11   5  -2  321.76    9.97
 -11   5   3   31.60    5.07
 -11   5   3   24.38    4.47
 -11   5  -3   20.47    6.03
 -11   5   4   26.77    3.41
 -11   5   4   29.40    5.05
 -11   5   5  149.83    6.11
 -11   5   5  138.85    6.84
 -11   5  -5  143.18    7.33
 -11   5   6   78.01    8.16
 -11   5  -6   72.03    5.91
 -11   5   7  245.09    9.05
 -11   5  -7  237.05    9.01
 -12   4   0  150.08    7.34
 -12   4   0  135.14    5.89
 -12   4   1   67.69    5.38
 -12   4   1   61.67    4.61
 -12   4  -1   60.82    3.69
 -12   4  -1   65.85    5.88
 -12   4   2  254.86    9.00
 -12   4   2  239.27    8.77
 -12   4  -2  252.09    8.91
 -12   4   3   79.33    6.75
 -12   4   3   83.00    5.49
 -12   4  -3   73.19    6.89
 -12   4   4  104.65    6.10
 -12   4   4   96.43    7.10
 -12   4   5  148.26    8.59
 -12   4   5  165.07    5.92
 -12   4  -5  155.84    7.20
 -12   4   6   12.32    5.59
 -12   4  -6   12.39    5.15
 -13   3   0  451.59   11.29
 -13   3   0  452.81   13.09
 -13   3   1   67.35    5.24
 -13   3   1   71.62    5.57
 -13   3  -1   65.17    6.59
 -13   3   2   93.07    6.59
 -13   3   2   97.72    6.61
 -13   3  -2   87.81    6.89
 -13   3   3  139.60    7.56
 -13   3   3  143.54    6.99
 -13   3  -3  165.02    8.23
 -13   3   4   60.03    5.01
 -13   3   4   59.33    4.94
 -13   3  -4   60.24    5.20
   3 -14   0  319.43   10.98
  -3  14   0  297.65    9.47
   3 -14   1  154.34    7.48
  -3  14   1  143.80    7.16
  -3  14  -1  152.31    7.26
   3 -14  -1  153.27    7.87
  -3  14   2  105.61    6.72
   3 -14   2  112.27    7.63
   3 -14  -2  103.44    6.49
  -3  14  -2  104.45    5.82
  -4  13   0   11.00    3.56
   4 -13   0    4.40    3.04
   4 -13   1  142.18    7.66
  -4  13   1  138.45    7.10
   4 -13  -1  133.57    6.70
  -4  13  -1  126.56    6.37
  -4  13   2   62.03    6.91
   4 -13   2   69.83    6.56
   4 -13  -2   58.25    5.32
  -4  13  -2   61.57    4.28
  -4  13   3   32.03    4.65
   4 -13   3   39.62    5.28
   4 -13  -3   37.13    6.44
  -4  13  -3   42.42    4.82
   4 -13   4   80.01    6.79
  -4  13   4   89.87    5.97
  -4  13  -4   93.20    5.19
   4 -13  -4   86.22    6.40
  -4  13   5    4.30    3.17
   4 -13   5    3.49    2.78
   5 -12   0   57.52    5.82
  -5  12   0   46.12    5.28
   5 -12   1  104.90    6.01
  -5  12   1  110.83    6.00
   5 -12  -1  107.74    7.62
  -5  12  -1  110.16    6.11
   5 -12   2   72.83    5.34
  -5  12   2   62.35    5.34
   5 -12  -2   56.20    5.14
  -5  12  -2   56.59    4.95
  -5  12   3  100.89    5.88
   5 -12   3  103.92    6.73
   5 -12  -3  113.93    7.32
  -5  12  -3  104.56    5.77
  -5  12   4   59.52    6.51
   5 -12   4   70.66    5.78
  -5  12  -4   70.42    4.40
   5 -12  -4   61.26    6.58
  -5  12   5   38.56    5.22
   5 -12  -5   30.31    9.37
  -5  12  -5   38.53    4.51
  -5  12   6   64.29    4.86
   5 -12   6   72.01    5.87
   5 -12  -6   62.18   13.43
   6 -11   0   80.23    5.76
  -6  11   0   79.77    5.25
   6 -11   1    1.09    2.63
  -6  11   1    9.98    5.56
  -6  11  -1    7.24    3.19
   6 -11  -1   -1.78    2.99
   6 -11   2  299.11    8.90
  -6  11   2  284.10    8.77
   6 -11  -2  315.04    9.35
  -6  11  -2  300.84    8.70
  -6  11   3   24.74    5.00
   6 -11   3   27.09    4.22
  -6  11  -3   29.11    5.15
   6 -11  -3   33.83    5.38
   6 -11   4   25.02    4.34
  -6  11   4   32.83    4.37
   6 -11  -4   27.41    6.27
  -6  11  -4   29.28    3.87
  -6  11   5  145.08    6.89
   6 -11   5  136.31    6.31
   6 -11  -5  143.71    6.51
  -6  11  -5  142.28    5.72
   6 -11   6   69.69    4.87
  -6  11   6   72.61    4.88
   6 -11  -6   63.28   13.02
  -6  11  -6   65.37    3.87
  -6  11   7  235.42    7.66
   6 -11  -7  247.52    8.48
   7 -10   0    4.66    3.31
  -7  10   0   11.82    3.74
  -7  10   1  143.35    6.44
   7 -10   1  140.44    5.62
  -7  10  -1  160.24    6.68
   7 -10  -1  142.90    5.61
  -7  10   2  274.85    8.40
   7 -10   2  274.28    7.65
  -7  10  -2  292.09    8.69
   7 -10  -2  268.25    7.79
   7 -10   3  184.66    5.81
  -7  10   3  193.96    7.48
  -7  10  -3  185.64    6.25
   7 -10  -3  170.52   10.51
  -7  10   4  142.29    6.19
   7 -10   4  137.46    5.42
   7 -10  -4  129.96   11.90
  -7  10  -4  148.22    6.96
   7 -10   5   28.69    3.73
  -7  10   5   19.59    4.15
  -7  10  -5   28.24    3.71
   7 -10  -5   22.84    7.12
  -7  10   6   10.17    3.70
  -7  10  -6   10.04    3.07
   7 -10  -6   10.87    4.05
  -7  10   7   66.03    5.29
   7 -10  -7   56.46    5.27
  -7  10   8  244.07    8.90
  -7  10   8  255.64    8.39
  -8   9   0   33.39    5.53
   8  -9   0   30.40    5.62
  -8   9   1   37.68    4.54
   8  -9   1   37.37    3.74
  -8   9  -1   46.89    5.00
   8  -9  -1   42.63    6.35
  -8   9   2   20.72    4.53
   8  -9   2   18.19    2.97
  -8   9  -2   22.38    4.77
   8  -9  -2   23.81    4.22
  -8   9   3   20.35    4.42
   8  -9   3   18.61    3.51
   8  -9  -3   24.83    6.21
  -8   9  -3   17.97    3.35
  -8   9   4   32.30    4.42
   8  -9   4   36.49    3.05
   8  -9  -4   31.33    5.74
  -8   9  -4   35.10    4.06
  -8   9   5   16.41    3.60
   8  -9   5   15.77    2.57
   8  -9  -5   16.14    4.44
  -8   9  -5   18.44    4.63
  -8   9   6   31.92    4.55
  -8   9   6   29.84    5.33
  -8   9  -6   31.54    4.05
  -8   9   7    6.49    3.34
  -8   9   7   18.13    3.79
  -8   9  -7    7.60    2.87
  -8   9   8    6.69    3.01
  -8   9   8    7.25    4.14
   9  -8   0 1020.98   21.55
  -9   8   0 1037.56   21.71
   9  -8   1  149.12    6.81
  -9   8   1  173.13    7.47
   9  -8  -1  156.17    5.55
  -9   8  -1  157.50    5.91
   9  -8   2  190.59    6.81
  -9   8   2  199.01    6.38
   9  -8  -2  202.27    6.71
  -9   8  -2  199.96    7.27
  -9   8   3  241.83    7.26
   9  -8   3  244.19    7.41
  -9   8  -3  251.96    7.42
   9  -8  -3  244.95    7.38
  -9   8   4  124.41    5.04
  -9   8   4  141.81    6.57
  -9   8  -4  143.52    5.61
  -9   8   5  351.50    9.12
  -9   8   5  363.90   10.24
  -9   8  -5  353.24    9.64
  -9   8   6  232.58    7.13
  -9   8   6  239.24    8.65
  -9   8  -6  237.15    7.44
  -9   8   7  148.57    7.47
  -9   8   7  152.94    5.95
  -9   8  -7  173.05    6.50
  -9   8   8   30.00    5.35
 -10   7   0   13.83    2.64
 -10   7   1  499.04   11.38
 -10   7   1  506.02   12.17
 -10   7  -1  501.23   12.26
 -10   7  -1  525.81   11.35
 -10   7   2  358.03    9.33
 -10   7   2  356.80    9.22
 -10   7  -2  364.22    9.93
 -10   7  -2  356.87    8.43
 -10   7   3  264.86    7.75
 -10   7   3  255.95    8.46
 -10   7  -3  268.27    8.17
 -10   7  -3  258.96    6.07
 -10   7   4  379.13   10.72
 -10   7   4  375.52    9.83
 -10   7  -4  380.28   10.52
 -10   7   5   96.15    5.55
 -10   7   5   85.00    5.78
 -10   7  -5   87.63    6.07
 -10   7   6  154.55    6.60
 -10   7   6  144.02    7.25
 -10   7  -6  144.03    6.60
 -10   7   7  129.20    7.46
 -10   7  -7  130.09    6.05
 -10   7   8  294.58    9.12
 -10   7  -8  301.37    9.36
 -11   6   0  366.79    9.90
 -11   6   0  388.06    9.82
 -11   6   1  265.95    7.10
 -11   6   1  271.32    8.79
 -11   6  -1  275.40    8.75
 -11   6  -1  270.52    7.20
 -11   6   2  246.18    7.32
 -11   6   2  249.90    8.46
 -11   6  -2  244.58    6.24
 -11   6  -2  251.40    8.35
 -11   6   3  184.85    6.60
 -11   6   3  179.60    7.03
 -11   6  -3  185.06    7.52
 -11   6   4  226.30    7.77
 -11   6   4  224.04    7.41
 -11   6  -4  245.27    9.42
 -11   6   5  251.47    8.16
 -11   6   5  279.70   10.09
 -11   6  -5  264.66    8.65
 -11   6   6  157.90    6.09
 -11   6   6  149.34    7.76
 -11   6  -6  159.11    7.40
 -11   6   7  170.59    8.07
 -11   6  -7  169.87    7.13
 -12   5   0   76.27    4.58
 -12   5   0   75.85    5.47
 -12   5   1  125.36    6.31
 -12   5   1  121.96    6.30
 -12   5  -1  112.72    6.63
 -12   5  -1  110.16    5.06
 -12   5   2  708.58   16.07
 -12   5   2  736.03   16.76
 -12   5  -2  728.14   17.67
 -12   5   3  255.42    9.16
 -12   5   3  249.28    8.46
 -12   5  -3  243.38    7.91
 -12   5   4  225.93    9.23
 -12   5   4  231.60    8.15
 -12   5  -4  241.76    9.36
 -12   5   5  250.70   10.03
 -12   5   5  219.71    7.10
 -12   5  -5  238.09    9.80
 -12   5   6    6.39    4.57
 -12   5  -6   -0.72    2.69
 -13   4   0  195.92    7.00
 -13   4   0  208.82    8.48
 -13   4   1    9.38    3.50
 -13   4   1    5.63    2.98
 -13   4  -1   22.80    5.65
 -13   4   2    7.19    3.62
 -13   4   2   10.06    3.70
 -13   4  -2    9.40    4.62
 -13   4   3   47.24    5.01
 -13   4   3   39.43    5.15
 -13   4  -3   41.68    5.08
 -13   4   4    7.47    3.53
 -13   4   4    6.12    3.06
 -13   4  -4    2.40    3.23
 -13   4   5   63.14    6.06
 -13   4  -5   64.26    6.56
 -14   3   1  296.39   10.41
 -14   3   1  314.06    9.81
 -14   3  -1  309.43   11.42
 -14   3   2    6.60    3.29
 -14   3   2    3.10    2.58
 -14   3  -2    5.07    3.09
  -4  14   0   26.66    4.68
   4 -14   0   22.63    6.13
  -4  14   1    4.26    3.40
   4 -14   1    6.25    4.72
  -4  14  -1    8.10    4.02
   4 -14  -1   15.10    5.75
   4 -14   2   20.26    4.60
  -4  14   2   18.12    4.52
  -4  14  -2   17.53    3.69
   4 -14  -2   29.45    5.82
   4 -14   3   10.37    4.87
  -4  14   3    2.18    3.35
  -4  14  -3   -0.95    2.49
   4 -14  -3   -0.72    3.26
  -5  13   0  579.99   14.15
   5 -13   0  573.05   14.35
   5 -13   1  179.35    7.48
  -5  13   1  196.12    7.74
   5 -13  -1  182.26    7.54
  -5  13  -1  171.13    6.87
   5 -13   2    7.56    4.63
  -5  13   2    6.16    5.03
   5 -13  -2   13.20    4.65
  -5  13  -2    2.98    4.04
   5 -13   3  188.87    7.58
  -5  13   3  188.42    8.54
  -5  13  -3  185.22    6.68
   5 -13  -3  189.18    8.05
  -5  13   4   57.96    5.96
   5 -13   4   61.80    5.91
  -5  13  -4   56.45    4.46
   5 -13  -4   69.74    6.50
  -5  13   5  109.74    6.48
   5 -13   5   89.03    6.30
   5 -13  -5  113.50   10.39
   6 -12   0  179.39    7.51
  -6  12   0  158.25    7.06
   6 -12   1  162.81    6.22
  -6  12   1  156.14    6.57
   6 -12  -1  154.44    7.04
  -6  12  -1  163.52    6.13
  -6  12   2   38.50    5.18
   6 -12   2   47.63    5.14
  -6  12  -2   32.58    5.23
   6 -12  -2   29.73    5.44
   6 -12   3   46.42    5.65
  -6  12   3   33.74    4.30
  -6  12  -3   49.95    5.05
   6 -12  -3   51.64    6.88
  -6  12   4   93.86    6.28
   6 -12   4   98.37    5.51
   6 -12  -4  101.22   10.99
  -6  12  -4  101.86    5.93
  -6  12   5   80.00    5.51
   6 -12   5   85.32    5.39
  -6  12  -5   73.03    4.60
   6 -12  -5   67.51   14.52
   6 -12   6  134.36    5.99
  -6  12   6  124.02    6.92
   6 -12  -6  125.25   11.14
   7 -11   0  193.66    7.03
  -7  11   0  179.08    6.72
   7 -11   1    0.02    2.51
  -7  11   1    5.65    2.97
  -7  11  -1    1.15    3.11
   7 -11  -1    3.74    3.03
  -7  11   2   23.53    4.67
   7 -11   2   28.26    4.13
  -7  11  -2   24.94    4.75
   7 -11  -2   37.95    5.87
   7 -11   3    2.00    2.56
  -7  11   3    3.78    3.04
  -7  11  -3    2.52    2.60
   7 -11  -3    1.79    1.94
   7 -11   4    3.94    3.43
  -7  11   4    1.75    3.40
   7 -11  -4    2.24    2.31
  -7  11  -4    5.35    3.79
  -7  11   5   77.01    5.01
   7 -11   5   78.25    4.93
  -7  11  -5   80.42    5.21
   7 -11  -5   68.84   13.03
  -7  11   6    8.98    3.98
   7 -11  -6   -0.05    3.36
  -7  11  -6    6.27    3.08
  -7  11   7   67.30    5.25
   7 -11  -7   74.70    6.42
  -8  10   0  670.23   15.39
   8 -10   0  713.02   15.67
   8 -10   1  363.88    9.38
  -8  10   1  394.09   11.11
   8 -10  -1  372.13   12.34
  -8  10  -1  399.46   11.30
   8 -10   2  225.15    6.63
  -8  10   2  218.90    7.72
  -8  10  -2  226.55    7.59
   8 -10  -2  222.78    8.10
   8 -10   3  205.14    6.62
  -8  10   3  197.75    7.64
  -8  10  -3  206.92    7.55
   8 -10  -3  194.09   13.97
   8 -10   4  262.77    7.29
  -8  10   4  272.63    8.37
   8 -10  -4  273.22   11.05
  -8  10  -4  271.69    8.68
   8 -10   5  311.36    7.87
  -8  10   5  304.96    8.94
  -8  10  -5  313.37    8.61
   8 -10  -5  302.26   11.04
  -8  10   6  317.58    9.94
  -8  10  -6  290.36    7.90
   8 -10  -6  301.06    9.82
  -8  10   7  201.65    7.89
  -8  10   7  220.90    7.75
  -8  10  -7  195.10    6.38
  -8  10   8   28.59    3.66
  -8  10   8   30.21    5.34
  -9   9   0 3564.72   69.86
   9  -9   0 3647.43   72.49
   9  -9   1  164.12    8.42
  -9   9   1  162.39    6.31
  -9   9  -1  166.14    6.80
   9  -9  -1  159.25    7.51
  -9   9   2  437.64   11.41
   9  -9   2  445.55   11.88
   9  -9  -2  411.66   12.24
  -9   9  -2  435.71   10.77
  -9   9   3  550.85   13.16
   9  -9   3  564.84   12.49
  -9   9  -3  554.32   13.60
   9  -9  -3  541.08   15.72
   9  -9   4  178.91    5.00
  -9   9   4  179.16    7.35
   9  -9  -4  175.43    7.01
  -9   9  -4  184.90    6.00
  -9   9   5 1132.43   23.83
  -9   9   5 1144.76   24.97
  -9   9  -5 1176.18   24.60
  -9   9   6  499.07   12.47
  -9   9   6  493.16   12.25
  -9   9  -6  501.56   11.88
  -9   9   7  482.84   12.04
  -9   9   7  473.47   12.87
  -9   9  -7  496.87   11.95
  -9   9   8   16.83    6.31
 -10   8   0  953.09   20.98
  10  -8   0  947.49   19.48
  10  -8   1  198.42    6.11
 -10   8   1  187.79    6.95
 -10   8  -1  200.53    7.03
 -10   8   2  287.15    8.22
 -10   8   2  291.19    8.69
  10  -8   2  274.53    6.61
 -10   8  -2  292.14    8.67
 -10   8   3  404.17   10.70
  10  -8   3  402.56    9.88
 -10   8   3  432.06   11.97
 -10   8  -3  400.61   10.53
 -10   8   4  159.12    6.41
 -10   8   4  165.97    7.35
 -10   8  -4  171.19    7.09
 -10   8   5  345.86   10.37
 -10   8   5  358.51   10.18
 -10   8  -5  353.31    9.85
 -10   8   6  310.17    9.00
 -10   8   6  281.64    9.19
 -10   8  -6  298.12    9.00
 -10   8   7  185.75    7.97
 -10   8   7  194.39    6.89
 -10   8  -7  197.97    7.06
 -10   8   8   83.96    6.13
 -10   8  -8   65.32    4.68
 -11   7   0  801.01   17.36
 -11   7   0  808.73   18.14
 -11   7   1  329.18    9.28
 -11   7   1  320.21    9.89
 -11   7  -1  313.14    9.19
 -11   7  -1  312.17    8.05
 -11   7   2  296.35    9.06
 -11   7   2  286.77    8.13
 -11   7  -2  295.15    7.33
 -11   7  -2  288.32    9.74
 -11   7   3  209.44    6.92
 -11   7   3  211.74    7.42
 -11   7  -3  218.06    7.47
 -11   7   4  257.76    8.83
 -11   7   4  259.30    7.57
 -11   7  -4  252.04    8.42
 -11   7   5  376.96   10.12
 -11   7   5  393.34   11.26
 -11   7  -5  397.90   10.90
 -11   7   6  239.43    7.77
 -11   7   6  255.24    9.79
 -11   7  -6  249.01    8.17
 -11   7   7  289.74   10.58
 -11   7  -7  273.60    9.39
 -12   6   0  175.85    6.93
 -12   6   0  171.80    7.29
 -12   6   1  158.16    7.16
 -12   6   1  156.32    6.50
 -12   6  -1  160.91    5.75
 -12   6  -1  160.02    7.50
 -12   6   2   39.75    5.68
 -12   6   2   42.09    5.10
 -12   6  -2   37.52    6.09
 -12   6  -2   38.60    2.61
 -12   6   3   44.83    5.44
 -12   6   3   55.89    6.17
 -12   6  -3   54.43    4.85
 -12   6   4  100.51    6.52
 -12   6   4   90.62    5.83
 -12   6  -4   93.04    6.14
 -12   6   5   91.22    5.77
 -12   6   5   86.07    7.13
 -12   6  -5   81.24    7.12
 -12   6   6  133.45    8.72
 -12   6  -6  134.86    6.84
 -13   5   0   79.75    6.18
 -13   5   0   88.79    5.22
 -13   5   1   73.48    7.26
 -13   5   1   81.49    4.93
 -13   5  -1   75.86    6.46
 -13   5  -1   71.11    3.80
 -13   5   2  171.26    7.87
 -13   5   2  173.76    7.14
 -13   5  -2  156.65    7.77
 -13   5   3   72.25    6.59
 -13   5   3   58.47    5.23
 -13   5  -3   64.49    5.83
 -13   5   4   99.50    6.09
 -13   5   4   94.27    6.22
 -13   5  -4  106.99    7.83
 -13   5   5   82.42    6.52
 -13   5   5   72.35    4.74
 -13   5  -5   83.10    6.67
 -14   4   0 1194.71   26.44
 -14   4   1  618.01   16.14
 -14   4   1  640.27   15.04
 -14   4  -1  643.02   16.47
 -14   4   2  276.12    9.87
 -14   4   2  279.91    9.17
 -14   4  -2  293.09   11.17
 -14   4   3  625.65   15.35
 -14   4   3  641.07   16.18
 -14   4  -3  678.28   18.68
   5 -14   0   54.00    6.92
  -5  14   0   53.04    6.54
   5 -14   1  237.54    8.43
  -5  14   1  238.65    8.63
   5 -14  -1  250.75    9.94
  -5  14  -1  254.89    8.38
   5 -14   2    4.01    4.73
  -5  14   2    5.33    3.18
  -5  14  -2    5.89    4.02
   5 -14  -2    4.87    4.61
   5 -14   3  111.17    6.79
  -5  14   3  101.35    6.06
   5 -14  -3  116.20    6.63
  -5  14  -3  105.46    6.23
  -6  13   0  190.94    7.17
   6 -13   0  192.05    7.75
  -6  13   1   37.10    5.17
   6 -13   1   39.73    5.68
  -6  13  -1   39.59    4.62
   6 -13  -1   52.98    6.45
  -6  13   2  117.34    6.54
   6 -13   2  113.91    6.73
  -6  13  -2  132.01    7.31
   6 -13  -2  127.96    6.58
  -6  13   3  130.97    7.98
   6 -13   3  114.24    6.09
   6 -13  -3  116.61    6.55
  -6  13  -3  119.12    5.73
  -6  13   4   60.32    6.42
   6 -13   4   45.47    4.93
  -6  13  -4   54.62    4.90
   6 -13  -4   40.54    9.95
   6 -13   5  115.79    6.19
  -6  13   5   90.85    6.32
  -6  13  -5   89.30    4.84
   6 -13  -5   98.37   18.20
   7 -12   0   87.09    5.98
  -7  12   0   84.58    5.62
   7 -12   1  108.77    6.11
  -7  12   1  115.01    5.93
   7 -12  -1  115.03    6.12
  -7  12  -1  117.31    6.40
  -7  12   2  739.84   17.04
   7 -12   2  717.78   16.28
   7 -12  -2  741.53   17.20
  -7  12  -2  732.10   17.19
  -7  12   3  242.79    7.63
   7 -12   3  250.13    7.96
  -7  12  -3  246.17    8.96
   7 -12  -3  238.17   10.98
  -7  12   4  218.55    7.82
   7 -12   4  205.29    6.88
  -7  12  -4  223.27    6.93
   7 -12  -4  204.23    8.52
  -7  12   5  229.57    7.58
   7 -12   5  239.24    7.44
  -7  12  -5  244.06    7.08
   7 -12  -5  245.33    9.55
  -7  12   6    2.33    3.46
  -7  12  -6    0.30    2.08
   7 -12  -6    4.09    1.72
  -8  11   0  603.01   14.78
   8 -11   0  605.21   14.63
  -8  11   1  634.96   15.00
   8 -11   1  680.11   15.61
   8 -11  -1  655.67   15.32
  -8  11  -1  666.25   16.02
  -8  11   2 1174.67   25.33
   8 -11   2 1198.33   25.13
   8 -11  -2 1182.47   27.44
  -8  11  -2 1203.59   25.17
  -8  11   3  711.05   16.57
   8 -11   3  684.84   15.14
  -8  11  -3  688.68   15.75
   8 -11  -3  702.47   19.22
   8 -11   4  726.45   15.94
  -8  11   4  702.21   16.07
   8 -11  -4  721.08   19.26
  -8  11  -4  700.03   15.66
   8 -11   5  647.69   14.49
  -8  11   5  631.15   14.67
   8 -11  -5  600.48   14.52
  -8  11  -5  624.98   14.17
  -8  11   6  225.68    8.14
   8 -11  -6  205.87    7.96
  -8  11  -6  199.79    6.48
  -8  11   7  612.95   14.30
   9 -10   0   77.01   11.27
  -9  10   0   76.09    6.57
  -9  10   1  409.42   10.97
   9 -10   1  414.29   11.85
   9 -10  -1  407.52   10.46
  -9  10  -1  406.90   10.41
  -9  10   2  272.94    8.91
   9 -10   2  274.38    7.42
   9 -10  -2  273.17   10.50
  -9  10  -2  278.73    9.16
   9 -10   3  245.26    7.28
  -9  10   3  230.65    9.00
   9 -10  -3  247.68    9.25
  -9  10  -3  247.70    7.89
  -9  10   4  320.53    9.67
   9 -10   4  302.24    7.56
   9 -10  -4  314.23    8.91
  -9  10  -4  310.48    8.64
  -9  10   5  116.69    6.79
  -9  10  -5  139.48    6.16
   9 -10  -5  120.15    6.54
  -9  10   6  170.04    7.70
  -9  10   6  153.97    5.98
  -9  10  -6  171.64    5.95
  -9  10   7  104.56    5.98
  -9  10   7  108.04    6.96
  -9  10  -7  116.27    5.73
  10  -9   0 1296.67   27.39
 -10   9   0 1286.05   26.71
 -10   9   1  189.38    7.35
  10  -9   1  185.40    8.47
 -10   9  -1  205.98    7.57
  10  -9  -1  193.40    7.83
 -10   9   2  313.90   10.02
  10  -9   2  298.64    9.90
 -10   9  -2  308.94    8.82
  10  -9  -2  289.51    8.64
  10  -9   3  355.36    8.15
 -10   9   3  348.33    9.40
 -10   9  -3  361.11   10.21
 -10   9   4  172.27    7.68
 -10   9   4  168.42    7.41
 -10   9  -4  163.03    6.56
 -10   9   5  454.44   11.13
 -10   9   5  481.58   12.25
 -10   9  -5  483.41   11.94
 -10   9   6  259.63    8.79
 -10   9   6  267.19    7.97
 -10   9  -6  270.01    8.70
 -10   9   7  244.95    8.10
 -10   9   7  233.18    9.80
 -10   9  -7  235.12    7.44
 -11   8   0    8.22    4.15
 -11   8   0   -0.29    2.95
 -11   8   1  142.47    6.87
 -11   8   1  136.45    6.20
 -11   8  -1  132.70    5.42
 -11   8  -1  141.87    7.08
 -11   8   2  194.49    7.09
 -11   8   2  200.71    7.50
 -11   8  -2  210.17    8.70
 -11   8  -2  193.66    5.69
 -11   8   3  179.06    7.78
 -11   8   3  163.47    6.50
 -11   8  -3  153.12    7.66
 -11   8  -3  164.51    5.00
 -11   8   4  131.47    7.21
 -11   8   4  117.51    6.03
 -11   8  -4  128.83    6.24
 -11   8   5   24.97    4.66
 -11   8  -5   11.68    3.06
 -11   8   6   17.48    5.34
 -11   8  -6   16.79    4.34
 -11   8   7   33.65    5.66
 -11   8  -7   42.25    5.27
 -12   7   0   49.46    4.13
 -12   7   0   52.81    6.05
 -12   7   1  102.99    6.44
 -12   7   1  102.77    5.89
 -12   7  -1  102.50    4.57
 -12   7  -1  110.20    6.13
 -12   7   2   64.53    5.26
 -12   7   2   71.48    5.78
 -12   7  -2   68.61    6.15
 -12   7  -2   57.37    3.68
 -12   7   3  102.81    6.45
 -12   7   3  107.82    6.54
 -12   7  -3   97.15    6.65
 -12   7   4   71.87    6.33
 -12   7   4   71.37    5.12
 -12   7  -4   67.15    6.03
 -12   7   5   30.96    3.84
 -12   7   5   42.97    5.66
 -12   7  -5   33.12    5.10
 -12   7   6   59.58    4.93
 -12   7   6   75.00    5.55
 -12   7  -6   65.25    5.64
 -13   6   0  566.07   14.30
 -13   6   0  585.68   13.44
 -13   6   1  572.66   14.75
 -13   6   1  573.87   13.26
 -13   6  -1  594.64   14.60
 -13   6  -1  568.51   13.12
 -13   6   2  746.38   16.70
 -13   6   2  754.45   16.88
 -13   6  -2  775.04   18.78
 -13   6   3  538.80   13.33
 -13   6   3  539.74   13.87
 -13   6  -3  520.15   14.49
 -13   6   4  525.01   12.91
 -13   6   4  547.26   14.24
 -13   6  -4  546.44   13.92
 -13   6   5  480.91   11.97
 -13   6   5  507.22   13.42
 -13   6  -5  507.14   14.37
 -14   5   0   26.29    5.25
 -14   5   0   30.53    3.90
 -14   5   1   34.95    4.56
 -14   5   1   28.36    4.06
 -14   5  -1   39.96    6.18
 -14   5   2    9.24    4.38
 -14   5   3   28.63    4.53
 -14   5   3   23.87    4.03
 -14   5  -3   47.40    6.38
   6 -14   0  191.45    7.47
  -6  14   0  188.75    7.20
   6 -14   1  157.77    7.08
  -6  14   1  152.56    7.35
  -6  14  -1  142.98    6.19
   6 -14  -1  154.57    8.32
  -6  14   2   75.38    5.81
   6 -14   2   70.64    5.74
  -6  14  -2   71.20    6.13
   6 -14  -2   70.24    6.80
   6 -14   3  156.89    7.37
  -6  14   3  161.77    7.84
   6 -14  -3  166.69    8.65
  -6  14  -3  150.15    6.66
   6 -14   4   80.10    5.43
  -6  14   4   83.21    5.38
   6 -14  -4   75.61    5.18
  -6  14  -4   81.79    5.12
   7 -13   0  588.38   14.64
  -7  13   0  565.51   13.61
   7 -13   1  561.83   14.39
  -7  13  -1  582.41   14.55
   7 -13  -1  594.27   14.95
   7 -13   2  737.70   16.86
  -7  13   2  724.55   16.73
   7 -13  -2  745.51   17.24
  -7  13  -2  770.86   17.91
  -7  13   3  544.28   13.76
   7 -13   3  548.89   13.46
   7 -13  -3  518.66   13.38
  -7  13  -3  533.79   13.44
  -7  13   4  534.22   13.26
   7 -13   4  530.50   13.38
  -7  13  -4  553.52   14.10
   7 -13  -4  527.61   14.95
  -7  13   5  479.73   12.38
   7 -13   5  504.46   12.57
   7 -13  -5  499.23   13.57
  -7  13  -5  496.75   11.87
  -8  12   0  146.30    6.94
   8 -12   0  143.17    6.16
   8 -12   1   67.43    5.54
  -8  12   1   70.35    6.37
  -8  12  -1   60.58    6.39
   8 -12  -1   76.35    6.41
  -8  12   2  241.86    8.84
   8 -12   2  243.31    7.62
   8 -12  -2  260.58   14.10
  -8  12  -2  227.97    7.82
   8 -12   3   83.69    5.98
  -8  12   3   78.19    5.36
   8 -12  -3   70.71   12.74
  -8  12  -3   74.29    5.31
   8 -12   4   98.51    5.60
  -8  12   4  105.84    6.83
  -8  12  -4  107.31    6.38
   8 -12  -4   83.90   16.45
   8 -12   5  141.49    5.87
  -8  12   5  135.69    6.54
   8 -12  -5  162.49    7.78
  -8  12  -5  145.87    5.60
  -8  12   6    4.52    3.26
  -8  12  -6    2.10    3.12
   8 -12  -6    5.79    3.95
   9 -11   0   94.04   10.87
  -9  11   0   91.88    5.80
   9 -11   1  252.75    7.20
  -9  11   1  248.97    8.73
  -9  11  -1  273.14    8.43
   9 -11  -1  252.82   12.28
  -9  11   2  382.51   11.45
   9 -11   2  384.63    9.60
   9 -11  -2  383.67   13.16
  -9  11  -2  380.29   10.18
   9 -11   3  287.71    7.64
  -9  11   3  293.79    9.24
   9 -11  -3  276.83   13.49
  -9  11  -3  284.66    9.56
  -9  11   4  262.37    8.99
   9 -11   4  247.87    7.12
  -9  11  -4  255.71    8.26
   9 -11  -4  246.04    9.81
  -9  11   5  165.56    6.83
   9 -11  -5  137.23   13.04
  -9  11  -5  158.97    6.61
  -9  11   6   70.37    5.69
   9 -11  -6   73.88    6.06
  -9  11  -6   70.52    4.54
  -9  11   7  130.31    5.88
  -9  11   7  131.01    6.21
  10 -10   0  330.25   13.23
 -10  10   0  332.92   10.08
 -10  10   1    2.92    3.67
  10 -10   1    2.17    1.08
 -10  10  -1    3.25    3.59
  10 -10  -1    4.59    2.55
  10 -10   2   25.81    4.83
 -10  10   2   32.94    5.22
  10 -10  -2   25.04    5.32
 -10  10  -2   38.70    6.70
 -10  10   3   57.78    6.08
  10 -10   3   41.99    8.16
  10 -10  -3   45.37    5.25
 -10  10  -3   50.74    4.65
 -10  10   4    6.37    4.39
 -10  10  -4    7.03    4.40
  10 -10  -4   -0.25    2.76
 -10  10   5   87.30    7.03
 -10  10   5   87.76    6.46
 -10  10  -5   94.76    5.85
 -10  10   6   25.16    4.21
 -10  10   6   30.75    4.94
 -10  10  -6   32.02    4.87
 -10  10   7   32.66    4.41
 -10  10   7   32.95    5.81
 -11   9   0    2.75    3.46
 -11   9   1   88.84    5.50
 -11   9   1   89.47    5.72
  11  -9   1   85.65    4.58
 -11   9  -1   98.34    5.95
 -11   9   2   84.23    6.21
 -11   9   2   68.39    5.29
  11  -9   2   76.90    4.25
 -11   9  -2   69.27    5.48
 -11   9   3   67.26    5.73
 -11   9   3   65.87    5.45
 -11   9  -3   67.49    5.36
 -11   9   4   73.34    6.57
 -11   9   4   63.51    6.08
 -11   9  -4   64.04    5.63
 -11   9   5    8.38    3.31
 -11   9   5    7.88    3.66
 -11   9  -5    1.25    2.92
 -11   9   6   18.75    4.52
 -11   9   6   30.90    5.67
 -11   9  -6   23.63    4.78
 -11   9   7    7.24    5.32
 -12   8   0  230.80    7.33
 -12   8   0  212.19    9.23
 -12   8   1  431.50   11.47
 -12   8   1  417.05   10.94
 -12   8  -1  421.53   10.19
 -12   8  -1  420.06   11.76
 -12   8   2  546.16   13.48
 -12   8   2  518.13   13.00
 -12   8  -2  530.76   13.30
 -12   8  -2  515.27   11.69
 -12   8   3  351.45   10.53
 -12   8   3  348.99   10.65
 -12   8  -3  336.67   10.56
 -12   8   4  385.14   10.63
 -12   8   4  414.36   12.41
 -12   8  -4  402.04   12.41
 -12   8   5  278.68    9.67
 -12   8   5  279.19    8.87
 -12   8  -5  262.25    8.80
 -12   8   6  140.70    6.19
 -12   8   6  153.24    7.75
 -12   8  -6  164.19    7.54
 -13   7   0  209.44    8.73
 -13   7   0  206.61    6.98
 -13   7   1   55.97    5.85
 -13   7   1   35.48    3.83
 -13   7  -1   40.54    3.63
 -13   7   2  127.46    6.87
 -13   7   2  126.40    6.23
 -13   7  -2  123.36    7.50
 -13   7   3  113.80    7.07
 -13   7   3  116.51    5.76
 -13   7  -3   96.96    6.30
 -13   7   4   40.56    5.54
 -13   7   4   58.40    6.05
 -13   7  -4   42.37    5.84
 -13   7   5   98.93    5.73
 -13   7   5  109.95    7.22
 -13   7  -5  111.89    7.42
 -14   6   0   13.37    4.52
 -14   6   0    2.77    2.65
 -14   6   1    7.49    3.08
 -14   6   1   12.75    4.22
 -14   6  -1   17.78    6.15
 -14   6   2   66.33    5.66
 -14   6   2   66.73    6.03
 -14   6  -2   60.63    6.07
 -14   6   3    3.20    2.71
 -14   6   3    6.47    3.92
 -14   6  -3    3.16    3.12
 -14   6   4   14.85    3.96
 -14   6  -4   18.60    4.94
   6 -15   0  609.14   15.41
  -7  14   0   21.00    4.37
   7 -14   0   12.20    4.57
   7 -14   1   12.66    4.32
   7 -14  -1   10.16    4.42
  -7  14  -1   29.14    5.40
  -7  14   2   20.53    4.09
   7 -14   2   19.11    5.65
   7 -14  -2   12.60    4.98
  -7  14  -2    9.57    3.64
   7 -14   3   42.86    5.91
  -7  14   3   41.70    5.50
  -7  14  -3   58.73    5.94
   7 -14  -3   48.58    5.56
   7 -14   4    8.40    3.35
  -7  14   4    8.70    3.21
  -7  14  -4    7.46    3.72
   7 -14  -4    9.99    4.80
  -8  13   0   84.47    6.06
   8 -13   0   81.83    6.52
  -8  13   1   78.24    6.19
   8 -13   1   82.19    5.98
   8 -13  -1   70.33    6.36
  -8  13  -1   79.86    7.30
   8 -13   2  153.38    6.45
  -8  13   2  163.28    7.40
   8 -13  -2  171.31    7.93
  -8  13  -2  163.58    6.81
   8 -13   3   59.84    5.01
  -8  13   3   49.20    5.77
  -8  13  -3   78.01    5.63
   8 -13  -3   49.84   12.26
   8 -13   4   95.72    5.58
  -8  13   4   92.21    6.11
  -8  13  -4  107.63    6.88
   8 -13  -4   72.41   22.09
   8 -13   5   93.94    5.36
  -8  13   5   72.92    6.13
  -8  13  -5   86.79    5.37
   8 -13  -5   51.98   19.57
   9 -12   0   75.34    5.41
  -9  12   0   72.49    6.01
   9 -12   1    4.36    2.44
  -9  12   1    8.13    5.16
   9 -12  -1   10.32    3.74
  -9  12  -1    8.67    3.78
  -9  12   2    5.44    3.30
   9 -12   2   10.27    4.43
  -9  12  -2    5.94    3.91
   9 -12  -2    3.98    3.16
  -9  12   3    6.07    3.60
   9 -12   3   -0.60    2.27
  -9  12  -3    3.71    3.15
   9 -12  -3    4.07    4.47
  -9  12   4    9.83    3.29
   9 -12   4    6.97    3.10
   9 -12  -4    7.22    4.07
  -9  12   5    1.83    3.12
  -9  12  -5    1.99    2.71
   9 -12  -5   -1.40    3.20
  -9  12   6   16.46    5.59
   9 -12  -6   12.98    4.42
  -9  12  -6    4.48    2.26
 -10  11   0  127.87    6.46
  10 -11   0  115.70    9.68
  10 -11   1   40.33    8.34
 -10  11   1   36.03    5.80
 -10  11  -1   43.51    6.56
  10 -11  -1   32.64    7.09
  10 -11   2   15.97    3.29
 -10  11   2   16.59    4.69
  10 -11  -2    8.81    4.44
 -10  11  -2   13.31    3.33
  10 -11   3    8.67    3.23
 -10  11   3   17.58    5.01
 -10  11  -3    8.98    2.99
  10 -11  -3    7.06    3.37
 -10  11   4   25.85    5.13
 -10  11  -4   32.54    4.72
  10 -11  -4   18.62    6.75
 -10  11   5   58.31    5.67
  10 -11  -5   57.20    6.73
 -10  11  -5   56.07    5.34
 -10  11   6   45.46    5.56
 -10  11   6   44.17    5.71
 -10  11  -6   48.71    5.17
 -11  10   0  146.04    7.60
  11 -10   0  142.71    6.79
  11 -10   1   96.99    9.14
 -11  10   1  104.54    7.75
  11 -10  -1  103.27    5.07
 -11  10  -1  106.58    6.77
  11 -10   2  108.49    7.73
 -11  10   2  108.00    5.65
  11 -10  -2  120.70    6.52
 -11  10  -2  119.94    7.23
 -11  10   3  170.18    7.96
 -11  10   3  174.90    7.24
 -11  10  -3  182.58    7.61
 -11  10   4   89.36    6.40
 -11  10   4   67.44    5.33
 -11  10  -4   75.47    5.63
 -11  10   5   89.17    6.35
 -11  10   5   80.67    6.73
 -11  10  -5   84.23    6.03
 -11  10   6  100.09    6.99
 -11  10   6  122.26    6.95
 -11  10  -6  100.21    6.35
 -12   9   0  140.92    5.83
 -12   9   0  131.83    6.58
 -12   9   1  304.71    9.33
 -12   9   1  306.19    9.46
 -12   9  -1  297.42    9.25
 -12   9  -1  296.85    8.08
 -12   9   2   97.54    5.43
 -12   9   2  105.55    6.34
 -12   9  -2  105.22    4.47
 -12   9  -2  103.44    6.46
 -12   9   3  130.77    6.13
 -12   9   3  138.04    7.11
 -12   9  -3  124.73    7.02
 -12   9   4  194.02    8.59
 -12   9   4  200.21    7.06
 -12   9  -4  195.77    8.56
 -12   9   5   82.70    6.08
 -12   9   5   83.08    5.80
 -12   9  -5   85.65    5.96
 -12   9   6  206.73    7.36
 -12   9   6  200.65    8.80
 -12   9  -6  209.56    8.56
 -13   8   0  565.44   14.39
 -13   8   0  575.12   13.06
 -13   8   1  181.21    8.12
 -13   8   1  170.61    6.64
 -13   8  -1  186.12    8.29
 -13   8  -1  173.20    5.95
 -13   8   2    6.59    3.07
 -13   8   2   11.14    4.47
 -13   8  -2    4.89    3.72
 -13   8   3  201.34    7.86
 -13   8   3  201.78    7.80
 -13   8  -3  180.46    8.38
 -13   8   4   62.12    6.42
 -13   8   4   50.72    5.81
 -13   8  -4   61.57    6.51
 -13   8   5  100.78    6.09
 -13   8   5  105.94    6.89
 -13   8  -5   96.84    6.95
 -14   7   0   19.88    3.85
 -14   7   0   20.42    4.86
 -14   7   1   11.78    3.74
 -14   7  -1   17.75    4.10
 -14   7   2   13.13    4.88
 -14   7   2   13.87    3.29
 -14   7  -2   12.86    3.30
 -14   7   3   44.40    6.13
 -14   7   3   44.65    5.06
 -14   7  -3   56.16    6.59
 -14   7   4   10.82    3.42
 -14   7   4    8.37    3.74
 -14   7  -4   10.19    5.13
 -15   6   0   29.85    5.79
   7 -15   0   63.89    5.97
  -7  15   0   63.42    5.71
   7 -15   1    2.58    3.53
  -7  15   1    2.87    3.55
   7 -15  -1    1.77    3.19
  -7  15  -1   -1.91    2.90
   8 -14   0    9.97    5.07
  -8  14   0    0.36    2.99
   8 -14   1    7.31    4.46
  -8  14   1   18.70    6.56
  -8  14  -1    9.87    4.83
   8 -14  -1    3.21    3.03
   8 -14   2   67.81    6.43
  -8  14   2   62.14    5.63
  -8  14  -2   68.20    5.85
   8 -14  -2   76.90    6.64
  -8  14   3    5.28    3.66
   8 -14   3    3.47    2.61
   8 -14  -3   10.29    4.44
  -8  14  -3    7.49    4.24
   8 -14   4   13.78    3.79
  -8  14   4   12.21    3.25
   8 -14  -4   16.72    8.69
   9 -13   0  210.88    7.02
  -9  13   0  214.88    8.74
  -9  13   1   21.25    5.18
   9 -13   1   18.33    4.58
  -9  13  -1   15.55    5.02
   9 -13  -1    7.58    3.21
  -9  13   2    2.25    3.65
   9 -13   2   10.99    4.21
   9 -13  -2    8.08    3.50
  -9  13  -2    8.10    3.54
  -9  13   3   45.18    6.27
   9 -13   3   44.39    4.53
   9 -13  -3   29.69    8.83
  -9  13  -3   40.06    4.92
   9 -13   4    3.99    2.10
  -9  13   4    7.98    3.07
  -9  13  -4   10.15    3.73
   9 -13  -4    5.93    2.97
  -9  13   5   65.87    7.42
  -9  13  -5   56.08    5.43
   9 -13  -5   43.09   16.12
  10 -12   0   36.58    9.77
 -10  12   0   44.46    5.63
  10 -12   1    3.67    1.97
 -10  12   1    5.74    3.82
 -10  12  -1   10.03    5.12
  10 -12  -1   -0.22    2.05
  10 -12   2   -2.14    2.30
 -10  12   2    3.09    3.36
 -10  12  -2   12.33    5.36
  10 -12  -2   -1.46    3.22
  10 -12   3    2.24    2.66
 -10  12   3    2.11    3.82
 -10  12  -3    2.51    2.90
  10 -12  -3    4.53    2.42
 -10  12   4    0.14    3.05
 -10  12  -4    3.22    3.04
  10 -12  -4    1.02    1.95
 -10  12   5   11.34    5.17
 -10  12  -5   11.32    3.89
  10 -12  -5   10.01    4.81
  11 -11   0   11.75    3.99
 -11  11   0   12.99    5.44
 -11  11   1  398.22   10.75
  11 -11   1  377.79   12.77
  11 -11  -1  394.39   10.49
 -11  11  -1  392.70   10.58
  11 -11   2  251.77    8.18
 -11  11   2  258.02    8.42
  11 -11  -2  245.57    8.99
 -11  11   3  219.77    8.09
  11 -11  -3  204.44    7.80
 -11  11  -3  214.01    7.98
 -11  11   4  296.16    9.33
 -11  11   4  277.71    8.98
 -11  11  -4  295.75    9.40
 -11  11   5   36.99    6.16
 -11  11  -5   47.79    5.70
 -11  11   6   87.24    5.63
 -11  11   6   93.43    5.44
 -11  11  -6   86.52    7.14
 -12  10   0   73.36    5.96
 -12  10   0   67.15    4.81
 -12  10   1  611.15   14.10
 -12  10   1  576.08   13.88
 -12  10  -1  604.18   14.91
 -12  10   2  482.84   12.32
 -12  10   2  486.32   12.25
 -12  10  -2  512.38   13.64
 -12  10   3  311.68    9.21
 -12  10   3  346.11   10.85
 -12  10  -3  312.82   10.04
 -12  10   4  500.19   13.38
 -12  10   4  495.80   12.30
 -12  10  -4  507.78   13.28
 -12  10   5  171.63    7.69
 -12  10   5  172.43    7.03
 -12  10  -5  170.51    7.47
 -13   9   0    8.59    3.49
 -13   9   0    9.79    4.91
 -13   9   1  129.04    5.69
 -13   9   1  129.67    8.24
 -13   9  -1  127.17    5.24
 -13   9  -1  143.82    8.09
 -13   9   2   67.16    5.82
 -13   9   2   62.56    4.73
 -13   9  -2   62.73    7.28
 -13   9   3   37.13    4.91
 -13   9   3   32.84    5.20
 -13   9  -3   51.13    6.20
 -13   9   4  103.27    6.83
 -13   9   4   94.88    6.03
 -13   9  -4   99.29    7.21
 -13   9   5    9.45    3.92
 -13   9   5    1.21    2.52
 -13   9  -5    7.38    5.06
 -14   8   0  211.03    7.48
 -14   8   0  201.60    9.02
 -14   8   1  148.20    6.45
 -14   8   1  144.88    6.73
 -14   8  -1  156.34    8.56
 -14   8   2   71.38    6.54
 -14   8   2   64.55    6.49
 -14   8  -2   66.37    6.66
 -14   8   3  164.05    8.16
 -14   8   3  170.27    8.35
 -14   8  -3  150.72    7.73
 -14   8   4   94.69    7.45
 -14   8   4   89.07    5.62
 -14   8  -4   85.73    5.74
 -15   7   0    5.77    3.14
 -15   7   1   28.54    5.87
 -15   7  -1   15.77    4.39
  -8  15   0    5.22    3.10
   8 -15   0   -0.86    3.38
   8 -15   1   26.66    5.86
  -8  15   1   23.12    5.04
  -8  15  -1   14.13    4.76
   8 -15  -1   22.39    5.94
   9 -14   0   33.54    5.45
  -9  14   0   51.00    6.76
  -9  14   1   38.90    6.01
   9 -14   1   40.96    5.53
  -9  14  -1   34.66    4.84
   9 -14  -1   34.60    5.51
  -9  14   2   11.15    5.31
   9 -14   2   25.53    4.98
  -9  14  -2   27.69    5.02
   9 -14  -2   12.22    4.60
  -9  14   3   35.31    5.25
  -9  14  -3   31.33    5.61
   9 -14  -3   24.44    8.34
 -10  13   0  434.97   12.85
  10 -13   0  437.78   11.21
  10 -13   1   69.35    5.45
 -10  13   1   72.75    6.91
  10 -13  -1   65.14   14.69
 -10  13  -1   80.09    5.88
  10 -13   2   92.86    4.90
 -10  13   2  104.24    7.79
  10 -13  -2   84.37    8.86
 -10  13  -2   88.08    6.58
 -10  13   3  148.88    6.67
  10 -13   3  133.74    5.59
  10 -13  -3  146.73    7.29
 -10  13  -3  160.43    6.91
 -10  13   4   56.98    5.54
 -10  13  -4   65.68    6.24
  10 -13  -4   40.07   15.81
 -11  12   0  275.53    9.97
  11 -12   0  279.72    8.26
 -11  12   1  710.24   16.83
  11 -12   1  716.79   19.74
  11 -12  -1  705.27   17.49
 -11  12  -1  711.73   17.33
  11 -12   2  784.55   18.54
 -11  12   2  759.03   17.65
 -11  12  -2  784.91   18.09
  11 -12  -2  801.51   19.59
 -11  12   3  505.82   13.35
 -11  12  -3  524.81   14.03
  11 -12  -3  500.25   15.14
 -11  12   4  634.97   15.67
  11 -12  -4  676.06   16.43
 -11  12  -4  634.75   15.46
 -11  12   5  362.86   10.84
 -11  12   5  369.79   11.12
 -11  12  -5  357.30    9.95
 -12  11   0   87.08    6.24
  12 -11   0   96.09    5.41
  12 -11   1   54.34    9.98
 -12  11   1   70.85    6.10
  12 -11  -1   70.37    4.84
 -12  11  -1   50.02    4.86
  12 -11   2   13.48    4.19
 -12  11   2   21.22    4.40
 -12  11   2   24.61    5.81
 -12  11   3   10.90    4.37
 -12  11   3   16.61    3.78
 -12  11  -3   20.70    5.04
 -12  11   4   42.36    5.39
 -12  11  -4   33.50    5.19
 -12  11   5   50.00    6.25
 -12  11   5   59.06    7.19
 -12  11  -5   48.98    6.20
 -13  10   0   12.72    3.48
 -13  10   0   13.72    5.30
 -13  10   1  249.60    8.18
 -13  10   1  253.49    8.95
 -13  10  -1  238.33    8.94
 -13  10  -1  244.93    7.60
 -13  10   2  239.64    8.50
 -13  10   2  267.10    8.36
 -13  10  -2  254.31   10.47
 -13  10   3  192.95    7.88
 -13  10   3  199.37    7.84
 -13  10  -3  200.10    8.16
 -13  10   4  205.12    7.73
 -13  10   4  211.91    8.30
 -13  10  -4  218.09    9.08
 -14   9   0   37.66    3.89
 -14   9   0   38.49    6.03
 -14   9   1  234.65    9.17
 -14   9   1  250.72    8.05
 -14   9  -1  241.53   10.07
 -14   9   2    4.48    4.74
 -14   9   2    4.19    2.37
 -14   9  -2   10.16    5.11
 -14   9   3  105.23    7.34
 -14   9   3  105.13    6.18
 -14   9  -3  100.75    6.86
 -15   8   0   78.66    5.68
 -15   8   1   -3.48    3.42
 -15   8   1    2.55    1.91
 -15   8  -1    1.44    3.30
  -9  15   0   22.85    4.43
   9 -15   0   39.54    5.41
  10 -14   0 1162.40   25.51
 -10  14   0 1140.61   24.96
  10 -14   1  630.16   15.13
 -10  14   1  637.72   15.83
  10 -14  -1  625.75   15.23
 -10  14  -1  637.25   16.19
 -10  14   2  287.72   10.72
  10 -14   2  295.80    9.02
  10 -14  -2  288.12   14.13
 -10  14  -2  272.67    8.62
  10 -14   3  650.10   15.17
 -10  14   3  623.99   15.81
  10 -14  -3  624.62   19.35
 -10  14  -3  626.70   15.33
 -11  13   0    7.96    3.90
  11 -13   0    2.13    2.39
 -11  13   1   63.53    5.49
  11 -13   1   44.29   12.43
  11 -13  -1   39.72   10.95
 -11  13  -1   58.50    6.40
  11 -13   2    3.56    2.86
 -11  13   2    1.07    3.95
  11 -13  -2    2.17    2.13
 -11  13  -2   12.19    4.88
 -11  13   3   46.02    5.86
 -11  13  -3   47.85    5.20
  11 -13  -3   39.19   14.98
 -11  13   4   22.33    6.53
  11 -13  -4   13.21    4.95
 -11  13  -4   14.50    4.38
  12 -12   0  121.01    6.72
 -12  12   0  127.16    6.36
  12 -12   1  215.26    6.62
 -12  12   1  210.66    8.51
 -12  12  -1  222.32    8.90
  12 -12  -1  216.29    9.00
 -12  12   2  144.39    7.87
  12 -12   2  147.36   10.14
 -12  12  -2  146.52    6.94
  12 -12  -2  157.90    6.90
 -12  12   3  115.07    7.58
  12 -12  -3  115.65    6.55
 -12  12  -3  114.03    6.36
 -12  12   4  177.13    8.88
 -12  12   4  179.80    8.06
 -12  12  -4  178.22    7.63
 -13  11   0  125.85    7.87
 -13  11   0  133.29    5.81
 -13  11   1   46.03    5.81
 -13  11   1   45.56    5.71
 -13  11  -1   49.45    4.64
 -13  11  -1   53.45    5.92
 -13  11   2   78.85    6.12
 -13  11   2   72.11    6.19
 -13  11  -2   60.18    5.83
 -13  11   3   30.75    6.34
 -13  11   3   41.65    5.50
 -13  11  -3   18.93    4.48
 -13  11   4   62.58    5.27
 -13  11   4   48.92    5.79
 -13  11  -4   60.38    6.26
 -14  10   0   25.52    4.17
 -14  10   0   15.70    3.92
 -14  10   1    2.23    2.23
 -14  10   1    9.33    4.54
 -14  10  -1    0.16    3.63
 -14  10   2   17.68    6.04
 -14  10   2   21.53    4.75
 -14  10  -2   17.32    4.67
 -14  10   3    6.06    3.46
 -14  10   3    1.18    2.88
 -14  10  -3   -3.25    3.92
 -15   9   0  615.33   15.75
 -11  14   0   33.62    4.26
  11 -14   0   27.11    9.75
 -11  14   1  322.12   11.33
  11 -14   1  306.95   10.13
 -11  14  -1  282.70    9.44
  11 -14  -1  300.68    9.34
 -11  14   2    9.64    4.91
  11 -14   2    3.58    3.13
 -11  14  -2   13.19    5.06
  11 -14  -2    2.61    2.31
  12 -13   0   -0.70    2.55
 -12  13   0    4.52    3.64
 -12  13   1   46.03    6.06
  12 -13   1   32.44    9.06
 -12  13  -1   47.90    5.95
  12 -13  -1   29.32   10.10
 -12  13   2   19.44    6.16
  12 -13   2    9.31    3.00
  12 -13  -2    6.99    3.81
 -12  13  -2   16.49    4.55
  12 -13  -3   37.70    5.23
 -12  13  -3   32.49    5.60
  13 -12   0   30.83    4.29
 -13  12   0   38.52    6.16
 -13  12   1    7.18    2.48
 -13  12   1    9.98    5.50
  13 -12   1    3.09    2.65
 -13  12  -1    2.46    3.66
 -13  12   2    5.39    3.23
 -13  12   2   -1.22    2.81
 -13  12  -2    2.35    3.90
 -13  12   3    8.52    5.06
 -13  12   3    4.54    3.92
 -14  11   0  293.09    8.50
 -14  11   0  293.06   10.56
 -14  11   1  149.95    8.11
 -14  11   1  150.24    6.92
 -14  11  -1  132.91    7.02
 -14  11   2  100.47    7.23
 -14  11   2  110.87    6.19
 -14  11  -2  110.42    7.57
 -13  13   0    8.33    5.47
  13 -13   0    2.99    2.15
 -13  13   1   53.86    5.88
  13 -13   1   30.70   12.01
 -13  13  -1   52.67    5.91
  13 -13  -1   66.06    5.51
;
_shelx_hkl_checksum              61128
_shelx_fab_file
;
   -1    2    0     23.72      0.00
    0    2    0     19.68      0.00
   -2    3    0     10.73      0.00
   -1    3    0     10.96      0.00
    0    3    0      7.16      0.00
   -3    4    0      2.48      0.00
   -2    4    0      3.65      0.00
   -1    4    0      3.45      0.00
    0    4    0      1.63      0.00
   -4    5    0     -0.05      0.00
   -3    5    0      0.38      0.00
   -2    5    0      1.61      0.00
   -1    5    0      1.95      0.00
    0    5    0      1.00      0.00
   -5    6    0     -0.12      0.00
   -4    6    0     -0.29      0.00
   -3    6    0      0.99      0.00
   -2    6    0      2.40      0.00
   -1    6    0      2.41      0.00
    0    6    0      1.12      0.00
   -6    7    0     -0.26      0.00
   -5    7    0     -0.49      0.00
   -4    7    0      0.38      0.00
   -3    7    0      1.87      0.00
   -2    7    0      2.59      0.00
   -1    7    0      1.84      0.00
    0    7    0      0.36      0.00
   -7    8    0     -0.66      0.00
   -6    8    0     -0.78      0.00
   -5    8    0     -0.39      0.00
   -4    8    0      0.59      0.00
   -3    8    0      1.45      0.00
   -2    8    0      1.38      0.00
   -1    8    0      0.43      0.00
    0    8    0     -0.54      0.00
   -8    9    0     -0.73      0.00
   -7    9    0     -0.80      0.00
   -6    9    0     -0.77      0.00
   -5    9    0     -0.44      0.00
   -4    9    0      0.09      0.00
   -3    9    0      0.36      0.00
   -2    9    0      0.06      0.00
   -1    9    0     -0.51      0.00
    0    9    0     -0.77      0.00
   -9   10    0     -0.42      0.00
   -8   10    0     -0.41      0.00
   -7   10    0     -0.55      0.00
   -6   10    0     -0.68      0.00
   -5   10    0     -0.59      0.00
   -4   10    0     -0.35      0.00
   -3   10    0     -0.22      0.00
   -2   10    0     -0.36      0.00
   -1   10    0     -0.56      0.00
    0   10    0     -0.47      0.00
  -10   11    0     -0.09      0.00
   -9   11    0      0.08      0.00
   -8   11    0     -0.01      0.00
   -7   11    0     -0.33      0.00
   -6   11    0     -0.54      0.00
   -5   11    0     -0.45      0.00
   -4   11    0     -0.15      0.00
   -3   11    0      0.02      0.00
   -2   11    0     -0.07      0.00
   -1   11    0     -0.22      0.00
    0   11    0     -0.16      0.00
  -11   12    0      0.08      0.00
  -10   12    0      0.35      0.00
   -9   12    0      0.42      0.00
   -8   12    0      0.14      0.00
   -7   12    0     -0.21      0.00
   -6   12    0     -0.25      0.00
   -5   12    0      0.07      0.00
   -4   12    0      0.44      0.00
   -3   12    0      0.53      0.00
   -2   12    0      0.30      0.00
   -1   12    0      0.03      0.00
    0   12    0     -0.02      0.00
  -12   13    0      0.12      0.00
  -11   13    0      0.36      0.00
  -10   13    0      0.56      0.00
   -9   13    0      0.42      0.00
   -8   13    0      0.06      0.00
   -7   13    0     -0.11      0.00
   -6   13    0      0.14      0.00
   -5   13    0      0.59      0.00
   -4   13    0      0.85      0.00
   -3   13    0      0.73      0.00
   -2   13    0      0.38      0.00
   -1   13    0      0.12      0.00
    0   13    0      0.05      0.00
  -11   14    0      0.44      0.00
  -10   14    0      0.48      0.00
   -9   14    0      0.20      0.00
   -8   14    0     -0.07      0.00
   -7   14    0      0.01      0.00
   -6   14    0      0.41      0.00
   -5   14    0      0.75      0.00
   -4   14    0      0.77      0.00
   -3   14    0      0.52      0.00
   -9   15    0     -0.03      0.00
   -8   15    0     -0.11      0.00
   -7   15    0      0.13      0.00
   -6   15    0      0.44      0.00
    0    1    1      6.66      0.00
   -1    2    1      2.41      0.00
    0    2    1      0.84      0.00
   -1    3    1     -2.24      0.00
    0    3    1     -3.35      0.00
   -3    4    1     -4.43      0.00
   -2    4    1     -4.10      0.00
   -1    4    1     -3.60      0.00
    0    4    1     -3.56      0.00
   -4    5    1     -3.34      0.00
   -3    5    1     -3.72      0.00
   -2    5    1     -2.66      0.00
   -1    5    1     -1.60      0.00
    0    5    1     -1.34      0.00
   -5    6    1     -1.38      0.00
   -4    6    1     -2.19      0.00
   -3    6    1     -1.32      0.00
   -2    6    1      0.23      0.00
   -1    6    1      0.92      0.00
    0    6    1      0.41      0.00
   -6    7    1     -0.40      0.00
   -5    7    1     -1.05      0.00
   -4    7    1     -0.54      0.00
   -3    7    1      0.90      0.00
   -2    7    1      1.92      0.00
   -1    7    1      1.61      0.00
    0    7    1      0.44      0.00
   -7    8    1     -0.49      0.00
   -6    8    1     -0.74      0.00
   -5    8    1     -0.50      0.00
   -4    8    1      0.46      0.00
   -3    8    1      1.44      0.00
   -2    8    1      1.50      0.00
   -1    8    1      0.60      0.00
    0    8    1     -0.37      0.00
   -8    9    1     -0.66      0.00
   -7    9    1     -0.68      0.00
   -6    9    1     -0.65      0.00
   -5    9    1     -0.26      0.00
   -4    9    1      0.36      0.00
   -3    9    1      0.60      0.00
   -2    9    1      0.16      0.00
   -1    9    1     -0.53      0.00
    0    9    1     -0.74      0.00
   -9   10    1     -0.31      0.00
   -8   10    1     -0.28      0.00
   -7   10    1     -0.42      0.00
   -6   10    1     -0.52      0.00
   -5   10    1     -0.38      0.00
   -4   10    1     -0.18      0.00
   -3   10    1     -0.25      0.00
   -2   10    1     -0.56      0.00
   -1   10    1     -0.68      0.00
    0   10    1     -0.37      0.00
  -10   11    1      0.25      0.00
   -9   11    1      0.38      0.00
   -8   11    1      0.24      0.00
   -7   11    1     -0.15      0.00
   -6   11    1     -0.43      0.00
   -5   11    1     -0.44      0.00
   -4   11    1     -0.33      0.00
   -3   11    1     -0.28      0.00
   -2   11    1     -0.27      0.00
   -1   11    1     -0.13      0.00
    0   11    1      0.17      0.00
  -11   12    1      0.47      0.00
  -10   12    1      0.77      0.00
   -9   12    1      0.84      0.00
   -8   12    1      0.50      0.00
   -7   12    1     -0.01      0.00
   -6   12    1     -0.28      0.00
   -5   12    1     -0.22      0.00
   -4   12    1      0.02      0.00
   -3   12    1      0.21      0.00
   -2   12    1      0.33      0.00
   -1   12    1      0.36      0.00
    0   12    1      0.33      0.00
  -12   13    1      0.26      0.00
  -11   13    1      0.59      0.00
  -10   13    1      0.92      0.00
   -9   13    1      0.86      0.00
   -8   13    1      0.43      0.00
   -7   13    1      0.00      0.00
   -6   13    1     -0.12      0.00
   -5   13    1      0.05      0.00
   -4   13    1      0.33      0.00
   -3   13    1      0.53      0.00
   -2   13    1      0.56      0.00
   -1   13    1      0.41      0.00
    0   13    1      0.17      0.00
  -11   14    1      0.52      0.00
  -10   14    1      0.72      0.00
   -9   14    1      0.55      0.00
   -8   14    1      0.18      0.00
   -7   14    1     -0.08      0.00
   -6   14    1     -0.08      0.00
   -5   14    1      0.09      0.00
   -4   14    1      0.29      0.00
   -3   14    1      0.41      0.00
   -8   15    1     -0.05      0.00
   -7   15    1     -0.14      0.00
    0    1    2     -7.38      0.00
   -1    2    2     -7.68      0.00
    0    2    2     -7.66      0.00
   -2    3    2     -7.21      0.00
   -1    3    2     -7.22      0.00
    0    3    2     -6.65      0.00
   -3    4    2     -5.14      0.00
   -2    4    2     -5.51      0.00
   -1    4    2     -5.14      0.00
    0    4    2     -3.97      0.00
   -4    5    2     -2.18      0.00
   -3    5    2     -2.77      0.00
   -2    5    2     -2.63      0.00
   -1    5    2     -1.91      0.00
    0    5    2     -0.86      0.00
   -5    6    2      0.02      0.00
   -4    6    2     -0.44      0.00
   -3    6    2     -0.29      0.00
   -2    6    2      0.22      0.00
   -1    6    2      0.73      0.00
    0    6    2      0.92      0.00
   -6    7    2      0.63      0.00
   -5    7    2      0.43      0.00
   -4    7    2      0.68      0.00
   -3    7    2      1.21      0.00
   -2    7    2      1.59      0.00
   -1    7    2      1.48      0.00
    0    7    2      0.92      0.00
   -7    8    2      0.29      0.00
   -6    8    2      0.25      0.00
   -5    8    2      0.42      0.00
   -4    8    2      0.86      0.00
   -3    8    2      1.24      0.00
   -2    8    2      1.20      0.00
   -1    8    2      0.73      0.00
    0    8    2      0.16      0.00
   -8    9    2     -0.03      0.00
   -7    9    2      0.05      0.00
   -6    9    2      0.06      0.00
   -5    9    2      0.18      0.00
   -4    9    2      0.37      0.00
   -3    9    2      0.39      0.00
   -2    9    2      0.14      0.00
   -1    9    2     -0.18      0.00
    0    9    2     -0.28      0.00
   -9   10    2     -0.02      0.00
   -8   10    2      0.20      0.00
   -7   10    2      0.23      0.00
   -6   10    2      0.08      0.00
   -5   10    2     -0.08      0.00
   -4   10    2     -0.20      0.00
   -3   10    2     -0.32      0.00
   -2   10    2     -0.42      0.00
   -1   10    2     -0.38      0.00
    0   10    2     -0.18      0.00
  -10   11    2      0.11      0.00
   -9   11    2      0.38      0.00
   -8   11    2      0.58      0.00
   -7   11    2      0.45      0.00
   -6   11    2      0.07      0.00
   -5   11    2     -0.27      0.00
   -4   11    2     -0.42      0.00
   -3   11    2     -0.38      0.00
   -2   11    2     -0.24      0.00
   -1   11    2     -0.05      0.00
    0   11    2      0.10      0.00
  -11   12    2      0.17      0.00
  -10   12    2      0.36      0.00
   -9   12    2      0.66      0.00
   -8   12    2      0.71      0.00
   -7   12    2      0.36      0.00
   -6   12    2     -0.12      0.00
   -5   12    2     -0.36      0.00
   -4   12    2     -0.28      0.00
   -3   12    2     -0.05      0.00
   -2   12    2      0.17      0.00
   -1   12    2      0.27      0.00
    0   12    2      0.23      0.00
  -12   13    2      0.12      0.00
  -11   13    2      0.22      0.00
  -10   13    2      0.48      0.00
   -9   13    2      0.65      0.00
   -8   13    2      0.47      0.00
   -7   13    2      0.00      0.00
   -6   13    2     -0.34      0.00
   -5   13    2     -0.31      0.00
   -4   13    2     -0.02      0.00
   -3   13    2      0.25      0.00
   -2   13    2      0.37      0.00
   -1   13    2      0.31      0.00
  -11   14    2      0.22      0.00
  -10   14    2      0.42      0.00
   -9   14    2      0.40      0.00
   -8   14    2      0.07      0.00
   -7   14    2     -0.30      0.00
   -6   14    2     -0.38      0.00
   -5   14    2     -0.14      0.00
   -4   14    2      0.15      0.00
   -3   14    2      0.29      0.00
    0    1    3      0.59      0.00
   -1    2    3      0.89      0.00
    0    2    3      1.00      0.00
   -2    3    3      1.27      0.00
   -1    3    3      1.24      0.00
    0    3    3      1.37      0.00
   -3    4    3      1.68      0.00
   -2    4    3      1.59      0.00
   -1    4    3      1.59      0.00
    0    4    3      1.81      0.00
   -4    5    3      2.10      0.00
   -3    5    3      2.01      0.00
   -2    5    3      1.97      0.00
   -1    5    3      2.07      0.00
    0    5    3      2.26      0.00
   -5    6    3      2.24      0.00
   -4    6    3      2.19      0.00
   -3    6    3      2.22      0.00
   -2    6    3      2.30      0.00
   -1    6    3      2.37      0.00
    0    6    3      2.27      0.00
   -6    7    3      1.81      0.00
   -5    7    3      1.85      0.00
   -4    7    3      1.96      0.00
   -3    7    3      2.12      0.00
   -2    7    3      2.15      0.00
   -1    7    3      1.98      0.00
    0    7    3      1.58      0.00
   -7    8    3      1.00      0.00
   -6    8    3      1.14      0.00
   -5    8    3      1.26      0.00
   -4    8    3      1.45      0.00
   -3    8    3      1.51      0.00
   -2    8    3      1.33      0.00
   -1    8    3      0.99      0.00
    0    8    3      0.63      0.00
   -8    9    3      0.35      0.00
   -7    9    3      0.54      0.00
   -6    9    3      0.62      0.00
   -5    9    3      0.72      0.00
   -4    9    3      0.77      0.00
   -3    9    3      0.60      0.00
   -2    9    3      0.31      0.00
   -1    9    3      0.10      0.00
    0    9    3      0.04      0.00
   -9   10    3      0.07      0.00
   -8   10    3      0.26      0.00
   -7   10    3      0.34      0.00
   -6   10    3      0.35      0.00
   -5   10    3      0.30      0.00
   -4   10    3      0.14      0.00
   -3   10    3     -0.11      0.00
   -2   10    3     -0.27      0.00
   -1   10    3     -0.23      0.00
    0   10    3     -0.12      0.00
  -10   11    3     -0.02      0.00
   -9   11    3      0.17      0.00
   -8   11    3      0.30      0.00
   -7   11    3      0.28      0.00
   -6   11    3      0.14      0.00
   -5   11    3     -0.04      0.00
   -4   11    3     -0.26      0.00
   -3   11    3     -0.42      0.00
   -2   11    3     -0.40      0.00
   -1   11    3     -0.25      0.00
    0   11    3     -0.15      0.00
  -11   12    3     -0.11      0.00
  -10   12    3      0.08      0.00
   -9   12    3      0.26      0.00
   -8   12    3      0.28      0.00
   -7   12    3      0.12      0.00
   -6   12    3     -0.11      0.00
   -5   12    3     -0.33      0.00
   -4   12    3     -0.49      0.00
   -3   12    3     -0.53      0.00
   -2   12    3     -0.41      0.00
   -1   12    3     -0.28      0.00
    0   12    3     -0.23      0.00
  -12   13    3     -0.16      0.00
  -11   13    3      0.00      0.00
  -10   13    3      0.18      0.00
   -9   13    3      0.25      0.00
   -8   13    3      0.12      0.00
   -7   13    3     -0.12      0.00
   -6   13    3     -0.35      0.00
   -5   13    3     -0.51      0.00
   -4   13    3     -0.61      0.00
   -3   13    3     -0.58      0.00
   -2   13    3     -0.44      0.00
   -1   13    3     -0.32      0.00
  -10   14    3      0.21      0.00
   -9   14    3      0.13      0.00
   -8   14    3     -0.07      0.00
   -7   14    3     -0.26      0.00
   -6   14    3     -0.40      0.00
   -5   14    3     -0.50      0.00
   -4   14    3     -0.55      0.00
    0    0    4     -1.04      0.00
    0    1    4     -0.49      0.00
   -1    2    4      0.34      0.00
    0    2    4      0.66      0.00
   -2    3    4      1.28      0.00
   -1    3    4      1.25      0.00
    0    3    4      1.48      0.00
   -3    4    4      1.67      0.00
   -2    4    4      1.59      0.00
   -1    4    4      1.53      0.00
    0    4    4      1.55      0.00
   -4    5    4      1.49      0.00
   -3    5    4      1.50      0.00
   -2    5    4      1.33      0.00
   -1    5    4      1.22      0.00
    0    5    4      1.21      0.00
   -5    6    4      1.10      0.00
   -4    6    4      1.15      0.00
   -3    6    4      1.00      0.00
   -2    6    4      0.84      0.00
   -1    6    4      0.84      0.00
    0    6    4      0.85      0.00
   -6    7    4      0.67      0.00
   -5    7    4      0.75      0.00
   -4    7    4      0.66      0.00
   -3    7    4      0.54      0.00
   -2    7    4      0.54      0.00
   -1    7    4      0.59      0.00
    0    7    4      0.50      0.00
   -7    8    4      0.27      0.00
   -6    8    4      0.38      0.00
   -5    8    4      0.38      0.00
   -4    8    4      0.32      0.00
   -3    8    4      0.33      0.00
   -2    8    4      0.40      0.00
   -1    8    4      0.33      0.00
    0    8    4      0.12      0.00
   -8    9    4      0.04      0.00
   -7    9    4      0.21      0.00
   -6    9    4      0.26      0.00
   -5    9    4      0.21      0.00
   -4    9    4      0.20      0.00
   -3    9    4      0.24      0.00
   -2    9    4      0.21      0.00
   -1    9    4      0.03      0.00
    0    9    4     -0.11      0.00
   -9   10    4      0.07      0.00
   -8   10    4      0.29      0.00
   -7   10    4      0.39      0.00
   -6   10    4      0.31      0.00
   -5   10    4      0.18      0.00
   -4   10    4      0.13      0.00
   -3   10    4      0.12      0.00
   -2   10    4      0.04      0.00
   -1   10    4     -0.10      0.00
    0   10    4     -0.09      0.00
  -10   11    4      0.15      0.00
   -9   11    4      0.44      0.00
   -8   11    4      0.60      0.00
   -7   11    4      0.50      0.00
   -6   11    4      0.25      0.00
   -5   11    4      0.07      0.00
   -4   11    4      0.03      0.00
   -3   11    4      0.04      0.00
   -2   11    4     -0.02      0.00
   -1   11    4     -0.07      0.00
    0   11    4     -0.01      0.00
  -11   12    4      0.10      0.00
  -10   12    4      0.37      0.00
   -9   12    4      0.58      0.00
   -8   12    4      0.53      0.00
   -7   12    4      0.25      0.00
   -6   12    4      0.00      0.00
   -5   12    4     -0.09      0.00
   -4   12    4     -0.05      0.00
   -3   12    4     -0.01      0.00
   -2   12    4     -0.02      0.00
   -1   12    4     -0.05      0.00
    0   12    4     -0.05      0.00
  -11   13    4      0.13      0.00
  -10   13    4      0.30      0.00
   -9   13    4      0.29      0.00
   -8   13    4      0.07      0.00
   -7   13    4     -0.17      0.00
   -6   13    4     -0.25      0.00
   -5   13    4     -0.20      0.00
   -4   13    4     -0.12      0.00
   -3   13    4     -0.08      0.00
   -2   13    4     -0.08      0.00
   -8   14    4     -0.31      0.00
   -7   14    4     -0.37      0.00
   -6   14    4     -0.30      0.00
    0    0    5     -2.30      0.00
    0    1    5     -1.91      0.00
   -1    2    5     -1.28      0.00
    0    2    5     -1.02      0.00
   -2    3    5     -0.54      0.00
   -1    3    5     -0.52      0.00
    0    3    5     -0.33      0.00
   -3    4    5     -0.24      0.00
   -2    4    5     -0.25      0.00
   -1    4    5     -0.25      0.00
    0    4    5     -0.32      0.00
   -4    5    5     -0.46      0.00
   -3    5    5     -0.41      0.00
   -2    5    5     -0.49      0.00
   -1    5    5     -0.63      0.00
    0    5    5     -0.77      0.00
   -5    6    5     -0.76      0.00
   -4    6    5     -0.66      0.00
   -3    6    5     -0.81      0.00
   -2    6    5     -1.03      0.00
   -1    6    5     -1.14      0.00
    0    6    5     -1.03      0.00
   -6    7    5     -0.74      0.00
   -5    7    5     -0.67      0.00
   -4    7    5     -0.84      0.00
   -3    7    5     -1.14      0.00
   -2    7    5     -1.27      0.00
   -1    7    5     -1.12      0.00
    0    7    5     -0.77      0.00
   -7    8    5     -0.41      0.00
   -6    8    5     -0.43      0.00
   -5    8    5     -0.58      0.00
   -4    8    5     -0.89      0.00
   -3    8    5     -1.04      0.00
   -2    8    5     -0.87      0.00
   -1    8    5     -0.54      0.00
    0    8    5     -0.24      0.00
   -8    9    5     -0.01      0.00
   -7    9    5     -0.13      0.00
   -6    9    5     -0.25      0.00
   -5    9    5     -0.48      0.00
   -4    9    5     -0.62      0.00
   -3    9    5     -0.46      0.00
   -2    9    5     -0.11      0.00
   -1    9    5      0.12      0.00
    0    9    5      0.19      0.00
   -9   10    5      0.26      0.00
   -8   10    5      0.12      0.00
   -7   10    5      0.02      0.00
   -6   10    5     -0.12      0.00
   -5   10    5     -0.22      0.00
   -4   10    5     -0.12      0.00
   -3   10    5      0.19      0.00
   -2   10    5      0.44      0.00
   -1   10    5      0.46      0.00
    0   10    5      0.36      0.00
  -10   11    5      0.31      0.00
   -9   11    5      0.27      0.00
   -8   11    5      0.20      0.00
   -7   11    5      0.15      0.00
   -6   11    5      0.11      0.00
   -5   11    5      0.13      0.00
   -4   11    5      0.30      0.00
   -3   11    5      0.50      0.00
   -2   11    5      0.54      0.00
   -1   11    5      0.41      0.00
    0   11    5      0.28      0.00
  -11   12    5      0.19      0.00
  -10   12    5      0.24      0.00
   -9   12    5      0.22      0.00
   -8   12    5      0.24      0.00
   -7   12    5      0.28      0.00
   -6   12    5      0.30      0.00
   -5   12    5      0.32      0.00
   -4   12    5      0.37      0.00
   -3   12    5      0.40      0.00
   -2   12    5      0.31      0.00
   -1   12    5      0.17      0.00
   -9   13    5      0.13      0.00
   -8   13    5      0.22      0.00
   -7   13    5      0.30      0.00
   -6   13    5      0.28      0.00
   -5   13    5      0.21      0.00
   -4   13    5      0.17      0.00
    0    0    6      0.05      0.00
    0    1    6      0.26      0.00
   -1    2    6      0.60      0.00
    0    2    6      0.75      0.00
   -2    3    6      1.00      0.00
   -1    3    6      1.03      0.00
    0    3    6      1.17      0.00
   -3    4    6      1.02      0.00
   -2    4    6      0.99      0.00
   -1    4    6      1.12      0.00
    0    4    6      1.07      0.00
   -4    5    6      0.55      0.00
   -3    5    6      0.46      0.00
   -2    5    6      0.52      0.00
   -1    5    6      0.63      0.00
    0    5    6      0.41      0.00
   -5    6    6     -0.04      0.00
   -4    6    6     -0.17      0.00
   -3    6    6     -0.31      0.00
   -2    6    6     -0.24      0.00
   -1    6    6     -0.18      0.00
    0    6    6     -0.25      0.00
   -6    7    6     -0.24      0.00
   -5    7    6     -0.35      0.00
   -4    7    6     -0.65      0.00
   -3    7    6     -0.84      0.00
   -2    7    6     -0.78      0.00
   -1    7    6     -0.60      0.00
    0    7    6     -0.35      0.00
   -7    8    6     -0.03      0.00
   -6    8    6     -0.06      0.00
   -5    8    6     -0.30      0.00
   -4    8    6     -0.65      0.00
   -3    8    6     -0.78      0.00
   -2    8    6     -0.62      0.00
   -1    8    6     -0.31      0.00
    0    8    6      0.01      0.00
   -8    9    6      0.18      0.00
   -7    9    6      0.19      0.00
   -6    9    6      0.16      0.00
   -5    9    6     -0.04      0.00
   -4    9    6     -0.21      0.00
   -3    9    6     -0.16      0.00
   -2    9    6      0.06      0.00
   -1    9    6      0.26      0.00
    0    9    6      0.31      0.00
   -9   10    6      0.11      0.00
   -8   10    6      0.06      0.00
   -7   10    6      0.14      0.00
   -6   10    6      0.23      0.00
   -5   10    6      0.27      0.00
   -4   10    6      0.34      0.00
   -3   10    6      0.50      0.00
   -2   10    6      0.60      0.00
   -1   10    6      0.51      0.00
    0   10    6      0.26      0.00
  -10   11    6     -0.05      0.00
   -9   11    6     -0.22      0.00
   -8   11    6     -0.24      0.00
   -7   11    6     -0.04      0.00
   -6   11    6      0.22      0.00
   -5   11    6      0.44      0.00
   -4   11    6      0.63      0.00
   -3   11    6      0.72      0.00
   -2   11    6      0.61      0.00
   -1   11    6      0.34      0.00
    0   11    6      0.07      0.00
   -9   12    6     -0.44      0.00
   -8   12    6     -0.38      0.00
   -7   12    6     -0.11      0.00
   -6   12    6      0.18      0.00
   -5   12    6      0.40      0.00
   -4   12    6      0.53      0.00
   -3   12    6      0.50      0.00
    0    0    7      1.70      0.00
    0    1    7      1.87      0.00
   -1    2    7      2.05      0.00
    0    2    7      2.11      0.00
   -2    3    7      2.11      0.00
   -1    3    7      2.05      0.00
    0    3    7      2.00      0.00
   -3    4    7      1.80      0.00
   -2    4    7      1.74      0.00
   -1    4    7      1.53      0.00
    0    4    7      1.37      0.00
   -4    5    7      1.15      0.00
   -3    5    7      1.22      0.00
   -2    5    7      0.89      0.00
   -1    5    7      0.59      0.00
    0    5    7      0.51      0.00
   -5    6    7      0.45      0.00
   -4    6    7      0.71      0.00
   -3    6    7      0.43      0.00
   -2    6    7     -0.03      0.00
   -1    6    7     -0.24      0.00
    0    6    7     -0.13      0.00
   -6    7    7      0.06      0.00
   -5    7    7      0.38      0.00
   -4    7    7      0.29      0.00
   -3    7    7     -0.14      0.00
   -2    7    7     -0.50      0.00
   -1    7    7     -0.52      0.00
    0    7    7     -0.27      0.00
   -7    8    7      0.02      0.00
   -6    8    7      0.27      0.00
   -5    8    7      0.37      0.00
   -4    8    7      0.15      0.00
   -3    8    7     -0.19      0.00
   -2    8    7     -0.34      0.00
   -1    8    7     -0.23      0.00
    0    8    7     -0.04      0.00
   -8    9    7      0.08      0.00
   -7    9    7      0.23      0.00
   -6    9    7      0.42      0.00
   -5    9    7      0.41      0.00
   -4    9    7      0.22      0.00
   -3    9    7      0.10      0.00
   -2    9    7      0.14      0.00
   -1    9    7      0.21      0.00
    0    9    7      0.14      0.00
   -9   10    7      0.00      0.00
   -8   10    7      0.10      0.00
   -7   10    7      0.29      0.00
   -6   10    7      0.38      0.00
   -5   10    7      0.32      0.00
   -4   10    7      0.28      0.00
   -3   10    7      0.37      0.00
   -2   10    7      0.46      0.00
   -1   10    7      0.35      0.00
    0   10    7      0.07      0.00
   -9   11    7     -0.07      0.00
   -8   11    7      0.09      0.00
   -7   11    7      0.19      0.00
   -6   11    7      0.14      0.00
   -5   11    7      0.09      0.00
   -4   11    7      0.19      0.00
   -3   11    7      0.37      0.00
   -2   11    7      0.38      0.00
    0    0    8     -0.23      0.00
    0    1    8     -0.03      0.00
   -1    2    8      0.25      0.00
    0    2    8      0.34      0.00
   -2    3    8      0.51      0.00
   -1    3    8      0.47      0.00
    0    3    8      0.50      0.00
   -3    4    8      0.53      0.00
   -2    4    8      0.48      0.00
   -1    4    8      0.33      0.00
    0    4    8      0.31      0.00
   -4    5    8      0.32      0.00
   -3    5    8      0.37      0.00
   -2    5    8      0.13      0.00
   -1    5    8     -0.07      0.00
    0    5    8     -0.02      0.00
   -5    6    8      0.10      0.00
   -4    6    8      0.22      0.00
   -3    6    8      0.04      0.00
   -2    6    8     -0.27      0.00
   -1    6    8     -0.37      0.00
    0    6    8     -0.20      0.00
   -6    7    8     -0.01      0.00
   -5    7    8      0.11      0.00
   -4    7    8      0.06      0.00
   -3    7    8     -0.18      0.00
   -2    7    8     -0.42      0.00
   -1    7    8     -0.40      0.00
    0    7    8     -0.17      0.00
   -7    8    8      0.00      0.00
   -6    8    8      0.04      0.00
   -5    8    8      0.08      0.00
   -4    8    8      0.04      0.00
   -3    8    8     -0.15      0.00
   -2    8    8     -0.33      0.00
   -1    8    8     -0.26      0.00
    0    8    8     -0.05      0.00
   -8    9    8      0.05      0.00
   -7    9    8      0.01      0.00
   -6    9    8      0.03      0.00
   -5    9    8      0.14      0.00
   -4    9    8      0.15      0.00
   -3    9    8     -0.03      0.00
   -2    9    8     -0.18      0.00
   -1    9    8     -0.11      0.00
    0    9    8      0.04      0.00
   -8   10    8      0.03      0.00
   -7   10    8     -0.02      0.00
   -6   10    8      0.06      0.00
   -5   10    8      0.21      0.00
   -4   10    8      0.19      0.00
   -3   10    8      0.02      0.00
   -2   10    8     -0.09      0.00
    0    0    9     -1.37      0.00
    0    1    9     -1.12      0.00
   -1    2    9     -0.74      0.00
    0    2    9     -0.58      0.00
   -2    3    9     -0.24      0.00
   -1    3    9     -0.28      0.00
    0    3    9     -0.11      0.00
   -3    4    9      0.13      0.00
   -2    4    9      0.00      0.00
   -1    4    9     -0.06      0.00
    0    4    9      0.07      0.00
   -4    5    9      0.28      0.00
   -3    5    9      0.22      0.00
   -2    5    9     -0.01      0.00
   -1    5    9     -0.08      0.00
    0    5    9      0.08      0.00
   -5    6    9      0.26      0.00
   -4    6    9      0.30      0.00
   -3    6    9      0.10      0.00
   -2    6    9     -0.12      0.00
   -1    6    9     -0.10      0.00
    0    6    9      0.08      0.00
   -6    7    9      0.15      0.00
   -5    7    9      0.23      0.00
   -4    7    9      0.15      0.00
   -3    7    9     -0.03      0.00
   -2    7    9     -0.11      0.00
   -1    7    9     -0.01      0.00
    0    7    9      0.10      0.00
   -7    8    9      0.05      0.00
   -6    8    9      0.05      0.00
   -5    8    9      0.07      0.00
   -4    8    9      0.02      0.00
   -3    8    9     -0.03      0.00
   -2    8    9      0.02      0.00
   -1    8    9      0.10      0.00
   -5    9    9     -0.02      0.00
   -4    9    9      0.00      0.00
    0    1   10      0.09      0.00
   -1    2   10      0.12      0.00
    0    2   10      0.12      0.00
   -2    3   10      0.04      0.00
   -1    3   10      0.08      0.00
    0    3   10      0.00      0.00
   -3    4   10     -0.16      0.00
   -2    4   10     -0.05      0.00
   -1    4   10     -0.02      0.00
    0    4   10     -0.17      0.00
   -4    5   10     -0.30      0.00
   -3    5   10     -0.18      0.00
   -2    5   10     -0.01      0.00
   -1    5   10     -0.02      0.00
    0    5   10     -0.20      0.00
   -5    6   10     -0.29      0.00
   -4    6   10     -0.21      0.00
   -3    6   10      0.02      0.00
   -2    6   10      0.17      0.00
   -1    6   10      0.09      0.00
   -2    3   11      0.62      0.00
   -1    3   11      0.62      0.00
    0    1    0     34.12      0.00
  -12   14    0      0.21      0.00
   -2   14    0      0.26      0.00
    0    0    1      9.40      0.00
   -2    3    1     -2.43      0.00
  -12   14    1      0.15      0.00
   -2   14    1      0.39      0.00
   -9   15    1      0.16      0.00
   -6   15    1     -0.13      0.00
    0    0    2     -7.07      0.00
    0    0    3      0.38      0.00
   -9   14    4     -0.13      0.00
   -5   14    4     -0.21      0.00
  -10   13    5      0.11      0.00
   -3   13    5      0.13      0.00
  -10   12    6     -0.28      0.00
   -2   12    6      0.31      0.00
   -6    9    9     -0.05      0.00
   -3    9    9      0.04      0.00
    0    0   10      0.05      0.00
    0    6   10     -0.11      0.00
   -4    7   10      0.04      0.00
   -3    7   10      0.24      0.00
    0    0   11      1.24      0.00
    0    1   11      1.15      0.00
   -1    2   11      0.96      0.00
    0    2   11      0.87      0.00
    0    3   11      0.46      0.00
    0    0    0      0.00      0.00
# SQUEEZE RESULTS
# Note: Data are Listed for all Voids in the P1 Unit Cell
# i.e. Centre of Gravity, Solvent Accessible Volume,
# Recovered number of Electrons in the Void and
# Details about the Squeezed Material
loop_
  _platon_squeeze_void_nr
  _platon_squeeze_void_average_x
  _platon_squeeze_void_average_y
  _platon_squeeze_void_average_z
  _platon_squeeze_void_volume
  _platon_squeeze_void_count_electrons
  _platon_squeeze_void_content
   1  0.000  0.000 -0.020       188        39 ' '
# Missing Reflections Below sin(th)/lambda= 0.25
loop_
  _platon_missing_refln_index_h
  _platon_missing_refln_index_k
  _platon_missing_refln_index_l
  _platon_missing_refln_theta
    0    1    0     2.020
    0    0    1     2.353
   -2    3    1     5.849
    0    0    2     4.709
    0    0    3     7.074
_platon_squeeze_void_probe_radius                  1.20
_platon_squeeze_details
)
TITL xray320   P 6/m        R = 0.03
CELL   11.6406   11.6406    8.6575     90.00     90.00    120.00
SPGR P6/m
# Solvent Accessible Volume =     194.8
# Electrons Found in S.A.V. =      37.0
# Note: Atoms in Void as Cxxx and Qxxx all others
C101 1.000 1.008 0.281 !       2.70 eA-3
Q102 0.748 0.109 0.001 !       1.79 eA-3
C103 1.000 1.000 0.000 !       1.48 eA-3
C104 0.909 0.980 0.160 !       1.19 eA-3
C105 0.043 0.879 0.070 !       1.08 eA-3
Q106 0.677 0.125-0.005 !       0.72 eA-3
)
;
_shelx_fab_checksum              34558
loop_
_space_group_symop_id
_space_group_symop_operation_xyz
1 +X,+Y,+Z
2 -Y,+X-Y,+Z
3 -X+Y,-X,+Z
4 -X,-Y,+Z
5 +Y,-X+Y,+Z
6 +X-Y,+X,+Z
7 -X,-Y,-Z
8 +Y,-X+Y,-Z
9 +X-Y,+X,-Z
10 +X,+Y,-Z
11 -Y,+X-Y,-Z
12 -X+Y,-X,-Z
loop_
_atom_site_label
_atom_site_type_symbol
_atom_site_fract_x
_atom_site_fract_y
_atom_site_fract_z
_atom_site_U_iso_or_equiv
_atom_site_adp_type
_atom_site_occupancy
_atom_site_site_symmetry_order
_atom_site_calc_flag
_atom_site_refinement_flags_posn
_atom_site_refinement_flags_adp
_atom_site_refinement_flags_occupancy
RB6 Rb 0.68697(3) 0.13053(3) 0.000000 0.01670(13) Uani 1 2 d S T P
O5 O 0.89604(15) 0.34665(15) 0.18408(19) 0.0142(3) Uani 1 1 d . . .
C1 C 1.0045(2) 0.3531(2) 0.4209(3) 0.0134(4) Uani 1 1 d . . .
H1 H 1.077154 0.355419 0.368244 0.016 Uiso 1 1 calc R U .
C2 C 0.89826(19) 0.34980(19) 0.3310(3) 0.0106(4) Uani 1 1 d . . .
C3 C 0.7913(2) 0.34315(19) 0.4209(2) 0.0097(4) Uani 1 1 d . . .
C4 C 0.666667 0.333333 0.3511(4) 0.0093(6) Uani 1 3 d S T P
H4 H 0.666666 0.333333 0.235585 0.011 Uiso 1 3 calc R U P
loop_
_atom_site_aniso_label
_atom_site_aniso_U_11
_atom_site_aniso_U_22
_atom_site_aniso_U_33
_atom_site_aniso_U_23
_atom_site_aniso_U_13
_atom_site_aniso_U_12
RB6 0.01872(18) 0.01290(17) 0.01283(19) 0.000 0.000 0.00365(12)
O5 0.0131(7) 0.0172(8) 0.0081(8) -0.0015(6) 0.0022(6) 0.0044(6)
C1 0.0101(9) 0.0144(10) 0.0145(11) -0.0010(8) 0.0013(8) 0.0052(8)
C2 0.0108(9) 0.0084(9) 0.0094(10) -0.0003(7) 0.0009(7) 0.0024(7)
C3 0.0105(9) 0.0094(9) 0.0089(10) 0.0001(7) 0.0002(7) 0.0047(7)
C4 0.0104(9) 0.0104(9) 0.0071(16) 0.000 0.000 0.0052(5)
loop_
_atom_type_symbol
_atom_type_description
_atom_type_scat_dispersion_real
_atom_type_scat_dispersion_imag
_atom_type_scat_source
C C 0.0033 0.0016
;
International Tables for Crystallography
(Vol. C, Tables 4.2.6.8 and 6.1.1.4)
;
H H 0.0000 0.0000
;
International Tables for Crystallography
(Vol. C, Table 6.1.1.4)
;
O O 0.0106 0.0060
;
International Tables for Crystallography
(Vol. C, Tables 4.2.6.8 and 6.1.1.4)
;
Rb Rb -0.9393 2.9676
;
International Tables for Crystallography
(Vol. C, Tables 4.2.6.8 and 6.1.1.4)
;
loop_
_geom_angle_atom_site_label_1
_geom_angle_atom_site_label_2
_geom_angle_atom_site_label_3
_geom_angle
_geom_angle_site_symmetry_1
_geom_angle_site_symmetry_3
O5 RB6 O5 67.71(7) 9_545 6_545
O5 RB6 O5 161.09(6) 9_545 .
O5 RB6 O5 110.06(6) 6_545 .
O5 RB6 O5 110.06(6) 9_545 10
O5 RB6 O5 161.09(6) 6_545 10
O5 RB6 O5 65.54(6) . 10
O5 RB6 O5 64.35(5) 9_545 12_665
O5 RB6 O5 98.49(4) 6_545 12_665
O5 RB6 O5 133.30(5) . 12_665
O5 RB6 O5 97.00(6) 10 12_665
O5 RB6 O5 98.49(4) 9_545 3_665
O5 RB6 O5 64.35(5) 6_545 3_665
O5 RB6 O5 96.99(6) . 3_665
O5 RB6 O5 133.30(5) 10 3_665
O5 RB6 O5 62.81(6) 12_665 3_665
O5 RB6 C2 16.73(5) 9_545 9_545
O5 RB6 C2 84.43(5) 6_545 9_545
O5 RB6 C2 155.95(4) . 9_545
O5 RB6 C2 94.41(5) 10 9_545
O5 RB6 C2 58.84(4) 12_665 9_545
O5 RB6 C2 106.72(5) 3_665 9_545
O5 RB6 C2 84.43(5) 9_545 6_545
O5 RB6 C2 16.73(5) 6_545 6_545
O5 RB6 C2 94.42(5) . 6_545
O5 RB6 C2 155.95(4) 10 6_545
O5 RB6 C2 106.72(5) 12_665 6_545
O5 RB6 C2 58.84(4) 3_665 6_545
C2 RB6 C2 101.15(7) 9_545 6_545
O5 RB6 RB6 51.47(3) 9_545 7_655
O5 RB6 RB6 51.47(3) 6_545 7_655
O5 RB6 RB6 142.77(3) . 7_655
O5 RB6 RB6 142.77(3) 10 7_655
O5 RB6 RB6 47.03(3) 12_665 7_655
O5 RB6 RB6 47.03(3) 3_665 7_655
C2 RB6 RB6 61.25(3) 9_545 7_655
C2 RB6 RB6 61.25(3) 6_545 7_655
O5 RB6 RB6 144.76(3) 9_545 2_655
O5 RB6 RB6 144.76(3) 6_545 2_655
O5 RB6 RB6 45.20(3) . 2_655
O5 RB6 RB6 45.20(3) 10 2_655
O5 RB6 RB6 91.00(3) 12_665 2_655
O5 RB6 RB6 91.00(3) 3_665 2_655
C2 RB6 RB6 128.55(3) 9_545 2_655
C2 RB6 RB6 128.55(3) 6_545 2_655
RB6 RB6 RB6 128.164(13) 7_655 2_655
O5 RB6 RB6 106.14(3) 9_545 3_665
O5 RB6 RB6 106.14(3) 6_545 3_665
O5 RB6 RB6 92.58(3) . 3_665
O5 RB6 RB6 92.58(3) 10 3_665
O5 RB6 RB6 43.09(3) 12_665 3_665
O5 RB6 RB6 43.09(3) 3_665 3_665
C2 RB6 RB6 101.89(3) 9_545 3_665
C2 RB6 RB6 101.89(3) 6_545 3_665
RB6 RB6 RB6 68.165(13) 7_655 3_665
RB6 RB6 RB6 60.0 2_655 3_665
O5 RB6 RB6 128.87(3) 9_545 8_665
O5 RB6 RB6 128.87(3) 6_545 8_665
O5 RB6 RB6 37.02(3) . 8_665
O5 RB6 RB6 37.02(3) 10 8_665
O5 RB6 RB6 132.64(3) 12_665 8_665
O5 RB6 RB6 132.64(3) 3_665 8_665
C2 RB6 RB6 118.97(3) 9_545 8_665
C2 RB6 RB6 118.97(3) 6_545 8_665
RB6 RB6 RB6 179.523(11) 7_655 8_665
RB6 RB6 RB6 51.359(10) 2_655 8_665
RB6 RB6 RB6 111.358(10) 3_665 8_665
C2 O5 RB6 122.95(13) . 8_665
C2 O5 RB6 124.19(13) . .
RB6 O5 RB6 104.68(5) 8_665 .
C2 O5 RB6 120.44(13) . 2_655
RB6 O5 RB6 81.51(4) 8_665 2_655
RB6 O5 RB6 91.71(5) . 2_655
C1 C1 C2 122.61(12) 10_556 .
C1 C1 H1 118.7 10_556 .
C2 C1 H1 118.7 . .
O5 C2 C3 122.36(19) . .
O5 C2 C1 122.98(19) . .
C3 C2 C1 114.59(19) . .
O5 C2 RB6 40.32(10) . 8_665
C3 C2 RB6 156.70(14) . 8_665
C1 C2 RB6 85.44(12) . 8_665
C3 C3 C2 122.79(12) 10_556 .
C3 C3 C4 113.39(15) 10_556 .
C2 C3 C4 123.8(2) . .
C3 C4 C3 105.28(17) . 3_665
C3 C4 C3 105.28(17) . 2_655
C3 C4 C3 105.28(17) 3_665 2_655
C3 C4 H4 113.4 . .
C3 C4 H4 113.4 3_665 .
C3 C4 H4 113.4 2_655 .
loop_
_geom_bond_atom_site_label_1
_geom_bond_atom_site_label_2
_geom_bond_distance
_geom_bond_site_symmetry_2
RB6 O5 2.8608(16) 9_545
RB6 O5 2.8608(16) 6_545
RB6 O5 2.9443(16) .
RB6 O5 2.9444(16) 10
RB6 O5 3.0586(17) 12_665
RB6 O5 3.0586(17) 3_665
RB6 C2 3.710(2) 9_545
RB6 C2 3.710(2) 6_545
RB6 RB6 3.8671(9) 7_655
RB6 RB6 4.3084(9) 2_655
RB6 RB6 4.3084(9) 3_665
RB6 RB6 4.5959(8) 8_665
O5 C2 1.272(3) .
O5 RB6 2.8608(16) 8_665
O5 RB6 3.0586(17) 2_655
C1 C1 1.369(4) 10_556
C1 C2 1.445(3) .
C1 H1 0.9500 .
C2 C3 1.437(3) .
C2 RB6 3.710(2) 8_665
C3 C3 1.370(4) 10_556
C3 C4 1.522(2) .
C4 C3 1.522(2) 3_665
C4 C3 1.522(2) 2_655
C4 H4 1.0000 .
loop_
_geom_torsion_atom_site_label_1
_geom_torsion_atom_site_label_2
_geom_torsion_atom_site_label_3
_geom_torsion_atom_site_label_4
_geom_torsion
_geom_torsion_site_symmetry_1
_geom_torsion_site_symmetry_4
RB6 O5 C2 C3 159.03(14) 8_665 .
RB6 O5 C2 C3 -57.3(3) . .
RB6 O5 C2 C3 58.9(2) 2_655 .
RB6 O5 C2 C1 -24.4(3) 8_665 .
RB6 O5 C2 C1 119.27(18) . .
RB6 O5 C2 C1 -124.56(18) 2_655 .
RB6 O5 C2 RB6 143.6(2) . 8_665
RB6 O5 C2 RB6 -100.18(15) 2_655 8_665
C1 C1 C2 O5 -178.31(14) 10_556 .
C1 C1 C2 C3 -1.5(2) 10_556 .
C1 C1 C2 RB6 166.15(7) 10_556 8_665
O5 C2 C3 C3 178.33(14) . 10_556
C1 C2 C3 C3 1.5(2) . 10_556
RB6 C2 C3 C3 -145.8(3) 8_665 10_556
O5 C2 C3 C4 -0.7(3) . .
C1 C2 C3 C4 -177.55(16) . .
RB6 C2 C3 C4 35.1(4) 8_665 .
C3 C3 C4 C3 -55.48(16) 10_556 3_665
C2 C3 C4 C3 123.6(3) . 3_665
C3 C3 C4 C3 55.49(16) 10_556 2_655
C2 C3 C4 C3 -125.4(3) . 2_655
