#------------------------------------------------------------------------------
#$Date: 2019-11-17 07:07:30 +0200 (Sun, 17 Nov 2019) $
#$Revision: 228576 $
#$URL: file:///home/coder/svn-repositories/cod/cif/7/12/25/7122595.cif $
#------------------------------------------------------------------------------
#
# This file is available in the Crystallography Open Database (COD),
# http://www.crystallography.net/
#
# All data on this site have been placed in the public domain by the
# contributors.
#
data_7122595
loop_
_publ_author_name
'Begum, Imtiaz'
'Schnakenburg, Gregor'
'Kelemen, Zsolt'
'Nyul\'aszi, L\'aszl\'o'
'Boer\'e, Ren\'e T'
'Streubel, Rainer'
_publ_section_title
;
 Expanding the chemistry of ring-fused 1,4-diphosphinines by stable mono
 anion formation.
;
_journal_issue                   96
_journal_name_full
'Chemical communications (Cambridge, England)'
_journal_page_first              13555
_journal_page_last               13558
_journal_paper_doi               10.1039/c8cc08158a
_journal_volume                  54
_journal_year                    2018
_chemical_formula_moiety         'C12 H14 Cl2 N2 P2 S4'
_chemical_formula_sum            'C12 H14 Cl2 N2 P2 S4'
_chemical_formula_weight         447.33
_chemical_name_systematic        IB-266
_space_group_crystal_system      triclinic
_space_group_IT_number           2
_space_group_name_Hall           '-P 1'
_space_group_name_H-M_alt        'P -1'
_symmetry_space_group_name_Hall  '-P 1'
_symmetry_space_group_name_H-M   'P -1'
_atom_sites_solution_hydrogens   geom
_atom_sites_solution_primary     dual
_audit_creation_date             2018-09-07
_audit_creation_method
;
Olex2 1.2
(compiled 2018.05.29 svn.r3508 for OlexSys, GUI svn.r5506)
;
_audit_update_record
;
2018-09-07 deposited with the CCDC.
2018-11-12 downloaded from the CCDC.
;
_cell_angle_alpha                84.231(6)
_cell_angle_beta                 88.651(6)
_cell_angle_gamma                88.674(6)
_cell_formula_units_Z            1
_cell_length_a                   6.5353(5)
_cell_length_b                   6.6119(4)
_cell_length_c                   10.7915(9)
_cell_measurement_reflns_used    1487
_cell_measurement_temperature    100.0
_cell_measurement_theta_max      29.5750
_cell_measurement_theta_min      3.1360
_cell_volume                     463.72(6)
_computing_cell_refinement
;
CrysAlisPro, Agilent Technologies,
Version 1.171.37.35t (release 13-08-2014 CrysAlis171 .NET)
(compiled Aug 13 2014,17:45:29)
;
_computing_data_collection
;
CrysAlisPro, Agilent Technologies,
Version 1.171.37.35t (release 13-08-2014 CrysAlis171 .NET)
(compiled Aug 13 2014,17:45:29)
;
_computing_data_reduction
;
CrysAlisPro, Agilent Technologies,
Version 1.171.37.35t (release 13-08-2014 CrysAlis171 .NET)
(compiled Aug 13 2014,17:45:29)
;
_computing_molecular_graphics    'Olex2 (Dolomanov et al., 2009)'
_computing_publication_material  'Olex2 (Dolomanov et al., 2009)'
_computing_structure_refinement  'XL (Sheldrick, 2008)'
_computing_structure_solution    'XT (Sheldrick, 2015)'
_diffrn_ambient_temperature      100.0
_diffrn_detector                 'image plate (34 cm diameter)'
_diffrn_detector_area_resol_mean 6.67
_diffrn_detector_type            STOE
_diffrn_measured_fraction_theta_full 0.982
_diffrn_measured_fraction_theta_max 0.981
_diffrn_measurement_details
;
#__ type_ start__ end____ width___ exp.time_
  1 omega   21.00  177.00   1.0000  240.0000
omega____ theta____ kappa____ phi______ frames
    -        0.0000    0.0000  102.0000 156
;
_diffrn_measurement_device       '2-circle goniometer'
_diffrn_measurement_device_type  'STOE IPDS 2T'
_diffrn_measurement_method       'rotation method'
_diffrn_orient_matrix_UB_11      0.0516861000
_diffrn_orient_matrix_UB_12      0.0460480000
_diffrn_orient_matrix_UB_13      0.0465895000
_diffrn_orient_matrix_UB_21      0.0588733000
_diffrn_orient_matrix_UB_22      -0.0906156000
_diffrn_orient_matrix_UB_23      0.0137213000
_diffrn_orient_matrix_UB_31      0.0751922000
_diffrn_orient_matrix_UB_32      0.0360427000
_diffrn_orient_matrix_UB_33      -0.0448036000
_diffrn_radiation_collimation    '0.5 mm diameter, monocapillary'
_diffrn_radiation_monochromator  'plane graphite'
_diffrn_radiation_polarisn_norm  0
_diffrn_radiation_probe          x-ray
_diffrn_radiation_type           MoK\a
_diffrn_radiation_wavelength     0.71073
_diffrn_reflns_av_R_equivalents  0.0234
_diffrn_reflns_av_unetI/netI     0.0636
_diffrn_reflns_Laue_measured_fraction_full 0.982
_diffrn_reflns_Laue_measured_fraction_max 0.981
_diffrn_reflns_limit_h_max       8
_diffrn_reflns_limit_h_min       -8
_diffrn_reflns_limit_k_max       8
_diffrn_reflns_limit_k_min       -8
_diffrn_reflns_limit_l_max       13
_diffrn_reflns_limit_l_min       -13
_diffrn_reflns_number            3033
_diffrn_reflns_point_group_measured_fraction_full 0.982
_diffrn_reflns_point_group_measured_fraction_max 0.981
_diffrn_reflns_theta_full        25.242
_diffrn_reflns_theta_max         25.988
_diffrn_reflns_theta_min         3.097
_diffrn_source
'sealed X-ray tube, 12 x 0.4 mm long-fine focus'
_diffrn_source_current           40
_diffrn_source_power             2.00
_diffrn_source_voltage           50
_exptl_absorpt_coefficient_mu    0.968
_exptl_absorpt_correction_T_max  1.00000
_exptl_absorpt_correction_T_min  0.85066
_exptl_absorpt_correction_type   multi-scan
_exptl_absorpt_process_details
;
CrysAlisPro, Agilent Technologies,
Version 1.171.37.35t (release 13-08-2014 CrysAlis171 .NET)
(compiled Aug 13 2014,17:45:29)
Empirical absorption correction using spherical harmonics,
 implemented in SCALE3 ABSPACK scaling algorithm.
;
_exptl_crystal_colour            'clear yellow'
_exptl_crystal_colour_lustre     clear
_exptl_crystal_colour_primary    yellow
_exptl_crystal_density_diffrn    1.602
_exptl_crystal_description       plank
_exptl_crystal_F_000             228
_exptl_crystal_size_max          0.3
_exptl_crystal_size_mid          0.16
_exptl_crystal_size_min          0.15
_refine_diff_density_max         0.575
_refine_diff_density_min         -0.609
_refine_diff_density_rms         0.110
_refine_ls_extinction_method     none
_refine_ls_goodness_of_fit_ref   1.046
_refine_ls_hydrogen_treatment    constr
_refine_ls_matrix_type           full
_refine_ls_number_parameters     102
_refine_ls_number_reflns         3033
_refine_ls_number_restraints     0
_refine_ls_restrained_S_all      1.046
_refine_ls_R_factor_all          0.0459
_refine_ls_R_factor_gt           0.0329
_refine_ls_shift/su_max          0.000
_refine_ls_shift/su_mean         0.000
_refine_ls_structure_factor_coef Fsqd
_refine_ls_weighting_details
'w=1/[\s^2^(Fo^2^)+(0.0525P)^2^] where P=(Fo^2^+2Fc^2^)/3'
_refine_ls_weighting_scheme      calc
_refine_ls_wR_factor_gt          0.1072
_refine_ls_wR_factor_ref         0.1225
_reflns_Friedel_coverage         0.000
_reflns_number_gt                2210
_reflns_number_total             3033
_reflns_threshold_expression     'I > 2\s(I)'
_cod_data_source_file            c8cc08158a2.cif
_cod_data_source_block           5379
_cod_depositor_comments
'Adding full bibliography for 7122593--7122597.cif.'
_cod_database_code               7122595
_shelx_shelxl_version_number     2014/7
_chemical_oxdiff_formula         'C12 H13 Cl2 N2 P2 S4'
_shelx_space_group_comment
;
The symmetry employed for this shelxl refinement is uniquely defined
by the following loop, which should always be used as a source of
symmetry information in preference to the above space-group names.
They are only intended as comments.
;
_shelx_estimated_absorpt_t_max   0.868
_shelx_estimated_absorpt_t_min   0.760
_diffrn_oxdiff_twin_integration_method simultaneous
_olex2_refinement_description
;
1. Twinned data refinement
 Scales: 0.9038(7)
 0.0962(7)
2. Fixed Uiso
 At 1.2 times of:
  All C(H,H) groups
 At 1.5 times of:
  All C(H,H,H) groups
3.a Secondary CH2 refined with riding coordinates:
 C4(H4A,H4B), C5(H5A,H5B)
3.b Idealised Me refined as rotating group:
 C6(H6A,H6B,H6C)
;
_shelx_res_file
;
    5379_twin1_hklf4.res created by SHELXL-2014/7

TITL 5379_twin1_hklf4_a.res in P-1
REM Old TITL 5379_twin1_hklf4 in P-1
REM SHELXT solution in P-1
REM R1 0.119, Rweak 0.008, Alpha 0.030, Orientation as input
REM Formula found by SHELXT: C6 N P S Cl2
CELL 0.71073 6.5353 6.6119 10.7915 84.231 88.651 88.674
ZERR 1 0.0005 0.0004 0.0009 0.006 0.006 0.006
LATT 1
SFAC C H Cl N P S
UNIT 12 14 2 2 2 4

L.S. 4 0 0
PLAN  20
SIZE 0.3 0.16 0.15
TEMP -173.15
BOND $H
list 4
fmap 2 53
ACTA
OMIT -2 52
OMIT -2 -4 2
OMIT 2 3 -1
OMIT 1 3 -3
OMIT -2 -5 3
OMIT 1 -1 -12
OMIT 1 5 -6
OMIT 1 1 0
OMIT 0 3 -10
OMIT 1 -4 -6
REM <olex2.extras>
REM <HklSrc "%.\\5379_twin1_hklf5.hkl">
REM </olex2.extras>

WGHT    0.052500
BASF   0.09624
FVAR       1.96370
CL1   3    0.120975    0.143296    0.845655    11.00000    0.01597    0.01362 =
         0.02629   -0.00650   -0.00241    0.00272
S1    6    0.411840    0.760437    1.017957    11.00000    0.01061    0.01218 =
         0.01756   -0.00258   -0.00268   -0.00140
S2    6    0.675279    0.836652    0.788234    11.00000    0.01648    0.01953 =
         0.02822   -0.00146    0.00536   -0.00487
P1    5   -0.043843    0.419733    0.841974    11.00000    0.01114    0.01391 =
         0.01283   -0.00361   -0.00269    0.00040
N1    4    0.315354    0.636744    0.812705    11.00000    0.01391    0.00983 =
         0.01217    0.00156   -0.00051    0.00113
C1    1    0.159565    0.571516    0.896771    11.00000    0.01071    0.00816 =
         0.01249    0.00273    0.00064    0.00130
C2    1    0.187340    0.627078    1.012107    11.00000    0.00894    0.01228 =
         0.01635   -0.00228   -0.00353    0.00121
C3    1    0.466033    0.739069    0.862728    11.00000    0.01694    0.01001 =
         0.01952   -0.00119   -0.00425    0.00534
C4    1    0.318478    0.601616    0.680275    11.00000    0.02097    0.01574 =
         0.01274   -0.00419    0.00111   -0.00119
AFIX  23
H4A   2    0.257322    0.468452    0.671178    11.00000   -1.20000
H4B   2    0.462107    0.596757    0.649262    11.00000   -1.20000
AFIX   0
C5    1    0.200594    0.767909    0.601942    11.00000    0.03105    0.01967 =
         0.01682    0.00292   -0.00054    0.00233
AFIX  23
H5A   2    0.055615    0.769371    0.630642    11.00000   -1.20000
H5B   2    0.258391    0.901749    0.613265    11.00000   -1.20000
AFIX   0
C6    1    0.211774    0.733907    0.464406    11.00000    0.05437    0.03693 =
         0.01656    0.00361   -0.00320    0.00499
AFIX 137
H6A   2    0.125170    0.835754    0.417188    11.00000   -1.50000
H6B   2    0.163646    0.597554    0.453800    11.00000   -1.50000
H6C   2    0.353701    0.746538    0.433738    11.00000   -1.50000
AFIX   0
HKLF 5

REM  5379_twin1_hklf4_a.res in P-1
REM R1 =  0.0329 for    2210 Fo > 4sig(Fo)  and  0.0459 for all    3033 data
REM    102 parameters refined using      0 restraints

END

WGHT      0.0525      0.0000

REM Highest difference peak  0.575,  deepest hole -0.609,  1-sigma level  0.110
Q1    1   0.4342  0.7011  0.9652  11.00000  0.05    0.57
Q2    1   0.2931  0.6681  1.0231  11.00000  0.05    0.45
Q3    1   0.4573  0.8106  0.9136  11.00000  0.05    0.44
Q4    1   0.1330  0.6412  1.0565  11.00000  0.05    0.43
Q5    1   0.0796  0.4846  0.8492  11.00000  0.05    0.41
Q6    1   0.6573  0.8590  0.9067  11.00000  0.05    0.41
Q7    1   0.4986  0.6868  0.8597  11.00000  0.05    0.41
Q8    1   0.5308  0.7812  0.8211  11.00000  0.05    0.41
Q9    1   0.1097  0.2780  0.7615  11.00000  0.05    0.39
Q10   1   0.7090  0.9269  0.8509  11.00000  0.05    0.39
Q11   1   0.3145  0.6064  0.7609  11.00000  0.05    0.38
Q12   1  -0.0482  0.4390  0.7280  11.00000  0.05    0.36
Q13   1   0.2346  0.5600  0.8546  11.00000  0.05    0.35
Q14   1   0.3242  0.5540  0.8435  11.00000  0.05    0.35
Q15   1   0.1786  0.5075  0.9229  11.00000  0.05    0.34
Q16   1   0.2041  0.6848  0.5394  11.00000  0.05    0.34
Q17   1   0.1523  0.1692  0.7378  11.00000  0.05    0.34
Q18   1   0.0367  0.3009  0.8705  11.00000  0.05    0.34
Q19   1   0.0383  0.0736  0.7769  11.00000  0.05    0.34
Q20   1  -0.1120  0.4002  0.7140  11.00000  0.05    0.33
;
_shelx_res_checksum              86991
_shelx_hkl_file
;
   0   0   4 543.817 55.0355  -2
   0   0  -4 543.817 55.0355   1
   0   0   5 8027.30 231.904  -2
   0   0  -5 8027.30 231.904   1
   0   0   6 10358.6 291.772  -2
   0   0  -6 10358.6 291.772   1
   0   0   7 2981.58 115.039  -2
   0   0  -7 2981.58 115.039   1
   0   0   8 58.6886 21.4134  -2
   0   0  -8 58.6886 21.4134   1
   0   0   9-1.27214 15.7710  -2
   0   0  -9-1.27214 15.7710   1
   0   0  10 28.7985 21.4163  -2
   0   0 -10 28.7985 21.4163   1
   0   0  11 34.9007 24.6828  -2
   0   0 -11 34.9007 24.6828   1
   0   0  12 216.718 46.3570  -2
   0   0 -12 216.718 46.3570   1
   0   0  13 1313.21 108.457  -2
   0   0 -13 1313.21 108.457   1
   0   0  14 22.0600 35.3992  -2
   0   0 -14 22.0600 35.3992   1
   0   0  15-0.22157 17.3378  -2
   0   0 -15-0.22157 17.3378   1
   0   1 -15-0.04502 5.71019   1
   0   1 -14 369.586 47.1352   1
   0   1 -13 77.5829 24.0887   1
   0   1 -12 434.109 43.9839   1
   0   1 -11 15.3160 15.2222   1
   0   1 -10 49.7251 17.1266   1
   0   1  -9 2483.39 85.1512   1
   0   1  -8 2921.01 86.3666   1
   0   1  -7 3975.50 132.336   1
   0   1  -6 29.0904 13.8495   1
   0   1  -5 252.866 29.2270   1
   0   1  -4 18.2989 9.30554   1
   0   1  -3 1580.53 39.5888   1
   0   1  -2 1171.56 30.1224   1
   0  -1   1 247.079 12.6184   1
   0   1   0 2198.42 35.8896   1
   0  -1  -1 3213.84 47.6289   1
   0   1   2 538.320 22.8505   1
   0   1   3 1485.01 43.0805   1
   0   1   4 823.411 36.1955   1
   0  -1  -5 534.470 32.6102   1
   0  -1  -6 2830.47 113.271   1
   0  -1  -7 918.466 70.1549   1
   0  -1  -8 4515.56 165.097   1
   0  -1  -9 4021.20 165.621   1
   0  -1 -10 6.07359 18.4100   1
   0  -1 -11 634.184 52.4392   1
   0  -1 -12 40.0691 20.3006   1
   0  -1 -13 541.726 54.8660   1
   0  -1 -14 2069.00 106.551   1
   0  -1 -15 510.406 57.3156   1
   0  -1 -16-0.05427 7.77012   1
   0   2 -15-0.04280 5.64151   1
   0   2 -14 35.8887 26.6186   1
   0   2 -13 177.725 34.1345   1
   0   2 -12 29.5338 18.7244   1
   0   2 -11-2.49667 11.0596   1
   0   2 -10 18.4258 17.3044   1
   0   2  -9 167.017 34.5083   1
   0   2  -8 653.927 60.4187   1
   0   2  -7 183.181 31.4536   1
   0  -2   6 256.904 24.0123   1
   0  -2   5 355.547 25.8353   1
   0  -2   4 3894.30 77.9175   1
   0  -2   3 1512.65 45.9552   1
   0  -2   2 3067.51 61.6851   1
   0   2  -1 759.086 30.1311   1
   0   2   0 8377.86 99.5345   1
   0  -2  -1 252.098 18.5829   1
   0   2   2 995.838 38.1319   1
   0   2   3 76.9036 12.8509   1
   0   2   4 292.304 24.8872   1
   0  -2  -5 7551.82 130.335   1
   0  -2  -6 2070.22 73.3465   1
   0   2   7 25.5747 12.5919   1
   0  -2  -8 22.0320 19.3381   1
   0  -2  -9 317.327 51.1551   1
   0  -2 -10 425.126 61.9354   1
   0  -2 -11 100.852 37.0805   1
   0  -2 -12 316.786 60.8736   1
   0  -2 -13 64.9136 39.8561   1
   0  -2 -14 31.6978 28.5242   1
   0  -2 -15 9.09207 9.00590   1
   0  -2 -16-0.05776 8.35819   1
   0   3  15-0.07983 7.73969  -2
   0   3 -14-0.07983 7.73969   1
   0   3  14 7.63111 28.1459  -2
   0   3 -13 7.63111 28.1459   1
   0   3  13 1410.75 107.003  -2
   0   3 -12 1410.75 107.003   1
   0   3  12 2064.64 175.981  -2
   0   3 -11 2064.64 175.981   1
   0   3  11 0.65005 21.7277  -2
   0   3 -10 0.65005 21.7277   1
   0   3  10 36.4628 28.7534  -2
   0   3  -9 36.4628 28.7534   1
   0   3   9 1452.11 129.202  -2
   0   3  -8 1452.11 129.202   1
   0   3   8 255.606 38.4789  -2
   0   3  -7 255.606 38.4789   1
   0  -3  -7 204.591 33.0864  -2
   0  -3   6 204.591 33.0864   1
   0  -3  -6 1126.90 70.5250  -2
   0  -3   5 1126.90 70.5250   1
   0   3   5 4082.92 128.863  -2
   0   3  -4 4082.92 128.863   1
   0   3   4 1596.88 78.3989  -2
   0   3  -3 1596.88 78.3989   1
   0  -3  -3 264.402 32.3360  -2
   0  -3   2 264.402 32.3360   1
   0  -3  -2 3061.23 85.6693  -2
   0  -3   1 3061.23 85.6693   1
   0  -3  -1 3654.44 114.759  -2
   0  -3   0 3654.44 114.759   1
   0   3   0 405.603 40.4668  -2
   0   3   1 405.603 40.4668   1
   0  -3   1 5636.26 123.430  -2
   0  -3  -2 5636.26 123.430   1
   0   3  -2 2439.12 85.2073  -2
   0   3   3 2439.12 85.2073   1
   0   3  -3 1514.83 86.1552  -2
   0   3   4 1514.83 86.1552   1
   0   3  -4 7889.97 206.048  -2
   0   3   5 7889.97 206.048   1
   0   3  -5 1127.32 82.8197  -2
   0   3   6 1127.32 82.8197   1
   0  -3   6 134.643 33.5102  -2
   0  -3  -7 134.643 33.5102   1
   0   3  -7 1278.13 97.4299  -2
   0   3   8 1278.13 97.4299   1
   0  -3   8 272.326 49.9306  -2
   0  -3  -9 272.326 49.9306   1
   0  -3   9 472.467 95.3225  -2
   0  -3 -10 472.467 95.3225   1
   0  -3  10 952.942 136.842  -2
   0  -3 -11 952.942 136.842   1
   0  -3  11 1601.31 181.225  -2
   0  -3 -12 1601.31 181.225   1
   0  -3  12 972.482 150.609  -2
   0  -3 -13 972.482 150.609   1
   0  -3  13 123.010 77.7773  -2
   0  -3 -14 123.010 77.7773   1
   0  -3  14-0.11819 14.4202  -2
   0  -3 -15-0.11819 14.4202   1
   0  -3  15-0.12838 14.3356  -2
   0  -3 -16-0.12838 14.3356   1
   0   4 -13-0.03931 4.98698   1
   0   4 -12 228.222 52.9247   1
   0   4 -11 539.184 70.1868   1
   0   4 -10 7.34602 17.9678   1
   0   4  -9 1470.74 103.790   1
   0  -4   8 5236.99 132.041   1
   0   4  -7 813.862 51.1687   1
   0  -4   6 1508.94 67.0017   1
   0   4  -5 1596.36 66.7471   1
   0  -4   4 242.867 26.6800   1
   0  -4   3 5456.78 117.611   1
   0  -4   2 8701.91 146.296   1
   0  -4   1 84.7001 16.3680   1
   0  -4   0 1233.80 55.7902   1
   0  -4  -1 435.485 34.2988   1
   0   4   2 1351.84 60.7066   1
   0   4   3 2100.41 77.8060   1
   0  -4  -4 2077.40 80.2730   1
   0  -4  -5 1231.31 64.8209   1
   0  -4  -6 19.3664 14.0861   1
   0   4   7 414.310 42.4899   1
   0  -4  -8 872.634 62.7913   1
   0   4   9 142.308 29.8763   1
   0  -4 -10 1032.11 74.3963   1
   0  -4 -11 1629.59 136.720   1
   0  -4 -12 28.6076 37.1509   1
   0  -4 -13 419.111 81.7629   1
   0  -4 -14 775.247 111.452   1
   0  -4 -15-0.06532 12.1834   1
   0   5 -12-0.04040 7.19874   1
   0   5 -11 359.511 64.8345   1
   0   5 -10-1.43401 24.3652   1
   0  -5   9 19.5808 17.4964   1
   0  -5   8 98.8829 23.8096   1
   0   5  -7 409.700 40.7794   1
   0   5  -6 287.383 34.0009   1
   0  -5   5 116.824 23.0430   1
   0  -5   4 101.376 21.5219   1
   0  -5   3 496.476 58.7299   1
   0   5   5 777.256 73.5235  -2
   0   5  -3 777.256 73.5235   1
   0   5  -2 53.6853 16.6624   1
   0  -5   1 136.104 23.1989   1
   0  -5   0 2594.68 91.7744   1
   0  -5  -1 1197.05 63.5294   1
   0  -5  -2 98.5579 21.2772   1
   0  -5  -3 811.381 54.9653   1
   0   5   4 51.1503 18.3069   1
   0  -5  -5 2958.40 109.736   1
   0  -5  -6 3784.84 128.508   1
   0   5   7 1366.73 80.9829   1
   0   5   8 317.984 42.9016   1
   0   5   9 6.25446 18.3360   1
   0  -5 -10 404.138 52.2948   1
   0   5  11 578.036 64.0570   1
   0  -5 -12 840.537 112.996   1
   0  -5 -13 125.591 62.3197   1
   0  -5 -14-0.06734 11.5854   1
   0   6  13-0.08631 11.9450  -2
   0   6 -11-0.08631 11.9450   1
   0   6  12 39.1295 52.9416  -2
   0   6 -10 39.1295 52.9416   1
   0   6  11 22.6802 33.1637  -2
   0   6  -9 22.6802 33.1637   1
   0  -6 -10 104.232 39.4469  -2
   0  -6   8 104.232 39.4469   1
   0  -6  -9 586.961 72.7561  -2
   0  -6   7 586.961 72.7561   1
   0   6   8 960.428 91.2692  -2
   0   6  -6 960.428 91.2692   1
   0   6   7 530.398 68.4262  -2
   0   6  -5 530.398 68.4262   1
   0   6   6 227.069 46.4781  -2
   0   6  -4 227.069 46.4781   1
   0  -6  -5 666.979 74.6158  -2
   0  -6   3 666.979 74.6158   1
   0  -6  -4 943.155 87.4961  -2
   0  -6   2 943.155 87.4961   1
   0   6   3 70.3615 25.1550  -2
   0   6  -1 70.3615 25.1550   1
   0   6   2 920.821 71.8939  -2
   0   6   0 920.821 71.8939   1
   0   6   1 1758.98 99.2645  -2
   0   6   1 1758.98 99.2645   1
   0  -6   0 2324.52 140.178  -2
   0  -6  -2 2324.52 140.178   1
   0  -6   1 588.015 73.7510  -2
   0  -6  -3 588.015 73.7510   1
   0  -6   2 956.219 94.4871  -2
   0  -6  -4 956.219 94.4871   1
   0   6  -3 1192.21 107.719  -2
   0   6   5 1192.21 107.719   1
   0   6  -4 118.339 41.6447  -2
   0   6   6 118.339 41.6447   1
   0   6  -5 2268.42 156.652  -2
   0   6   7 2268.42 156.652   1
   0   6  -6 874.070 102.048  -2
   0   6   8 874.070 102.048   1
   0  -6   7 128.944 48.7958  -2
   0  -6  -9 128.944 48.7958   1
   0   6  -8 508.458 87.1395  -2
   0   6  10 508.458 87.1395   1
   0   6  -9 206.517 65.9002  -2
   0   6  11 206.517 65.9002   1
   0  -6  10 17.5734 45.1347  -2
   0  -6 -12 17.5734 45.1347   1
   0   7  12-0.09418 9.97534  -2
   0   7 -10-0.09418 9.97534   1
   0  -7   9-0.04607 7.73406   1
   0   7  11 0.04562 12.4516  -2
   0   7  -9 0.04562 12.4516   1
   0  -7   8 11.6468 38.8867   1
   0   7  10 118.210 63.5594  -2
   0   7  -8 118.210 63.5594   1
   0  -7   7 451.556 74.7187   1
   0   7   9 683.909 95.4896  -2
   0   7  -7 683.909 95.4896   1
   0  -7   6 1036.70 105.536   1
   0   7   8 1131.14 113.572  -2
   0   7  -6 1131.14 113.572   1
   0  -7   5 40.8347 33.7062   1
   0   7   7 37.2462 44.3666  -2
   0   7  -5 37.2462 44.3666   1
   0  -7   4 1332.61 118.090   1
   0   7   6 1422.55 122.591  -2
   0   7  -4 1422.55 122.591   1
   0  -7   3 2936.56 172.038   1
   0   7   5 2950.18 171.217  -2
   0   7  -3 2950.18 171.217   1
   0  -7   2 195.651 49.4903   1
   0   7   4 287.635 61.6832  -2
   0   7  -2 287.635 61.6832   1
   0  -7   1 572.131 78.3982   1
   0   7   3 873.148 96.5516  -2
   0   7  -1 873.148 96.5516   1
   0   7   0 1305.16 81.3530   1
   0  -7  -1 14.5167 26.2624   1
   0   7   1 26.7622 36.9459  -2
   0   7   1 26.7622 36.9459   1
   0   7   2 2089.06 104.614   1
   0   7   3 2627.34 118.978   1
   0   7   4 707.021 64.7493   1
   0   7   5 631.912 88.6142   1
   0  -7   3 962.617 114.135  -2
   0  -7  -5 962.617 114.135   1
   0  -7  -6 9.85204 21.9395   1
   0   7   7 18.3968 33.0859   1
   0  -7   5 3.30269 50.4762  -2
   0  -7  -7 3.30269 50.4762   1
   0   7   8 75.7274 32.9402   1
   0   7   9 823.879 81.4230   1
   0  -7 -10 1341.95 105.020   1
   0   8  -8-0.05249 7.67741   1
   0  -8   7-0.05212 6.61226   1
   0  -8   6 832.772 72.7234   1
   0  -8   5 1340.08 92.0836   1
   0  -8   4 771.696 71.3364   1
   0  -8   3 34.2702 39.0343   1
   0   8   6 59.7065 53.8295  -2
   0   8  -3 59.7065 53.8295   1
   0  -8   2 48.3035 40.4968   1
   0   8   5 50.3999 51.1065  -2
   0   8  -2 50.3999 51.1065   1
   0   8   4 74.0029 38.0289  -2
   0   8  -1 74.0029 38.0289   1
   0  -8   0 487.016 57.4744   1
   0   8   1 464.050 56.8845   1
   0  -8  -2 1051.53 83.1019   1
   0  -8  -3 765.735 73.0411   1
   0  -8  -4 63.1565 31.9426   1
   0   8   5 164.897 59.4579   1
   0  -8   2 171.697 72.5095  -2
   0  -8  -5 171.697 72.5095   1
   0   8   6-5.30959 38.4729   1
   0  -8   3 9.81995 60.9204  -2
   0  -8  -6 9.81995 60.9204   1
   0   8   7 673.111 108.279   1
   0  -8   4 659.308 116.654  -2
   0  -8  -7 659.308 116.654   1
   0   8   8 1191.70 101.493   1
   0  -9  -8-0.12001 12.2353  -2
   0  -9   5-0.12001 12.2353   1
   0  -9  -7-0.11970 11.1283  -2
   0  -9   4-0.11970 11.1283   1
   0  -9  -6-0.11992 10.2208  -2
   0  -9   3-0.11992 10.2208   1
   0  -9  -5 33.3822 16.9219  -2
   0  -9   2 33.3822 16.9219   1
   0   9   4 39.5653 50.0323  -2
   0   9  -1 39.5653 50.0323   1
   0   9   3 83.7441 56.7928  -2
   0   9   0 83.7441 56.7928   1
   0  -9  -2 22.0904 43.0796  -2
   0  -9  -1 22.0904 43.0796   1
   0  -9  -1 324.229 81.1874  -2
   0  -9  -2 324.229 81.1874   1
   0   9   0 460.189 92.9659  -2
   0   9   3 460.189 92.9659   1
   0   9  -1 135.990 65.4412  -2
   0   9   4 135.990 65.4412   1
   1   9   0 629.514 103.599  -2
  -1   9   3 629.514 103.599   1
   1   9   1 517.563 96.2877  -2
  -1   9   2 517.563 96.2877   1
  -1  -9  -2 43.9389 53.1746  -2
   1  -9  -1 43.9389 53.1746   1
  -1  -9  -3 19.7191 50.2291  -2
   1  -9   0 19.7191 50.2291   1
  -1  -9  -4-0.57425 33.4204  -2
   1  -9   1-0.57425 33.4204   1
  -1  -9  -5-0.12703 10.2022  -2
   1  -9   2-0.12703 10.2022   1
  -1   8   8 153.761 48.2509   1
  -1   8   7-1.25348 30.9112   1
   1  -8  -6 45.2209 33.8045   1
   1  -8  -5 266.286 49.5561   1
   1  -8  -4 14.8370 27.4232   1
  -1   8   3 22.5337 26.7239   1
  -1   8   2 3.68824 23.7663   1
   1  -8  -1 39.1495 27.5642   1
  -1   8   0-4.22900 24.2181   1
  -1   8  -1 230.234 60.9259   1
  -1  -8  -4 433.231 88.1909  -2
   1  -8   1 433.231 88.1909   1
   1  -8   2 892.710 111.584   1
   1   8   5 1300.00 133.911  -2
  -1   8  -2 1300.00 133.911   1
   1  -8   3 529.539 90.3372   1
   1   8   6 646.399 101.678  -2
  -1   8  -3 646.399 101.678   1
   1  -8   4 7.35074 40.0622   1
   1   8   7-3.10542 56.6110  -2
  -1   8  -4-3.10542 56.6110   1
   1  -8   5 183.866 64.0163   1
   1   8   8 245.287 79.9548  -2
  -1   8  -5 245.287 79.9548   1
   1  -8   6 6.95457 17.3774   1
   1   8   9 5.76531 16.5152  -2
  -1   8  -6 5.76531 16.5152   1
   1  -8   7-0.05829 10.5196   1
   1   8  10-0.11470 14.7390  -2
  -1   8  -7-0.11470 14.7390   1
   1  -8   8-0.05889 11.6745   1
  -1   7  11-0.06830 7.57563   1
   1  -7 -10 8.63933 33.9622   1
  -1   7   9 378.436 58.8774   1
  -1   7   8 158.773 40.9712   1
   1  -7  -7 838.780 76.2957   1
   1  -7  -6 5415.32 181.588   1
  -1   7   5 2752.69 127.561   1
   1  -7  -4 154.753 49.6058   1
   1   7  -2 137.212 53.4508  -2
  -1   7   4 137.212 53.4508   1
   1  -7  -3 1284.38 85.1398   1
   1  -7  -2 285.447 42.5753   1
   1  -7  -1 1157.88 113.859   1
   1   7   1 1226.39 116.840  -2
  -1   7   1 1226.39 116.840   1
  -1   7   0 4835.71 158.865   1
   1  -7   1 1203.37 80.4128   1
   1  -7   2 117.882 30.3843   1
   1  -7   3 45.8145 35.3020   1
   1   7   5 55.9427 43.4675  -2
  -1   7  -3 55.9427 43.4675   1
   1  -7   4 1.22288 29.3083   1
   1   7   6 62.0031 46.0078  -2
  -1   7  -4 62.0031 46.0078   1
   1  -7   5 2.41118 21.4971   1
   1  -7   6 60.4320 28.5878   1
   1  -7   7 342.331 50.2109   1
  -1   7  -8 141.920 39.5755   1
  -1   7  -9-0.05303 6.36807   1
  -1   7 -10-0.05500 7.83455   1
   1   6 -10 47.8899 50.9017  -2
  -1   6  12 47.8899 50.9017   1
   1   6  -9 450.302 81.7180  -2
  -1   6  11 450.302 81.7180   1
   1   6  -8 106.179 49.2154  -2
  -1   6  10 106.179 49.2154   1
  -1  -6   7 624.176 85.9863  -2
   1  -6  -9 624.176 85.9863   1
  -1  -6   6 1301.14 115.280  -2
   1  -6  -8 1301.14 115.280   1
   1   6  -5 618.014 78.9542  -2
  -1   6   7 618.014 78.9542   1
   1   6  -4 18.9199 27.9185  -2
  -1   6   6 18.9199 27.9185   1
   1   6  -3 59.7553 29.9759  -2
  -1   6   5 59.7553 29.9759   1
   1   6  -2 747.394 81.1930  -2
  -1   6   4 747.394 81.1930   1
   1   6  -1 403.604 56.3534  -2
  -1   6   3 403.604 56.3534   1
   1   6   0 132.627 34.3849  -2
  -1   6   2 132.627 34.3849   1
  -1  -6  -1 66.7748 30.3709  -2
   1  -6  -1 66.7748 30.3709   1
   1   6   2 897.484 86.8256  -2
  -1   6   0 897.484 86.8256   1
   1   6   3 150.160 36.5171  -2
  -1   6  -1 150.160 36.5171   1
  -1  -6  -4 3001.02 157.962  -2
   1  -6   2 3001.02 157.962   1
   1   6   5 2554.74 148.538  -2
  -1   6  -3 2554.74 148.538   1
  -1  -6  -6 69.0877 31.7382  -2
   1  -6   4 69.0877 31.7382   1
  -1  -6  -7 1269.44 108.177  -2
   1  -6   5 1269.44 108.177   1
   1   6   8 622.938 79.3469  -2
  -1   6  -6 622.938 79.3469   1
  -1  -6  -9 747.207 88.4912  -2
   1  -6   7 747.207 88.4912   1
  -1  -6 -10 2578.11 161.497  -2
   1  -6   8 2578.11 161.497   1
  -1  -6 -11 1855.08 140.693  -2
   1  -6   9 1855.08 140.693   1
   1   6  12 79.5245 67.9932  -2
  -1   6 -10 79.5245 67.9932   1
   1   6  13-0.10244 13.3047  -2
  -1   6 -11-0.10244 13.3047   1
   1  -5 -14-0.06402 11.3852   1
   1  -5 -13 473.531 91.3064   1
   1  -5 -12 1.23142 27.4172   1
   1  -5 -11 93.8211 32.5485   1
   1  -5 -10 440.384 53.2529   1
   1  -5  -9 202.154 36.9421   1
  -1   5   8 11.6732 17.8469   1
  -1   5   7 23.7902 17.5668   1
  -1   5   6 317.636 39.1176   1
  -1   5   5 1115.63 68.0522   1
   1  -5  -4 714.849 53.6305   1
   1  -5  -3 10.9677 12.8921   1
   1  -5  -2 42.9216 16.6008   1
   1  -5  -1 682.109 49.8636   1
  -1   5   0 2512.38 93.5522   1
   1  -5   1 19.6961 14.0671   1
   1  -5   2 20.3726 14.3109   1
   1  -5   3 134.678 35.7778   1
   1   5   5 134.939 39.0293  -2
  -1   5  -3 134.939 39.0293   1
   1  -5   4 34.5536 23.8013   1
   1   5   6 62.7178 32.8227  -2
  -1   5  -4 62.7178 32.8227   1
   1  -5   5 69.1747 20.7976   1
  -1   5  -6 46.7865 19.1906   1
   1  -5   7 78.2750 23.4634   1
   1  -5   8 61.1488 22.7482   1
   1  -5   9 431.492 48.6042   1
  -1   5 -10-2.75171 30.1067   1
  -1   5 -11 512.903 81.9138   1
  -1   5 -12-0.04898 8.41981   1
  -1   5 -13-0.05143 10.8919   1
   1  -4 -15-0.06048 11.9844   1
   1  -4 -14 190.670 53.5949   1
   1  -4 -13 5.56185 38.4609   1
   1  -4 -12 373.516 72.0027   1
  -1   4  11 352.342 46.6855   1
   1  -4 -10 535.203 53.2715   1
   1  -4  -9 196.867 33.0846   1
   1  -4  -8 234.850 33.8080   1
   1  -4  -7 531.273 46.6024   1
   1  -4  -6 3058.20 104.163   1
   1  -4  -5 353.324 35.4841   1
   1  -4  -4 716.921 47.8252   1
   1  -4  -3 2632.30 87.8842   1
   1  -4  -2 183.864 24.2008   1
   1  -4  -1 5816.35 126.226   1
  -1   4   0 3831.83 102.166   1
   1  -4   1 844.709 48.8355   1
   1  -4   2 104.631 19.1619   1
   1  -4   3 94.6551 19.0979   1
  -1   4  -4 1515.53 69.0611   1
   1  -4   5 2092.11 82.8664   1
   1  -4   6 841.035 54.9946   1
  -1   4  -7 1310.52 70.2069   1
  -1   4  -8 115.816 25.2898   1
  -1   4  -9 29.0766 26.3554   1
  -1   4 -10 122.047 41.8756   1
  -1   4 -11 122.280 44.4292   1
  -1   4 -12 448.226 76.2477   1
  -1   4 -13-0.04826 8.45808   1
  -1   4 -14-0.05109 7.02808   1
  -1  -3  14-0.10685 14.0891  -2
   1  -3 -15-0.10685 14.0891   1
  -1  -3  13 1983.35 201.648  -2
   1  -3 -14 1983.35 201.648   1
  -1  -3  12 943.026 132.612  -2
   1  -3 -13 943.026 132.612   1
  -1  -3  11 637.002 106.772  -2
   1  -3 -12 637.002 106.772   1
  -1  -3  10 780.466 112.903  -2
   1  -3 -11 780.466 112.903   1
  -1  -3   9 110.250 33.1811  -2
   1  -3 -10 110.250 33.1811   1
  -1  -3   8 4374.25 160.862  -2
   1  -3  -9 4374.25 160.862   1
  -1  -3   7 8723.43 224.054  -2
   1  -3  -8 8723.43 224.054   1
  -1  -3   6 1097.22 75.3847  -2
   1  -3  -7 1097.22 75.3847   1
   1   3  -5 1246.23 79.9333  -2
  -1   3   6 1246.23 79.9333   1
   1   3  -4 350.350 39.3944  -2
  -1   3   5 350.350 39.3944   1
   1   3  -3 2630.85 104.689  -2
  -1   3   4 2630.85 104.689   1
  -1  -3   2 5998.36 153.754  -2
   1  -3  -3 5998.36 153.754   1
  -1  -3   1 4254.80 125.725  -2
   1  -3  -2 4254.80 125.725   1
   1   3   0 154.083 25.7325  -2
  -1   3   1 154.083 25.7325   1
   1   3   1 471.285 41.1753  -2
  -1   3   0 471.285 41.1753   1
  -1  -3  -2 1169.80 68.3347  -2
   1  -3   1 1169.80 68.3347   1
  -1  -3  -3 115.301 24.3984  -2
   1  -3   2 115.301 24.3984   1
  -1  -3  -4 189.071 31.0702  -2
   1  -3   3 189.071 31.0702   1
   1   3   5 2376.34 107.471  -2
  -1   3  -4 2376.34 107.471   1
  -1  -3  -6 4259.94 149.617  -2
   1  -3   5 4259.94 149.617   1
   1   3   7 28.5489 18.7087  -2
  -1   3  -6 28.5489 18.7087   1
  -1  -3  -8 1936.43 111.040  -2
   1  -3   7 1936.43 111.040   1
   1   3   9 3374.65 217.296  -2
  -1   3  -8 3374.65 217.296   1
   1   3  10 748.330 109.623  -2
  -1   3  -9 748.330 109.623   1
   1   3  11 434.262 89.9792  -2
  -1   3 -10 434.262 89.9792   1
   1   3  12 520.019 102.424  -2
  -1   3 -11 520.019 102.424   1
   1   3  13 115.868 62.4941  -2
  -1   3 -12 115.868 62.4941   1
   1   3  14 771.007 95.9626  -2
  -1   3 -13 771.007 95.9626   1
   1   3  15-0.09832 8.79741  -2
  -1   3 -14-0.09832 8.79741   1
   1  -2 -15-0.04842 6.09286   1
   1  -2 -14-2.94006 25.0708   1
   1  -2 -13 9.12621 29.0412   1
   1  -2 -12 93.4475 36.4466   1
   1  -2 -11 278.080 50.9304   1
   1  -2 -10 80.1681 29.7213   1
   1  -2  -9 12.7401 18.3514   1
  -1   2   8 28.9057 13.1622   1
  -1   2   7 46.0536 14.1236   1
   1  -2  -6 3715.88 92.8805   1
  -1   2   5 758.119 39.8024   1
  -1   2   4 81.6945 13.9869   1
   1  -2  -3 3622.33 76.1638   1
  -1   2   2 480.707 27.1622   1
  -1   2   1 12893.3 135.209   1
  -1   2  -1 14972.4 150.180   1
  -1   2  -2 1223.24 45.3940   1
   1  -2   3 2878.98 72.8137   1
   1  -2   4 769.486 40.5685   1
   1  -2   5 4787.38 105.279   1
   1  -2   6 4834.79 112.444   1
  -1   2  -7 3234.78 139.021   1
  -1   2  -8-1.95511 16.9544   1
  -1   2  -9 594.398 68.3831   1
  -1   2 -10 149.607 39.6348   1
  -1   2 -11 141.732 41.4370   1
  -1   2 -12 518.285 53.5790   1
  -1   2 -13 713.194 64.9128   1
  -1   2 -14 425.549 55.4131   1
  -1   2 -15-0.05290 7.26822   1
   1  -1 -15-0.04319 5.42201   1
   1  -1 -14 18.2031 22.7337   1
   1  -1 -13 457.476 46.9502   1
   1  -1 -12 6.02868 12.1893   1
   1  -1 -11 810.123 77.5361   1
   1  -1 -10 149.392 34.3853   1
   1  -1  -9 684.386 63.4367   1
   1  -1  -8 1928.87 98.1810   1
   1  -1  -7 505.560 47.4344   1
  -1   1   6 619.778 34.3359   1
  -1   1   5 2919.24 67.1960   1
   1  -1  -4 3954.94 99.3536   1
  -1   1   3 6061.46 78.8669   1
   1  -1  -2 726.325 25.4012   1
  -1   1   1 7935.19 80.7256   1
   1  -1   0 7246.69 79.6015   1
  -1   1  -1 13713.4 119.314   1
  -1   1  -2 19314.5 220.167   1
  -1   1  -3 3.23896 5.57031   1
   1  -1   4 1229.26 46.9511   1
  -1   1  -5 631.262 52.3159   1
  -1   1  -6 54.3247 19.5140   1
  -1   1  -7 1138.07 80.0826   1
  -1   1  -8 294.569 45.3898   1
  -1   1  -9 609.651 67.5256   1
  -1   1 -10 20.0240 15.5365   1
  -1   1 -11 32.9806 19.2722   1
  -1   1 -12 47.4955 23.1989   1
  -1   1 -13 118.784 32.5943   1
  -1   1 -14 684.225 67.6633   1
  -1   1 -15-0.05372 6.87568   1
  -1   1 -16-0.06107 10.3324   1
  -1   0  15-0.07634 7.32549  -2
   1   0 -15-0.07634 7.32549   1
  -1   0  14 81.5748 35.7407  -2
   1   0 -14 81.5748 35.7407   1
  -1   0  13 202.633 42.4579  -2
   1   0 -13 202.633 42.4579   1
  -1   0  12 1304.87 85.3900  -2
   1   0 -12 1304.87 85.3900   1
  -1   0  11 740.332 60.8419  -2
   1   0 -11 740.332 60.8419   1
  -1   0  10 362.705 43.9935  -2
   1   0 -10 362.705 43.9935   1
  -1   0   9 1253.00 72.3046  -2
   1   0  -9 1253.00 72.3046   1
  -1   0   8 616.527 48.8396  -2
   1   0  -8 616.527 48.8396   1
  -1   0   7 2489.30 125.432  -2
   1   0  -7 2489.30 125.432   1
  -1   0   6 2630.18 108.242  -2
   1   0  -6 2630.18 108.242   1
  -1   0   5 2246.85 91.7566  -2
   1   0  -5 2246.85 91.7566   1
  -1   0   4 8768.09 144.096  -2
   1   0  -4 8768.09 144.096   1
   1   0   0 178.508 9.45822   1
  -1   0  -1 407.352 25.2867   1
  -1   0  -2 454.947 31.6107   1
   1   0   5 10024.6 278.438  -2
  -1   0  -5 10024.6 278.438   1
   1   0   6 418.266 64.1378  -2
  -1   0  -6 418.266 64.1378   1
   1   0   7 171.734 32.8355  -2
  -1   0  -7 171.734 32.8355   1
   1   0   8 219.167 39.4660  -2
  -1   0  -8 219.167 39.4660   1
   1   0   9 3947.11 135.867  -2
  -1   0  -9 3947.11 135.867   1
   1   0  10 3673.50 167.310  -2
  -1   0 -10 3673.50 167.310   1
   1   0  11 738.092 67.3193  -2
  -1   0 -11 738.092 67.3193   1
   1   0  12 115.573 41.9065  -2
  -1   0 -12 115.573 41.9065   1
   1   0  13 970.533 104.715  -2
  -1   0 -13 970.533 104.715   1
   1   0  14 124.794 39.8168  -2
  -1   0 -14 124.794 39.8168   1
   1   0  15-3.74411 9.40559  -2
  -1   0 -15-3.74411 9.40559   1
   1   0  16-0.11660 12.7247  -2
  -1   0 -16-0.11660 12.7247   1
   1   1 -15-0.03505 4.19173   1
   1   1 -14 827.567 58.6971   1
   1   1 -13 36.2458 19.6924   1
   1   1 -12 1571.35 72.4950   1
   1   1 -11 3271.54 97.7269   1
   1   1 -10 1425.59 60.9058   1
   1   1  -9 292.709 26.8325   1
   1   1  -8 788.629 39.4294   1
   1   1  -7 53.1125 10.9703   1
   1   1  -6 2209.80 53.5732   1
   1   1  -5 3633.86 85.0636   1
   1   1  -4 5875.77 92.5247   1
   1   1  -3 4640.59 46.9432   1
   1   1  -2 158.373 7.44390   1
  -1  -1   1 8025.14 78.7679   1
   1   1   0 3.21710 17.2964   1
  -1  -1  -1 244.631 15.8924   1
  -1  -1  -2 22965.3 242.162   1
  -1  -1  -3 7103.02 151.686   1
  -1  -1  -4 3799.73 122.778   1
  -1  -1  -5 5299.05 157.891   1
  -1  -1  -6 1212.71 82.1662   1
  -1  -1  -7 1082.70 83.4552   1
  -1  -1  -8 1964.13 119.097   1
  -1  -1  -9 783.441 81.0596   1
  -1  -1 -10 208.383 47.2965   1
  -1  -1 -11 1176.50 75.1065   1
  -1  -1 -12 1165.90 78.6095   1
  -1  -1 -13 452.003 53.7357   1
  -1  -1 -14 134.014 36.9043   1
  -1  -1 -15 229.589 41.6335   1
  -1  -1 -16-0.06174 8.41446   1
   1   2 -14-4.21124 19.4461   1
   1   2 -13 17.9469 17.5582   1
   1   2 -12 81.6939 20.6261   1
   1   2 -11 512.889 39.3418   1
   1   2 -10 559.730 38.7727   1
   1   2  -9 1.36914 8.75959   1
   1   2  -8 3809.22 122.506   1
   1   2  -7 477.755 41.0345   1
   1   2  -6 344.300 32.3627   1
  -1  -2   5 1545.41 43.8324   1
   1   2  -4 201.339 15.3200   1
   1   2  -3 4020.88 62.1388   1
   1   2  -2 2300.60 45.9370   1
  -1  -2   1 1.26503 2.68868   1
  -1  -2   0 3101.60 58.9990   1
   1   2   1 785.780 32.7281   1
   1   2   2 6647.85 103.504   1
  -1  -2  -3 2069.25 63.2024   1
  -1  -2  -4 466.805 33.2536   1
  -1  -2  -5 1391.93 60.4300   1
   1   2   6 11.8849 10.9111   1
  -1  -2  -7 495.205 59.1464   1
  -1  -2  -8 80.6701 29.9158   1
  -1  -2  -9 12.7554 21.5710   1
  -1  -2 -10 523.122 72.5822   1
  -1  -2 -11 1133.15 109.627   1
  -1  -2 -12 190.659 53.2013   1
  -1  -2 -13 155.991 53.5379   1
  -1  -2 -14-4.62355 27.7119   1
  -1  -2 -15-0.06008 6.82688   1
  -1  -2 -16-0.06451 9.31988   1
  -1   3  14 537.721 56.8793  -2
   1   3 -13 537.721 56.8793   1
  -1   3  13 211.204 38.0861  -2
   1   3 -12 211.204 38.0861   1
  -1   3  12 104.999 28.3611  -2
   1   3 -11 104.999 28.3611   1
  -1   3  11 115.487 38.4549  -2
   1   3 -10 115.487 38.4549   1
  -1   3  10 525.139 65.1087  -2
   1   3  -9 525.139 65.1087   1
  -1   3   9 1085.59 90.2723  -2
   1   3  -8 1085.59 90.2723   1
  -1   3   8 5773.66 189.359  -2
   1   3  -7 5773.66 189.359   1
  -1   3   7 3814.72 108.749  -2
   1   3  -6 3814.72 108.749   1
  -1   3   6 197.192 25.2090  -2
   1   3  -5 197.192 25.2090   1
  -1   3   5 2521.94 79.5169  -2
   1   3  -4 2521.94 79.5169   1
  -1   3   4 8.84881 35.9386  -2
   1   3  -3 8.84881 35.9386   1
   1  -3  -3 2495.41 79.5505  -2
  -1  -3   2 2495.41 79.5505   1
   1  -3  -2 3705.75 98.7980  -2
  -1  -3   1 3705.75 98.7980   1
  -1   3   1 514.701 39.7357  -2
   1   3   0 514.701 39.7357   1
  -1   3   0 4000.64 114.723  -2
   1   3   1 4000.64 114.723   1
  -1   3  -1 198.561 29.8082  -2
   1   3   2 198.561 29.8082   1
  -1   3  -2 76.7779 21.3675  -2
   1   3   3 76.7779 21.3675   1
  -1   3  -3 55.4680 20.7658  -2
   1   3   4 55.4680 20.7658   1
   1  -3   4 325.805 44.9038  -2
  -1  -3  -5 325.805 44.9038   1
   1  -3   5 1460.71 97.0083  -2
  -1  -3  -6 1460.71 97.0083   1
  -1   3  -6 140.891 35.8394  -2
   1   3   7 140.891 35.8394   1
  -1   3  -7 230.941 46.9560  -2
   1   3   8 230.941 46.9560   1
   1  -3   8 971.872 133.802  -2
  -1  -3  -9 971.872 133.802   1
   1  -3   9 1437.21 168.806  -2
  -1  -3 -10 1437.21 168.806   1
   1  -3  10 255.461 82.0057  -2
  -1  -3 -11 255.461 82.0057   1
   1  -3  11 84.7353 61.3384  -2
  -1  -3 -12 84.7353 61.3384   1
   1  -3  12 25.3835 57.9218  -2
  -1  -3 -13 25.3835 57.9218   1
   1  -3  13 372.591 117.085  -2
  -1  -3 -14 372.591 117.085   1
   1  -3  14-0.13014 11.0838  -2
  -1  -3 -15-0.13014 11.0838   1
   1   4 -13-0.02824 3.30268   1
   1   4 -12 1041.18 59.6289   1
  -1   4  12 756.682 74.0498  -2
   1   4 -11 756.682 74.0498   1
  -1   4  11 62.3417 31.6142  -2
   1   4 -10 62.3417 31.6142   1
  -1   4  10 882.363 73.3645  -2
   1   4  -9 882.363 73.3645   1
  -1  -4   8 1.95672 14.9674   1
  -1   4   9 31.7662 23.9615  -2
   1   4  -8 31.7662 23.9615   1
  -1  -4   7 331.673 30.0139   1
   1   4  -6 2751.62 81.2267   1
   1   4  -5 145.835 22.3563   1
   1   4  -4 46.5562 12.3265   1
   1   4  -3 287.529 26.0451   1
  -1  -4   2 34.8421 11.3653   1
   1   4  -1 51.2007 13.0082   1
   1   4   0 1548.24 60.7649   1
   1   4   1 10032.2 158.493   1
   1   4   2 8182.16 148.518   1
  -1  -4  -3 376.416 34.3870   1
  -1  -4  -4 2637.43 92.4934   1
   1   4   5 2266.74 89.8669   1
   1   4   6 405.581 41.2350   1
   1   4   7 11593.9 220.834   1
   1   4   8 3844.56 133.382   1
  -1  -4  -9 20.2890 19.0460   1
  -1  -4 -10 937.602 103.784   1
  -1  -4 -11 638.409 91.2622   1
  -1  -4 -12 133.926 53.4968   1
  -1  -4 -13 583.323 97.2210   1
  -1  -4 -14 271.669 75.0264   1
   1   5 -12-0.03009 5.24524   1
   1   5 -11 73.3925 33.2026   1
   1   5 -10 46.2415 27.6006   1
   1   5  -9 11.6359 21.2992   1
  -1  -5   8 443.136 39.3387   1
  -1  -5   7 1069.82 58.4116   1
   1   5  -6 24.6671 32.4413   1
   1   5  -5 660.044 45.2867   1
   1   5  -4 986.219 54.4725   1
  -1  -5   3 2189.55 79.9046   1
   1   5  -2 260.674 29.0962   1
   1   5  -1 2253.57 82.2597   1
  -1  -5   0 3967.83 110.577   1
   1   5   1 12.7870 12.0594   1
  -1  -5  -2 1403.98 69.7259   1
   1   5   3 1712.95 79.2974   1
   1   5   4 170.494 28.4187   1
   1   5   5 10.6125 14.3649   1
  -1  -5  -6 217.001 34.3484   1
   1   5   7 13.9051 17.5619   1
   1   5   8 61.0183 24.8774   1
  -1  -5  -9 873.056 72.5730   1
  -1  -5 -10 1296.37 91.0997   1
  -1  -5 -11 745.248 104.618   1
  -1  -5 -12 83.2947 52.9541   1
  -1  -5 -13 222.746 74.1270   1
  -1   6  12 224.697 64.8007  -2
   1   6 -10 224.697 64.8007   1
   1  -6 -11 50.7985 32.2636  -2
  -1  -6   9 50.7985 32.2636   1
  -1   6  10 4.38890 23.2023  -2
   1   6  -8 4.38890 23.2023   1
   1  -6  -9 43.2186 25.2354  -2
  -1  -6   7 43.2186 25.2354   1
   1  -6  -8 1351.01 86.9446  -2
  -1  -6   6 1351.01 86.9446   1
  -1   6   7 369.260 48.5532  -2
   1   6  -5 369.260 48.5532   1
  -1   6   6 30.3966 22.2521  -2
   1   6  -4 30.3966 22.2521   1
   1  -6  -5 502.102 54.3495  -2
  -1  -6   3 502.102 54.3495   1
   1  -6  -4 854.022 70.4374  -2
  -1  -6   2 854.022 70.4374   1
  -1   6   3 2291.83 113.417  -2
   1   6  -1 2291.83 113.417   1
   1  -6  -2 999.339 78.3381  -2
  -1  -6   0 999.339 78.3381   1
  -1   6   1 58.8298 26.8667  -2
   1   6   1 58.8298 26.8667   1
  -1   6   0 439.268 58.2573  -2
   1   6   2 439.268 58.2573   1
   1  -6   1 1377.77 100.650  -2
  -1  -6  -3 1377.77 100.650   1
  -1   6  -2 892.605 87.9344  -2
   1   6   4 892.605 87.9344   1
   1  -6   3 657.244 79.4788  -2
  -1  -6  -5 657.244 79.4788   1
  -1   6  -4 449.123 69.2911  -2
   1   6   6 449.123 69.2911   1
  -1   6  -5 1753.82 134.891  -2
   1   6   7 1753.82 134.891   1
  -1   6  -6 814.514 99.0961  -2
   1   6   8 814.514 99.0961   1
  -1   6  -7 327.071 70.6161  -2
   1   6   9 327.071 70.6161   1
   1  -6   8 322.084 74.3015  -2
  -1  -6 -10 322.084 74.3015   1
  -1   6  -9 267.361 75.0187  -2
   1   6  11 267.361 75.0187   1
   1  -6  10 242.712 110.918  -2
  -1  -6 -12 242.712 110.918   1
   1  -7 -11-0.07848 7.51495  -2
  -1  -7   9-0.07848 7.51495   1
  -1  -7   8 47.6652 38.7603   1
  -1   7  10 20.3806 51.1801  -2
   1   7  -8 20.3806 51.1801   1
  -1  -7   7 245.308 54.3501   1
  -1   7   9 373.795 70.2251  -2
   1   7  -7 373.795 70.2251   1
  -1  -7   6 61.9523 34.8347   1
  -1   7   8 123.989 50.0361  -2
   1   7  -6 123.989 50.0361   1
  -1  -7   5 546.087 74.6542   1
  -1   7   7 684.827 86.1183  -2
   1   7  -5 684.827 86.1183   1
   1   7  -4 2186.80 100.575   1
   1   7  -3 1141.62 73.2745   1
  -1  -7   2 44.7407 30.3380   1
  -1   7   4 71.1068 40.3013  -2
   1   7  -2 71.1068 40.3013   1
  -1  -7   1 310.526 40.8445   1
  -1  -7   0 3.63105 16.8862   1
   1   7   1 45.2299 21.8854   1
  -1  -7  -2 25.7662 20.5079   1
   1   7   3 211.146 37.3666   1
  -1  -7  -4 153.513 34.0427   1
   1   7   5 17.8915 21.9535   1
   1   7   6 485.253 58.0390   1
  -1  -7  -7 931.729 80.8740   1
  -1  -7  -8 255.930 48.8011   1
  -1  -7  -9 158.042 44.7170   1
  -1  -7 -10 123.959 44.7644   1
   1   8  -7-0.04630 6.13687   1
   1   8  -6 84.9866 24.5890   1
  -1  -8   5 1.82907 25.6213   1
   1   8  -4 520.679 57.7413   1
   1   8  -3 102.981 32.6931   1
  -1  -8   2 811.407 69.9714   1
   1   8  -1 4298.02 155.685   1
  -1  -8   0 1312.47 88.7200   1
   1   8   1 179.656 38.8807   1
  -1  -8  -2 712.710 69.0115   1
   1   8   3 12.7249 25.2592   1
   1   8   4 1615.82 105.043   1
  -1  -8  -5 3252.20 150.459   1
   1   8   6 324.748 55.4348   1
   1   8   7 88.1542 40.2707   1
  -1  -8  -8 229.229 78.7067   1
  -1   8  -5 229.292 92.9387  -2
   1   8   8 229.292 92.9387   1
   1  -9  -8-0.11179 12.0833  -2
  -1  -9   5-0.11179 12.0833   1
   1  -9  -7-0.11255 10.8632  -2
  -1  -9   4-0.11255 10.8632   1
   1  -9  -6-0.11406 10.2902  -2
  -1  -9   3-0.11406 10.2902   1
  -1   9   5-0.11419 9.47748  -2
   1   9  -2-0.11419 9.47748   1
  -1   9   4 169.146 51.2690  -2
   1   9  -1 169.146 51.2690   1
   1  -9  -3 61.0562 52.7229  -2
  -1  -9   0 61.0562 52.7229   1
  -1   9   2 19.9931 49.8357  -2
   1   9   1 19.9931 49.8357   1
   1  -9  -1 9.61641 43.4140  -2
  -1  -9  -2 9.61641 43.4140   1
  -1   9   0 17.5979 50.8051  -2
   1   9   3 17.5979 50.8051   1
  -1   9  -1 13.6586 40.0912  -2
   1   9   4 13.6586 40.0912   1
   2  -8  -7 4.34034 34.4998   1
  -2   8   6 7.25728 31.9510   1
   2  -8  -5 230.488 49.3082   1
  -2   8   4 268.599 50.6309   1
   2  -8  -3 119.421 38.0380   1
  -2   8   2 2.54136 26.2400   1
  -2   8   1 53.2633 41.5452   1
  -2  -8  -2 110.165 65.3065  -2
   2  -8  -1 110.165 65.3065   1
   2  -8   0 96.8800 34.7617   1
   2  -8   1 104.923 53.8538   1
   2   8   4 141.317 66.2241  -2
  -2   8  -1 141.317 66.2241   1
   2  -8   2-4.66772 27.1352   1
   2  -8   3 272.051 50.2065   1
   2  -8   4 38.3785 49.7905   1
   2   8   7 4.07573 62.0179  -2
  -2   8  -4 4.07573 62.0179   1
   2   8   8 217.480 56.3832  -2
  -2   8  -5 217.480 56.3832   1
   2   8   9-0.12390 10.4207  -2
  -2   8  -6-0.12390 10.4207   1
  -2   7  10 283.579 53.5333   1
   2  -7  -9 870.049 83.3529   1
   2  -7  -8 140.349 40.7731   1
  -2   7   7 97.1050 34.2893   1
  -2   7   6 70.5663 30.0347   1
   2  -7  -5 44.6828 26.0292   1
   2  -7  -4 604.869 62.1991   1
  -2   7   3 704.195 65.6894   1
  -2   7   2 624.371 61.7627   1
   2  -7  -1 742.708 66.6462   1
   2  -7   0 110.034 30.6974   1
   2  -7   1 89.3683 29.0555   1
   2  -7   2 88.1994 29.5053   1
  -2   7  -3 445.874 54.5371   1
   2  -7   4 1314.32 90.2802   1
   2  -7   5 430.893 55.5155   1
   2  -7   6 28.3153 28.6701   1
   2  -7   7 335.026 54.1704   1
  -2   7  -8 6.72039 18.4550   1
  -2   7  -9-0.05989 7.59045   1
  -2  -6  10 1.01913 10.6889  -2
   2  -6 -12 1.01913 10.6889   1
  -2  -6   9 1142.25 104.771  -2
   2  -6 -11 1142.25 104.771   1
   2   6  -8 983.992 96.3013  -2
  -2   6  10 983.992 96.3013   1
   2   6  -7 328.787 58.6887  -2
  -2   6   9 328.787 58.6887   1
  -2  -6   6 78.9795 36.9916  -2
   2  -6  -8 78.9795 36.9916   1
   2   6  -5 902.226 83.0593  -2
  -2   6   7 902.226 83.0593   1
   2   6  -4 405.776 58.4231  -2
  -2   6   6 405.776 58.4231   1
  -2  -6   3 114.712 34.3979  -2
   2  -6  -5 114.712 34.3979   1
  -2  -6   2 2356.67 125.852  -2
   2  -6  -4 2356.67 125.852   1
  -2  -6   1 3315.96 146.713  -2
   2  -6  -3 3315.96 146.713   1
   2   6   0 230.502 42.0020  -2
  -2   6   2 230.502 42.0020   1
   2   6   1 3702.13 160.590  -2
  -2   6   1 3702.13 160.590   1
   2   6   2 1506.55 104.211  -2
  -2   6   0 1506.55 104.211   1
  -2  -6  -3 17.1599 23.9320  -2
   2  -6   1 17.1599 23.9320   1
  -2  -6  -4 1976.66 122.581  -2
   2  -6   2 1976.66 122.581   1
  -2  -6  -5 584.003 66.8994  -2
   2  -6   3 584.003 66.8994   1
  -2  -6  -6 344.271 57.5348  -2
   2  -6   4 344.271 57.5348   1
   2   6   7 2143.20 140.157  -2
  -2   6  -5 2143.20 140.157   1
  -2  -6  -8 1348.09 116.504  -2
   2  -6   6 1348.09 116.504   1
   2   6   9 297.572 61.4529  -2
  -2   6  -7 297.572 61.4529   1
  -2  -6 -10 106.773 46.2335  -2
   2  -6   8 106.773 46.2335   1
   2   6  11 266.391 65.0779  -2
  -2   6  -9 266.391 65.0779   1
  -2  -6 -12 14.1488 24.4784  -2
   2  -6  10 14.1488 24.4784   1
   2   6  13-0.11741 16.0880  -2
  -2   6 -11-0.11741 16.0880   1
   2  -5 -14-0.06122 11.8027   1
   2  -5 -13-0.05771 9.36669   1
   2  -5 -12 135.752 40.1674   1
  -2   5  11 285.496 46.7944   1
   2  -5 -10 13.2951 21.6412   1
  -2   5   9 1243.61 81.7425   1
   2  -5  -8 2432.20 109.405   1
  -2   5   7 96.2141 25.4545   1
   2  -5  -6 100.323 24.8735   1
   2  -5  -5 6.01614 13.7882   1
  -2   5   4 3092.79 111.215   1
  -2   5   3 2595.23 100.710   1
   2  -5  -2 912.618 59.8692   1
  -2   5   1 224.994 31.3781   1
   2  -5   0 0.54380 12.2776   1
  -2   5  -1 204.068 30.3603   1
  -2   5  -2 351.389 39.4691   1
   2  -5   3 340.583 39.5128   1
   2  -5   4 1333.42 109.330   1
   2   5   6 1424.01 112.627  -2
  -2   5  -4 1424.01 112.627   1
  -2   5  -5 2010.23 95.0955   1
   2  -5   6 241.670 52.2740   1
   2   5   8 258.563 58.3235  -2
  -2   5  -6 258.563 58.3235   1
   2  -5   7 198.281 49.5305   1
   2   5   9 397.536 71.5173  -2
  -2   5  -7 397.536 71.5173   1
   2  -5   8 528.658 77.3661   1
   2   5  10 721.984 94.5889  -2
  -2   5  -8 721.984 94.5889   1
   2  -5   9 50.3557 37.6619   1
   2   5  11 84.8563 53.5424  -2
  -2   5  -9 84.8563 53.5424   1
  -2   5 -10 147.840 53.4167   1
  -2   5 -11 456.823 84.6153   1
  -2   5 -12-0.05704 10.0642   1
  -2   5 -13-0.06029 13.2806   1
   2  -4 -15-0.05602 12.4387   1
   2  -4 -14-0.05280 9.03079   1
   2  -4 -13 1137.76 119.303   1
   2  -4 -12 573.611 84.0085   1
   2  -4 -11 290.316 42.2720   1
  -2   4  10 92.5164 26.1592   1
  -2   4   9 326.658 40.2940   1
  -2   4   8 480.960 45.9271   1
   2  -4  -7 1809.04 83.1848   1
   2  -4  -6 463.037 41.8880   1
  -2   4   5 228.437 29.5789   1
  -2   4   4 54.4855 16.5313   1
  -2   4   3 396.959 36.2958   1
  -2   4   2 409.147 36.2949   1
  -2   4   1 138.130 22.3799   1
  -2   4   0 1773.27 73.9968   1
   2  -4   1 2451.07 87.9726   1
   2  -4   2 263.641 31.0029   1
   2  -4   3 10.1086 12.1649   1
   2  -4   4 484.940 42.8986   1
  -2   4  -5 983.942 62.0155   1
   2  -4   6 393.311 41.7161   1
   2  -4   7 59.2036 21.1374   1
  -2   4  -8 430.803 47.0464   1
  -2   4  -9 829.898 94.0050   1
  -2   4 -10 1164.57 114.418   1
  -2   4 -11 213.038 60.0231   1
  -2   4 -12-3.28512 40.0475   1
  -2   4 -13-0.05660 9.63234   1
  -2   4 -14-0.06011 9.35365   1
  -2  -3  14-0.09474 13.8852  -2
   2  -3 -15-0.09474 13.8852   1
  -2  -3  13 193.164 71.3331  -2
   2  -3 -14 193.164 71.3331   1
  -2  -3  12 46.0833 49.8176  -2
   2  -3 -13 46.0833 49.8176   1
  -2  -3  11 1562.21 136.909  -2
   2  -3 -12 1562.21 136.909   1
  -2  -3  10 1616.06 131.586  -2
   2  -3 -11 1616.06 131.586   1
   2   3  -9 98.2630 28.0715  -2
  -2   3  10 98.2630 28.0715   1
   2   3  -8 54.1566 22.9673  -2
  -2   3   9 54.1566 22.9673   1
  -2  -3   7 120.729 26.2497  -2
   2  -3  -8 120.729 26.2497   1
   2   3  -6 203.112 29.0861  -2
  -2   3   7 203.112 29.0861   1
  -2  -3   5 2025.93 81.9757  -2
   2  -3  -6 2025.93 81.9757   1
   2   3  -4 4200.58 114.237  -2
  -2   3   5 4200.58 114.237   1
  -2  -3   3 7595.93 146.217  -2
   2  -3  -4 7595.93 146.217   1
   2   3  -2 1274.06 59.5818  -2
  -2   3   3 1274.06 59.5818   1
  -2  -3   1 1434.41 62.2002  -2
   2  -3  -2 1434.41 62.2002   1
   2   3   0 2072.02 78.6294  -2
  -2   3   1 2072.02 78.6294   1
   2   3   1 873.076 53.8607  -2
  -2   3   0 873.076 53.8607   1
   2   3   2 24593.8 402.150  -2
  -2   3  -1 24593.8 402.150   1
  -2  -3  -3 16977.4 259.127  -2
   2  -3   2 16977.4 259.127   1
   2   3   4 603.265 53.4785  -2
  -2   3  -3 603.265 53.4785   1
  -2  -3  -5 1545.38 87.1526  -2
   2  -3   4 1545.38 87.1526   1
  -2  -3  -6 1605.46 91.9959  -2
   2  -3   5 1605.46 91.9959   1
  -2  -3  -7 201.803 37.6377  -2
   2  -3   6 201.803 37.6377   1
  -2  -3  -8 4237.21 175.466  -2
   2  -3   7 4237.21 175.466   1
   2   3   9 1006.78 129.519  -2
  -2   3  -8 1006.78 129.519   1
   2   3  10 240.075 71.9486  -2
  -2   3  -9 240.075 71.9486   1
   2   3  11 143.509 61.0333  -2
  -2   3 -10 143.509 61.0333   1
   2   3  12 47.6835 50.5906  -2
  -2   3 -11 47.6835 50.5906   1
   2   3  13 85.9008 63.3472  -2
  -2   3 -12 85.9008 63.3472   1
   2   3  14 30.3804 64.7169  -2
  -2   3 -13 30.3804 64.7169   1
   2   3  15-0.11536 10.5708  -2
  -2   3 -14-0.11536 10.5708   1
   2  -2 -15-0.04139 5.82139   1
   2  -2 -14 103.804 30.3409   1
   2  -2 -13 742.327 82.1970   1
   2  -2 -12 916.997 86.1551   1
   2  -2 -11 1249.68 95.5703   1
   2  -2 -10 30.8710 21.8763   1
  -2   2   9 791.682 49.4951   1
  -2   2   8 231.120 26.6466   1
   2  -2  -7 2952.13 84.7302   1
   2  -2  -6 5893.72 113.100   1
  -2   2   5 1065.86 46.1143   1
  -2   2   4 2312.21 64.8386   1
   2  -2  -3 4389.70 86.8547   1
   2  -2  -2 12.6856 8.17948   1
  -2   2   1 1144.97 44.7344   1
  -2   2   0 1598.39 54.0918   1
   2  -2   1 0.29790 8.07325   1
  -2   2  -2 506.323 33.6375   1
  -2   2  -3 2473.65 76.4935   1
  -2   2  -4 1515.88 63.0987   1
  -2   2  -5 1417.62 64.1504   1
   2  -2   6 421.316 37.9118   1
  -2   2  -7 951.640 84.1123   1
  -2   2  -8-3.37561 19.2623   1
  -2   2  -9 2561.23 150.440   1
  -2   2 -10 4088.55 198.393   1
  -2   2 -11 628.948 84.6430   1
  -2   2 -12 155.727 36.6573   1
  -2   2 -13 535.073 62.6434   1
  -2   2 -14 6.57638 13.6703   1
  -2   2 -15-0.06235 8.91944   1
   2  -1 -15-0.03445 3.83623   1
   2  -1 -14 158.061 30.5806   1
   2  -1 -13 5.74925 16.1447   1
   2  -1 -12 781.177 52.1666   1
   2  -1 -11 780.934 69.2822   1
   2  -1 -10 65.7445 23.1928   1
   2  -1  -9 170.761 30.7520   1
   2  -1  -8-0.06884 11.1969   1
   2  -1  -7 244.771 22.1260   1
  -2   1   6 4022.71 79.7108   1
  -2   1   5 189.003 16.7789   1
  -2   1   4 1078.97 35.9873   1
   2  -1  -3 3196.76 58.9532   1
   2  -1  -2 713.968 28.0285   1
  -2   1   1 553.296 25.6961   1
   2  -1   0 259.102 19.0333   1
   2  -1   1 4944.26 86.4354   1
  -2   1  -2 4301.56 86.6939   1
   2  -1   3 2402.58 69.2882   1
  -2   1  -4 119.930 18.4255   1
  -2   1  -5 1069.42 75.7515   1
  -2   1  -6 234.864 39.2760   1
  -2   1  -7 3353.82 150.063   1
  -2   1  -8 479.464 61.9676   1
  -2   1  -9 654.457 75.6940   1
  -2   1 -10 32.8345 27.1594   1
  -2   1 -11 60.1874 24.2390   1
  -2   1 -12 24.0700 22.7948   1
  -2   1 -13 200.898 42.3461   1
  -2   1 -14 25.7985 32.8074   1
  -2   1 -15-0.06181 7.86072   1
  -2   0  14-1.42633 24.9209  -2
   2   0 -14-1.42633 24.9209   1
  -2   0  13 104.130 27.3297  -2
   2   0 -13 104.130 27.3297   1
  -2   0  12 152.657 26.8108  -2
   2   0 -12 152.657 26.8108   1
  -2   0  11 629.051 41.6052  -2
   2   0 -11 629.051 41.6052   1
  -2   0  10 3655.60 91.2295  -2
   2   0 -10 3655.60 91.2295   1
  -2   0   9 1668.95 58.3812  -2
   2   0  -9 1668.95 58.3812   1
  -2   0   8 97.2968 15.7488  -2
   2   0  -8 97.2968 15.7488   1
  -2   0   7 2406.41 84.8682  -2
   2   0  -7 2406.41 84.8682   1
  -2   0   6 0.74409 8.06983  -2
   2   0  -6 0.74409 8.06983   1
  -2   0   5 556.659 29.7974  -2
   2   0  -5 556.659 29.7974   1
  -2   0   4 199.876 15.7973   1
  -2   0   4 234.409 16.4356  -2
   2   0  -4 234.409 16.4356   1
  -2   0   3 441.406 14.1193   1
   2   0  -2 1284.91 37.0483   1
   2   0  -2 1424.94 38.2606  -2
  -2   0   2 1424.94 38.2606   1
   2   0  -1 53.6258 6.94456   1
   2   0   0 523.502 22.7378   1
  -2   0  -1 8807.57 104.305   1
  -2   0  -2 3573.99 104.260   1
   2   0   3 1.38309 14.3477  -2
  -2   0  -3 1.38309 14.3477   1
   2   0   4 1873.23 92.5567  -2
  -2   0  -4 1873.23 92.5567   1
   2   0   5-1.32142 17.6425  -2
  -2   0  -5-1.32142 17.6425   1
   2   0   6 3966.98 162.679  -2
  -2   0  -6 3966.98 162.679   1
   2   0   7 1733.82 116.076  -2
  -2   0  -7 1733.82 116.076   1
   2   0   8 840.328 75.6920  -2
  -2   0  -8 840.328 75.6920   1
   2   0   9 160.959 34.8314  -2
  -2   0  -9 160.959 34.8314   1
   2   0  10 72.4640 31.3085  -2
  -2   0 -10 72.4640 31.3085   1
   2   0  11 382.640 63.4961  -2
  -2   0 -11 382.640 63.4961   1
   2   0  12 649.044 85.2605  -2
  -2   0 -12 649.044 85.2605   1
   2   0  13 196.043 57.6752  -2
  -2   0 -13 196.043 57.6752   1
   2   0  14 583.720 94.1918  -2
  -2   0 -14 583.720 94.1918   1
   2   0  15-0.12311 10.4747  -2
  -2   0 -15-0.12311 10.4747   1
   2   1 -14 295.761 28.8383   1
   2   1 -13 416.115 32.9617   1
   2   1 -12 35.1176 13.5969   1
   2   1 -11 51.9500 13.2679   1
   2   1 -10 382.205 26.5403   1
   2   1  -9 646.563 31.1477   1
   2   1  -8 1674.59 44.4734   1
   2   1  -7 7983.83 118.424   1
   2   1  -6 7627.66 94.3274   1
  -2  -1   0 1705.90 58.7568   1
  -2  -1  -1 3065.85 91.3054   1
  -2  -1  -2 2645.54 95.3305   1
  -2  -1  -3 93.1613 22.1854   1
  -2  -1  -4 1463.67 85.3483   1
  -2  -1  -5 2902.55 128.611   1
  -2  -1  -6 285.546 45.2859   1
  -2  -1  -7 36.9607 22.6382   1
  -2  -1  -8 554.390 69.7371   1
  -2  -1  -9 650.884 53.9929   1
  -2  -1 -10 1206.77 76.6249   1
  -2  -1 -11 22.8512 20.1925   1
  -2  -1 -12 966.671 76.0008   1
  -2  -1 -13 36.6001 27.0121   1
  -2  -1 -14 121.363 41.0978   1
  -2  -1 -15-0.06361 7.35904   1
   2   2 -13 49.0441 13.5303   1
   2   2 -12 401.472 27.5383   1
   2   2 -11 247.892 21.2318   1
   2   2 -10 603.643 30.2132   1
   2   2  -9 701.056 30.1922   1
   2   2  -8 114.386 11.8811   1
   2   2  -7 639.360 23.6167   1
   2   2  -6 686.491 21.6361   1
   2   2  -5 15.2859 5.13316   1
  -2  -2   4 320.849 13.0371   1
   2   2  -3 18.2497 4.41532   1
   2   2  -2 414.710 18.4776   1
   2   2  -1 779.965 28.6313   1
  -2  -2   0 381.009 22.7549   1
   2   2   1 13690.8 148.517   1
  -2  -2  -2 6773.24 114.834   1
  -2  -2  -3 295.696 27.3497   1
  -2  -2  -4 1801.48 98.0506   1
  -2  -2  -5 2903.20 132.930   1
  -2  -2  -6 2051.55 119.198   1
  -2  -2  -7 10203.7 279.984   1
  -2  -2  -8 6490.28 236.382   1
  -2  -2  -9 12.3369 24.1235   1
  -2  -2 -10 568.390 80.3292   1
  -2  -2 -11 73.4727 39.5045   1
  -2  -2 -12 384.774 73.6114   1
  -2  -2 -13 1048.20 85.7033   1
  -2  -2 -14 781.534 79.9765   1
  -2  -2 -15-0.06561 7.66080   1
  -2   3  14 8.26598 16.0696  -2
   2   3 -13 8.26598 16.0696   1
  -2   3  13 20.7817 18.5617  -2
   2   3 -12 20.7817 18.5617   1
  -2   3  12 659.986 38.1695  -2
   2   3 -11 659.986 38.1695   1
  -2   3  11 1077.01 47.0480  -2
   2   3 -10 1077.01 47.0480   1
  -2   3  10 296.418 24.0581  -2
   2   3  -9 296.418 24.0581   1
  -2   3   9 457.136 39.4746  -2
   2   3  -8 457.136 39.4746   1
  -2   3   8 84.8300 18.6874  -2
   2   3  -7 84.8300 18.6874   1
  -2   3   7 1759.47 48.3536  -2
   2   3  -6 1759.47 48.3536   1
  -2   3   6 1999.37 50.8739  -2
   2   3  -5 1999.37 50.8739   1
  -2   3   5 600.209 29.2732  -2
   2   3  -4 600.209 29.2732   1
  -2   3   4 806.748 35.1433  -2
   2   3  -3 806.748 35.1433   1
  -2   3   3 822.917 36.3283  -2
   2   3  -2 822.917 36.3283   1
  -2   3   2 18.0953 52.3421  -2
   2   3  -1 18.0953 52.3421   1
   2  -3  -1 1435.67 54.9335  -2
  -2  -3   0 1435.67 54.9335   1
  -2   3   0 527.179 37.2302  -2
   2   3   1 527.179 37.2302   1
   2  -3   1 2808.97 93.4111  -2
  -2  -3  -2 2808.97 93.4111   1
   2  -3   2 2290.07 90.8310  -2
  -2  -3  -3 2290.07 90.8310   1
   2  -3   3 1053.96 66.3675  -2
  -2  -3  -4 1053.96 66.3675   1
   2  -3   4 185.805 33.5754  -2
  -2  -3  -5 185.805 33.5754   1
  -2   3  -5 1836.45 102.983  -2
   2   3   6 1836.45 102.983   1
   2  -3   6 27.8937 32.6856  -2
  -2  -3  -7 27.8937 32.6856   1
   2  -3   7 691.084 107.180  -2
  -2  -3  -8 691.084 107.180   1
   2  -3   8 388.540 85.2381  -2
  -2  -3  -9 388.540 85.2381   1
   2  -3   9 142.317 63.5245  -2
  -2  -3 -10 142.317 63.5245   1
   2  -3  10 685.123 126.922  -2
  -2  -3 -11 685.123 126.922   1
   2  -3  11 209.457 83.8021  -2
  -2  -3 -12 209.457 83.8021   1
   2  -3  12 5.03594 47.4058  -2
  -2  -3 -13 5.03594 47.4058   1
   2  -3  13 7.26110 50.0833  -2
  -2  -3 -14 7.26110 50.0833   1
   2   4 -12 279.482 30.4358   1
  -2   4  13 334.447 35.7159  -2
   2   4 -12 334.447 35.7159   1
   2   4 -11 210.122 28.8271   1
  -2   4  12 247.851 34.2487  -2
   2   4 -11 247.851 34.2487   1
   2   4 -10 18.8527 14.5881   1
  -2   4  11 40.7464 21.7678  -2
   2   4 -10 40.7464 21.7678   1
  -2   4  10 209.313 32.2897  -2
   2   4  -9 209.313 32.2897   1
  -2   4   9 34.9066 19.7283  -2
   2   4  -8 34.9066 19.7283   1
  -2  -4   7 160.718 26.3841   1
  -2   4   8 215.772 31.7159  -2
   2   4  -7 215.772 31.7159   1
  -2  -4   6 23.2929 9.65305   1
   2   4  -5 739.900 37.4284   1
   2   4  -4 717.801 37.1427   1
   2   4  -3 812.569 40.0081   1
  -2  -4   2 12.0741 49.8453   1
   2   4  -1 5405.71 108.724   1
   2   4   0 24.7872 10.8611   1
   2   4   1 683.649 42.8429   1
  -2  -4  -2 853.908 50.1548   1
  -2  -4  -3 2302.80 85.4969   1
   2   4   4 5655.81 139.893   1
   2   4   5 1903.95 85.6355   1
   2   4   6 1863.18 88.7636   1
   2   4   7 319.911 40.7986   1
  -2  -4  -8 155.977 44.2912   1
  -2  -4  -9 165.843 48.3293   1
  -2  -4 -10 387.343 72.2537   1
  -2  -4 -11 761.590 103.230   1
  -2  -4 -12 1318.71 139.405   1
  -2  -4 -13 267.787 77.5694   1
  -2  -4 -14-0.06980 10.7337   1
   2   5 -11 37.1295 14.2595   1
   2   5 -10 1612.87 85.5188   1
   2   5  -9 2485.29 108.426   1
  -2  -5   8 301.785 28.8323   1
  -2  -5   7 1240.32 55.4894   1
   2   5  -6 73.5081 16.4075   1
  -2  -5   5 1785.54 67.5651   1
   2   5  -4 5762.48 121.541   1
  -2  -5   3 63.3801 50.3329   1
   2   5  -2 99.6289 19.2102   1
   2   5  -1 125.032 21.1417   1
  -2  -5   0 16.3521 12.3572   1
   2   5   1 448.311 39.5467   1
  -2  -5  -2 596.554 46.9455   1
   2   5   3 1768.96 82.4272   1
  -2  -5  -4 1961.36 90.2638   1
  -2  -5  -5 66.6580 21.9438   1
  -2  -5  -6 1102.19 73.7645   1
  -2  -5  -7 487.731 52.3337   1
   2   5   8 8.55522 18.8985   1
   2   5   9 1690.33 102.232   1
  -2  -5 -10 1253.11 130.429   1
  -2  -5 -11 270.967 71.8202   1
  -2  -5 -12 1292.91 143.766   1
  -2  -5 -13 908.487 125.968   1
  -2   6  11 98.1536 42.5474  -2
   2   6  -9 98.1536 42.5474   1
  -2   6  10 118.460 29.8894  -2
   2   6  -8 118.460 29.8894   1
   2  -6  -9 102.654 27.5347  -2
  -2  -6   7 102.654 27.5347   1
  -2   6   8 98.7098 26.3375  -2
   2   6  -6 98.7098 26.3375   1
   2  -6  -7 102.537 27.4254  -2
  -2  -6   5 102.537 27.4254   1
   2  -6  -6 54.3029 20.5408  -2
  -2  -6   4 54.3029 20.5408   1
  -2   6   5 460.428 43.6347  -2
   2   6  -3 460.428 43.6347   1
   2  -6  -4 334.061 42.9795  -2
  -2  -6   2 334.061 42.9795   1
  -2   6   3 4171.70 129.323  -2
   2   6  -1 4171.70 129.323   1
  -2   6   2 1088.88 69.2098  -2
   2   6   0 1088.88 69.2098   1
   2  -6  -1 504.970 55.8179  -2
  -2  -6  -1 504.970 55.8179   1
  -2   6   0 853.181 68.0606  -2
   2   6   2 853.181 68.0606   1
  -2   6  -1 97.8582 31.1290  -2
   2   6   3 97.8582 31.1290   1
  -2   6  -2 3080.87 134.891  -2
   2   6   4 3080.87 134.891   1
   2  -6   3 2817.94 134.192  -2
  -2  -6  -5 2817.94 134.192   1
  -2   6  -4 770.789 78.0287  -2
   2   6   6 770.789 78.0287   1
   2  -6   5 439.691 68.4706  -2
  -2  -6  -7 439.691 68.4706   1
  -2   6  -6 148.856 49.9242  -2
   2   6   8 148.856 49.9242   1
   2  -6   7 242.396 59.7200  -2
  -2  -6  -9 242.396 59.7200   1
   2  -6   8 303.498 69.3945  -2
  -2  -6 -10 303.498 69.3945   1
   2  -6   9 698.428 139.830  -2
  -2  -6 -11 698.428 139.830   1
  -2  -7   8 181.171 28.7273   1
  -2  -7   7 245.013 35.9000   1
  -2  -7   6 430.596 44.6950   1
   2   7  -5 45.0015 21.0031   1
   2   7  -4 508.689 48.6653   1
  -2  -7   3 40.1138 20.0861   1
   2   7  -2 683.739 56.6240   1
  -2  -7   1 4.24207 16.7507   1
  -2  -7   0 1178.29 75.5706   1
   2   7   1 1779.94 94.2113   1
   2   7   2 355.807 45.8477   1
   2   7   3 208.037 37.9524   1
   2   7   4 420.656 52.0911   1
   2   7   5 162.684 37.2569   1
   2   7   6 494.185 59.9462   1
   2   7   7 28.9179 28.0649   1
   2   7   8 268.795 51.5772   1
   2   7   9 90.6799 40.7498   1
   2   7  10 9.38265 37.3062   1
  -2  -8   6-0.04140 5.31112   1
   2   8  -5 542.723 57.2364   1
   2   8  -4 859.440 69.7640   1
   2   8  -3 62.8779 29.0768   1
   2   8  -2 126.023 33.4692   1
   2   8  -1 21.2803 24.1143   1
  -2  -8   0 56.8787 28.3376   1
   2   8   1 836.348 72.9838   1
  -2  -8  -2 642.343 66.3882   1
  -2  -8  -3 104.967 35.3737   1
   2   8   4 162.704 41.5697   1
  -2  -8  -5 25.3640 30.0284   1
   2   8   6 71.0363 36.6431   1
   2   8   7 4.46245 32.9354   1
  -2   9   7-0.10595 11.2827  -2
   2   9  -4-0.10595 11.2827   1
  -2   9   6-0.10824 10.3655  -2
   2   9  -3-0.10824 10.3655   1
  -2   9   5-0.11014 9.98391  -2
   2   9  -2-0.11014 9.98391   1
  -2   9   4-0.11308 9.64204  -2
   2   9  -1-0.11308 9.64204   1
  -2   9   3 139.841 33.3666  -2
   2   9   0 139.841 33.3666   1
   2  -9  -1 247.910 70.5665  -2
  -2  -9  -2 247.910 70.5665   1
  -2  -9  -4-0.06622 9.80855   1
   3  -8  -6 6.84101 34.7298   1
   3  -8  -5 50.3794 37.2145   1
  -3   8   4 794.663 80.4551   1
  -3   8   3 596.671 70.2186   1
   3  -8  -2 7.46703 29.5425   1
   3  -8  -1 371.500 58.1343   1
   3  -8   0 88.0840 37.7675   1
  -3   8  -1 322.910 76.3854   1
  -3  -8  -4 302.228 91.5747  -2
   3  -8   1 302.228 91.5747   1
   3  -8   2 341.608 82.5119   1
   3   8   5 465.765 100.315  -2
  -3   8  -2 465.765 100.315   1
   3  -8   3 133.163 65.3828   1
   3   8   6 380.670 96.9708  -2
  -3   8  -3 380.670 96.9708   1
  -3  -8  -7 72.8844 44.1448  -2
   3  -8   4 72.8844 44.1448   1
  -3   7  10-0.06472 7.66466   1
  -3   7   9 9.49360 32.6941   1
  -3   7   8-7.57956 30.2592   1
  -3   7   7 67.1620 33.8937   1
   3  -7  -6 4.78185 25.6421   1
   3  -7  -5 555.070 62.8421   1
  -3   7   4 1331.01 92.0819   1
   3  -7  -3 185.629 39.3744   1
   3  -7  -2 58.6112 28.0275   1
  -3   7   1 28.4084 23.4201   1
   3  -7   0 228.247 42.5174   1
  -3   7  -1 1287.02 90.7799   1
   3  -7   2 691.905 68.5416   1
   3  -7   3 269.930 47.3220   1
   3  -7   4 10.4843 26.2114   1
   3  -7   5 339.674 54.2152   1
   3  -7   6 397.315 60.1989   1
   3  -7   7 54.2666 34.4552   1
   3   6 -10-0.11979 11.1241  -2
  -3   6  12-0.11979 11.1241   1
  -3   6  11 2.95958 25.4016   1
  -3  -6   9 9.09563 56.3631  -2
   3  -6 -11 9.09563 56.3631   1
  -3  -6   8 499.549 68.0082  -2
   3  -6 -10 499.549 68.0082   1
  -3   6   9 198.185 58.6536   1
  -3  -6   7 331.775 80.5991  -2
   3  -6  -9 331.775 80.5991   1
  -3  -6   6 868.565 76.7271  -2
   3  -6  -8 868.565 76.7271   1
   3   6  -5 3984.93 150.720  -2
  -3   6   7 3984.93 150.720   1
   3   6  -4 2361.08 115.117  -2
  -3   6   6 2361.08 115.117   1
   3   6  -3 202.667 40.6358  -2
  -3   6   5 202.667 40.6358   1
  -3  -6   2 317.897 46.6254  -2
   3  -6  -4 317.897 46.6254   1
   3   6  -1 30.2901 26.4821  -2
  -3   6   3 30.2901 26.4821   1
  -3  -6   0 1013.14 75.0681  -2
   3  -6  -2 1013.14 75.0681   1
  -3  -6  -1 1720.07 96.5486  -2
   3  -6  -1 1720.07 96.5486   1
   3   6   2 150.194 36.5754  -2
  -3   6   0 150.194 36.5754   1
  -3  -6  -3 67.7368 31.0681  -2
   3  -6   1 67.7368 31.0681   1
   3   6   4 162.765 39.7405  -2
  -3   6  -2 162.765 39.7405   1
   3   6   5 66.2498 33.2909  -2
  -3   6  -3 66.2498 33.2909   1
  -3  -6  -6 144.794 42.0570  -2
   3  -6   4 144.794 42.0570   1
  -3  -6  -7 6.57964 29.2787  -2
   3  -6   5 6.57964 29.2787   1
  -3  -6  -8 691.813 81.5345  -2
   3  -6   6 691.813 81.5345   1
   3   6   9 318.840 59.9193  -2
  -3   6  -7 318.840 59.9193   1
   3   6  10 366.995 71.0520  -2
  -3   6  -8 366.995 71.0520   1
   3   6  11 739.454 98.9943  -2
  -3   6  -9 739.454 98.9943   1
   3   6  12-0.12609 15.3571  -2
  -3   6 -10-0.12609 15.3571   1
  -3   5  13-0.05460 7.09594   1
  -3   5  12 505.818 61.5881   1
   3  -5 -11 195.401 40.7090   1
  -3   5  10 54.8526 26.8467   1
  -3   5   9 208.027 37.5108   1
  -3   5   8 47.7492 22.7348   1
  -3   5   7 77.6130 24.5418   1
   3  -5  -6 273.679 37.7525   1
  -3   5   5 2180.52 97.6443   1
   3  -5  -4 1907.93 90.4077   1
  -3   5   3 75.0301 22.2098   1
   3  -5  -2 667.758 54.0048   1
   3  -5  -1 830.858 60.0640   1
  -3   5   0 631.182 53.2562   1
   3  -5   1 11156.1 220.326   1
  -3   5  -2 7392.74 181.874   1
  -3   5  -3 539.626 51.9178   1
  -3   5  -4 1291.41 79.9411   1
  -3   5  -5 380.076 46.5264   1
   3  -5   6 559.081 80.7289   1
   3   5   8 598.217 87.3558  -2
  -3   5  -6 598.217 87.3558   1
  -3   5  -7 2523.10 119.091   1
   3   5  10 2468.87 123.784  -2
  -3   5  -8 2468.87 123.784   1
   3  -5   9 127.102 52.8604   1
   3   5  11 135.608 66.8346  -2
  -3   5  -9 135.608 66.8346   1
   3   5  12 68.9318 66.8127  -2
  -3   5 -10 68.9318 66.8127   1
   3   5  13-0.12290 14.6925  -2
  -3   5 -11-0.12290 14.6925   1
   3  -4 -14-0.04875 10.0970   1
   3  -4 -13 13.6882 30.1283   1
   3  -4 -12 266.083 43.0715   1
   3  -4 -11 949.604 69.6986   1
   3  -4 -10 337.883 42.4462   1
   3  -4  -9 21.4674 17.4345   1
   3  -4  -8 490.586 46.4178   1
  -3   4   7 1420.44 74.3247   1
   3  -4  -6 2384.80 93.4464   1
   3  -4  -5 314.910 34.9755   1
  -3   4   4 17.4817 13.3561   1
  -3   4   3 8.47749 11.8738   1
   3  -4  -2 988.184 58.4198   1
   3  -4  -1 1709.24 76.7995   1
   3  -4   0 4.59157 11.9138   1
   3  -4   1 58.9352 18.3884   1
   3  -4   2 304.153 35.8128   1
   3  -4   3 448.119 43.4895   1
  -3   4  -4 7.30108 13.8708   1
  -3   4  -5 194.986 32.1531   1
  -3   4  -6 223.911 35.1716   1
  -3   4  -7 53.8933 23.1805   1
  -3   4  -8 14.1474 19.9351   1
  -3   4  -9 153.289 50.6598   1
  -3   4 -10 1282.17 128.687   1
  -3   4 -11 47.1771 44.9990   1
  -3   4 -12 0.36378 18.1753   1
   3  -3 -14-0.04004 7.65707   1
   3  -3 -13 36.0227 36.2234   1
   3  -3 -12 52.2928 33.2033   1
   3  -3 -11 182.148 30.9018   1
  -3   3  10 470.009 43.8971   1
   3  -3  -9 6.52174 13.6199   1
   3   3  -7 266.338 32.9917  -2
  -3   3   8 266.338 32.9917   1
   3   3  -6 1510.42 69.0010  -2
  -3   3   7 1510.42 69.0010   1
  -3   3   6 160.570 32.5465   1
  -3  -3   5 464.706 55.4278  -2
   3  -3  -6 464.706 55.4278   1
  -3   3   5 554.118 55.6274   1
  -3  -3   4 1160.29 81.9011  -2
   3  -3  -5 1160.29 81.9011   1
  -3   3   4 759.807 63.6673   1
  -3  -3   3 1035.12 76.9974  -2
   3  -3  -4 1035.12 76.9974   1
  -3   3   3 853.867 67.0712   1
  -3  -3   2 883.181 71.1357  -2
   3  -3  -3 883.181 71.1357   1
   3   3  -1 4469.77 109.578  -2
  -3   3   2 4469.77 109.578   1
  -3  -3   0 2205.80 78.6262  -2
   3  -3  -1 2205.80 78.6262   1
   3   3   1 680.128 45.3885  -2
  -3   3   0 680.128 45.3885   1
   3   3   2 517.378 41.7319  -2
  -3   3  -1 517.378 41.7319   1
   3   3   3 160.899 26.3990  -2
  -3   3  -2 160.899 26.3990   1
  -3  -3  -4 1108.83 64.0463  -2
   3  -3   3 1108.83 64.0463   1
  -3  -3  -5 341.760 41.2698  -2
   3  -3   4 341.760 41.2698   1
  -3  -3  -6 489.164 51.3283  -2
   3  -3   5 489.164 51.3283   1
  -3  -3  -7 1782.20 104.075  -2
   3  -3   6 1782.20 104.075   1
   3   3   8 1017.44 78.8279  -2
  -3   3  -7 1017.44 78.8279   1
   3   3   9 395.705 81.8818  -2
  -3   3  -8 395.705 81.8818   1
   3   3  10 173.180 61.8049  -2
  -3   3  -9 173.180 61.8049   1
   3   3  11 338.033 93.6666  -2
  -3   3 -10 338.033 93.6666   1
   3   3  12 664.078 124.863  -2
  -3   3 -11 664.078 124.863   1
   3   3  13 329.264 104.943  -2
  -3   3 -12 329.264 104.943   1
   3   3  14 0.06183 15.1268  -2
  -3   3 -13 0.06183 15.1268   1
   3  -2 -14 5.03035 7.04359   1
   3  -2 -13 633.109 70.7387   1
   3  -2 -12 238.600 44.5647   1
   3  -2 -11 539.529 60.3292   1
   3  -2 -10 3529.41 143.372   1
  -3   2   9 3487.18 97.6409   1
  -3   2   8 60.6533 15.2986   1
   3  -2  -7 2603.13 77.9308   1
  -3   2   6 114.707 17.4431   1
   3  -2  -5 298.655 25.3994   1
   3  -2  -4 2530.52 70.7834   1
  -3   2   3 3470.02 82.7136   1
  -3   2   2 2458.89 70.6855   1
  -3   2   1 382.827 29.4144   1
  -3   2   0 1755.16 63.2931   1
  -3   2  -1 1271.10 55.7909   1
  -3   2  -2 620.988 41.1520   1
   3  -2   3 2214.63 80.4280   1
   3  -2   4 5033.16 125.732   1
  -3   2  -5 3.60390 11.3104   1
  -3   2  -6 3714.77 118.921   1
  -3   2  -7 2332.71 141.447   1
  -3   2  -8 415.909 65.3201   1
  -3   2  -9 988.277 102.483   1
  -3   2 -10 597.878 84.7631   1
  -3   2 -11 5.98907 32.2200   1
  -3   2 -12 706.726 101.603   1
  -3   2 -13 1006.55 89.0167   1
  -3   2 -14-0.06560 7.84613   1
   3  -1 -14 30.7015 15.9121   1
   3  -1 -13 2.67455 19.9780   1
   3  -1 -12 22.7081 19.6277   1
   3  -1 -11 87.2653 24.0842   1
   3  -1 -10 276.872 35.9471   1
   3  -1  -9 316.410 36.0977   1
   3  -1  -8 7.30239 10.9265   1
  -3   1   7 5971.70 97.5324   1
   3  -1  -6 3636.92 72.6614   1
   3  -1  -5 69.6984 10.9167   1
   3  -1  -4 3076.14 63.3073   1
   3  -1  -3 602.332 41.6121   1
  -3   1   2 3408.28 70.3059   1
  -3   1   1 13883.7 207.679   1
  -3   1   0 1079.62 44.3566   1
   3  -1   1 1110.38 47.8870   1
   3  -1   2 1812.51 64.2756   1
  -3   1  -3 1887.62 69.5823   1
  -3   1  -4 2468.42 83.9497   1
  -3   1  -5 1866.54 109.769   1
  -3   1  -6 1504.60 104.300   1
  -3   1  -7 6.39752 19.1017   1
  -3   1  -8 6.79046 20.2273   1
  -3   1  -9 193.624 48.2390   1
  -3   1 -10 94.4569 39.5291   1
  -3   1 -11 117.993 32.5902   1
  -3   1 -12 926.890 79.1255   1
  -3   1 -13 172.380 43.9550   1
  -3   1 -14 2.65986 16.2076   1
   3   0 -13 108.334 13.8936   1
   3   0 -12 62.4186 16.2822   1
   3   0 -11 10.6654 9.95157   1
   3   0 -10 306.945 27.9888   1
   3   0  -9 213.848 21.9115   1
   3   0  -8 27.8813 8.57704   1
   3   0  -7 225.995 12.7924   1
   3   0  -6 1237.07 36.4016   1
   3   0  -5 2014.30 32.4922   1
  -3   0   4 1970.41 33.5497   1
   3   0  -3 111.817 13.8287   1
   3   0  -3 123.109 14.4300  -2
  -3   0   3 123.109 14.4300   1
   3   0  -2 5545.04 71.7874   1
  -3   0   1 3.14479 5.64949   1
   3   0   0 213.229 18.7266   1
  -3   0  -1 11.1799 11.5139   1
  -3   0  -2 2714.05 105.886   1
  -3   0  -3 515.475 50.4797   1
   3   0   4 128.878 31.4523  -2
  -3   0  -4 128.878 31.4523   1
   3   0   5 374.521 51.2671  -2
  -3   0  -5 374.521 51.2671   1
   3   0   6 207.872 43.1387  -2
  -3   0  -6 207.872 43.1387   1
   3   0   7 2520.67 147.807  -2
  -3   0  -7 2520.67 147.807   1
   3   0   8 3255.39 200.839  -2
  -3   0  -8 3255.39 200.839   1
   3   0   9-1.83066 23.0518  -2
  -3   0  -9-1.83066 23.0518   1
   3   0  10 13.3348 26.8735  -2
  -3   0 -10 13.3348 26.8735   1
   3   0  11 293.445 52.5153  -2
  -3   0 -11 293.445 52.5153   1
   3   0  12 375.998 68.8527  -2
  -3   0 -12 375.998 68.8527   1
   3   0  13 643.046 91.2443  -2
  -3   0 -13 643.046 91.2443   1
   3   0  14 69.4125 57.6975  -2
  -3   0 -14 69.4125 57.6975   1
  -3  -1   2 573.392 27.7065   1
  -3  -1   1 1783.66 60.4858   1
  -3  -1   0 39.7502 9.54833   1
  -3  -1  -1 1782.31 78.3601   1
  -3  -1  -4 3556.43 145.577   1
  -3  -1  -5 339.499 50.0059   1
  -3  -1  -6 2460.40 131.790   1
  -3  -1  -7 421.540 42.0919   1
  -3  -1  -8 4241.45 136.120   1
  -3  -1  -9 3829.48 136.057   1
  -3  -1 -10 397.311 48.4348   1
  -3  -1 -11 365.993 49.4865   1
  -3  -1 -12 835.039 75.1666   1
  -3  -1 -13 69.9012 34.7962   1
  -3  -1 -14 259.223 53.9002   1
  -3  -2   3 305.993 11.2970   1
  -3  -2   1 1544.69 60.7691   1
  -3  -2   0 328.912 33.1335   1
  -3  -2  -1 7378.40 169.585   1
  -3  -2  -2 2020.32 97.3867   1
  -3  -2  -3 1778.01 98.7378   1
  -3  -2  -4 6685.50 203.640   1
  -3  -2  -5 2504.80 133.162   1
  -3  -2  -6 493.979 64.6417   1
  -3  -2  -7 4.60831 20.9949   1
  -3  -2  -8 18.0982 25.8241   1
  -3  -2  -9 16.1818 26.7857   1
  -3  -2 -10 1015.11 112.127   1
  -3  -2 -11 1533.66 97.7208   1
  -3  -2 -12 1079.11 87.2623   1
  -3  -2 -13 421.908 60.8962   1
  -3  -2 -14 180.767 50.0072   1
   3   3  -4 5246.55 64.5482   1
   3   3  -3 2569.53 53.4853   1
   3   3  -2 147.036 22.5621   1
   3  -3  -3 237.413 27.3256  -2
  -3  -3   2 237.413 27.3256   1
   3  -3  -2 534.184 31.9110  -2
  -3  -3   1 534.184 31.9110   1
   3  -3  -1 899.546 43.6376  -2
  -3  -3   0 899.546 43.6376   1
  -3   3   0 3911.58 96.1914  -2
   3   3   1 3911.58 96.1914   1
  -3   3  -1 1030.48 54.4186  -2
   3   3   2 1030.48 54.4186   1
  -3   3  -2 1381.01 65.9394  -2
   3   3   3 1381.01 65.9394   1
   3  -3   3 2492.94 130.335  -2
  -3  -3  -4 2492.94 130.335   1
   3  -3   4 453.405 64.3963  -2
  -3  -3  -5 453.405 64.3963   1
   3  -3   5 130.785 43.3344  -2
  -3  -3  -6 130.785 43.3344   1
   3  -3   6 222.414 58.0420  -2
  -3  -3  -7 222.414 58.0420   1
   3  -3   7 840.835 106.701  -2
  -3  -3  -8 840.835 106.701   1
   3  -3   8 1671.75 149.989  -2
  -3  -3  -9 1671.75 149.989   1
   3  -3   9 1388.32 149.852  -2
  -3  -3 -10 1388.32 149.852   1
   3  -3  10 67.2210 59.2355  -2
  -3  -3 -11 67.2210 59.2355   1
   3  -3  11 765.487 136.006  -2
  -3  -3 -12 765.487 136.006   1
   3  -3  12 173.729 61.0906  -2
  -3  -3 -13 173.729 61.0906   1
   3  -3  13-0.14154 11.0964  -2
  -3  -3 -14-0.14154 11.0964   1
   3   4  -7 398.326 21.8849   1
  -3  -4   6 61.5670 9.04385   1
  -3  -4   5 451.453 24.8575   1
   3   4  -4 76.6831 12.6279   1
  -3  -4   3 2695.27 69.4267   1
   3   4  -2 1307.38 51.7026   1
  -3  -4   1 3.97430 6.81062   1
   3   4   0 1551.42 62.9701   1
  -3  -4  -1 3.19272 9.84398   1
   3   4   2 75.3582 18.2663   1
  -3  -4  -3 136.028 24.0929   1
  -3  -4  -4 361.466 38.8661   1
   3   4   5 195.718 31.2603   1
  -3  -4  -6 72.1291 31.6647   1
  -3  -4  -7 6.25825 22.3646   1
  -3  -4  -8 718.012 90.9610   1
  -3  -4  -9 819.158 101.336   1
  -3  -4 -10 89.7356 44.8502   1
  -3  -4 -11 1.42195 36.8864   1
  -3  -4 -12 112.892 59.7239   1
  -3  -4 -13 803.131 123.547   1
   3   5  -8 97.9957 16.6223   1
  -3  -5   7 1097.36 41.4427   1
   3   5  -6 1233.38 48.1030   1
  -3  -5   5 821.638 42.1183   1
   3   5  -4 253.019 25.4079   1
  -3  -5   3 201.344 23.9605   1
  -3  -5   2 949.904 51.1603   1
   3   5  -1 192.828 25.8196   1
   3   5   0 5497.87 131.688   1
   3   5   1 7461.85 159.607   1
  -3  -5  -2 223.134 31.0620   1
  -3  -5  -3 1347.84 74.4560   1
   3   5   4 932.829 64.8761   1
   3   5   5 378.837 44.6183   1
   3   5   6 5740.95 171.168   1
   3   5   7 1431.04 90.2524   1
  -3  -5  -8 23.4777 31.4723   1
  -3  -5  -9 484.642 84.3188   1
  -3  -5 -10 204.206 64.2323   1
  -3  -5 -11 2.86479 41.3135   1
  -3  -5 -12 268.798 83.0360   1
   3   6  -9 5.21986 10.4282   1
   3   6  -8 326.449 38.6481   1
  -3  -6   7 796.522 60.8186   1
  -3   6   9 878.343 69.2445  -2
   3   6  -7 878.343 69.2445   1
  -3   6   8 414.163 37.3235  -2
   3   6  -6 414.163 37.3235   1
  -3   6   7 893.441 53.6681  -2
   3   6  -5 893.441 53.6681   1
  -3   6   6 1158.14 61.7559  -2
   3   6  -4 1158.14 61.7559   1
  -3   6   5 225.041 32.2915  -2
   3   6  -3 225.041 32.2915   1
  -3   6   4 652.580 50.3632  -2
   3   6  -2 652.580 50.3632   1
  -3   6   3 305.476 38.0904  -2
   3   6  -1 305.476 38.0904   1
  -3   6   2 447.793 46.1780  -2
   3   6   0 447.793 46.1780   1
   3  -6  -1 1149.34 72.1035  -2
  -3  -6  -1 1149.34 72.1035   1
  -3   6   0 604.926 55.9280  -2
   3   6   2 604.926 55.9280   1
  -3   6  -1 9.88824 23.3272  -2
   3   6   3 9.88824 23.3272   1
   3  -6   2 38.7926 27.9704  -2
  -3  -6  -4 38.7926 27.9704   1
  -3   6  -3 17.8182 27.9706  -2
   3   6   5 17.8182 27.9706   1
  -3   6  -4 82.4150 36.3576  -2
   3   6   6 82.4150 36.3576   1
  -3   6  -5 9.59244 32.6825  -2
   3   6   7 9.59244 32.6825   1
  -3   6  -6 1943.43 122.827  -2
   3   6   8 1943.43 122.827   1
   3  -6   7 2087.34 187.422  -2
  -3  -6  -9 2087.34 187.422   1
   3  -6   8 412.772 105.169  -2
  -3  -6 -10 412.772 105.169   1
   3  -6   9 205.506 98.2914  -2
  -3  -6 -11 205.506 98.2914   1
   3   7  -7 367.897 37.0399   1
   3   7  -6 39.5198 20.3902   1
  -3  -7   5-3.35919 17.5198   1
   3   7  -4 78.6742 24.0932   1
   3   7  -3 29.5702 18.4191   1
   3   7  -2 113.411 27.6278   1
  -3  -7   1 281.242 38.7419   1
  -3  -7   0 218.075 36.0770   1
   3   7   1 963.361 71.0677   1
   3   7   2 727.686 64.0586   1
   3   7   3 46.3910 25.1111   1
  -3  -7  -4 332.959 48.4743   1
   3   7   5 43.3507 27.6011   1
   3   7   6 443.284 58.6674   1
   3   7   7 191.001 44.9292   1
   3   7   8 42.9171 34.3919   1
  -3  -7  -9 23.5779 51.6518   1
   3   8  -5-0.03877 5.10970   1
  -3  -8   4 0.77771 24.6294   1
   3   8  -3 23.8287 24.9449   1
  -3  -8   2 311.475 45.9287   1
   3   8  -1 80.6769 31.2567   1
  -3  -8   0 416.378 53.5752   1
  -3  -8  -1 283.604 46.8693   1
   3   8   2 37.3035 28.8346   1
   3   8   3 96.3752 36.0689   1
  -3  -8  -4 136.722 41.2159   1
   3   8   5 1211.10 96.5971   1
   3   8   6 1800.87 119.730   1
   3   8   7 441.030 65.6605   1
   3  -9  -6-0.10020 15.4686  -2
  -3  -9   3-0.10020 15.4686   1
  -3   9   5-0.10696 10.8470  -2
   3   9  -2-0.10696 10.8470   1
  -3   9   4-0.11124 10.6172  -2
   3   9  -1-0.11124 10.6172   1
   3  -9  -3-0.11565 10.5442  -2
  -3  -9   0-0.11565 10.5442   1
   3  -9  -2-0.12042 10.6415  -2
  -3  -9  -1-0.12042 10.6415   1
  -3   9   1-0.12552 11.0266  -2
   3   9   2-0.12552 11.0266   1
  -4   8   3 122.846 45.1732   1
  -4   8   2 1018.77 93.3673   1
  -4   8   1 1046.84 94.4774   1
   4  -8   0 289.107 57.7057   1
  -4   7   9-0.06309 7.69531   1
  -4   7   8 11.2320 15.7315   1
   4  -7  -7 12.4690 31.3582   1
  -4   7   6 66.3394 33.9653   1
  -4   7   5 5.88723 27.4066   1
  -4   7   4 19.4510 27.3271   1
  -4   7   3 19.0754 26.5833   1
  -4   7   2 81.9121 32.3822   1
   4  -7  -1 136.911 38.2979   1
   4  -7   0 129.300 37.7655   1
   4  -7   1 1274.53 95.2800   1
   4  -7   2 1983.09 118.273   1
   4  -7   3 39.6621 33.5497   1
   4  -7   4 127.531 41.6352   1
  -4   7  -5-12.7811 32.1060   1
  -4   7  -6 65.3366 25.9853   1
   4  -6 -12-0.06018 9.12665   1
  -4   6  11-0.05807 7.49263   1
   4  -6 -10 305.668 45.2356   1
  -4   6   9 299.453 50.8416   1
  -4   6   8 40.3911 28.8163   1
  -4   6   7 196.211 39.9131   1
   4  -6  -6 18.6361 22.6613   1
   4  -6  -5 423.746 51.9976   1
   4  -6  -4 857.134 70.8353   1
   4  -6  -3 1216.99 83.0446   1
   4  -6  -2 1276.25 85.2032   1
   4  -6  -1 178.629 36.5587   1
  -4   6   0 247.466 41.2446   1
  -4   6  -1 9.64570 20.8917   1
  -4   6  -2 1315.78 125.473   1
  -4  -6  -4 1412.02 136.005  -2
   4  -6   2 1412.02 136.005   1
  -4   6  -3 3536.05 205.941   1
  -4  -6  -5 3997.10 223.653  -2
   4  -6   3 3997.10 223.653   1
  -4  -6  -6 978.039 83.4421  -2
   4  -6   4 978.039 83.4421   1
  -4   6  -5 14.2137 35.6531   1
  -4  -6  -7 63.2669 55.2122  -2
   4  -6   5 63.2669 55.2122   1
   4   6   8 492.497 71.4360  -2
  -4   6  -6 492.497 71.4360   1
  -4  -6  -9 119.517 51.4843  -2
   4  -6   7 119.517 51.4843   1
   4   6  10 423.968 79.8320  -2
  -4   6  -8 423.968 79.8320   1
   4  -5 -12-0.05054 6.52393   1
  -4   5  11 574.279 61.9834   1
  -4   5  10 734.047 66.7325   1
   4  -5  -9 32.1787 24.5479   1
   4  -5  -8 422.089 49.3458   1
   4  -5  -7 320.978 42.8992   1
   4  -5  -6 309.829 41.2330   1
   4  -5  -5 1855.00 93.2780   1
   4  -5  -4 2137.02 99.4780   1
   4  -5  -3 397.378 44.7951   1
  -4   5   2 3344.11 124.309   1
   4  -5  -1 1121.55 73.7588   1
  -4   5   0 5.86924 16.9414   1
   4  -5   1 618.818 57.0942   1
  -4   5  -2 160.860 32.6536   1
   4  -5   3 14.4595 19.0065   1
  -4   5  -4 849.808 70.0381   1
  -4   5  -5 1061.61 79.6770   1
   4  -5   6 750.309 69.3968   1
   4  -5   7 235.773 62.2475   1
   4   5   9 301.980 77.3666  -2
  -4   5  -7 301.980 77.3666   1
   4   5  10 112.009 45.9665  -2
  -4   5  -8 112.009 45.9665   1
   4  -5   9 112.408 58.8994   1
   4   5  11 122.569 75.4028  -2
  -4   5  -9 122.569 75.4028   1
   4   5  12 38.6572 26.3857  -2
  -4   5 -10 38.6572 26.3857   1
   4  -4 -13-0.04302 8.55199   1
   4  -4 -12 55.1907 28.8658   1
   4  -4 -11 319.581 43.4580   1
  -4   4  10 1921.20 93.8539   1
   4  -4  -9 1400.68 78.7759   1
  -4   4   8 21.6122 17.1396   1
  -4   4   7 550.652 48.2772   1
   4  -4  -6 121.695 24.8290   1
   4  -4  -5 1345.77 71.8997   1
  -4   4   4 1612.79 78.1872   1
  -4   4   3 1354.59 71.9179   1
   4  -4  -2 1361.53 72.8028   1
   4  -4  -1 208.487 30.9868   1
  -4   4   0 102.137 23.7726   1
   4  -4   1 17.8705 15.9018   1
  -4   4  -2 17.9635 15.5982   1
  -4   4  -3 2149.37 99.0929   1
  -4   4  -4 2136.59 101.514   1
  -4   4  -5 106.022 27.8796   1
  -4   4  -6 930.167 71.8166   1
   4  -4   7 819.229 70.2274   1
   4  -4   8 149.624 36.4231   1
  -4   4  -9 446.346 83.4366   1
  -4   4 -10 714.647 106.332   1
  -4   4 -11 7.11315 48.3538   1
   4  -3 -13-0.03300 6.42265   1
   4  -3 -12-1.29551 26.9740   1
  -4   3  11 27.0283 19.0525   1
   4  -3 -10 9.49997 15.3369   1
   4  -3  -9 793.617 53.2728   1
  -4   3   8 935.790 56.1436   1
   4  -3  -7 280.195 31.4062   1
   4  -3  -6 1164.37 59.9262   1
   4  -3  -5 256.286 29.4040   1
   4  -3  -4 510.833 39.9804   1
  -4   3   3 68.6471 17.3424   1
   4  -3  -2 214.415 27.6338   1
  -4   3   1 421.778 37.9400   1
  -4   3   0 298.927 46.2989   1
  -4  -3  -1 1016.63 85.0841  -2
   4  -3   0 1016.63 85.0841   1
   4   3   2 436.843 41.7110  -2
  -4   3  -1 436.843 41.7110   1
  -4   3  -2 185.105 40.3832   1
  -4  -3  -3 373.338 56.9971  -2
   4  -3   2 373.338 56.9971   1
  -4  -3  -4 1735.51 84.4176  -2
   4  -3   3 1735.51 84.4176   1
  -4   3  -4 1094.80 97.1955   1
  -4  -3  -5 1235.69 104.186  -2
   4  -3   4 1235.69 104.186   1
  -4  -3  -6 863.900 65.4110  -2
   4  -3   5 863.900 65.4110   1
  -4  -3  -7 363.229 48.1300  -2
   4  -3   6 363.229 48.1300   1
  -4  -3  -8 182.122 39.6515  -2
   4  -3   7 182.122 39.6515   1
   4   3   9 620.834 107.050  -2
  -4   3  -8 620.834 107.050   1
   4   3  10 156.733 67.3470  -2
  -4   3  -9 156.733 67.3470   1
   4   3  11 64.1284 60.1288  -2
  -4   3 -10 64.1284 60.1288   1
   4   3  12 78.4949 69.4023  -2
  -4   3 -11 78.4949 69.4023   1
   4   3  13 318.341 106.795  -2
  -4   3 -12 318.341 106.795   1
   4  -2 -13 185.389 26.9081   1
   4  -2 -12 706.833 63.5752   1
   4  -2 -11 83.5876 27.1777   1
   4  -2 -10 21.9721 18.5768   1
  -4   2   9 3.46231 10.2494   1
  -4   2   8 780.615 44.1491   1
  -4   2   7 143.600 20.0309   1
  -4   2   6 3548.52 89.2409   1
  -4   2   5 7301.52 127.346   1
  -4   2   4 1245.38 53.6580   1
  -4   2   3 1207.46 53.6898   1
  -4   2   2 3502.28 92.7259   1
   4  -2  -1 7.82206 9.38301   1
  -4   2   0 5105.20 118.418   1
  -4   2  -1 4076.73 109.933   1
  -4   2  -2 408.957 37.2909   1
   4  -2   3 773.592 52.7514   1
   4  -2   4 326.974 37.0956   1
  -4   2  -5 110.709 25.0782   1
  -4   2  -6 820.957 88.0976   1
  -4   2  -7-2.99138 22.3436   1
   4   2   9 122.860 51.0059  -2
  -4   2  -8 122.860 51.0059   1
   4   2  10 304.539 71.8727  -2
  -4   2  -9 304.539 71.8727   1
  -4   2 -10 169.756 55.1873   1
  -4   2 -11 621.215 98.2290   1
  -4   2 -12 160.566 65.6222   1
  -4   2 -13-0.06855 7.69495   1
   4  -1 -12 89.2385 10.8904   1
   4  -1 -11 425.327 24.0703   1
   4  -1 -10 1644.01 66.9142   1
   4  -1  -9 26.8561 12.1413   1
  -4   1   8 1196.63 41.8647   1
  -4   1   7 656.449 31.3403   1
   4  -1  -6-0.17202 6.26409   1
   4  -1  -5 3402.14 71.1363   1
  -4   1   4 2486.47 62.8165   1
  -4   1   3 21.3623 8.52958   1
   4  -1  -2 12.1887 7.95890   1
   4  -1  -1 2.29253 7.36430   1
   4  -1   0 417.518 31.7560   1
   4  -1   1 460.425 35.1232   1
   4  -1   2 6442.31 135.254   1
  -4   1  -3 7002.34 148.401   1
  -4   1  -4 1879.67 115.615   1
  -4   1  -5 230.675 44.8250   1
  -4   1  -6 2140.13 134.606   1
  -4   1  -7 42.0696 28.7587   1
  -4   1  -8 5464.79 234.679   1
  -4   1  -9 5646.99 249.115   1
  -4   1 -10 1105.18 117.983   1
  -4   1 -11 216.852 62.4801   1
  -4   1 -12 542.603 68.0880   1
  -4   1 -13 1.68103 35.1106   1
  -4   0   5 1567.57 40.2184   1
  -4   0   4 2985.24 50.0194   1
  -4   0   3 63.9487 9.60980   1
  -4   0   2 929.272 36.4583   1
  -4   0   1 1.98656 8.59507   1
  -4   0   0 1807.69 85.3457   1
  -4   0  -1 5436.72 157.111   1
  -4   0  -2 1302.28 82.9176   1
  -4   0  -3 90.9723 26.2084   1
   4   0   4 1195.82 90.7871  -2
  -4   0  -4 1195.82 90.7871   1
   4   0   5 108.095 35.9201  -2
  -4   0  -5 108.095 35.9201   1
   4   0   6 172.852 46.0526  -2
  -4   0  -6 172.852 46.0526   1
   4   0   7 238.368 54.4764  -2
  -4   0  -7 238.368 54.4764   1
   4   0   8 16.4165 34.0184  -2
  -4   0  -8 16.4165 34.0184   1
   4   0   9 15.7018 25.7146  -2
  -4   0  -9 15.7018 25.7146   1
   4   0  10 54.8081 34.1467  -2
  -4   0 -10 54.8081 34.1467   1
   4   0  11 355.907 67.5073  -2
  -4   0 -11 355.907 67.5073   1
   4   0  12 612.989 81.1870  -2
  -4   0 -12 612.989 81.1870   1
   4   0  13 327.316 71.4823  -2
  -4   0 -13 327.316 71.4823   1
  -4  -1   3 52.2218 8.59445   1
  -4  -1   2 206.120 22.2152   1
  -4  -1   1 692.995 45.8488   1
  -4  -1   0 6927.87 159.259   1
  -4  -1  -1 3211.82 117.798   1
  -4  -1  -2 78.6203 22.7232   1
  -4  -1  -3 176.060 34.1292   1
  -4  -1  -4 671.882 67.6119   1
  -4  -1  -5 2980.27 104.618   1
  -4  -1  -6 2041.68 91.4906   1
  -4  -1  -7 1009.06 68.5109   1
  -4  -1  -8 891.709 67.8487   1
  -4  -1  -9 323.813 44.8795   1
  -4  -1 -10 576.647 60.7715   1
  -4  -1 -11 138.039 36.5094   1
  -4  -1 -12 8.56806 28.0677   1
  -4  -1 -13 268.447 56.0384   1
  -4  -2   3 5296.96 52.2306   1
  -4  -2   2 9898.52 104.379   1
  -4  -2   1 1307.07 45.3267   1
  -4  -2   0 956.036 62.2941   1
  -4  -2  -1 205.318 33.1601   1
  -4  -2  -2 5.91869 13.5740   1
  -4  -2  -3 210.294 39.3397   1
  -4  -2  -4 723.399 73.9577   1
  -4  -2  -5 770.919 80.7478   1
  -4  -2  -6 416.081 63.8456   1
  -4  -2  -7 432.771 68.5940   1
  -4  -2  -8 790.113 92.5692   1
  -4  -2  -9 878.801 72.0601   1
  -4  -2 -10 121.483 33.5212   1
  -4  -2 -11 834.917 77.4477   1
  -4  -2 -12 14.7196 29.4734   1
  -4  -2 -13 755.424 83.4103   1
  -4  -3   3 391.997 27.3668   1
  -4  -3   2 817.517 47.7540   1
  -4  -3   1 11.0823 11.1260   1
  -4  -3   0 7734.13 182.023   1
  -4  -3  -1 6434.49 180.643   1
  -4  -3  -2 263.768 41.4294   1
  -4  -3  -3 1707.89 107.731   1
   4  -3   3 1004.35 90.5861  -2
  -4  -3  -4 1004.35 90.5861   1
   4  -3   4 1607.52 119.474  -2
  -4  -3  -5 1607.52 119.474   1
   4  -3   5 6958.82 256.829  -2
  -4  -3  -6 6958.82 256.829   1
   4  -3   6 2890.07 178.461  -2
  -4  -3  -7 2890.07 178.461   1
   4  -3   7 24.6720 40.7100  -2
  -4  -3  -8 24.6720 40.7100   1
   4  -3   8 649.521 103.918  -2
  -4  -3  -9 649.521 103.918   1
   4  -3   9 44.0754 53.2485  -2
  -4  -3 -10 44.0754 53.2485   1
   4  -3  10 123.499 70.4189  -2
  -4  -3 -11 123.499 70.4189   1
   4  -3  11 481.074 75.1640  -2
  -4  -3 -12 481.074 75.1640   1
   4  -3  12 1037.65 109.810  -2
  -4  -3 -13 1037.65 109.810   1
  -4  -4   4 0.98014 6.67775   1
  -4  -4   3 720.963 47.3088   1
  -4  -4   2 1096.45 64.6635   1
  -4  -4   1 2.66219 12.0189   1
  -4  -4   0 630.850 57.9550   1
  -4  -4  -1 1.67220 15.2099   1
  -4  -4  -2 258.951 43.5414   1
  -4  -4  -3 689.392 72.6023   1
  -4  -4  -4 25.0844 23.1002   1
  -4  -4  -5 493.971 69.3524   1
  -4  -4  -6 10.6032 25.2163   1
  -4  -4  -7 18.9611 28.0679   1
  -4  -4  -8 48.2230 36.4893   1
  -4  -4  -9 947.904 113.491   1
  -4  -4 -10 344.016 77.3161   1
  -4  -4 -11-2.06599 41.1722   1
  -4  -4 -12 61.9192 57.2362   1
  -4  -5   5 438.168 34.9687   1
  -4  -5   4 379.596 28.2126   1
   4   5  -3 1787.66 64.7804   1
   4   5  -2 1483.75 63.3649   1
   4   5  -1 4.06553 11.1440   1
   4   5   0-0.18349 12.2856   1
   4   5   1 49.5878 18.2563   1
  -4  -5  -2 1404.65 75.5881   1
  -4  -5  -3 1117.10 70.6381   1
  -4  -5  -4 80.3234 34.0367   1
  -4  -5  -5 141.320 43.2656   1
  -4  -5  -6 166.066 49.0574   1
  -4  -5  -7 18.3610 31.7973   1
  -4  -5  -8 26.6731 35.2038   1
  -4  -5  -9 225.762 65.9004   1
  -4  -5 -10 700.527 108.805   1
  -4  -5 -11 635.129 110.289   1
   4   6  -6 295.045 22.9724   1
   4   6  -5 903.658 46.2247   1
   4   6  -4 669.122 43.7887   1
   4   6  -3 4.91055 12.9147   1
   4   6  -2 264.118 32.3666   1
  -4  -6   1 42.2346 16.6756   1
   4   6   0 227.883 32.8875   1
   4   6   1 17.0364 17.3363   1
   4   6   2 953.625 67.8490   1
   4  -6   1 1289.66 83.4962  -2
  -4  -6  -3 1289.66 83.4962   1
  -4   6  -2 211.738 43.1103  -2
   4   6   4 211.738 43.1103   1
  -4  -6  -5 3607.40 200.450   1
  -4   6  -3 3694.48 213.585  -2
   4   6   5 3694.48 213.585   1
   4  -6   4 2543.42 178.529  -2
  -4  -6  -6 2543.42 178.529   1
   4  -6   5 460.109 90.7623  -2
  -4  -6  -7 460.109 90.7623   1
   4  -6   6 556.523 103.570  -2
  -4  -6  -8 556.523 103.570   1
   4  -6   7 532.531 108.140  -2
  -4  -6  -9 532.531 108.140   1
   4  -6   8 112.887 83.0096  -2
  -4  -6 -10 112.887 83.0096   1
  -4  -7   6 12.1155 12.9178   1
   4   7  -5 27.9703 19.4966   1
   4   7  -4 5.59658 17.9621   1
   4   7  -3 804.067 57.4808   1
   4   7  -2 3190.12 115.342   1
   4   7  -1 668.104 57.3227   1
   4   7   0 97.7703 28.6437   1
  -4  -7  -1 180.100 35.5349   1
   4   7   2 339.979 46.8611   1
   4   7   3 1598.72 97.3541   1
   4   7   4 1297.33 91.3287   1
   4   7   5 377.232 55.0014   1
   4   7   6 5.91218 28.4350   1
  -4  -7  -7-2.34328 43.2614   1
  -4  -7  -8 147.714 66.9018   1
  -4  -8   4-0.03689 5.18526   1
   4   8  -3-0.03975 5.02473   1
   4   8  -2 3.62150 23.7012   1
   4   8  -1 439.101 54.4498   1
   4   8   0 136.685 36.8945   1
  -4  -8  -1 56.7573 31.4879   1
   4   8   2 307.264 51.2088   1
  -4  -8  -3 135.071 41.2964   1
   4   8   4 16.8340 33.6705   1
   4   8   5 1.15325 31.5764   1
   4   8   6-0.06744 7.28783   1
  -4  -9   1-0.05354 8.25563   1
   4   9   0-0.05658 7.99425   1
   4   9   1-0.05968 8.20968   1
  -4  -9  -2-0.06268 8.51411   1
  -5   7   7-0.06219 7.41609   1
  -5   7   6 0.12807 7.36141   1
  -5   7   5 1178.07 95.0159   1
  -5   7   4 611.017 71.4115   1
   5  -7  -3 4.89199 30.1354   1
  -5   7   2 451.088 63.1053   1
   5  -7  -1 48.9563 33.1965   1
   5  -7   0 276.468 52.2726   1
   5  -7   1 340.370 57.4436   1
   5  -7   2 98.8529 42.2567   1
  -5   7  -3 3.80390 35.2695   1
  -5   6  11-0.05815 9.12865   1
  -5   6  10-0.05656 7.72474   1
  -5   6   9-0.05491 6.54458   1
   5  -6  -8 35.7648 32.1248   1
  -5   6   7 53.3557 32.0366   1
  -5   6   6 82.3213 32.6852   1
  -5   6   5 956.891 78.5441   1
   5  -6  -4 122.735 34.9942   1
  -5   6   3 5.53873 22.5355   1
   5  -6  -2 70.0903 29.7341   1
   5  -6  -1 412.947 54.3037   1
   5  -6   0 559.902 62.7004   1
  -5   6  -1 133.110 37.1547   1
   5  -6   2 214.792 44.6408   1
   5  -6   3 65.2022 31.6097   1
   5  -6   4 346.267 55.7292   1
  -5   6  -5 164.633 44.5703   1
  -5   6  -6-1.16552 46.0334   1
  -5  -6  -8 23.5727 68.3546  -2
   5  -6   6 23.5727 68.3546   1
  -5   5  11-0.04822 6.27024   1
  -5   5  10-2.60820 15.3145   1
  -5   5   9 998.693 75.7069   1
  -5   5   8 2164.28 107.044   1
  -5   5   7 537.528 55.7233   1
  -5   5   6 895.553 69.1289   1
  -5   5   5 492.301 52.4893   1
   5  -5  -4 5.51566 18.2420   1
  -5   5   3 280.294 41.1946   1
   5  -5  -2 738.385 63.4907   1
   5  -5  -1 442.167 50.7202   1
  -5   5   0 52.8557 24.2579   1
  -5   5  -1 30.6426 22.5507   1
  -5   5  -2 704.714 65.5392   1
  -5   5  -3 692.901 66.8061   1
  -5   5  -4 43.5480 26.2035   1
  -5   5  -5 628.021 66.9630   1
  -5   5  -6 182.273 42.8438   1
  -5   5  -7 381.428 58.7868   1
   5  -5   8 627.360 105.112   1
   5   5  10 645.765 117.818  -2
  -5   5  -8 645.765 117.818   1
   5  -4 -11 21.4524 18.8610   1
  -5   4  10 43.2744 25.2209   1
  -5   4   9 163.458 32.2374   1
  -5   4   8 226.583 34.5504   1
  -5   4   7 46.0597 20.6300   1
  -5   4   6 2616.13 104.325   1
  -5   4   5 4735.28 140.151   1
  -5   4   4 225.231 33.4710   1
  -5   4   3 797.692 59.3844   1
   5  -4  -2 1321.55 76.3873   1
  -5   4   1 84.7181 24.1508   1
   5  -4   0 5606.36 159.395   1
  -5   4  -1 2799.53 115.464   1
  -5   4  -2 18.3897 18.3534   1
  -5   4  -3 1079.30 76.3674   1
  -5   4  -4 86.3711 27.4561   1
  -5   4  -5 393.338 50.4770   1
   5  -4   6 1146.71 85.6020   1
  -5   4  -7 762.335 73.1118   1
  -5   4  -8 11.7182 39.8211   1
  -5   4  -9 129.965 59.3779   1
  -5   4 -10 60.8995 49.2085   1
   5  -3 -12-0.02775 4.99489   1
  -5   3  11 2.21206 18.4537   1
  -5   3  10 137.243 26.5299   1
  -5   3   9 110.504 23.8389   1
  -5   3   8 596.167 45.8848   1
   5  -3  -7 411.841 38.5443   1
  -5   3   6 183.878 27.1318   1
  -5   3   5 141.043 24.4004   1
   5  -3  -4 37.8295 16.1473   1
   5  -3  -3 421.827 39.7611   1
  -5   3   2 388.335 38.9868   1
   5  -3  -1 229.569 31.3170   1
   5  -3   0 373.070 39.7236   1
  -5   3  -1 49.9969 19.1682   1
  -5   3  -2 929.561 90.6962   1
  -5  -3  -3 1200.14 104.907  -2
   5  -3   2 1200.14 104.907   1
   5  -3   3 1137.12 73.0253   1
   5   3   5 663.815 60.3571  -2
  -5   3  -4 663.815 60.3571   1
  -5  -3  -6 25.6873 25.8010  -2
   5  -3   5 25.6873 25.8010   1
  -5   3  -6 474.304 77.1334   1
  -5  -3  -7 472.632 80.7033  -2
   5  -3   6 472.632 80.7033   1
  -5   3  -7 33.0603 34.9413   1
   5   3   9 1528.50 156.512  -2
  -5   3  -8 1528.50 156.512   1
  -5   3  -9 3388.82 218.299   1
   5   3  11 512.089 110.058  -2
  -5   3 -10 512.089 110.058   1
   5   3  12 29.9520 74.0358  -2
  -5   3 -11 29.9520 74.0358   1
   5  -2 -12 8.95381 13.2959   1
   5  -2 -11 32.9611 18.3119   1
   5  -2 -10 257.176 36.3439   1
  -5   2   9 1384.56 56.8431   1
  -5   2   8 1443.70 58.8451   1
  -5   2   7 424.413 33.0112   1
  -5   2   6 59.2249 15.0603   1
   5  -2  -5 66.6483 15.8303   1
   5  -2  -4 1516.37 63.5747   1
   5  -2  -3 2277.89 79.4967   1
   5  -2  -2 472.663 38.2205   1
  -5   2   1 107.653 20.8123   1
  -5   2   0 1338.01 67.1921   1
   5  -2   1 347.624 36.7164   1
  -5   2  -2 895.663 59.1836   1
   5  -2   3 495.850 46.6957   1
   5  -2   4 673.823 56.5117   1
  -5   2  -5 1046.38 103.126   1
  -5   2  -6 144.914 45.1910   1
  -5   2  -7 348.140 67.4785   1
  -5   2  -8 265.698 64.2098   1
  -5   2  -9 125.444 53.1348   1
   5   2  11 899.813 126.258  -2
  -5   2 -10 899.813 126.258   1
  -5   2 -11 121.345 61.5086   1
   5  -1  -8 251.949 23.1330   1
  -5   1   7 0.90685 5.94909   1
   5  -1  -6 33.0158 9.59134   1
   5  -1  -5 22.1319 9.28591   1
   5  -1  -4 691.306 36.9678   1
   5  -1  -3 1678.99 59.9786   1
  -5   1   2 30.7327 11.9438   1
  -5   1   1 2564.10 81.5176   1
   5  -1   0 4547.45 113.945   1
   5  -1   1 769.178 50.2640   1
   5  -1   2 784.711 53.1402   1
  -5   1  -3 2875.84 148.535   1
  -5   1  -4 95.2945 33.5019   1
  -5   1  -5 4112.00 194.433   1
  -5   1  -6 3071.00 175.036   1
  -5   1  -7 1696.00 136.991   1
  -5   1  -8 36.8044 34.4154   1
  -5   1  -9 17.5897 34.3521   1
  -5   1 -10 16.9238 36.6488   1
  -5   1 -11 419.964 89.1854   1
  -5   1 -12 639.403 78.9586   1
  -5   0   5 665.290 29.9325   1
  -5   0   4 405.906 30.9096   1
  -5   0   3 6206.52 135.946   1
  -5   0   2 9744.24 188.493   1
  -5   0   1 905.548 63.7379   1
  -5   0   0 71.3006 22.2943   1
  -5   0  -1 161.959 33.4719   1
  -5   0  -2 911.300 77.2186   1
   5   0   3 1231.04 95.7108  -2
  -5   0  -3 1231.04 95.7108   1
  -5   0  -4 1442.07 107.273   1
   5   0   5 2167.52 138.927  -2
  -5   0  -5 2167.52 138.927   1
  -5   0  -6 442.595 67.7935   1
   5   0   7 33.1684 38.4131  -2
  -5   0  -7 33.1684 38.4131   1
  -5   0  -8 144.002 47.6773   1
   5   0   9 43.8144 33.7269  -2
  -5   0  -9 43.8144 33.7269   1
   5   0  10 757.446 81.2685  -2
  -5   0 -10 757.446 81.2685   1
   5   0  11 1384.88 111.736  -2
  -5   0 -11 1384.88 111.736   1
   5   0  12 96.7761 54.6255  -2
  -5   0 -12 96.7761 54.6255   1
  -5  -1   3 27.7131 9.82213   1
  -5  -1   2 1198.04 61.4570   1
  -5  -1   1 991.814 63.4537   1
  -5  -1   0 671.138 57.0777   1
  -5  -1  -1 2346.49 113.396   1
  -5  -1  -2 360.998 49.0882   1
  -5  -1  -3 350.801 51.4263   1
  -5  -1  -4 65.7394 28.4307   1
  -5  -1  -5 729.764 56.7978   1
  -5  -1  -6 1731.54 90.5216   1
  -5  -1  -7 1361.04 84.3298   1
  -5  -1  -8 27.2725 22.2292   1
  -5  -1  -9-3.36651 21.3430   1
  -5  -1 -10 185.380 42.3299   1
  -5  -1 -11 247.213 50.0990   1
  -5  -1 -12 274.006 57.2296   1
  -5  -2   3 645.085 22.5178   1
  -5  -2   2 302.345 21.7148   1
  -5  -2   1 1235.97 49.2200   1
  -5  -2   0 135.698 19.3963   1
  -5  -2  -1 1154.92 56.8222   1
  -5  -2  -2 5802.61 134.910   1
  -5  -2  -3 2472.75 93.9261   1
  -5  -2  -4 88.0288 22.2565   1
  -5  -2  -5 1421.63 79.6056   1
  -5  -2  -6 77.7746 24.6368   1
  -5  -2  -7 1564.60 91.9069   1
  -5  -2  -8 1320.48 88.6277   1
  -5  -2  -9 1.75190 22.6942   1
  -5  -2 -10 278.324 48.8699   1
  -5  -2 -11 212.617 48.9789   1
  -5  -2 -12 36.6580 38.5538   1
  -5  -3   3 3407.63 80.2199   1
  -5  -3   2 827.802 36.9928   1
  -5  -3   1 222.211 32.6820   1
  -5  -3   0 746.074 62.1051   1
  -5  -3  -1 29.4808 19.8800   1
  -5  -3  -2 1842.99 112.418   1
  -5  -3  -3 2499.07 139.432   1
  -5  -3  -4 516.482 69.3312   1
  -5  -3  -5 97.8929 36.8761   1
   5  -3   5 20.7659 37.2123  -2
  -5  -3  -6 20.7659 37.2123   1
   5  -3   6 63.8808 46.1695  -2
  -5  -3  -7 63.8808 46.1695   1
   5  -3   7 44.7232 49.2876  -2
  -5  -3  -8 44.7232 49.2876   1
   5  -3   8 1236.11 96.5028  -2
  -5  -3  -9 1236.11 96.5028   1
   5  -3   9 2291.32 133.078  -2
  -5  -3 -10 2291.32 133.078   1
   5  -3  10 973.883 97.0478  -2
  -5  -3 -11 973.883 97.0478   1
  -5  -4   3 7.35662 9.95745   1
  -5  -4   2 7.62596 12.2532   1
  -5  -4   1 9.92897 14.3334   1
  -5  -4   0 270.848 41.0751   1
  -5  -4  -1 163.746 35.4049   1
  -5  -4  -2 1462.65 103.861   1
  -5  -4  -3 1976.09 127.456   1
  -5  -4  -4-5.19586 22.2456   1
  -5  -4  -5 1491.74 123.293   1
  -5  -4  -6 1260.36 119.396   1
  -5  -4  -7 6.86055 29.3355   1
  -5  -4  -8 672.663 97.5895   1
  -5  -4  -9 464.273 87.6787   1
  -5  -4 -10-6.77963 45.0010   1
  -5  -4 -11 497.488 71.8219   1
  -5  -5   4 74.1310 15.7473   1
  -5  -5   3 52.1039 18.8590   1
  -5  -5   2 831.266 64.4665   1
  -5  -5   1 824.992 69.6546   1
  -5  -5   0 24.9449 21.1963   1
  -5  -5  -1 41.2902 25.3094   1
  -5  -5  -2 1034.82 92.9526   1
  -5  -5  -3 718.404 82.1322   1
  -5  -5  -4 113.343 40.6938   1
  -5  -5  -5 206.826 53.2763   1
  -5  -5  -6 267.633 62.6052   1
  -5  -5  -7 1605.14 145.104   1
  -5  -5  -8 1084.86 125.744   1
  -5  -5  -9 190.388 67.9480   1
  -5  -5 -10 8.70802 50.7174   1
  -5  -6   4 1.53211 15.1101   1
  -5  -6   3 309.535 42.9672   1
  -5  -6   2 410.296 52.7344   1
  -5  -6   1 3231.60 149.258   1
  -5  -6   0 2838.95 147.737   1
  -5  -6  -1 8.24650 23.7629   1
  -5  -6  -2 968.190 96.7159   1
  -5  -6  -3 305.881 61.4435   1
  -5  -6  -4 228.569 57.3952   1
  -5  -6  -5 1515.64 136.082   1
  -5  -6  -6 297.508 69.5602   1
  -5  -6  -7 45.5082 47.8708   1
  -5  -6  -8 80.9507 55.9281   1
  -5  -6  -9 86.1512 59.0004   1
  -5  -7   4 76.0323 29.1251   1
  -5  -7   3 320.663 51.5314   1
  -5  -7   2 31.4640 29.0483   1
  -5  -7   1 99.8565 39.5364   1
  -5  -7   0 499.569 72.9923   1
  -5  -7  -1 937.369 99.5349   1
  -5  -7  -2 985.908 106.459   1
  -5  -7  -3 437.735 77.7051   1
  -5  -7  -4-9.48874 37.3773   1
  -5  -7  -5 86.9930 51.1483   1
  -5  -7  -6 6.35712 46.8618   1
  -5  -7  -7 853.752 114.131   1
  -5  -8   2-0.03775 7.63355   1
  -5  -8   1-0.04170 7.66879   1
  -5  -8   0-0.04529 7.94348   1
  -5  -8  -1-0.04890 8.43009   1
  -5  -8  -2-0.05254 8.83135   1
  -5  -8  -3-0.05610 9.60163   1
  -5  -8  -4-0.05981 10.2397   1
   6  -6  -9-0.05724 8.83622   1
   6  -6  -8-0.05632 7.48820   1
   6  -6  -7-0.05589 6.83433   1
   6  -6  -6 175.166 37.2057   1
   6  -6  -5 676.609 71.0790   1
   6  -6  -4 189.087 44.7683   1
   6  -6  -3 112.231 38.3472   1
   6  -6  -2 176.921 43.6910   1
   6  -6  -1 60.1045 33.4947   1
   6  -6   0 808.784 78.7965   1
   6  -6   1 761.441 77.7705   1
   6  -6   2-1.14320 31.9398   1
  -6   6  -3 139.378 44.3216   1
  -6   6  -4 86.1684 41.3572   1
  -6   5   9-0.04728 6.27370   1
   6  -5  -8 57.4035 27.7272   1
  -6   5   7 32.4367 28.1096   1
   6  -5  -6 44.8952 28.4894   1
   6  -5  -5 332.319 47.5626   1
   6  -5  -4 1018.31 77.2700   1
   6  -5  -3 1292.02 86.9983   1
   6  -5  -2 41.0591 25.7882   1
   6  -5  -1 680.869 65.9204   1
   6  -5   0 303.910 47.4015   1
  -6   5  -1 66.8767 30.0779   1
   6  -5   2 627.857 67.1227   1
  -6   5  -3 6.13772 25.2074   1
  -6   5  -4 124.077 39.4289   1
  -6   5  -5 110.391 39.6779   1
  -6   5  -6-8.62824 33.9147   1
  -6   4  10-0.03742 5.11669   1
   6  -4  -9 1356.84 79.1950   1
   6  -4  -8 941.959 66.7090   1
   6  -4  -7 24.6226 21.1357   1
   6  -4  -6 336.861 42.3993   1
   6  -4  -5 290.249 40.1210   1
   6  -4  -4 954.603 68.0825   1
   6  -4  -3 2712.86 113.499   1
   6  -4  -2 835.803 65.2996   1
  -6   4   1 79.6561 26.0528   1
  -6   4   0 7.96448 18.6629   1
  -6   4  -1 11.1408 19.3658   1
  -6   4  -2 304.444 45.0467   1
  -6   4  -3 1301.52 88.9801   1
  -6   4  -4 2382.72 122.299   1
  -6   4  -5 1086.28 86.7310   1
   6  -4   6 48.8444 31.9800   1
  -6   4  -7 333.225 81.1097   1
  -6   4  -8 340.020 88.3773   1
  -6   3  10 928.937 55.7625   1
  -6   3   9 166.995 28.3371   1
  -6   3   8-6.05298 15.9435   1
  -6   3   7 8.27411 15.2926   1
   6  -3  -6 318.684 36.2064   1
   6  -3  -5 574.069 47.3614   1
   6  -3  -4 766.337 55.2042   1
   6  -3  -3 1823.29 85.3202   1
  -6   3   2 176.053 29.9849   1
  -6   3   1 884.276 62.9215   1
   6  -3   0 565.192 52.2570   1
   6  -3   1 13.6505 17.3680   1
  -6   3  -2 1940.50 98.7992   1
   6  -3   3 1820.06 98.8590   1
  -6   3  -4 30.8687 22.7128   1
  -6   3  -5 1384.60 131.009   1
  -6  -3  -6 1537.03 140.052  -2
   6  -3   5 1537.03 140.052   1
  -6   3  -6 1349.30 133.805   1
   6   3   8 364.264 85.3006  -2
  -6   3  -7 364.264 85.3006   1
  -6   3  -8 24.3144 46.3790   1
   6   3  10 105.006 77.2977  -2
  -6   3  -9 105.006 77.2977   1
   6  -2 -10 58.8615 14.8068   1
  -6   2   9 60.8514 14.6143   1
  -6   2   8 415.335 32.1461   1
  -6   2   7 280.888 28.1994   1
   6  -2  -6 3.45506 11.1188   1
  -6   2   5 195.595 25.7429   1
   6  -2  -4 670.695 46.1130   1
   6  -2  -3 2098.48 82.6259   1
  -6   2   2 1152.39 63.6718   1
  -6   2   1 298.953 35.0526   1
  -6   2   0-0.89223 13.6061   1
   6  -2   1 384.276 42.0864   1
  -6   2  -2 2208.21 100.113   1
  -6   2  -3 797.206 63.4961   1
  -6   2  -4 227.290 53.5640   1
  -6   2  -5 428.741 73.5775   1
  -6   2  -6 518.068 84.3048   1
  -6   2  -7 601.695 94.2187   1
  -6   2  -8 171.519 60.2002   1
   6   2  10 377.648 97.1726  -2
  -6   2  -9 377.648 97.1726   1
  -6   2 -10 220.965 76.3341   1
  -6   1   7 2120.17 67.8621   1
  -6   1   6 2597.37 64.7250   1
  -6   1   5 141.912 18.6155   1
   6  -1  -4 787.812 43.2185   1
  -6   1   3 256.499 27.3175   1
   6  -1  -2 1236.07 60.1646   1
   6  -1  -1 4046.70 113.120   1
   6  -1   0 1822.23 79.8819   1
  -6   1  -1 552.293 66.5058   1
  -6   1  -2 290.159 52.6103   1
  -6   1  -3 46.4852 28.7672   1
  -6   1  -4-1.68998 23.7210   1
  -6   1  -5 50.8011 32.9940   1
  -6   1  -6-5.29700 27.6147   1
  -6   1  -7 10.8564 30.4765   1
  -6   1  -8-2.28329 35.0808   1
  -6   1  -9 182.919 63.2666   1
  -6   1 -10 441.345 91.8972   1
  -6   0   5 1467.09 49.3898   1
  -6   0   4 819.238 49.3765   1
  -6   0   3 205.256 29.9388   1
  -6   0   2 68.1641 21.3736   1
  -6   0   1 788.081 66.2247   1
  -6   0   0 182.746 37.1103   1
  -6   0  -1 2780.81 139.572   1
  -6   0  -2 7388.55 238.633   1
  -6   0  -3 1903.85 128.020   1
  -6   0  -4 186.957 46.0564   1
   6   0   5 1588.11 129.423  -2
  -6   0  -5 1588.11 129.423   1
   6   0   6 35.3420 40.7471  -2
  -6   0  -6 35.3420 40.7471   1
  -6   0  -7 3386.08 201.020   1
  -6   0  -8 2657.20 186.194   1
   6   0   9 324.927 59.6419  -2
  -6   0  -9 324.927 59.6419   1
  -6   0 -10 334.922 58.0405   1
   6   0  11 302.479 70.0715  -2
  -6   0 -11 302.479 70.0715   1
  -6  -1   4 1.04328 2.49178   1
  -6  -1   3 910.735 50.9308   1
  -6  -1   2 2.34285 11.3488   1
  -6  -1   1 639.966 57.5336   1
  -6  -1   0 1048.45 55.9420   1
  -6  -1  -1 78.5947 19.0882   1
  -6  -1  -2 558.086 66.0901   1
  -6  -1  -3 678.182 54.0079   1
  -6  -1  -4 6.50904 15.1977   1
  -6  -1  -5 132.516 29.8337   1
  -6  -1  -6 16.3185 19.8770   1
  -6  -1  -7 12.2285 20.8452   1
  -6  -1  -8 1.46844 23.7836   1
  -6  -1  -9 427.896 59.1125   1
  -6  -1 -10 953.139 88.6715   1
  -6  -1 -11 611.318 77.7272   1
  -6  -2   3 10.3275 5.59143   1
  -6  -2   2 574.338 32.9932   1
  -6  -2   1 1569.52 60.8295   1
  -6  -2   0 789.735 48.0757   1
  -6  -2  -1 55.3468 17.1680   1
  -6  -2  -2 160.683 27.0180   1
  -6  -2  -3 1031.08 65.8501   1
  -6  -2  -4 764.444 59.9896   1
  -6  -2  -5 2.73294 16.6076   1
  -6  -2  -6 59.7176 24.8947   1
  -6  -2  -7 167.766 36.7837   1
  -6  -2  -8 59.0644 28.7302   1
  -6  -2  -9 182.727 42.9080   1
  -6  -2 -10 19.6936 30.9576   1
  -6  -2 -11 1.75512 35.7718   1
  -6  -3   3 674.681 35.6117   1
  -6  -3   2 28.1630 10.6962   1
  -6  -3   1 796.747 44.6430   1
  -6  -3   0 247.120 28.5508   1
  -6  -3  -1 532.492 43.6189   1
  -6  -3  -2 332.910 37.7224   1
  -6  -3  -3 23.1806 17.5252   1
  -6  -3  -4 572.694 54.0460   1
  -6  -3  -5 29.5087 21.1696   1
  -6  -3  -6 1527.15 131.943   1
   6  -3   5 1618.33 140.149  -2
  -6  -3  -6 1618.33 140.149   1
  -6  -3  -7 3024.14 194.343   1
   6  -3   6 3171.03 201.168  -2
  -6  -3  -7 3171.03 201.168   1
  -6  -3  -8 1767.49 110.260   1
  -6  -3  -9 27.5610 43.0651   1
   6  -3   8 34.5653 61.3861  -2
  -6  -3  -9 34.5653 61.3861   1
  -6  -3 -10 352.621 85.1329   1
   6  -3   9 345.120 99.8026  -2
  -6  -3 -10 345.120 99.8026   1
  -6  -4   3 70.0098 10.4175   1
  -6  -4   2 448.304 44.2806   1
  -6  -4   1 6199.68 128.402   1
  -6  -4   0 4501.54 169.664   1
  -6  -4  -1 2.68008 18.7022   1
  -6  -4  -2 850.188 84.4118   1
  -6  -4  -3 93.7078 36.5332   1
  -6  -4  -4 1027.28 103.389   1
  -6  -4  -5 3219.25 188.730   1
  -6  -4  -6 1095.07 118.123   1
  -6  -4  -7 45.3478 41.5906   1
  -6  -4  -8 91.9574 37.2854   1
  -6  -4  -9-19.8549 33.5502   1
  -6  -4 -10-11.4046 36.0704   1
  -6  -5   3 585.347 31.0358   1
  -6  -5   2 2.21500 12.0983   1
  -6  -5   1 242.079 41.0664   1
  -6  -5   0 5.81884 21.0189   1
  -6  -5  -1 44.2021 28.7730   1
  -6  -5  -2 144.808 41.6496   1
  -6  -5  -3 322.740 60.9387   1
  -6  -5  -4 269.053 59.7515   1
  -6  -5  -5 31.3013 36.5187   1
  -6  -5  -6 11.7643 35.6384   1
  -6  -5  -7 713.924 105.700   1
  -6  -5  -8 1452.74 151.729   1
  -6  -5  -9 214.314 68.1059   1
  -6  -6   3 234.396 35.9623   1
  -6  -6   2 2.83879 21.3443   1
  -6  -6   1 1.50366 23.7929   1
  -6  -6   0 156.567 42.7753   1
  -6  -6  -1 541.242 73.0984   1
  -6  -6  -2 747.357 88.7219   1
  -6  -6  -3 537.095 80.8879   1
  -6  -6  -4 778.268 99.6065   1
  -6  -6  -5 477.650 84.4314   1
  -6  -6  -6 15.2313 45.7756   1
  -6  -6  -7 2.70357 41.5584   1
  -6  -7   2-0.02862 5.86541   1
  -6  -7   1-0.03385 6.16491   1
  -6  -7   0 41.2680 28.7193   1
  -6  -7  -1 243.996 56.7535   1
  -6  -7  -2 627.596 87.4417   1
  -6  -7  -3-9.23742 25.4626   1
  -6  -7  -4-0.05501 8.97979   1
  -6  -7  -5-0.05942 9.80412   1
  -6  -8  -1-0.04876 10.4731   1
  -6  -8  -2-0.05313 11.6337   1
  -6  -8  -3-0.05737 12.1790   1
  -7   6   6-0.05924 8.60555   1
  -7   6   5-0.05958 7.96647   1
  -7   6   4-0.06046 7.63064   1
  -7   6   3-0.06132 7.33522   1
   7  -6  -2-0.06258 7.26912   1
   7  -6  -1-0.06399 7.25947   1
  -7   5   8-0.04897 6.71755   1
  -7   5   7-0.04888 6.57650   1
  -7   5   6-0.04978 6.03823   1
  -7   5   5 116.991 33.9485   1
  -7   5   4 97.6542 36.5415   1
   7  -5  -3 310.403 51.0480   1
   7  -5  -2 402.459 56.7269   1
  -7   5   1 86.7933 35.9796   1
  -7   5   0 27.8332 31.1916   1
   7  -5   1 194.655 46.4820   1
   7  -5   2 405.958 61.8613   1
  -7   5  -3 436.137 64.6046   1
  -7   4   8-0.03854 5.19540   1
  -7   4   7 69.1195 26.2179   1
  -7   4   6 51.6736 27.8957   1
  -7   4   5 5.35304 23.1714   1
   7  -4  -4 88.0634 29.6099   1
   7  -4  -3 8.34669 22.6431   1
  -7   4   2 73.1393 29.2545   1
   7  -4  -1 32.4393 25.7437   1
  -7   4   0 106.042 33.3819   1
  -7   4  -1 1350.48 92.8251   1
  -7   4  -2 1052.88 84.8540   1
  -7   4  -3 169.105 42.3439   1
  -7   4  -4 277.234 52.0059   1
   7  -4   5 25.3623 35.2811   1
  -7   4  -6 534.346 101.326   1
  -7   3   8 92.4612 25.5343   1
   7  -3  -7 1693.92 78.9667   1
  -7   3   6 2681.72 101.470   1
   7  -3  -5 9.24655 18.3114   1
   7  -3  -4 587.899 52.4434   1
   7  -3  -3 125.834 28.9759   1
   7  -3  -2 1159.52 75.0456   1
   7  -3  -1 5191.98 158.895   1
  -7   3   0 2309.89 109.813   1
  -7   3  -1 4.12743 20.3192   1
  -7   3  -2 380.144 50.7960   1
   7  -3   3 41.6772 27.1983   1
  -7   3  -4 177.946 58.3150   1
  -7   3  -5 506.799 89.7112   1
  -7   3  -6 670.262 106.240   1
  -7   3  -7 224.445 76.1762   1
  -7   2   8 304.177 36.6601   1
  -7   2   7 39.9241 16.5019   1
   7  -2  -6 167.788 25.2053   1
   7  -2  -5 119.736 23.3699   1
   7  -2  -4 36.3915 17.8054   1
  -7   2   3 17.7873 16.2586   1
  -7   2   2 5.15066 15.1556   1
  -7   2   1 178.097 31.1893   1
   7  -2   0 350.423 42.9536   1
  -7   2  -1 800.038 64.4334   1
  -7   2  -2 2016.41 145.263   1
  -7   2  -3 958.063 105.403   1
  -7   2  -4 68.1526 40.8985   1
  -7   2  -5 384.342 76.3094   1
  -7   2  -6 36.6963 42.5825   1
  -7   2  -7 1193.08 137.953   1
  -7   2  -8 1756.11 170.987   1
  -7   1   6 143.972 23.6102   1
  -7   1   5 720.872 56.1078   1
  -7   1   4 898.322 68.5536   1
  -7   1   3 153.002 33.8691   1
  -7   1   2 202.836 40.2644   1
  -7   1   1 626.600 69.5565   1
  -7   1   0 8.85296 20.8084   1
  -7   1  -1 164.113 43.1603   1
  -7   1  -2 0.60672 24.8030   1
  -7   1  -3 350.595 65.4376   1
  -7   1  -4 1030.39 110.911   1
  -7   1  -5 241.489 61.8257   1
  -7   1  -6 206.688 62.1504   1
  -7   1  -7 108.966 53.3280   1
  -7   1  -8 12.6413 46.2122   1
  -7   1  -9 150.616 70.3766   1
  -7   0   5 184.182 13.2929   1
  -7   0   4 1150.92 63.6731   1
  -7   0   3 28.4137 17.7592   1
  -7   0   2 1722.91 98.2010   1
  -7   0   1 2662.04 130.876   1
  -7   0   0 271.185 48.0292   1
  -7   0  -1 58.5389 29.7521   1
  -7   0  -2 317.142 57.5644   1
  -7   0  -3 507.973 74.3790   1
  -7   0  -4 1792.02 140.667   1
  -7   0  -5 677.750 92.9062   1
  -7   0  -6 204.265 59.8045   1
   7   0   7 6.69284 53.2096  -2
  -7   0  -7 6.69284 53.2096   1
   7   0   8-0.14616 42.5681  -2
  -7   0  -8-0.14616 42.5681   1
   7   0   9-11.0408 49.1354  -2
  -7   0  -9-11.0408 49.1354   1
  -7  -1   4 1205.94 39.3903   1
  -7  -1   3 1773.96 78.3912   1
  -7  -1   2 129.917 28.2078   1
  -7  -1   1 101.626 29.0049   1
  -7  -1   0 302.503 34.5256   1
  -7  -1  -1 9.75143 14.9051   1
  -7  -1  -2 23.1097 17.8615   1
  -7  -1  -3 449.618 48.7422   1
  -7  -1  -4 1494.84 89.2161   1
  -7  -1  -5 156.515 35.3558   1
  -7  -1  -6 1117.30 84.9953   1
  -7  -1  -7 1787.52 110.981   1
  -7  -1  -8 925.958 85.9739   1
  -7  -1  -9 114.199 44.1083   1
  -7  -2   3 30.7699 8.11989   1
  -7  -2   2 61.7829 14.7406   1
  -7  -2   1 2596.26 84.9550   1
  -7  -2   0 2281.34 87.7239   1
  -7  -2  -1 177.738 29.0616   1
  -7  -2  -2 202.941 33.1107   1
  -7  -2  -3 133.493 29.5518   1
  -7  -2  -4 1272.45 82.9453   1
  -7  -2  -5 1437.26 91.9144   1
  -7  -2  -6 933.541 78.6900   1
  -7  -2  -7 61.0151 32.6269   1
  -7  -2  -8 146.941 43.1527   1
  -7  -2  -9 410.818 65.6827   1
  -7  -3   3 249.047 12.7165   1
  -7  -3   2 188.359 21.4014   1
  -7  -3   1 41.7365 15.7636   1
  -7  -3   0 929.952 56.5875   1
  -7  -3  -1 1955.13 87.1625   1
  -7  -3  -2 201.951 33.2517   1
  -7  -3  -3 473.443 50.2526   1
  -7  -3  -4 684.479 62.4551   1
  -7  -3  -5 3.90094 31.6804   1
   7  -3   4 11.1407 46.2726  -2
  -7  -3  -5 11.1407 46.2726   1
  -7  -3  -6 403.994 77.2494   1
   7  -3   5 444.991 88.8324  -2
  -7  -3  -6 444.991 88.8324   1
  -7  -3  -7 158.064 59.6925   1
   7  -3   6 207.912 76.8734  -2
  -7  -3  -7 207.912 76.8734   1
  -7  -3  -8 219.618 71.5685   1
   7  -3   7 237.706 86.9274  -2
  -7  -3  -8 237.706 86.9274   1
  -7  -4   2 225.389 32.9843   1
  -7  -4   1 157.443 24.7531   1
  -7  -4   0 4.72340 15.4008   1
  -7  -4  -1 932.892 62.3011   1
  -7  -4  -2 1759.63 90.0918   1
  -7  -4  -3 1625.31 91.5778   1
  -7  -4  -4 1089.15 80.0588   1
  -7  -4  -5 152.983 38.7835   1
  -7  -4  -6 48.1815 31.2936   1
  -7  -4  -7 67.9382 37.9760   1
  -7  -4  -8 625.642 74.2843   1
  -7  -5   2 29.8952 15.2437   1
  -7  -5   1 43.0059 18.9353   1
  -7  -5   0-5.25843 17.9691   1
  -7  -5  -1 692.409 57.2827   1
  -7  -5  -2 1199.02 78.5703   1
  -7  -5  -3 16.5756 24.9642   1
  -7  -5  -4 438.039 56.8116   1
  -7  -5  -5 115.399 39.7258   1
  -7  -5  -6 23.1066 33.7142   1
  -7  -5  -7-0.06506 7.18472   1
  -7  -6   1-0.02918 4.06558   1
  -7  -6   0 30.3434 17.9271   1
  -7  -6  -1 806.772 90.8549   1
  -7  -6  -2 354.789 64.5986   1
  -7  -6  -3 6.95048 16.4799   1
  -7  -6  -4-0.05286 8.46948   1
  -7  -6  -5-0.05752 9.91538   1
  -7  -6  -6-0.06244 11.0467   1
  -7  -7  -2-0.04796 10.3506   1
  -7  -7  -3-0.05276 11.2478   1
  -7  -7  -4-0.05764 12.4083   1
   8  -5  -5-0.05472 8.31724   1
   8  -5  -4-0.05662 7.99835   1
   8  -5  -3-0.05814 7.83329   1
  -8   5   2-0.05986 7.70553   1
   8  -5  -1-0.06186 7.73087   1
  -8   4   6-0.04368 5.93664   1
   8  -4  -5-0.04558 6.03649   1
   8  -4  -4-0.04782 5.72379   1
   8  -4  -3-0.79993 8.54386   1
   8  -4  -2 66.5673 30.5591   1
  -8   4   1 33.0260 32.7466   1
  -8   4   0 434.954 60.8094   1
  -8   4  -1 279.550 51.9646   1
  -8   4  -2 37.8204 22.7224   1
  -8   4  -3-0.06531 7.29493   1
  -8   3   6-0.03436 4.72397   1
   8  -3  -5 292.193 39.1622   1
   8  -3  -4 1407.68 82.9723   1
   8  -3  -3 730.783 64.1331   1
   8  -3  -2 239.526 42.4795   1
   8  -3  -1 6.11633 25.7211   1
  -8   3   0 260.331 45.9713   1
  -8   3  -1 132.833 38.9471   1
  -8   3  -2 136.471 56.4314   1
  -8   3  -3 1798.07 160.416   1
  -8   3  -4 1210.89 138.279   1
  -8   3  -5-0.06607 9.21695   1
  -8   2   6 12.4033 22.7197   1
  -8   2   5 278.151 48.5747   1
  -8   2   4 1186.68 94.6561   1
  -8   2   3 67.5021 35.6488   1
  -8   2   2 789.756 87.1526   1
  -8   2   1 667.286 83.5903   1
  -8   2   0 25.1701 33.3233   1
  -8   2  -1 432.518 75.1561   1
  -8   2  -2 241.512 62.8470   1
  -8   2  -3 147.741 56.0280   1
  -8   2  -4 965.349 119.104   1
  -8   2  -5 496.774 95.3485   1
  -8   2  -6 9.57165 40.7137   1
  -8   1   6 43.7859 10.6337   1
  -8   1   5 435.106 46.0467   1
  -8   1   4 1133.72 81.1790   1
  -8   1   3 293.246 48.5582   1
  -8   1   2 17.8531 24.8770   1
  -8   1   1 0.82037 26.1586   1
  -8   1   0 42.1224 31.8133   1
  -8   1  -1 482.707 75.0360   1
  -8   1  -2 171.016 52.2731   1
  -8   1  -3 289.209 66.5053   1
  -8   1  -4 524.953 89.2742   1
  -8   1  -5 213.362 66.3515   1
  -8   1  -6 6.37282 47.6942   1
  -8   1  -7 171.002 59.8304   1
  -8   0   4 252.331 23.9124   1
  -8   0   3 63.7766 18.0091   1
  -8   0   2 288.232 46.9451   1
  -8   0   1 1.07360 22.5231   1
  -8   0   0 669.010 77.9234   1
  -8   0  -1 302.345 58.7207   1
  -8   0  -2 107.522 43.8795   1
  -8   0  -3 337.706 69.0034   1
  -8   0  -4 196.548 59.9305   1
  -8   0  -5 29.8284 42.8102   1
  -8   0  -6 30.1870 34.4797   1
  -8   0  -7 142.993 66.5122   1
   8   0   7 175.394 86.8931  -2
  -8   0  -7 175.394 86.8931   1
  -8  -1   3 85.3335 22.9432   1
  -8  -1   2 143.268 32.7903   1
  -8  -1   1 2.15498 21.4549   1
  -8  -1   0 2300.97 95.5742   1
  -8  -1  -1 4835.06 147.616   1
  -8  -1  -2 524.033 54.3012   1
  -8  -1  -3 343.363 47.7249   1
  -8  -1  -4 702.675 68.8736   1
  -8  -1  -5 31.1350 29.5833   1
  -8  -1  -6 1650.52 110.856   1
  -8  -1  -7 1106.66 95.4056   1
  -8  -2   3 3.14405 9.02730   1
  -8  -2   2 638.835 39.5641   1
  -8  -2   1 498.986 41.3259   1
  -8  -2   0 25.8718 18.8724   1
  -8  -2  -1 323.851 41.0705   1
  -8  -2  -2 752.882 63.6345   1
  -8  -2  -3 644.023 62.5020   1
  -8  -2  -4 312.921 48.9829   1
  -8  -2  -5 123.040 38.3321   1
  -8  -2  -6 16.2486 32.5111   1
  -8  -2  -7 49.7136 32.7682   1
  -8  -3   2 346.250 27.5626   1
  -8  -3   1 46.2748 18.7102   1
  -8  -3   0 2.96312 17.9766   1
  -8  -3  -1 245.861 37.1417   1
  -8  -3  -2 658.048 59.1508   1
  -8  -3  -3 492.123 56.2912   1
  -8  -3  -4 57.2399 31.5961   1
  -8  -3  -5 83.3553 36.4757   1
  -8  -3  -6 476.124 90.7871   1
   8  -3   5 482.860 91.6048  -2
  -8  -3  -6 482.860 91.6048   1
  -8  -3  -7-0.06562 7.56210   1
  -8  -4   2-2.58400 10.5698   1
  -8  -4   0 474.108 45.2554   1
  -8  -4  -1 798.448 62.2604   1
  -8  -4  -2 36.2893 27.3178   1
  -8  -4  -3 315.966 48.5080   1
  -8  -4  -4 91.6888 35.4633   1
  -8  -4  -5-0.05701 6.38935   1
  -8  -4  -6-0.06199 7.43244   1
  -8  -5   0-0.03270 4.66676   1
  -8  -5  -1-0.03902 5.25989   1
  -8  -5  -2-0.04437 5.83011   1
  -8  -5  -3-0.04934 6.28595   1
  -8  -5  -4-0.05418 7.21734   1
  -8  -5  -5-0.05948 7.74737   1
  -8  -6  -4-0.05845 9.17302   1
   9  -4  -2-0.05817 9.09773   1
  -9   3   3-0.04486 9.63196   1
  -9   3   2-0.04850 9.47358   1
  -9   3   1-0.05202 9.87907   1
  -9   3   0-0.05527 10.2923   1
  -9   3  -1-0.05882 10.8807   1
  -9   2   3-0.03776 7.32270   1
  -9   2   2-0.04201 7.50866   1
  -9   2   1-0.04575 8.20908   1
  -9   2   0-0.04962 8.71781   1
  -9   2  -1-0.05330 9.21726   1
  -9   2  -2-0.05716 9.52697   1
  -9   2  -3-0.06113 10.5235   1
  -9   1   3-0.03085 6.13490   1
  -9   1   2-0.03590 6.52220   1
  -9   1   1 5.13473 21.6580   1
  -9   1   0 1046.82 106.297   1
  -9   1  -1 1513.03 131.306   1
  -9   1  -2 31.8991 21.2971   1
  -9   1  -3-0.05717 9.54058   1
  -9   1  -4-0.06161 10.3495   1
  -9   0   3-0.02367 3.56944   1
  -9   0   2 399.120 38.4905   1
  -9   0   1 81.8228 27.1840   1
  -9   0   0 53.6131 28.3920   1
  -9   0  -1-3.29624 26.3301   1
  -9   0  -2 28.5460 25.6374   1
  -9   0  -3 2.13009 9.38503   1
  -9   0  -4-0.05967 7.06758   1
  -9   0  -5-0.06519 8.01298   1
  -9  -1   2 15.8173 9.58906   1
  -9  -1   1 9.07312 16.6866   1
  -9  -1   0 53.7003 25.8566   1
  -9  -1  -1 39.1472 27.2797   1
  -9  -1  -2 230.583 41.0718   1
  -9  -1  -3 0.16032 6.97141   1
  -9  -1  -4-0.05812 6.73339   1
  -9  -1  -5-0.06295 7.64819   1
  -9  -2   1-0.02782 3.95898   1
  -9  -2   0-0.03473 4.55618   1
  -9  -2  -1-0.04165 5.10392   1
  -9  -2  -2-0.04685 5.53372   1
  -9  -2  -3-0.05194 6.19122   1
  -9  -2  -4-0.05722 7.22410   1
  -9  -2  -5-0.06267 7.96416   1
  -9  -3  -1-0.04017 5.53973   1
  -9  -3  -2-0.04626 6.20358   1
  -9  -3  -3-0.05173 6.89556   1
  -9  -3  -4-0.05623 7.70301   1
  -9  -3  -5-0.06159 8.47280   1
  -9  -4  -3-0.05164 7.79282   1
  -9  -4  -4-0.05741 8.89319   1
   0  -1  15-0.05137 6.58493   2
   0  -1  14 57.4823 31.1687   2
   0  -1  13 113.103 31.2642   2
   0  -1  12 77.0428 26.4044   2
   0  -1  11 1.00044 16.3695   2
   0  -1  10 12.3924 21.3207   2
   0  -1   9 322.622 50.9922   2
   0  -1   8 403.176 52.4262   2
   0  -1   7 481.884 52.8740   2
   0  -1   6 14.5897 14.4967   2
   0  -1   5 45.3148 17.7505   2
   0   1  -4 3.66510 7.35238   2
   0   1  -3 391.118 23.4578   2
   0   1  -2 253.496 16.8628   2
   0   1  -1 26.9447 5.96977   2
   0   1   0 231.938 12.2294   2
   0  -1  -1 352.182 14.6459   2
   0  -1  -2 39.1342 6.20595   2
   0   1   3 62.9014 8.16243   2
   0  -1  -4 46.3760 8.46032   2
   0   1   5 36.7252 13.0350   2
   0   1   6 256.955 31.3163   2
   0   1   7 127.457 25.2846   2
   0   1   8 524.744 51.6973   2
   0   1   9 490.406 38.1060   2
   0   1  10 2.24840 12.1216   2
   0   1  11 62.9117 19.9396   2
   0   1  12 21.5885 17.6109   2
   0   1  13 6.88708 16.3442   2
   0   1  14 141.848 33.2092   2
   0   1  15 46.2663 25.7664   2
   0  -2  15-0.05640 8.23958   2
   0  -2  14 5.87874 32.7552   2
   0  -2  13-0.73295 25.9553   2
   0  -2  12 30.9885 33.5007   2
   0  -2  11 23.2679 28.5793   2
   0  -2  10 15.8918 24.0541   2
   0  -2   9 38.2536 25.5333   2
   0  -2   8 86.9602 30.5143   2
   0  -2   7 20.3535 19.0271   2
   0   2  -6 27.6650 12.7902   2
   0   2  -5 45.2067 13.6526   2
   0   2  -4 433.075 31.4672   2
   0   2  -3 174.231 19.4561   2
   0   2  -2 341.528 23.9094   2
   0   2  -1 84.5325 12.0329   2
   0   2   0 906.677 33.7662   2
   0  -2  -1 23.7022 7.19584   2
   0  -2  -2 106.216 12.1993   2
   0   2   3 10.3576 6.54323   2
   0  -2  -4 27.3748 8.94108   2
   0   2   5 860.420 37.9436   2
   0  -2  -6 231.439 21.8494   2
   0   2   7 3.75062 11.9008   2
   0   2   8-3.98660 12.7976   2
   0   2   9 19.7870 17.0425   2
   0   2  10 9.18732 15.8616   2
   0   2  11-6.29895 10.6169   2
   0   2  12-1.46813 13.0288   2
   0   2  13 12.7286 19.8060   2
   0   2  14 26.4575 24.6158   2
   0   2  15 2.63200 7.86562   2
   0  -4  13-0.06195 10.2688   2
   0  -4  12 38.5982 47.7845   2
   0  -4  11 66.9146 44.8438   2
   0  -4  10 23.9886 35.1349   2
   0   4  -9 180.686 35.7563   2
   0   4  -8 548.488 53.8793   2
   0   4  -7 86.4074 24.6047   2
   0   4  -6 169.892 29.5242   2
   0   4  -5 178.539 28.6963   2
   0   4  -4 26.4239 14.9050   2
   0   4  -3 604.163 44.7035   2
   0   4  -2 956.571 53.5562   2
   0   4  -1 17.3999 11.2771   2
   0   4   0 126.605 20.1259   2
   0  -4  -1 46.7902 13.7023   2
   0  -4  -2 143.770 20.4696   2
   0  -4  -3 235.822 25.4150   2
   0  -4  -4 234.994 25.6675   2
   0  -4  -5 141.496 21.1667   2
   0   4   6-1.36827 10.2226   2
   0   4   7 48.1013 15.6243   2
   0   4   8 88.7177 19.7775   2
   0  -4  -9 65.4208 19.1914   2
   0   4  10 140.841 36.7083   2
   0   4  11 39.0618 24.5964   2
   0   4  12-1.36791 24.5030   2
   0   4  13 51.0540 34.8910   2
   0   4  14 67.8159 29.0608   2
   0  -5  12-0.06543 11.1603   2
   0  -5  11 26.8238 50.2055   2
   0  -5  10 7.61140 40.2814   2
   0   5  -9-0.64311 23.8273   2
   0   5  -8 14.8651 21.7987   2
   0   5  -7 39.5353 23.1246   2
   0   5  -6 30.0728 20.4088   2
   0   5  -5 15.7607 17.3499   2
   0   5  -4 27.6749 17.5633   2
   0   5  -3 65.2734 20.7831   2
   0   5  -2 5.59476 12.9629   2
   0   5  -1 14.0174 13.4464   2
   0   5   0 278.473 32.4547   2
   0  -5  -1 134.103 23.5473   2
   0  -5  -2 12.6925 12.4945   2
   0  -5  -3 86.8360 19.6878   2
   0  -5  -4 8.25582 12.1492   2
   0  -5  -5 321.782 49.0947   2
   0   5   6 409.884 38.7687   2
   0  -5  -7 136.693 24.8157   2
   0  -5  -8 31.1269 16.9285   2
   0   5   9 8.28004 14.7093   2
   0   5  10 49.7566 21.0454   2
   0   5  11 59.2777 32.8771   2
   0   5  12-5.35531 26.4389   2
   0   5  13 17.0552 35.3725   2
   0   5  14-0.04094 8.42591   2
   0   7  -8 24.4512 38.3795   2
   0   7  -7 57.8913 36.2583   2
   0   7  -6 121.148 39.1826   2
   0   7  -5 16.3106 38.1063   2
   0  -7   4 151.390 37.8988   2
   0   7  -3 327.770 66.9908   2
   0  -7   2 20.5920 21.9989   2
   0  -7   1 94.3055 29.2275   2
   0  -7   0 168.045 34.6041   2
   0  -7  -1-9.51064 26.8996   2
   0  -7  -2 231.328 37.8122   2
   0  -7  -3 294.275 59.0446   2
   0  -7  -4 99.7747 39.8421   2
   0  -7  -5 92.2944 39.2035   2
   0  -7  -6 30.2897 31.6594   2
   0  -7  -7 10.0866 31.0991   2
   0  -7  -8 9.33399 32.7731   2
   0  -7  -9 89.5117 44.1798   2
   0  -7 -10 85.2671 48.7887   2
   0  -7 -11 0.09087 9.25107   2
   0   8  -5 161.964 49.7646   2
   0   8  -4 109.625 58.1810   2
   0   8  -3 2.24840 40.1862   2
   0   8  -2-0.50904 37.8643   2
   0  -8   1 18.9042 27.5827   2
   0  -8   0 75.7082 32.6063   2
   0  -8  -1 61.6262 30.5565   2
   0  -8  -2 113.801 34.7291   2
   0  -8  -3 83.9904 31.9720   2
   0  -8  -5 12.1693 35.5329   2
   0  -8  -6 9.64020 38.8722   2
   0  -8  -7 71.2278 34.0769   2
   0  -8  -8 129.249 39.8355   2
   0  -8  -9-0.05164 6.29371   2
   0  -8 -10-0.05238 7.44349   2
   0   8  11-0.05257 8.64549   2
   1  -8 -10-0.04659 6.97397   2
  -1   8   9-0.04673 6.20198   2
   1  -8  -8-0.68241 28.0458   2
  -1   8   7 8.21575 26.2217   2
  -1   8   6 9.53363 26.5478   2
  -1   8   5 36.1418 27.6469   2
  -1   8   4 28.1500 26.4760   2
   1  -8  -3 11.6154 24.3871   2
   1  -8  -2 8.19643 24.5919   2
  -1   8   1 13.4243 25.2270   2
   1  -8   0 5.59839 26.0508   2
   1  -8   1 39.6595 30.6238   2
   1  -8   2 154.916 42.4214   2
   1  -8   3 89.7751 39.0504   2
   1  -8   4 11.9406 33.6824   2
   1  -8   5 20.6419 55.0496   2
   1  -7 -10-13.7820 34.4108   2
   1  -7  -9 40.3873 36.6867   2
   1  -7  -8 5.78654 30.7168   2
   1  -7  -7 95.9078 40.7322   2
  -1   7   6 601.576 55.1567   2
  -1   7   5 294.198 40.4648   2
   1  -7  -4 15.0506 26.8152   2
   1  -7  -3 131.850 30.2831   2
   1  -7  -2 28.0828 21.0943   2
  -1   7   1 133.065 31.0094   2
   1  -7   0 523.988 54.9720   2
  -1   7  -1 128.251 32.2993   2
   1  -7   2 13.5221 21.8755   2
  -1   7  -3 5.22562 22.3697   2
   1  -7   4 19.6190 25.4123   2
  -1   7  -5 7.25338 26.8924   2
  -1   7  -6 5.69919 29.7877   2
  -1   7  -7 45.0098 36.6746   2
  -1   7  -8 37.0523 39.8238   2
  -1   5  13 25.2743 31.9512   2
  -1   5  12-2.81536 25.5139   2
  -1   5  11 5.23662 22.5018   2
   1  -5 -10 49.0592 18.6806   2
   1  -5  -9 33.8889 16.2809   2
   1  -5  -8 0.11130 11.0606   2
   1  -5  -7 2.16497 11.5837   2
  -1   5   6 39.1857 15.6047   2
   1  -5  -5 128.063 22.0082   2
   1  -5  -4 77.0506 18.5410   2
   1  -5  -3 7.77695 11.7108   2
   1  -5  -2 18.6631 12.9993   2
   1  -5  -1 77.5146 19.1367   2
  -1   5   0 268.067 32.0663   2
  -1   5  -1 9.38906 13.1222   2
  -1   5  -2 3.34686 13.5062   2
  -1   5  -3 13.3414 15.3459   2
  -1   5  -4 6.33058 15.1912   2
  -1   5  -5 11.3795 17.1716   2
  -1   5  -6 4.74669 18.0786   2
  -1   5  -7 15.3301 20.8394   2
  -1   5  -8 20.7427 23.7948   2
   1  -5   9 58.5935 43.8940   2
   1  -5  10 4.53149 42.1849   2
   1  -5  11 63.1059 58.4074   2
   1  -5  12-0.06963 11.9055   2
  -1   4  14 23.1727 12.9389   2
  -1   4  13 31.5272 20.5892   2
   1  -4  -9 24.9845 18.8870   2
   1  -4  -8 29.6685 12.9469   2
   1  -4  -7 63.8029 15.3041   2
   1  -4  -6 10.0683 12.7536   2
  -1   4   5 36.0046 12.1077   2
   1  -4  -4 75.9232 15.3636   2
   1  -4  -3 282.320 26.3311   2
   1  -4  -2 23.6786 10.9109   2
  -1   4   1 624.271 39.7888   2
  -1   4   0 443.553 34.9368   2
  -1   4  -1 101.488 19.2428   2
  -1   4  -2 13.7501 11.7007   2
  -1   4  -3 24.0705 14.2299   2
  -1   4  -4 172.601 27.7319   2
  -1   4  -5 231.045 33.0837   2
  -1   4  -6 132.694 28.1402   2
  -1   4  -7 145.776 30.6289   2
  -1   4  -8 17.5624 19.9745   2
   1  -4   9 10.9112 30.0379   2
   1  -4  10 34.3572 38.5923   2
   1  -4  11 14.7717 39.0741   2
   1  -4  12 53.4125 53.4593   2
   1  -4  13-0.06656 11.5756   2
  -1   2  15-0.03002 4.56792   2
  -1   2  14 5.69541 19.0534   2
  -1   2  13 9.59905 15.9939   2
  -1   2  12 8.60412 13.6642   2
  -1   2  11 30.0218 13.9218   2
  -1   2  10 9.21739 10.6089   2
  -1   2   9 19.3367 14.3980   2
  -1   2   8 11.1602 12.0575   2
  -1   2   7 7.15799 9.89855   2
   1  -2  -6 405.728 23.6569   2
  -1   2   5 84.3674 10.9286   2
   1  -2  -4 8.94653 5.78698   2
   1  -2  -3 395.934 19.8438   2
   1  -2  -2 3.51459 5.18324   2
  -1   2   1 1411.70 39.4152   2
  -1   2   0 4155.10 73.0252   2
  -1   2  -1 1746.63 52.0624   2
  -1   2  -2 141.163 17.5167   2
  -1   2  -3 336.071 28.1659   2
  -1   2  -4 86.3267 17.1840   2
  -1   2  -5 545.628 40.3676   2
   1  -2   6 576.990 62.6506   2
   1  -2   7 373.517 54.6902   2
   1  -2   8 5.50652 20.2864   2
   1  -2   9 69.6367 32.9804   2
   1  -2  10 41.3982 31.3606   2
   1  -2  11 10.3973 30.5462   2
   1  -2  13 76.5397 34.4145   2
   1  -2  14 61.8076 39.3101   2
   1  -2  15-0.06258 8.57637   2
  -1   1  15-0.03405 4.97159   2
  -1   1  14 5.16077 20.3079   2
  -1   1  13 58.7096 21.1015   2
  -1   1  12 125.743 23.9438   2
  -1   1  11 111.142 20.9075   2
  -1   1  10 22.5771 12.2329   2
  -1   1   9 65.1551 14.3906   2
  -1   1   8 203.134 20.3911   2
  -1   1   7 53.2476 10.6793   2
  -1   1   6 70.5907 14.6077   2
  -1   1   5 321.336 25.1280   2
  -1   1   4 435.084 24.3240   2
   1  -1  -3 644.184 16.7502   2
   1  -1  -2 78.6038 5.65649   2
  -1   1   1 900.519 21.1674   2
  -1   1   0 842.488 25.6095   2
  -1   1  -1 1548.05 41.0511   2
   1  -1   2 2302.99 80.6900   2
   1  -1   3 26.2963 13.4881   2
   1  -1   4 154.918 28.3554   2
   1  -1   5 87.0918 24.6745   2
   1  -1   6 13.2248 16.2545   2
   1  -1   7 130.898 32.8867   2
   1  -1   8 48.5994 25.9719   2
   1  -1   9 81.0168 32.4603   2
   1  -1  10 5.48642 15.9565   2
   1  -1  11 9.85465 18.7789   2
   1  -1  12 18.6021 22.8202   2
   1  -1  13 32.4037 26.2829   2
   1  -1  14 67.2762 36.4569   2
   1  -1  15-0.05846 7.69954   2
   1  -1  16-0.06319 9.98860   2
  -1   0   0 20.0892 3.88343   2
   1   0   1 48.2134 10.2496   2
   1   0   2 52.9044 12.6527   2
  -1  -1  15-0.04364 6.27270   2
  -1  -1  14 65.7560 29.9425   2
  -1  -1  13 17.6393 21.3132   2
  -1  -1  12 57.8262 20.6830   2
  -1  -1  11 30.3611 15.3166   2
  -1  -1  10 168.228 37.4793   2
  -1  -1   9 36.8258 21.3242   2
  -1  -1   8 97.7564 25.7722   2
  -1  -1   7 0.96632 11.3522   2
   1   1  -6 258.545 23.2622   2
   1   1  -5 404.903 26.2414   2
  -1  -1   4 678.058 42.7319   2
   1   1  -3 525.303 24.0592   2
   1   1  -2 18.2392 5.59979   2
  -1  -1   1 852.849 26.2871   2
  -1  -1   0 68.5309 8.52692   2
  -1  -1  -1 29.5126 6.94158   2
   1   1   2 2533.41 77.0249   2
  -1  -1  -3 762.368 32.7790   2
   1   1   4 410.613 26.8702   2
   1   1   5 571.799 48.7237   2
   1   1   6 133.703 27.3423   2
   1   1   7 136.227 29.6967   2
   1   1   8 219.878 38.8865   2
   1   1   9 95.6911 30.1120   2
   1   1  10 26.1638 16.3184   2
   1   1  11 123.109 27.1003   2
   1   1  12 115.859 29.1145   2
   1   1  13 30.7673 24.3013   2
   1   1  14 33.7137 27.7165   2
   1   1  15 16.1534 20.1695   2
   1   1  16-0.05784 9.22232   2
  -1  -2  15-0.04948 7.40528   2
  -1  -2  14 12.0566 30.4606   2
  -1  -2  13-7.36442 24.6662   2
  -1  -2  12 22.6662 31.1948   2
  -1  -2  11 58.9436 32.1893   2
  -1  -2  10 62.6563 30.0018   2
  -1  -2   9-3.62938 17.3365   2
  -1  -2   8 445.381 54.3743   2
  -1  -2   7 45.0020 14.8186   2
   1   2  -6 38.4320 12.9126   2
   1   2  -5 188.501 21.6105   2
   1   2  -4 22.0535 9.89474   2
   1   2  -3 445.178 28.3077   2
   1   2  -2 251.508 20.4279   2
   1   2  -1-1.53260 5.75810   2
  -1  -2   0 353.888 22.8377   2
   1   2   2 744.263 34.2763   2
  -1  -2  -3 230.669 20.9166   2
  -1  -2  -4 54.4562 12.8312   2
  -1  -2  -5 159.288 19.9959   2
  -1  -2  -6 8.96131 9.44973   2
   1   2   7 66.1514 16.2751   2
   1   2   8 23.8098 19.8547   2
   1   2   9-7.36132 18.0679   2
   1   2  10 66.6497 29.8738   2
   1   2  11 116.542 38.1753   2
   1   2  12 12.5524 19.7096   2
   1   2  13 17.9186 22.7299   2
   1   2  14-0.70464 27.2601   2
   1   2  15-0.05098 6.44379   2
   1   2  16-0.05394 8.34884   2
  -1  -4  14-0.06102 13.8568   2
  -1  -4  13-0.05711 10.0507   2
  -1  -4  12 122.182 55.5288   2
  -1  -4  11 87.1695 46.3370   2
   1   4 -10-0.20490 20.9102   2
   1   4  -9 98.0199 28.0060   2
  -1  -4   8-1.18155 16.8298   2
   1   4  -7 36.3564 18.9111   2
   1   4  -6 302.771 36.6682   2
   1   4  -5 136.897 25.1572   2
   1   4  -4 3.87603 11.7209   2
   1   4  -3 27.1613 13.8713   2
   1   4  -2 10.8256 10.9426   2
  -1  -4   1 8.15653 10.2923   2
  -1  -4   0 174.364 23.5034   2
  -1  -4  -1 1086.56 54.6203   2
  -1  -4  -2 905.066 50.1439   2
  -1  -4  -3 39.0789 13.7281   2
   1   4   4 285.715 30.3112   2
  -1  -4  -5 246.565 28.9793   2
   1   4   6 43.3764 15.9346   2
   1   4   7 1251.18 65.7796   2
  -1  -4  -8 463.178 42.4622   2
  -1  -4  -9 1.75568 14.2894   2
  -1  -4 -10 110.510 26.1600   2
   1   4  11 74.3466 35.8088   2
   1   4  12 20.7407 33.1062   2
   1   4  13 78.0220 42.1830   2
   1   4  14 32.9421 37.2052   2
   1   4  15-0.05004 7.52636   2
  -1  -5  12-0.06186 10.7969   2
  -1  -5  11 41.6011 52.4311   2
   1   5 -10 6.59438 26.9272   2
   1   5  -9 0.86217 23.5418   2
   1   5  -8 57.9784 26.5575   2
   1   5  -7 116.632 29.9119   2
   1   5  -6 231.716 36.7465   2
   1   5  -5 83.6886 24.1186   2
   1   5  -4 105.603 25.0482   2
   1   5  -3 243.446 33.4144   2
   1   5  -2 31.4254 16.3601   2
  -1  -5   1 243.353 31.7434   2
  -1  -5   0 435.709 40.5647   2
  -1  -5  -1 15.0673 13.3090   2
  -1  -5  -2 157.993 25.9692   2
  -1  -5  -3 186.530 27.8600   2
  -1  -5  -4 14.6836 14.0773   2
  -1  -5  -5 3.28297 18.7999   2
  -1  -5  -6 14.9631 21.5192   2
   1   5   7 2.36944 14.5279   2
   1   5   8 5.71315 15.7449   2
   1   5   9 94.1871 25.3762   2
   1   5  10 139.909 30.3163   2
  -1  -5 -11 84.3604 28.2257   2
   1   5  12-1.24486 32.9587   2
   1   5  13 9.80526 41.3927   2
   1   5  14-0.04977 9.55491   2
  -1  -7   8 13.1711 35.9219   2
   1   7  -7 35.8342 33.8342   2
  -1  -7   6 8.35665 28.7801   2
  -1  -7   5 67.6893 32.2479   2
  -1  -7   4 291.456 47.5924   2
  -1  -7   3 188.488 39.2128   2
  -1  -7   2 18.6252 32.1124   2
  -1  -7   1 49.3601 24.6976   2
  -1  -7   0 2.46739 18.9551   2
  -1  -7  -1 6.20492 27.4796   2
  -1  -7  -2 37.6809 22.5443   2
  -1  -7  -3 50.5176 24.1567   2
   1   7   4 18.7918 20.5944   2
  -1  -7  -5 6.13873 28.7604   2
  -1  -7  -6 59.0995 37.5481   2
  -1  -7  -7 88.7058 30.6959   2
  -1  -7  -8 26.2575 25.3378   2
   1   7   9 20.9469 28.1562   2
  -1  -7 -10-3.26869 28.2249   2
  -1  -7 -11-0.05197 6.26804   2
  -1  -7 -12-0.05418 7.71733   2
   1   7  13-0.05622 11.7504   2
  -1  -8   5 5.16083 36.1653   2
   1   8  -4 53.3469 36.1576   2
  -1  -8   3 19.2416 31.3354   2
  -1  -8   2 116.677 38.4058   2
  -1  -8   1 480.775 61.4712   2
  -1  -8   0 141.803 38.5270   2
  -1  -8  -1 20.7439 26.2946   2
  -1  -8  -2 80.2139 32.6840   2
   1   8   3 3.52763 25.5096   2
   1   8   4 191.798 58.1443   2
  -1  -8  -5 427.619 82.3279   2
  -1  -8  -6 43.8300 46.4104   2
  -1  -8  -7 4.70202 43.1336   2
  -1  -8  -8 14.2255 47.3974   2
  -1  -8  -9-0.05707 9.59567   2
  -1  -8 -10-0.05818 11.2082   2
  -2   8   9-0.04180 6.15830   2
   2  -8  -8-0.04340 5.60937   2
  -2   8   7 13.5649 29.3905   2
  -2   8   6-10.1512 26.2698   2
  -2   8   5 21.8882 26.2447   2
  -2   8   4 27.2901 26.7682   2
   2  -8  -3-2.20931 24.9592   2
   2  -8  -2 9.78533 25.9842   2
   2  -8  -1 11.2093 26.6144   2
   2  -8   0 12.0768 27.8344   2
   2  -8   1 12.6057 28.8084   2
   2  -8   2 3.23647 30.1226   2
  -2   8  -3 15.3850 32.8557   2
  -2   8  -4-6.83474 34.9626   2
  -2   8  -5 27.1121 38.6894   2
   2  -7 -10 22.3871 21.1354   2
  -2   7   9 85.3267 27.4970   2
   2  -7  -8 7.10661 20.2857   2
  -2   7   7 8.89797 19.1008   2
  -2   7   6 10.5575 18.9214   2
  -2   7   5 1.52865 18.3709   2
   2  -7  -4 60.3173 24.1533   2
   2  -7  -3 68.6458 25.2126   2
   2  -7  -2 68.0104 25.1807   2
   2  -7  -1 79.2608 27.1076   2
  -2   7   0 13.7452 20.5284   2
  -2   7  -1 10.3037 21.5484   2
  -2   7  -2 18.1555 23.6336   2
  -2   7  -3 52.2858 28.7756   2
  -2   7  -4 121.958 37.2473   2
  -2   7  -5 43.9276 32.5577   2
  -2   7  -6-1.33323 31.8203   2
  -2   7  -7 34.7036 39.6232   2
  -2   5  12 26.0499 21.8023   2
  -2   5  11 58.3615 24.2096   2
  -2   5  10 15.3531 18.4290   2
   2  -5  -9 119.509 20.3758   2
   2  -5  -8 254.815 27.3653   2
   2  -5  -7 8.47892 11.4388   2
  -2   5   6 24.9438 12.9976   2
   2  -5  -5 1.49398 8.74800   2
   2  -5  -4 321.279 31.5763   2
   2  -5  -3 283.188 30.3327   2
   2  -5  -2 96.3319 20.5356   2
  -2   5   1 30.0672 14.8716   2
  -2   5   0 1.18448 12.8378   2
  -2   5  -1 25.5484 16.1495   2
  -2   5  -2 41.7351 18.7294   2
  -2   5  -3 38.0104 19.1894   2
  -2   5  -4 133.514 29.5378   2
  -2   5  -5 219.872 37.1743   2
  -2   5  -6 25.0249 21.6830   2
  -2   5  -7 28.5056 23.9181   2
   2  -5   8 86.4292 45.7299   2
   2  -5   9 4.61328 38.2644   2
   2  -5  10 17.9684 47.5180   2
   2  -5  11 50.7156 59.7502   2
  -2   4  13 54.9644 18.6893   2
  -2   4  12 37.7290 18.4926   2
   2  -4  -8 38.7357 16.5055   2
   2  -4  -7 191.503 20.3880   2
   2  -4  -6 52.0412 12.5401   2
  -2   4   5 21.4205 9.93500   2
   2  -4  -4 5.94384 7.89795   2
   2  -4  -3 45.5032 12.5005   2
  -2   4   2 48.1581 13.4578   2
  -2   4   1 16.2328 10.4482   2
  -2   4   0 203.682 25.3217   2
  -2   4  -1 277.009 30.4914   2
  -2   4  -2 34.0202 15.2378   2
  -2   4  -3 10.9905 13.5731   2
  -2   4  -4 51.7518 19.3888   2
  -2   4  -5 109.447 25.8341   2
  -2   4  -6 49.3405 21.7803   2
   2  -4   7 12.9925 27.4963   2
   2  -4   8 63.4650 37.9702   2
   2  -4   9 112.836 48.1390   2
   2  -4  10 141.246 55.2256   2
   2  -4  11 41.5664 48.9102   2
   2  -4  12 6.38157 51.6360   2
  -2   2  14-1.19768 10.4256   2
  -2   2  13 63.8261 13.9394   2
  -2   2  12 92.3135 14.7571   2
  -2   2  11 124.798 15.3398   2
  -2   2  10 5.07544 6.65941   2
  -2   2   9 78.4418 10.7235   2
  -2   2   8 22.7135 6.27294   2
  -2   2   7 295.190 15.4003   2
  -2   2   6 589.071 27.3997   2
   2  -2  -5 95.3673 7.86027   2
  -2   2   4 249.210 13.0048   2
   2  -2  -3 486.337 19.8946   2
  -2   2   2-0.70203 5.03151   2
  -2   2   1 3.94631 8.14276   2
  -2   2   0 183.983 18.2483   2
  -2   2  -1 5.74830 8.35710   2
  -2   2  -2 52.6499 13.8690   2
  -2   2  -3 280.251 28.3634   2
   2  -2   4 181.153 35.3623   2
   2  -2   5 163.371 36.0609   2
   2  -2   6 63.5912 27.5906   2
   2  -2   7 139.743 39.1314   2
   2  -2   8-0.77703 22.4296   2
   2  -2   9 300.431 60.2269   2
   2  -2  10 464.763 76.8024   2
   2  -2  12 26.8529 28.0302   2
   2  -2  13 38.5450 33.6981   2
   2  -2  14 8.09490 17.7156   2
  -2   1  14 28.2733 15.5067   2
  -2   1  13 12.4385 13.0686   2
  -2   1  12 75.3429 15.9288   2
  -2   1  11 74.1479 14.4066   2
  -2   1  10 4.10637 7.66838   2
  -2   1   9 14.1523 7.32095   2
  -2   1   8 1.87926 4.97069   2
  -2   1   7 28.2080 8.09118   2
  -2   1   6 365.907 12.6755   2
   2  -1  -2 82.4910 8.80019   2
   2  -1   0 27.3410 10.2671   2
   2  -1   1 558.342 41.6408   2
   2  -1   2 483.981 43.3670   2
   2  -1   3 272.043 36.8968   2
   2  -1   4 6.94942 15.1861   2
   2  -1   5 115.531 29.9498   2
   2  -1   6 13.2753 18.1732   2
   2  -1   7 365.852 55.8261   2
   2  -1   8 49.1254 28.8588   2
   2  -1   9 64.7612 22.3296   2
   2  -1  10 15.6043 18.4620   2
   2  -1  11 12.6661 20.2137   2
   2  -1  12 23.5901 25.1154   2
   2  -1  13 29.6956 30.7160   2
   2  -1  14 1.49867 33.9409   2
   2  -1  15-0.06552 8.70667   2
   2   0  -4 19.8171 5.93650   2
   2   0  -3 45.7908 4.61683   2
  -2   0   2 134.360 11.8879   2
  -2   0   1 7.36940 3.94105   2
  -2   0   0 57.4026 8.48547   2
   2   0   1 1009.65 50.0393   2
   2   0   2 417.123 36.5908   2
  -2  -1  14 25.3723 24.2938   2
  -2  -1  13 31.8242 19.9530   2
  -2  -1  12 11.2071 16.3567   2
  -2  -1  11 11.6431 13.8876   2
  -2  -1  10 43.7351 21.4672   2
  -2  -1   9 76.2225 23.0752   2
  -2  -1   8 205.063 31.3230   2
  -2  -1   7 928.335 58.4559   2
   2   1  -6 913.881 38.5312   2
   2   1  -5 33.4515 8.60892   2
   2   1  -4 649.843 27.9483   2
  -2  -1   3 229.258 16.2106   2
  -2  -1   2 395.455 20.4458   2
   2   1  -1 3243.17 59.0518   2
  -2  -1   0 185.472 15.7783   2
  -2  -1  -1 339.089 22.4895   2
  -2  -1  -2 296.510 22.9084   2
   2   1   3 5.57541 8.21911   2
  -2  -1  -4 158.872 20.4590   2
   2   1   5 324.744 42.1639   2
   2   1   6 29.2685 18.4620   2
   2   1   7 33.1314 20.7200   2
   2   1   8 61.0159 27.2459   2
   2   1   9 76.5409 31.0045   2
   2   1  10 126.736 39.7396   2
   2   1  11-10.6682 17.9908   2
   2   1  12 97.0286 30.2649   2
   2   1  13 3.63651 24.4543   2
   2   1  14-9.17313 30.2551   2
   2   1  15-0.06026 7.74748   2
   2   1  16-0.06480 9.87235   2
  -2  -2  14-0.03989 5.53953   2
  -2  -2  13 8.49991 23.4023   2
  -2  -2  12 66.3169 33.9559   2
  -2  -2  11 41.4970 27.4081   2
  -2  -2  10 85.9895 30.1179   2
  -2  -2   9 93.7983 28.7193   2
   2   2  -8 16.6669 12.3344   2
   2   2  -7 77.9189 16.7035   2
   2   2  -6 86.9215 16.4090   2
   2   2  -5 23.7590 9.86396   2
   2   2  -4 37.8721 10.7447   2
  -2  -2   3 4.27089 7.49745   2
  -2  -2   2 56.7105 11.8380   2
  -2  -2   1 82.8978 13.6922   2
   2   2   0 42.8277 10.9739   2
   2   2   1 1582.28 53.9573   2
  -2  -2  -2 756.168 39.3063   2
  -2  -2  -3 31.0419 11.9610   2
   2   2   4 194.239 23.2451   2
  -2  -2  -5 313.102 30.0017   2
  -2  -2  -6 224.539 27.4690   2
   2   2   7 1106.67 60.9829   2
   2   2   8 686.331 73.2447   2
   2   2   9 3.13024 20.2709   2
   2   2  10 76.9265 34.0567   2
   2   2  11 44.1820 32.3950   2
   2   2  12 58.0747 37.8163   2
   2   2  13 96.3073 33.1916   2
   2   2  14 72.3087 37.3496   2
   2   2  15-0.05902 7.70468   2
   2   2  16-0.06368 10.1599   2
  -2  -4  13-0.05270 10.0815   2
  -2  -4  12 52.3448 47.4815   2
  -2  -4  11 21.8207 37.8155   2
   2   4 -10 7.15009 20.9235   2
   2   4  -9 14.8528 19.5619   2
   2   4  -8-1.88849 16.3968   2
   2   4  -7 22.1807 17.0849   2
   2   4  -6 7.03728 13.8157   2
   2   4  -5 77.6018 20.6536   2
   2   4  -4 75.2065 19.2970   2
  -2  -4   3 95.7522 20.2972   2
  -2  -4   2 557.397 42.3285   2
  -2  -4   1 593.079 42.9804   2
  -2  -4   0-0.08219 10.4340   2
  -2  -4  -1 80.0791 18.2027   2
   2   4   2 94.2930 19.5003   2
   2   4   3 255.266 30.1524   2
  -2  -4  -4 620.688 46.4529   2
   2   4   5 204.373 29.0094   2
   2   4   6 206.356 30.0722   2
  -2  -4  -7 36.6553 17.8234   2
  -2  -4  -8 14.9115 16.2779   2
  -2  -4  -9 22.3082 18.4968   2
   2   4  10 56.7434 23.9448   2
   2   4  11 88.4982 41.7605   2
   2   4  12 134.696 50.4968   2
   2   4  13 15.6958 41.5292   2
   2   4  14-0.05509 9.43479   2
   2   4  15-0.05869 12.9081   2
  -2  -5  13-0.06219 14.3371   2
  -2  -5  12-0.05877 10.7343   2
   2   5 -11 6.50198 33.1970   2
   2   5 -10 193.041 42.4615   2
   2   5  -9 269.268 44.9627   2
  -2  -5   8 46.6728 25.1929   2
   2   5  -7 176.416 34.2729   2
   2   5  -6 45.1086 21.9207   2
  -2  -5   5 189.581 32.4532   2
  -2  -5   4 629.209 52.8725   2
  -2  -5   3 556.275 48.6838   2
  -2  -5   2 24.0780 16.1903   2
  -2  -5   1 25.0028 15.8245   2
  -2  -5   0 4.96672 13.1014   2
  -2  -5  -1 52.4563 18.5147   2
  -2  -5  -2 63.5139 19.8300   2
  -2  -5  -3 198.412 30.2835   2
  -2  -5  -4 216.348 32.0323   2
   2   5   5 7.45306 14.8173   2
  -2  -5  -6 119.699 37.8241   2
   2   5   7 62.1187 22.6636   2
  -2  -5  -8 10.3482 24.8644   2
  -2  -5  -9 195.915 50.3380   2
  -2  -5 -10 139.827 46.9573   2
  -2  -5 -11 34.3903 36.2648   2
   2   5  12 160.846 56.8520   2
   2   5  13 104.547 48.7498   2
   2   5  14-0.05779 11.7225   2
  -2  -7   8 20.8632 28.3598   2
  -2  -7   7 50.9500 37.5388   2
  -2  -7   6 54.6281 34.0688   2
  -2  -7   5 55.5657 31.0499   2
  -2  -7   4 58.3599 29.9149   2
  -2  -7   3-0.48520 22.4319   2
  -2  -7   2 81.3576 29.6985   2
  -2  -7   1 8.61538 20.8295   2
  -2  -7   0 140.453 33.6192   2
  -2  -7  -1 204.290 38.6179   2
  -2  -7  -2 32.2738 23.2520   2
   2   7   3 29.2564 22.8902   2
  -2  -7  -4 43.3121 25.3206   2
   2   7   5 28.9612 24.2543   2
  -2  -7  -6 50.7368 27.8929   2
  -2  -7  -7 0.54420 24.1792   2
  -2  -7  -8 50.2544 30.5650   2
  -2  -7  -9 18.6715 29.4783   2
   2   7  10 11.7443 32.4409   2
   2   7  11-0.05834 7.32749   2
   2   7  12-0.06111 8.72119   2
  -2  -8   5 75.8984 42.5933   2
  -2  -8   4 92.6035 41.2086   2
  -2  -8   3 10.1616 32.6346   2
  -2  -8   2 14.5884 30.3863   2
  -2  -8   1 2.65460 27.9270   2
  -2  -8   0 1.04418 26.8846   2
   2   8   1 93.1434 35.5464   2
   2   8   2 78.9186 47.3447   2
   2   8   3 9.88084 26.6283   2
  -2  -8  -4 28.6284 43.2713   2
  -2  -8  -5-12.0153 28.4052   2
  -2  -8  -6 7.47326 30.5254   2
  -2  -8  -7 0.84598 47.0116   2
  -3   8   8-0.03924 5.67156   2
   3  -8  -7-0.04142 5.61040   2
  -3   8   6-3.89950 26.4596   2
  -3   8   5 14.1736 26.8724   2
  -3   8   4 65.7894 31.6438   2
   3  -8  -3 45.8505 31.2728   2
   3  -8  -2 0.38814 27.3260   2
   3  -8  -1 40.7070 32.2437   2
   3  -8   0-0.99710 29.6310   2
   3  -8   1 47.8070 35.3047   2
  -3   8  -2 42.8261 36.0588   2
  -3   8  -3 50.2770 39.6614   2
  -3   8  -4 3.96242 28.0505   2
  -3   7   9-8.15059 20.1403   2
  -3   7   8-14.1539 19.9894   2
   3  -7  -7 3.21495 20.1460   2
  -3   7   6-1.74020 18.8122   2
  -3   7   5 53.3477 23.3136   2
  -3   7   4 120.431 29.3792   2
   3  -7  -3 21.3137 21.6125   2
   3  -7  -2 16.7247 21.1096   2
  -3   7   1 4.58983 20.8041   2
  -3   7   0 12.7122 21.7883   2
  -3   7  -1 135.131 35.2400   2
  -3   7  -2 58.7041 29.8049   2
  -3   7  -3 31.3696 28.2758   2
  -3   7  -4-8.78464 28.0758   2
  -3   7  -5 30.8058 33.4599   2
  -3   7  -6 32.6825 37.1909   2
  -3   6  10 16.6417 19.9158   2
   3  -6  -9 16.3220 21.0341   2
  -3   5  10 2.85425 8.48421   2
  -3   5   9 21.3202 14.2047   2
  -3   5   8 10.8679 10.1661   2
   3  -5  -7 10.3995 10.7000   2
  -3   5   6 23.0679 12.1897   2
  -3   5   5 230.002 25.9963   2
   3  -5  -4 199.705 25.4603   2
  -3   5   3 9.12851 11.9761   2
  -3   5   2 75.8089 19.1841   2
  -3   5   1 99.1341 22.0371   2
  -3   5   0 66.0926 20.0838   2
  -3   5  -1 1183.78 70.0146   2
  -3   5  -2 778.329 59.6630   2
  -3   5  -3 59.6451 22.8975   2
  -3   5  -4 155.621 32.6809   2
  -3   5  -5 39.8622 23.5147   2
   3  -5   6 57.9013 38.2883   2
   3  -5   7 293.278 68.5916   2
   3  -5   8 259.464 68.4328   2
   3  -5   9 13.8465 44.6397   2
   3  -5  10 7.18039 50.6999   2
  -3   4   8 47.6353 11.5502   2
  -3   4   7 137.687 14.3494   2
  -3   4   6 238.192 20.2401   2
  -3   4   5 36.5402 10.8418   2
   3  -4  -4 9.06356 9.01449   2
  -3   4   3 4.60640 9.02277   2
  -3   4   2 96.8235 17.5542   2
  -3   4   1 183.569 24.3435   2
  -3   4   0-2.02821 10.5553   2
  -3   4  -1 7.13764 12.3557   2
  -3   4  -2 35.4630 16.7142   2
  -3   4  -3 50.9796 19.4161   2
  -3   4  -4 1.11077 15.5565   2
   3  -4   5 15.9499 25.9441   2
   3  -4   6 28.8978 29.2309   2
   3  -4   7 2.60874 28.8434   2
   3  -4   8 3.41457 31.9237   2
   3  -4   9-5.25131 35.9051   2
   3  -4  10 139.344 59.9187   2
   3  -4  11-5.27689 50.4848   2
  -3   3   6 10.2217 3.33860   2
  -3   3   5 59.5316 8.59674   2
  -3   3   4 88.2506 11.6991   2
  -3   3   3 97.8104 19.9270   2
   3  -2  -3 360.370 23.8657   2
   3  -2  -2 269.922 25.4471   2
   3  -2  -1 43.6753 14.1718   2
   3  -2   0 211.037 29.6236   2
   3  -2   1 151.910 28.2597   2
   3  -2   2 72.2093 23.0533   2
   3  -2   3 248.807 41.0799   2
   3  -2   4 572.791 64.1538   2
   3  -2   5-1.53680 18.2784   2
   3  -2   6 416.514 62.5581   2
   3  -2   7 273.679 55.1464   2
   3  -2   8 40.8478 31.5634   2
   3  -2   9 125.365 46.9124   2
   3  -2  10 69.6857 28.6261   2
   3  -2  11 9.19242 24.7729   2
   3  -2  12 54.9179 35.1511   2
   3  -2  13 136.346 47.4502   2
   3  -1  -2 375.721 25.1113   2
   3  -1  -1 1565.68 60.6684   2
   3  -1   0 124.398 14.9789   2
   3  -1   1 122.856 24.9980   2
   3  -1   2 202.479 33.1088   2
   3  -1   3 212.277 36.4019   2
   3  -1   4 272.368 43.5845   2
   3  -1   5 206.017 41.3844   2
   3  -1   7-10.4378 14.3335   2
   3  -1   8 9.78265 16.0419   2
   3  -1   9 33.5260 21.0621   2
   3  -1  10 9.49681 20.0542   2
   3  -1  11 24.8369 24.1852   2
   3  -1  12 115.389 37.2196   2
   3  -1  13 2.92656 32.5046   2
   3  -1  14-3.33869 18.9998   2
  -3   0  13 12.6646 9.73700   2
  -3   0  12 3.70458 9.20068   2
  -3   0  11 0.06580 7.98625   2
  -3   0  10 28.2411 9.94971   2
  -3   0   9 15.4886 7.37168   2
  -3   0   8 1.40736 4.47689   2
  -3   0   7 16.4762 4.89548   2
  -3   0   4 198.768 9.44485   2
  -3   0   3 12.8297 6.17872   2
  -3   0   2 632.988 24.1047   2
   3   0  -1-1.48124 5.80081   2
   3   0   0 17.8374 11.7877   2
   3   0   1 3.54657 10.8704   2
   3   0   2 298.719 36.7097   2
   3   0   3 66.3914 21.1446   2
  -3  -1  13 20.3360 22.8794   2
  -3  -1  12 3.54072 18.5011   2
  -3  -1  11 104.641 18.4163   2
  -3  -1  10 187.449 30.1535   2
  -3  -1   9 70.1681 19.5849   2
  -3  -1   8 29.7831 14.0492   2
  -3  -1   7 17.6333 8.45946   2
  -3  -1   6 16.0556 7.60449   2
  -3  -1   5 463.167 24.6263   2
  -3  -1   4 376.731 21.7793   2
  -3  -1   3 65.3826 14.9079   2
  -3  -1   2 61.9576 10.7079   2
   3   1  -1 195.967 25.3512   2
   3   1   0 10.7005 8.52089   2
  -3  -1  -1 198.165 20.8806   2
   3   1   2 470.938 32.6898   2
   3   1   3 908.105 47.5579   2
   3   1   4 391.823 33.7417   2
   3   1   5 46.9891 21.7381   2
   3   1   6 259.913 44.8349   2
   3   1   7 37.7335 24.7413   2
   3   1   8 445.477 64.2316   2
   3   1   9 406.696 64.8782   2
   3   1  10 38.5651 32.0260   2
   3   1  11 37.0338 34.4955   2
   3   1  12 93.5694 32.8315   2
   3   1  13-11.6015 28.5307   2
   3   1  14 12.8303 36.4471   2
   3   1  15-0.06813 9.12974   2
  -3  -2  13 57.1102 25.5582   2
  -3  -2  12 133.982 37.1687   2
  -3  -2  11 83.7654 30.3987   2
  -3  -2  10 18.7437 20.2981   2
  -3  -2   9 18.7055 18.4071   2
   3   2  -8 8.45930 11.0778   2
  -3  -2   7 3.88679 9.57836   2
  -3  -2   6 104.979 17.0623   2
  -3  -2   5 296.765 25.3948   2
  -3  -2   4 274.086 23.8349   2
  -3  -2   3 42.6281 11.1196   2
  -3  -2   2 900.120 41.7256   2
   3   2  -1 193.457 20.8141   2
   3   2   0 31.7283 11.2040   2
  -3  -2  -1 815.227 43.5735   2
  -3  -2  -2 229.580 25.0384   2
   3   2   3 195.903 24.5653   2
  -3  -2  -4 746.640 47.5962   2
  -3  -2  -5 275.250 31.3440   2
   3   2   6 55.0944 18.0930   2
   3   2   7 8.07184 20.4753   2
   3   2   8 0.14622 21.9908   2
   3   2   9-1.52548 23.2020   2
   3   2  10 107.472 41.8003   2
   3   2  11 140.962 49.3379   2
   3   2  12 108.993 50.3158   2
   3   2  13 32.0012 45.8707   2
   3   2  14-0.06211 35.2334   2
   3   2  15-0.06706 8.89917   2
  -3  -3  13-0.03838 7.77029   2
  -3  -3  12 10.0573 33.4240   2
  -3  -3  11 0.69365 27.5710   2
  -3  -3  10 34.6636 28.2168   2
   3   3  -9 240.139 32.3484   2
  -3  -3   8 3.81700 13.0715   2
   3   3  -5 308.061 42.8283   2
   3   3  -4 593.799 56.3942   2
   3   3  -3 285.182 39.5811   2
   3   3  -2 20.1229 15.3730   2
  -3  -4  12-0.04569 8.61848   2
  -3  -4  11 5.46679 35.7292   2
  -3  -4  10 0.76635 21.3384   2
  -3  -4   9 26.5695 21.1349   2
  -3  -4   8 279.747 37.4373   2
  -3  -4   7 61.5278 21.4053   2
  -3  -4   6 3.55601 14.1847   2
  -3  -4   5 60.5090 19.4901   2
  -3  -4   4 14.5366 13.8673   2
  -3  -4   3 308.694 33.8369   2
  -3  -4   2 148.930 24.6605   2
  -3  -4   1-1.31155 11.5087   2
  -3  -4   0 185.036 26.8260   2
   3   4   1 1.94149 11.8234   2
  -3  -4  -2 15.7637 13.6663   2
  -3  -4  -3 13.2728 13.6574   2
   3   4   4 34.0109 17.0136   2
   3   4   5 30.0419 17.2962   2
   3   4   6 6.86891 15.1392   2
  -3  -4  -7 0.79060 16.1947   2
   3   4   8 73.8966 24.7713   2
  -3  -4  -9 98.5464 28.6366   2
   3   4  10 7.74173 29.6047   2
   3   4  11 14.9930 36.2404   2
   3   4  12 11.7023 41.2570   2
   3   4  13 64.4531 54.6650   2
   3   4  14-0.06295 11.3045   2
  -3  -5  12-0.05540 11.8433   2
   3   5 -11-0.05208 6.61639   2
  -3  -5  10 58.2868 33.6487   2
  -3  -5   9 1.31649 25.0691   2
  -3  -5   8 12.5505 23.2790   2
  -3  -5   7 145.461 32.6627   2
  -3  -5   6 162.255 32.1436   2
  -3  -5   5 94.7046 25.5771   2
  -3  -5   4 36.0064 19.1844   2
  -3  -5   3 35.2914 18.3880   2
  -3  -5   2 144.193 27.7039   2
  -3  -5   1 21.1873 16.2809   2
  -3  -5   0 614.665 51.4071   2
  -3  -5  -1 837.517 59.7155   2
  -3  -5  -2 30.3320 17.6758   2
  -3  -5  -3 189.780 31.8182   2
   3   5   4 122.112 27.5235   2
   3   5   5 46.6401 21.0458   2
   3   5   6 660.840 58.3063   2
   3   5   7 162.445 33.2499   2
  -3  -5  -8 12.6662 28.8309   2
   3   5   9 79.8446 29.1098   2
  -3  -5 -11 22.4636 41.0583   2
   3   6 -11-0.06192 9.93119   2
   3   6  -9-10.5060 47.0156   2
   3   6  -7 129.728 50.8000   2
   3   7  -8-0.06393 7.90780   2
  -3  -7   7 60.4558 38.8534   2
  -3  -7   6 12.1487 32.1634   2
  -3  -7   5-13.1154 28.0169   2
  -3  -7   4 2.92061 26.2692   2
  -3  -7   3 25.1007 26.4422   2
  -3  -7   2 23.9864 25.2704   2
  -3  -7   1 22.6518 24.7037   2
  -3  -7   0 14.5892 23.2629   2
   3   7   1 111.517 33.0588   2
  -3  -7  -2 77.1779 29.5849   2
   3   7   3 13.0529 23.1992   2
  -3  -7  -4 39.2708 27.3720   2
  -3  -7  -5 3.62573 24.3033   2
  -3  -7  -6 57.8608 31.6470   2
  -3  -7  -7 31.6459 29.9067   2
  -3  -7  -8 1.50976 29.7318   2
   3   7   9-7.41676 32.6295   2
   3   7  10-0.06215 7.30157   2
   3   8  -4 14.8335 36.4027   2
   3   8  -3-6.89469 33.3656   2
   3   8  -2 19.7400 32.5669   2
   3   8  -1 11.0386 31.1798   2
   3   8   0 37.8003 33.8241   2
   3   8   1 36.3541 33.3763   2
   3   8   2 8.87243 30.3818   2
  -3  -8  -3 17.9775 31.4906   2
   3   8   4 43.6344 47.8964   2
  -3  -8  -5 99.2943 58.6635   2
  -3  -8  -6 203.147 74.0545   2
  -4   9   3-0.05802 9.31821   2
  -4   9   2-0.06124 9.92751   2
  -4   8   6-0.04032 5.96078   2
  -4   8   5-0.04318 5.79582   2
  -4   8   4 2.25842 18.2460   2
  -4   8   3 11.6043 31.2808   2
   4  -8  -2 102.054 39.1186   2
   4  -8  -1 102.553 40.3550   2
   4  -8   0 27.0644 35.7691   2
  -4   8  -1-10.1704 32.8094   2
  -4   8  -2-0.36810 12.5681   2
  -4   8  -3-0.06772 8.15993   2
  -4   7   8 1.29435 8.84162   2
  -4   7   7 10.3509 21.3741   2
  -4   7   6 7.17696 20.1705   2
  -4   7   5 12.2571 21.4309   2
  -4   7   4 9.47726 19.9388   2
   4  -7  -3 13.7220 22.3514   2
   4  -7  -2 3.95542 22.1149   2
   4  -7  -1 37.4480 26.4894   2
  -4   7   0 14.7911 25.9739   2
  -4   7  -1 115.939 36.2433   2
  -4   7  -2 170.528 41.9163   2
  -4   7  -3-2.46259 29.6417   2
  -4   7  -4 8.10010 32.2853   2
   4  -7   5-12.5666 49.5239   2
  -4   6   8 3.65293 10.7491   2
   4  -6  -7 21.1848 15.2081   2
  -4   6   6 5.23130 14.2256   2
  -4   6   5 38.8054 18.0309   2
  -4   6   4 93.9188 23.2850   2
   4  -6  -3 106.456 24.8044   2
  -4   6   2 130.159 27.8484   2
  -4   6   1 26.4796 19.5582   2
  -4   6   0 31.2459 21.1845   2
   4  -6   3 450.725 77.1966   2
   4  -5  -7 22.5377 11.9517   2
  -4   5   6 23.7043 11.6289   2
  -4   5   5 158.764 21.7659   2
   4  -5  -4 212.891 26.1564   2
  -4   5   3 41.5413 16.0034   2
  -4   5   2 327.094 35.0426   2
  -4   5   1 119.522 24.8198   2
  -4   5   0 1.37697 14.6684   2
  -4   5  -1 71.9564 23.3650   2
  -4   5  -2 16.2420 18.3360   2
   4  -5   3-6.52032 24.9732   2
   4  -5   4 105.283 42.5448   2
   4  -5   5 129.119 47.8825   2
   4  -5   6 94.9624 46.9458   2
   4  -5   7 46.4696 43.5890   2
   4  -5   8 20.4894 44.8828   2
   4  -5   9 37.3933 53.8733   2
   4  -4  -6 6.75080 6.58193   2
   4  -4  -5 118.787 20.1793   2
   4  -4  -4 157.634 25.9092   2
  -4   4   3 141.665 20.0377   2
   4  -4  -2 143.773 21.6210   2
  -4   4   1 23.3349 13.6868   2
   4  -4   0 12.9256 18.7122   2
   4  -4   1 4.83606 17.9842   2
   4  -4   2 2.50402 19.6035   2
   4  -4   3 247.496 50.1452   2
   4  -4   4 217.796 50.5001   2
   4  -4   5 3.48800 26.9559   2
   4  -4   6 102.461 43.6190   2
   4  -4   7 102.084 46.1936   2
   4  -4   8-6.07321 36.3434   2
   4  -4   9 47.5861 49.0627   2
   4  -4  10 55.9225 54.9033   2
   4  -4  11-17.2127 56.6793   2
   4  -3  -4 45.0917 11.8441   2
   4  -3  -3 7.13187 10.2655   2
   4  -3  -2 24.4364 14.0380   2
   4  -3  -1 50.0589 18.8277   2
   4  -3   0 43.6824 20.1473   2
   4  -3   1 45.2449 21.9673   2
   4  -3   2 33.8771 22.1070   2
   4  -2  -3 125.084 12.0622   2
   4  -2  -2 385.455 24.5013   2
   4  -2  -1 8.88396 11.7512   2
   4  -2   0 587.155 53.1251   2
   4  -2   1 469.544 51.7495   2
   4  -2   2 47.3509 22.4356   2
   4  -2   3 87.9025 29.6538   2
   4  -2   4 45.2722 26.6372   2
   4  -2   5 23.1693 25.2805   2
   4  -2   6 84.6804 36.0805   2
   4  -2   8-2.69538 19.6477   2
   4  -2   9 29.7824 24.9917   2
   4  -2  10 10.6643 25.8574   2
   4  -2  11 52.0725 33.7320   2
   4  -2  12 18.8060 36.0949   2
   4  -1  -3 2.40594 5.29134   2
   4  -1  -2-1.18472 7.53408   2
   4  -1  -1-2.01737 8.93666   2
   4  -1   0 44.8586 11.4438   2
   4  -1   1 48.2719 13.2827   2
   4  -1   2 706.632 44.2414   2
   4  -1   3 760.858 49.0031   2
   4  -1   4 208.357 28.8917   2
   4  -1   5 21.7177 15.1133   2
   4  -1   6 229.030 34.2117   2
   4  -1   7 4.04407 16.3864   2
   4  -1   8 609.195 58.0671   2
   4  -1   9 584.965 59.8821   2
   4  -1  10 106.647 33.0561   2
   4  -1  11 33.0388 29.7693   2
   4  -1  12 35.8185 34.1968   2
   4  -1  13-5.65241 38.0795   2
   4   0  -4 301.047 20.2120   2
   4   0  -3 6.05625 7.22676   2
   4   0  -2 100.563 17.7190   2
   4   0  -1 0.42765 9.09874   2
   4   0   0 188.502 29.0576   2
   4   0   1 579.778 52.3014   2
   4   0   2 134.811 29.0882   2
   4   0   3 6.90895 15.1336   2
  -4  -1  11 16.0447 7.30900   2
  -4  -1  10 14.4527 8.96272   2
  -4  -1   9 6.91982 8.15052   2
  -4  -1   8 13.7252 9.37212   2
   4   1  -7 0.65143 5.73040   2
  -4  -1   6 3.23688 6.16065   2
  -4  -1   5 158.646 15.5867   2
  -4  -1   4 46.5547 10.0796   2
   4   1  -3 3.79493 6.53979   2
  -4  -1   2 23.8004 9.10924   2
  -4  -1   1 73.1519 13.5935   2
  -4  -1   0 766.991 41.1432   2
  -4  -1  -1 358.224 30.4838   2
   4   1   2 13.2584 10.7436   2
   4   1   3 19.6858 12.6077   2
   4   1   4 63.1895 25.6966   2
   4   1   5 300.796 50.0264   2
   4   1   6 210.793 45.4991   2
   4   1   7 101.258 36.2542   2
   4   1   8 108.688 39.6719   2
   4   1   9 50.1189 34.3904   2
   4   1  10 58.6877 38.5882   2
   4   1  11 3.39040 34.1963   2
   4   1  12-15.6000 28.5136   2
   4   1  13 17.2307 36.6827   2
   4   1  14-0.07083 8.55628   2
  -4  -2  12 11.3884 15.0163   2
  -4  -2  11 11.0825 19.3888   2
  -4  -2  10 8.38513 17.3920   2
  -4  -2   9 153.932 30.2716   2
   4   2  -8 503.212 35.0314   2
   4   2  -7 298.037 27.0727   2
   4   2  -6 66.2515 14.4638   2
   4   2  -5 161.522 20.0281   2
   4   2  -4 21.2139 10.4240   2
   4   2  -3 701.182 39.6849   2
   4   2  -2 1075.21 49.7882   2
   4   2  -1 151.458 20.9054   2
   4   2   0 106.019 18.4635   2
   4   2   1 26.3153 12.3074   2
   4   2   2 5.97503 10.6978   2
  -4  -2  -3 25.3138 13.9071   2
  -4  -2  -4 83.5413 20.5718   2
  -4  -2  -5 84.2562 21.8686   2
   4   2   6 42.2997 18.8094   2
   4   2   7 40.0753 28.7290   2
   4   2   8 85.0923 37.8785   2
   4   2  11 72.9440 45.3403   2
   4   2  12 0.83358 41.2363   2
   4   2  13 65.3619 58.6696   2
  -4  -3  12 1.41393 13.6838   2
  -4  -3  11 75.4072 35.2928   2
   4   3 -10 109.911 25.1250   2
   4   3  -9-0.43824 15.0778   2
   4   3  -8 14.1757 14.5153   2
   4   3  -7 74.9233 19.1883   2
   4   3  -6 48.0733 16.1512   2
  -4  -3   5 50.0222 15.8628   2
  -4  -3   4 2.51099 10.5244   2
  -4  -3   3 44.7707 15.2767   2
   4   3  -2 87.3416 18.8247   2
  -4  -3   1-0.58864 10.6590   2
  -4  -3   0 854.608 52.1790   2
   4   3   1 749.752 70.1868   2
   4   3   3 185.282 40.0377   2
   4   3   5 180.997 43.1899   2
  -4  -4  11 7.62091 29.0412   2
   4   4 -10 13.1646 23.4472   2
   4   4  -9 6.36346 20.0254   2
   4   4  -8 12.3402 18.2983   2
   4   4  -7 128.939 27.1731   2
  -4  -4   6 78.1451 22.0689   2
  -4  -4   5 6.09709 14.4818   2
  -4  -4   4-2.11957 12.9843   2
  -4  -4   3 83.4741 21.0455   2
  -4  -4   2 123.131 24.3980   2
  -4  -4   1 7.30191 13.2806   2
  -4  -4   0 73.9446 20.8223   2
   4   4   1 2.83299 13.7575   2
   4   4   2 26.4867 16.5882   2
   4   4   3 70.3837 21.7182   2
   4   4   4 12.1016 15.8431   2
   4   4   5 61.4715 22.6482   2
   4   4   6 0.26391 16.9949   2
   4   4   7 2.42717 17.8623   2
  -4  -4  -8 12.8434 20.6745   2
  -4  -4  -9 111.677 32.9384   2
   4   4  10 45.7353 41.4347   2
   4   4  11-3.23174 40.5621   2
   4   4  12-8.36185 47.2958   2
   4   4  13-0.06639 11.3836   2
   4   5 -11-0.04959 6.98830   2
   4   5 -10 0.04792 6.29113   2
   4   5  -9 19.6139 28.2075   2
   4   5  -8 39.8016 27.2059   2
   4   5  -7 25.4642 23.3736   2
  -4  -5   6 57.4697 24.4357   2
  -4  -5   5 51.9802 22.7805   2
  -4  -5   4 48.6300 21.4043   2
  -4  -5   3 245.636 36.3106   2
  -4  -5   2 182.643 32.0583   2
  -4  -5   1 2.28496 15.7528   2
  -4  -5   0 11.2478 16.7331   2
  -4  -5  -1 3.62777 16.1327   2
   4   5   2 161.399 31.3917   2
   4   5   3 119.929 28.7006   2
   4   5   4 2.43346 17.2605   2
   4   5   5 12.9290 18.9741   2
   4   5   6 25.6744 21.9376   2
  -4  -5  -7 14.0754 21.8044   2
   4   5   8 3.67546 23.0961   2
  -4  -5  -9 35.3764 40.5200   2
   4   6 -10-0.05790 9.30372   2
   4   6  -9-0.05574 7.38208   2
   4   6  -8 120.874 40.2862   2
   4   6  -7 35.1639 31.5255   2
   4   6  -6 31.0155 27.4701   2
   4   6  -5 117.261 34.0318   2
   4   6  -4 69.7789 28.4661   2
  -4  -6   3-2.31538 20.7365   2
  -4  -6   2 32.2299 23.1214   2
  -4  -6   1 45.8979 23.9477   2
   4   6   0 46.1780 23.9881   2
  -4  -6  -1 6.66675 19.8140   2
   4   6   2 117.935 31.4408   2
   4   6   3 147.268 34.5995   2
   4   6   4 61.2031 38.5300   2
   4   6   5 520.000 82.6979   2
   4   6   7 51.6998 42.1886   2
   4   7  -7-0.06148 7.87737   2
   4   7  -6-12.9544 27.9612   2
   4   7  -5-0.42378 32.5077   2
   4   7  -4-4.19232 29.2031   2
   4   7  -3 83.5814 35.2310   2
   4   7  -2 415.765 56.5689   2
   4   7  -1 80.4877 32.9362   2
   4   7   0 15.3197 26.0230   2
  -4  -7  -1 17.0698 25.7424   2
  -4  -7  -2 43.3873 29.5844   2
  -4  -7  -3 181.844 42.2934   2
  -4  -7  -4 166.892 42.2911   2
  -4  -7  -5 43.2511 31.3620   2
   4   7   6 0.88646 29.5127   2
   4   7   7-3.94281 31.9368   2
   4   7   8 17.0049 35.8259   2
   4   8  -3-0.06526 6.96460   2
   4   8  -2-8.04263 35.0809   2
   4   8  -1 49.9164 38.9614   2
   4   8   0 14.9900 36.5895   2
   4   8   1 36.0828 37.8291   2
   4   8   2 29.5106 36.8219   2
  -4  -8  -3 18.6223 36.5997   2
  -4  -8  -4-2.86928 35.6364   2
   5  -8  -4-0.04210 9.23016   2
   5  -8  -3-0.04593 9.27512   2
   5  -8  -2-0.04943 10.0098   2
   5  -8  -1-0.05321 9.70117   2
   5  -8   0-0.05675 10.3582   2
   5  -8   1-0.06044 11.6019   2
   5  -7  -6 0.51769 6.24168   2
   5  -7  -5 108.965 40.8005   2
   5  -7  -4 42.4135 35.4039   2
   5  -7  -3 7.12103 32.1710   2
   5  -7  -2 46.8967 38.0218   2
   5  -7  -1-6.92563 33.9215   2
   5  -7   0 43.2822 42.0627   2
   5  -7   1 11.6542 40.8831   2
   5  -7   2-13.5493 44.3886   2
   5  -7   3 26.1748 51.0649   2
   5  -7   4-0.12724 20.7024   2
   5  -6  -7-1.77323 10.4694   2
   5  -6  -6 6.20626 19.1788   2
   5  -6  -5 65.2037 27.1055   2
   5  -6  -4 16.3843 23.9230   2
   5  -6  -3 16.8489 24.9669   2
   5  -6  -2 6.41569 24.4221   2
   5  -6  -1 38.4566 32.0468   2
   5  -6   0 56.7259 35.1577   2
   5  -6   1 20.9827 31.8789   2
   5  -6   2 33.4208 37.0843   2
   5  -6   3 32.8258 40.0377   2
   5  -6   4 29.8181 43.9408   2
   5  -6   5 15.5250 44.9788   2
   5  -6   6-17.3106 49.6762   2
   5  -5  -6 39.3068 12.6185   2
   5  -5  -5 35.8039 17.7145   2
   5  -5  -4 0.26532 15.8709   2
   5  -5  -3 27.8557 21.3157   2
   5  -5  -2 66.3649 27.7928   2
   5  -5  -1 49.1202 26.7298   2
   5  -5   0 9.46451 22.0085   2
   5  -5   1 5.51637 23.4439   2
   5  -5   2 66.9620 35.2205   2
   5  -5   3 75.6269 39.6020   2
   5  -5   4 18.7847 33.7110   2
   5  -5   5 83.4572 46.2854   2
   5  -5   6 31.9474 43.8141   2
   5  -5   7 51.0983 51.5100   2
   5  -5   8 66.2595 61.8736   2
   5  -4  -5 264.169 17.1095   2
   5  -4  -3 69.0571 21.5687   2
   5  -4  -2 126.569 29.4940   2
   5  -4  -1 12.1908 17.8424   2
   5  -4   0 615.896 67.0738   2
   5  -4   1 315.260 52.8056   2
   5  -4   2 3.62521 21.9679   2
   5  -4   3 116.648 40.4702   2
   5  -4   4 24.7423 30.0163   2
   5  -4   5 34.1469 35.0820   2
   5  -4   6 109.504 48.9619   2
   5  -4   7 75.5856 47.7438   2
   5  -4   8-15.4439 44.0057   2
   5  -4   9 6.08446 49.6508   2
   5  -3  -4 7.02823 8.06857   2
   5  -3  -3 42.2703 11.4557   2
   5  -3  -1 26.1727 18.1592   2
   5  -3   0 36.1775 21.5369   2
   5  -3   1 23.0553 21.0525   2
   5  -3   2 117.191 35.6842   2
   5  -3   3 129.241 39.6150   2
   5  -3   4 77.6248 35.4839   2
   5  -2  -4 71.7159 8.24036   2
   5  -2  -3 205.270 17.3389   2
   5  -2  -2 47.2428 11.9116   2
   5  -2  -1 5.32187 9.30769   2
   5  -2   0 165.218 22.9781   2
   5  -2   1 34.6550 15.2763   2
   5  -2   2 94.7931 21.8779   2
   5  -2   3 49.8246 18.8148   2
   5  -2   4 68.7047 22.2462   2
   5  -2   5 105.924 26.9965   2
   5  -2   6 13.3927 19.6329   2
   5  -2   7 26.1576 23.1424   2
   5  -2   8 23.9498 24.4122   2
   5  -2   9 8.17944 25.6254   2
   5  -2  10 104.972 39.0484   2
   5  -2  11-1.39395 35.3697   2
   5  -1  -4 39.0263 5.97834   2
   5  -1  -3 165.420 20.9467   2
   5  -1  -2 5.58556 10.7724   2
   5  -1  -1 258.105 34.6272   2
   5  -1   0 469.768 35.2451   2
   5  -1   1 88.1865 18.9018   2
   5  -1   2 82.0151 19.4075   2
   5  -1   3 302.955 35.0005   2
   5  -1   4 4.72937 13.7251   2
   5  -1   5 419.370 44.8076   2
   5  -1   6 304.741 41.1770   2
   5  -1   7 190.706 36.2148   2
   5  -1   8 6.77118 20.6964   2
   5  -1   9 5.87912 23.6115   2
   5  -1  10-6.51279 27.3554   2
   5  -1  11 51.9100 37.1429   2
   5  -1  12 57.2661 42.3625   2
   5   0  -4 39.7001 10.8337   2
   5   0  -3 656.673 43.4399   2
   5   0  -2 1069.80 61.9716   2
   5   0  -1 97.2424 23.6018   2
   5   0   0 9.83899 13.8588   2
   5   0   1 12.7972 16.6576   2
   5   0   2 86.4173 27.8147   2
   5   0   4 155.768 39.6305   2
   5   0   6 41.9980 30.3028   2
   5   0   8 23.2471 31.6536   2
   5   1  -7 37.0022 6.68908   2
   5   1  -6 19.4535 7.22096   2
   5   1  -5 2.19965 6.68123   2
  -5  -1   4 14.5214 8.69877   2
  -5  -1   3 4.34350 8.22229   2
   5   1  -2 127.934 18.5033   2
   5   1  -1 104.018 18.1021   2
  -5  -1   0 79.0466 17.6603   2
  -5  -1  -1 273.546 30.5139   2
   5   1   2 38.8487 22.7836   2
   5   1   3 30.6511 23.3097   2
   5   1   4 1.69059 20.2491   2
   5   1   5 75.1200 32.5626   2
   5   1   6 177.525 46.6706   2
   5   1   7 138.777 44.8102   2
   5   1   8-0.42513 27.7033   2
   5   1   9-3.80947 31.2264   2
   5   1  10-7.67583 36.5822   2
   5   1  11 15.1642 42.2744   2
   5   1  12 27.5927 37.7476   2
  -5  -2  11 13.6428 9.42497   2
  -5  -2   9 33.3103 17.2035   2
   5   2  -8 6.57679 10.4844   2
   5   2  -7 27.8379 12.2741   2
   5   2  -6 143.092 19.8627   2
  -5  -2   5 209.210 23.5591   2
  -5  -2   4 81.9703 16.6404   2
  -5  -2   3 78.1513 16.6673   2
  -5  -2   2 37.1134 13.6493   2
   5   2  -1 130.505 21.6546   2
  -5  -2   0 11.8001 12.2149   2
  -5  -2  -1 129.921 23.4608   2
  -5  -2  -2 634.500 48.4523   2
   5   2   3 271.169 34.6166   2
  -5  -2  -4 6.56041 15.0299   2
  -5  -2  -5 155.865 30.2519   2
   5   2   6 1.04103 24.5811   2
   5   2   7 164.243 48.7212   2
   5   2   8 145.172 48.8166   2
   5   2   9 7.73452 32.4169   2
   5   2  10 25.8952 39.9289   2
   5   2  12-12.6599 50.4444   2
  -5  -3  11-0.36852 9.54879   2
  -5  -3  10 6.09779 24.7940   2
   5   3  -9 11.7893 16.4070   2
   5   3  -8 33.9386 17.1177   2
   5   3  -7 25.0963 15.5877   2
   5   3  -6 169.237 25.7877   2
   5   3  -5 195.445 27.0382   2
   5   3  -4 36.5798 15.5328   2
  -5  -3   3 420.844 38.2023   2
  -5  -3   2 94.0357 20.9188   2
   5   3  -1 17.4709 14.2163   2
   5   3   0 82.1697 21.0238   2
   5   3   1 6.40576 13.5077   2
   5   3   2 214.213 31.8639   2
   5   3   3 268.437 51.0487   2
  -5  -3  -4 55.4788 21.4172   2
   5   3   7 7.01963 28.2041   2
   5   3   8 29.4969 34.9222   2
   5   3  10 277.226 72.2026   2
   5   4 -10 48.8100 18.5612   2
   5   4  -9-7.50990 21.6922   2
   5   4  -8 43.4558 22.9957   2
   5   4  -7-3.22381 17.2774   2
   5   4  -6 124.338 27.2393   2
   5   4  -5 186.314 30.6191   2
   5   4  -4 44.9518 19.8734   2
   5   4  -3 2.72142 15.1152   2
   5   4  -2 6.95358 15.0831   2
  -5  -4   1 0.43073 14.8109   2
   5   4   0 29.2726 18.1700   2
   5   4   1 15.4793 16.8054   2
   5   4   2 160.731 31.0029   2
   5   4   3 230.906 36.4606   2
  -5  -4  -4 0.05917 17.4555   2
   5   4   5 169.879 34.3238   2
   5   4   6 144.976 33.7849   2
  -5  -4  -7 0.07054 21.2834   2
  -5  -4  -8 87.7860 32.4580   2
   5   4   9 47.3784 44.3808   2
   5   4  10-7.79174 44.0027   2
   5   4  11 58.1241 58.5797   2
   5   5 -10-0.04610 6.81367   2
   5   5  -9-0.04529 5.97608   2
   5   5  -8-8.02662 26.7753   2
   5   5  -7 63.9298 28.2063   2
   5   5  -6 69.1950 28.4133   2
   5   5  -5 0.61072 19.1884   2
   5   5  -4 17.9748 20.1076   2
   5   5  -3 9.79022 18.4774   2
  -5  -5   2 110.093 28.8457   2
   5   5  -1 99.4743 27.7434   2
  -5  -5   0 4.53583 18.3098   2
  -5  -5  -1 4.35294 18.5466   2
   5   5   2 106.179 29.4167   2
   5   5   3 75.9952 27.2215   2
   5   5   4 7.66523 20.3831   2
   5   5   5 26.5092 24.0008   2
   5   5   6 28.1702 25.3263   2
   5   5   7 176.845 40.8476   2
   5   5   8 135.459 39.5883   2
   5   5   9 16.4453 31.5545   2
  -5  -5 -10 64.2081 56.0072   2
   5   6  -9-0.05534 8.70129   2
   5   6  -8-0.05387 7.31016   2
   5   6  -7 25.1059 17.0916   2
   5   6  -6 112.770 37.8247   2
   5   6  -5 69.7847 32.5234   2
   5   6  -4 19.5179 26.1028   2
   5   6  -3 46.7255 27.8387   2
  -5  -6   2 46.3060 27.5035   2
   5   6  -1 379.870 51.2341   2
  -5  -6   0 318.124 47.9059   2
  -5  -6  -1-1.26495 22.6323   2
  -5  -6  -2 123.409 35.0491   2
   5   6   3 35.0206 27.0291   2
   5   6   4 23.7617 26.0543   2
  -5  -6  -5 160.813 40.8433   2
  -5  -6  -6 40.0424 31.6373   2
   5   6   7 4.29153 30.2249   2
   5   6   8 4.62125 48.3318   2
   5   6   9 7.82833 35.3901   2
   5   7  -6-0.06110 8.49458   2
   5   7  -5-0.05980 7.28916   2
   5   7  -4 16.6032 31.7979   2
   5   7  -3 45.0788 36.0388   2
   5   7  -2-0.54530 31.1039   2
  -5  -7   1 15.3081 30.5930   2
   5   7   0 44.5579 33.7286   2
  -5  -7  -1 106.724 39.1743   2
  -5  -7  -2 112.074 40.0851   2
  -5  -7  -3 51.0118 34.8140   2
  -5  -7  -4 0.61326 31.5061   2
   5   7   5 4.11466 33.7158   2
   5   7   6 4.25520 36.6197   2
   6  -7  -3-0.03715 7.64013   2
   6  -7  -2-0.04176 7.98681   2
   6  -7  -1-0.04585 8.71812   2
   6  -7   0-0.04989 8.67806   2
   6  -7   1-0.05403 9.96813   2
   6  -7   2-0.05825 11.1200   2
   6  -7   3-0.06273 11.9968   2
   6  -6  -4 12.3363 25.4196   2
   6  -6  -3 13.2898 27.5378   2
   6  -6  -2 14.0903 31.5023   2
   6  -6  -1-4.14841 32.2345   2
   6  -6   0 65.7367 41.5481   2
   6  -6   1 53.4661 42.7818   2
   6  -6   2 22.7170 41.0371   2
   6  -6   3-4.53842 43.2520   2
   6  -6   4-19.5369 48.4823   2
   6  -6   5-0.06446 10.7929   2
   6  -5  -5 8.61498 8.87380   2
   6  -5  -4 68.1447 17.7639   2
   6  -5  -3 105.989 31.1772   2
   6  -5  -2 2.49581 22.2964   2
   6  -5  -1 56.7476 31.6579   2
   6  -5   0 43.4096 31.4305   2
   6  -5   1 11.7043 28.1456   2
   6  -5   2 72.8710 40.5390   2
   6  -5   3-0.34364 34.2499   2
   6  -5   4 25.5782 40.8750   2
   6  -5   5 16.0945 44.9424   2
   6  -5   6 7.88990 50.2594   2
   6  -5   7 2.52780 29.6224   2
   6  -4  -4 63.6620 13.2554   2
   6  -4  -3 241.459 37.2415   2
   6  -4  -2 82.1732 20.0471   2
   6  -4   0-1.69767 22.2449   2
   6  -4   1 11.5815 25.6077   2
   6  -4   2 23.9943 28.7998   2
   6  -4   3 145.922 47.5491   2
   6  -4   4 255.312 62.5927   2
   6  -4   5 97.3676 48.6222   2
   6  -4   6-10.5920 40.6687   2
   6  -4   7 38.7858 34.7546   2
   6  -4   8 31.4032 40.3991   2
   6  -3  -4 42.7587 11.8782   2
   6  -3  -3 170.832 20.0140   2
   6  -3  -2 18.6447 12.5679   2
   6  -3  -1 90.6662 20.1434   2
   6  -3   0 61.3606 19.5850   2
   6  -3   1 1.25973 14.5076   2
   6  -3   2 192.630 32.7278   2
   6  -3   3 171.368 33.5551   2
   6  -3   4-2.59219 19.7143   2
   6  -3   5 91.1771 47.2524   2
   6  -3   6 146.891 51.9553   2
   6  -3   7 2.25636 27.4137   2
   6  -3   8 7.00423 43.7452   2
   6  -3   9-7.50113 52.0859   2
   6  -2  -4 38.2031 7.62336   2
   6  -2  -3 193.595 19.1258   2
   6  -2  -2 109.273 17.9671   2
   6  -2  -1 36.9121 14.5477   2
   6  -2   0 4.53150 12.4430   2
   6  -2   1 33.3167 16.9287   2
   6  -2   2 226.165 32.7514   2
   6  -2   3 73.3375 23.6168   2
   6  -2   4 26.1981 19.9207   2
   6  -2   5 47.1773 24.3097   2
   6  -2   6 46.7796 26.0263   2
   6  -2   7 37.0884 27.0257   2
   6  -2   8 9.00526 27.3657   2
   6  -2   9 51.9031 35.9403   2
   6  -2  10 5.34584 38.9533   2
   6  -1  -4 56.6763 10.3568   2
   6  -1  -3 28.0551 13.7097   2
   6  -1  -2 134.326 26.9796   2
   6  -1  -1 394.908 47.4165   2
   6  -1   0 176.816 25.2208   2
   6  -1   1 66.7344 18.8076   2
   6  -1   2 33.8918 17.0914   2
   6  -1   3 19.9947 17.0559   2
   6  -1   4-0.94360 16.4471   2
   6  -1   5 8.80385 18.6545   2
   6  -1   6 2.87373 20.2185   2
   6  -1   7 10.9211 22.9759   2
   6  -1   8-0.16829 25.1964   2
   6  -1   9 15.7660 28.8945   2
   6  -1  10 42.4303 36.1666   2
   6   0  -4 78.6866 16.4048   2
   6   0  -3 20.7253 14.0426   2
   6   0  -2 10.0194 14.1653   2
   6   0  -1 83.8184 25.4594   2
   6   0   0 27.1763 20.2105   2
   6   0   1 292.222 47.7045   2
   6   0   2 781.624 79.4486   2
   6   0   3 180.741 43.8253   2
   6   0   4 10.6558 24.6885   2
   6   0   7 380.765 72.8154   2
   6   0   8 297.410 69.6827   2
   6   0  10 15.5602 33.3305   2
   6   1  -6 101.143 16.1009   2
   6   1  -5 193.110 26.0895   2
   6   1  -4-3.05955 12.1599   2
   6   1  -3 97.9938 24.4630   2
   6   1  -2-1.04690 14.5027   2
   6   1  -1 60.2158 24.2259   2
   6   1   0 111.673 30.9815   2
   6   1   1 6.32509 19.7911   2
   6   1   2 56.3205 28.9589   2
   6   1   3 72.3707 32.4207   2
   6   1   4-2.29419 23.4451   2
   6   1   5 16.3119 27.7344   2
   6   1   6-0.84554 28.2045   2
   6   1   7 0.81826 31.7095   2
   6   1   8 5.54693 35.1255   2
   6   1   9 58.2411 47.6336   2
   6   1  10 132.132 63.8298   2
   6   1  11 79.1805 45.7669   2
   6   2  -8-0.24618 8.52674   2
   6   2  -7 14.0640 11.2059   2
   6   2  -6 152.803 21.0804   2
  -6  -2   5 15.1286 12.3681   2
   6   2  -4 14.1364 12.4262   2
  -6  -2   3-0.93625 11.6303   2
  -6  -2   2 63.5422 18.4273   2
   6   2  -1 167.767 26.5072   2
   6   2   0 86.5716 21.7721   2
   6   2   1 6.34437 14.4666   2
  -6  -2  -2 22.4048 17.1147   2
   6   2   3 119.996 27.8111   2
   6   2   4 89.3087 37.4309   2
   6   2   5 1.57381 27.2100   2
   6   2   6 3.91284 29.7244   2
   6   2   7 13.5353 33.1148   2
   6   2   8 5.33839 36.7634   2
   6   2   9 2.54657 40.1085   2
   6   2  11-13.8098 56.1183   2
   6   3  -9 240.948 30.0105   2
   6   3  -8 55.4860 20.3768   2
   6   3  -7 102.498 22.9161   2
   6   3  -6 140.416 25.2670   2
  -6  -3   5 4.59161 14.4625   2
  -6  -3   4 102.614 23.1628   2
  -6  -3   3 103.092 23.3607   2
  -6  -3   2-0.81692 14.5074   2
   6   3  -1 91.3281 23.4215   2
   6   3   0 33.7005 18.3804   2
  -6  -3  -1 61.7298 22.1424   2
  -6  -3  -2 24.1613 18.9864   2
   6   3   3-0.10660 17.4195   2
  -6  -3  -4 62.2120 25.2195   2
  -6  -3  -5-2.99660 20.3923   2
   6   3   6 178.864 54.2390   2
   6   3   7 370.294 74.9780   2
   6   3   9 16.9836 45.1953   2
   6   4  -9-0.03381 5.12585   2
  -6  -4   8 9.00025 23.7127   2
  -6  -4   7 47.0305 24.6605   2
  -6  -4   6 161.497 31.6453   2
  -6  -4   5 54.1279 23.3606   2
  -6  -4   4 5.64887 17.4542   2
  -6  -4   3 7.70612 17.3303   2
  -6  -4   2 59.5846 22.9506   2
  -6  -4   1 669.976 57.5179   2
   6   4   0 489.813 50.7444   2
   6   4   1 1.37767 18.2271   2
   6   4   2 102.080 29.1236   2
   6   4   3 16.6329 21.1650   2
   6   4   4 123.201 32.7848   2
   6   4   5 379.220 51.6769   2
   6   4   6 129.036 36.7244   2
  -6  -4  -7 0.72898 26.3220   2
   6   4   8 7.24923 41.7279   2
   6   4   9 18.5396 47.4290   2
   6   4  10 10.5043 54.2034   2
  -6  -5   8-0.04462 6.41857   2
  -6  -5   7-6.76940 17.0892   2
  -6  -5   6 12.5677 27.1695   2
  -6  -5   5-4.58238 23.3434   2
  -6  -5   4 69.5017 29.1850   2
  -6  -5   3 83.8004 29.6827   2
  -6  -5   2 2.70803 21.5950   2
  -6  -5   1 36.9898 25.1943   2
  -6  -5   0 1.95114 21.5831   2
  -6  -5  -1 2.91561 21.7956   2
  -6  -5  -2 13.3162 23.1267   2
   6   5   3 46.3089 28.2808   2
  -6  -5  -4 29.5188 27.3903   2
   6   5   5 8.96208 26.7319   2
  -6  -5  -6-0.12368 28.1965   2
   6   5   7 75.2412 37.9084   2
  -6  -5  -8 179.900 49.5389   2
  -6  -6   7-0.05425 8.42152   2
  -6  -6   6-0.05352 7.41087   2
  -6  -6   5 7.30390 9.90584   2
  -6  -6   4 161.392 42.9052   2
  -6  -6   3 37.4518 31.7957   2
  -6  -6   2 1.59949 27.9251   2
  -6  -6   1 0.25186 27.5384   2
  -6  -6   0 19.7901 28.9374   2
  -6  -6  -1 56.3307 32.7544   2
  -6  -6  -2 81.3247 35.6786   2
  -6  -6  -3 71.4570 36.4642   2
   6   6   4 77.3451 37.4938   2
   6   6   5 57.4195 37.6351   2
   6   6   6 28.2581 38.1089   2
  -6  -7   3-0.06227 8.10372   2
  -6  -7   2-0.06239 7.53223   2
  -6  -7   1 0.02338 7.70072   2
  -6  -7   0 4.34003 25.7364   2
  -6  -7  -1 29.8082 33.5934   2
  -6  -7  -2 63.2787 36.7207   2
   7  -7   1-0.05636 14.1294   2
   7  -6  -2-0.03701 5.38797   2
   7  -6   0-0.04498 8.18331   2
   7  -6   1-0.04975 9.11184   2
   7  -6   2-0.05466 10.2666   2
   7  -6   3-0.05933 11.1462   2
   7  -5  -4 3.65223 13.0365   2
   7  -5  -3 11.8341 18.8284   2
   7  -5  -2 22.3013 21.7982   2
   7  -5  -1 8.47762 23.1173   2
   7  -5   0-12.3009 24.6655   2
   7  -5   1-1.89839 26.4913   2
   7  -5   2 24.4494 30.3426   2
   7  -5   3 17.4485 32.9639   2
   7  -5   4 9.25012 24.7214   2
   7  -5   5-0.06491 8.01069   2
   7  -4  -4 1.75586 11.4487   2
   7  -4  -3 3.43523 19.6724   2
   7  -4  -2 3.57559 15.9660   2
   7  -4  -1-3.72691 17.3461   2
   7  -4   0 16.6531 19.9255   2
   7  -4   1 117.606 31.9767   2
   7  -4   2 106.563 33.5242   2
   7  -4   3 17.9079 26.5358   2
   7  -4   4 20.2261 29.0505   2
   7  -4   5-2.55131 32.2268   2
   7  -4   6 26.3302 37.4762   2
   7  -3  -4 23.4803 7.70072   2
   7  -3  -3 12.6860 11.7956   2
   7  -3  -2 90.2793 20.2629   2
   7  -3  -1 463.567 41.8660   2
   7  -3   0 220.344 33.3717   2
   7  -3   1-4.01741 17.2424   2
   7  -3   2 48.4967 24.7924   2
   7  -3   3 1.17510 21.9442   2
   7  -3   4 7.23971 33.7269   2
   7  -3   5 40.9969 43.8603   2
   7  -3   6 49.8487 48.4390   2
   7  -3   7 18.0881 49.3388   2
   7  -2  -4 2.50041 3.75348   2
   7  -2  -3 6.24062 9.63916   2
   7  -2  -2-1.67993 11.9863   2
   7  -2  -1 20.6382 15.5002   2
   7  -2   0 25.7022 17.6859   2
   7  -2   1 84.1183 23.6763   2
   7  -2   2 214.052 36.0107   2
   7  -2   3 90.7714 28.3793   2
   7  -2   4 26.7267 23.9051   2
   7  -2   5 52.0084 29.9427   2
   7  -2   6 22.8776 28.6279   2
   7  -2   7 138.113 42.6820   2
   7  -2   8 197.719 52.7903   2
   7  -1  -4 53.0621 11.6245   2
   7  -1  -3 10.9808 14.4446   2
   7  -1  -2 14.7688 17.9810   2
   7  -1  -1 64.2593 26.7610   2
   7  -1   0 4.63258 14.1045   2
   7  -1   1 11.2478 16.1911   2
   7  -1   2-11.5882 17.1445   2
   7  -1   3 16.8249 20.6805   2
   7  -1   4 108.369 30.6994   2
   7  -1   5 30.9639 25.4755   2
   7  -1   6 18.9260 27.2353   2
   7  -1   7 11.5621 28.6857   2
   7  -1   8 14.2420 32.7411   2
   7  -1   9 45.0393 41.5867   2
   7   0  -4 102.728 14.4175   2
   7   0  -3-3.48558 10.1993   2
   7   0  -2 178.086 34.3466   2
   7   0  -1 290.250 45.7985   2
   7   0   0 19.8795 22.1318   2
   7   0   1-1.27342 21.6048   2
   7   0   2 36.3756 30.0901   2
   7   0   3 50.1078 33.9107   2
   7   0   4 197.290 53.9361   2
   7   0   5 69.7890 41.3225   2
   7   0   6 9.53164 34.5719   2
   7   0   7 3.08452 38.5767   2
   7   1  -6 31.8190 7.62062   2
   7   1  -5 16.1673 13.7877   2
   7   1  -4 208.668 33.1074   2
   7   1  -3 181.422 34.6599   2
   7   1  -2 10.6407 19.1773   2
   7   1  -1 14.0433 21.7019   2
   7   1   0 37.8185 26.3070   2
   7   1   1 13.0157 23.5432   2
   7   1   2 5.18813 24.4041   2
   7   1   3 49.4602 33.7790   2
   7   1   4 150.841 49.3872   2
   7   1   5 10.2309 31.9857   2
   7   1   6 116.310 50.5313   2
   7   1   7 180.544 62.0695   2
   7   1   8 88.6592 57.5725   2
   7   1   9-19.1279 52.3303   2
   7   2  -7-0.11573 13.2388   2
   7   2  -6 59.7380 22.7240   2
  -7  -2   5 71.0336 18.9223   2
  -7  -2   4 8.64913 14.4889   2
  -7  -2   3 8.99327 14.9256   2
   7   2  -2 8.29740 15.3993   2
   7   2  -1 291.323 36.7509   2
   7   2   0 249.783 35.8870   2
   7   2   1 25.4046 27.6821   2
   7   2   2 23.9834 29.3929   2
   7   2   3 11.7349 28.8159   2
   7   2   4 142.765 49.1260   2
   7   2   5 158.949 54.2193   2
   7   2   6 104.885 51.3992   2
   7   2   7 8.99761 41.1137   2
   7   2   8 17.9987 49.1288   2
   7   2   9 45.5637 58.9260   2
   7   3  -7 2.91635 18.7265   2
  -7  -3   6 23.1340 19.4019   2
  -7  -3   5 72.7439 23.1175   2
  -7  -3   4 139.500 28.2721   2
  -7  -3   3 62.4933 22.9670   2
  -7  -3   2 22.7489 19.3809   2
  -7  -3   1 7.62797 18.0873   2
   7   3   0 105.661 28.4950   2
   7   3   1 222.851 37.9733   2
   7   3   2 15.0703 21.3771   2
   7   3   3 57.1397 27.0845   2
  -7  -3  -4 85.3242 31.9301   2
   7   3   5 20.2261 37.8839   2
   7   3   6 39.0792 43.1902   2
   7   3   7 28.9743 47.8718   2
   7   3   8 38.6033 53.0596   2
   7   4  -7-0.03475 5.15305   2
   7   4  -6-2.96307 23.9084   2
   7   4  -5 127.444 32.3685   2
   7   4  -4 285.416 41.4029   2
  -7  -4   3 38.0427 24.1860   2
  -7  -4   2 33.2032 24.4438   2
   7   4  -1 19.5371 23.1704   2
   7   4   0-0.08605 22.1427   2
   7   4   1 104.085 32.0005   2
   7   4   2 202.934 40.6571   2
   7   4   3 179.549 40.3981   2
   7   4   4 114.098 37.1817   2
   7   4   5 11.3333 29.1059   2
  -7  -4  -6 19.6664 31.8268   2
   7   4   7 18.6344 50.4536   2
   7   5  -6-0.04525 6.15395   2
   7   5  -5-0.04586 5.96700   2
   7   5  -4 60.5500 33.6732   2
   7   5  -3 17.9924 29.8283   2
   7   5  -2-11.2342 26.7461   2
  -7  -5   1 4.13588 27.6164   2
  -7  -5   0 7.16922 27.8289   2
   7   5   1 101.843 36.7791   2
   7   5   2 128.188 39.5350   2
   7   5   3 7.16816 29.7745   2
   7   5   4 40.7448 34.9971   2
   7   5   5-1.82120 33.7906   2
   7   5   6 4.25161 37.7457   2
   7   6  -5-0.05549 8.83657   2
   7   6  -4-0.05580 8.14311   2
   7   6  -3-0.05641 7.33042   2
   7   6  -2-0.05742 7.02141   2
   7   6  -1-0.05838 6.92465   2
  -7  -6   0-1.94631 23.1109   2
  -7  -6  -1 92.6443 37.2187   2
  -7  -6  -2 37.0627 30.1014   2
   7   6   3 3.59682 16.3532   2
   8  -5   0-0.04374 6.42847   2
   8  -5   1-0.04875 6.86950   2
   8  -5   2-0.05415 8.12365   2
   8  -5   3-0.05947 8.76252   2
   8  -4  -1-4.57234 23.2640   2
   8  -4   0 42.1282 28.9704   2
   8  -4   1 43.8592 29.9249   2
   8  -4   2-1.55045 16.4094   2
   8  -4   3-0.05478 6.58554   2
   8  -4   4-0.05972 7.77211   2
   8  -3  -3 42.0294 15.1432   2
   8  -3  -2 12.0817 17.8866   2
   8  -3  -1 13.4805 20.3579   2
   8  -3   0 14.4935 22.2235   2
   8  -3   1 10.2793 24.5910   2
   8  -3   2 33.7913 30.8572   2
   8  -3   3 187.093 42.8244   2
   8  -3   4 110.362 40.0735   2
   8  -3   5 6.73606 12.2123   2
   8  -3   6-0.06642 8.40477   2
   8  -2  -3 7.45311 11.4587   2
   8  -2  -2 69.1327 20.6706   2
   8  -2  -1 56.6761 22.8429   2
   8  -2   0 5.03044 20.0601   2
   8  -2   1 44.9740 25.6152   2
   8  -2   2 7.41669 23.5681   2
   8  -2   3 4.66144 25.2037   2
   8  -2   4 101.398 38.1405   2
   8  -2   5 51.5108 36.9640   2
   8  -2   6-7.22550 30.5463   2
   8  -1  -4 50.7734 9.65863   2
   8  -1  -3 12.6612 18.0189   2
   8  -1  -2 1.97321 21.1269   2
   8  -1  -1-0.68092 23.9185   2
   8  -1   0 5.20170 18.5592   2
   8  -1   1 58.9667 26.4178   2
   8  -1   2 13.6337 23.0591   2
   8  -1   3 31.0086 27.6955   2
   8  -1   4 44.4436 30.6690   2
   8  -1   5 31.2780 31.6568   2
   8  -1   6-7.33103 33.6392   2
   8  -1   7 6.99837 24.9144   2
   8   0  -4 23.4866 11.1165   2
   8   0  -3 4.30008 13.3031   2
   8   0  -2 30.8013 17.4580   2
   8   0  -1 0.24490 16.8390   2
   8   0   0 68.9473 24.7169   2
   8   0   1 32.7935 33.7003   2
   8   0   2 13.9603 32.2476   2
   8   0   3 31.2640 36.7822   2
   8   0   4 33.5891 29.7085   2
   8   0   5-2.38007 29.0146   2
   8   0   6 21.2423 34.9139   2
   8   0   7 32.4009 55.9154   2
   8   1  -5 92.0388 20.3854   2
   8   1  -4 94.6158 28.3590   2
   8   1  -3 1.63435 22.0830   2
   8   1  -2 18.3793 24.8921   2
   8   1  -1 5.71733 25.3328   2
   8   1   0 231.969 51.7954   2
   8   1   1 511.419 75.2410   2
   8   1   2 34.2408 36.5966   2
   8   1   3 30.7763 37.4698   2
   8   1   4 63.9301 46.5730   2
   8   1   5-7.88561 41.9951   2
   8   1   6 150.338 65.2076   2
   8   1   7 74.1008 61.3225   2
   8   2  -5 61.9435 28.9548   2
   8   2  -4 88.4930 32.5004   2
   8   2  -3-2.14332 25.6604   2
   8   2  -2 83.1046 36.7291   2
   8   2  -1 56.0948 35.1656   2
   8   2   0 6.12137 30.0119   2
   8   2   1 29.7402 33.6491   2
   8   2   2 93.6368 44.8199   2
   8   2   3 77.1969 46.4726   2
   8   2   4 33.6211 43.9172   2
   8   2   5 17.2528 43.2507   2
   8   2   6-6.59352 46.8793   2
   8   2   7-3.75717 43.8634   2
   8   3  -5-0.03111 4.52794   2
  -8  -3   4 59.8555 26.9920   2
  -8  -3   3 125.676 32.3837   2
  -8  -3   2 39.4048 26.1390   2
  -8  -3   1 4.31478 24.3659   2
   8   3   0 6.69798 25.4324   2
   8   3   1 27.7135 27.0662   2
   8   3   2 72.3827 45.8795   2
   8   3   3 52.9583 45.2643   2
   8   3   4 28.0508 45.0396   2
   8   3   5-16.2036 46.7617   2
   8   3   6 73.7860 56.3735   2
   8   4  -5-0.03965 5.37715   2
  -8  -4   4-0.04186 5.54912   2
  -8  -4   3-0.33046 6.19897   2
  -8  -4   2-7.69088 28.3862   2
  -8  -4   1-1.91217 29.0215   2
   8   4   0 62.9864 33.8580   2
   8   4   1 82.6561 37.1905   2
  -8  -4  -2 3.54526 31.5588   2
   8   4   3 30.9001 35.1295   2
   8   4   4 28.9894 35.3017   2
   8   4   5-0.06461 10.5387   2
  -8  -5   4-0.05034 7.92977   2
  -8  -5   3-0.05192 7.70323   2
  -8  -5   2-0.05366 7.53572   2
  -8  -5   1-0.05563 7.28930   2
   8   5   0-0.05753 7.11462   2
  -8  -5  -1-0.05962 7.27996   2
   8   5   2-0.06224 7.75567   2
   9  -3   0-0.04048 6.24657   2
   9  -3   1-0.04694 7.10008   2
   9  -3   2-0.05147 7.63190   2
   9  -3   3-0.05696 8.60104   2
   9  -2  -1-0.03222 4.82935   2
   9  -2   0-0.03944 5.44734   2
   9  -2   1-0.04503 6.05851   2
   9  -2   2-0.05050 6.94479   2
   9  -2   3-0.05602 7.38438   2
   9  -2   4-0.06079 8.76178   2
   9  -1  -2-0.02569 5.59065   2
   9  -1  -1-3.35329 14.6354   2
   9  -1   0 91.8939 27.6250   2
   9  -1   1 143.344 33.3593   2
   9  -1   2 4.87588 10.6757   2
   9  -1   3-0.05458 6.66124   2
   9  -1   4-0.05951 7.39249   2
   9  -1   5-0.06468 8.91846   2
   9   0  -2 42.3944 16.9689   2
   9   0  -1 6.90690 22.3404   2
   9   0   0 2.09121 24.9329   2
   9   0   1-19.3210 27.9044   2
   9   0   2 2.89932 26.8996   2
   9   0   3-4.35025 10.9874   2
   9   0   4-0.05981 7.25960   2
   9   0   5-0.06438 8.42288   2
   9   1  -3-0.02621 4.14508   2
   9   1  -2 0.61071 7.73582   2
   9   1  -1 0.85273 27.0329   2
   9   1   0 4.41369 34.8528   2
   9   1   1 13.0657 37.2320   2
   9   1   2 22.2624 34.8262   2
   9   1   3 0.43719 11.5704   2
   9   1   4-0.05917 10.6511   2
   9   1   5-0.06410 11.9904   2
   9   2  -2-0.03676 7.42559   2
   9   2  -1-0.04102 7.58652   2
   9   2   0-0.04500 8.33895   2
   9   2   1-0.04898 8.59169   2
   9   2   2-0.05295 8.98049   2
   9   2   3-0.05690 10.3272   2
   9   2   4-0.06113 10.7887   2
   9   3  -2-0.04209 8.84799   2
   9   3  -1-0.04593 8.96318   2
   9   3   0-0.04951 9.83127   2
   9   3   1-0.05299 9.62556   2
   9   3   2-0.05666 10.5897   2
   9   3   3-0.06038 11.1432   2
  -9  -4   1-0.05389 8.62277   2
   9   4   0-0.05493 12.2018   2
   9   4   1-0.05827 12.0741   2
;
_shelx_hkl_checksum              28473
_olex2_submission_special_instructions 'No special instructions were received'
loop_
_space_group_symop_operation_xyz
'x, y, z'
'-x, -y, -z'
loop_
_atom_site_label
_atom_site_type_symbol
_atom_site_fract_x
_atom_site_fract_y
_atom_site_fract_z
_atom_site_U_iso_or_equiv
_atom_site_adp_type
_atom_site_occupancy
_atom_site_site_symmetry_order
_atom_site_calc_flag
_atom_site_refinement_flags_posn
Cl1 Cl 0.12097(14) 0.14330(14) 0.84566(10) 0.0183(3) Uani 1 1 d .
S1 S 0.41184(14) 0.76044(14) 1.01796(9) 0.0133(3) Uani 1 1 d .
S2 S 0.67528(15) 0.83665(16) 0.78823(11) 0.0215(3) Uani 1 1 d .
P1 P -0.04384(15) 0.41973(15) 0.84197(9) 0.0124(3) Uani 1 1 d .
N1 N 0.3154(5) 0.6367(5) 0.8127(3) 0.0122(7) Uani 1 1 d .
C1 C 0.1596(5) 0.5715(5) 0.8968(3) 0.0107(8) Uani 1 1 d .
C2 C 0.1873(5) 0.6271(6) 1.0121(4) 0.0124(8) Uani 1 1 d .
C3 C 0.4660(6) 0.7391(6) 0.8627(4) 0.0155(8) Uani 1 1 d .
C4 C 0.3185(6) 0.6016(6) 0.6803(4) 0.0163(8) Uani 1 1 d .
H4A H 0.2573 0.4685 0.6712 0.020 Uiso 1 1 calc R
H4B H 0.4621 0.5968 0.6493 0.020 Uiso 1 1 calc R
C5 C 0.2006(7) 0.7679(6) 0.6019(4) 0.0229(10) Uani 1 1 d .
H5A H 0.0556 0.7694 0.6306 0.027 Uiso 1 1 calc R
H5B H 0.2584 0.9017 0.6133 0.027 Uiso 1 1 calc R
C6 C 0.2118(8) 0.7339(8) 0.4644(4) 0.0364(12) Uani 1 1 d .
H6A H 0.1252 0.8358 0.4172 0.055 Uiso 1 1 calc GR
H6B H 0.1636 0.5976 0.4538 0.055 Uiso 1 1 calc GR
H6C H 0.3537 0.7465 0.4337 0.055 Uiso 1 1 calc GR
loop_
_atom_site_aniso_label
_atom_site_aniso_U_11
_atom_site_aniso_U_22
_atom_site_aniso_U_33
_atom_site_aniso_U_23
_atom_site_aniso_U_13
_atom_site_aniso_U_12
Cl1 0.0160(5) 0.0136(5) 0.0263(6) -0.0065(4) -0.0024(4) 0.0027(4)
S1 0.0106(5) 0.0122(5) 0.0176(5) -0.0026(4) -0.0027(4) -0.0014(3)
S2 0.0165(5) 0.0195(5) 0.0282(6) -0.0015(4) 0.0054(5) -0.0049(4)
P1 0.0111(5) 0.0139(5) 0.0128(5) -0.0036(4) -0.0027(4) 0.0004(4)
N1 0.0139(16) 0.0098(15) 0.0122(17) 0.0016(13) -0.0005(13) 0.0011(12)
C1 0.0107(17) 0.0082(17) 0.0125(19) 0.0027(14) 0.0006(15) 0.0013(13)
C2 0.0089(17) 0.0123(18) 0.0164(19) -0.0023(15) -0.0035(15) 0.0012(14)
C3 0.0169(19) 0.0100(18) 0.020(2) -0.0012(16) -0.0042(17) 0.0053(15)
C4 0.021(2) 0.016(2) 0.013(2) -0.0042(16) 0.0011(17) -0.0012(16)
C5 0.031(2) 0.020(2) 0.017(2) 0.0029(17) -0.0005(19) 0.0023(18)
C6 0.054(3) 0.037(3) 0.017(2) 0.004(2) -0.003(2) 0.005(2)
loop_
_atom_type_symbol
_atom_type_description
_atom_type_scat_dispersion_real
_atom_type_scat_dispersion_imag
_atom_type_scat_source
C C 0.0033 0.0016 'International Tables Vol C Tables 4.2.6.8 and 6.1.1.4'
H H 0.0000 0.0000 'International Tables Vol C Tables 4.2.6.8 and 6.1.1.4'
Cl Cl 0.1484 0.1585 'International Tables Vol C Tables 4.2.6.8 and 6.1.1.4'
N N 0.0061 0.0033 'International Tables Vol C Tables 4.2.6.8 and 6.1.1.4'
P P 0.1023 0.0942 'International Tables Vol C Tables 4.2.6.8 and 6.1.1.4'
S S 0.1246 0.1234 'International Tables Vol C Tables 4.2.6.8 and 6.1.1.4'
loop_
_geom_angle_atom_site_label_1
_geom_angle_atom_site_label_2
_geom_angle_atom_site_label_3
_geom_angle
_geom_angle_site_symmetry_1
_geom_angle_site_symmetry_3
C3 S1 C2 91.63(19) . .
C1 P1 Cl1 97.47(12) . .
C2 P1 Cl1 99.08(13) 2_567 .
C2 P1 C1 98.32(17) 2_567 .
C1 N1 C4 123.7(3) . .
C3 N1 C1 114.4(3) . .
C3 N1 C4 121.9(3) . .
N1 C1 P1 118.3(3) . .
C2 C1 P1 128.9(3) . .
C2 C1 N1 112.8(4) . .
S1 C2 P1 116.1(2) . 2_567
C1 C2 S1 111.0(3) . .
C1 C2 P1 132.8(3) . 2_567
S2 C3 S1 123.2(3) . .
N1 C3 S1 110.1(3) . .
N1 C3 S2 126.7(3) . .
N1 C4 H4A 109.3 . .
N1 C4 H4B 109.3 . .
N1 C4 C5 111.7(3) . .
H4A C4 H4B 107.9 . .
C5 C4 H4A 109.3 . .
C5 C4 H4B 109.3 . .
C4 C5 H5A 109.4 . .
C4 C5 H5B 109.4 . .
H5A C5 H5B 108.0 . .
C6 C5 C4 111.2(3) . .
C6 C5 H5A 109.4 . .
C6 C5 H5B 109.4 . .
C5 C6 H6A 109.5 . .
C5 C6 H6B 109.5 . .
C5 C6 H6C 109.5 . .
H6A C6 H6B 109.5 . .
H6A C6 H6C 109.5 . .
H6B C6 H6C 109.5 . .
loop_
_geom_bond_atom_site_label_1
_geom_bond_atom_site_label_2
_geom_bond_distance
_geom_bond_site_symmetry_2
Cl1 P1 2.0973(13) .
S1 C2 1.735(4) .
S1 C3 1.723(4) .
S2 C3 1.679(4) .
P1 C1 1.828(4) .
P1 C2 1.817(4) 2_567
N1 C1 1.394(4) .
N1 C3 1.359(5) .
N1 C4 1.470(5) .
C1 C2 1.350(5) .
C2 P1 1.817(4) 2_567
C4 H4A 0.9900 .
C4 H4B 0.9900 .
C4 C5 1.524(6) .
C5 H5A 0.9900 .
C5 H5B 0.9900 .
C5 C6 1.523(6) .
C6 H6A 0.9800 .
C6 H6B 0.9800 .
C6 H6C 0.9800 .
loop_
_diffrn_oxdiff_twin_id
_diffrn_oxdiff_twin_ratio
_diffrn_oxdiff_twin_reflns_isolated
_diffrn_oxdiff_twin_reflns_overlapped
1 0.8873 3465 1002
2 0.1127 3444 1002
loop_
_twin_individual_id
_twin_individual_mass_fraction_refined
1 0.9038(7)
2 0.0962(7)
