#------------------------------------------------------------------------------
#$Date: 2019-11-17 07:07:30 +0200 (Sun, 17 Nov 2019) $
#$Revision: 228576 $
#$URL: file:///home/coder/svn-repositories/cod/cif/7/12/25/7122593.cif $
#------------------------------------------------------------------------------
#
# This file is available in the Crystallography Open Database (COD),
# http://www.crystallography.net/
#
# All data on this site have been placed in the public domain by the
# contributors.
#
data_7122593
loop_
_publ_author_name
'Begum, Imtiaz'
'Schnakenburg, Gregor'
'Kelemen, Zsolt'
'Nyul\'aszi, L\'aszl\'o'
'Boer\'e, Ren\'e T'
'Streubel, Rainer'
_publ_section_title
;
 Expanding the chemistry of ring-fused 1,4-diphosphinines by stable mono
 anion formation.
;
_journal_issue                   96
_journal_name_full
'Chemical communications (Cambridge, England)'
_journal_page_first              13555
_journal_page_last               13558
_journal_paper_doi               10.1039/c8cc08158a
_journal_volume                  54
_journal_year                    2018
_chemical_formula_moiety         'C12 H14 N2 P2 S4'
_chemical_formula_sum            'C12 H14 N2 P2 S4'
_chemical_formula_weight         376.43
_chemical_name_systematic        IB-266
_space_group_crystal_system      triclinic
_space_group_IT_number           2
_space_group_name_Hall           '-P 1'
_space_group_name_H-M_alt        'P -1'
_symmetry_space_group_name_Hall  '-P 1'
_symmetry_space_group_name_H-M   'P -1'
_atom_sites_solution_hydrogens   geom
_atom_sites_solution_primary     dual
_audit_creation_date             2017-05-17
_audit_creation_method
;
Olex2 1.2
(compiled 2017.01.04 svn.r3372 for OlexSys, GUI svn.r5292)
;
_audit_update_record
;
2018-09-07 deposited with the CCDC.
2018-11-12 downloaded from the CCDC.
;
_cell_angle_alpha                91.108(3)
_cell_angle_beta                 99.021(3)
_cell_angle_gamma                104.050(3)
_cell_formula_units_Z            1
_cell_length_a                   4.6979(3)
_cell_length_b                   7.2032(4)
_cell_length_c                   12.1580(7)
_cell_measurement_reflns_used    6150
_cell_measurement_temperature    100
_cell_measurement_theta_max      30.00
_cell_measurement_theta_min      2.92
_cell_volume                     393.47(4)
_computing_cell_refinement       'SAINT v8.34A (Bruker, 2013)'
_computing_data_reduction        'SAINT v8.34A (Bruker, 2013)'
_computing_molecular_graphics    'Olex2 (Dolomanov et al., 2009)'
_computing_publication_material  'Olex2 (Dolomanov et al., 2009)'
_computing_structure_refinement  'XL (Sheldrick, 2008)'
_computing_structure_solution    'XT (Sheldrick, 2015)'
_diffrn_ambient_temperature      100
_diffrn_detector_area_resol_mean 8
_diffrn_measured_fraction_theta_full 0.996
_diffrn_measured_fraction_theta_max 0.997
_diffrn_measurement_device_type  'Bruker X8-KappaApexII'
_diffrn_measurement_method       'fine slicing \w and \f scans'
_diffrn_radiation_monochromator  graphite
_diffrn_radiation_type           MoK\a
_diffrn_radiation_wavelength     0.71073
_diffrn_reflns_av_R_equivalents  0.0416
_diffrn_reflns_av_unetI/netI     0.0273
_diffrn_reflns_Laue_measured_fraction_full 0.996
_diffrn_reflns_Laue_measured_fraction_max 0.997
_diffrn_reflns_limit_h_max       6
_diffrn_reflns_limit_h_min       -6
_diffrn_reflns_limit_k_max       9
_diffrn_reflns_limit_k_min       -9
_diffrn_reflns_limit_l_max       16
_diffrn_reflns_limit_l_min       -16
_diffrn_reflns_number            9986
_diffrn_reflns_point_group_measured_fraction_full 0.996
_diffrn_reflns_point_group_measured_fraction_max 0.997
_diffrn_reflns_theta_full        25.242
_diffrn_reflns_theta_max         27.994
_diffrn_reflns_theta_min         3.290
_diffrn_source                   'sealed tube'
_diffrn_standards_number         0
_exptl_absorpt_coefficient_mu    0.796
_exptl_absorpt_correction_T_max  0.7460
_exptl_absorpt_correction_T_min  0.6171
_exptl_absorpt_correction_type   empirical
_exptl_absorpt_process_details
'SADABS-2014/5 (Bruker,2014/5) was used for absorption correction. wR2(int) was 0.1055 before and 0.0556 after correction. The Ratio of minimum to maximum transmission is 0.8272. The \l/2 correction factor is 0.00150.'
_exptl_crystal_colour            'clear red'
_exptl_crystal_colour_lustre     clear
_exptl_crystal_colour_primary    red
_exptl_crystal_density_diffrn    1.589
_exptl_crystal_description       plate
_exptl_crystal_F_000             194
_exptl_crystal_size_max          0.36
_exptl_crystal_size_mid          0.18
_exptl_crystal_size_min          0.03
_refine_diff_density_max         0.456
_refine_diff_density_min         -0.271
_refine_diff_density_rms         0.063
_refine_ls_extinction_method     none
_refine_ls_goodness_of_fit_ref   1.109
_refine_ls_hydrogen_treatment    constr
_refine_ls_matrix_type           full
_refine_ls_number_parameters     92
_refine_ls_number_reflns         1893
_refine_ls_number_restraints     0
_refine_ls_restrained_S_all      1.109
_refine_ls_R_factor_all          0.0281
_refine_ls_R_factor_gt           0.0263
_refine_ls_shift/su_max          0.002
_refine_ls_shift/su_mean         0.000
_refine_ls_structure_factor_coef Fsqd
_refine_ls_weighting_details
'w=1/[\s^2^(Fo^2^)+(0.0196P)^2^+0.2844P] where P=(Fo^2^+2Fc^2^)/3'
_refine_ls_weighting_scheme      calc
_refine_ls_wR_factor_gt          0.0621
_refine_ls_wR_factor_ref         0.0630
_reflns_Friedel_coverage         0.000
_reflns_number_gt                1815
_reflns_number_total             1893
_reflns_threshold_expression     'I > 2\s(I)'
_cod_data_source_file            c8cc08158a2.cif
_cod_data_source_block           5184f
_cod_depositor_comments
'Adding full bibliography for 7122593--7122597.cif.'
_cod_database_code               7122593
_shelx_shelxl_version_number     2014/7
_shelx_space_group_comment
;
The symmetry employed for this shelxl refinement is uniquely defined
by the following loop, which should always be used as a source of
symmetry information in preference to the above space-group names.
They are only intended as comments.
;
_shelx_estimated_absorpt_t_max   0.976
_shelx_estimated_absorpt_t_min   0.762
_olex2_refinement_description
;
1. Fixed Uiso
 At 1.2 times of:
  All C(H,H) groups
 At 1.5 times of:
  All C(H,H,H) groups
2.a Secondary CH2 refined with riding coordinates:
 C4(H4A,H4B), C5(H5A,H5B)
2.b Idealised Me refined as rotating group:
 C6(H6A,H6B,H6C)
;
_shelx_res_file
;
    5184f.res created by SHELXL-2014/7

TITL 5184f_a.res in P-1
REM Old TITL 5184f in P-1 #2
REM SHELXT solution in P-1
REM R1 0.078, Rweak 0.007, Alpha 0.032, Orientation as input
REM Formula found by SHELXT: C7 S2 Cl
CELL 0.71073 4.6979 7.2032 12.158 91.108 99.021 104.05
ZERR 1 0.0003 0.0004 0.0007 0.003 0.003 0.003
LATT 1
SFAC C H N P S
UNIT 12 14 2 2 4

L.S. 4
PLAN  5
SIZE 0.03 0.18 0.36
TEMP -173.15
BOND $H
list 4
fmap 2
ACTA
OMIT -2 56
OMIT -1 1 2
OMIT -1 0 3
OMIT 0 0 1
REM <olex2.extras>
REM <HklSrc "%.\\5184f.hkl">
REM </olex2.extras>

WGHT    0.019600    0.284400
FVAR       1.25638
S1    5    0.465216    0.883689    0.620179    11.00000    0.01308    0.00854 =
         0.01127    0.00151    0.00012    0.00107
S2    5    0.923089    0.835826    0.809586    11.00000    0.01339    0.01678 =
         0.01349   -0.00046   -0.00240    0.00046
P     4   -0.059725    0.721238    0.441317    11.00000    0.01164    0.00829 =
         0.01032    0.00215    0.00041    0.00270
N     3    0.494564    0.555344    0.686073    11.00000    0.01064    0.01112 =
         0.00893    0.00150    0.00083    0.00276
C1    1    0.202890    0.684286    0.550846    11.00000    0.00974    0.01013 =
         0.00954    0.00069    0.00173    0.00135
C2    1    0.635940    0.744566    0.711160    11.00000    0.01055    0.01344 =
         0.00965    0.00200    0.00304    0.00309
C3    1    0.253709    0.516226    0.598125    11.00000    0.00959    0.01186 =
         0.00837    0.00198    0.00221    0.00329
C4    1    0.586273    0.406265    0.753575    11.00000    0.01231    0.01171 =
         0.01149    0.00240    0.00005    0.00516
AFIX  23
H4A   2    0.800932    0.450691    0.784424    11.00000   -1.20000
H4B   2    0.557376    0.289001    0.705035    11.00000   -1.20000
AFIX   0
C5    1    0.412155    0.357438    0.849075    11.00000    0.01750    0.01486 =
         0.01336    0.00472    0.00448    0.00571
AFIX  23
H5A   2    0.202683    0.292241    0.818735    11.00000   -1.20000
H5B   2    0.414021    0.476867    0.891180    11.00000   -1.20000
AFIX   0
C6    1    0.548234    0.227513    0.927054    11.00000    0.02633    0.02019 =
         0.01489    0.00648    0.00334    0.00923
AFIX 137
H6A   2    0.555189    0.112183    0.884527    11.00000   -1.50000
H6B   2    0.426623    0.190815    0.985395    11.00000   -1.50000
H6C   2    0.750479    0.295913    0.961432    11.00000   -1.50000
AFIX   0
HKLF 4

REM  5184f_a.res in P-1
REM R1 =  0.0263 for    1815 Fo > 4sig(Fo)  and  0.0281 for all    1893 data
REM     92 parameters refined using      0 restraints

END

WGHT      0.0188      0.2865

REM Highest difference peak  0.456,  deepest hole -0.271,  1-sigma level  0.063
Q1    1   0.4924  0.3825  0.8013  11.00000  0.05    0.46
Q2    1   0.4896  0.3013  0.8867  11.00000  0.05    0.39
Q3    1   0.5410  0.8059  0.6669  11.00000  0.05    0.37
Q4    1   0.3217  0.7743  0.5843  11.00000  0.05    0.35
Q5    1   0.3905  0.5379  0.6394  11.00000  0.05    0.32
;
_shelx_res_checksum              11335
_shelx_hkl_file
;
  -1   0   0 1060.89   45.80
  -1   0   0 1077.19   46.80
  -1   0   0 1066.39   46.30
  -1   0   0  990.20   46.00
   1   0   0 1001.60   46.30
   1   0   0  983.00   45.60
   1   0   0 1007.30   45.80
  -2   0   0 4329.87  182.48
  -2   0   0 4131.49  183.18
  -2   0   0 4420.26  183.48
  -2   0   0 4278.57  182.98
   2   0   0 4040.50  182.18
   2   0   0 4032.70  182.58
   2   0   0 4053.39  182.38
   2   0   0 4137.59  182.98
   2   0   0 4388.66  185.28
   2   0   0 4076.99  183.58
  -3   0   0  255.17   15.60
  -3   0   0  262.17   15.80
  -3   0   0  217.48   17.20
  -3   0   0  241.28   14.90
   3   0   0  228.38   17.20
   3   0   0  221.58   14.70
  -4   0   0   99.19   11.40
  -4   0   0   95.19    9.40
  -4   0   0  106.49   12.60
  -4   0   0   78.09   13.80
   4   0   0   96.99   11.00
   4   0   0   86.39   13.50
  -5   0   0  163.78   13.60
  -5   0   0  119.89   19.50
  -5   0   0  153.18   13.70
  -5   0   0  140.79   16.80
   5   0   0  149.39   20.60
   5   0   0  186.08   14.30
  -6   0   0  246.88   19.30
  -6   0   0  267.37   19.40
  -6   0   0  234.68   20.80
   6   0   0  219.08   17.70
   6   0   0  205.68   21.20
   6  -1   0  346.47   23.60
   6  -1   0  347.97   28.50
  -6   1   0  287.17   28.00
  -6   1   0  329.57   23.40
  -6   1   0  317.77   25.20
   5  -1   0   27.60    5.80
   5  -1   0   13.70    6.70
  -5   1   0   18.50    4.60
  -5   1   0   22.90    8.20
  -5   1   0   32.90    7.10
  -5   1   0   34.20    8.40
   4  -1   0 1668.13   79.29
   4  -1   0 1671.53   84.09
  -4   1   0 1665.53   80.49
  -4   1   0 1792.62   80.59
  -4   1   0 1698.53   79.79
  -4   1   0 1584.54   83.49
   3  -1   0  665.23   35.60
   3  -1   0  617.14   29.50
   3  -1   0  630.64   32.30
  -3   1   0  652.63   30.70
  -3   1   0  730.93   33.80
  -3   1   0  584.74   32.20
  -3   1   0  583.24   32.70
  -3   1   0  632.94   35.10
   2  -1   0 3002.70  134.09
   2  -1   0 3297.17  134.19
   2  -1   0 3116.49  135.09
   2  -1   0 3055.99  136.19
  -2   1   0 2997.20  133.99
  -2   1   0 3127.49  135.09
  -2   1   0 2966.20  134.39
  -2   1   0 2892.11  134.59
  -2   1   0 3081.19  132.89
  -2   1   0 3000.50  135.39
   1  -1   0  686.73   31.60
   1  -1   0  724.43   32.00
  -1   1   0  682.23   32.00
  -1   1   0  707.13   31.40
  -1   1   0  678.53   31.70
  -1  -1   0   15.00    2.90
  -1  -1   0   15.70    2.50
  -1  -1   0   11.10    2.50
  -1  -1   0    8.60    2.20
  -1  -1   0   19.30    3.00
  -1  -1   0   14.20    2.40
   1   1   0   10.30    2.10
   1   1   0    9.80    2.30
   1   1   0    9.70    2.20
   1   1   0   11.90    2.90
   1   1   0   13.50    2.40
   1   1   0   13.60    3.00
  -2  -1   0  161.98   10.70
  -2  -1   0  174.78   10.40
  -2  -1   0  160.68   10.00
   2   1   0  148.39   10.60
   2   1   0  177.88    8.60
   2   1   0  155.08   11.10
   2   1   0  154.48   11.60
   2   1   0  157.68   11.70
  -3  -1   0 1058.09   50.59
  -3  -1   0 1074.69   50.19
   3   1   0 1032.50   50.09
   3   1   0 1005.00   52.59
   3   1   0  972.50   50.09
  -4  -1   0 1778.22   81.09
  -4  -1   0 1765.72   79.89
  -4  -1   0 1789.22   80.39
   4   1   0 1584.84   78.39
   4   1   0 1658.43   79.79
   4   1   0 1493.05   82.99
  -5  -1   0  210.78   16.80
  -5  -1   0  201.28   17.70
  -5  -1   0  210.28   16.50
   5   1   0  196.08   19.10
   5   1   0  221.18   16.70
  -6  -1   0  205.58   17.30
  -6  -1   0  238.78   21.00
  -6  -1   0  238.48   19.10
   6   1   0  227.38   21.40
   6   1   0  226.28   18.00
   6  -2   0  343.47   29.20
   6  -2   0  337.27   23.40
  -6   2   0  303.77   28.30
  -6   2   0  345.77   24.10
  -6   2   0  307.07   25.00
   5  -2   0   30.20    6.30
   5  -2   0   28.70    9.40
  -5   2   0   46.40    8.20
  -5   2   0   28.80    8.10
  -5   2   0   32.90    8.80
   4  -2   0  797.42   39.80
   4  -2   0  734.73   35.80
   4  -2   0  812.82   44.30
  -4   2   0  737.03   40.60
  -4   2   0  730.43   39.80
  -4   2   0  742.73   40.40
  -4   2   0  762.02   43.20
   3  -2   0  404.46   24.80
   3  -2   0  378.36   21.80
  -3   2   0  392.76   22.90
  -3   2   0  411.96   19.60
  -3   2   0  447.06   25.00
  -3   2   0  399.36   22.60
  -3   2   0  382.56   23.00
   2  -2   0   58.79    5.20
   2  -2   0   59.89    5.30
   2  -2   0   67.39    7.00
  -2   2   0   64.59    3.80
  -2   2   0   59.29    6.30
  -2   2   0   60.19    5.90
  -2   2   0   59.19    6.70
  -2   2   0   68.79    7.30
   1  -2   0  710.03   31.70
   1  -2   0  696.73   32.00
   1  -2   0  665.43   31.60
   1  -2   0  634.34   31.60
   1  -2   0  609.04   30.00
  -1   2   0  708.63   32.30
  -1   2   0  708.83   31.70
  -1   2   0  673.73   31.90
  -1   2   0  712.83   30.20
  -1   2   0  726.23   31.60
   0  -2   0 2108.59  100.59
   0  -2   0 2323.87  100.59
   0  -2   0 2311.47  100.99
   0  -2   0 2333.37  100.89
   0   2   0 2339.57  100.69
   0   2   0 2304.67  100.89
   0   2   0 2269.57  100.89
   0   2   0 2413.16  100.99
  -1  -2   0 1942.21   88.29
  -1  -2   0 2033.80   88.99
  -1  -2   0 1960.20   87.79
  -1  -2   0 1997.10   88.19
  -1  -2   0 2070.29   88.79
  -1  -2   0 2125.79   88.29
   1   2   0 2033.80   89.29
   1   2   0 1928.41   88.09
   1   2   0 1907.01   88.09
   1   2   0 1984.40   88.59
   1   2   0 1933.61   87.79
   1   2   0 1930.71   88.19
  -2  -2   0 1544.45   70.69
  -2  -2   0 1532.15   71.09
  -2  -2   0 1616.24   70.59
   2   2   0 1548.84   71.49
   2   2   0 1554.64   72.49
   2   2   0 1508.35   72.19
  -3  -2   0   58.19    8.00
  -3  -2   0   70.79    8.30
   3   2   0   78.39   10.80
   3   2   0   63.59    8.60
   3   2   0   51.89    9.20
  -4  -2   0   44.90    7.80
  -4  -2   0   39.40    8.20
   4   2   0   35.80    8.60
   4   2   0   42.60    7.40
   4   2   0   32.70    7.20
  -5  -2   0   48.80    9.00
  -5  -2   0   68.49   10.40
  -5  -2   0   66.79   11.90
   5   2   0   48.70    8.50
   5   2   0   44.00    9.50
   6  -3   0    8.00    2.90
   6  -3   0    9.20    5.00
  -6   3   0    4.50    4.80
  -6   3   0   10.50    2.00
  -6   3   0   11.80    5.80
   5  -3   0    0.00    5.10
   5  -3   0   15.20    4.00
  -5   3   0    1.10    4.00
  -5   3   0    2.70    3.50
  -5   3   0    6.90    2.10
   4  -3   0  142.69   15.00
   4  -3   0  160.88   12.30
  -4   3   0  157.98   14.80
  -4   3   0  140.79   13.00
  -4   3   0  149.79    8.40
  -4   3   0  145.69   12.30
   3  -3   0  176.38   12.20
   3  -3   0  166.98   13.90
  -3   3   0  176.58   13.10
  -3   3   0  179.98   12.70
  -3   3   0  180.18    8.80
  -3   3   0  168.68   13.80
   2  -3   0  231.88   14.10
   2  -3   0  224.48   13.80
   2  -3   0  227.48   14.80
  -2   3   0  256.87   11.10
  -2   3   0  239.58   14.70
  -2   3   0  239.68   15.70
  -2   3   0  235.68   14.10
  -2   3   0  220.68   14.20
   1  -3   0   91.09    7.10
   1  -3   0   93.39    7.40
   1  -3   0   87.89    7.00
   1  -3   0  110.99    6.00
  -1   3   0  103.09    7.60
  -1   3   0   96.99    8.00
  -1   3   0   97.29    6.20
  -1   3   0   98.69    6.40
  -1   3   0  101.89    7.80
   0  -3   0  807.72   38.10
   0  -3   0  840.32   37.80
   0  -3   0  789.22   37.70
   0  -3   0  774.22   37.80
   0   3   0  760.32   35.80
   0   3   0  800.92   38.00
   0   3   0  866.41   38.30
   0   3   0  790.62   37.90
   0   3   0  819.22   37.80
  -1  -3   0  630.94   29.80
  -1  -3   0  586.94   29.50
  -1  -3   0  585.04   29.00
   1   3   0  588.04   30.50
   1   3   0  608.94   29.90
   1   3   0  563.04   28.70
  -2  -3   0  344.57   20.00
  -2  -3   0  367.36   20.10
  -2  -3   0  360.06   19.50
   2   3   0  336.57   20.50
   2   3   0  364.66   20.60
   2   3   0  317.97   21.10
  -3  -3   0  955.00   47.40
  -3  -3   0  952.60   46.50
  -3  -3   0 1049.89   47.70
   3   3   0  968.30   48.00
   3   3   0  888.51   48.80
   3   3   0  831.52   48.50
  -4  -3   0    1.40    2.30
   4   3   0   10.60    3.30
   4   3   0    6.20    3.50
   4   3   0    2.90    3.80
  -5  -3   0  867.21   50.19
  -5  -3   0  904.71   48.20
  -5  -3   0  936.41   48.40
   5   3   0  771.82   50.69
   5   3   0  848.82   47.60
   6  -4   0   10.20    5.20
   6  -4   0    1.90    1.80
  -6   4   0    8.00    4.40
  -6   4   0   11.40    2.10
  -6   4   0    0.10    4.40
   5  -4   0   40.50    7.70
   5  -4   0   24.50    8.20
  -5   4   0   36.60    8.50
  -5   4   0   21.70    5.00
  -5   4   0   44.20   10.30
   4  -4   0    4.10    4.90
   4  -4   0   -0.30    0.90
  -4   4   0    1.10    3.60
  -4   4   0    3.00    3.80
  -4   4   0    2.10    1.10
   3  -4   0  425.86   24.30
   3  -4   0  447.06   26.20
  -3   4   0  413.76   24.70
  -3   4   0  439.16   25.40
  -3   4   0  452.85   27.40
   2  -4   0  863.51   45.60
   2  -4   0  932.11   45.70
   2  -4   0  953.40   45.70
  -2   4   0 1007.40   45.40
  -2   4   0  982.50   46.50
  -2   4   0  939.31   48.40
  -2   4   0  936.81   46.80
  -2   4   0 1002.30   42.40
   1  -4   0  422.76   25.40
   1  -4   0  444.96   23.90
   1  -4   0  513.75   22.60
   1  -4   0  441.76   24.00
  -1   4   0  509.35   23.20
  -1   4   0  444.36   22.20
  -1   4   0  432.66   24.20
   0  -4   0   61.79    6.90
   0  -4   0   54.79    6.70
   0   4   0   64.29    7.40
   0   4   0   71.89    4.50
   0   4   0   66.69    6.50
  -1  -4   0  563.24   28.90
  -1  -4   0  555.54   28.70
  -1  -4   0  568.94   28.30
   1   4   0  534.85   27.20
   1   4   0  537.05   29.70
   1   4   0  539.75   28.90
  -2  -4   0   40.10    6.90
  -2  -4   0   23.50    5.00
  -2  -4   0   36.50    6.10
   2   4   0   31.70    6.00
   2   4   0   25.30    5.30
   2   4   0   28.80    7.30
  -3  -4   0  265.77   18.00
  -3  -4   0  261.57   16.90
  -3  -4   0  290.17   18.20
   3   4   0  219.78   18.90
   3   4   0  231.18   17.30
   3   4   0  234.18   18.00
  -4  -4   0    4.50    1.30
  -4  -4   0    1.90    2.10
   4   4   0    6.60    3.10
   4   4   0    5.20    3.00
  -5  -4   0    1.50    1.80
  -5  -4   0    9.40    5.70
  -5  -4   0   10.40    3.20
   5   4   0    6.10    3.10
   5   4   0   11.60    5.60
   5   4   0    7.80    3.00
   6  -5   0    1.90    1.70
   6  -5   0   10.10    5.30
  -6   5   0    7.60    4.70
  -6   5   0   -1.20    3.30
   5  -5   0    6.90    3.30
   5  -5   0    8.50    5.70
  -5   5   0    1.50    3.80
  -5   5   0    3.90    3.80
  -5   5   0    7.20    2.50
   4  -5   0  274.47   19.10
   4  -5   0  270.27   21.50
  -4   5   0  316.77   21.20
  -4   5   0  282.17   22.50
  -4   5   0  289.87   19.90
   3  -5   0   10.20    3.80
   3  -5   0    7.20    4.50
   3  -5   0   12.60    3.70
  -3   5   0   13.30    5.00
  -3   5   0   12.50    3.20
  -3   5   0   13.40    5.10
   2  -5   0  134.69   10.70
   2  -5   0  128.09   10.40
  -2   5   0  146.49   11.20
  -2   5   0  147.89    9.60
  -2   5   0  151.28    8.40
  -2   5   0  129.99   12.60
   1  -5   0    3.10    2.20
   1  -5   0    6.40    2.50
  -1   5   0   10.10    2.90
  -1   5   0    5.00    2.40
  -1   5   0    8.10    1.50
   0  -5   0  628.74   32.10
   0  -5   0  600.64   31.40
   0   5   0  590.64   32.00
   0   5   0  611.54   32.10
   0   5   0  629.14   28.40
  -1  -5   0    6.50    3.60
  -1  -5   0   10.70    3.10
  -1  -5   0    9.00    3.00
   1   5   0   14.20    4.40
   1   5   0   15.00    5.10
   1   5   0   19.00    3.60
  -2  -5   0    0.70    2.00
  -2  -5   0    9.50    3.20
  -2  -5   0    7.40    4.20
   2   5   0    3.70    1.80
   2   5   0    6.10    4.10
   2   5   0   17.20    4.30
  -3  -5   0   77.69   10.60
  -3  -5   0   93.39   11.30
  -3  -5   0   90.29   11.90
   3   5   0   88.79   12.00
   3   5   0   64.89    9.90
   3   5   0   74.29   13.10
  -4  -5   0   75.79   10.70
  -4  -5   0   85.49   11.60
   4   5   0   82.49   11.20
   4   5   0   51.39   12.40
   4   5   0   70.49   11.00
   6  -6   0  346.77   29.20
  -6   6   0  381.36   32.70
  -6   6   0  386.86   28.50
   5  -6   0    4.00    2.40
   5  -6   0    7.00    6.20
   5  -6   0    6.40    2.10
  -5   6   0    5.60    1.60
  -5   6   0    7.40    5.50
  -5   6   0    6.80    4.70
   4  -6   0  669.43   36.10
   4  -6   0  630.64   36.50
   4  -6   0  580.84   37.40
  -4   6   0  694.83   38.70
  -4   6   0  692.53   37.80
  -4   6   0  683.63   41.80
   3  -6   0   53.49    7.80
   3  -6   0   52.29    8.10
  -3   6   0   53.09   10.20
  -3   6   0   68.59   10.80
  -3   6   0   64.59    9.20
   2  -6   0  760.32   39.90
   2  -6   0  716.13   39.40
  -2   6   0  817.22   36.60
  -2   6   0  793.22   37.20
  -2   6   0  743.73   43.70
  -2   6   0  770.72   40.30
   1  -6   0  527.05   28.90
   1  -6   0  528.75   28.50
  -1   6   0  533.45   27.50
  -1   6   0  522.05   24.40
  -1   6   0  483.45   28.50
   0  -6   0    3.10    2.40
   0  -6   0    3.20    1.70
   0   6   0    2.30    1.80
   0   6   0    5.40    1.00
   0   6   0    2.00    2.70
  -1  -6   0  265.27   17.80
  -1  -6   0  280.87   17.90
  -1  -6   0  265.07   18.30
   1   6   0  283.57   15.30
   1   6   0  264.67   19.30
   1   6   0  254.87   18.10
  -2  -6   0   25.10    5.70
  -2  -6   0   15.40    5.30
  -2  -6   0   20.00    4.80
   2   6   0   15.40    5.10
   2   6   0   22.50    5.70
   2   6   0   18.20    4.10
  -3  -6   0   38.60    8.60
  -3  -6   0   47.60    8.50
  -3  -6   0   46.80    8.20
   3   6   0   46.70    9.90
   3   6   0   38.30    6.90
  -4  -6   0  228.58   18.30
  -4  -6   0  226.28   19.60
   4   6   0  259.77   24.70
   4   6   0  277.17   20.00
   5  -7   0    4.20    1.70
   5  -7   0    8.10    1.90
  -5   7   0   -2.10    2.80
  -5   7   0   -2.30    2.40
   4  -7   0   10.90    3.80
   4  -7   0   22.30    4.40
  -4   7   0   20.80    7.20
  -4   7   0   34.60    6.00
  -4   7   0   22.90    8.00
   3  -7   0  335.57   23.30
   3  -7   0  391.36   23.90
  -3   7   0  400.86   28.80
  -3   7   0  395.06   24.50
   2  -7   0  335.57   21.50
   2  -7   0  342.57   21.80
  -2   7   0  331.37   21.80
  -2   7   0  331.87   25.80
  -2   7   0  355.16   18.70
   1  -7   0  197.88   14.90
   1  -7   0  211.18   15.60
  -1   7   0  220.88   15.80
  -1   7   0  213.08   14.40
   0  -7   0  683.03   37.80
   0  -7   0  689.83   37.70
   0  -7   0  732.23   37.60
   0   7   0  671.33   37.80
   0   7   0  698.73   38.00
  -1  -7   0  157.18   14.00
  -1  -7   0  179.98   13.80
  -1  -7   0  187.88   13.90
   1   7   0  176.38   14.20
   1   7   0  138.99   14.00
  -2  -7   0  372.76   23.30
  -2  -7   0  336.97   23.70
  -2  -7   0  350.46   22.80
   2   7   0  383.16   24.40
   2   7   0  313.67   24.60
  -3  -7   0  257.17   18.30
  -3  -7   0  240.38   19.60
   3   7   0  199.38   17.00
   5  -8   0  291.47   22.30
  -5   8   0  303.07   28.20
   4  -8   0  353.76   24.40
   4  -8   0  334.07   23.10
  -4   8   0  357.96   29.80
  -4   8   0  376.76   24.60
   3  -8   0  233.78   18.40
   3  -8   0  293.67   19.60
  -3   8   0  264.37   19.10
  -3   8   0  262.07   23.70
   2  -8   0  632.04   35.70
   2  -8   0  668.83   36.30
  -2   8   0  645.14   36.40
  -2   8   0  589.24   41.10
   1  -8   0   19.60    4.90
  -1   8   0   22.50    4.80
  -1   8   0   21.70    4.90
   0  -8   0  107.29   10.10
   0  -8   0   95.29   12.10
   0  -8   0   88.79   11.90
   0   8   0  101.09   13.10
   0   8   0  117.79   13.70
  -1  -8   0  655.03   38.40
  -1  -8   0  650.03   37.30
  -1  -8   0  687.13   37.80
   1   8   0  697.03   38.90
   1   8   0  654.23   39.60
  -2  -8   0   52.89   10.20
  -2  -8   0   77.99   11.40
   2   8   0   57.29    9.30
   2   8   0   69.59   12.40
   4  -9   0   79.89   10.50
   4  -9   0   74.89   11.60
  -4   9   0   77.49   16.60
   3  -9   0  222.38   17.30
   3  -9   0  202.48   16.90
  -3   9   0  264.87   32.20
  -3   9   0  248.98   24.20
   2  -9   0    7.80    2.60
   2  -9   0    5.20    2.20
  -2   9   0   -5.70    2.60
  -2   9   0    4.10    1.80
   1  -9   0  818.52   45.20
   1  -9   0  835.52   46.00
  -1   9   0  806.12   43.70
  -1   9   0  891.61   46.90
   0  -9   0   35.50    7.30
   0  -9   0   31.50    6.50
   0  -9   0   37.00    6.50
   0   9   0   39.10    7.60
   0   9   0   26.60    5.90
  -1  -9   0 1036.00   54.89
  -1  -9   0 1021.50   53.59
   1   9   0 1034.00   54.89
   1   9   0  919.81   54.69
   2 -10   0   28.50    5.30
   2 -10   0   29.50    6.60
  -2  10   0   33.80   11.00
   1 -10   0  141.19   16.20
   1 -10   0  154.28   13.80
  -1  10   0  121.29   21.20
  -1  10  -1    3.40    1.30
   1 -10   1    3.10    3.00
   1 -10   1    0.00    1.10
  -2  10  -1  106.59   19.80
   2 -10   1  119.69   14.70
   2 -10   1  108.49   13.60
   1   9  -1   18.30    4.50
   1   9  -1   19.30    4.30
  -1  -9   1   14.70    4.50
  -1  -9   1   23.10    5.10
   0   9  -1   44.10    7.90
   0   9  -1   47.40    9.20
   0  -9   1   42.20    8.10
   0  -9   1   44.20    8.10
  -1   9  -1  265.67   19.70
  -1   9  -1  243.48   17.50
   1  -9   1  295.97   19.90
   1  -9   1  236.48   18.60
  -2   9  -1    3.40    2.30
  -2   9  -1   11.10    6.70
   2  -9   1    7.00    2.50
   2  -9   1    1.80    1.50
  -3   9  -1  622.44   37.90
  -3   9  -1  672.73   45.60
   3  -9   1  664.03   37.50
   3  -9   1  642.94   38.00
  -4   9  -1   37.10   11.50
   4  -9   1   41.30    6.60
   4  -9   1   32.40    6.80
   2   8  -1   51.89    8.70
   2   8  -1   62.29   11.50
  -2  -8   1   39.40    8.80
  -2  -8   1   58.89    9.60
   1   8  -1  239.58   18.00
   1   8  -1  201.48   18.00
  -1  -8   1  240.98   16.70
  -1  -8   1  248.18   17.80
  -1  -8   1  212.38   17.50
   0   8  -1   85.99   11.90
   0   8  -1   88.19   12.20
   0  -8   1   96.79   11.90
   0  -8   1   90.59    8.70
   0  -8   1   79.59   11.20
  -1   8  -1   73.99   10.00
  -1   8  -1  103.69   13.10
   1  -8   1   70.39   10.10
   1  -8   1   95.29   11.50
  -2   8  -1  114.49    9.10
  -2   8  -1  121.49   18.50
  -2   8  -1  122.09   14.50
   2  -8   1  129.49   11.40
   2  -8   1  121.39   14.10
  -3   8  -1   29.40    5.90
  -3   8  -1   20.70    7.60
   3  -8   1   24.00    5.80
   3  -8   1   25.10    4.70
  -4   8  -1  319.67   27.30
  -4   8  -1  280.77   21.20
   4  -8   1  287.27   21.70
   4  -8   1  322.07   20.70
  -5   8  -1   13.50    6.90
   5  -8   1   14.20    4.10
   3   7  -1   44.30    7.70
   3   7  -1   58.99   11.00
  -3  -7   1   36.80    7.40
  -3  -7   1   40.40    8.50
   2   7  -1  442.56   30.20
   2   7  -1  456.75   29.00
  -2  -7   1  437.96   28.50
  -2  -7   1  457.55   27.80
  -2  -7   1  479.65   27.40
   1   7  -1  137.89   13.30
   1   7  -1  153.28   12.90
  -1  -7   1  131.19   14.60
  -1  -7   1  149.39   12.20
  -1  -7   1  118.89   10.60
   0   7  -1  144.69   12.60
   0   7  -1  158.48   13.00
   0  -7   1  127.69   13.80
   0  -7   1  149.39   12.10
  -1   7  -1  343.37   20.70
  -1   7  -1  344.87   22.40
   1  -7   1  360.86   22.00
   1  -7   1  332.87   21.50
  -2   7  -1   55.59    8.60
  -2   7  -1   44.60    9.90
  -2   7  -1   45.40    6.00
   2  -7   1   44.70    7.70
   2  -7   1   42.40    6.70
  -3   7  -1    5.90    4.80
  -3   7  -1   11.80    2.70
   3  -7   1    4.10    2.10
   3  -7   1    2.50    1.30
  -4   7  -1    2.20    3.70
  -4   7  -1    7.90    1.90
   4  -7   1    5.70    1.80
   4  -7   1    6.20    2.80
  -5   7  -1    1.80    4.60
  -5   7  -1    4.60    4.20
   5  -7   1    5.70    2.20
   4   6  -1  125.39   15.10
  -4  -6   1  136.79   12.30
   3   6  -1  292.57   21.40
   3   6  -1  279.17   20.30
   3   6  -1  311.97   24.40
  -3  -6   1  290.37   20.40
  -3  -6   1  321.17   20.40
  -3  -6   1  304.27   21.70
   2   6  -1  134.49   11.80
   2   6  -1  114.69    9.80
   2   6  -1  144.49   17.20
  -2  -6   1  106.19    9.90
  -2  -6   1  121.99   13.60
  -2  -6   1  131.49   11.10
   1   6  -1  834.32   42.20
   1   6  -1  799.72   38.40
   1   6  -1  723.33   42.00
  -1  -6   1  750.22   40.00
  -1  -6   1  808.52   41.50
  -1  -6   1  817.82   41.00
   0   6  -1   23.10    5.40
   0   6  -1   35.50    3.30
   0   6  -1   31.30    6.90
   0  -6   1   21.60    5.30
   0  -6   1   35.90    6.20
  -1   6  -1  748.63   38.30
  -1   6  -1  829.22   40.60
  -1   6  -1  869.61   42.80
   1  -6   1  826.42   41.60
   1  -6   1  858.41   41.90
  -2   6  -1   10.10    4.50
  -2   6  -1   14.60    3.20
  -2   6  -1   14.50    4.20
   2  -6   1   12.70    3.30
   2  -6   1    7.10    2.80
  -3   6  -1  155.88   15.00
  -3   6  -1  142.69   12.40
  -3   6  -1  148.99    8.00
  -3   6  -1  142.29   15.50
   3  -6   1  147.89   11.60
   3  -6   1  134.69   11.80
  -4   6  -1   22.80    5.30
  -4   6  -1   11.50    5.40
  -4   6  -1   15.30    6.40
   4  -6   1   24.90    6.00
   4  -6   1   21.70    4.40
  -5   6  -1  194.48   17.10
  -5   6  -1  166.48   15.10
  -5   6  -1  175.28   18.90
   5  -6   1  152.48   14.30
   5  -6   1  189.08   13.80
   5  -6   1  147.89   16.80
  -6   6  -1   70.89   15.80
  -6   6  -1   52.79   10.50
   6  -6   1   68.89   11.20
   6  -6   1   86.19   16.40
   4   5  -1   96.09   15.50
   4   5  -1   96.79   10.50
   4   5  -1   83.59   11.30
  -4  -5   1  100.29    9.80
  -4  -5   1   90.69   12.40
   3   5  -1  781.02   42.30
   3   5  -1  729.03   41.70
   3   5  -1  720.43   43.80
  -3  -5   1  782.92   40.50
  -3  -5   1  776.42   41.80
  -3  -5   1  799.12   40.90
   2   5  -1  156.28   12.20
   2   5  -1  108.39    9.80
   2   5  -1  129.19   15.50
  -2  -5   1  127.79   10.50
  -2  -5   1  129.29   11.30
  -2  -5   1  121.19   10.10
   1   5  -1   27.90    6.60
   1   5  -1   33.30    6.00
   1   5  -1   38.40    5.40
  -1  -5   1   27.20    5.10
  -1  -5   1   36.10    5.50
  -1  -5   1   30.00    5.90
   0   5  -1  565.74   30.30
   0   5  -1  544.35   29.90
   0   5  -1  564.34   27.10
   0  -5   1  575.94   29.80
   0  -5   1  590.44   29.80
  -1   5  -1 1981.40   86.99
  -1   5  -1 1911.71   88.69
  -1   5  -1 1827.32   85.89
   1  -5   1 1911.71   87.79
   1  -5   1 1987.80   88.19
  -2   5  -1    0.40    2.30
  -2   5  -1    5.10    2.90
  -2   5  -1    5.20    1.70
   2  -5   1    3.70    2.40
   2  -5   1    3.40    1.60
  -3   5  -1 1741.33   83.59
  -3   5  -1 1658.63   73.89
  -3   5  -1 1682.23   80.19
  -3   5  -1 1690.83   80.59
   3  -5   1 1737.43   78.79
   3  -5   1 1639.04   79.49
  -4   5  -1   62.29   11.30
  -4   5  -1   61.89   10.30
  -4   5  -1   60.19   10.00
   4  -5   1   56.49    8.90
   4  -5   1   50.09   10.40
  -5   5  -1  550.54   34.30
  -5   5  -1  586.34   34.50
  -5   5  -1  614.34   39.00
   5  -5   1  520.05   33.00
   5  -5   1  499.85   36.50
  -6   5  -1    3.40    1.60
  -6   5  -1   -3.60    2.40
  -6   5  -1    4.10    4.20
   6  -5   1    9.70    3.10
   6  -5   1    4.20    5.50
   5   4  -1  122.69   14.80
   5   4  -1  141.99   18.60
   5   4  -1  147.09   14.40
  -5  -4   1  125.79   11.90
  -5  -4   1  129.79   18.80
   4   4  -1   51.99   10.00
   4   4  -1   49.90    8.70
   4   4  -1   38.50    9.50
  -4  -4   1   51.29    8.50
  -4  -4   1   44.50    7.50
   3   4  -1   65.29    9.90
   3   4  -1   48.20   10.00
   3   4  -1   55.39    8.50
  -3  -4   1   57.59    8.20
  -3  -4   1   60.79    9.00
  -3  -4   1   70.09    9.20
   2   4  -1  229.68   16.00
   2   4  -1  235.08   15.70
   2   4  -1  229.68   17.20
  -2  -4   1  245.08   15.30
  -2  -4   1  240.38   15.30
  -2  -4   1  249.58   16.00
   1   4  -1 2126.59   91.39
   1   4  -1 2032.50   92.99
   1   4  -1 1922.71   93.49
  -1  -4   1 1975.80   91.69
  -1  -4   1 2078.79   92.19
  -1  -4   1 2063.79   92.59
   0   4  -1  825.62   40.70
   0   4  -1  763.72   40.10
   0  -4   1  854.31   40.20
   0  -4   1  892.11   40.40
  -1   4  -1 2365.96  106.49
  -1   4  -1 2229.08  106.09
  -1   4  -1 2462.25  108.29
   1  -4   1 2327.37  107.39
   1  -4   1 2533.35  105.79
   1  -4   1 2502.55  107.39
  -2   4  -1    5.20    2.80
  -2   4  -1    3.60    1.20
  -2   4  -1    5.50    2.90
  -2   4  -1    6.20    2.70
   2  -4   1    5.90    2.60
   2  -4   1    1.50    1.50
  -3   4  -1  973.40   49.00
  -3   4  -1 1024.90   51.79
  -3   4  -1  957.50   49.40
  -3   4  -1 1070.49   44.20
   3  -4   1  914.31   50.29
   3  -4   1  963.70   48.60
  -4   4  -1   25.10    6.90
  -4   4  -1   25.50    5.90
  -4   4  -1   30.40    2.30
  -4   4  -1   20.80    6.40
   4  -4   1   23.80    7.70
   4  -4   1   14.30    4.30
  -5   4  -1   54.89    9.80
  -5   4  -1   68.59   11.20
  -5   4  -1   45.90   10.70
   5  -4   1   54.79    9.10
   5  -4   1   48.90    8.00
   5  -4   1   57.29   13.50
  -6   4  -1  323.87   28.10
  -6   4  -1  282.77   22.20
  -6   4  -1  269.37   22.80
   6  -4   1  320.77   22.90
   6  -4   1  287.07   26.70
   5   3  -1  887.61   49.30
   5   3  -1  881.81   53.19
  -5  -3   1  927.71   49.50
  -5  -3   1  891.61   51.79
  -5  -3   1  924.71   48.70
   4   3  -1   -5.30    3.10
   4   3  -1    5.40    3.70
   4   3  -1    5.10    1.90
  -4  -3   1    6.20    2.90
  -4  -3   1    1.80    1.10
   3   3  -1 3051.59  142.79
   3   3  -1 2950.70  140.89
   3   3  -1 3049.40  142.29
  -3  -3   1 3277.17  140.09
  -3  -3   1 3161.18  140.49
  -3  -3   1 3186.78  140.09
   2   3  -1   22.70    4.70
   2   3  -1   25.70    6.10
   2   3  -1   27.20    5.80
  -2  -3   1   18.70    4.00
  -2  -3   1   26.60    5.00
  -2  -3   1   20.50    4.10
   1   3  -1 2950.20  136.59
   1   3  -1 3280.47  135.49
   1   3  -1 3038.80  136.19
  -1  -3   1 3071.29  135.69
  -1  -3   1 3014.10  135.29
  -1  -3   1 3064.59  135.09
   0   3  -1   54.89    5.80
   0   3  -1   61.09    5.20
   0   3  -1   50.79    6.10
   0   3  -1   64.29    6.60
   0  -3   1   49.40    5.60
   0  -3   1   55.19    6.50
   0  -3   1   56.39    4.90
   0  -3   1   61.59    5.20
  -1   3  -1  120.29    8.90
  -1   3  -1  135.79    7.40
  -1   3  -1  120.49    8.60
  -1   3  -1  115.99    7.90
   1  -3   1  114.39    6.90
   1  -3   1  111.59    8.10
   1  -3   1  111.49    7.70
   1  -3   1  104.89    8.20
  -2   3  -1 1625.24   68.09
  -2   3  -1 1537.55   71.39
  -2   3  -1 1578.94   72.79
  -2   3  -1 1568.24   70.89
   2  -3   1 1498.45   70.59
   2  -3   1 1471.65   71.89
  -3   3  -1  401.36   23.30
  -3   3  -1  395.16   23.60
  -3   3  -1  425.76   25.20
  -3   3  -1  411.36   19.80
   3  -3   1  416.56   25.40
   3  -3   1  424.96   23.20
  -4   3  -1 1969.80   91.69
  -4   3  -1 1896.91   88.79
  -4   3  -1 1897.21   91.99
  -4   3  -1 1972.10   94.79
   4  -3   1 1946.91   91.09
   4  -3   1 1969.90   95.69
  -5   3  -1  114.79   14.60
  -5   3  -1  105.79   17.00
  -5   3  -1  110.79   14.80
   5  -3   1   75.29   10.90
   5  -3   1  118.39   18.50
  -6   3  -1  184.58   15.90
  -6   3  -1  175.78   24.50
  -6   3  -1  214.28   19.10
   6  -3   1  183.88   15.90
   6  -3   1  185.18   20.60
   5   2  -1  246.78   18.30
   5   2  -1  216.78   20.10
  -5  -2   1  260.07   18.40
  -5  -2   1  228.48   17.50
  -5  -2   1  228.98   19.80
   4   2  -1  218.18   16.00
   4   2  -1  222.18   18.60
   4   2  -1  203.38   16.90
  -4  -2   1  219.58   17.40
  -4  -2   1  224.58   15.80
   3   2  -1  242.98   17.70
   3   2  -1  224.88   15.70
   3   2  -1  240.08   16.90
  -3  -2   1  244.38   15.40
  -3  -2   1  247.08   15.10
   2   2  -1  968.10   47.20
   2   2  -1  957.10   47.00
   2   2  -1  901.51   45.60
   2   2  -1  969.80   46.40
  -2  -2   1 1015.40   45.50
  -2  -2   1  978.40   45.80
  -2  -2   1  990.10   45.60
   1   2  -1  303.17   17.00
   1   2  -1  303.87   15.60
   1   2  -1  300.37   15.90
   1   2  -1  327.87   16.50
   1   2  -1  294.27   16.40
   1   2  -1  308.57   16.10
  -1  -2   1  311.37   16.30
  -1  -2   1  299.27   15.60
  -1  -2   1  338.87   16.80
  -1  -2   1  317.07   15.90
  -1  -2   1  315.77   16.80
  -1  -2   1  294.87   16.00
   0   2  -1 3839.82  165.98
   0   2  -1 3743.23  165.78
   0   2  -1 3850.41  166.28
   0  -2   1 3871.81  165.78
   0  -2   1 3924.61  165.98
   0  -2   1 3694.93  166.18
  -1   2  -1 1959.20   89.09
  -1   2  -1 2081.49   88.69
  -1   2  -1 1982.40   89.19
  -1   2  -1 2004.00   88.69
  -1   2  -1 2061.29   87.49
   1  -2   1 1979.90   88.69
   1  -2   1 2049.20   88.19
   1  -2   1 1833.12   89.09
   1  -2   1 1979.20   89.09
   1  -2   1 2161.58   88.89
  -2   2  -1 1187.88   53.59
  -2   2  -1 1172.68   54.99
  -2   2  -1 1163.18   54.39
  -2   2  -1 1115.69   54.09
   2  -2   1 1142.79   53.49
   2  -2   1 1200.58   53.79
   2  -2   1 1149.48   55.39
  -3   2  -1 1006.10   49.10
  -3   2  -1  987.90   50.39
  -3   2  -1 1021.90   49.60
  -3   2  -1 1037.70   46.00
  -3   2  -1  970.30   48.50
   3  -2   1  993.00   51.29
   3  -2   1  983.00   48.20
  -4   2  -1    4.00    2.50
  -4   2  -1    1.50    2.10
  -4   2  -1   -1.20    2.90
  -4   2  -1    2.50    3.70
   4  -2   1    1.50    2.00
   4  -2   1    9.00    2.50
   4  -2   1   -0.40    4.00
  -5   2  -1   78.89   11.90
  -5   2  -1  109.69   17.10
  -5   2  -1   70.79   11.80
  -5   2  -1   95.19   12.80
   5  -2   1   77.29   10.90
   5  -2   1   64.19   14.30
  -6   2  -1  382.46   31.80
  -6   2  -1  378.66   27.60
  -6   2  -1  347.67   26.00
   6  -2   1  370.56   31.50
   6  -2   1  409.36   26.30
   6   1  -1   85.19   11.60
   6   1  -1   76.09   12.90
  -6  -1   1   80.39   12.00
  -6  -1   1   58.89   12.10
  -6  -1   1   78.69   11.20
   5   1  -1   54.39    8.90
   5   1  -1   53.09   11.00
  -5  -1   1   51.89    8.40
  -5  -1   1   60.89   11.60
  -5  -1   1   54.19    9.00
   4   1  -1  964.70   48.70
   4   1  -1  881.51   51.69
  -4  -1   1  963.50   48.30
  -4  -1   1 1025.00   48.60
  -4  -1   1  942.51   49.70
   3   1  -1   75.19    9.40
   3   1  -1   81.89    9.20
   3   1  -1   84.99   11.50
  -3  -1   1   80.99    7.60
  -3  -1   1   73.89    9.60
   2   1  -1  427.66   23.80
   2   1  -1  439.36   22.80
   2   1  -1  425.66   22.60
   2   1  -1  433.36   21.90
   2   1  -1  420.96   22.90
  -2  -1   1  451.15   22.00
  -2  -1   1  464.45   22.50
   1   1  -1 1123.59   51.99
   1   1  -1 1143.19   52.29
   1   1  -1 1111.29   51.99
   1   1  -1 1190.38   52.99
   1   1  -1 1162.88   52.59
   1   1  -1 1216.68   53.19
  -1  -1   1 1205.08   52.09
  -1  -1   1 1143.89   51.99
  -1  -1   1 1218.68   53.19
  -1  -1   1 1135.59   52.59
  -1  -1   1 1185.68   52.39
  -1  -1   1 1214.08   52.89
   0   1  -1 1001.50   44.20
  -1   1  -1  707.43   34.40
  -1   1  -1  745.33   35.00
  -1   1  -1  786.02   34.20
   1  -1   1  766.22   34.70
   1  -1   1  736.13   34.10
   1  -1   1  769.42   34.40
  -2   1  -1  775.02   39.80
  -2   1  -1  818.02   39.60
  -2   1  -1  900.61   40.70
  -2   1  -1  819.92   38.60
   2  -1   1  807.72   38.70
   2  -1   1  853.81   39.70
   2  -1   1  936.91   39.90
   2  -1   1  848.02   41.70
  -3   1  -1   67.59    8.30
  -3   1  -1   72.79    8.50
  -3   1  -1   58.09    8.90
  -3   1  -1   62.09    8.10
   3  -1   1   52.09    4.50
   3  -1   1   64.49    7.60
   3  -1   1   59.09    9.80
  -4   1  -1 1146.79   51.79
  -4   1  -1 1035.50   50.79
  -4   1  -1  896.51   52.99
  -4   1  -1  966.70   50.19
   4  -1   1  928.61   47.00
   4  -1   1  949.51   49.60
   4  -1   1 1045.90   55.19
  -5   1  -1  245.28   18.90
  -5   1  -1  260.17   18.70
  -5   1  -1  218.58   17.30
  -5   1  -1  202.28   20.20
   5  -1   1  219.48   17.00
   5  -1   1  211.28   20.80
  -6   1  -1  278.17   21.50
  -6   1  -1  238.48   24.90
  -6   1  -1  261.77   20.70
  -6   1  -1  285.67   22.60
   6  -1   1  241.28   24.10
   6  -1   1  294.87   20.90
   6   0  -1   49.00   10.10
   6   0  -1   38.30    6.50
  -6   0   1   52.99    9.10
  -6   0   1   45.40   10.20
  -6   0   1   41.20    6.80
   5   0  -1   19.50    6.30
   5   0  -1   24.80    5.30
  -5   0   1   23.20    7.10
  -5   0   1   21.50    5.00
  -5   0   1   15.20    3.60
  -5   0   1   14.70    7.10
   4   0  -1   -1.50    2.70
   4   0  -1   -1.00    1.70
  -4   0   1    1.10    2.20
  -4   0   1    4.80    3.70
  -4   0   1    3.00    2.00
  -4   0   1    0.70    2.40
   3   0  -1  356.46   21.00
   3   0  -1  368.06   21.40
   3   0  -1  341.07   23.40
  -3   0   1  403.96   22.60
  -3   0   1  439.66   21.90
  -3   0   1  396.26   25.10
  -3   0   1  432.96   22.30
   2   0  -1    5.00    3.70
   2   0  -1    5.30    2.40
   2   0  -1    4.50    2.60
   2   0  -1    4.10    2.60
   2   0  -1    6.20    2.30
   2   0  -1    8.80    2.20
  -2   0   1    5.30    2.00
  -2   0   1    2.10    2.00
  -2   0   1    2.70    2.40
  -2   0   1    5.00    2.00
  -2   0   1    3.20    2.00
  -2   0   1    4.80    2.50
   1   0  -1   -0.30    0.20
   1   0  -1    0.70    0.80
   1   0  -1    1.90    1.10
   1   0  -1   -0.10    0.30
   1   0  -1    0.50    0.70
  -1   0   1    1.20    1.10
  -1   0   1   -0.30    0.30
  -1   0   1    2.50    1.20
  -1   0   1    1.30    1.20
  -1   0   1    0.60    0.90
   0   0  -1   -0.30    0.10
   0   0  -1   -0.30    0.10
   0   0  -1   -0.30    0.10
  -1   0  -1  206.58   11.20
  -1   0  -1  193.48   10.80
  -1   0  -1  216.28   10.70
  -1   0  -1  216.48   10.70
   1   0   1  182.88   10.40
   1   0   1  195.28   11.00
   1   0   1  207.08   10.60
   1   0   1  191.78   11.30
   1   0   1  201.98   10.30
   1   0   1  201.78   10.00
  -2   0  -1  448.26   22.00
  -2   0  -1  427.86   20.90
  -2   0  -1  395.26   21.00
  -2   0  -1  400.16   21.10
   2   0   1  399.86   21.20
   2   0   1  430.86   21.60
   2   0   1  403.86   20.40
   2   0   1  434.86   23.20
   2   0   1  371.76   19.30
  -3   0  -1   42.60    7.90
  -3   0  -1   42.00    6.50
  -3   0  -1   54.79    7.40
  -3   0  -1   37.30    6.30
   3   0   1   39.30    8.10
   3   0   1   42.00    3.40
   3   0   1   42.50    6.30
  -4   0  -1 1069.49   51.09
  -4   0  -1  844.72   53.39
  -4   0  -1 1027.80   50.99
  -4   0  -1 1016.20   50.49
   4   0   1 1034.90   50.59
   4   0   1  981.40   54.69
  -5   0  -1  126.79   12.60
  -5   0  -1  149.09   17.10
  -5   0  -1  148.09   13.00
   5   0   1  124.79   14.50
   5   0   1  116.99   17.90
  -6   0  -1   52.09   11.10
  -6   0  -1   54.39    9.70
  -6   0  -1   69.39   11.00
   6   0   1   51.99    9.70
   6   0   1   56.09    9.00
   6  -1  -1   59.29    9.50
   6  -1  -1   57.79   13.50
  -6   1   1   51.59   11.30
  -6   1   1   39.20   12.40
  -6   1   1   52.09    8.80
   5  -1  -1   69.59    9.90
   5  -1  -1   64.59   12.90
  -5   1   1   73.89   12.30
  -5   1   1   60.39    9.50
  -5   1   1   66.69   10.60
  -5   1   1   62.19   13.30
   4  -1  -1   17.70    7.30
   4  -1  -1   15.50    4.30
  -4   1   1   19.90    7.00
  -4   1   1   14.80    4.70
  -4   1   1   13.10    4.00
  -4   1   1   10.70    4.80
   3  -1  -1   13.30    1.90
   3  -1  -1    4.70    4.00
   3  -1  -1   12.30    3.40
  -3   1   1    9.20    2.90
  -3   1   1    9.50    3.50
  -3   1   1    6.50    3.50
  -3   1   1    8.10    3.60
  -3   1   1    7.90    2.00
   2  -1  -1  127.99    9.90
   2  -1  -1  136.49    8.20
   2  -1  -1  136.79    8.40
   2  -1  -1  129.09    7.40
   2  -1  -1  135.99    8.90
  -2   1   1  134.69    9.40
  -2   1   1  125.69    8.00
  -2   1   1  121.09    8.30
  -2   1   1  114.29    8.80
  -2   1   1  115.19    7.10
  -2   1   1  147.09    9.70
  -2   1   1  135.89   11.00
   1  -1  -1 1350.86   61.79
  -1   1   1 1559.94   62.79
  -1   1   1 1306.17   61.89
  -1   1   1 1417.36   61.69
  -1  -1  -1   11.50    2.10
  -1  -1  -1   10.80    2.30
  -1  -1  -1   10.50    2.50
  -1  -1  -1   12.00    2.20
  -1  -1  -1    6.60    2.10
  -1  -1  -1   12.70    2.60
   1   1   1   13.00    2.60
   1   1   1    7.10    1.80
   1   1   1    8.70    2.40
   1   1   1    9.50    1.70
   1   1   1    9.30    1.90
   1   1   1   11.60    2.40
   1   1   1    8.00    2.40
  -2  -1  -1  784.22   38.00
  -2  -1  -1  843.32   38.00
  -2  -1  -1  758.22   38.90
   2   1   1  810.72   36.30
   2   1   1  788.82   38.80
   2   1   1  841.12   40.60
  -3  -1  -1  345.87   19.50
  -3  -1  -1  338.67   20.10
   3   1   1  312.77   21.70
   3   1   1  323.47   19.50
   3   1   1  295.07   19.00
   3   1   1  333.17   15.90
  -4  -1  -1    1.30    2.10
  -4  -1  -1    9.80    4.50
  -4  -1  -1    6.40    2.40
   4   1   1    4.30    4.60
   4   1   1   12.40    3.70
   4   1   1   16.20    4.00
  -5  -1  -1  117.39   15.50
  -5  -1  -1  136.69   12.90
  -5  -1  -1  119.99   14.60
   5   1   1  130.49   19.50
   5   1   1  114.39   14.10
  -6  -1  -1   -1.60    3.70
  -6  -1  -1   19.80    4.50
  -6  -1  -1    4.90    3.20
   6   1   1   10.00    3.20
   6   1   1    1.70    1.90
   6  -2  -1   62.49   14.00
   6  -2  -1   63.69    9.90
  -6   2   1   53.49   14.10
  -6   2   1   61.79   12.80
  -6   2   1   65.19   10.60
   5  -2  -1  417.76   24.90
   5  -2  -1  372.06   28.60
  -5   2   1  394.26   27.00
  -5   2   1  352.96   24.10
  -5   2   1  388.86   29.60
   4  -2  -1   16.40    4.40
   4  -2  -1   17.20    6.40
  -4   2   1   19.90    3.00
  -4   2   1   16.20    6.10
  -4   2   1   20.20    4.80
  -4   2   1    4.00    4.10
   3  -2  -1  881.81   44.10
   3  -2  -1  834.02   40.80
  -3   2   1  877.51   44.30
  -3   2   1  795.42   37.80
  -3   2   1  829.02   41.40
  -3   2   1  851.91   42.60
   2  -2  -1  140.99   10.30
   2  -2  -1  127.69    8.60
   2  -2  -1  130.09    8.80
  -2   2   1  133.29   10.30
  -2   2   1  131.09    9.80
  -2   2   1  139.99    6.30
  -2   2   1  148.09    9.70
  -2   2   1  137.59    9.20
   1  -2  -1  593.44   25.50
   1  -2  -1  539.85   26.80
   1  -2  -1  543.05   27.10
   1  -2  -1  599.24   26.90
  -1   2   1  547.15   27.00
  -1   2   1  638.54   26.90
  -1   2   1  561.54   28.00
  -1   2   1  581.64   26.70
   0  -2  -1 3049.79  130.89
   0  -2  -1 3199.48  131.39
   0  -2  -1 2919.61  131.39
   0  -2  -1 2863.61  131.09
   0   2   1 3190.58  131.49
   0   2   1 2982.20  130.89
   0   2   1 2965.60  131.49
   0   2   1 2895.61  130.99
  -1  -2  -1 1540.15   68.99
  -1  -2  -1 1521.25   68.59
  -1  -2  -1 1547.65   68.19
  -1  -2  -1 1445.56   69.09
  -1  -2  -1 1614.14   69.39
  -1  -2  -1 1597.14   68.39
   1   2   1 1550.44   68.99
   1   2   1 1544.45   69.69
   1   2   1 1620.94   68.79
   1   2   1 1449.06   68.49
   1   2   1 1493.75   68.09
   1   2   1 1386.36   68.79
  -2  -2  -1  905.01   42.70
  -2  -2  -1  863.11   43.50
  -2  -2  -1  871.11   42.30
   2   2   1  957.50   44.80
   2   2   1  883.91   44.40
   2   2   1  881.71   43.40
  -3  -2  -1    3.80    2.70
  -3  -2  -1   10.50    4.00
  -3  -2  -1    5.50    2.60
   3   2   1    1.60    2.90
   3   2   1    3.50    2.50
   3   2   1    6.90    3.00
  -4  -2  -1   10.50    4.30
  -4  -2  -1    4.70    2.60
  -4  -2  -1   13.70    3.90
   4   2   1   11.40    4.30
   4   2   1   10.50    4.10
   4   2   1   18.60    4.00
  -5  -2  -1   13.30    4.00
  -5  -2  -1   10.60    3.70
  -5  -2  -1    8.80    4.80
   5   2   1    4.20    3.30
   5   2   1   16.80    4.40
   6  -3  -1   64.99   10.30
   6  -3  -1   73.29   14.60
  -6   3   1   72.89   11.10
  -6   3   1   54.39   14.10
  -6   3   1   63.69   13.10
   5  -3  -1  721.93   44.10
   5  -3  -1  742.73   39.30
  -5   3   1  705.23   44.40
  -5   3   1  650.33   39.00
  -5   3   1  683.63   41.10
   4  -3  -1  521.35   32.90
   4  -3  -1  543.95   29.60
  -4   3   1  532.25   33.30
  -4   3   1  541.35   24.20
  -4   3   1  499.05   29.60
  -4   3   1  524.85   31.30
   3  -3  -1  227.18   16.00
   3  -3  -1  201.28   13.50
  -3   3   1  209.58   15.00
  -3   3   1  209.98   15.90
  -3   3   1  221.38   14.30
   2  -3  -1 2513.65  112.99
   2  -3  -1 2527.55  112.59
   2  -3  -1 2566.64  113.59
  -2   3   1 2494.05  114.09
  -2   3   1 2520.05  115.49
  -2   3   1 2412.46  112.89
  -2   3   1 2730.43  113.19
   1  -3  -1  619.94   31.10
   1  -3  -1  601.44   30.00
   1  -3  -1  671.73   31.80
   1  -3  -1  652.53   31.80
   1  -3  -1  692.33   30.00
  -1   3   1  694.03   30.10
  -1   3   1  638.44   31.40
  -1   3   1  598.04   33.00
  -1   3   1  730.33   30.20
  -1   3   1  674.33   32.90
  -1   3   1  651.73   31.10
   0  -3  -1  641.04   31.10
   0  -3  -1  640.44   31.30
   0  -3  -1  621.14   30.50
   0  -3  -1  673.33   31.20
   0   3   1  676.03   31.40
   0   3   1  612.54   30.90
  -1  -3  -1  799.12   40.70
  -1  -3  -1  842.72   40.50
  -1  -3  -1  857.61   39.10
  -1  -3  -1  817.82   39.70
   1   3   1  873.41   40.60
   1   3   1  808.02   41.30
   1   3   1  881.91   39.60
  -2  -3  -1    3.80    2.20
  -2  -3  -1    1.70    1.90
  -2  -3  -1    0.00    2.00
   2   3   1    4.40    1.90
   2   3   1    2.10    3.40
   2   3   1    4.40    2.60
  -3  -3  -1    5.80    2.70
  -3  -3  -1    2.40    2.40
  -3  -3  -1    0.10    2.80
   3   3   1    2.30    2.50
   3   3   1    4.50    2.00
  -4  -3  -1   23.90    5.90
   4   3   1   22.30    7.10
   4   3   1   34.60    6.60
   4   3   1   24.30    6.30
  -5  -3  -1   -1.50    2.50
  -5  -3  -1   11.50    3.20
  -5  -3  -1   -2.80    1.60
   5   3   1    4.00    1.90
   5   3   1    6.90    3.10
   6  -4  -1   55.69   13.20
   6  -4  -1   50.59    8.90
  -6   4   1   46.50   13.10
  -6   4   1   66.49   13.40
   5  -4  -1  540.25   36.30
   5  -4  -1  531.85   31.80
  -5   4   1  530.65   34.00
  -5   4   1  519.35   32.10
  -5   4   1  570.74   37.50
   4  -4  -1  883.81   47.80
   4  -4  -1  982.80   51.89
  -4   4   1  952.00   49.10
  -4   4   1  971.10   52.99
  -4   4   1  990.80   50.69
   3  -4  -1  850.21   44.00
   3  -4  -1  865.01   42.50
  -3   4   1  862.91   46.00
  -3   4   1  864.71   44.30
  -3   4   1  842.22   42.90
   2  -4  -1  226.98   14.80
   2  -4  -1  238.58   14.70
   2  -4  -1  230.48   14.50
   2  -4  -1  266.57   15.30
  -2   4   1  242.68   17.00
  -2   4   1  266.67   14.30
  -2   4   1  255.37   16.30
  -2   4   1  240.78   15.00
   1  -4  -1  375.66   20.30
   1  -4  -1  403.96   19.10
   1  -4  -1  377.16   20.90
   1  -4  -1  383.96   20.90
  -1   4   1  350.06   20.30
  -1   4   1  379.86   19.30
  -1   4   1  394.36   18.00
   0  -4  -1  167.68   12.40
   0  -4  -1  182.48   12.10
   0  -4  -1  182.28   11.50
   0   4   1  183.88   11.90
   0   4   1  189.78   12.20
  -1  -4  -1   76.39    7.50
  -1  -4  -1   71.59    6.60
  -1  -4  -1   75.59    8.60
   1   4   1   79.49    6.10
   1   4   1   86.59   10.20
   1   4   1   76.19    8.70
  -2  -4  -1 2149.69   93.89
  -2  -4  -1 2121.49   95.39
  -2  -4  -1 2050.79   94.39
   2   4   1 2087.99   94.99
   2   4   1 2055.19   94.39
   2   4   1 1811.42   95.69
  -3  -4  -1    2.20    1.50
  -3  -4  -1   10.70    4.50
  -3  -4  -1    7.30    3.20
   3   4   1    6.30    2.50
   3   4   1   15.40    4.30
  -4  -4  -1 1308.27   61.89
  -4  -4  -1 1338.17   63.49
   4   4   1 1287.57   63.19
   4   4   1 1013.70   63.19
   4   4   1 1170.28   65.49
  -5  -4  -1    6.70    4.80
  -5  -4  -1    2.20    2.10
  -5  -4  -1    6.60    1.60
   5   4   1    4.20    2.30
   5   4   1    5.70    3.80
   5   4   1   16.50    3.60
   6  -5  -1  363.56   30.10
   6  -5  -1  400.46   27.10
  -6   5   1  371.16   28.70
  -6   5   1  397.56   33.10
   5  -5  -1   68.69   10.90
   5  -5  -1   87.79   14.90
  -5   5   1   99.39   13.60
  -5   5   1   92.89   16.20
  -5   5   1   99.39   14.80
   4  -5  -1   20.80    7.40
   4  -5  -1   13.60    4.50
  -4   5   1   21.30    4.60
  -4   5   1   10.40    5.40
  -4   5   1    8.10    5.10
   3  -5  -1  146.29   11.70
   3  -5  -1  154.08   11.80
   3  -5  -1  143.89   12.40
  -3   5   1  148.89   11.80
  -3   5   1  150.98   14.40
  -3   5   1  156.18   13.60
   2  -5  -1  622.24   33.80
   2  -5  -1  666.03   30.50
   2  -5  -1  628.24   34.40
  -2   5   1  639.74   37.40
  -2   5   1  668.53   34.40
  -2   5   1  745.33   32.60
  -2   5   1  677.23   36.40
   1  -5  -1  596.14   31.60
   1  -5  -1  574.94   30.70
  -1   5   1  589.54   29.80
  -1   5   1  657.93   27.20
  -1   5   1  566.04   31.00
   0  -5  -1 2773.52  120.49
   0  -5  -1 2617.54  121.09
   0   5   1 2614.94  120.79
   0   5   1 2727.93  121.19
  -1  -5  -1  333.77   19.80
  -1  -5  -1  327.07   20.70
  -1  -5  -1  343.37   20.80
   1   5   1  331.47   21.70
   1   5   1  344.67   20.60
   1   5   1  347.97   17.90
  -2  -5  -1  877.41   45.20
  -2  -5  -1  891.11   45.00
  -2  -5  -1  927.11   44.20
   2   5   1  882.21   45.10
   2   5   1  861.71   43.40
   2   5   1  749.42   45.80
  -3  -5  -1   12.20    3.90
  -3  -5  -1   13.70    3.70
  -3  -5  -1   12.60    5.10
   3   5   1   18.00    4.50
   3   5   1   10.30    3.30
  -4  -5  -1  111.09   11.50
  -4  -5  -1  132.59   15.90
  -4  -5  -1  109.89   13.70
   4   5   1  103.19   16.30
   4   5   1   98.09   14.90
   4   5   1  116.09   14.30
   6  -6  -1   70.89   11.20
   6  -6  -1   74.59   13.80
  -6   6   1   58.19   12.40
  -6   6   1   76.59   16.50
   5  -6  -1   -2.60    4.40
   5  -6  -1    0.10    0.90
   5  -6  -1    0.80    2.00
  -5   6   1   -0.70    4.00
  -5   6   1    4.50    3.80
  -5   6   1    4.90    2.40
   4  -6  -1 1306.67   63.99
   4  -6  -1 1187.68   64.59
   4  -6  -1 1292.47   63.99
  -4   6   1 1369.06   66.99
  -4   6   1 1366.46   70.29
  -4   6   1 1205.78   63.89
   3  -6  -1   74.79    9.80
   3  -6  -1   66.09    9.30
  -3   6   1   99.89   13.30
  -3   6   1  111.69   12.10
  -3   6   1   83.29   13.10
   2  -6  -1 3428.06  155.28
   2  -6  -1 3405.26  156.08
  -2   6   1 3312.67  155.48
  -2   6   1 3811.22  152.18
  -2   6   1 3319.47  160.28
   1  -6  -1  362.26   21.40
   1  -6  -1  310.57   20.00
  -1   6   1  348.27   20.80
  -1   6   1  348.07   19.50
   0  -6  -1  859.11   45.30
   0  -6  -1  933.51   45.40
   0  -6  -1  896.71   44.20
   0   6   1  894.21   45.00
   0   6   1  830.62   44.40
  -1  -6  -1  168.78   13.00
  -1  -6  -1  187.08   14.40
  -1  -6  -1  194.98   14.50
   1   6   1  166.58   10.10
   1   6   1  203.28   14.40
   1   6   1  184.58   15.20
  -2  -6  -1   11.70    3.60
  -2  -6  -1    6.50    2.60
  -2  -6  -1    4.70    4.10
   2   6   1   14.70    2.80
   2   6   1   14.10    5.30
   2   6   1   15.60    4.00
  -3  -6  -1  510.05   31.20
  -3  -6  -1  539.85   30.90
  -3  -6  -1  521.75   31.80
   3   6   1  482.65   31.00
  -4  -6  -1  412.66   27.80
  -4  -6  -1  470.35   30.00
  -4  -6  -1  394.96   27.20
   4   6   1  469.85   29.00
   4   6   1  457.35   35.00
   5  -7  -1    8.90    2.10
   5  -7  -1    8.10    3.50
  -5   7   1    0.00    3.50
  -5   7   1    8.90    5.40
   4  -7  -1  124.99   11.10
   4  -7  -1  105.19   13.20
  -4   7   1  119.59   10.70
  -4   7   1  103.49   15.40
  -4   7   1  103.69   16.50
   3  -7  -1    2.20    1.80
   3  -7  -1   -2.40    1.50
  -3   7   1   -0.50    1.90
  -3   7   1    0.80    1.30
   2  -7  -1   65.09    9.30
   2  -7  -1   87.09   11.10
  -2   7   1   99.59   11.30
  -2   7   1   79.99   13.30
   1  -7  -1   29.60    6.20
   1  -7  -1   29.10    6.10
  -1   7   1   31.00    5.50
  -1   7   1   32.70    6.10
   0  -7  -1  576.34   32.00
   0  -7  -1  567.84   33.20
   0  -7  -1  592.84   33.30
   0   7   1  600.04   33.10
   0   7   1  575.54   32.80
  -1  -7  -1  683.43   38.20
  -1  -7  -1  679.53   37.20
  -1  -7  -1  722.03   38.80
   1   7   1  641.34   39.00
   1   7   1  721.63   38.50
  -2  -7  -1  441.46   28.80
  -2  -7  -1  493.75   30.40
  -2  -7  -1  510.35   29.20
   2   7   1  424.86   30.90
   2   7   1  533.85   30.50
  -3  -7  -1    3.30    1.40
  -3  -7  -1   -4.50    2.90
  -3  -7  -1    9.90    3.00
   3   7   1    3.30    1.80
   3   7   1    4.60    6.10
   5  -8  -1   95.29   13.60
   5  -8  -1  129.39   11.50
  -5   8   1  125.79   18.80
  -5   8   1  134.89   22.20
   4  -8  -1    2.00    2.90
   4  -8  -1    4.10    1.30
  -4   8   1    8.10    5.30
   3  -8  -1  258.17   18.40
   3  -8  -1  205.58   17.10
  -3   8   1  264.47   23.70
  -3   8   1  249.58   17.70
   2  -8  -1  113.99   13.30
   2  -8  -1  109.89   13.00
  -2   8   1  106.39   17.40
  -2   8   1  147.09   11.90
   1  -8  -1  143.49   12.90
   1  -8  -1  175.88   14.50
  -1   8   1  168.58   13.90
  -1   8   1  168.68   12.60
   0  -8  -1   48.10    8.30
   0  -8  -1   51.49    8.30
   0  -8  -1   47.20    8.00
   0   8   1   32.70    6.50
   0   8   1   50.29    8.70
  -1  -8  -1    8.40    3.10
  -1  -8  -1   15.20    5.20
  -1  -8  -1   11.50    3.50
   1   8   1   12.00    3.00
   1   8   1   20.40    5.20
  -2  -8  -1    1.30    1.60
  -2  -8  -1    5.60    5.20
  -2  -8  -1   11.90    3.20
   2   8   1    4.30    2.10
   4  -9  -1    9.10    3.10
   4  -9  -1   14.90    2.20
  -4   9   1    3.60    5.70
   3  -9  -1    3.70    2.70
   3  -9  -1   11.20    2.20
  -3   9   1    0.70    2.60
   2  -9  -1   14.80    4.70
   2  -9  -1    7.10    2.40
  -2   9   1    9.10    4.80
   1  -9  -1  156.08   14.00
   1  -9  -1  160.18   13.50
  -1   9   1  152.78   13.00
   0  -9  -1   57.69   10.20
   0  -9  -1   61.69    9.30
   0  -9  -1   63.79   10.70
   0   9   1   47.60    7.30
  -1  -9  -1  343.97   23.20
  -1  -9  -1  311.17   23.60
   1   9   1  330.17   23.30
   2 -10  -1   73.39   11.10
   2 -10  -1   88.89   12.50
  -2  10   1   72.99   15.90
  -2  10   1   88.79   14.70
   1 -10  -1   17.30    5.40
   1 -10  -1   35.10    6.90
   1 -10  -1   39.80    6.80
  -1  10   1   24.20    8.00
  -1  10   1    8.50    5.80
  -1  10  -2    1.80    1.80
   1 -10   2   -6.60    1.90
   1 -10   2    7.70    2.60
  -2  10  -2  168.68   18.10
  -2  10  -2  130.99   22.30
   2 -10   2  151.38   13.60
   2 -10   2  138.79   17.10
   1   9  -2   16.30    4.70
   1   9  -2   23.20    6.00
  -1  -9   2   19.30    4.80
  -1  -9   2   11.70    4.70
   0   9  -2   41.40    7.80
   0   9  -2   65.49    9.70
   0  -9   2   62.39   10.10
   0  -9   2   50.29    9.30
  -1   9  -2   27.10    5.60
  -1   9  -2   31.10    5.80
   1  -9   2   30.20    6.20
   1  -9   2   27.10    6.40
  -2   9  -2  193.88   16.60
  -2   9  -2  209.48   22.20
   2  -9   2  189.68   16.00
   2  -9   2  221.78   16.20
  -3   9  -2   27.20    8.60
  -3   9  -2   29.40    5.60
   3  -9   2   40.10    6.40
   3  -9   2   41.40    7.80
  -4   9  -2  147.99   22.80
  -4   9  -2  173.28   15.50
   4  -9   2  166.68   15.10
   2   8  -2  283.27   22.40
   2   8  -2  286.27   20.80
  -2  -8   2  275.47   20.80
  -2  -8   2  245.38   19.00
   1   8  -2    3.30    2.40
   1   8  -2   14.00    4.90
  -1  -8   2   10.50    4.40
  -1  -8   2    9.80    3.40
   0   8  -2  862.11   49.30
   0   8  -2  941.61   50.49
   0  -8   2  971.40   49.60
   0  -8   2  901.71   47.60
   0  -8   2 1026.50   49.90
  -1   8  -2  109.49   13.80
  -1   8  -2   81.69   10.60
   1  -8   2   77.69   10.60
   1  -8   2   79.79   11.00
  -2   8  -2  645.94   42.70
  -2   8  -2  647.94   33.70
  -2   8  -2  653.93   37.80
   2  -8   2  616.64   36.60
   2  -8   2  702.13   36.60
  -3   8  -2    1.50    3.60
  -3   8  -2    7.10    2.70
   3  -8   2    5.70    2.40
  -4   8  -2  154.88   14.20
  -4   8  -2  150.88   21.90
   4  -8   2  159.08   12.70
   4  -8   2  158.78   14.30
  -5   8  -2  232.18   24.20
   5  -8   2  247.68   19.80
   3   7  -2  337.67   26.00
   3   7  -2  367.76   25.00
  -3  -7   2  344.57   24.50
  -3  -7   2  330.17   23.10
   2   7  -2  962.20   51.89
   2   7  -2  937.21   53.09
  -2  -7   2  964.70   51.09
  -2  -7   2  981.10   50.39
   1   7  -2  108.99   13.40
   1   7  -2  110.39   14.70
  -1  -7   2  110.89   12.60
  -1  -7   2   96.89   11.80
  -1  -7   2  115.69    9.30
   0   7  -2  223.08   16.60
   0   7  -2  232.38   13.10
   0   7  -2  215.88   16.60
   0  -7   2  216.38   15.80
   0  -7   2  202.48   14.60
   0  -7   2  232.68   16.30
  -1   7  -2  227.48   16.20
  -1   7  -2  188.38   14.00
   1  -7   2  201.28   14.60
   1  -7   2  196.58   14.80
  -2   7  -2    4.00    1.80
  -2   7  -2    0.70    3.30
  -2   7  -2    7.10    2.80
   2  -7   2    3.30    1.40
   2  -7   2    2.70    1.50
  -3   7  -2  734.93   41.20
  -3   7  -2  751.82   45.10
   3  -7   2  711.93   40.30
   3  -7   2  741.93   38.90
  -4   7  -2   97.89   16.40
  -4   7  -2  110.49   14.90
   4  -7   2  110.49    9.60
   4  -7   2   92.19   12.60
  -5   7  -2  486.95   31.40
  -5   7  -2  442.86   30.20
  -5   7  -2  476.85   35.70
   5  -7   2  467.55   30.60
   4   6  -2  518.75   33.40
   4   6  -2  555.54   36.00
  -4  -6   2  511.45   31.70
   3   6  -2  147.99   13.70
   3   6  -2  187.18   21.40
   3   6  -2  147.49   12.70
  -3  -6   2  180.28   17.20
  -3  -6   2  145.19   12.80
  -3  -6   2  142.89   16.30
   2   6  -2   23.10    5.30
   2   6  -2   35.50    5.90
   2   6  -2   24.20    6.90
  -2  -6   2   36.10    5.80
  -2  -6   2   39.30    7.70
  -2  -6   2   31.60    6.10
   1   6  -2 1150.78   58.69
   1   6  -2 1234.58   55.79
   1   6  -2 1090.89   58.79
  -1  -6   2 1145.19   55.99
  -1  -6   2 1206.48   57.69
  -1  -6   2 1199.88   57.99
   0   6  -2    3.10    1.20
   0   6  -2    2.80    2.60
   0   6  -2    0.80    3.30
   0  -6   2    0.10    1.90
   0  -6   2    0.20    1.20
  -1   6  -2 2412.46  109.49
  -1   6  -2 2290.97  107.09
   1  -6   2 2418.06  107.89
   1  -6   2 2341.97  108.29
  -2   6  -2  549.35   34.90
  -2   6  -2  580.84   29.10
  -2   6  -2  598.64   32.90
   2  -6   2  597.84   32.20
   2  -6   2  581.04   30.90
  -3   6  -2  576.14   27.60
  -3   6  -2  596.44   33.70
  -3   6  -2  593.64   36.20
   3  -6   2  566.74   31.00
   3  -6   2  569.74   32.60
  -4   6  -2   13.50    4.70
  -4   6  -2   16.50    6.40
  -4   6  -2   18.10    6.10
   4  -6   2   12.20    3.50
   4  -6   2   13.90    3.20
  -5   6  -2    1.50    3.50
  -5   6  -2    9.20    2.10
  -5   6  -2    7.30    4.70
   5  -6   2    4.00    2.00
   5  -6   2    7.70    1.40
   4   5  -2    8.10    2.50
   4   5  -2    6.80    5.90
   4   5  -2    9.70    3.00
  -4  -5   2    3.30    1.70
   3   5  -2  487.05   31.70
   3   5  -2  502.55   30.10
   3   5  -2  479.25   29.90
  -3  -5   2  516.85   28.00
  -3  -5   2  486.65   28.60
  -3  -5   2  509.35   30.00
   2   5  -2  272.17   17.10
   2   5  -2  256.37   19.00
   2   5  -2  254.77   17.80
  -2  -5   2  262.67   16.80
  -2  -5   2  239.58   17.00
  -2  -5   2  229.98   15.40
   1   5  -2 1218.28   54.69
   1   5  -2 1118.79   56.69
   1   5  -2 1084.29   56.99
  -1  -5   2 1165.18   56.09
  -1  -5   2 1180.28   55.89
  -1  -5   2 1175.98   54.69
   0   5  -2  593.74   31.50
   0   5  -2  551.04   30.70
   0  -5   2  609.44   30.60
   0  -5   2  597.54   30.70
  -1   5  -2    0.80    1.60
  -1   5  -2    3.40    2.50
  -1   5  -2    1.90    1.00
   1  -5   2    1.10    1.80
   1  -5   2    3.80    1.80
  -2   5  -2  124.99   12.00
  -2   5  -2  124.29    8.50
  -2   5  -2  128.59   11.00
   2  -5   2  125.19   10.40
   2  -5   2  150.38   10.10
  -3   5  -2  332.07   16.00
  -3   5  -2  293.37   20.20
  -3   5  -2  310.97   20.00
  -3   5  -2  303.37   22.10
   3  -5   2  291.77   19.50
   3  -5   2  312.07   18.40
  -4   5  -2   82.69   12.80
  -4   5  -2   73.19   10.90
  -4   5  -2   67.99   10.20
   4  -5   2   56.69    8.80
   4  -5   2   63.49    8.00
   4  -5   2   74.89   12.80
  -5   5  -2 1038.10   53.99
  -5   5  -2 1025.90   58.69
  -5   5  -2  993.30   55.19
   5  -5   2 1029.20   52.09
   5  -5   2 1026.80   54.29
   5  -5   2  957.80   58.09
  -6   5  -2   83.39   12.60
  -6   5  -2   73.09   12.40
  -6   5  -2  122.49   20.60
   6  -5   2   85.99   12.30
   6  -5   2   89.69   17.10
   5   4  -2  165.38   14.40
   5   4  -2  158.98   15.40
  -5  -4   2  158.68   20.60
   4   4  -2    5.90    3.20
   4   4  -2   12.20    6.00
   4   4  -2   28.60    6.40
  -4  -4   2   10.20    3.00
  -4  -4   2   11.00    3.20
   3   4  -2  279.77   19.50
   3   4  -2  264.67   20.00
   3   4  -2  246.28   18.20
  -3  -4   2  266.57   18.50
  -3  -4   2  288.57   17.30
  -3  -4   2  266.17   17.40
   2   4  -2   20.30    6.10
   2   4  -2   22.00    4.90
   2   4  -2   23.40    5.10
  -2  -4   2   19.90    4.80
  -2  -4   2   20.30    4.50
  -2  -4   2   25.80    4.30
   1   4  -2  107.39    8.10
   1   4  -2   97.39    9.20
   1   4  -2   97.89    8.80
  -1  -4   2  110.29    7.70
  -1  -4   2  104.09    8.30
  -1  -4   2  104.99    8.70
   0   4  -2  330.77   20.30
   0   4  -2  392.26   21.40
   0  -4   2  408.86   20.60
   0  -4   2  396.96   20.70
  -1   4  -2   86.19    7.00
  -1   4  -2   86.89    7.80
  -1   4  -2   91.49    6.80
   1  -4   2   93.79    7.60
   1  -4   2   83.29    6.70
   1  -4   2   83.29    6.10
  -2   4  -2  956.80   39.70
  -2   4  -2  815.72   42.70
  -2   4  -2  857.41   41.90
  -2   4  -2  811.72   43.80
   2  -4   2  867.51   40.90
   2  -4   2  798.72   41.80
  -3   4  -2  831.82   42.80
  -3   4  -2  826.62   41.40
  -3   4  -2  869.11   44.50
  -3   4  -2  861.51   38.00
   3  -4   2  799.82   41.60
   3  -4   2  728.93   43.30
  -4   4  -2  251.67   20.20
  -4   4  -2  271.97   19.30
  -4   4  -2  283.17   18.70
   4  -4   2  279.77   18.60
   4  -4   2  240.18   20.80
  -5   4  -2   49.00    9.10
  -5   4  -2   27.00    8.00
  -5   4  -2   44.80    8.90
   5  -4   2   48.80    8.00
   5  -4   2   40.70    6.70
   5  -4   2   33.70   10.10
  -6   4  -2  235.68   23.50
  -6   4  -2  233.78   19.80
  -6   4  -2  191.58   18.20
   6  -4   2  278.67   20.10
   6  -4   2  236.58   23.90
   5   3  -2    6.70    2.40
   5   3  -2   13.00    4.60
  -5  -3   2   14.70    3.40
  -5  -3   2    2.70    4.50
  -5  -3   2    8.40    3.30
   4   3  -2    6.40    5.40
   4   3  -2   14.60    5.10
   4   3  -2    4.40    2.40
  -4  -3   2   11.20    3.30
  -4  -3   2   15.00    3.60
  -4  -3   2    4.80    4.50
   3   3  -2    5.90    3.20
   3   3  -2   -2.10    3.80
   3   3  -2   -2.40    2.70
  -3  -3   2    3.40    2.00
  -3  -3   2    1.90    1.40
   2   3  -2   41.20    6.40
   2   3  -2   40.10    7.20
   2   3  -2   46.60    4.80
   2   3  -2   57.09    7.60
  -2  -3   2   51.19    5.00
  -2  -3   2   45.60    6.40
  -2  -3   2   56.19    6.70
   1   3  -2  368.46   19.10
   1   3  -2  344.57   19.60
   1   3  -2  348.77   20.00
  -1  -3   2  344.57   17.90
  -1  -3   2  358.06   18.90
  -1  -3   2  362.96   19.10
   0   3  -2  113.39    8.50
   0   3  -2  107.69    7.70
   0   3  -2  103.99    7.90
   0   3  -2  111.79    7.50
   0  -3   2  105.39    8.70
   0  -3   2  115.49    7.60
   0  -3   2  117.89    7.90
   0  -3   2  117.09    7.80
  -1   3  -2 4203.58  181.58
  -1   3  -2 3887.21  180.98
   1  -3   2 3620.64  182.08
   1  -3   2 4565.74  180.58
   1  -3   2 4105.09  180.88
   1  -3   2 4393.16  179.98
  -2   3  -2 1871.91   82.69
  -2   3  -2 1816.22   83.99
  -2   3  -2 1947.41   85.09
  -2   3  -2 1722.53   80.79
   2  -3   2 1900.01   83.39
   2  -3   2 1744.33   84.69
  -3   3  -2  476.65   27.40
  -3   3  -2  474.85   26.70
  -3   3  -2  476.25   25.30
   3  -3   2  453.35   25.50
   3  -3   2  443.16   27.90
  -4   3  -2 1007.50   50.99
  -4   3  -2  949.21   52.09
  -4   3  -2  950.70   50.59
  -4   3  -2 1057.69   49.90
   4  -3   2  998.40   49.80
   4  -3   2  907.31   53.29
   4  -3   2  953.20   47.50
  -5   3  -2   22.90    5.90
  -5   3  -2   15.10    6.40
  -5   3  -2   11.70    5.50
   5  -3   2   33.40    6.50
   5  -3   2   23.80    8.60
  -6   3  -2  202.38   18.10
  -6   3  -2  224.38   22.70
  -6   3  -2  201.48   17.30
   6  -3   2  199.38   17.10
   6  -3   2  230.18   29.40
   5   2  -2   31.20    6.20
   5   2  -2   37.00    9.20
  -5  -2   2   28.40    8.10
  -5  -2   2   30.00    6.30
  -5  -2   2   20.40    4.90
   4   2  -2  342.97   24.70
   4   2  -2  356.36   23.20
   4   2  -2  338.77   22.10
  -4  -2   2  377.06   21.80
  -4  -2   2  332.57   23.30
   3   2  -2  390.96   23.80
   3   2  -2  349.87   21.70
   3   2  -2  378.16   22.70
  -3  -2   2  385.46   20.90
  -3  -2   2  361.36   20.70
   2   2  -2 1516.05   69.19
   2   2  -2 1375.66   67.19
   2   2  -2 1440.96   68.39
   2   2  -2 1587.34   69.69
  -2  -2   2 1464.05   67.89
  -2  -2   2 1531.95   67.59
  -2  -2   2 1490.65   67.09
   1   2  -2  883.61   41.70
   1   2  -2  887.91   41.20
   1   2  -2  855.01   40.70
   1   2  -2  877.01   40.60
   1   2  -2  859.01   39.60
   1   2  -2  867.01   41.20
  -1  -2   2  881.81   40.60
  -1  -2   2  864.81   41.20
  -1  -2   2  880.01   40.70
  -1  -2   2  867.01   39.60
  -1  -2   2  945.01   41.70
   0   2  -2  348.57   17.70
   0   2  -2  391.46   17.80
   0   2  -2  345.67   17.10
   0   2  -2  358.76   18.10
   0  -2   2  322.17   17.70
   0  -2   2  352.76   17.60
   0  -2   2  364.36   17.60
   0  -2   2  345.77   17.10
  -1   2  -2  356.26   19.40
  -1   2  -2  360.86   19.20
  -1   2  -2  370.96   18.10
  -1   2  -2  403.76   18.90
  -1   2  -2  332.97   17.70
  -1   2  -2  377.66   18.70
   1  -2   2  359.86   19.00
   1  -2   2  397.46   18.90
   1  -2   2  390.66   18.90
   1  -2   2  379.36   17.60
  -2   2  -2  403.86   22.70
  -2   2  -2  422.86   21.50
  -2   2  -2  452.25   23.20
  -2   2  -2  449.66   24.70
   2  -2   2  432.96   22.30
   2  -2   2  400.36   24.00
  -3   2  -2  162.68   12.00
  -3   2  -2  139.79   10.80
  -3   2  -2  155.08   12.40
  -3   2  -2  157.98   12.30
  -3   2  -2  165.78    9.80
   3  -2   2  147.69   13.30
   3  -2   2  146.39   10.40
   3  -2   2  145.79   11.00
  -4   2  -2  352.76   22.30
  -4   2  -2  316.17   23.20
  -4   2  -2  373.56   22.90
  -4   2  -2  336.47   21.40
   4  -2   2  313.87   20.90
   4  -2   2  326.97   25.10
   4  -2   2  344.67   19.00
  -5   2  -2    1.80    2.40
  -5   2  -2    2.20    3.80
  -5   2  -2    1.60    3.80
  -5   2  -2    4.90    2.10
   5  -2   2    8.10    3.20
   5  -2   2   -4.30    4.70
  -6   2  -2    9.80    3.80
  -6   2  -2    4.70    2.70
  -6   2  -2    5.20    3.70
  -6   2  -2    9.70    6.20
   6  -2   2   -1.60    4.50
   6  -2   2    5.80    2.00
   6   1  -2  163.08   17.30
   6   1  -2  171.08   14.50
  -6  -1   2  160.38   14.10
  -6  -1   2  164.68   21.30
   5   1  -2   13.10    4.40
   5   1  -2    1.40    1.70
  -5  -1   2    5.00    4.20
  -5  -1   2    5.30    1.80
  -5  -1   2   -0.40    1.60
   4   1  -2  337.07   22.00
   4   1  -2  339.57   21.60
   4   1  -2  357.36   25.00
  -4  -1   2  321.57   22.60
  -4  -1   2  390.66   21.90
  -4  -1   2  374.16   21.80
   3   1  -2 1216.98   58.89
   3   1  -2 1302.37   61.59
   3   1  -2 1134.99   58.39
  -3  -1   2 1270.87   59.99
  -3  -1   2 1270.97   58.29
   2   1  -2    1.60    2.20
   2   1  -2    2.20    2.70
   2   1  -2   -0.60    1.60
   2   1  -2    1.00    2.80
   2   1  -2    0.90    1.40
  -2  -1   2    3.00    1.50
  -2  -1   2    0.70    1.70
   1   1  -2 3084.09  139.09
   1   1  -2 3096.39  139.89
   1   1  -2 3287.17  140.79
   1   1  -2 3167.08  139.59
   1   1  -2 3168.58  140.29
   1   1  -2 3186.28  140.09
  -1  -1   2 3283.07  139.59
  -1  -1   2 3262.17  139.99
  -1  -1   2 3401.66  140.49
  -1  -1   2 3232.58  140.09
   0   1  -2  311.57   16.30
   0   1  -2  345.87   16.90
   0  -1   2  381.46   16.20
   0  -1   2  388.06   17.10
   0  -1   2  339.67   17.10
   0  -1   2  368.36   17.20
   0  -1   2  372.66   16.40
  -1   1  -2  383.56   20.30
  -1   1  -2  389.36   19.00
  -1   1  -2  414.56   19.70
  -1   1  -2  393.06   19.50
   1  -1   2  393.36   19.30
   1  -1   2  354.96   20.30
   1  -1   2  403.16   19.20
   1  -1   2  407.56   19.70
  -2   1  -2  350.36   18.40
  -2   1  -2  385.76   20.00
  -2   1  -2  354.56   19.30
   2  -1   2  353.36   21.10
   2  -1   2  368.96   19.10
   2  -1   2  331.97   18.20
  -3   1  -2   58.29    7.90
  -3   1  -2   47.80    7.40
  -3   1  -2   81.19    8.80
  -3   1  -2   50.29    8.40
   3  -1   2   46.60    4.60
   3  -1   2   40.00    6.30
   3  -1   2   49.70    9.30
  -4   1  -2   16.30    4.50
  -4   1  -2    9.30    3.50
  -4   1  -2    8.80    4.00
  -4   1  -2   11.70    4.20
   4  -1   2   11.70    2.50
   4  -1   2    6.60    3.00
   4  -1   2    4.50    4.80
  -5   1  -2   54.39    9.50
  -5   1  -2   36.50    8.00
  -5   1  -2   49.50   11.40
  -5   1  -2   50.79    9.20
   5  -1   2   48.70   11.40
   5  -1   2   48.40    8.10
  -6   1  -2    8.00    3.40
  -6   1  -2    4.60    1.70
  -6   1  -2    4.00    3.90
   6  -1   2   15.60    3.30
   6  -1   2    7.30    4.20
   6   0  -2    4.90    2.10
   6   0  -2   11.60    5.10
  -6   0   2    7.60    5.30
  -6   0   2   11.10    2.90
   5   0  -2 1067.29   58.39
   5   0  -2 1075.19   53.09
  -5   0   2 1024.80   52.59
  -5   0   2 1081.89   53.29
  -5   0   2 1066.99   55.79
  -5   0   2  812.32   57.49
   4   0  -2  296.37   18.40
   4   0  -2  281.57   21.60
   4   0  -2  286.47   18.70
  -4   0   2  297.97   20.50
  -4   0   2  273.97   22.80
  -4   0   2  306.77   18.70
  -4   0   2  306.87   19.20
   3   0  -2  637.94   35.60
   3   0  -2  639.64   32.70
   3   0  -2  645.84   33.20
  -3   0   2  592.04   36.60
  -3   0   2  681.43   34.80
  -3   0   2  692.83   33.60
  -3   0   2  732.93   33.40
   2   0  -2  176.38   11.80
   2   0  -2  177.88   10.50
   2   0  -2  165.28   10.20
   2   0  -2  173.08   10.40
   2   0  -2  155.88    9.50
  -2   0   2  151.38   12.00
  -2   0   2  178.18   10.00
  -2   0   2  190.88   10.30
  -2   0   2  154.78   10.20
  -2   0   2  176.28   11.30
  -1   0   2 3475.15  156.98
  -1   0   2 3736.13  156.18
   0   0   2  191.88   10.10
   0   0   2  270.07   11.40
  -1   0  -2  196.28   11.10
  -1   0  -2  215.28   10.60
  -1   0  -2  192.08   11.40
  -1   0  -2  218.88   10.70
   1   0   2  172.58   10.20
   1   0   2  204.78    9.70
   1   0   2  194.08   11.10
   1   0   2  200.48   10.50
   1   0   2  176.48   11.40
   1   0   2  201.28   10.20
  -2   0  -2 1060.39   49.80
  -2   0  -2 1033.60   49.99
  -2   0  -2 1095.19   49.50
  -2   0  -2 1098.99   50.89
   2   0   2 1091.89   52.29
   2   0   2 1098.19   48.90
   2   0   2 1012.40   48.60
   2   0   2 1123.29   50.29
  -3   0  -2  612.64   33.30
  -3   0  -2  601.04   35.70
  -3   0  -2  685.53   34.50
  -3   0  -2  686.33   33.30
   3   0   2  657.63   33.60
   3   0   2  658.73   36.70
   3   0   2  632.94   30.60
  -4   0  -2   16.20    4.70
  -4   0  -2   21.80    5.90
  -4   0  -2   16.10    5.30
  -4   0  -2   19.20    6.40
   4   0   2   24.30    7.60
   4   0   2   25.10    5.30
  -5   0  -2  621.64   36.80
  -5   0  -2  636.24   37.30
  -5   0  -2  631.64   36.90
   5   0   2  665.83   36.90
   5   0   2  599.24   41.30
  -6   0  -2   48.30    8.70
  -6   0  -2   35.80    7.80
  -6   0  -2   49.00   10.00
   6   0   2   22.70    7.20
   6   0   2   28.70    5.60
   6  -1  -2   99.29   16.90
   6  -1  -2   64.89   10.20
  -6   1   2   95.29   15.90
  -6   1   2   65.69   15.70
  -6   1   2   76.89   11.10
   5  -1  -2  486.05   28.30
   5  -1  -2  470.45   32.80
  -5   1   2  460.65   30.50
  -5   1   2  493.85   28.40
  -5   1   2  416.16   32.80
   4  -1  -2   60.59   11.50
   4  -1  -2   72.39    9.20
  -4   1   2   89.59   14.10
  -4   1   2   96.79   10.70
  -4   1   2   72.99   11.20
   3  -1  -2   11.90    3.50
   3  -1  -2   13.80    3.30
   3  -1  -2   10.50    4.70
   3  -1  -2   13.80    2.90
  -3   1   2   15.20    2.70
  -3   1   2   10.80    4.40
  -3   1   2    9.80    2.90
  -3   1   2   15.10    4.70
   2  -1  -2    0.00    1.70
   2  -1  -2    1.20    2.80
   2  -1  -2    1.00    1.70
   2  -1  -2   -0.40    1.50
   2  -1  -2    2.50    1.90
  -2   1   2    3.00    2.40
  -2   1   2    4.00    1.80
  -2   1   2    1.50    2.20
  -2   1   2    2.20    1.20
  -2   1   2    0.20    1.40
  -2   1   2    2.20    2.10
  -1   1   2   -0.60    0.10
  -1  -1  -2 7603.04  319.07
  -1  -1  -2 7761.92  320.17
  -1  -1  -2 7095.79  320.27
   1   1   2 7044.90  320.17
   1   1   2 7473.65  319.07
  -2  -1  -2  152.58   11.10
  -2  -1  -2  154.78    9.80
   2   1   2  152.68   11.80
   2   1   2  158.98    9.10
   2   1   2  165.78   10.80
  -3  -1  -2 2263.37   97.99
  -3  -1  -2 2113.79   98.39
   3   1   2 2165.98   94.09
   3   1   2 2081.99   97.69
   3   1   2 1961.60   97.49
   3   1   2 2203.48  101.39
  -4  -1  -2  183.08   14.50
  -4  -1  -2  164.28   13.20
  -4  -1  -2  173.68   13.80
   4   1   2  133.09   14.90
   4   1   2  150.98   12.60
  -5  -1  -2   -3.30    2.50
  -5  -1  -2    2.30    2.40
  -5  -1  -2    2.50    1.60
   5   1   2    2.50    1.70
   5   1   2    1.50    3.40
   6  -2  -2    7.00    5.70
   6  -2  -2    5.10    2.60
  -6   2   2    1.60    3.30
  -6   2   2    4.10    1.50
  -6   2   2    5.20    5.60
   5  -2  -2  448.06   27.80
   5  -2  -2  460.05   32.30
  -5   2   2  484.05   34.00
  -5   2   2  521.55   31.90
  -5   2   2  440.96   27.90
   4  -2  -2  348.77   25.60
   4  -2  -2  386.26   22.70
  -4   2   2  368.86   26.50
  -4   2   2  380.96   23.00
  -4   2   2  400.16   25.50
  -4   2   2  425.36   19.60
   3  -2  -2 2205.78  103.59
   3  -2  -2 2180.28  106.49
   3  -2  -2 2512.55  103.79
  -3   2   2 2398.56  100.89
  -3   2   2 2318.87  107.89
  -3   2   2 2331.67  106.49
  -3   2   2 2242.38  104.29
   2  -2  -2  818.22   39.70
   2  -2  -2  810.72   38.00
   2  -2  -2  782.72   37.80
  -2   2   2  835.72   40.80
  -2   2   2  760.22   38.10
  -2   2   2  838.02   40.10
  -2   2   2  873.31   39.60
   1  -2  -2 1673.33   71.39
   1  -2  -2 1585.24   71.39
   1  -2  -2 1647.94   70.49
   1  -2  -2 1587.94   71.19
  -1   2   2 1573.74   70.89
  -1   2   2 1574.04   71.19
  -1   2   2 1635.64   73.09
  -1   2   2 1669.13   71.29
   0  -2  -2  438.16   20.50
   0  -2  -2  391.36   20.30
   0  -2  -2  410.06   19.90
   0  -2  -2  429.96   19.70
   0  -2  -2  411.26   18.60
   0   2   2  415.16   20.50
   0   2   2  403.96   19.80
   0   2   2  408.96   20.20
   0   2   2  423.86   19.70
  -1  -2  -2  394.16   19.70
  -1  -2  -2  370.06   18.70
  -1  -2  -2  373.66   19.30
  -1  -2  -2  397.76   19.10
  -1  -2  -2  355.96   20.10
   1   2   2  376.96   19.30
   1   2   2  375.66   19.40
   1   2   2  381.96   18.70
   1   2   2  369.06   19.20
   1   2   2  325.47   19.60
  -2  -2  -2  779.22   39.10
  -2  -2  -2  822.82   39.40
  -2  -2  -2  771.72   40.70
   2   2   2  834.22   42.10
   2   2   2  839.32   41.40
   2   2   2  853.91   38.10
   2   2   2  812.92   40.20
  -3  -2  -2  954.90   45.50
  -3  -2  -2  892.61   47.10
   3   2   2  953.60   42.80
   3   2   2  871.81   47.60
   3   2   2  917.61   46.60
   3   2   2  947.61   49.30
  -4  -2  -2  709.53   37.00
  -4  -2  -2  710.83   37.90
  -4  -2  -2  671.53   37.10
   4   2   2  579.24   36.40
   4   2   2  655.13   40.20
   4   2   2  623.44   36.20
  -5  -2  -2  165.88   14.70
  -5  -2  -2  187.98   16.00
  -5  -2  -2  151.68   18.00
   5   2   2  142.39   15.90
   5   2   2  161.58   14.20
   6  -3  -2    5.10    3.00
   6  -3  -2    9.60    5.80
  -6   3   2    3.30    4.80
  -6   3   2    0.30    3.80
   5  -3  -2 1263.57   62.69
   5  -3  -2 1228.88   67.49
  -5   3   2 1200.88   65.49
  -5   3   2 1254.17   63.19
  -5   3   2 1303.27   69.79
   4  -3  -2    0.20    2.10
   4  -3  -2   -2.20    4.00
  -4   3   2    5.70    1.80
  -4   3   2   -1.30    3.20
  -4   3   2    2.30    2.90
   3  -3  -2  882.41   45.60
   3  -3  -2  886.31   43.20
   3  -3  -2  926.11   43.30
  -3   3   2  858.51   43.60
  -3   3   2  911.21   47.10
  -3   3   2  909.51   45.80
   2  -3  -2  726.53   34.80
   2  -3  -2  652.73   33.60
   2  -3  -2  719.83   34.20
  -2   3   2  708.93   34.20
  -2   3   2  696.73   35.80
  -2   3   2  677.33   36.50
  -2   3   2  771.92   34.70
   1  -3  -2   97.59    5.90
   1  -3  -2   92.29    7.00
   1  -3  -2  110.59    7.10
   1  -3  -2  112.59    6.50
   1  -3  -2  104.69    7.90
  -1   3   2  109.79    8.60
  -1   3   2   97.39    6.90
  -1   3   2   97.39    8.40
  -1   3   2  101.39    5.80
  -1   3   2  100.29    6.60
   0  -3  -2 3967.70  166.18
   0  -3  -2 3660.83  166.48
   0  -3  -2 3796.32  167.18
   0   3   2 3761.32  166.38
   0   3   2 3861.21  166.98
  -1  -3  -2  597.04   31.00
  -1  -3  -2  569.44   29.80
  -1  -3  -2  606.34   30.00
  -1  -3  -2  602.54   29.20
  -1  -3  -2  606.84   28.50
   1   3   2  587.74   30.90
   1   3   2  604.54   30.00
   1   3   2  583.04   28.80
  -2  -3  -2 2044.00   91.69
  -2  -3  -2 2096.19   91.29
  -2  -3  -2 1909.31   92.79
   2   3   2 1887.61   91.89
   2   3   2 2092.39   92.79
  -3  -3  -2   80.89    9.80
  -3  -3  -2   77.89    9.50
  -3  -3  -2   82.79   10.80
   3   3   2   72.99    9.80
   3   3   2   76.69   11.90
   3   3   2  114.69   14.70
  -4  -3  -2  328.07   22.40
   4   3   2  310.97   23.40
   4   3   2  310.37   23.90
   4   3   2  313.97   21.60
  -5  -3  -2   15.40    3.30
  -5  -3  -2    4.10    3.90
  -5  -3  -2   11.30    3.50
   5   3   2    5.00    2.70
   5   3   2    8.50    2.30
   6  -4  -2    5.80    3.20
   6  -4  -2   21.30    7.70
  -6   4   2    4.70    5.30
  -6   4   2   18.20    7.50
   5  -4  -2   54.29   11.90
   5  -4  -2   39.40    7.70
  -5   4   2   47.10    8.20
  -5   4   2   25.90    8.50
  -5   4   2   56.59   12.30
   4  -4  -2  563.74   34.40
   4  -4  -2  576.44   31.60
  -4   4   2  577.84   34.20
  -4   4   2  576.74   32.10
  -4   4   2  602.24   36.60
   3  -4  -2   68.69    8.20
   3  -4  -2   69.99    9.50
  -3   4   2   81.49   11.80
  -3   4   2   69.79   10.20
  -3   4   2   68.69    8.30
   2  -4  -2 1141.49   49.99
   2  -4  -2 1116.69   53.39
   2  -4  -2 1160.38   54.89
   2  -4  -2 1067.69   53.39
   2  -4  -2 1099.59   53.99
  -2   4   2 1190.08   54.09
  -2   4   2 1118.99   56.09
  -2   4   2 1278.87   53.49
  -2   4   2 1185.58   57.59
   1  -4  -2  515.75   27.20
   1  -4  -2  492.95   26.40
   1  -4  -2  556.74   26.30
   1  -4  -2  516.25   25.30
  -1   4   2  521.15   26.30
   0  -4  -2  584.14   30.20
   0  -4  -2  584.74   30.60
   0  -4  -2  587.94   29.50
   0   4   2  612.64   30.10
   0   4   2  625.14   30.60
  -1  -4  -2  249.28   15.70
  -1  -4  -2  234.78   16.10
  -1  -4  -2  263.97   15.10
  -1  -4  -2  236.48   13.20
   1   4   2  247.98   13.60
   1   4   2  240.38   16.50
   1   4   2  262.87   15.70
  -2  -4  -2   83.89   10.40
  -2  -4  -2   98.59   10.60
  -2  -4  -2   87.79    7.90
   2   4   2   79.69    8.00
   2   4   2   97.49   10.80
  -3  -4  -2   30.30    6.30
  -3  -4  -2   25.50    5.30
  -3  -4  -2   18.60    5.30
   3   4   2   25.50    5.50
   3   4   2   38.60    9.20
   3   4   2   25.50    6.20
  -4  -4  -2  812.02   44.30
   4   4   2  753.72   46.60
   4   4   2  739.53   45.00
   4   4   2  798.22   43.40
  -5  -4  -2   60.69   10.10
  -5  -4  -2   71.79   12.80
   5   4   2   56.99    9.20
   5   4   2   83.99   11.70
   6  -5  -2  187.88   20.00
   6  -5  -2  148.59   17.70
  -6   5   2  182.48   23.60
  -6   5   2  210.38   22.50
   5  -5  -2   65.09   12.60
   5  -5  -2   70.99   10.60
  -5   5   2   70.49   12.80
  -5   5   2   66.19   13.50
  -5   5   2   75.29   10.70
   4  -5  -2  176.98   13.90
   4  -5  -2  181.18   15.80
  -4   5   2  184.68   17.50
  -4   5   2  182.08   13.90
  -4   5   2  192.28   16.50
   3  -5  -2   82.79    9.60
   3  -5  -2   85.69    8.90
   3  -5  -2   93.19   10.40
  -3   5   2   84.69   12.50
  -3   5   2   83.69   11.90
  -3   5   2   88.99   10.10
   2  -5  -2   50.79    6.70
   2  -5  -2   34.40    6.00
   2  -5  -2   43.70    3.40
  -2   5   2   52.39    7.10
  -2   5   2   41.10    8.10
  -2   5   2   46.80    6.70
  -2   5   2   37.60    7.50
  -2   5   2   48.40    4.20
   1  -5  -2   85.19    9.30
   1  -5  -2   74.59    8.10
  -1   5   2   76.79    8.30
   0  -5  -2  581.74   30.70
   0  -5  -2  588.64   29.60
   0   5   2  563.94   30.20
   0   5   2  552.54   29.80
  -1  -5  -2    9.00    4.20
  -1  -5  -2    6.70    2.60
  -1  -5  -2    7.80    3.20
   1   5   2   15.50    2.50
   1   5   2   11.60    4.60
   1   5   2   10.00    2.80
  -2  -5  -2  876.91   46.50
  -2  -5  -2  892.11   45.70
  -2  -5  -2  909.71   44.70
   2   5   2  875.51   45.60
   2   5   2  851.81   43.60
  -3  -5  -2   48.70    7.90
  -3  -5  -2   36.00    7.90
  -3  -5  -2   41.70    8.40
   3   5   2   41.30    7.40
   3   5   2   45.40    7.90
   3   5   2   42.00   10.70
  -4  -5  -2  306.77   21.60
  -4  -5  -2  305.97   20.70
  -4  -5  -2  274.27   21.10
   4   5   2  283.07   25.00
   4   5   2  250.47   21.60
   4   5   2  260.57   20.00
   6  -6  -2    7.40    4.80
   6  -6  -2    3.80    1.90
  -6   6   2   12.00    6.50
  -6   6   2   -3.20    2.50
   5  -6  -2   33.20    6.40
   5  -6  -2   39.10    9.30
   5  -6  -2   21.80    5.50
  -5   6   2   17.60    7.20
  -5   6   2   25.00    7.90
   4  -6  -2  110.49   12.10
   4  -6  -2  106.39   12.40
   4  -6  -2  118.89   13.40
  -4   6   2  121.49   10.60
  -4   6   2  120.29   17.30
  -4   6   2  134.79   16.80
   3  -6  -2    3.40    1.80
   3  -6  -2   -2.90    2.20
   3  -6  -2   -2.40    1.60
  -3   6   2    0.80    1.30
  -3   6   2    3.70    4.20
  -3   6   2    3.10    3.50
  -3   6   2    5.70    1.50
   2  -6  -2  110.09    9.80
   2  -6  -2  128.89   11.00
  -2   6   2  122.39   10.40
  -2   6   2  127.09   13.10
  -2   6   2  120.19    7.40
  -2   6   2  128.99   10.20
   1  -6  -2   95.79   10.90
   1  -6  -2   96.29    8.80
  -1   6   2  107.09    9.00
   0  -6  -2  226.18   16.40
   0  -6  -2  191.78   15.10
   0  -6  -2  224.08   14.90
   0   6   2  221.98   15.50
   0   6   2  231.18   15.30
  -1  -6  -2   -6.90    2.50
  -1  -6  -2    3.30    1.80
  -1  -6  -2    0.70    1.20
   1   6   2    0.90    1.50
   1   6   2    0.70    2.40
  -2  -6  -2  294.37   18.90
  -2  -6  -2  258.47   19.50
  -2  -6  -2  288.67   20.00
   2   6   2  265.67   18.80
  -3  -6  -2  399.46   25.40
  -3  -6  -2  412.16   26.60
  -3  -6  -2  407.26   26.80
   3   6   2  360.66   30.60
   3   6   2  414.96   26.40
   5  -7  -2   91.99   12.40
   5  -7  -2   91.19   11.60
  -5   7   2  121.29   19.90
  -5   7   2   85.09   14.70
   4  -7  -2    7.00    1.80
   4  -7  -2    4.20    2.70
  -4   7   2    2.70    5.00
  -4   7   2    3.00    4.40
  -4   7   2    6.00    1.70
   3  -7  -2  538.95   31.70
   3  -7  -2  519.45   30.60
  -3   7   2  564.14   31.10
  -3   7   2  545.85   30.20
  -3   7   2  531.65   36.10
   2  -7  -2  350.86   22.50
   2  -7  -2  368.26   23.70
  -2   7   2  380.76   22.80
  -2   7   2  380.16   24.00
  -2   7   2  387.96   27.90
   1  -7  -2  388.66   22.50
   1  -7  -2  333.57   22.90
  -1   7   2  374.16   22.60
   0  -7  -2  209.58   16.30
   0  -7  -2  218.88   16.20
   0  -7  -2  214.48   15.00
   0   7   2  171.98   14.30
  -1  -7  -2  332.97   21.30
  -1  -7  -2  322.37   22.40
  -1  -7  -2  351.96   23.10
   1   7   2  314.47   21.50
  -2  -7  -2   84.69   12.20
  -2  -7  -2   92.79   11.90
  -2  -7  -2   87.79   12.40
   2   7   2   68.39   15.30
   2   7   2   90.79   11.10
  -3  -7  -2    2.30    2.10
  -3  -7  -2    2.40    1.60
  -3  -7  -2   -5.00    2.80
   3   7   2    6.30    2.00
   3   7   2    5.10    6.60
   5  -8  -2  250.97   18.40
   5  -8  -2  203.38   17.70
  -5   8   2  230.38   24.30
  -5   8   2  210.28   25.10
   4  -8  -2   64.19    9.80
   4  -8  -2   65.09   10.00
  -4   8   2   54.19   13.60
   3  -8  -2   60.09    9.30
   3  -8  -2   56.59    9.40
  -3   8   2   35.90   10.00
  -3   8   2   68.99   12.70
   2  -8  -2  271.97   19.50
   2  -8  -2  248.58   18.00
  -2   8   2  264.57   20.00
  -2   8   2  261.57   18.20
  -2   8   2  260.17   23.40
   1  -8  -2    6.50    3.30
   1  -8  -2    1.80    2.70
  -1   8   2    4.90    2.10
   0  -8  -2  570.94   33.80
   0  -8  -2  581.84   32.60
   0  -8  -2  533.95   33.80
   0   8   2  574.34   32.80
  -1  -8  -2   25.70    6.80
  -1  -8  -2   31.10    6.30
  -1  -8  -2   25.50    5.80
   1   8   2   26.00    8.90
   1   8   2   21.10    4.30
  -2  -8  -2    3.20    1.60
  -2  -8  -2   -6.20    2.80
  -2  -8  -2   -0.90    1.30
   2   8   2    2.20    1.70
   2   8   2   -4.50    4.90
   4  -9  -2  496.95   32.30
   4  -9  -2  512.65   32.30
  -4   9   2  547.35   40.50
   3  -9  -2  141.59   15.90
   3  -9  -2  142.49   13.10
  -3   9   2  144.79   21.70
   2  -9  -2   78.09   11.50
   2  -9  -2   76.99   11.00
  -2   9   2   86.29   16.10
  -2   9   2   82.49   13.10
   1  -9  -2  248.58   18.00
   1  -9  -2  243.68   19.00
   1  -9  -2  230.78   18.80
  -1   9   2  198.48   21.70
  -1   9   2  244.88   21.70
   0  -9  -2   75.79   11.10
   0  -9  -2   61.59   10.30
   0  -9  -2   58.79    9.80
   0   9   2   54.29   12.70
  -1  -9  -2   11.60    3.10
  -1  -9  -2   12.90    2.80
  -1  -9  -2    6.70    4.20
   1   9   2   12.40    5.80
   2 -10  -2  100.09   13.20
   2 -10  -2  100.29   14.30
  -2  10   2  118.49   20.20
  -2  10   2  102.19   15.90
  -1  10  -3  165.38   15.10
   1 -10   3  158.98   14.10
   1 -10   3  156.88   14.30
   1   9  -3  102.19   13.50
   1   9  -3   98.49   14.70
  -1  -9   3  119.79   15.20
  -1  -9   3  131.39   15.50
   0   9  -3  311.07   22.40
   0  -9   3  282.67   21.30
   0  -9   3  341.87   22.40
  -1   9  -3   32.60    6.60
  -1   9  -3   29.90    5.80
   1  -9   3   32.70    6.60
   1  -9   3   42.90    7.90
  -2   9  -3  117.29   15.20
  -2   9  -3   89.89   17.10
   2  -9   3  117.29   13.40
   2  -9   3  103.49   13.00
  -3   9  -3  347.57   24.80
  -3   9  -3  316.97   28.70
   3  -9   3  322.87   23.50
   3  -9   3  373.66   22.70
  -4   9  -3    2.40    4.00
  -4   9  -3   19.40    3.40
   4  -9   3    2.60    1.50
   2   8  -3  231.98   19.70
  -2  -8   3  233.78   18.60
  -2  -8   3  215.48   17.00
   1   8  -3  182.58   16.90
   1   8  -3  231.28   18.70
  -1  -8   3  227.18   17.00
  -1  -8   3  217.98   17.10
   0   8  -3   47.50    8.60
   0   8  -3   37.10    7.70
   0  -8   3   36.20    6.90
   0  -8   3   34.90    7.00
   0  -8   3   42.00    7.60
  -1   8  -3  282.27   19.40
  -1   8  -3  295.37   21.30
   1  -8   3  277.57   19.80
   1  -8   3  299.47   19.70
  -2   8  -3  831.02   45.10
  -2   8  -3  799.92   40.60
  -2   8  -3  774.12   48.90
   2  -8   3  779.92   43.50
  -3   8  -3   93.89   16.10
  -3   8  -3  121.89   15.10
   3  -8   3  109.69    9.90
   3  -8   3  101.09   13.10
  -4   8  -3  415.76   28.30
  -4   8  -3  411.16   32.20
   4  -8   3  404.56   27.50
   3   7  -3  130.69   17.40
   3   7  -3  126.29   15.20
  -3  -7   3  109.39   14.90
  -3  -7   3  133.29   11.90
   2   7  -3  190.38   15.90
   2   7  -3  205.58   17.30
  -2  -7   3  176.88   15.00
  -2  -7   3  157.38   13.80
   1   7  -3  172.68   11.90
   1   7  -3  167.68   14.60
   1   7  -3  160.38   14.90
  -1  -7   3  170.78   13.70
  -1  -7   3  188.08   14.60
   0   7  -3  106.59    8.20
   0   7  -3  106.39   12.90
   0   7  -3  112.59   11.00
   0  -7   3  103.59    8.60
   0  -7   3  122.39   12.90
   0  -7   3  120.49   10.50
  -1   7  -3   32.30    6.10
  -1   7  -3   39.70    7.40
   1  -7   3   28.80    6.10
   1  -7   3   31.50    5.60
  -2   7  -3  174.18   17.50
  -2   7  -3  184.48   12.80
  -2   7  -3  201.38   15.70
   2  -7   3  188.18   14.80
   2  -7   3  209.78   14.10
  -3   7  -3  327.87   25.60
  -3   7  -3  321.67   22.80
   3  -7   3  312.67   19.90
   3  -7   3  354.16   22.70
  -4   7  -3   23.60    7.90
  -4   7  -3   28.70    5.70
   4  -7   3   26.10    6.00
   4  -7   3   25.50    3.70
  -5   7  -3  564.74   39.80
  -5   7  -3  555.14   35.70
   5  -7   3  551.14   35.10
   4   6  -3   29.80    7.40
   4   6  -3   16.40    3.20
   4   6  -3   23.20    4.00
  -4  -6   3   27.90    6.00
   3   6  -3  205.68   19.10
   3   6  -3  211.88   17.40
   3   6  -3  220.58   16.60
  -3  -6   3  248.48   17.10
  -3  -6   3  209.38   17.10
   2   6  -3  232.68   17.90
   2   6  -3  254.17   16.60
   2   6  -3  226.18   18.60
  -2  -6   3  225.78   14.70
  -2  -6   3  245.68   16.80
  -2  -6   3  237.58   17.20
   1   6  -3  334.87   21.00
   1   6  -3  305.87   17.90
   1   6  -3  279.67   20.30
  -1  -6   3  288.47   18.90
  -1  -6   3  285.07   19.00
  -1  -6   3  296.07   17.20
   0   6  -3  562.44   32.20
   0   6  -3  555.14   31.70
   0  -6   3  590.94   31.00
   0  -6   3  582.54   31.20
  -1   6  -3  865.41   44.10
  -1   6  -3  767.62   41.40
   1  -6   3  860.41   43.00
   1  -6   3  862.01   41.80
  -2   6  -3    5.80    1.90
  -2   6  -3    5.00    2.90
  -2   6  -3    3.20    3.60
   2  -6   3    7.80    3.20
   2  -6   3    7.20    2.30
  -3   6  -3  418.76   27.90
  -3   6  -3  400.06   25.60
  -3   6  -3  407.46   20.70
   3  -6   3  382.96   22.40
   3  -6   3  370.16   24.30
  -4   6  -3    7.80    5.00
  -4   6  -3   11.00    3.60
  -4   6  -3   13.00    4.30
   4  -6   3   10.80    3.40
   4  -6   3   12.40    2.90
  -5   6  -3  204.68   17.80
  -5   6  -3  231.18   21.60
   5  -6   3  213.68   17.50
   4   5  -3   64.39   10.00
   4   5  -3   81.29   11.70
   4   5  -3   60.69   11.60
  -4  -5   3   73.69   10.40
   3   5  -3   -0.80    1.40
   3   5  -3   -2.80    1.40
   3   5  -3   -7.40    3.00
  -3  -5   3   -1.70    1.00
  -3  -5   3    2.00    3.00
  -3  -5   3    1.40    1.50
   2   5  -3  243.88   16.10
   2   5  -3  251.17   18.30
   2   5  -3  233.38   16.90
  -2  -5   3  226.48   15.60
  -2  -5   3  232.28   14.20
  -2  -5   3  217.78   15.90
   1   5  -3  453.75   24.00
   1   5  -3  440.26   26.10
   1   5  -3  414.46   25.50
  -1  -5   3  431.86   22.60
  -1  -5   3  462.05   24.80
  -1  -5   3  440.06   24.70
   0   5  -3  659.23   34.50
   0   5  -3  594.14   33.30
   0  -5   3  655.13   32.80
   0  -5   3  675.13   33.40
  -1   5  -3  269.67   17.50
  -1   5  -3  260.67   15.90
   1  -5   3  278.77   15.80
   1  -5   3  258.97   16.70
  -2   5  -3  615.14   35.00
  -2   5  -3  620.14   36.50
  -2   5  -3  698.03   32.20
   2  -5   3  678.93   34.80
   2  -5   3  647.54   32.70
  -3   5  -3  322.17   16.10
  -3   5  -3  281.27   21.00
  -3   5  -3  294.77   18.70
  -3   5  -3  297.47   20.20
   3  -5   3  296.17   17.30
   3  -5   3  261.77   18.70
  -4   5  -3   12.20    4.20
  -4   5  -3   22.70    6.90
  -4   5  -3    9.50    3.70
   4  -5   3   16.90    3.20
   4  -5   3    8.70    3.00
  -5   5  -3   43.20    7.80
  -5   5  -3   52.19   12.40
  -5   5  -3   44.10    8.90
   5  -5   3   47.80    8.50
   5  -5   3   30.80    6.60
  -6   5  -3   11.80    2.80
  -6   5  -3   12.50    6.90
   6  -5   3   17.20    3.40
   5   4  -3   15.80    3.90
   5   4  -3   10.30    5.20
   5   4  -3    6.50    1.80
  -5  -4   3   16.20    6.10
   4   4  -3  840.82   46.60
   4   4  -3  816.92   46.00
   4   4  -3  753.92   44.00
  -4  -4   3  845.52   41.80
  -4  -4   3  790.62   42.70
   3   4  -3    9.50    4.20
   3   4  -3   15.20    6.40
   3   4  -3   12.30    3.80
  -3  -4   3    1.90    2.90
  -3  -4   3    2.10    1.70
  -3  -4   3    8.20    2.40
   2   4  -3  866.11   43.00
   2   4  -3  858.61   44.30
   2   4  -3  808.22   43.10
  -2  -4   3  857.41   42.10
  -2  -4   3  871.61   42.70
  -2  -4   3  828.02   40.10
   1   4  -3  107.39    8.30
   1   4  -3   99.99    9.00
   1   4  -3  102.49    9.40
  -1  -4   3  104.39    8.40
  -1  -4   3  101.09    6.80
  -1  -4   3  101.59    8.10
   0   4  -3   15.90    4.10
   0   4  -3   25.60    5.00
   0  -4   3   18.40    3.50
   0  -4   3   14.50    3.40
  -1   4  -3   39.30    4.70
  -1   4  -3   53.69    6.10
  -1   4  -3   44.70    6.70
   1  -4   3   36.30    5.50
   1  -4   3   41.80    5.00
   1  -4   3   38.60    4.90
  -2   4  -3  247.28   17.60
  -2   4  -3  260.97   17.40
  -2   4  -3  297.97   15.10
   2  -4   3  274.87   16.90
   2  -4   3  274.67   15.10
  -3   4  -3  104.39   10.40
  -3   4  -3  100.59    8.90
  -3   4  -3  130.29   14.10
  -3   4  -3  101.69    7.10
   3  -4   3   97.59    7.70
   3  -4   3   92.09   10.70
  -4   4  -3  363.26   24.70
  -4   4  -3  341.67   23.30
  -4   4  -3  353.06   21.50
   4  -4   3  337.97   21.70
   4  -4   3  339.67   22.20
   4  -4   3  334.37   25.70
  -5   4  -3    8.70    4.60
  -5   4  -3    6.20    3.00
  -5   4  -3   13.00    6.00
   5  -4   3   10.20    3.40
   5  -4   3    7.50    5.90
   5  -4   3   15.40    3.40
  -6   4  -3  185.18   16.80
  -6   4  -3  187.68   20.40
   6  -4   3  185.98   26.10
   6  -4   3  171.28   15.50
   5   3  -3   10.00    5.80
   5   3  -3   19.00    5.50
   5   3  -3   22.20    4.30
  -5  -3   3    9.70    3.20
  -5  -3   3   12.10    5.90
  -5  -3   3   22.40    5.60
   4   3  -3  315.87   23.10
   4   3  -3  302.47   22.30
   4   3  -3  317.57   21.40
  -4  -3   3  318.57   23.30
  -4  -3   3  338.77   20.40
  -4  -3   3  318.77   19.60
   3   3  -3  131.99   12.20
   3   3  -3  121.79   12.20
   3   3  -3  147.79   12.00
  -3  -3   3  143.99   10.00
  -3  -3   3  147.79   10.80
   2   3  -3   27.90    3.90
   2   3  -3   38.70    6.40
   2   3  -3   33.80    5.80
   2   3  -3   43.80    7.50
  -2  -3   3   37.00    3.80
  -2  -3   3   33.10    5.60
  -2  -3   3   37.70    5.40
   1   3  -3  696.13   34.70
   1   3  -3  720.93   35.10
   1   3  -3  663.53   34.10
  -1  -3   3  697.93   33.70
  -1  -3   3  713.53   33.90
  -1  -3   3  705.83   31.90
   0   3  -3 1363.86   64.49
   0   3  -3 1494.75   64.59
   0   3  -3 1396.06   63.69
   0   3  -3 1411.96   65.19
   0  -3   3 1428.46   63.69
   0  -3   3 1412.46   64.39
  -1   3  -3  149.09   10.60
  -1   3  -3  149.49    9.10
  -1   3  -3  129.49   10.00
   1  -3   3  151.18    9.30
   1  -3   3  147.49    8.50
   1  -3   3  155.38   10.00
  -2   3  -3 1474.05   66.29
  -2   3  -3 1378.06   67.59
  -2   3  -3 1430.36   68.39
  -2   3  -3 1485.05   68.69
   2  -3   3 1497.65   65.49
   2  -3   3 1502.25   67.79
  -3   3  -3   80.89    8.90
  -3   3  -3   83.09   10.40
  -3   3  -3   79.39    8.50
  -3   3  -3   91.49   11.20
   3  -3   3   81.49   12.10
   3  -3   3   77.39    9.10
  -4   3  -3   35.00    6.70
  -4   3  -3   28.60    6.40
  -4   3  -3   29.90    7.10
  -4   3  -3   33.60    7.70
   4  -3   3   25.80    8.80
   4  -3   3   20.10    5.10
   4  -3   3   23.80    5.20
  -5   3  -3  184.88   15.40
  -5   3  -3  167.68   15.60
  -5   3  -3  183.28   18.00
  -5   3  -3  183.58   16.70
   5  -3   3  181.08   15.10
   5  -3   3  195.68   20.00
  -6   3  -3    6.80    4.30
  -6   3  -3   -0.80    1.40
   6  -3   3    2.40    1.60
   6  -3   3    0.40    4.20
   5   2  -3    1.20    3.90
   5   2  -3    9.30    3.60
   5   2  -3   13.70    3.70
  -5  -2   3   -4.80    2.30
  -5  -2   3    3.40    1.70
  -5  -2   3    3.60    1.00
   4   2  -3 1079.09   55.19
   4   2  -3 1052.09   54.49
   4   2  -3 1070.89   57.59
  -4  -2   3 1116.49   53.29
  -4  -2   3 1111.59   56.79
   3   2  -3  286.57   18.90
   3   2  -3  309.87   19.80
   3   2  -3  335.27   21.10
  -3  -2   3  334.37   18.10
  -3  -2   3  329.57   18.20
  -3  -2   3  283.07   19.80
   2   2  -3 3460.35  163.58
   2   2  -3 3723.83  165.38
   2   2  -3 3720.23  166.38
   2   2  -3 3750.22  165.98
  -2  -2   3 4026.80  163.58
  -2  -2   3 3810.22  164.38
   1   2  -3  188.18   11.70
   1   2  -3  186.38   11.70
   1   2  -3  186.88   11.00
   1   2  -3  187.58   11.00
   1   2  -3  204.58   12.00
  -1  -2   3  194.58   10.90
  -1  -2   3  198.38    9.30
  -1  -2   3  192.68   11.00
   0   2  -3 1249.47   55.79
   0   2  -3 1322.67   55.89
   0   2  -3 1221.88   54.79
   0   2  -3 1240.78   56.19
   0  -2   3 1208.78   55.59
   0  -2   3 1207.28   54.69
   0  -2   3 1335.37   54.19
   0  -2   3 1189.28   55.89
   0  -2   3 1152.08   55.59
  -1   2  -3  239.78   13.80
  -1   2  -3  249.38   13.20
  -1   2  -3  255.37   13.30
  -1   2  -3  214.58   14.00
   1  -2   3  250.77   13.30
   1  -2   3  222.78   13.30
   1  -2   3  245.88   11.60
   1  -2   3  233.68   13.20
  -2   2  -3    2.10    1.50
  -2   2  -3    0.50    1.60
  -2   2  -3    3.60    2.30
   2  -2   3   -1.50    1.40
   2  -2   3    3.90    3.50
   2  -2   3    3.00    2.00
  -3   2  -3 1844.12   84.49
  -3   2  -3 1798.82   81.79
  -3   2  -3 1995.00   84.59
  -3   2  -3 1693.93   83.49
   3  -2   3 1776.42   82.89
   3  -2   3 1738.63   81.89
   3  -2   3 1687.23   86.09
  -4   2  -3   48.60    9.30
  -4   2  -3   45.50    8.40
  -4   2  -3   38.80    7.10
  -4   2  -3   42.40    8.00
   4  -2   3   42.00    7.20
   4  -2   3   41.30   10.30
   4  -2   3   33.20    5.50
  -5   2  -3  670.13   38.30
  -5   2  -3  649.93   39.40
  -5   2  -3  751.02   40.80
  -5   2  -3  652.83   42.30
   5  -2   3  682.83   38.90
   5  -2   3  678.43   45.00
  -6   2  -3   57.79   11.00
  -6   2  -3   35.90    8.60
  -6   2  -3   27.20    9.20
  -6   2  -3   32.20    6.40
   6  -2   3   42.20    8.30
   6  -2   3   68.29   15.10
   6   1  -3  186.18   18.50
   6   1  -3  196.28   16.00
  -6  -1   3  184.48   23.30
   5   1  -3  816.52   44.10
   5   1  -3  850.11   48.80
   5   1  -3  768.02   43.40
  -5  -1   3  800.32   43.30
  -5  -1   3  873.71   44.10
  -5  -1   3  820.32   47.10
   4   1  -3  432.56   26.50
   4   1  -3  470.85   26.80
   4   1  -3  459.15   29.50
  -4  -1   3  445.56   28.20
  -4  -1   3  479.45   26.20
  -4  -1   3  475.65   26.10
   3   1  -3   -1.50    2.60
   3   1  -3   -1.80    2.70
   3   1  -3   -0.50    1.60
  -3  -1   3   -0.30    1.40
  -3  -1   3    1.80    2.70
   2   1  -3   30.00    4.20
   2   1  -3   33.40    5.20
   2   1  -3   31.80    4.30
   2   1  -3   37.50    6.20
   2   1  -3   36.50    5.00
  -2  -1   3   42.10    4.60
  -2  -1   3   36.30    5.90
  -2  -1   3   39.40    4.50
   1   1  -3  366.46   17.90
   1   1  -3  397.26   18.40
   1   1  -3  323.37   18.60
   1   1  -3  354.16   17.40
   1   1  -3  370.06   16.70
   1   1  -3  372.36   18.00
  -1  -1   3  350.56   17.30
  -1  -1   3  360.76   17.80
  -1  -1   3  387.36   18.40
  -1  -1   3  360.06   17.30
   0   1  -3  954.30   41.00
   0   1  -3  978.60   41.90
   0   1  -3  840.12   42.20
   0  -1   3  955.50   42.80
   0  -1   3  921.41   42.00
   0  -1   3  916.41   41.20
   0  -1   3  972.60   41.80
  -1   1  -3 5992.70  255.87
  -1   1  -3 6274.97  256.67
  -1   1  -3 5454.95  257.47
   1  -1   3 5637.94  256.77
   1  -1   3 5997.20  256.17
   1  -1   3 6126.59  256.17
  -2   1  -3  917.61   44.70
  -2   1  -3  924.11   43.10
  -2   1  -3 1025.50   45.60
   2  -1   3  940.11   44.30
   2  -1   3  984.10   42.50
   2  -1   3  908.81   44.10
   2  -1   3  856.51   46.50
  -3   1  -3 1639.94   76.79
  -3   1  -3 1608.54   78.29
  -3   1  -3 1662.03   79.79
  -3   1  -3 1842.92   79.39
   3  -1   3 1771.52   78.19
   3  -1   3 1607.44   76.09
   3  -1   3 1614.94   81.29
  -4   1  -3   11.00    4.50
  -4   1  -3   19.10    4.90
  -4   1  -3   11.60    4.20
  -4   1  -3   11.60    5.10
   4  -1   3   14.20    4.00
   4  -1   3   14.70    3.00
   4  -1   3    6.90    4.90
  -5   1  -3   18.70    6.00
  -5   1  -3   11.30    6.30
  -5   1  -3   23.20    6.60
  -5   1  -3   18.30    5.30
   5  -1   3   34.30    8.70
   5  -1   3   28.00    6.10
  -6   1  -3   26.40    6.90
  -6   1  -3   31.80    6.30
  -6   1  -3   41.80    9.40
   6  -1   3   26.80    4.70
   6  -1   3   39.10   10.50
   6   0  -3   96.59   12.40
   6   0  -3  119.89   18.10
  -6   0   3  111.19   17.40
   5   0  -3  506.75   30.10
   5   0  -3  525.05   34.40
  -5   0   3  552.74   30.30
  -5   0   3  417.56   34.80
  -5   0   3  564.54   34.00
   4   0  -3   63.29   11.10
   4   0  -3   58.99    8.30
   4   0  -3   69.79    9.20
  -4   0   3   66.89    8.50
  -4   0   3   70.99   11.10
  -4   0   3   46.20   11.00
   3   0  -3 2168.78   97.79
   3   0  -3 2202.88  100.79
   3   0  -3 2218.78   97.49
   3   0  -3 2183.78   98.29
  -3   0   3 1918.61  101.99
  -3   0   3 2321.77   97.69
  -3   0   3 2142.79   99.99
   2   0  -3   17.10    4.60
   2   0  -3   20.00    3.70
   2   0  -3   19.70    3.60
   2   0  -3   18.80    3.00
   2   0  -3   19.60    3.30
  -2   0   3   28.80    5.80
  -2   0   3   24.50    3.80
  -2   0   3   25.20    4.70
  -1   0   3   -2.40    0.10
   0   0  -3  141.99    6.50
   0   0   3  119.29    6.30
  -1   0  -3  375.26   18.00
  -1   0  -3  343.77   19.10
  -1   0  -3  376.66   17.80
  -1   0  -3  362.66   16.60
  -1   0  -3  356.06   18.70
   1   0   3  352.36   18.70
   1   0   3  397.76   17.90
   1   0   3  325.67   19.10
   1   0   3  331.27   18.00
   1   0   3  362.66   16.80
  -2   0  -3  100.49    8.00
  -2   0  -3  110.89    8.90
   2   0   3   94.79    7.20
   2   0   3   98.79    6.60
   2   0   3   96.49    9.30
   2   0   3  110.59    8.10
  -3   0  -3  156.88   12.20
  -3   0  -3  158.28   11.70
  -3   0  -3  135.39   12.50
  -3   0  -3  156.18   10.90
   3   0   3  142.09    9.70
   3   0   3  163.08   14.20
   3   0   3  142.49   10.50
   3   0   3  156.88   11.60
  -4   0  -3  468.05   27.60
  -4   0  -3  401.96   26.10
  -4   0  -3  470.45   26.30
   4   0   3  450.45   30.80
   4   0   3  420.26   26.10
   4   0   3  434.06   22.50
  -5   0  -3  457.65   28.90
  -5   0  -3  465.55   29.40
  -5   0  -3  411.76   27.60
   5   0   3  438.46   28.00
   5   0   3  443.46   33.20
  -6   0  -3  438.96   29.50
  -6   0  -3  502.55   31.20
   6   0   3  353.36   31.80
   6   0   3  391.26   27.70
   6  -1  -3   15.80    5.00
   6  -1  -3   11.30    5.60
  -6   1   3   11.80    7.20
  -6   1   3   10.30    6.10
   5  -1  -3  412.16   29.20
   5  -1  -3  380.96   24.20
  -5   1   3  395.56   24.30
  -5   1   3  396.06   27.70
  -5   1   3  364.26   29.70
   4  -1  -3  286.87   20.90
   4  -1  -3  273.97   17.40
   4  -1  -3  272.77   16.10
  -4   1   3  274.87   17.20
  -4   1   3  265.37   19.70
  -4   1   3  238.28   20.80
   3  -1  -3  509.75   26.70
   3  -1  -3  504.15   25.70
   3  -1  -3  539.45   25.80
   3  -1  -3  534.05   29.50
  -3   1   3  582.24   25.50
  -3   1   3  505.45   30.50
  -3   1   3  505.55   26.60
  -3   1   3  473.45   28.60
   2  -1  -3    1.60    1.50
   2  -1  -3    0.10    2.10
   2  -1  -3    2.90    1.70
   2  -1  -3    1.40    1.30
  -2   1   3    1.10    1.20
  -2   1   3    5.00    2.70
  -2   1   3    2.80    2.90
  -2   1   3    5.10    1.80
  -2   1   3   -0.20    0.90
  -2   1   3    1.70    1.60
   1  -1  -3  254.17   13.40
   1  -1  -3  260.37   11.80
   1  -1  -3  261.17   11.90
  -1   1   3  243.88   13.80
  -1   1   3  234.18   11.60
  -1   1   3  267.87   11.70
  -1   1   3  268.27   12.90
   0  -1  -3  771.32   36.50
   0  -1  -3  773.42   34.70
   0   1   3  763.02   35.80
   0   1   3  769.22   34.40
   0   1   3  830.22   35.60
  -1  -1  -3  215.58   11.00
  -1  -1  -3  196.18   11.30
  -1  -1  -3  196.68   12.40
  -1  -1  -3  198.48   11.90
  -1  -1  -3  196.98   10.90
   1   1   3  183.18   12.10
   1   1   3  186.58   11.10
   1   1   3  185.18   12.10
   1   1   3  236.28   11.70
   1   1   3  217.28   11.00
   1   1   3  199.58   10.70
  -2  -1  -3  958.10   47.50
  -2  -1  -3  995.70   45.20
   2   1   3  988.70   45.20
   2   1   3  962.20   47.50
   2   1   3  975.60   46.50
   2   1   3  970.50   48.30
  -3  -1  -3 2327.57  107.79
  -3  -1  -3 2546.15  107.19
   3   1   3 2337.17  106.79
   3   1   3 2291.97  109.89
   3   1   3 2197.08  106.79
   3   1   3 2311.87  103.49
  -4  -1  -3   18.00    5.60
  -4  -1  -3   14.20    5.00
  -4  -1  -3   21.30    5.50
   4   1   3    9.90    3.30
   4   1   3    8.80    3.20
   4   1   3   14.10    6.10
  -5  -1  -3  339.47   23.90
  -5  -1  -3  365.36   25.30
  -5  -1  -3  390.06   25.20
   5   1   3  367.26   24.00
   5   1   3  291.27   26.30
   6  -2  -3   30.60    9.60
   6  -2  -3   31.50    6.90
  -6   2   3   19.50    8.90
  -6   2   3   30.20    9.20
   5  -2  -3   55.79    9.20
   5  -2  -3   80.49   14.10
  -5   2   3   48.80   10.50
  -5   2   3   61.79   12.90
  -5   2   3   48.10    8.30
   4  -2  -3  142.39   11.40
   4  -2  -3  148.79   14.50
  -4   2   3  135.89   14.30
  -4   2   3  142.99   13.50
  -4   2   3  138.99   11.20
  -4   2   3  163.68    9.00
   3  -2  -3   60.29    5.20
   3  -2  -3   61.69    9.00
   3  -2  -3   45.40    3.90
   3  -2  -3   43.90    5.90
  -3   2   3   56.99    8.80
  -3   2   3   66.69    7.50
  -3   2   3   48.40    8.20
  -3   2   3   48.70    3.50
   2  -2  -3    2.90    1.10
   2  -2  -3    4.00    1.80
   2  -2  -3    2.30    1.50
   2  -2  -3    2.00    2.80
  -2   2   3    4.10    1.40
  -2   2   3    4.80    3.20
  -2   2   3    4.00    2.30
  -2   2   3    0.50    1.60
  -2   2   3    0.40    1.40
   1  -2  -3  992.90   46.10
   1  -2  -3 1039.00   45.90
   1  -2  -3 1049.20   46.50
  -1   2   3 1066.79   45.60
  -1   2   3 1027.00   47.00
  -1   2   3 1017.60   48.30
   0  -2  -3  680.63   29.50
   0  -2  -3  672.83   29.90
   0  -2  -3  572.24   29.20
   0  -2  -3  626.54   30.60
   0   2   3  629.44   30.50
   0   2   3  663.53   30.80
   0   2   3  660.83   29.50
   0   2   3  662.53   29.80
  -1  -2  -3 1366.86   60.49
  -1  -2  -3 1299.57   59.79
  -1  -2  -3 1395.06   60.49
  -1  -2  -3 1401.86   60.89
  -1  -2  -3 1276.57   61.99
   1   2   3 1340.27   62.99
   1   2   3 1319.37   60.59
   1   2   3 1205.78   60.39
   1   2   3 1352.76   60.29
  -2  -2  -3   56.39    7.80
  -2  -2  -3   60.99    7.00
  -2  -2  -3   50.69    6.20
   2   2   3   55.79    5.10
   2   2   3   57.49    7.30
   2   2   3   64.49    8.90
   2   2   3   66.59    9.30
  -3  -2  -3    3.40    2.80
  -3  -2  -3    7.60    3.40
   3   2   3    4.70    1.90
   3   2   3    6.30    3.30
   3   2   3    5.10    2.00
   3   2   3    4.00    3.60
  -4  -2  -3  308.67   21.60
  -4  -2  -3  321.67   20.70
  -4  -2  -3  308.67   20.90
   4   2   3  292.17   23.20
   4   2   3  279.27   20.90
   4   2   3  268.27   19.70
  -5  -2  -3   16.80    4.90
  -5  -2  -3   29.20    7.80
  -5  -2  -3   29.40    6.40
   5   2   3   23.00    5.80
   5   2   3   34.70    5.40
   6  -3  -3   16.50    4.60
   6  -3  -3   23.50    7.90
  -6   3   3    6.30    6.40
  -6   3   3   -0.70    3.90
   5  -3  -3   -1.80    4.70
   5  -3  -3    6.40    2.80
  -5   3   3   -3.20    1.80
  -5   3   3    0.60    3.50
  -5   3   3    5.20    1.70
   4  -3  -3    9.80    5.50
   4  -3  -3   10.00    3.50
  -4   3   3   15.10    5.60
  -4   3   3    4.50    4.10
  -4   3   3   10.10    3.40
   3  -3  -3   30.40    4.30
   3  -3  -3   25.20    4.50
   3  -3  -3   31.90    6.60
  -3   3   3   36.30    5.50
  -3   3   3   31.20    6.90
  -3   3   3   29.70    6.70
   2  -3  -3  232.58   12.70
   2  -3  -3  222.08   12.90
   2  -3  -3  242.98   13.80
   2  -3  -3  227.88   10.20
   2  -3  -3  220.58   10.00
  -2   3   3  208.08   14.80
  -2   3   3  209.78   15.00
  -2   3   3  234.68   13.50
  -2   3   3  220.88   12.70
   1  -3  -3 1583.04   66.89
   1  -3  -3 1592.14   66.09
   1  -3  -3 1449.65   68.59
   1  -3  -3 1503.85   66.99
   1  -3  -3 1419.76   67.19
  -1   3   3 1455.45   66.79
  -1   3   3 1489.05   69.69
  -1   3   3 1539.45   66.79
  -1   3   3 1436.16   69.69
   0  -3  -3 3011.90  128.19
   0  -3  -3 2648.83  129.39
   0  -3  -3 2875.41  128.89
   0  -3  -3 2992.00  127.59
   0   3   3 2904.01  127.89
   0   3   3 3073.19  131.19
   0   3   3 2860.01  128.49
  -1  -3  -3 1416.16   59.79
  -1  -3  -3 1256.07   62.49
  -1  -3  -3 1347.47   60.29
  -1  -3  -3 1297.97   61.09
  -1  -3  -3 1317.57   61.09
   1   3   3 1380.36   60.69
   1   3   3 1170.68   59.69
   1   3   3 1327.57   61.09
   1   3   3 1328.97   64.29
  -2  -3  -3 1027.50   50.99
  -2  -3  -3 1070.79   50.79
  -2  -3  -3 1054.19   53.29
   2   3   3 1093.89   51.99
   2   3   3  991.80   51.69
   2   3   3 1121.09   50.09
   2   3   3 1094.39   55.39
  -3  -3  -3  112.79   10.20
  -3  -3  -3  120.19    9.90
  -3  -3  -3   91.99   12.20
   3   3   3  106.09   10.90
   3   3   3  118.79   10.20
   3   3   3  105.49   14.50
  -4  -3  -3  530.55   29.30
  -4  -3  -3  449.16   29.10
   4   3   3  400.56   29.30
   4   3   3  432.76   30.20
   4   3   3  449.86   27.90
  -5  -3  -3   44.40    9.20
  -5  -3  -3   64.39   10.40
  -5  -3  -3   43.30   10.20
   5   3   3   44.60    9.20
   5   3   3   42.90    6.50
   6  -4  -3  435.56   29.20
   6  -4  -3  494.05   35.00
  -6   4   3  418.16   32.60
  -6   4   3  511.95   38.30
   5  -4  -3  119.79   13.60
   5  -4  -3  140.89   18.80
  -5   4   3  110.19   13.50
  -5   4   3  128.79   17.40
  -5   4   3  125.79   18.80
   4  -4  -3  826.12   46.00
   4  -4  -3  842.82   43.00
  -4   4   3  842.92   43.40
  -4   4   3  881.91   47.00
  -4   4   3  853.21   48.60
   3  -4  -3 1039.60   51.29
   3  -4  -3 1082.29   51.59
   3  -4  -3 1119.79   53.49
  -3   4   3 1071.29   54.79
  -3   4   3 1127.49   56.59
  -3   4   3 1050.49   51.69
   2  -4  -3   88.09    7.00
   2  -4  -3   91.79    7.20
   2  -4  -3   82.89    9.00
   2  -4  -3   82.09    6.90
   2  -4  -3   93.09    4.90
  -2   4   3   82.39    6.40
  -2   4   3   96.09    9.30
  -2   4   3   82.09   10.50
  -2   4   3   86.09    6.80
   1  -4  -3  243.68   14.30
   1  -4  -3  233.98   13.70
   1  -4  -3  250.37   13.60
   1  -4  -3  234.68   15.20
  -1   4   3  237.88   15.50
  -1   4   3  246.48   16.50
  -1   4   3  246.88   13.80
   0  -4  -3   -0.50    1.30
   0  -4  -3    1.40    1.10
   0  -4  -3    1.40    1.90
   0  -4  -3   -0.40    2.10
   0   4   3    4.40    2.00
   0   4   3    6.40    2.90
  -1  -4  -3  115.29    9.60
  -1  -4  -3   94.49    9.60
  -1  -4  -3  122.99    8.80
  -1  -4  -3  115.69    7.40
   1   4   3  113.69    9.00
   1   4   3   99.19    7.20
   1   4   3  102.59   11.00
  -2  -4  -3   44.90    8.20
  -2  -4  -3   47.50    7.50
  -2  -4  -3   43.80    6.60
   2   4   3   52.89    7.60
   2   4   3   53.99    7.90
   2   4   3   55.29   10.90
  -3  -4  -3   30.50    6.50
  -3  -4  -3   41.90    7.00
  -3  -4  -3   34.20    7.30
   3   4   3   45.90    7.50
   3   4   3   18.20    7.70
   3   4   3   28.90    6.20
  -4  -4  -3    0.70    2.40
   4   4   3    6.10    2.00
   4   4   3    4.50    4.80
   4   4   3    5.60    2.00
   6  -5  -3   17.60    5.30
   6  -5  -3   25.50    8.40
  -6   5   3   20.80    7.50
  -6   5   3   14.80    7.40
   5  -5  -3  478.75   33.20
   5  -5  -3  476.25   29.70
  -5   5   3  499.85   33.90
  -5   5   3  571.34   37.80
   4  -5  -3   39.50    8.30
   4  -5  -3   35.90    6.50
  -4   5   3   43.30    7.00
  -4   5   3   30.80    8.40
  -4   5   3   39.70    9.20
   3  -5  -3  550.74   30.10
   3  -5  -3  550.14   31.40
   3  -5  -3  555.24   30.70
  -3   5   3  589.64   30.50
  -3   5   3  599.84   35.30
  -3   5   3  598.34   34.00
   2  -5  -3   78.49    8.50
   2  -5  -3   84.49    5.30
   2  -5  -3   79.29    7.20
   2  -5  -3   72.79    6.20
   2  -5  -3   79.39    9.60
  -2   5   3   85.99    7.20
  -2   5   3   83.29    5.80
  -2   5   3   83.49    9.50
  -2   5   3   82.29   11.20
  -2   5   3   89.99    7.80
   1  -5  -3  457.65   24.30
   1  -5  -3  397.16   24.60
   1  -5  -3  455.05   23.60
  -1   5   3  446.36   26.00
  -1   5   3  448.96   23.60
   0  -5  -3   31.90    6.10
   0  -5  -3   40.40    7.40
   0  -5  -3   46.40    6.30
   0   5   3   45.60    6.40
   0   5   3   60.79   10.00
  -1  -5  -3  207.18   15.60
  -1  -5  -3  200.58   13.50
  -1  -5  -3  182.98   14.10
   1   5   3  203.08   14.00
   1   5   3  211.08   18.10
  -2  -5  -3    1.40    1.50
  -2  -5  -3    2.10    3.30
  -2  -5  -3    2.20    1.80
   2   5   3   -0.20    1.20
   2   5   3    3.00    3.50
   2   5   3    7.00    2.50
  -3  -5  -3  244.28   19.20
  -3  -5  -3  266.47   19.00
  -3  -5  -3  260.57   17.90
   3   5   3  251.17   18.10
   3   5   3  210.98   21.60
   3   5   3  261.47   18.30
  -4  -5  -3   -4.40    3.00
  -4  -5  -3   -2.50    2.00
   4   5   3    3.60    4.50
   4   5   3   -1.50    2.20
   6  -6  -3   33.50    9.40
   6  -6  -3   34.70    7.30
  -6   6   3   25.90    9.70
  -6   6   3   41.20   11.00
   5  -6  -3  197.18   18.30
   5  -6  -3  228.28   17.30
   5  -6  -3  213.48   17.10
  -5   6   3  227.98   22.50
  -5   6   3  225.88   20.50
   4  -6  -3  198.78   16.10
   4  -6  -3  204.38   15.80
   4  -6  -3  191.28   14.90
  -4   6   3  205.58   18.40
  -4   6   3  196.78   14.70
  -4   6   3  198.78   19.30
   3  -6  -3   39.90    6.60
   3  -6  -3   44.10    6.90
   3  -6  -3   54.89    8.30
  -3   6   3   37.40    8.50
  -3   6   3   29.70    7.50
  -3   6   3   54.49    7.80
  -3   6   3   48.30    5.10
   2  -6  -3  267.37   16.80
   2  -6  -3  266.37   18.20
  -2   6   3  257.77   16.50
  -2   6   3  259.77   17.70
  -2   6   3  272.87   20.90
   1  -6  -3  465.35   26.20
   1  -6  -3  466.45   28.00
  -1   6   3  508.35   29.90
  -1   6   3  510.55   26.90
   0  -6  -3  305.87   21.10
   0  -6  -3  326.97   19.10
   0  -6  -3  297.97   20.10
   0   6   3  307.97   22.90
   0   6   3  316.37   19.20
  -1  -6  -3  509.95   30.80
  -1  -6  -3  536.15   28.70
  -1  -6  -3  495.25   29.60
   1   6   3  508.35   29.00
   1   6   3  497.85   34.20
  -2  -6  -3   33.20    7.20
  -2  -6  -3   38.70    7.40
  -2  -6  -3   33.80    7.10
   2   6   3   29.50   10.30
   2   6   3   28.00    6.00
  -3  -6  -3  532.75   31.60
  -3  -6  -3  547.15   32.90
  -3  -6  -3  526.65   30.50
   3   6   3  409.16   35.10
   3   6   3  477.25   30.30
   5  -7  -3   89.79   12.30
   5  -7  -3  112.89   13.40
  -5   7   3  123.69   18.40
  -5   7   3   96.79   17.90
   4  -7  -3  182.28   15.00
   4  -7  -3  174.98   14.50
  -4   7   3  186.28   19.30
  -4   7   3  189.58   22.20
   3  -7  -3 1451.25   70.99
   3  -7  -3 1425.16   68.99
  -3   7   3 1461.35   69.09
  -3   7   3 1368.06   68.39
  -3   7   3 1417.16   75.79
   2  -7  -3    9.60    3.10
   2  -7  -3    0.90    1.90
  -2   7   3    7.40    2.70
  -2   7   3    4.80    2.00
  -2   7   3    2.90    3.30
   1  -7  -3 1558.54   73.99
   1  -7  -3 1505.05   75.99
  -1   7   3 1613.34   74.69
  -1   7   3 1568.74   78.59
   0  -7  -3    2.10    1.80
   0  -7  -3    2.10    3.40
   0  -7  -3    6.50    3.00
   0   7   3    2.40    3.40
   0   7   3    2.40    1.60
  -1  -7  -3  328.37   24.20
  -1  -7  -3  411.56   24.30
  -1  -7  -3  386.26   26.00
   1   7   3  403.46   30.60
   1   7   3  410.06   24.60
  -2  -7  -3  556.54   33.70
  -2  -7  -3  518.75   32.40
  -2  -7  -3  588.84   31.90
   2   7   3  520.75   31.60
   2   7   3  445.06   37.20
  -3  -7  -3   40.90    7.50
  -3  -7  -3   28.10    7.90
  -3  -7  -3   26.40    4.80
   3   7   3   30.40   11.40
   3   7   3   26.00    4.10
   5  -8  -3  311.47   23.10
   5  -8  -3  311.57   23.10
  -5   8   3  337.07   27.70
  -5   8   3  354.56   30.90
   4  -8  -3   45.70    8.50
   4  -8  -3   54.89    9.20
  -4   8   3   61.59   13.40
   3  -8  -3  112.39   14.40
   3  -8  -3  125.99   11.70
  -3   8   3  149.09   20.90
  -3   8   3  146.69   13.20
   2  -8  -3    6.60    2.60
   2  -8  -3   13.70    4.10
  -2   8   3    1.90    2.80
  -2   8   3    9.70    4.10
   1  -8  -3   51.09    8.50
   1  -8  -3   84.89   11.70
  -1   8   3   59.49    8.40
  -1   8   3   71.69   12.70
   0  -8  -3  657.93   38.50
   0  -8  -3  675.53   39.60
   0  -8  -3  644.64   36.60
   0   8   3  651.13   43.10
   0   8   3  711.73   37.60
  -1  -8  -3  316.17   21.10
  -1  -8  -3  281.57   22.00
  -1  -8  -3  311.47   22.70
   1   8   3  276.07   26.50
   1   8   3  347.87   24.90
  -2  -8  -3  177.78   16.10
  -2  -8  -3  196.88   15.90
  -2  -8  -3  195.68   17.30
   2   8   3  165.08   25.70
   4  -9  -3  258.07   20.30
   4  -9  -3  300.17   21.70
  -4   9   3  297.97   27.80
   3  -9  -3   19.50    4.10
   3  -9  -3    9.80    3.60
  -3   9   3   10.00    5.50
   2  -9  -3  712.53   39.00
   2  -9  -3  670.23   40.50
  -2   9   3  709.03   47.30
  -2   9   3  687.33   42.00
   1  -9  -3   14.70    4.40
   1  -9  -3   16.70    5.00
   1  -9  -3    7.80    3.50
  -1   9   3   12.40    5.10
  -1   9   3   15.10    5.80
   0  -9  -3  433.36   27.90
   0  -9  -3  478.55   30.50
   0  -9  -3  458.95   30.50
   0   9   3  445.06   34.50
  -1  -9  -3   -0.80    3.40
  -1  -9  -3    5.70    3.20
   1   9   3    2.10    4.90
   1   9  -4   27.90    6.50
   1   9  -4   35.60    7.40
  -1  -9   4   31.20    6.00
  -1  -9   4   35.50    7.20
   0   9  -4  162.18   14.40
   0   9  -4  130.59   12.90
   0  -9   4  144.29   13.10
   0  -9   4  139.29   12.60
  -1   9  -4  181.78   14.50
  -1   9  -4  164.28   14.80
   1  -9   4  156.18   13.50
   1  -9   4  153.58   13.70
  -2   9  -4  317.87   27.70
  -2   9  -4  246.98   20.80
   2  -9   4  321.67   21.70
   2  -9   4  280.37   19.40
  -3   9  -4   62.79   10.30
  -3   9  -4   59.29   13.80
   3  -9   4   52.49    9.40
   2   8  -4  140.09   16.70
   2   8  -4  150.48   19.10
  -2  -8   4  131.39   12.20
  -2  -8   4  150.28   16.80
   1   8  -4  349.17   24.40
   1   8  -4  341.57   24.70
  -1  -8   4  329.07   22.50
  -1  -8   4  349.96   23.30
   0   8  -4   76.89   11.70
   0   8  -4   93.99   12.70
   0  -8   4   85.39   10.80
   0  -8   4   77.19   11.10
  -1   8  -4   58.89    9.70
  -1   8  -4   45.20    7.80
   1  -8   4   65.29    9.30
   1  -8   4   53.59    8.80
  -2   8  -4   14.10    3.10
  -2   8  -4    7.00    3.90
  -2   8  -4    7.30    2.10
   2  -8   4    1.30    1.40
   2  -8   4    4.10    2.00
  -3   8  -4    4.30    2.30
  -3   8  -4    5.10    4.10
   3  -8   4   13.40    2.00
   3  -8   4   14.50    3.80
  -4   8  -4    4.80    4.10
  -4   8  -4   14.70    3.50
   4  -8   4    4.40    1.60
   3   7  -4   55.39   10.00
   3   7  -4   29.40    5.40
  -3  -7   4   55.49    9.70
  -3  -7   4   29.40    6.60
   2   7  -4    8.80    3.20
   2   7  -4    5.10    3.40
   2   7  -4    6.90    1.80
  -2  -7   4    9.50    4.40
  -2  -7   4    3.30    1.20
   1   7  -4  135.39   13.20
   1   7  -4  107.09   14.10
   1   7  -4  144.19   10.80
  -1  -7   4  126.19   11.40
  -1  -7   4  133.39   11.80
   0   7  -4  138.49   15.20
   0   7  -4  140.29   12.50
   0  -7   4  134.99   11.70
   0  -7   4  162.48   12.20
   0  -7   4  133.49    9.80
  -1   7  -4  228.58   17.00
  -1   7  -4  279.97   19.50
   1  -7   4  272.17   17.10
   1  -7   4  272.07   18.30
  -2   7  -4   27.20    4.60
  -2   7  -4   24.90    7.30
  -2   7  -4   35.60    7.00
   2  -7   4   32.70    5.30
   2  -7   4   34.00    6.60
  -3   7  -4  117.99   16.80
  -3   7  -4  112.59   14.40
   3  -7   4  118.79   14.20
   3  -7   4  112.99    9.20
  -4   7  -4    1.60    1.60
  -4   7  -4   -0.90    2.60
   4  -7   4    1.00    1.30
  -5   7  -4    2.20    3.80
  -5   7  -4   12.30    3.80
   5  -7   4    5.10    5.20
   5  -7   4    6.70    2.30
   4   6  -4  363.26   25.80
   4   6  -4  386.06   25.90
   4   6  -4  407.96   28.80
  -4  -6   4  335.97   23.70
   3   6  -4  338.17   24.30
   3   6  -4  395.36   24.30
   3   6  -4  347.97   25.90
  -3  -6   4  339.07   23.70
  -3  -6   4  340.77   22.70
   2   6  -4  731.03   38.90
   2   6  -4  721.93   40.80
   2   6  -4  759.22   42.00
  -2  -6   4  726.63   39.10
  -2  -6   4  725.13   39.50
   1   6  -4   49.90    8.40
   1   6  -4   55.59    7.80
   1   6  -4   70.39   10.80
  -1  -6   4   55.59    8.10
  -1  -6   4   65.89    8.70
   0   6  -4  241.68   17.20
   0   6  -4  204.78   16.00
   0  -6   4  245.18   15.50
   0  -6   4  235.98   15.90
  -1   6  -4   70.29    9.20
  -1   6  -4   70.49    9.70
   1  -6   4   72.39    9.30
   1  -6   4   58.09    7.30
  -2   6  -4  121.79    9.30
  -2   6  -4  103.99   12.00
  -2   6  -4  128.09   11.60
   2  -6   4  120.99   10.70
   2  -6   4  115.99    8.90
  -3   6  -4    9.20    3.20
  -3   6  -4    1.70    0.90
  -3   6  -4    2.80    3.20
   3  -6   4    3.50    1.10
   3  -6   4    9.10    3.00
  -4   6  -4  803.82   47.70
  -4   6  -4  802.92   46.00
   4  -6   4  807.22   40.80
   4  -6   4  834.12   45.20
  -5   6  -4    6.00    3.20
  -5   6  -4    2.00    3.30
   5  -6   4    3.30    3.90
   4   5  -4   78.79   13.20
   4   5  -4   55.59    9.90
   4   5  -4   70.29   10.70
  -4  -5   4   81.29   10.90
   3   5  -4  210.18   15.90
   3   5  -4  195.28   15.80
   3   5  -4  184.08   16.90
  -3  -5   4  189.58   14.40
  -3  -5   4  199.78   15.60
   2   5  -4  149.29   13.80
   2   5  -4  160.88   13.50
   2   5  -4  164.38   12.70
  -2  -5   4  163.78   12.40
  -2  -5   4  168.08   10.00
  -2  -5   4  158.28   12.80
   1   5  -4  243.38   17.10
   1   5  -4  245.28   15.80
   1   5  -4  257.07   17.60
  -1  -5   4  246.28   13.40
  -1  -5   4  243.88   15.80
  -1  -5   4  248.58   16.00
   0   5  -4 2600.94  116.19
   0   5  -4 2407.46  114.79
   0  -5   4 2549.65  114.69
   0  -5   4 2590.94  113.69
  -1   5  -4  379.76   20.80
  -1   5  -4  337.27   22.00
   1  -5   4  366.66   19.80
   1  -5   4  381.26   21.70
  -2   5  -4 1923.01   97.09
  -2   5  -4 2196.28   93.09
  -2   5  -4 2064.19   96.59
   2  -5   4 2068.99   92.59
   2  -5   4 2027.80   95.39
  -3   5  -4    9.50    2.50
  -3   5  -4    5.30    3.00
  -3   5  -4   13.00    4.00
   3  -5   4    9.30    2.10
   3  -5   4    5.60    2.30
  -4   5  -4  517.35   28.70
  -4   5  -4  535.15   33.20
  -4   5  -4  496.05   31.50
   4  -5   4  477.55   30.20
  -5   5  -4   42.60   10.60
  -5   5  -4   51.29   10.00
   5  -5   4   41.20    7.40
   5  -5   4   29.30    7.30
   5   4  -4    6.70    2.40
   5   4  -4   12.20    4.20
   5   4  -4   16.60    6.20
  -5  -4   4   12.00    6.00
   4   4  -4  239.48   18.80
   4   4  -4  230.28   17.60
   4   4  -4  219.58   18.80
  -4  -4   4  231.18   19.80
  -4  -4   4  216.08   15.90
  -4  -4   4  227.38   16.10
   3   4  -4  187.98   14.90
   3   4  -4  194.18   16.20
   3   4  -4  196.38   15.30
  -3  -4   4  180.18   13.30
  -3  -4   4  184.98   11.80
   2   4  -4 2264.27  107.09
   2   4  -4 2294.77  106.29
   2   4  -4 2216.88  106.39
  -2  -4   4 2325.27  105.49
  -2  -4   4 2400.06  102.19
  -2  -4   4 2373.66  105.19
   1   4  -4  535.75   30.30
   1   4  -4  521.85   29.40
   1   4  -4  571.24   30.50
  -1  -4   4  612.24   29.30
  -1  -4   4  571.04   26.30
  -1  -4   4  613.34   29.60
   0   4  -4 1663.53   74.09
   0   4  -4 1601.44   74.79
   0  -4   4 1662.43   72.69
   0  -4   4 1575.14   73.59
   0  -4   4 1536.15   70.99
  -1   4  -4   67.99    6.10
  -1   4  -4   67.09    5.20
  -1   4  -4   76.39    9.10
   1  -4   4   60.89    5.50
   1  -4   4   76.29    8.20
   1  -4   4   72.59    5.50
  -2   4  -4  269.77   15.00
  -2   4  -4  238.98   17.00
  -2   4  -4  261.37   17.50
   2  -4   4  269.87   14.30
   2  -4   4  267.67   16.70
  -3   4  -4   77.29    7.20
  -3   4  -4   88.49    9.30
  -3   4  -4   95.09   12.10
  -3   4  -4   71.19    6.40
   3  -4   4   87.79   10.60
   3  -4   4   88.89    6.50
  -4   4  -4  562.74   34.20
  -4   4  -4  547.35   30.80
  -4   4  -4  609.94   35.40
   4  -4   4  557.54   33.00
   4  -4   4  600.24   33.10
  -5   4  -4  467.05   32.20
  -5   4  -4  421.46   29.80
   5  -4   4  436.46   33.90
   5  -4   4  505.95   30.30
  -6   4  -4  325.07   27.90
  -6   4  -4  293.37   23.50
   6  -4   4  293.87   28.30
   6  -4   4  333.77   23.80
   5   3  -4    3.70    1.90
   5   3  -4    1.70    1.80
   5   3  -4   -2.10    3.70
  -5  -3   4    2.60    1.70
  -5  -3   4   -1.20    2.90
   4   3  -4 1126.59   58.59
   4   3  -4 1130.79   58.09
   4   3  -4 1118.99   59.99
  -4  -3   4 1137.39   60.19
  -4  -3   4 1190.98   55.19
  -4  -3   4 1125.59   55.99
   3   3  -4    9.90    3.60
   3   3  -4    7.00    4.60
   3   3  -4   -0.40    2.70
  -3  -3   4    3.90    1.90
  -3  -3   4    1.00    1.90
   2   3  -4  476.85   26.30
   2   3  -4  441.86   25.60
   2   3  -4  468.95   26.40
   2   3  -4  439.56   22.70
  -2  -3   4  497.15   22.70
  -2  -3   4  482.45   25.30
  -2  -3   4  480.05   24.60
   1   3  -4  243.48   15.90
   1   3  -4  264.37   16.20
  -1  -3   4  270.37   12.40
  -1  -3   4  290.27   15.40
  -1  -3   4  287.77   15.50
   0   3  -4   84.59    6.10
   0   3  -4  100.39    7.40
   0   3  -4   86.69    7.50
   0   3  -4   85.19    6.80
   0  -3   4   93.79    5.30
   0  -3   4   90.39    7.00
   0  -3   4   81.19    6.10
  -1   3  -4 3712.63  162.48
  -1   3  -4 3579.84  163.98
   1  -3   4 3515.55  163.08
   1  -3   4 3877.41  162.58
   1  -3   4 3835.72  160.78
  -2   3  -4  438.56   21.30
  -2   3  -4  431.36   24.10
  -2   3  -4  408.36   23.20
  -2   3  -4  427.26   23.60
   2  -3   4  407.06   23.00
   2  -3   4  427.46   20.50
  -3   3  -4 2637.94  117.39
  -3   3  -4 2458.65  117.29
  -3   3  -4 2491.35  113.79
  -3   3  -4 2630.34  117.49
   3  -3   4 2545.95  116.49
   3  -3   4 2549.65  116.39
  -4   3  -4  103.29   13.50
  -4   3  -4   94.59    8.80
  -4   3  -4   99.59   12.90
  -4   3  -4   92.49   13.00
   4  -3   4   83.39   10.60
   4  -3   4  101.89   16.00
   4  -3   4   77.49   10.90
  -5   3  -4   15.00    4.00
  -5   3  -4   28.70    7.20
  -5   3  -4   32.30    8.90
   5  -3   4   13.00    4.40
   5  -3   4   23.90    9.40
  -6   3  -4  113.99   18.90
  -6   3  -4   82.69   12.80
   6  -3   4  132.69   21.00
   6  -3   4  117.79   14.90
   5   2  -4   11.80    4.70
   5   2  -4   17.20    6.20
   5   2  -4   14.40    3.50
  -5  -2   4   10.20    5.80
  -5  -2   4   15.20    4.10
   4   2  -4  193.38   15.70
   4   2  -4  227.38   17.90
   4   2  -4  195.68   15.20
  -4  -2   4  205.68   17.00
  -4  -2   4  204.08   13.90
   3   2  -4 1022.90   53.29
   3   2  -4 1099.99   55.39
   3   2  -4 1131.59   54.19
  -3  -2   4 1116.79   55.19
  -3  -2   4 1152.68   51.69
  -3  -2   4 1082.89   51.99
   2   2  -4   42.10    6.70
   2   2  -4   53.69    6.80
   2   2  -4   52.59    7.30
   2   2  -4   47.10    5.60
   2   2  -4   45.50    4.10
  -2  -2   4   48.90    3.80
  -2  -2   4   52.89    4.10
  -2  -2   4   52.79    4.80
   1   2  -4 1490.55   64.69
   1   2  -4 1413.66   64.39
   1   2  -4 1333.47   63.49
   1   2  -4 1409.86   63.69
  -1  -2   4 1408.86   63.69
  -1  -2   4 1432.46   63.59
   0   2  -4 3516.45  152.98
   0   2  -4 3666.53  153.68
   0   2  -4 3546.95  153.28
   0   2  -4 3438.56  151.58
   0  -2   4 3421.96  152.68
   0  -2   4 3487.95  151.48
   0  -2   4 3433.16  153.18
  -1   2  -4  361.66   18.50
  -1   2  -4  343.17   18.30
  -1   2  -4  342.27   19.10
   1  -2   4  372.36   18.60
   1  -2   4  329.87   18.40
   1  -2   4  365.56   16.00
  -2   2  -4 2072.49   92.19
  -2   2  -4 2232.18   95.49
  -2   2  -4 2070.39   95.29
   2  -2   4 1989.30   95.09
   2  -2   4 2115.79   94.59
  -3   2  -4  910.41   46.40
  -3   2  -4  994.00   46.80
  -3   2  -4  915.71   43.50
  -3   2  -4  975.20   46.70
   3  -2   4  885.61   45.20
   3  -2   4  880.81   44.80
   3  -2   4  780.42   47.90
   3  -2   4  938.61   42.30
  -4   2  -4  205.88   16.20
  -4   2  -4  209.78   14.60
  -4   2  -4  211.38   16.70
  -4   2  -4  199.28   16.90
   4  -2   4  211.38   19.80
   4  -2   4  212.58   14.40
   4  -2   4  214.78   15.70
  -5   2  -4  987.10   50.59
  -5   2  -4  885.81   51.99
  -5   2  -4  873.71   47.10
  -5   2  -4  836.52   49.30
   5  -2   4  899.31   55.39
   5  -2   4  874.91   48.50
  -6   2  -4   66.89   12.00
  -6   2  -4   82.99   13.50
  -6   2  -4   70.39   14.80
   6  -2   4   94.69   18.20
   6  -2   4   65.49   10.10
   6   1  -4    4.70    2.70
   6   1  -4    4.30    2.70
  -6  -1   4    3.50    4.30
   5   1  -4   58.59   10.80
   5   1  -4   73.99   10.50
   5   1  -4   51.29    9.10
  -5  -1   4   49.50    8.10
  -5  -1   4   54.99   10.90
   4   1  -4  152.28   12.40
   4   1  -4  159.68   14.50
   4   1  -4  140.79   12.50
  -4  -1   4  146.89   13.70
  -4  -1   4  166.38   11.80
   3   1  -4  113.79    9.10
   3   1  -4  114.09   10.60
   3   1  -4  110.49    9.30
  -3  -1   4  121.59   12.90
  -3  -1   4   97.39    7.70
   2   1  -4  464.25   23.90
   2   1  -4  535.45   24.10
   2   1  -4  488.35   26.30
   2   1  -4  508.65   24.90
   2   1  -4  487.05   25.10
  -2  -1   4  503.85   23.90
  -2  -1   4  451.15   22.50
  -2  -1   4  524.05   26.40
   1   1  -4    2.80    0.90
   1   1  -4    3.30    2.10
   1   1  -4    1.10    1.60
   1   1  -4    2.50    1.30
   1   1  -4    2.90    1.70
  -1  -1   4    5.40    2.00
  -1  -1   4   13.90    3.10
  -1  -1   4    2.90    1.30
  -1  -1   4    2.50    1.40
  -1  -1   4    4.50    1.70
   0   1  -4  440.86   20.90
   0   1  -4  476.55   21.70
   0   1  -4  409.06   21.90
   0   1  -4  477.45   20.30
   0   1  -4  452.45   21.20
   0  -1   4  430.76   21.20
   0  -1   4  435.46   20.90
   0  -1   4  437.96   22.40
   0  -1   4  463.55   21.10
  -1   1  -4 1412.26   72.89
  -1   1  -4 1583.54   71.69
  -1   1  -4 1664.03   71.99
  -1   1  -4 1687.13   71.19
   1  -1   4 1581.54   71.89
   1  -1   4 1674.73   71.29
   1  -1   4 1542.55   72.39
   1  -1   4 1611.84   71.29
  -2   1  -4   20.60    3.00
  -2   1  -4   16.90    3.90
  -2   1  -4   18.70    4.40
   2  -1   4   13.90    3.20
   2  -1   4   20.90    5.50
   2  -1   4   14.20    3.60
   2  -1   4   15.70    2.30
  -3   1  -4 1473.25   69.69
  -3   1  -4 1416.06   67.19
  -3   1  -4 1584.84   70.49
  -3   1  -4 1409.36   70.19
   3  -1   4 1582.14   69.39
   3  -1   4 1370.46   69.09
   3  -1   4 1395.36   72.49
   3  -1   4 1467.25   67.79
  -4   1  -4   11.80    4.00
  -4   1  -4   26.40    6.40
  -4   1  -4   16.10    5.70
  -4   1  -4   11.00    4.90
   4  -1   4   26.20    8.40
   4  -1   4   23.80    4.60
   4  -1   4   20.60    4.80
  -5   1  -4  332.57   23.20
  -5   1  -4  262.07   23.60
  -5   1  -4  293.27   21.90
  -5   1  -4  301.37   20.90
   5  -1   4  300.67   26.20
   5  -1   4  312.47   21.70
  -6   1  -4    6.50    1.80
  -6   1  -4    0.20    3.00
   6  -1   4   44.70    9.80
   6  -1   4   10.60    4.50
   6   0  -4   35.00    7.00
   6   0  -4   42.60    9.30
  -6   0   4   20.30    7.80
   5   0  -4  206.28   15.40
   5   0  -4  190.38   18.10
   5   0  -4  215.38   15.00
  -5   0   4  185.18   14.30
  -5   0   4  163.58   19.20
  -5   0   4  189.08   17.80
   4   0  -4  480.55   26.80
   4   0  -4  485.85   30.20
   4   0  -4  502.45   26.50
  -4   0   4  507.55   26.60
  -4   0   4  414.66   31.40
  -4   0   4  466.25   29.50
   3   0  -4  316.67   18.00
   3   0  -4  322.97   18.20
   3   0  -4  299.17   17.00
   3   0  -4  340.17   20.80
  -3   0   4  350.06   17.90
  -3   0   4  284.67   21.60
  -3   0   4  334.57   20.80
   2   0  -4  917.11   42.80
   2   0  -4 1007.60   43.60
   2   0  -4  867.01   43.20
   2   0  -4  946.21   43.60
   2   0  -4  997.10   45.90
  -2   0   4  917.61   47.20
  -2   0   4  979.10   42.00
  -2   0   4  906.91   45.60
  -2   0   4  958.20   43.80
   1   0  -4 3255.97  136.99
   1   0  -4 3139.29  138.19
  -1   0   4 3161.48  136.69
  -1   0   4 3280.67  138.99
  -1   0   4 3011.70  137.79
   0   0  -4  590.54   27.20
   0   0  -4  593.04   28.60
   0   0  -4  594.94   27.40
   0   0   4  562.14   28.80
   0   0   4  690.23   27.30
  -1   0  -4   55.49    5.70
  -1   0  -4   48.80    6.70
  -1   0  -4   67.49    5.10
  -1   0  -4   57.49    3.70
  -1   0  -4   58.69    4.70
   1   0   4   55.59    4.50
   1   0   4   55.69    5.30
   1   0   4   55.19    3.80
   1   0   4   48.20    5.10
   1   0   4   61.79    4.40
  -2   0  -4   19.60    4.00
  -2   0  -4   18.60    4.40
   2   0   4   11.90    3.10
   2   0   4   17.00    3.80
   2   0   4   23.40    5.50
   2   0   4   18.20    3.70
   2   0   4   20.30    2.90
  -3   0  -4  256.27   17.20
  -3   0  -4  260.47   15.30
  -3   0  -4  211.28   16.70
  -3   0  -4  231.48   16.00
   3   0   4  240.88   18.80
   3   0   4  240.68   15.60
   3   0   4  244.98   14.70
   3   0   4  255.17   16.10
  -4   0  -4   51.29    9.00
  -4   0  -4   56.39    9.60
  -4   0  -4   64.69    9.10
   4   0   4   55.89   11.20
   4   0   4   62.29    9.00
   4   0   4   59.19    5.70
   4   0   4   48.80   11.10
  -5   0  -4    8.60    3.60
  -5   0  -4    2.10    2.40
  -5   0  -4    8.30    4.10
   5   0   4    1.70    2.10
   5   0   4    1.60    1.50
   6  -1  -4  259.27   19.20
   6  -1  -4  286.47   24.40
  -6   1   4  235.28   22.40
  -6   1   4  200.58   29.10
   5  -1  -4   10.40    3.50
   5  -1  -4    6.50    5.20
  -5   1   4    3.10    1.00
  -5   1   4    1.70    3.40
  -5   1   4    2.10    4.50
   4  -1  -4  205.18   14.00
   4  -1  -4  204.58   17.00
   4  -1  -4  197.28   12.80
  -4   1   4  186.38   13.20
  -4   1   4  185.88   17.60
  -4   1   4  200.48   16.50
   3  -1  -4    0.70    2.30
   3  -1  -4    3.40    2.20
   3  -1  -4    1.70    1.80
   3  -1  -4    7.00    2.00
  -3   1   4    6.20    1.60
  -3   1   4    3.30    1.90
  -3   1   4    9.00    2.30
  -3   1   4    0.50    2.90
   2  -1  -4 2088.19   88.89
   2  -1  -4 1958.40   88.99
   2  -1  -4 1946.41   91.39
   2  -1  -4 1928.01   88.49
  -2   1   4 2009.80   92.89
  -2   1   4 2137.29   88.79
  -2   1   4 2099.99   88.99
  -2   1   4 2012.90   92.19
   1  -1  -4   47.30    2.60
   1  -1  -4   47.90    2.60
  -1   1   4   44.70    3.80
  -1   1   4   47.60    5.50
   0  -1  -4  222.78   11.00
   0  -1  -4  208.08   12.10
   0  -1  -4  197.18    9.70
   0  -1  -4  206.18   10.00
   0   1   4  210.38    9.60
   0   1   4  182.78    9.60
   0   1   4  188.78   11.30
  -1  -1  -4 1082.29   51.99
  -1  -1  -4 1070.49   51.39
  -1  -1  -4 1092.09   50.29
  -1  -1  -4 1114.89   49.70
   1   1   4 1064.59   50.69
   1   1   4 1071.89   53.99
   1   1   4 1119.39   49.90
   1   1   4 1180.18   50.29
  -2  -1  -4   64.89    5.80
  -2  -1  -4   70.19    8.90
  -2  -1  -4   77.69    8.30
   2   1   4   65.29    6.00
   2   1   4   78.99    6.80
   2   1   4   71.39    7.60
   2   1   4   73.49    9.70
  -3  -1  -4    2.90    2.30
  -3  -1  -4   -0.50    2.20
   3   1   4    3.60    2.80
   3   1   4   16.90    3.60
   3   1   4    3.00    1.70
   3   1   4    0.10    3.00
  -4  -1  -4   49.00    9.00
  -4  -1  -4   46.90    8.40
  -4  -1  -4   43.90    7.70
   4   1   4   52.59    8.00
   4   1   4   50.79    8.20
   4   1   4   48.60   10.90
  -5  -1  -4    6.40    3.60
  -5  -1  -4    3.40    1.60
  -5  -1  -4    4.80    2.80
   5   1   4    1.70    1.50
   5   1   4    9.50    4.30
   6  -2  -4  605.34   34.60
   6  -2  -4  620.74   40.40
  -6   2   4  527.45   38.10
  -6   2   4  548.45   42.30
   5  -2  -4    8.60    5.70
   5  -2  -4   10.00    3.60
  -5   2   4   20.20    4.20
  -5   2   4   12.30    6.40
  -5   2   4    7.60    6.00
   4  -2  -4  618.44   30.00
   4  -2  -4  662.53   37.00
   4  -2  -4  644.54   32.90
  -4   2   4  610.14   29.70
  -4   2   4  620.54   32.90
  -4   2   4  626.94   36.80
  -4   2   4  624.14   38.40
   3  -2  -4   41.30    5.30
   3  -2  -4   42.70    7.50
   3  -2  -4   33.10    3.40
  -3   2   4   28.60    7.10
  -3   2   4   38.60    5.20
  -3   2   4   37.70    7.30
   2  -2  -4  430.56   19.80
   2  -2  -4  431.56   22.60
   2  -2  -4  427.16   20.50
   2  -2  -4  420.96   20.50
  -2   2   4  380.46   22.20
  -2   2   4  420.56   23.90
  -2   2   4  450.15   20.30
  -2   2   4  432.26   23.70
   1  -2  -4   86.19    5.60
   1  -2  -4   98.69    6.70
   1  -2  -4   96.59    5.60
  -1   2   4   95.79    6.90
  -1   2   4   99.29    5.30
  -1   2   4  108.99    5.20
  -1   2   4   91.69    7.70
   0  -2  -4  739.33   35.60
   0  -2  -4  766.32   34.20
   0  -2  -4  756.52   37.10
   0  -2  -4  770.62   34.60
   0   2   4  751.52   35.80
   0   2   4  697.53   34.20
   0   2   4  777.52   35.80
   0   2   4  752.82   39.20
   0   2   4  768.22   34.10
  -1  -2  -4   60.09    7.70
  -1  -2  -4   57.69    5.00
  -1  -2  -4   59.69    5.50
  -1  -2  -4   60.69    6.30
  -1  -2  -4   54.39    5.40
   1   2   4   56.39    5.50
   1   2   4   58.89    5.30
   1   2   4   62.09    8.40
  -2  -2  -4 1678.23   80.79
  -2  -2  -4 1753.72   77.99
  -2  -2  -4 1776.32   78.29
   2   2   4 1732.23   79.09
   2   2   4 1553.64   79.79
   2   2   4 1802.72   77.99
   2   2   4 1681.63   81.49
  -3  -2  -4   31.50    5.70
  -3  -2  -4   38.70    6.70
  -3  -2  -4   36.80    7.30
   3   2   4   32.80    7.10
   3   2   4   43.30    8.90
   3   2   4   31.40    4.90
   3   2   4   33.70    6.10
  -4  -2  -4  121.99   14.30
  -4  -2  -4  120.19   14.00
  -4  -2  -4  123.69   12.70
   4   2   4  131.29   18.40
   4   2   4  125.89   11.50
   4   2   4  113.59   14.80
  -5  -2  -4  304.27   22.10
  -5  -2  -4  275.47   20.90
  -5  -2  -4  283.57   22.20
   5   2   4  248.58   23.20
   5   2   4  286.57   20.30
   6  -3  -4   41.70    8.00
   6  -3  -4   22.10    7.40
  -6   3   4   17.70    8.00
  -6   3   4   16.80    8.40
   5  -3  -4  150.58   16.10
   5  -3  -4  125.69   11.90
  -5   3   4  159.98   19.70
  -5   3   4  155.58   21.40
  -5   3   4  173.18   13.30
   4  -3  -4  257.37   15.80
   4  -3  -4  222.68   18.10
  -4   3   4  254.77   15.70
  -4   3   4  219.08   18.50
  -4   3   4  203.78   18.60
   3  -3  -4 1010.10   48.20
   3  -3  -4  999.80   50.79
   3  -3  -4 1119.39   48.50
  -3   3   4  996.60   48.40
  -3   3   4 1026.30   53.19
  -3   3   4 1006.90   52.09
   2  -3  -4 1191.58   54.59
   2  -3  -4 1237.28   54.99
   2  -3  -4 1249.47   56.09
  -2   3   4 1188.98   54.49
  -2   3   4 1122.29   55.59
  -2   3   4 1282.47   59.09
  -2   3   4 1178.68   58.09
   1  -3  -4  989.40   46.90
   1  -3  -4 1045.00   48.90
   1  -3  -4 1024.20   46.50
   1  -3  -4 1051.19   46.20
  -1   3   4 1051.29   46.20
  -1   3   4 1100.39   48.50
  -1   3   4 1024.30   49.90
  -1   3   4  972.50   49.20
  -1   3   4 1008.40   49.70
   0  -3  -4  720.53   38.10
   0  -3  -4  769.92   37.00
   0  -3  -4  749.92   34.30
   0  -3  -4  741.83   35.70
   0  -3  -4  770.22   35.30
   0   3   4  728.33   38.70
   0   3   4  808.02   35.80
   0   3   4  768.62   36.80
  -1  -3  -4    9.00    2.60
  -1  -3  -4   11.40    3.30
  -1  -3  -4    9.80    2.70
  -1  -3  -4   10.40    3.50
   1   3   4   12.80    3.00
   1   3   4   11.40    4.30
   1   3   4    9.90    3.10
  -2  -3  -4  139.19   10.80
  -2  -3  -4  160.08   13.30
  -2  -3  -4  158.68   11.60
   2   3   4  143.49   11.60
   2   3   4  158.88   11.60
   2   3   4  168.68   11.00
   2   3   4  149.19   14.10
  -3  -3  -4  255.17   19.40
  -3  -3  -4  267.97   17.50
   3   3   4  239.88   18.80
   3   3   4  283.67   18.30
   3   3   4  282.97   16.20
   3   3   4  255.97   20.80
  -4  -3  -4   32.00    6.60
  -4  -3  -4   24.10    6.20
   4   3   4   26.40    6.40
   4   3   4   14.70    4.10
   4   3   4   26.00    8.20
  -5  -3  -4  386.36   26.50
  -5  -3  -4  369.96   26.40
  -5  -3  -4  332.57   24.70
   5   3   4  337.37   26.80
   5   3   4  310.87   22.90
   6  -4  -4  587.34   35.60
   6  -4  -4  670.93   42.10
  -6   4   4  548.15   39.70
  -6   4   4  609.34   44.60
   5  -4  -4  258.97   22.20
   5  -4  -4  280.67   19.30
  -5   4   4  281.77   23.30
  -5   4   4  299.87   25.40
   4  -4  -4  841.32   46.20
   4  -4  -4  828.02   42.80
  -4   4   4  835.72   43.10
  -4   4   4  887.51   47.90
  -4   4   4  888.31   49.50
   3  -4  -4    2.10    3.40
   3  -4  -4    0.70    2.00
   3  -4  -4    7.70    2.10
  -3   4   4    8.60    1.90
  -3   4   4    9.00    3.20
  -3   4   4    1.30    3.60
   2  -4  -4  196.48   11.60
   2  -4  -4  177.88   13.00
   2  -4  -4  176.58   11.50
   2  -4  -4  170.18   11.20
   2  -4  -4  196.38    9.90
  -2   4   4  184.58   12.20
  -2   4   4  183.08   11.10
  -2   4   4  182.08   14.40
  -2   4   4  186.78   14.40
   1  -4  -4 1141.09   48.20
   1  -4  -4 1110.99   51.49
   1  -4  -4 1074.19   53.09
   1  -4  -4 1144.09   51.19
   1  -4  -4 1079.59   50.69
  -1   4   4 1106.19   53.99
  -1   4   4 1072.59   54.49
  -1   4   4 1100.19   50.79
   0  -4  -4    8.50    2.50
   0  -4  -4    4.20    2.60
   0  -4  -4    4.70    2.80
   0  -4  -4    9.20    2.60
   0   4   4    8.20    2.30
   0   4   4    1.70    2.00
  -1  -4  -4 3104.39  135.69
  -1  -4  -4 3025.80  136.89
  -1  -4  -4 2946.11  138.99
   1   4   4 3141.39  141.69
   1   4   4 3042.60  136.59
  -2  -4  -4   44.10    8.40
  -2  -4  -4   42.60    6.90
  -2  -4  -4   27.40    6.20
   2   4   4   39.60    6.50
   2   4   4   38.20    6.40
   2   4   4   46.50   10.10
  -3  -4  -4 1488.55   71.29
  -3  -4  -4 1544.15   71.79
  -3  -4  -4 1531.65   74.89
   3   4   4 1304.17   76.09
   3   4   4 1393.06   72.69
   3   4   4 1618.64   73.19
  -4  -4  -4    4.80    4.50
  -4  -4  -4   15.90    5.10
   4   4   4   11.20    3.20
   4   4   4   14.60    7.10
   4   4   4   11.20    2.60
   6  -5  -4   13.40    5.10
   6  -5  -4    3.30    2.80
  -6   5   4   -6.80    2.60
  -6   5   4    0.20    4.70
   5  -5  -4   79.99   10.70
   5  -5  -4   81.89   13.40
  -5   5   4   73.49   15.20
  -5   5   4   85.39   14.90
   4  -5  -4    2.50    3.60
   4  -5  -4    0.30    1.80
  -4   5   4   -0.60    3.70
  -4   5   4    5.80    1.40
  -4   5   4    0.80    2.30
   3  -5  -4  694.93   36.80
   3  -5  -4  743.33   39.30
   3  -5  -4  761.82   38.00
  -3   5   4  758.82   42.70
  -3   5   4  683.33   37.50
  -3   5   4  778.72   37.20
  -3   5   4  739.43   41.40
   2  -5  -4  471.95   24.90
   2  -5  -4  442.76   26.20
   2  -5  -4  463.95   22.70
   2  -5  -4  437.26   22.00
   2  -5  -4  458.55   24.30
  -2   5   4  446.86   25.70
  -2   5   4  479.65   28.90
  -2   5   4  479.75   24.20
  -2   5   4  455.45   28.00
   1  -5  -4 2543.85  115.39
   1  -5  -4 2540.95  112.79
   1  -5  -4 2577.84  113.89
  -1   5   4 2564.04  112.99
  -1   5   4 2581.74  116.89
  -1   5   4 2341.47  117.19
   0  -5  -4  136.99   11.30
   0  -5  -4  130.59    9.70
   0  -5  -4  130.59   11.80
   0   5   4  138.09   13.00
   0   5   4  125.99    9.70
  -1  -5  -4  615.24   34.60
  -1  -5  -4  666.33   33.50
  -1  -5  -4  658.33   36.80
   1   5   4  638.74   34.10
   1   5   4  661.63   39.50
  -2  -5  -4   77.09   10.50
  -2  -5  -4   94.79   10.80
  -2  -5  -4   88.79   12.10
   2   5   4   98.99   11.80
   2   5   4  100.09   15.70
   2   5   4   76.29    7.20
  -3  -5  -4   11.10    4.40
  -3  -5  -4   -1.30    3.20
  -3  -5  -4   10.50    3.40
   3   5   4   11.00    2.30
   3   5   4    9.10    2.40
   3   5   4    8.00    5.30
  -4  -5  -4  192.58   17.30
  -4  -5  -4  208.78   18.00
   4   5   4  191.88   21.20
   4   5   4  231.38   16.90
   6  -6  -4   48.20    8.60
   6  -6  -4   52.09   10.50
  -6   6   4   47.30   11.50
  -6   6   4   53.29   14.30
   5  -6  -4  873.81   50.39
   5  -6  -4  889.41   48.00
   5  -6  -4  845.52   49.40
  -5   6   4  949.80   56.79
  -5   6   4  973.10   54.19
   4  -6  -4    6.60    3.40
   4  -6  -4    9.10    3.00
   4  -6  -4   11.30    3.80
  -4   6   4    5.20    3.60
  -4   6   4    1.50    4.30
   3  -6  -4 1341.87   63.39
   3  -6  -4 1298.27   65.59
   3  -6  -4 1226.78   61.79
  -3   6   4 1325.17   63.09
  -3   6   4 1352.06   68.49
  -3   6   4 1342.17   63.19
  -3   6   4 1390.76   70.29
   2  -6  -4  289.77   17.30
   2  -6  -4  283.37   19.20
  -2   6   4  256.07   20.80
  -2   6   4  293.57   19.20
  -2   6   4  274.97   16.90
   1  -6  -4   13.40    3.50
   1  -6  -4   14.30    4.40
  -1   6   4   15.20    4.90
  -1   6   4   14.20    4.50
  -1   6   4   21.80    4.20
   0  -6  -4   71.29   10.80
   0  -6  -4   67.79    9.70
   0  -6  -4   71.29    8.80
   0   6   4   85.79    9.50
   0   6   4   95.09   14.10
  -1  -6  -4  378.36   22.80
  -1  -6  -4  394.86   25.90
  -1  -6  -4  395.06   24.60
   1   6   4  401.46   23.70
   1   6   4  363.26   28.40
  -2  -6  -4  341.77   24.50
  -2  -6  -4  357.66   22.30
  -2  -6  -4  346.67   23.40
   2   6   4  363.66   23.00
   2   6   4  339.37   28.70
  -3  -6  -4  581.04   34.70
  -3  -6  -4  591.34   36.30
  -3  -6  -4  586.74   33.80
   3   6   4  605.14   34.10
   3   6   4  490.35   39.40
   5  -7  -4   10.70    2.30
   5  -7  -4    5.80    2.80
  -5   7   4    6.30    5.30
  -5   7   4    7.10    5.30
   4  -7  -4   32.80    6.70
   4  -7  -4   20.50    4.40
  -4   7   4   35.70    9.40
  -4   7   4   26.50    8.70
   3  -7  -4   64.99    9.00
   3  -7  -4   63.89    9.80
  -3   7   4   63.29    7.00
  -3   7   4   87.39   14.50
   2  -7  -4   26.60    6.00
   2  -7  -4   36.40    6.60
  -2   7   4   39.90    7.60
  -2   7   4   44.80    6.80
  -2   7   4   39.20    9.40
   1  -7  -4  259.37   19.40
   1  -7  -4  289.77   18.10
  -1   7   4  290.77   23.00
  -1   7   4  285.57   18.00
  -1   7   4  279.97   21.50
   0  -7  -4  330.87   22.80
   0  -7  -4  332.97   21.00
   0  -7  -4  329.87   23.70
   0   7   4  380.86   22.00
   0   7   4  331.67   26.10
  -1  -7  -4  398.56   27.40
  -1  -7  -4  434.26   26.90
  -1  -7  -4  407.86   24.80
   1   7   4  424.06   25.40
   1   7   4  372.06   30.70
  -2  -7  -4  139.69   16.20
  -2  -7  -4  135.39   12.10
  -2  -7  -4  130.99   13.20
   2   7   4   96.39   18.70
   2   7   4  102.69   15.30
   5  -8  -4    6.70    2.10
   5  -8  -4    8.50    2.80
  -5   8   4    0.10    3.40
  -5   8   4    7.40    5.90
   4  -8  -4    7.90    3.00
   4  -8  -4   15.10    2.80
  -4   8   4    8.80    4.70
   3  -8  -4  206.38   16.90
   3  -8  -4  201.88   15.50
  -3   8   4  213.58   20.90
  -3   8   4  203.98   15.90
   2  -8  -4   64.49    9.60
   2  -8  -4   48.90    8.80
  -2   8   4   73.39   11.60
  -2   8   4   83.29   14.90
   1  -8  -4  109.69   12.40
   1  -8  -4   88.09   12.20
  -1   8   4  105.29   15.80
  -1   8   4   96.59   16.10
   0  -8  -4  325.47   21.10
   0  -8  -4  311.87   22.90
   0  -8  -4  332.27   24.00
   0   8   4  304.87   26.20
  -1  -8  -4   37.20    8.50
  -1  -8  -4   58.69   10.60
  -1  -8  -4   59.39    9.80
   1   8   4   47.60   12.60
  -2  -8  -4   83.79   12.20
  -2  -8  -4  106.89   14.40
  -2  -8  -4  100.29   13.80
   2   8   4   72.69   16.70
   4  -9  -4   76.69   10.90
   4  -9  -4   73.09   10.90
  -4   9   4   70.59   15.60
   3  -9  -4   70.09   10.00
   3  -9  -4   55.09    9.30
  -3   9   4   59.99   13.70
   2  -9  -4  211.68   15.70
   2  -9  -4  202.88   16.80
  -2   9   4  162.88   16.40
  -2   9   4  201.98   21.10
   1  -9  -4  335.57   24.80
   1  -9  -4  327.17   23.80
   1  -9  -4  301.27   21.40
  -1   9   4  375.36   28.10
  -1   9   4  305.37   27.60
   0  -9  -4  193.48   15.70
   0  -9  -4  206.28   18.10
   0  -9  -4  210.58   17.60
   0   9   4  198.78   21.10
   1   9  -5   60.99    9.90
   1   9  -5   76.89   12.30
  -1  -9   5   62.69    9.80
  -1  -9   5   59.69    9.90
   0   9  -5   43.80    8.40
   0   9  -5   25.90    6.30
   0  -9   5   37.30    6.70
   0  -9   5   38.90    7.10
  -1   9  -5  588.84   36.50
  -1   9  -5  669.93   39.90
   1  -9   5  705.53   38.70
  -2   9  -5   11.20    3.00
  -2   9  -5    0.10    3.60
   2  -9   5    8.00    2.30
  -3   9  -5  182.18   21.40
  -3   9  -5  214.28   22.00
   3  -9   5  198.98   16.70
   2   8  -5  137.59   18.20
   2   8  -5   98.69   14.00
  -2  -8   5  132.39   11.60
  -2  -8   5  102.79   13.60
   1   8  -5  703.93   42.00
   1   8  -5  735.63   42.30
  -1  -8   5  696.93   39.80
  -1  -8   5  734.03   40.00
   0   8  -5   43.20    8.40
   0   8  -5   41.10    8.30
   0  -8   5   50.19    8.30
   0  -8   5   41.40    7.00
  -1   8  -5  674.33   39.50
  -1   8  -5  616.34   36.90
   1  -8   5  729.73   36.50
   1  -8   5  667.23   37.90
  -2   8  -5  161.88   18.00
  -2   8  -5  175.48   15.60
  -2   8  -5  171.98   13.10
   2  -8   5  199.18   13.60
   2  -8   5  169.88   14.60
  -3   8  -5  246.98   22.40
  -3   8  -5  232.28   19.10
   3  -8   5  220.58   17.90
  -4   8  -5 1096.99   59.49
  -4   8  -5 1088.39   62.79
   4  -8   5 1014.60   57.69
   3   7  -5  847.32   49.70
   3   7  -5  839.02   48.50
  -3  -7   5  872.81   46.60
   2   7  -5   36.10    8.90
   2   7  -5   66.29   10.80
   2   7  -5   60.69    6.50
  -2  -7   5   42.10    8.20
  -2  -7   5   66.19   10.00
   1   7  -5  169.28   14.60
   1   7  -5  161.78   17.30
   1   7  -5  138.59   11.40
  -1  -7   5  157.38   12.80
  -1  -7   5  150.68   12.70
   0   7  -5  597.14   35.10
   0   7  -5  572.44   33.90
   0  -7   5  597.94   32.40
   0  -7   5  614.34   33.60
  -1   7  -5  156.68   13.70
  -1   7  -5  135.59   11.80
   1  -7   5  147.39   11.10
   1  -7   5  136.69   12.00
  -2   7  -5  725.73   45.20
  -2   7  -5  825.82   43.90
  -2   7  -5  731.83   39.40
   2  -7   5  782.82   42.10
   2  -7   5  800.92   39.00
  -3   7  -5  430.66   29.20
  -3   7  -5  466.75   32.00
   3  -7   5  430.56   28.30
   3  -7   5  483.95   25.40
  -4   7  -5  182.18   18.40
  -4   7  -5  175.18   16.20
   4  -7   5  179.88   15.50
  -5   7  -5  179.58   19.50
  -5   7  -5  190.28   22.70
   5  -7   5  205.88   18.90
   5  -7   5  176.08   15.70
   4   6  -5  206.08   18.50
   4   6  -5  245.28   19.00
   4   6  -5  241.78   21.00
  -4  -6   5  285.27   18.70
   3   6  -5    7.10    5.30
   3   6  -5    6.30    2.20
  -3  -6   5    0.80    0.90
   2   6  -5  951.90   50.79
   2   6  -5  877.21   49.50
   2   6  -5  924.31   48.20
  -2  -6   5  992.50   48.40
  -2  -6   5  927.61   48.30
   1   6  -5    6.70    2.80
   1   6  -5   13.00    5.00
   1   6  -5   10.40    3.80
  -1  -6   5    9.50    3.20
  -1  -6   5    8.70    2.80
   0   6  -5 1321.57   67.69
   0   6  -5 1483.35   69.59
   0  -6   5 1389.26   67.29
   0  -6   5 1426.16   66.09
  -1   6  -5  398.66   25.60
  -1   6  -5  424.16   24.30
   1  -6   5  407.16   24.50
   1  -6   5  422.56   22.70
  -2   6  -5   45.10    9.00
  -2   6  -5   62.49    9.60
  -2   6  -5   52.19    7.00
   2  -6   5   37.50    5.30
   2  -6   5   44.40    7.40
  -3   6  -5   33.00    8.20
  -3   6  -5   38.30    5.70
  -3   6  -5   39.60    7.60
   3  -6   5   39.30    7.10
   3  -6   5   34.90    4.80
  -4   6  -5  306.97   23.60
  -4   6  -5  370.16   26.40
   4  -6   5  335.97   23.40
  -5   6  -5   42.50    8.10
  -5   6  -5   33.80    9.80
   5  -6   5   35.60    6.60
   5  -6   5   51.39   10.70
   4   5  -5   44.10   10.60
   4   5  -5   37.60    7.80
   4   5  -5   36.90    7.60
  -4  -5   5   35.20    6.80
  -4  -5   5   39.20    9.20
   3   5  -5  217.88   18.60
   3   5  -5  227.08   17.70
   3   5  -5  245.28   17.90
  -3  -5   5  227.48   16.00
   2   5  -5   25.10    5.70
   2   5  -5   18.30    6.10
   2   5  -5   27.40    6.70
  -2  -5   5   24.90    5.00
  -2  -5   5   17.10    4.70
  -2  -5   5   20.20    2.70
   1   5  -5  673.53   36.40
   1   5  -5  629.24   35.90
   1   5  -5  654.03   35.20
  -1  -5   5  713.83   35.00
  -1  -5   5  688.03   34.40
  -1  -5   5  661.73   30.20
   0   5  -5  565.84   32.90
   0   5  -5  608.54   32.50
   0  -5   5  598.24   30.60
   0  -5   5  640.54   28.80
   0  -5   5  615.34   32.00
  -1   5  -5   36.70    7.30
  -1   5  -5   34.70    6.30
   1  -5   5   35.70    4.70
   1  -5   5   33.40    6.00
  -2   5  -5  778.62   43.40
  -2   5  -5  908.61   41.00
  -2   5  -5  788.72   44.00
   2  -5   5  785.42   42.40
   2  -5   5  851.71   39.30
  -3   5  -5   25.80    6.20
  -3   5  -5   20.50    5.60
  -3   5  -5   26.10    4.40
   3  -5   5   17.20    4.50
   3  -5   5   18.30    2.90
  -4   5  -5 1024.20   51.09
  -4   5  -5 1033.50   56.79
  -4   5  -5 1098.49   57.69
   4  -5   5 1101.79   55.89
   4  -5   5 1076.59   56.19
  -5   5  -5   21.60    7.30
  -5   5  -5   28.60    6.70
   5  -5   5   14.60    5.50
   5  -5   5   18.70    4.20
   5   4  -5   19.40    5.10
   5   4  -5    8.70    3.80
   5   4  -5    3.90    4.20
  -5  -4   5    4.30    4.60
   4   4  -5   16.50    4.60
   4   4  -5    9.10    6.00
   4   4  -5   21.10    5.50
  -4  -4   5   19.00    4.10
  -4  -4   5   18.40    6.10
   3   4  -5    1.60    4.10
   3   4  -5    3.80    2.40
   3   4  -5    5.40    2.90
  -3  -4   5    1.70    1.00
  -3  -4   5    4.20    1.50
   2   4  -5  331.47   21.50
   2   4  -5  362.46   22.10
   2   4  -5  340.87   22.20
  -2  -4   5  365.26   16.80
  -2  -4   5  354.66   20.70
  -2  -4   5  338.47   20.10
   1   4  -5    0.00    2.70
   1   4  -5    3.90    2.80
  -1  -4   5    7.00    2.30
  -1  -4   5    4.70    2.50
   0   4  -5  372.36   22.50
   0   4  -5  406.66   22.10
   0  -4   5  413.66   18.90
   0  -4   5  389.86   20.30
   0  -4   5  384.66   21.50
  -1   4  -5   47.80    4.10
  -1   4  -5   64.99    7.40
  -1   4  -5   58.79    8.20
   1  -4   5   44.20    4.00
   1  -4   5   50.39    6.80
   1  -4   5   48.20    4.70
  -2   4  -5 1228.08   59.19
  -2   4  -5 1166.68   56.39
  -2   4  -5 1177.68   59.19
   2  -4   5 1250.87   54.39
   2  -4   5 1204.18   58.29
  -3   4  -5   29.90    6.80
  -3   4  -5   30.50    4.90
  -3   4  -5   34.40    6.80
  -3   4  -5   20.50    4.00
   3  -4   5   36.10    4.10
   3  -4   5   24.30    6.40
   3  -4   5   21.90    5.10
  -4   4  -5   46.60    8.80
  -4   4  -5   27.10    6.80
   4  -4   5   40.50    7.20
   4  -4   5   41.10    8.20
  -5   4  -5  341.87   25.60
  -5   4  -5  358.26   27.10
   5  -4   5  372.06   25.10
   5  -4   5  377.36   23.90
   5   3  -5  115.99   15.10
   5   3  -5  154.38   13.50
   5   3  -5  142.69   14.30
  -5  -3   5  104.39   16.50
   4   3  -5   64.69   10.80
   4   3  -5   37.90    7.90
   4   3  -5   61.89   10.50
  -4  -3   5   67.79    8.60
  -4  -3   5   52.79   10.30
   3   3  -5  372.36   23.90
   3   3  -5  353.16   23.00
   3   3  -5  413.36   25.10
  -3  -3   5  404.46   20.30
  -3  -3   5  373.16   21.60
  -3  -3   5  410.76   25.00
   2   3  -5   88.79    8.90
   2   3  -5   88.29    9.80
   2   3  -5   84.29   10.10
  -2  -3   5   99.39    7.60
   1   3  -5  282.17   16.90
   1   3  -5  299.47   17.90
   1   3  -5  320.97   18.20
  -1  -3   5  299.27   16.60
  -1  -3   5  329.57   17.10
   0   3  -5  754.52   37.70
   0   3  -5  736.43   36.90
   0   3  -5  860.11   37.80
   0   3  -5  741.63   35.40
   0  -3   5  747.03   36.70
   0  -3   5  771.62   35.30
   0  -3   5  755.82   34.30
  -1   3  -5  342.57   19.40
  -1   3  -5  313.87   18.00
  -1   3  -5  346.57   17.60
   1  -3   5  345.07   18.50
   1  -3   5  308.67   17.40
   1  -3   5  320.67   15.50
  -2   3  -5    2.60    2.10
  -2   3  -5    7.20    2.40
  -2   3  -5    1.00    2.60
   2  -3   5    1.80    2.30
   2  -3   5    7.10    2.70
   2  -3   5    8.40    3.10
   2  -3   5    4.90    1.00
  -3   3  -5   32.40    7.10
  -3   3  -5   52.69    7.90
  -3   3  -5   50.09    8.50
  -3   3  -5   53.59    6.00
   3  -3   5   51.29    5.30
   3  -3   5   47.60    4.00
   3  -3   5   45.20    7.30
   3  -3   5   51.09    8.20
  -4   3  -5    5.50    3.40
  -4   3  -5    9.00    3.70
  -4   3  -5    9.10    4.80
   4  -3   5    8.40    3.80
   4  -3   5    9.40    3.20
  -5   3  -5   -2.90    2.00
  -5   3  -5    5.60    4.00
  -5   3  -5    4.30    1.40
   5  -3   5   -3.20    2.90
   5  -3   5    7.80    3.00
   5  -3   5    1.30    2.00
   5   2  -5  451.05   27.70
   5   2  -5  413.76   27.20
   5   2  -5  445.86   30.30
  -5  -2   5  398.46   25.50
  -5  -2   5  436.76   30.60
   4   2  -5   74.89   10.10
   4   2  -5   64.89   10.60
   4   2  -5   71.89   11.70
  -4  -2   5   77.29   11.80
   3   2  -5  504.75   27.60
   3   2  -5  486.35   27.80
   3   2  -5  515.35   29.40
  -3  -2   5  485.55   28.80
  -3  -2   5  503.15   25.90
   2   2  -5  333.27   18.30
   2   2  -5  342.27   19.80
   2   2  -5  336.07   17.50
   2   2  -5  306.57   15.60
   2   2  -5  297.27   18.30
  -2  -2   5  319.27   16.90
  -2  -2   5  293.67   16.10
  -2  -2   5  334.47   19.20
   1   2  -5    4.50    1.70
   1   2  -5    3.20    2.60
   1   2  -5    6.30    2.80
   1   2  -5    5.90    2.00
  -1  -2   5    2.50    1.50
  -1  -2   5    3.90    1.70
   0   2  -5  352.06   20.40
   0   2  -5  419.36   18.60
   0   2  -5  406.16   20.20
   0   2  -5  391.46   18.60
   0   2  -5  393.96   20.70
   0  -2   5  383.56   21.30
   0  -2   5  387.96   18.60
   0  -2   5  449.36   21.80
   0  -2   5  390.36   19.90
  -1   2  -5   70.39    6.00
  -1   2  -5   61.19    5.40
  -1   2  -5   59.99    7.30
   1  -2   5   73.79    6.50
   1  -2   5   61.39    5.70
   1  -2   5   61.99    5.50
   1  -2   5   65.29    6.90
  -2   2  -5  366.76   22.40
  -2   2  -5  382.46   19.30
  -2   2  -5  452.75   23.10
   2  -2   5  412.06   21.80
   2  -2   5  375.66   22.70
   2  -2   5  408.56   22.00
   2  -2   5  410.16   18.40
  -3   2  -5    7.50    3.30
  -3   2  -5   15.60    3.30
  -3   2  -5    5.10    3.90
  -3   2  -5   12.10    3.70
   3  -2   5    8.80    3.50
   3  -2   5    7.80    2.60
   3  -2   5   14.70    4.00
   3  -2   5   10.80    2.10
  -4   2  -5    8.30    3.40
  -4   2  -5   15.50    5.60
  -4   2  -5   11.80    4.70
  -4   2  -5   10.70    3.20
   4  -2   5    3.80    4.60
   4  -2   5    4.50    1.60
   4  -2   5    4.60    3.00
  -5   2  -5   15.20    6.40
  -5   2  -5   23.70    7.90
  -5   2  -5   27.80    6.00
   5  -2   5   29.60    6.20
   5  -2   5   35.40    9.70
   6   1  -5   10.10    4.30
   6   1  -5    6.60    3.20
  -6  -1   5    3.30    5.30
   5   1  -5   -4.30    2.80
   5   1  -5    9.70    4.50
   5   1  -5    2.10    2.20
  -5  -1   5   -2.30    3.20
  -5  -1   5    0.00    0.70
   4   1  -5  436.16   28.10
   4   1  -5  438.26   25.50
   4   1  -5  412.66   25.10
  -4  -1   5  456.75   24.70
  -4  -1   5  449.86   28.20
   3   1  -5  830.32   41.30
   3   1  -5  864.01   44.00
   3   1  -5  805.42   41.40
  -3  -1   5  873.31   43.90
   2   1  -5  531.35   27.30
   2   1  -5  604.64   27.10
   2   1  -5  568.24   30.30
   2   1  -5  555.74   28.00
   2   1  -5  582.14   28.70
  -2  -1   5  617.04   27.30
  -2  -1   5  579.44   30.00
  -2  -1   5  536.05   26.50
   1   1  -5  918.31   42.80
   1   1  -5  943.31   41.90
   1   1  -5  898.91   41.30
   1   1  -5  879.91   41.80
  -1  -1   5  944.21   42.90
  -1  -1   5  905.81   41.00
  -1  -1   5  896.41   41.50
  -1  -1   5  837.22   42.10
  -1  -1   5 1029.20   45.60
   0   1  -5   96.39    5.20
   0   1  -5   96.19    6.60
   0   1  -5   94.99    6.00
   0   1  -5   90.99    6.00
   0  -1   5   91.19    6.00
   0  -1   5  104.49    6.00
   0  -1   5   85.79    7.20
   0  -1   5   96.29    6.10
  -1   1  -5  291.07   15.90
  -1   1  -5  273.57   15.40
  -1   1  -5  289.57   14.90
   1  -1   5  302.47   15.20
   1  -1   5  243.88   16.00
   1  -1   5  281.17   15.80
  -2   1  -5  290.17   17.30
  -2   1  -5  283.57   13.90
  -2   1  -5  269.87   16.60
   2  -1   5  277.67   13.40
   2  -1   5  258.97   16.50
   2  -1   5  274.77   16.00
   2  -1   5  261.37   16.20
  -3   1  -5   11.40    3.60
  -3   1  -5   12.10    3.30
  -3   1  -5   12.50    4.90
  -3   1  -5   11.80    3.90
   3  -1   5   16.30    3.90
   3  -1   5   16.80    4.00
   3  -1   5   11.60    3.70
   3  -1   5   11.00    5.50
  -4   1  -5  257.17   17.60
  -4   1  -5  264.17   19.80
  -4   1  -5  254.07   20.40
  -4   1  -5  325.47   21.60
   4  -1   5  297.17   18.00
   4  -1   5  291.77   23.90
   4  -1   5  323.47   20.10
  -5   1  -5   19.20    7.00
  -5   1  -5   16.60    5.20
   5  -1   5   16.90    5.90
   5  -1   5   24.20    4.90
   6   0  -5  763.22   42.20
   6   0  -5  773.42   47.80
  -6   0   5  696.53   46.20
   5   0  -5  210.18   15.50
   5   0  -5  228.48   16.20
   5   0  -5  219.18   19.50
  -5   0   5  229.28   19.60
  -5   0   5  235.28   15.70
  -5   0   5  173.38   20.20
   4   0  -5  533.15   28.70
   4   0  -5  551.34   28.50
   4   0  -5  538.65   32.30
  -4   0   5  529.55   28.00
  -4   0   5  443.16   33.40
  -4   0   5  539.35   32.40
   3   0  -5    1.40    2.70
   3   0  -5    7.50    2.90
   3   0  -5    4.00    3.80
   3   0  -5    7.50    1.90
  -3   0   5   12.50    2.70
  -3   0   5   11.40    4.20
  -3   0   5   15.70    5.20
   2   0  -5 1017.80   44.70
   2   0  -5  937.21   43.80
   2   0  -5  959.50   44.40
   2   0  -5  989.20   47.30
   2   0  -5 1088.89   45.40
  -2   0   5  940.91   47.20
  -2   0   5  884.71   46.00
  -2   0   5 1005.00   43.90
  -2   0   5  908.91   48.40
   1   0  -5  650.33   32.30
   1   0  -5  695.83   30.40
   1   0  -5  698.63   30.60
  -1   0   5  676.63   32.20
  -1   0   5  692.73   32.80
  -1   0   5  667.03   30.10
  -1   0   5  694.53   29.90
   0   0  -5 1673.73   71.39
   0   0  -5 1566.24   73.09
   0   0  -5 1688.23   71.79
   0   0   5 1545.45   73.59
   0   0   5 1687.73   71.99
  -1   0  -5  872.81   39.60
  -1   0  -5  841.62   37.60
  -1   0  -5  927.91   39.40
  -1   0  -5  785.82   40.50
   1   0   5  799.42   40.50
   1   0   5  861.01   39.10
   1   0   5  777.92   40.80
   1   0   5  885.11   37.90
  -2   0  -5 2670.83  117.79
  -2   0  -5 2593.74  118.89
   2   0   5 2681.63  115.09
   2   0   5 2487.05  118.29
   2   0   5 2560.64  117.59
   2   0   5 2756.02  117.39
  -3   0  -5    8.90    3.90
  -3   0  -5   10.50    3.50
  -3   0  -5   10.60    3.10
   3   0   5   15.50    6.00
   3   0   5   15.50    4.30
   3   0   5   19.50    4.60
   3   0   5   18.90    4.30
  -4   0  -5  904.71   49.70
  -4   0  -5 1007.90   48.00
  -4   0  -5 1019.10   51.39
   4   0   5  872.01   53.59
   4   0   5 1027.50   46.80
   4   0   5  945.21   49.40
   4   0   5  858.61   47.60
  -5   0  -5   68.79   11.30
  -5   0  -5   63.59   11.20
  -5   0  -5   49.80    8.80
   5   0   5   49.40   12.00
   5   0   5   49.20    8.40
   6  -1  -5    2.00    2.20
   6  -1  -5   11.30    6.30
  -6   1   5    3.20    4.70
  -6   1   5   -2.90    3.60
   5  -1  -5  101.49   10.50
   5  -1  -5  126.29   10.90
   5  -1  -5  120.29   17.00
  -5   1   5  114.79   18.80
  -5   1   5  115.59   16.70
  -5   1   5   83.09   10.50
   4  -1  -5  571.64   30.50
   4  -1  -5  614.74   34.80
   4  -1  -5  562.14   29.30
  -4   1   5  572.74   30.40
  -4   1   5  558.64   36.60
  -4   1   5  611.54   35.30
   3  -1  -5   -1.40    2.60
   3  -1  -5    0.20    0.90
   3  -1  -5    3.50    1.80
   3  -1  -5    3.40    2.30
  -3   1   5    2.80    1.10
  -3   1   5    3.40    2.10
  -3   1   5    1.30    2.80
  -3   1   5    1.10    0.50
   2  -1  -5 9999.00  423.46
  -2   1   5 9665.33  424.06
  -2   1   5 9618.84  424.76
   1  -1  -5    0.30    0.40
  -1   1   5    0.90    1.70
  -1   1   5   -0.20    2.00
   0  -1  -5 3707.53  155.18
   0  -1  -5 3699.93  157.08
   0  -1  -5 3557.24  154.08
   0   1   5 3405.16  156.28
   0   1   5 3425.76  159.28
  -1  -1  -5   36.00    4.10
  -1  -1  -5   33.70    4.50
  -1  -1  -5   34.50    5.70
  -1  -1  -5   29.30    4.30
   1   1   5   36.00    4.10
   1   1   5   43.20    4.80
   1   1   5   31.20    5.80
   1   1   5   35.60    5.40
  -2  -1  -5  793.22   41.80
  -2  -1  -5  846.02   38.40
  -2  -1  -5  848.52   40.30
   2   1   5  915.51   40.50
   2   1   5  704.53   41.60
   2   1   5  820.32   39.90
   2   1   5  793.12   41.90
  -3  -1  -5  364.66   23.60
  -3  -1  -5  349.37   21.90
   3   1   5  341.17   22.80
   3   1   5  366.06   21.90
   3   1   5  361.76   24.80
   3   1   5  396.06   21.00
  -4  -1  -5   85.49   12.40
  -4  -1  -5   69.79   10.60
  -4  -1  -5   78.99   10.20
   4   1   5   87.69   14.40
   4   1   5   72.09   10.60
   4   1   5   77.69    7.30
   4   1   5   85.09   11.30
  -5  -1  -5  899.91   50.19
  -5  -1  -5  872.01   47.10
  -5  -1  -5  930.51   49.70
   5   1   5  850.71   53.89
   5   1   5  791.22   47.20
   6  -2  -5  358.36   23.60
   6  -2  -5  363.76   28.60
  -6   2   5  333.37   31.20
  -6   2   5  344.47   28.40
   5  -2  -5  231.88   20.20
   5  -2  -5  233.48   16.60
  -5   2   5  222.98   22.10
  -5   2   5  258.87   21.50
   4  -2  -5 1169.78   56.69
   4  -2  -5 1220.68   61.19
   4  -2  -5 1234.68   54.39
  -4   2   5 1236.78   64.19
  -4   2   5 1135.79   56.69
  -4   2   5 1121.39   61.39
   3  -2  -5   79.99    8.40
   3  -2  -5   69.59    5.40
   3  -2  -5   72.09    6.10
  -3   2   5   79.29    6.00
  -3   2   5   69.19   10.20
  -3   2   5   79.99   11.20
   2  -2  -5  657.23   33.20
   2  -2  -5  680.23   30.50
   2  -2  -5  649.64   30.50
   2  -2  -5  632.64   30.70
  -2   2   5  649.04   34.40
  -2   2   5  660.03   34.70
  -2   2   5  635.04   30.10
  -2   2   5  706.13   32.00
  -2   2   5  717.83   30.20
   1  -2  -5  183.48    8.80
   1  -2  -5  169.98    9.00
  -1   2   5  198.68   12.40
  -1   2   5  179.98   11.10
   0  -2  -5  175.58    9.30
   0  -2  -5  157.98   11.90
   0  -2  -5  188.08   11.00
   0  -2  -5  178.28    9.70
   0   2   5  168.38    9.00
   0   2   5  185.08   10.80
   0   2   5  170.08   12.40
   0   2   5  175.88   11.20
  -1  -2  -5 1782.82   82.79
  -1  -2  -5 1856.51   84.39
  -1  -2  -5 1823.02   86.19
  -1  -2  -5 1861.51   83.69
  -1  -2  -5 1875.51   83.49
   1   2   5 1938.21   83.59
   1   2   5 1806.12   86.89
   1   2   5 1914.71   84.49
  -2  -2  -5 1528.85   75.49
  -2  -2  -5 1650.83   72.29
   2   2   5 1666.03   73.49
   2   2   5 1535.05   76.19
   2   2   5 1416.36   74.39
   2   2   5 1649.23   72.89
  -3  -2  -5  649.14   32.80
  -3  -2  -5  627.34   36.20
  -3  -2  -5  706.93   35.10
   3   2   5  677.33   32.70
   3   2   5  588.34   33.90
   3   2   5  574.84   36.10
   3   2   5  596.34   36.40
  -4  -2  -5  497.75   31.30
  -4  -2  -5  492.25   28.90
  -4  -2  -5  536.25   30.20
   4   2   5  391.86   29.20
   4   2   5  477.65   32.50
   4   2   5  489.55   29.00
  -5  -2  -5    7.80    2.30
  -5  -2  -5    6.90    3.70
  -5  -2  -5    3.80    3.80
   5   2   5   14.90    4.20
   5   2   5    5.20    1.70
   6  -3  -5  412.06   31.40
   6  -3  -5  431.26   27.00
  -6   3   5  399.46   34.70
  -6   3   5  429.76   32.50
   5  -3  -5   92.39   11.30
   5  -3  -5  119.59   16.70
  -5   3   5   79.79   14.20
  -5   3   5   94.59   16.40
   4  -3  -5   98.19    8.90
   4  -3  -5  109.89   11.80
  -4   3   5  121.99   15.60
  -4   3   5  104.59    8.50
  -4   3   5  102.19   14.80
   3  -3  -5  327.37   16.60
   3  -3  -5  366.56   21.80
   3  -3  -5  357.56   19.20
   3  -3  -5  388.66   19.20
  -3   3   5  370.16   23.90
  -3   3   5  374.96   23.60
  -3   3   5  368.46   19.10
   2  -3  -5  301.37   15.50
   2  -3  -5  328.17   17.40
   2  -3  -5  316.07   15.80
  -2   3   5  244.38   14.60
  -2   3   5  324.77   19.50
  -2   3   5  328.17   19.60
   1  -3  -5 2101.19   90.69
   1  -3  -5 2031.30   90.69
   1  -3  -5 1952.20   92.89
   1  -3  -5 2046.90   90.19
  -1   3   5 2102.59   89.79
  -1   3   5 1972.00   93.89
  -1   3   5 2070.09   94.39
  -1   3   5 2034.70   89.89
  -1   3   5 2066.09   93.99
  -1   3   5 2169.48   92.89
   0  -3  -5  767.22   38.50
   0  -3  -5  763.72   34.50
   0  -3  -5  776.92   36.60
   0  -3  -5  739.63   35.00
   0  -3  -5  707.13   34.40
   0   3   5  755.32   36.60
   0   3   5  715.73   38.60
   0   3   5  703.13   34.60
  -1  -3  -5  749.33   34.70
  -1  -3  -5  738.13   35.70
  -1  -3  -5  685.73   35.20
  -1  -3  -5  720.23   34.70
  -1  -3  -5  717.93   38.10
   1   3   5  724.03   35.80
   1   3   5  698.23   35.10
   1   3   5  664.93   38.60
  -2  -3  -5   54.69    7.50
  -2  -3  -5   42.50    8.10
  -2  -3  -5   52.29    7.10
   2   3   5   47.50    6.90
   2   3   5   56.69   10.40
   2   3   5   48.20    7.60
   2   3   5   47.00    6.70
  -3  -3  -5   11.30    4.70
  -3  -3  -5    2.20    3.00
   3   3   5    4.40    2.90
   3   3   5   17.80    4.30
   3   3   5    2.60    2.60
   3   3   5    5.20    4.40
  -4  -3  -5   42.90    8.00
  -4  -3  -5   29.70    7.80
   4   3   5   46.90    9.60
   4   3   5   30.10    9.30
   4   3   5   29.00    5.80
   6  -4  -5    2.50    2.20
   6  -4  -5   14.10    6.20
  -6   4   5   10.40    7.30
  -6   4   5    4.60    4.40
   5  -4  -5  318.47   20.80
   5  -4  -5  292.57   23.90
  -5   4   5  346.07   26.20
  -5   4   5  336.47   27.50
   4  -4  -5    2.20    2.00
   4  -4  -5    2.90    3.70
  -4   4   5    2.20    2.30
  -4   4   5    1.30    0.90
  -4   4   5    5.40    5.10
   3  -4  -5  192.58   11.60
   3  -4  -5  160.38   11.20
   3  -4  -5  171.28   13.10
  -3   4   5  175.48   15.10
  -3   4   5  177.58   11.00
  -3   4   5  154.88   14.20
   2  -4  -5  460.25   23.70
   2  -4  -5  463.05   26.40
   2  -4  -5  456.95   24.00
   2  -4  -5  526.15   24.60
  -2   4   5  438.76   23.10
  -2   4   5  497.05   28.30
  -2   4   5  499.15   28.40
  -2   4   5  457.85   25.60
   1  -4  -5  332.07   20.10
   1  -4  -5  345.77   17.60
   1  -4  -5  337.87   16.10
   1  -4  -5  325.97   18.10
  -1   4   5  349.07   21.20
  -1   4   5  352.96   17.60
  -1   4   5  322.07   20.70
   0  -4  -5  874.31   42.80
   0  -4  -5  921.01   40.00
   0  -4  -5  890.31   46.20
   0  -4  -5  855.51   44.10
   0  -4  -5  898.91   42.10
   0   4   5  881.61   47.00
   0   4   5  882.71   44.00
   0   4   5  943.61   42.80
  -1  -4  -5 1173.68   60.79
  -1  -4  -5 1276.57   55.79
  -1  -4  -5 1225.48   58.39
  -1  -4  -5 1158.98   56.69
   1   4   5 1260.87   58.29
   1   4   5 1182.68   57.59
   1   4   5 1195.48   62.79
  -2  -4  -5   75.39    9.80
  -2  -4  -5   83.29    9.70
  -2  -4  -5   82.59   11.80
   2   4   5   79.69    9.60
   2   4   5   87.09   14.00
   2   4   5   85.19   10.00
  -3  -4  -5 1505.15   69.09
  -3  -4  -5 1399.66   72.19
  -3  -4  -5 1443.06   68.69
   3   4   5 1293.37   69.59
   3   4   5 1265.67   73.89
   3   4   5 1561.84   70.39
  -4  -4  -5   28.10    6.90
  -4  -4  -5   16.00    5.30
  -4  -4  -5   32.10    7.00
   4   4   5   13.70    6.60
   4   4   5   25.60    5.10
   4   4   5   19.40    4.60
   6  -5  -5    5.70    4.30
   6  -5  -5    7.50    2.80
  -6   5   5    0.90    4.50
  -6   5   5    3.50    5.30
   5  -5  -5  191.48   17.60
   5  -5  -5  189.98   14.90
  -5   5   5  193.18   23.40
  -5   5   5  179.68   19.50
   4  -5  -5  323.97   22.40
   4  -5  -5  331.67   20.30
  -4   5   5  329.27   24.70
  -4   5   5  351.86   26.30
   3  -5  -5  193.88   13.40
   3  -5  -5  173.38   12.20
   3  -5  -5  186.68   14.50
  -3   5   5  196.08   16.80
  -3   5   5  187.58   11.90
  -3   5   5  185.88   16.40
  -3   5   5  164.48   11.80
   2  -5  -5    6.90    3.20
   2  -5  -5   13.00    2.80
   2  -5  -5    9.70    2.30
   2  -5  -5   10.00    3.00
   2  -5  -5    9.40    2.40
  -2   5   5    6.90    2.30
  -2   5   5   10.00    4.80
  -2   5   5    8.90    3.80
  -2   5   5   11.70    3.40
   1  -5  -5  285.97   18.80
   1  -5  -5  302.57   17.30
   1  -5  -5  294.37   16.50
  -1   5   5  301.47   20.10
  -1   5   5  284.17   16.40
  -1   5   5  272.17   19.90
   0  -5  -5    7.20    3.60
   0  -5  -5    5.10    2.90
   0  -5  -5    6.00    2.80
   0  -5  -5   12.60    3.30
   0   5   5   14.50    3.10
   0   5   5    5.00    4.10
  -1  -5  -5  358.26   22.00
  -1  -5  -5  352.86   20.50
  -1  -5  -5  355.06   23.90
   1   5   5  329.07   20.70
   1   5   5  375.46   26.70
  -2  -5  -5    3.20    2.80
  -2  -5  -5   -0.40    1.80
  -2  -5  -5   -0.90    2.70
   2   5   5    3.70    4.20
   2   5   5    5.10    2.00
  -3  -5  -5  101.39   12.90
  -3  -5  -5   92.89   13.80
  -3  -5  -5  104.69   12.60
   3   5   5   95.39   12.10
   3   5   5   97.39   16.70
  -4  -5  -5    5.00    4.20
  -4  -5  -5    3.80    2.90
   4   5   5   12.40    7.20
   6  -6  -5   42.10    8.00
   6  -6  -5   35.50   12.00
  -6   6   5  100.69   19.60
  -6   6   5   44.20   11.10
   5  -6  -5   41.10    7.60
   5  -6  -5   67.19   10.60
   5  -6  -5   61.99   11.20
  -5   6   5   54.09   12.80
  -5   6   5   60.89   13.00
   4  -6  -5   94.79   11.10
   4  -6  -5  105.79   10.50
   4  -6  -5  121.49   14.10
  -4   6   5  103.19   16.00
  -4   6   5   93.79   15.80
   3  -6  -5   17.40    4.20
   3  -6  -5   18.40    4.80
  -3   6   5   19.60    7.50
  -3   6   5   29.40    5.20
  -3   6   5   18.60    6.10
   2  -6  -5  502.65   27.30
   2  -6  -5  484.65   29.90
  -2   6   5  508.45   30.20
  -2   6   5  549.95   27.40
  -2   6   5  533.85   33.30
   1  -6  -5   29.80    6.50
   1  -6  -5   28.70    5.20
  -1   6   5   25.60    6.80
  -1   6   5   38.00    5.40
  -1   6   5   26.90    6.90
   0  -6  -5   17.80    4.20
   0  -6  -5   15.70    5.20
   0  -6  -5   14.80    4.90
   0   6   5   20.10    6.40
   0   6   5   22.00    4.30
  -1  -6  -5   83.49   12.40
  -1  -6  -5   74.49    9.70
  -1  -6  -5   68.79   10.00
   1   6   5   76.69    9.60
   1   6   5   71.99   14.10
  -2  -6  -5  103.79   13.00
  -2  -6  -5  106.99   14.40
  -2  -6  -5   87.79   11.30
   2   6   5   91.99   11.70
   2   6   5   82.89   16.30
  -3  -6  -5   18.20    4.40
  -3  -6  -5   17.40    4.20
  -3  -6  -5   29.10    7.20
   3   6   5   12.80    7.60
   5  -7  -5   92.99   12.20
  -5   7   5   81.49   16.60
  -5   7   5   98.59   16.80
   4  -7  -5  323.17   20.80
   4  -7  -5  287.27   21.90
  -4   7   5  288.87   24.70
  -4   7   5  350.76   27.70
   3  -7  -5  118.19   10.20
   3  -7  -5  104.39   13.00
  -3   7   5   92.89   15.70
  -3   7   5  103.89    9.90
   2  -7  -5   44.20    6.90
   2  -7  -5   34.30    7.00
  -2   7   5   33.30    7.40
  -2   7   5   29.50    8.20
   1  -7  -5  146.99   15.90
   1  -7  -5  144.79   11.60
  -1   7   5  157.48   15.90
  -1   7   5  164.28   15.50
   0  -7  -5    9.60    3.70
   0  -7  -5    4.60    3.90
   0  -7  -5    5.60    3.00
   0   7   5    4.50    3.50
  -1  -7  -5  134.19   11.90
  -1  -7  -5  143.79   14.10
  -1  -7  -5  159.88   16.70
   1   7   5  140.19   20.60
  -2  -7  -5  144.89   14.80
  -2  -7  -5  168.18   17.90
  -2  -7  -5  165.58   13.80
   2   7   5  118.89   21.30
  -5   8   5   78.49   15.40
   4  -8  -5   45.80    7.80
   4  -8  -5   52.89    8.30
  -4   8   5   54.59   12.90
   3  -8  -5  118.39   14.80
   3  -8  -5  112.49   10.30
  -3   8   5   96.09   10.10
  -3   8   5  127.59   18.60
   2  -8  -5  339.47   23.50
   2  -8  -5  339.87   20.90
  -2   8   5  310.17   26.30
  -2   8   5  309.77   23.60
   1  -8  -5  219.98   18.30
   1  -8  -5  216.38   15.40
   1  -8  -5  237.78   18.40
  -1   8   5  198.38   18.90
  -1   8   5  186.48   19.40
   0  -8  -5  405.36   24.30
   0  -8  -5  410.16   28.00
   0  -8  -5  369.96   26.00
   0   8   5  355.46   29.70
  -1  -8  -5  119.19   14.00
  -1  -8  -5  109.29   14.50
  -1  -8  -5  102.29   15.30
   1   8   5  123.09   20.70
   3  -9  -5   54.89    9.20
   3  -9  -5   51.59    8.40
  -3   9   5   27.40    9.60
  -3   9   5   45.70    8.90
   2  -9  -5   37.30    7.20
   2  -9  -5   38.00    7.70
  -2   9   5   42.00   10.90
  -2   9   5   32.30    8.50
   1  -9  -5  130.49   11.70
   1  -9  -5  115.79   15.20
   1  -9  -5  124.69   12.60
  -1   9   5  130.19   18.90
  -1   9   5   97.89   17.50
   0  -9  -5   46.90    9.10
   0  -9  -5   43.50    9.30
   0  -9  -5   51.59    9.10
   0   9   5   61.29   13.60
   0   9  -6   91.09   12.40
   0   9  -6   79.99   12.10
   0  -9   6   73.19   10.80
   0  -9   6   52.79    8.60
  -1   9  -6   41.20    7.30
  -1   9  -6   42.10    7.80
   1  -9   6   44.30    7.80
   1  -9   6   46.10    7.30
  -2   9  -6   73.59   12.00
  -2   9  -6   68.19   14.10
   2  -9   6   72.39   10.70
  -3   9  -6  260.57   21.20
  -3   9  -6  258.67   24.90
   3  -9   6  271.67   20.20
   2   8  -6   25.90    7.10
   2   8  -6   15.20    4.50
  -2  -8   6   27.90    6.90
  -2  -8   6   19.60    4.70
   1   8  -6  179.78   16.50
   1   8  -6  202.98   17.30
  -1  -8   6  201.98   15.80
  -1  -8   6  201.28   15.70
   0   8  -6    2.10    2.90
   0   8  -6   10.00    3.90
   0  -8   6   10.10    2.60
   0  -8   6    3.80    2.90
  -1   8  -6  819.12   45.30
  -1   8  -6  685.23   41.50
   1  -8   6  817.42   43.20
   1  -8   6  805.72   40.40
  -2   8  -6    4.10    2.50
  -2   8  -6    3.90    1.60
  -2   8  -6    1.80    3.10
   2  -8   6    7.80    2.00
  -3   8  -6  168.98   15.80
  -3   8  -6  206.78   20.00
   3  -8   6  176.18   15.20
  -4   8  -6  210.68   20.70
  -4   8  -6  164.08   20.40
   4  -8   6  203.68   16.80
   3   7  -6  159.08   20.00
   3   7  -6  175.68   15.60
  -3  -7   6  162.68   13.80
   2   7  -6   40.60    7.70
   2   7  -6   47.70    9.80
   2   7  -6   48.90    7.70
  -2  -7   6   60.89    9.20
  -2  -7   6   48.90    8.40
   1   7  -6  130.19   15.00
   1   7  -6  122.19   12.60
   1   7  -6  124.09   10.90
  -1  -7   6  140.19   11.80
  -1  -7   6  125.79   11.20
   0   7  -6  119.49   14.60
   0   7  -6  127.29   11.70
   0  -7   6  106.29    9.70
   0  -7   6  118.39   10.50
  -1   7  -6  104.49   13.40
  -1   7  -6   76.19   10.60
   1  -7   6   73.49   10.00
   1  -7   6   82.09    9.00
  -2   7  -6  360.46   24.60
  -2   7  -6  328.37   25.60
  -2   7  -6  351.46   21.40
   2  -7   6  336.07   22.80
   2  -7   6  358.66   19.80
  -3   7  -6    7.80    3.40
  -3   7  -6    8.60    5.20
   3  -7   6    6.70    2.40
  -4   7  -6  220.48   23.60
  -4   7  -6  185.78   18.50
   4  -7   6  165.28   15.20
   4  -7   6  183.88   18.70
   4   6  -6  260.07   21.60
   4   6  -6  249.18   20.00
   4   6  -6  239.48   18.90
  -4  -6   6  228.48   21.50
   3   6  -6   25.10    5.40
   3   6  -6   28.80    8.20
   3   6  -6   20.40    4.60
  -3  -6   6   28.50    5.40
   2   6  -6   47.70    7.80
   2   6  -6   46.60    9.20
   2   6  -6   39.00    7.90
  -2  -6   6   36.40    7.00
  -2  -6   6   30.80    5.80
   1   6  -6  160.78   13.30
   1   6  -6  124.79   11.00
   1   6  -6  117.89   12.10
  -1  -6   6  131.49   10.80
  -1  -6   6  135.69   11.00
   0   6  -6   44.00    8.10
   0   6  -6   37.80    7.30
   0  -6   6   41.40    6.80
   0  -6   6   50.99    6.90
  -1   6  -6    7.00    3.00
  -1   6  -6    8.10    3.30
   1  -6   6    3.30    1.70
   1  -6   6    5.90    2.20
  -2   6  -6   59.59    8.10
  -2   6  -6   48.50    9.10
  -2   6  -6   58.99   10.20
   2  -6   6   55.39    8.50
   2  -6   6   55.79    6.10
  -3   6  -6  129.49    9.80
  -3   6  -6  104.49   14.60
  -3   6  -6  100.49   14.10
   3  -6   6  111.69   13.90
  -4   6  -6  111.99   15.80
  -4   6  -6  105.39   15.40
   4  -6   6  113.69   16.30
   4  -6   6  112.39   14.30
  -5   6  -6  148.39   20.10
  -5   6  -6  140.19   18.30
   5  -6   6  139.59   18.40
   5  -6   6  121.99   15.50
   4   5  -6   17.70    7.40
   4   5  -6   16.10    4.30
   4   5  -6   15.50    4.20
  -4  -5   6   10.30    2.90
  -4  -5   6   12.30    4.30
   3   5  -6  660.03   37.20
   3   5  -6  589.54   36.30
   3   5  -6  642.54   37.90
  -3  -5   6  649.04   34.70
   2   5  -6  165.38   13.00
   2   5  -6  110.89   13.00
   2   5  -6  113.39   14.10
  -2  -5   6  139.49   10.80
  -2  -5   6  121.69   10.80
   1   5  -6 1069.29   54.89
   1   5  -6 1093.99   54.89
  -1  -5   6 1099.99   52.49
  -1  -5   6 1104.19   53.19
   0   5  -6   19.70    5.40
   0   5  -6   24.90    5.80
   0  -5   6   19.70    4.40
   0  -5   6   23.20    4.10
   0  -5   6   21.00    2.00
  -1   5  -6  360.96   22.80
  -1   5  -6  399.16   21.50
   1  -5   6  331.27   21.10
   1  -5   6  348.07   18.50
  -2   5  -6   30.60    5.30
  -2   5  -6   23.40    5.70
  -2   5  -6   23.70    5.80
   2  -5   6   25.10    3.20
   2  -5   6   31.10    6.20
  -3   5  -6  157.28   14.00
  -3   5  -6  154.18   13.90
  -3   5  -6  163.88   11.50
   3  -5   6  170.68   10.10
   3  -5   6  161.08   15.10
   3  -5   6  140.59   12.60
  -4   5  -6   78.89   12.20
  -4   5  -6   73.89    6.70
  -4   5  -6   76.39   12.10
   4  -5   6   83.69   13.10
   4  -5   6   74.79   10.90
  -5   5  -6  103.19   15.90
  -5   5  -6  128.89   17.40
   5  -5   6   96.09   13.30
   5  -5   6   94.29   12.80
   5   4  -6  368.46   27.80
   5   4  -6  373.26   27.00
   5   4  -6  399.16   26.80
  -5  -4   6  393.86   29.80
   4   4  -6   76.49   11.60
   4   4  -6   63.49   11.80
   4   4  -6   65.99   11.10
  -4  -4   6   67.29    9.10
  -4  -4   6   52.99   10.40
   3   4  -6  214.88   17.80
   3   4  -6  233.08   17.90
   3   4  -6  262.37   18.20
  -3  -4   6  255.97   16.10
   2   4  -6  255.57   17.40
   2   4  -6  230.68   17.20
   2   4  -6  235.08   17.20
  -2  -4   6  253.77   15.50
   1   4  -6  314.27   19.70
   1   4  -6  329.87   20.10
  -1  -4   6  319.67   18.40
  -1  -4   6  319.97   18.00
   0   4  -6  214.48   13.90
   0   4  -6  188.18   14.10
   0  -4   6  210.58   13.20
   0  -4   6  212.08   11.80
   0  -4   6  195.78   10.10
  -1   4  -6  992.60   46.80
  -1   4  -6  979.50   48.40
   1  -4   6  935.11   43.40
   1  -4   6  950.10   45.20
   1  -4   6  974.90   47.10
  -2   4  -6    3.80    2.10
  -2   4  -6    5.60    3.20
  -2   4  -6    2.20    1.40
   2  -4   6    4.70    1.00
   2  -4   6    1.70    3.20
   2  -4   6    4.80    1.90
  -3   4  -6  905.41   47.40
  -3   4  -6  998.40   50.39
  -3   4  -6  990.00   51.49
  -3   4  -6 1023.20   50.49
   3  -4   6  975.10   51.39
   3  -4   6  957.50   49.90
   3  -4   6 1010.70   44.50
  -4   4  -6   12.40    4.30
  -4   4  -6    0.10    2.40
  -4   4  -6   -2.30    3.20
   4  -4   6    1.90    3.90
   4  -4   6    5.50    2.20
  -5   4  -6  400.46   28.60
  -5   4  -6  399.16   29.00
   5  -4   6  417.96   26.60
   5  -4   6  420.46   27.30
   5   3  -6   59.79   10.90
   5   3  -6   54.19   10.40
   5   3  -6   46.10    8.50
  -5  -3   6   55.29   11.10
   4   3  -6  131.49   13.40
   4   3  -6  148.99   13.90
   4   3  -6  138.59   15.20
  -4  -3   6  135.29   17.10
  -4  -3   6  114.99   10.00
   3   3  -6  598.64   32.80
   3   3  -6  562.04   33.00
   3   3  -6  597.54   34.30
  -3  -3   6  595.24   34.00
  -3  -3   6  614.94   30.90
   2   3  -6  409.46   23.40
   2   3  -6  392.66   23.80
   2   3  -6  408.16   24.60
  -2  -3   6  404.56   21.40
  -2  -3   6  422.56   21.90
   1   3  -6 2402.56  107.99
   1   3  -6 2350.86  107.09
   1   3  -6 2462.35  108.19
  -1  -3   6 2294.27  107.49
  -1  -3   6 2451.55  106.69
   0   3  -6    0.40    0.90
   0   3  -6   -1.40    1.40
   0   3  -6    1.30    1.10
   0   3  -6   -2.10    1.80
   0  -3   6   -0.30    1.20
   0  -3   6    1.10    1.20
   0  -3   6    0.10    1.10
  -1   3  -6 2251.77  102.49
  -1   3  -6 2339.17  100.29
  -1   3  -6 2007.30  100.89
   1  -3   6 2233.28  101.29
   1  -3   6 2211.38  103.49
   1  -3   6 2559.74  103.19
   1  -3   6 2150.28  100.19
  -2   3  -6    1.80    1.10
  -2   3  -6    2.10    2.20
  -2   3  -6    0.90    2.50
   2  -3   6    1.30    2.30
   2  -3   6    1.60    1.60
   2  -3   6    0.50    0.20
   2  -3   6    2.50    2.90
  -3   3  -6    5.10    3.70
  -3   3  -6    4.90    2.50
  -3   3  -6    3.70    2.00
   3  -3   6    7.50    3.90
   3  -3   6    9.00    1.30
   3  -3   6    5.40    2.30
   3  -3   6    6.60    2.70
  -4   3  -6  560.74   33.40
  -4   3  -6  504.85   31.90
  -4   3  -6  597.44   33.60
   4  -3   6  516.85   31.20
   4  -3   6  539.75   31.70
  -5   3  -6   84.09   13.80
  -5   3  -6   81.59   13.20
  -5   3  -6   93.29   13.90
   5  -3   6   72.29   10.60
   5  -3   6   78.29   10.70
   5   2  -6  939.41   51.19
   5   2  -6  977.00   51.39
   5   2  -6 1043.80   55.89
  -5  -2   6  913.21   54.49
   4   2  -6  127.89   12.70
   4   2  -6  110.69   12.80
   4   2  -6   99.59   12.40
  -4  -2   6  131.29   15.80
   3   2  -6 1593.04   72.49
   3   2  -6 1443.66   72.39
   3   2  -6 1574.44   74.89
  -3  -2   6 1546.25   74.39
  -3  -2   6 1524.35   70.29
   2   2  -6   14.90    4.30
   2   2  -6   14.10    3.80
   2   2  -6    9.00    1.50
   2   2  -6    4.60    3.30
   2   2  -6   10.20    2.50
  -2  -2   6   12.30    2.40
  -2  -2   6   13.60    2.70
  -2  -2   6   24.30    5.00
   1   2  -6  644.14   31.30
   1   2  -6  599.84   29.90
   1   2  -6  621.94   30.70
  -1  -2   6  592.24   29.40
  -1  -2   6  591.44   30.70
  -1  -2   6  686.13   31.10
   0   2  -6 1708.73   82.69
   0   2  -6 1849.61   82.49
   0   2  -6 1764.22   79.79
   0   2  -6 1884.41   80.29
   0   2  -6 1723.93   81.49
   0  -2   6 2075.19   84.39
   0  -2   6 1860.71   80.49
   0  -2   6 1810.82   81.39
   0  -2   6 1779.72   83.59
   0  -2   6 1826.42   80.39
  -1   2  -6    2.90    1.90
  -1   2  -6    1.00    0.90
  -1   2  -6   -1.50    1.60
   1  -2   6    4.50    2.60
   1  -2   6    1.80    0.90
   1  -2   6    1.40    1.20
   1  -2   6   -1.20    1.80
  -2   2  -6 4682.33  194.68
  -2   2  -6 4217.38  194.48
   2  -2   6 4510.45  193.78
   2  -2   6 4027.90  194.78
   2  -2   6 4511.05  193.98
  -3   2  -6   19.60    5.80
  -3   2  -6   12.50    3.70
  -3   2  -6   18.20    5.10
   3  -2   6   15.50    4.70
   3  -2   6    9.30    3.40
   3  -2   6   19.40    4.20
   3  -2   6   11.10    2.00
  -4   2  -6 1173.28   57.49
  -4   2  -6  999.00   56.29
   4  -2   6 1072.99   54.39
   4  -2   6 1103.89   55.79
  -5   2  -6  103.89   15.60
  -5   2  -6  119.39   15.70
   5  -2   6  102.19   13.50
   6   1  -6   71.99   11.10
   6   1  -6   83.69   14.50
  -6  -1   6   67.19   14.40
   5   1  -6  408.76   28.30
   5   1  -6  381.56   24.30
   5   1  -6  379.06   24.30
  -5  -1   6  351.56   27.30
   4   1  -6  573.44   34.90
   4   1  -6  564.34   31.60
   4   1  -6  569.74   32.00
  -4  -1   6  666.63   31.50
  -4  -1   6  556.24   34.80
   3   1  -6   45.10    5.50
   3   1  -6   41.70    6.90
   3   1  -6   47.90    8.40
   3   1  -6   46.40    6.60
  -3  -1   6   46.90    8.40
  -3  -1   6   50.69    3.20
   2   1  -6 2145.19   93.79
   2   1  -6 2175.18   91.39
   2   1  -6 2058.19   92.09
   2   1  -6 2026.10   92.69
   2   1  -6 1955.70   95.39
  -2  -1   6 2180.98   91.59
  -2  -1   6 2144.29   95.39
  -2  -1   6 1938.31   91.79
   1   1  -6  462.35   22.30
   1   1  -6  445.46   21.30
   1   1  -6  455.55   23.60
   1   1  -6  456.35   21.80
  -1  -1   6  461.75   23.40
  -1  -1   6  432.36   23.10
  -1  -1   6  501.45   24.50
  -1  -1   6  436.66   21.80
   0   1  -6 1683.13   78.39
   0   1  -6 1822.02   78.79
   0   1  -6 1742.33   77.99
   0  -1   6 1850.71   78.29
   0  -1   6 1854.51   80.89
   0  -1   6 1795.42   78.69
   0  -1   6 1749.62   77.89
   0  -1   6 1632.24   80.19
  -1   1  -6 2053.59   91.79
  -1   1  -6 2043.50   92.19
  -1   1  -6 2103.19   90.89
   1  -1   6 2036.30   92.99
   1  -1   6 1939.41   93.09
   1  -1   6 2087.09   91.09
  -2   1  -6   53.39    7.90
  -2   1  -6   66.99    8.40
   2  -1   6   63.79    3.90
   2  -1   6   65.19    8.30
   2  -1   6   62.69    7.30
   2  -1   6   75.19    9.30
  -3   1  -6  351.46   21.80
  -3   1  -6  302.47   20.50
  -3   1  -6  288.47   19.80
   3  -1   6  335.57   16.80
   3  -1   6  339.67   20.20
   3  -1   6  326.77   20.00
   3  -1   6  344.47   20.50
  -4   1  -6  416.06   26.90
  -4   1  -6  368.96   26.60
  -4   1  -6  450.35   27.80
   4  -1   6  390.16   29.80
   4  -1   6  478.15   26.90
   4  -1   6  432.66   24.80
  -5   1  -6   26.20    7.50
  -5   1  -6   33.20    7.70
   5  -1   6   23.40    7.30
   5  -1   6   27.70    5.90
   6   0  -6  310.57   22.00
   6   0  -6  346.67   27.40
  -6   0   6  318.57   27.00
   5   0  -6    0.40    3.70
   5   0  -6    5.30    2.80
   5   0  -6   -0.30    3.50
  -5   0   6    2.20    3.30
  -5   0   6    2.10    3.40
   4   0  -6  314.57   19.40
   4   0  -6  333.37   23.20
   4   0  -6  337.57   19.80
  -4   0   6  272.27   24.00
  -4   0   6  345.27   23.80
  -4   0   6  348.57   19.20
   3   0  -6  160.18   11.00
   3   0  -6  156.28   11.20
   3   0  -6  168.18   13.80
   3   0  -6  164.58   10.30
  -3   0   6  155.38   13.60
  -3   0   6  177.08    8.90
  -3   0   6  170.18   15.10
  -3   0   6  194.78   10.80
   2   0  -6 1720.13   72.99
   2   0  -6 1627.44   71.09
   2   0  -6 1539.15   71.39
   2   0  -6 1584.44   74.99
  -2   0   6 1751.22   73.69
  -2   0   6 1515.65   74.79
  -2   0   6 1592.64   71.69
  -2   0   6 1514.25   76.09
   1   0  -6  237.28   11.80
   1   0  -6  250.47   12.10
   1   0  -6  219.88   13.90
  -1   0   6  253.87   14.20
  -1   0   6  240.88   13.90
  -1   0   6  253.47   14.80
  -1   0   6  262.27   11.00
   0   0  -6  153.48   10.10
   0   0  -6  167.18    8.90
   0   0  -6  166.78    8.40
   0   0  -6  172.18    8.80
   0   0   6  141.49   10.80
   0   0   6  147.69    8.00
   0   0   6  144.29   10.50
   0   0   6  157.18    8.80
  -1   0  -6   55.59    5.70
  -1   0  -6   41.90    3.30
  -1   0  -6   45.60    6.40
  -1   0  -6   50.09    5.70
   1   0   6   39.90    6.60
   1   0   6   48.60    6.80
   1   0   6   46.60    4.20
  -2   0  -6  984.70   47.80
  -2   0  -6  949.60   48.90
   2   0   6  963.70   48.10
   2   0   6 1010.60   45.00
   2   0   6 1102.29   47.70
   2   0   6  911.21   48.60
  -3   0  -6  251.37   18.10
  -3   0  -6  248.68   14.70
  -3   0  -6  220.28   16.40
   3   0   6  235.98   17.00
   3   0   6  249.38   16.40
   3   0   6  250.17   16.20
  -4   0  -6  891.41   46.70
  -4   0  -6  735.03   44.10
  -4   0  -6  847.22   42.20
   4   0   6  806.22   49.10
   4   0   6  886.51   42.30
   4   0   6  752.62   43.10
   4   0   6  855.71   44.30
  -5   0  -6  179.68   16.50
  -5   0  -6  143.39   18.20
   5   0   6  152.58   13.70
   5   0   6  161.48   22.60
   6  -1  -6   17.80    5.10
   6  -1  -6   14.40    6.00
  -6   1   6   19.70    8.60
  -6   1   6   10.20    6.30
   5  -1  -6  133.29   11.50
   5  -1  -6  161.88   20.00
  -5   1   6  103.39   18.70
  -5   1   6  148.79   19.50
   4  -1  -6    9.10    3.10
   4  -1  -6   12.10    6.20
   4  -1  -6   10.30    3.70
  -4   1   6    9.50    4.90
  -4   1   6    4.30    4.10
  -4   1   6   11.60    2.40
   3  -1  -6   58.09    5.90
   3  -1  -6   80.89   10.60
   3  -1  -6   65.39    6.80
   3  -1  -6   58.69    5.00
  -3   1   6   71.39    5.40
  -3   1   6   74.69   10.50
  -3   1   6   66.39   10.70
   2  -1  -6 1521.95   69.19
   2  -1  -6 1493.75   65.29
   2  -1  -6 1437.16   64.89
   2  -1  -6 1524.25   66.79
  -2   1   6 1531.35   66.69
  -2   1   6 1522.05   64.49
  -2   1   6 1389.86   69.89
  -2   1   6 1492.45   69.69
  -2   1   6 1470.75   67.59
  -2   1   6 1420.76   64.39
  -1   1   6   38.10    5.60
  -1   1   6   37.70    5.20
  -1   1   6   44.10    5.80
   0  -1  -6  518.25   28.70
   0  -1  -6  599.24   26.00
   0  -1  -6  581.04   27.20
   0  -1  -6  560.04   26.00
   0   1   6  573.84   25.30
   0   1   6  548.55   28.60
   0   1   6  578.14   25.40
   0   1   6  543.45   29.60
  -1  -1  -6   69.69    8.70
  -1  -1  -6   82.79    6.30
  -1  -1  -6   75.89    6.20
  -1  -1  -6   84.69    5.90
   1   1   6   84.19    5.80
   1   1   6   65.59    6.90
   1   1   6   71.99    9.50
   1   1   6   84.79    5.90
  -2  -1  -6 1648.94   77.99
  -2  -1  -6 1717.33   75.99
  -2  -1  -6 1650.33   80.29
   2   1   6 1812.02   78.19
   2   1   6 1706.93   78.49
   2   1   6 1618.44   80.39
  -3  -1  -6   31.90    6.90
  -3  -1  -6   22.60    5.60
   3   1   6   28.30    7.60
   3   1   6   25.10    4.90
   3   1   6   21.10    5.00
   3   1   6   17.20    5.50
  -4  -1  -6  131.79   13.70
  -4  -1  -6  134.39   15.90
  -4  -1  -6  148.39   12.00
   4   1   6  141.19   11.00
   4   1   6  118.19   12.60
   4   1   6  153.58   15.60
   4   1   6  140.69   12.00
  -5  -1  -6  247.98   19.90
  -5  -1  -6  264.77   21.20
   5   1   6  242.38   18.10
   5   1   6  213.78   21.50
   6  -2  -6    2.70    4.90
   6  -2  -6    9.50    2.70
  -6   2   6   -2.40    3.50
  -6   2   6    1.20    5.10
   5  -2  -6    6.50    5.80
   5  -2  -6   10.70    3.30
  -5   2   6    8.20    5.80
  -5   2   6   12.40    6.20
   4  -2  -6   13.60    3.90
   4  -2  -6    3.50    4.40
   4  -2  -6   15.10    3.50
  -4   2   6   10.80    4.90
  -4   2   6   17.70    3.20
  -4   2   6    7.30    5.60
   3  -2  -6  202.08   11.50
   3  -2  -6  201.58   11.30
   3  -2  -6  227.08   15.40
   3  -2  -6  208.68   12.10
  -3   2   6  196.88   15.80
  -3   2   6  203.38   16.20
   2  -2  -6  114.49    6.50
   2  -2  -6  115.69    9.10
   2  -2  -6  106.49    7.50
   2  -2  -6  124.69    6.50
  -2   2   6  106.39    8.30
  -2   2   6  114.39   10.00
  -2   2   6  119.59    9.80
  -2   2   6  124.29    8.30
   1  -2  -6    3.10    2.10
   1  -2  -6    1.30    0.80
   1  -2  -6    1.80    0.70
  -1   2   6    4.00    2.40
  -1   2   6    1.20    1.60
  -1   2   6    2.00    1.80
   0  -2  -6  801.42   37.30
   0  -2  -6  862.81   37.80
   0  -2  -6  822.82   39.30
   0  -2  -6  857.41   41.70
   0   2   6  841.42   40.30
   0   2   6  824.92   42.00
   0   2   6  877.71   37.10
   0   2   6  723.03   36.80
  -1  -2  -6  442.56   26.10
  -1  -2  -6  426.46   22.70
  -1  -2  -6  426.46   23.40
  -1  -2  -6  445.26   23.40
   1   2   6  489.55   23.40
   1   2   6  464.25   27.10
   1   2   6  491.05   25.10
  -2  -2  -6   12.70    3.50
  -2  -2  -6   10.00    4.00
   2   2   6   13.90    4.20
   2   2   6    9.40    4.50
   2   2   6    7.10    2.50
  -3  -2  -6  288.07   18.60
  -3  -2  -6  267.97   16.50
  -3  -2  -6  258.77   19.80
   3   2   6  241.48   19.40
   3   2   6  248.68   20.00
   3   2   6  281.67   17.20
   3   2   6  258.67   17.60
  -4  -2  -6   24.60    6.00
  -4  -2  -6   34.50    8.10
  -4  -2  -6   48.20    8.20
   4   2   6   28.60    7.30
   4   2   6   49.80   10.00
   4   2   6   43.10    8.60
   4   2   6   20.10    4.10
  -5  -2  -6  262.47   22.00
  -5  -2  -6  217.68   19.10
  -5  -2  -6  276.47   22.60
   5   2   6  263.27   18.70
   5   2   6  237.58   21.70
   6  -3  -6  103.09   17.20
  -6   3   6    1.80    5.30
   5  -3  -6  323.57   20.80
   5  -3  -6  325.47   24.80
  -5   3   6  371.16   28.80
  -5   3   6  306.67   25.80
   4  -3  -6   26.40    7.30
   4  -3  -6   30.10    5.20
  -4   3   6   31.40    4.50
  -4   3   6   28.60    8.60
  -4   3   6   33.30    8.60
   3  -3  -6  256.57   14.00
   3  -3  -6  239.38   14.10
   3  -3  -6  250.77   12.80
   3  -3  -6  253.77   17.10
  -3   3   6  260.47   18.90
  -3   3   6  274.07   19.30
   2  -3  -6  378.96   20.40
   2  -3  -6  354.16   18.00
   2  -3  -6  348.67   18.10
  -2   3   6  387.16   22.70
  -2   3   6  364.66   17.00
  -2   3   6  359.66   22.40
  -2   3   6  386.36   20.40
  -2   3   6  415.36   17.10
  -2   3   6  311.07   20.10
   1  -3  -6  490.55   23.20
   1  -3  -6  487.65   26.40
   1  -3  -6  457.85   24.30
   1  -3  -6  498.15   23.70
  -1   3   6  536.55   26.50
  -1   3   6  490.35   27.50
  -1   3   6  506.35   22.60
  -1   3   6  465.85   27.30
  -1   3   6  521.25   22.50
  -1   3   6  520.95   27.00
   0  -3  -6  388.16   20.30
   0  -3  -6  397.56   23.80
   0  -3  -6  357.76   20.30
   0  -3  -6  415.86   19.90
   0  -3  -6  413.56   22.10
   0   3   6  429.66   20.10
   0   3   6  389.46   24.30
   0   3   6  411.36   22.40
  -1  -3  -6   18.10    4.10
  -1  -3  -6   15.60    3.70
  -1  -3  -6   23.50    4.40
  -1  -3  -6   21.70    6.00
   1   3   6   14.90    5.40
   1   3   6   18.90    3.50
   1   3   6   18.10    4.70
  -2  -3  -6   11.40    4.40
  -2  -3  -6    8.40    3.20
  -2  -3  -6   16.40    4.20
   2   3   6    5.40    4.00
   2   3   6   16.40    4.40
   2   3   6   16.10    4.00
  -3  -3  -6    1.30    2.70
  -3  -3  -6   -1.30    3.10
  -3  -3  -6   -0.70    2.30
   3   3   6    1.00    4.10
   3   3   6   -1.00    2.30
   3   3   6    2.70    2.10
  -4  -3  -6  102.19   14.30
  -4  -3  -6   99.79   13.00
   4   3   6  113.49   13.40
   4   3   6  102.59   14.80
   4   3   6   65.99   12.90
   6  -4  -6   34.00    7.10
   6  -4  -6   46.00   11.00
  -6   4   6   21.60    9.00
  -6   4   6   27.40   10.40
   5  -4  -6  101.89   15.30
   5  -4  -6  116.99   10.50
  -5   4   6  102.39   16.70
  -5   4   6  123.99   19.30
   4  -4  -6  548.25   32.50
   4  -4  -6  534.25   29.10
  -4   4   6  584.14   35.40
  -4   4   6  549.74   35.80
   3  -4  -6   82.49   10.30
   3  -4  -6   71.89    4.20
   3  -4  -6   65.99    6.10
  -3   4   6   64.19   10.90
  -3   4   6   70.09    6.20
  -3   4   6   66.19   10.90
   2  -4  -6  758.12   34.60
   2  -4  -6  668.93   36.50
   2  -4  -6  666.03   33.10
   2  -4  -6  692.33   33.60
  -2   4   6  723.73   38.60
  -2   4   6  711.63   32.50
  -2   4   6  666.23   36.20
  -2   4   6  730.53   38.80
   1  -4  -6  124.89    7.80
   1  -4  -6  112.79    9.90
   1  -4  -6  117.89    8.10
   1  -4  -6  118.99    7.20
  -1   4   6  109.79   10.40
  -1   4   6  113.69    9.60
  -1   4   6  109.89    9.90
   0  -4  -6  312.27   21.60
   0  -4  -6  327.87   16.70
   0  -4  -6  339.87   20.10
   0  -4  -6  351.06   18.00
   0  -4  -6  334.37   18.50
   0   4   6  322.07   18.00
   0   4   6  349.87   20.40
   0   4   6  320.07   22.30
  -1  -4  -6   56.29    8.00
  -1  -4  -6   65.09    7.50
  -1  -4  -6   57.39    9.80
   1   4   6   80.09    9.70
   1   4   6   62.29   11.10
   1   4   6   65.59    7.70
  -2  -4  -6   28.00    6.00
  -2  -4  -6   32.70    6.00
  -2  -4  -6   24.40    6.60
   2   4   6   31.20    9.00
   2   4   6   20.10    5.20
   2   4   6   21.70    4.30
  -3  -4  -6    3.40    2.40
  -3  -4  -6   -0.80    3.20
   3   4   6    2.60    1.00
   3   4   6    5.00    3.20
   3   4   6    0.70    4.10
  -4  -4  -6  123.79   16.70
  -4  -4  -6  107.49   14.10
   4   4   6  102.29   17.50
   6  -5  -6  360.36   24.50
   6  -5  -6  392.56   29.10
  -6   5   6  366.56   30.80
  -6   5   6  371.56   33.20
   5  -5  -6  162.58   13.40
   5  -5  -6  162.98   15.80
  -5   5   6  172.18   18.80
  -5   5   6  149.29   21.30
   4  -5  -6  292.27   20.50
   4  -5  -6  283.17   18.10
  -4   5   6  262.17   22.50
  -4   5   6  320.97   24.70
   3  -5  -6  195.08   12.60
   3  -5  -6  191.18   13.60
   3  -5  -6  200.08   15.40
  -3   5   6  176.48   12.80
  -3   5   6  187.18   17.00
  -3   5   6  212.88   17.60
   2  -5  -6   11.30    3.00
   2  -5  -6   18.50    3.30
   2  -5  -6   15.50    4.70
  -2   5   6   21.20    6.60
  -2   5   6   16.90    4.20
  -2   5   6   11.20    2.30
  -2   5   6   18.20    5.30
   1  -5  -6   55.39    6.30
   1  -5  -6   42.60    7.40
  -1   5   6   58.29    9.70
  -1   5   6   56.59    6.20
  -1   5   6   52.19    8.90
   0  -5  -6  910.01   47.00
   0  -5  -6  893.91   49.20
   0  -5  -6  972.70   44.60
   0   5   6  874.91   50.19
   0   5   6  954.10   45.00
  -1  -5  -6    9.70    3.60
  -1  -5  -6    6.30    3.60
  -1  -5  -6   12.30    3.80
   1   5   6   11.30    5.70
   1   5   6    6.20    2.20
  -2  -5  -6  990.70   56.09
  -2  -5  -6 1048.60   52.09
  -2  -5  -6 1033.30   52.99
   2   5   6 1037.40   60.19
   2   5   6 1084.79   53.09
  -3  -5  -6    5.30    3.10
  -3  -5  -6   -1.90    2.00
  -3  -5  -6    5.50    4.50
   3   5   6    9.70    6.40
   5  -6  -6   24.00    5.60
   5  -6  -6   21.60    4.50
  -5   6   6   32.00   10.00
  -5   6   6   18.30    6.60
   4  -6  -6   14.30    4.10
   4  -6  -6    6.60    2.80
  -4   6   6    4.70    3.80
  -4   6   6   -1.50    4.70
   3  -6  -6  362.96   24.50
   3  -6  -6  388.36   21.90
  -3   6   6  404.76   27.90
  -3   6   6  398.26   28.10
  -3   6   6  368.76   22.90
   2  -6  -6 1090.59   56.29
   2  -6  -6 1129.49   52.59
  -2   6   6 1096.49   59.19
  -2   6   6 1085.59   56.59
   1  -6  -6  158.18   13.80
   1  -6  -6  170.38   11.60
  -1   6   6  161.38   15.00
  -1   6   6  166.58   15.20
  -1   6   6  160.78   11.10
   0  -6  -6 1257.87   62.09
   0  -6  -6 1278.17   59.19
   0  -6  -6 1215.78   64.39
   0   6   6 1261.67   59.69
   0   6   6 1173.48   65.79
  -1  -6  -6   27.70    7.00
  -1  -6  -6   23.10    6.20
  -1  -6  -6   26.60    5.90
   1   6   6   16.90    6.90
  -2  -6  -6  563.74   33.10
  -2  -6  -6  592.44   32.10
  -2  -6  -6  524.75   35.20
   2   6   6  532.85   39.60
  -3  -6  -6  228.88   17.40
  -3  -6  -6  215.98   19.20
  -3  -6  -6  233.88   18.50
   3   6   6  177.58   25.60
   5  -7  -6   11.80    3.70
   5  -7  -6   15.90    3.40
  -5   7   6    3.00    3.10
  -5   7   6    5.40    6.40
   4  -7  -6 1592.44   82.19
   4  -7  -6 1515.95   77.89
  -4   7   6 1847.72   90.09
  -4   7   6 1634.14   86.09
   3  -7  -6  144.29   11.60
   3  -7  -6  142.99   16.00
  -3   7   6  144.99   15.90
  -3   7   6  142.19   12.20
   2  -7  -6  868.21   48.30
   2  -7  -6  931.51   44.80
  -2   7   6  854.41   51.49
  -2   7   6  907.51   49.30
   1  -7  -6   25.70    6.10
   1  -7  -6   40.70    6.60
  -1   7   6   29.10    7.30
  -1   7   6   34.20    8.60
   0  -7  -6   31.80    8.00
   0  -7  -6   26.30    7.10
   0  -7  -6   22.70    5.40
   0   7   6   28.10    8.90
  -1  -7  -6  570.44   30.70
  -1  -7  -6  521.25   34.60
  -1  -7  -6  533.25   32.50
   1   7   6  479.95   37.20
  -2  -7  -6  241.48   19.40
  -2  -7  -6  237.08   20.40
  -2  -7  -6  243.98   17.90
   2   7   6  228.18   24.90
   4  -8  -6   19.70    4.10
   4  -8  -6   15.90    4.30
  -4   8   6   16.50    7.20
   3  -8  -6   79.39   10.30
   3  -8  -6   67.29   11.00
  -3   8   6   75.29   14.80
  -3   8   6   75.49   11.30
   2  -8  -6   77.69    9.80
   2  -8  -6   73.99   11.70
  -2   8   6   98.99   16.30
  -2   8   6   90.69   13.70
   1  -8  -6  784.02   40.40
   1  -8  -6  736.63   45.20
   1  -8  -6  828.02   44.60
  -1   8   6  715.63   46.10
  -1   8   6  766.62   47.90
   0  -8  -6  271.07   18.20
   0  -8  -6  252.87   20.10
   0  -8  -6  253.17   21.30
   0   8   6  240.48   23.30
  -1  -8  -6   47.10    8.50
  -1  -8  -6   57.99   10.60
  -1  -8  -6   45.20    9.10
   1   8   6   39.30   11.70
   3  -9  -6  115.79   15.50
   3  -9  -6   98.69   11.90
  -3   9   6  104.99   18.10
  -3   9   6   79.89   12.10
   2  -9  -6   42.30    7.30
   2  -9  -6   40.70    8.20
  -2   9   6   36.20    8.80
  -2   9   6   52.69   12.80
   1  -9  -6    0.20    1.70
   1  -9  -6   17.40    4.30
   1  -9  -6   -3.00    2.40
  -1   9   6    1.80    2.40
  -1   9   6    1.70    2.10
   0   9  -7  314.47   24.90
   0   9  -7  346.67   24.40
   0  -9   7  362.76   22.30
   0  -9   7  342.37   23.40
  -1   9  -7  135.49   12.70
  -1   9  -7  179.88   20.20
   1  -9   7  154.98   13.30
  -2   9  -7   60.59   10.20
  -2   9  -7   47.60   12.40
   2  -9   7   72.69   10.70
   2   8  -7  131.99   16.70
   2   8  -7  105.39   15.60
  -2  -8   7  135.39   15.50
  -2  -8   7  124.59   11.00
   1   8  -7   38.50    7.60
   1   8  -7   25.30    6.30
  -1  -8   7   23.40    5.10
  -1  -8   7   19.00    4.40
   0   8  -7   62.99   10.70
   0   8  -7   47.80    9.10
   0  -8   7   57.29    8.50
   0  -8   7   71.99   10.00
  -1   8  -7    9.20    2.90
  -1   8  -7   12.40    4.50
   1  -8   7    7.30    3.00
  -2   8  -7   91.49   15.30
  -2   8  -7   90.69   13.80
  -2   8  -7   94.59    9.40
   2  -8   7   99.19   13.20
  -3   8  -7   70.29   13.90
  -3   8  -7   65.59   11.00
   3  -8   7   74.99   11.30
   3   7  -7   57.99    8.90
   3   7  -7   62.19   10.80
   3   7  -7   51.89   10.80
   2   7  -7  260.87   20.60
   2   7  -7  251.97   20.80
   2   7  -7  280.67   19.50
  -2  -7   7  277.57   19.00
  -2  -7   7  278.97   19.40
   1   7  -7  258.77   19.60
   1   7  -7  237.78   17.40
   1   7  -7  255.57   19.50
  -1  -7   7  223.48   16.40
  -1  -7   7  259.27   17.70
   0   7  -7  601.34   35.20
   0   7  -7  529.55   33.20
   0  -7   7  605.14   31.10
   0  -7   7  574.44   32.60
  -1   7  -7    5.90    2.70
  -1   7  -7    2.70    2.40
   1  -7   7   12.30    3.20
  -2   7  -7  474.65   31.20
  -2   7  -7  485.65   32.90
  -2   7  -7  503.75   28.40
   2  -7   7  498.45   30.10
  -3   7  -7  551.14   32.40
  -3   7  -7  472.75   31.60
  -3   7  -7  503.65   33.10
   3  -7   7  411.96   29.10
  -4   7  -7  133.79   18.20
  -4   7  -7  117.39   17.40
   4  -7   7  110.39   17.50
   4  -7   7  101.09   13.40
   3   6  -7   84.39   12.40
   3   6  -7   88.09    9.30
   3   6  -7   81.89   12.90
  -3  -6   7   80.69   10.70
   2   6  -7  330.97   23.70
   2   6  -7  371.16   23.70
   2   6  -7  335.07   24.00
  -2  -6   7  356.36   21.90
   1   6  -7   79.49   11.50
   1   6  -7   81.89   11.50
   1   6  -7   75.39    8.40
  -1  -6   7   85.49   10.20
  -1  -6   7   83.99    9.80
   0   6  -7   77.99   10.70
   0   6  -7   80.59   11.40
   0  -6   7   82.59    7.20
   0  -6   7   85.69   10.10
  -1   6  -7  796.42   39.70
  -1   6  -7  759.92   41.60
   1  -6   7  712.73   35.90
   1  -6   7  725.03   39.50
  -2   6  -7   87.89   12.30
  -2   6  -7   99.19   11.20
  -2   6  -7   94.99    8.70
   2  -6   7   82.59   11.20
  -3   6  -7  909.71   52.19
  -3   6  -7 1020.20   48.40
  -3   6  -7  989.80   52.79
   3  -6   7  984.50   54.59
   3  -6   7  904.61   50.69
  -4   6  -7  122.89   16.70
  -4   6  -7  116.79   13.00
   4  -6   7  118.99   14.20
   4  -6   7  125.49   18.10
   4   5  -7   67.79   12.30
   4   5  -7   73.29   11.50
   4   5  -7   78.99   11.80
  -4  -5   7   64.69   12.20
   3   5  -7  498.75   32.60
   3   5  -7  558.14   33.00
   3   5  -7  529.75   32.40
  -3  -5   7  532.15   29.80
   2   5  -7   97.19   10.20
   2   5  -7   92.99   13.20
   2   5  -7  127.99   14.00
  -2  -5   7  119.59    9.50
   1   5  -7 2674.53  123.49
   1   5  -7 2652.73  123.39
  -1  -5   7 2701.53  120.39
  -1  -5   7 2679.93  121.29
   0   5  -7  327.77   21.20
   0   5  -7  360.56   20.90
   0  -5   7  327.87   19.50
   0  -5   7  306.87   14.80
   0  -5   7  311.17   17.50
  -1   5  -7 1573.84   70.09
  -1   5  -7 1475.75   71.79
   1  -5   7 1432.56   65.89
   1  -5   7 1403.36   69.79
  -2   5  -7   40.10    7.70
  -2   5  -7   35.40    7.00
  -2   5  -7   47.30    6.90
   2  -5   7   43.50    9.10
   2  -5   7   29.40    2.80
   2  -5   7   50.49    7.70
  -3   5  -7   68.79    6.90
  -3   5  -7   80.29   12.00
  -3   5  -7   64.89   10.00
   3  -5   7   66.89   10.10
   3  -5   7   77.69   13.10
  -4   5  -7   37.40    8.30
  -4   5  -7   27.50    4.60
  -4   5  -7   28.10    8.00
   4  -5   7   34.10    8.70
   4  -5   7   18.40    4.10
  -5   5  -7   82.39   13.20
   5  -5   7   86.69   13.50
   5  -5   7   87.99   11.80
   5   4  -7  223.88   19.00
   5   4  -7  221.08   18.30
   5   4  -7  216.28   18.80
  -5  -4   7  202.28   24.30
   4   4  -7  116.49   14.50
   4   4  -7  116.59   15.30
   4   4  -7  118.69   12.10
  -4  -4   7  113.79   16.10
   3   4  -7  734.53   41.80
   3   4  -7  723.03   40.40
   3   4  -7  710.23   41.00
  -3  -4   7  780.62   38.50
  -3  -4   7  774.92   42.10
   2   4  -7  642.54   34.70
   2   4  -7  603.54   34.90
   2   4  -7  643.74   35.70
  -2  -4   7  658.23   32.70
  -2  -4   7  605.14   32.30
   1   4  -7   15.40    4.70
   1   4  -7   20.40    5.40
  -1  -4   7   19.20    4.50
  -1  -4   7   12.80    3.00
   0   4  -7    3.50    2.80
   0   4  -7   -0.40    2.50
   0  -4   7    5.00    0.90
   0  -4   7    3.00    1.60
   0  -4   7    4.80    2.10
  -1   4  -7  126.59   10.40
  -1   4  -7  136.69   11.80
   1  -4   7  133.19   12.20
   1  -4   7  130.79   10.30
   1  -4   7  137.89    7.40
  -2   4  -7   74.79    9.00
  -2   4  -7   87.09   11.00
  -2   4  -7   64.59    8.30
  -2   4  -7   64.59    6.90
   2  -4   7   55.99    9.80
   2  -4   7   62.99    8.50
  -3   4  -7 1233.48   61.69
  -3   4  -7 1142.09   59.29
  -3   4  -7 1322.67   61.59
  -3   4  -7 1254.87   63.29
   3  -4   7 1266.27   63.79
   3  -4   7 1227.48   61.59
  -4   4  -7  433.06   29.90
  -4   4  -7  471.05   29.90
   4  -4   7  500.55   29.50
   4  -4   7  466.85   29.90
  -5   4  -7  465.35   31.50
  -5   4  -7  452.45   31.30
   5  -4   7  445.16   29.20
   5  -4   7  498.65   30.70
   5   3  -7  210.68   17.70
   5   3  -7  207.08   18.20
   5   3  -7  205.18   16.80
  -5  -3   7  141.49   19.60
   4   3  -7    6.60    5.40
   4   3  -7   14.20    5.70
   4   3  -7   10.30    4.00
  -4  -3   7    7.70    1.90
  -4  -3   7    6.50    4.30
   3   3  -7    6.30    4.60
   3   3  -7    4.10    4.00
   3   3  -7    3.80    3.60
  -3  -3   7    4.10    1.50
  -3  -3   7    4.90    2.70
   2   3  -7  200.08   15.40
   2   3  -7  197.58   14.60
   2   3  -7  186.58   13.80
  -2  -3   7  187.88   13.90
  -2  -3   7  203.28   12.30
  -2  -3   7  182.48   12.10
   1   3  -7   17.30    4.80
   1   3  -7   25.00    4.20
   1   3  -7   19.80    4.80
  -1  -3   7   24.30    4.80
  -1  -3   7   19.90    3.50
   0   3  -7 1078.19   50.49
   0   3  -7 1109.49   53.79
   0   3  -7 1139.89   53.79
   0   3  -7 1132.59   52.79
   0  -3   7 1113.49   49.99
   0  -3   7 1140.29   52.49
   0  -3   7 1165.38   55.19
  -1   3  -7 1093.49   49.30
  -1   3  -7 1041.10   51.39
  -1   3  -7  901.61   49.99
   1  -3   7 1161.08   52.29
   1  -3   7 1046.50   50.19
   1  -3   7 1069.69   52.89
  -2   3  -7  542.85   29.00
  -2   3  -7  525.45   27.60
  -2   3  -7  517.75   29.90
   2  -3   7  513.95   28.60
   2  -3   7  598.94   29.80
   2  -3   7  486.05   30.30
  -3   3  -7  195.28   16.60
  -3   3  -7  252.47   17.80
   3  -3   7  240.18   18.20
   3  -3   7  263.27   16.40
   3  -3   7  235.78   16.50
  -4   3  -7  199.48   17.00
  -4   3  -7  200.98   16.90
   4  -3   7  202.18   15.70
   4  -3   7  206.18   16.60
  -5   3  -7  137.59   17.50
  -5   3  -7  125.59   16.90
   5  -3   7  119.99   15.10
   5  -3   7  123.19   11.80
   5   2  -7    1.30    4.20
   5   2  -7    4.50    3.10
   5   2  -7    5.80    3.30
  -5  -2   7    7.00    3.80
   4   2  -7   51.09    8.60
   4   2  -7   68.49   10.80
   4   2  -7   38.10    7.20
  -4  -2   7   37.80    8.20
   3   2  -7  175.28   12.90
   3   2  -7  152.88   13.10
   3   2  -7  166.58   14.60
  -3  -2   7  189.38   14.90
  -3  -2   7  168.78   11.00
  -3  -2   7  182.18   10.10
   2   2  -7    1.00    2.30
   2   2  -7    2.90    1.50
   2   2  -7   -0.20    2.60
   2   2  -7    1.00    0.60
   2   2  -7   -0.70    2.20
  -2  -2   7    2.70    1.10
  -2  -2   7    2.60    2.20
  -2  -2   7    2.30    0.90
   1   2  -7 1373.46   64.99
   1   2  -7 1530.75   67.19
   1   2  -7 1499.15   65.99
  -1  -2   7 1343.07   66.29
  -1  -2   7 1507.75   66.19
  -1  -2   7 1367.16   64.29
   0   2  -7  440.66   21.30
   0   2  -7  411.16   20.40
   0   2  -7  441.86   22.30
   0   2  -7  404.66   22.90
   0   2  -7  404.46   23.50
   0  -2   7  453.95   21.10
   0  -2   7  497.75   25.10
   0  -2   7  441.46   24.60
   0  -2   7  451.05   22.10
   0  -2   7  454.25   21.50
  -1   2  -7  311.57   16.70
  -1   2  -7  252.87   16.60
  -1   2  -7  259.87   15.50
   1  -2   7  270.57   18.20
   1  -2   7  280.37   16.00
   1  -2   7  306.37   18.00
  -2   2  -7  551.74   29.50
  -2   2  -7  538.45   29.70
   2  -2   7  549.65   29.50
   2  -2   7  529.95   30.60
   2  -2   7  535.55   28.60
  -3   2  -7    8.70    3.50
  -3   2  -7   10.00    4.60
   3  -2   7   11.50    3.30
   3  -2   7    8.40    3.50
   3  -2   7    8.00    4.10
  -4   2  -7  437.26   29.50
  -4   2  -7  509.75   30.70
   4  -2   7  462.45   28.40
   4  -2   7  492.15   29.00
  -5   2  -7  141.39   17.90
  -5   2  -7  158.38   19.80
   5  -2   7  158.38   13.80
   5  -2   7  194.28   25.20
   6   1  -7   27.80    6.10
   6   1  -7   32.90    8.10
  -6  -1   7   25.70    8.80
   5   1  -7   25.80    6.90
   5   1  -7   34.30    7.60
   5   1  -7   30.10    5.90
  -5  -1   7   25.10    7.60
   4   1  -7  310.87   19.10
   4   1  -7  302.27   22.00
   4   1  -7  274.37   19.00
  -4  -1   7  305.07   17.70
  -4  -1   7  274.17   21.50
   3   1  -7   91.09   11.90
   3   1  -7   85.69    8.80
   3   1  -7   83.69    8.90
   3   1  -7   87.09    6.80
  -3  -1   7   86.39    5.50
  -3  -1   7   89.59   11.90
   2   1  -7   80.59    6.30
   2   1  -7   76.89    5.70
   2   1  -7   68.39    7.00
   2   1  -7   69.39    9.60
   2   1  -7   75.09    5.20
  -2  -1   7   69.09    4.90
  -2  -1   7   67.89    5.60
  -2  -1   7   78.89    9.80
   1   1  -7  204.48   11.40
   1   1  -7  214.98   13.50
   1   1  -7  228.58   12.10
   1   1  -7  202.28   11.20
  -1  -1   7  200.28   12.70
  -1  -1   7  203.18   13.00
  -1  -1   7  232.18   14.10
   0   1  -7  685.33   31.70
   0   1  -7  655.43   31.60
   0   1  -7  646.64   30.70
   0  -1   7  631.74   30.40
   0  -1   7  689.63   34.10
   0  -1   7  666.73   30.00
   0  -1   7  625.84   33.40
  -1   1  -7  324.57   18.70
  -1   1  -7  317.17   18.20
  -1   1  -7  338.77   17.40
   1  -1   7  347.47   17.70
   1  -1   7  321.27   19.70
   1  -1   7  309.27   19.60
  -2   1  -7  769.22   40.20
  -2   1  -7  823.02   41.20
   2  -1   7  846.92   39.70
   2  -1   7  747.43   40.70
   2  -1   7  836.72   35.20
   2  -1   7  754.32   41.10
  -3   1  -7    5.80    4.20
  -3   1  -7   19.70    5.20
   3  -1   7   15.90    3.70
   3  -1   7   11.10    3.80
   3  -1   7   13.00    4.40
  -4   1  -7   55.49    9.70
  -4   1  -7   65.39   10.90
   4  -1   7   62.49    9.20
  -5   1  -7   19.50    5.10
  -5   1  -7   18.00    6.80
   5  -1   7   13.40    3.30
   6   0  -7  165.38   17.60
   6   0  -7  169.68   14.00
  -6   0   7  129.79   20.30
   5   0  -7  274.77   22.30
   5   0  -7  283.97   18.40
   5   0  -7  265.97   17.90
  -5   0   7  208.98   22.90
  -5   0   7  260.37   22.10
   4   0  -7    4.90    3.50
   4   0  -7    2.00    4.50
   4   0  -7   14.40    3.60
  -4   0   7    5.20    3.60
  -4   0   7    8.20    3.80
  -4   0   7    6.90    1.50
   3   0  -7  431.16   22.20
   3   0  -7  454.75   23.00
   3   0  -7  443.06   26.70
   3   0  -7  422.26   23.50
  -3   0   7  413.06   26.70
  -3   0   7  473.95   22.30
  -3   0   7  462.55   21.40
  -3   0   7  380.56   27.60
   2   0  -7   32.40    5.00
   2   0  -7   23.80    3.30
   2   0  -7   25.60    3.20
   2   0  -7   22.20    5.50
  -2   0   7   32.00    6.60
  -2   0   7   26.10    3.80
  -2   0   7   29.60    2.30
  -2   0   7   24.60    5.30
  -2   0   7   28.70    5.00
   1   0  -7  281.77   17.00
   1   0  -7  299.57   16.40
   1   0  -7  325.57   14.70
   1   0  -7  306.87   14.30
  -1   0   7  292.57   16.90
  -1   0   7  290.07   17.70
  -1   0   7  298.57   16.70
   0   0  -7   95.09    7.70
   0   0  -7   90.69    6.30
   0   0  -7   92.89    5.80
   0   0  -7   94.89    6.10
   0   0   7   96.99    5.30
   0   0   7   86.09    7.90
   0   0   7  101.09    6.30
   0   0   7   95.09    8.60
   0   0   7   97.39    5.50
  -1   0  -7   49.10    4.50
  -1   0  -7   46.40    3.50
  -1   0  -7   40.10    6.40
  -1   0  -7   53.59    6.20
   1   0   7   49.60    4.40
   1   0   7   49.10    7.40
   1   0   7   47.50    7.50
  -2   0  -7   95.99   10.40
  -2   0  -7   96.09    9.80
   2   0   7   96.49    7.90
   2   0   7   91.29    9.60
   2   0   7  106.59    6.40
   2   0   7   95.79    9.30
  -3   0  -7   22.30    5.80
  -3   0  -7   22.50    6.40
  -3   0  -7   24.70    4.40
   3   0   7   24.40    5.00
   3   0   7   28.70    6.40
   3   0   7   20.40    5.70
  -4   0  -7   33.70    8.20
  -4   0  -7   29.60    6.40
   4   0   7   31.20    6.80
   4   0   7   39.30    6.70
   4   0   7   31.60    6.20
  -5   0  -7    5.70    4.90
  -5   0  -7    3.80    1.90
   5   0   7    5.10    1.80
   6  -1  -7   26.10    5.40
   6  -1  -7   24.20    6.90
  -6   1   7   19.70    8.10
  -6   1   7    8.70    6.00
   5  -1  -7  459.85   25.90
   5  -1  -7  460.15   30.70
  -5   1   7  465.55   32.10
  -5   1   7  369.46   32.10
   4  -1  -7    2.00    2.80
   4  -1  -7    1.80    4.50
   4  -1  -7    2.90    2.40
  -4   1   7   -1.10    1.70
  -4   1   7   -0.20    2.40
  -4   1   7    2.20    0.70
   3  -1  -7 1979.20   93.69
   3  -1  -7 2155.78   95.19
   3  -1  -7 2082.89   98.99
   3  -1  -7 2060.99   94.49
  -3   1   7 2413.66   96.39
  -3   1   7 2189.18   94.19
  -3   1   7 2012.70  101.29
  -3   1   7 2073.39  100.29
   2  -1  -7  267.37   15.30
   2  -1  -7  252.77   12.80
   2  -1  -7  271.07   13.10
   2  -1  -7  254.17   16.80
  -2   1   7  268.47   17.50
  -2   1   7  278.47   15.20
  -2   1   7  294.57   17.80
  -2   1   7  288.27   16.30
  -1   1   7   94.49    7.80
  -1   1   7   94.69    8.30
  -1   1   7  103.39    7.90
   0  -1  -7  734.23   36.40
   0  -1  -7  703.43   32.70
   0  -1  -7  733.23   32.80
   0  -1  -7  713.03   33.90
   0   1   7  704.43   35.90
   0   1   7  663.23   36.80
   0   1   7  753.52   31.80
   0   1   7  711.33   31.90
  -1  -1  -7  359.66   23.10
  -1  -1  -7  407.76   21.10
  -1  -1  -7  380.16   20.90
  -1  -1  -7  409.66   20.30
   1   1   7  387.36   24.20
   1   1   7  391.96   23.00
   1   1   7  445.16   20.80
   1   1   7  449.66   20.80
  -2  -1  -7   20.00    4.60
  -2  -1  -7   13.50    3.20
  -2  -1  -7   15.40    5.10
   2   1   7   21.10    3.80
   2   1   7   39.60    6.80
   2   1   7   19.40    5.70
  -3  -1  -7  954.40   51.09
  -3  -1  -7  920.11   48.80
   3   1   7 1049.59   48.90
   3   1   7  888.11   50.39
   3   1   7  969.50   48.10
  -4  -1  -7   37.90    7.80
  -4  -1  -7   40.80    8.70
   4   1   7   46.60    7.70
   4   1   7   41.90    6.90
   4   1   7   36.00    8.40
  -5  -1  -7   90.89   13.80
  -5  -1  -7  127.29   17.40
   5   1   7  111.89   13.30
   6  -2  -7   36.20    7.00
   6  -2  -7   52.09   11.30
  -6   2   7   34.40   10.40
  -6   2   7   37.90   12.10
   5  -2  -7   32.40    6.10
   5  -2  -7   36.70    9.80
  -5   2   7   35.30    9.70
  -5   2   7   45.70   11.50
   4  -2  -7    5.10    4.20
   4  -2  -7    8.30    2.90
   4  -2  -7    1.60    1.80
  -4   2   7    2.30    3.00
  -4   2   7    9.80    5.10
   3  -2  -7 1850.91   84.89
   3  -2  -7 1890.81   89.39
   3  -2  -7 1987.20   85.29
   3  -2  -7 2007.30   84.39
  -3   2   7 1885.41   91.99
  -3   2   7 1741.93   83.79
  -3   2   7 1990.50   86.59
  -3   2   7 1916.21   91.39
   2  -2  -7   10.50    1.60
   2  -2  -7   13.30    4.20
   2  -2  -7   10.50    2.90
   2  -2  -7   11.20    1.40
  -2   2   7   10.70    2.90
  -2   2   7   12.40    3.00
  -2   2   7   11.20    3.30
  -2   2   7   18.60    5.00
   1  -2  -7 2079.79   87.29
   1  -2  -7 2040.10   91.59
   1  -2  -7 1951.10   87.49
  -1   2   7 2050.99   92.59
  -1   2   7 2074.29   91.99
  -1   2   7 1954.90   93.29
   0  -2  -7   36.60    5.10
   0  -2  -7   44.30    3.90
   0  -2  -7   38.50    7.00
   0   2   7   47.40    7.70
   0   2   7   49.80    3.20
   0   2   7   45.00    6.60
  -1  -2  -7 2183.28   98.39
  -1  -2  -7 2241.48   98.09
  -1  -2  -7 2182.38  101.99
   1   2   7 2034.10  102.39
   1   2   7 2164.98  100.09
   1   2   7 2309.57   97.79
  -2  -2  -7   84.59   11.60
  -2  -2  -7   80.49    9.70
  -2  -2  -7   82.49    8.50
   2   2   7   84.59   12.40
   2   2   7   80.89    9.90
   2   2   7   96.29    7.90
  -3  -2  -7   84.39   12.80
  -3  -2  -7   90.99    9.40
  -3  -2  -7   95.69   12.00
   3   2   7   86.79    9.00
   3   2   7   84.59   10.60
   3   2   7   74.29   12.80
  -4  -2  -7  652.33   38.60
  -4  -2  -7  671.93   40.90
  -4  -2  -7  735.93   37.50
   4   2   7  620.64   37.30
   4   2   7  642.74   40.50
   6  -3  -7  155.78   16.80
   6  -3  -7  153.38   13.30
  -6   3   7  139.19   24.10
  -6   3   7  148.89   22.40
   5  -3  -7  443.56   25.90
   5  -3  -7  462.55   30.70
  -5   3   7  423.16   31.90
  -5   3   7  443.36   33.70
   4  -3  -7  282.47   17.30
   4  -3  -7  303.57   21.30
  -4   3   7  291.67   22.80
  -4   3   7  308.57   23.80
   3  -3  -7 1250.07   57.99
   3  -3  -7 1369.96   57.69
   3  -3  -7 1307.67   62.19
  -3   3   7 1352.36   65.69
  -3   3   7 1204.28   56.59
  -3   3   7 1248.08   59.69
  -3   3   7 1215.28   64.19
   2  -3  -7   36.80    3.30
   2  -3  -7   34.20    5.70
   2  -3  -7   38.90    3.30
  -2   3   7   30.10    6.60
  -2   3   7   44.40    6.30
  -2   3   7   46.00    7.20
  -2   3   7   40.10    6.40
   1  -3  -7  975.60   48.30
   1  -3  -7  969.30   44.90
   1  -3  -7 1007.70   44.50
  -1   3   7 1034.00   48.60
  -1   3   7  949.31   49.90
  -1   3   7 1008.00   49.80
  -1   3   7 1030.80   48.70
   0  -3  -7  668.13   29.60
   0  -3  -7  652.23   34.70
   0  -3  -7  610.04   31.70
   0  -3  -7  553.64   30.60
   0  -3  -7  637.34   30.00
   0   3   7  570.14   34.40
   0   3   7  650.73   32.90
  -1  -3  -7  264.17   15.60
  -1  -3  -7  279.77   16.40
  -1  -3  -7  281.57   16.80
  -1  -3  -7  252.47   19.00
   1   3   7  277.57   17.80
   1   3   7  285.97   15.90
   1   3   7  255.77   20.20
  -2  -3  -7  864.61   43.20
  -2  -3  -7  853.31   47.50
   2   3   7  924.41   44.70
   2   3   7  905.61   44.00
   2   3   7  785.72   48.20
  -3  -3  -7  178.68   16.60
  -3  -3  -7  196.08   15.10
  -3  -3  -7  173.38   13.50
   3   3   7  169.58   17.70
   3   3   7  161.58   13.20
   3   3   7  193.58   14.20
  -4  -3  -7  328.77   26.10
  -4  -3  -7  384.26   25.50
   4   3   7  375.36   28.40
   6  -4  -7    4.00    4.40
   6  -4  -7    5.00    2.60
  -6   4   7    1.20    4.60
  -6   4   7    2.90    3.50
   5  -4  -7  383.66   24.20
   5  -4  -7  440.66   29.30
  -5   4   7  429.06   31.40
  -5   4   7  414.56   32.40
   4  -4  -7  107.09   11.30
   4  -4  -7   93.59    8.30
  -4   4   7  113.49   16.30
  -4   4   7  100.39   15.40
   3  -4  -7   -0.70    1.50
   3  -4  -7    2.20    1.50
   3  -4  -7    8.00    3.60
  -3   4   7    6.00    1.90
  -3   4   7    2.10    2.40
  -3   4   7    3.90    3.40
   2  -4  -7 1217.28   59.49
   2  -4  -7 1281.17   56.89
   2  -4  -7 1237.38   54.89
   2  -4  -7 1224.88   55.39
  -2   4   7 1305.37   61.49
  -2   4   7 1143.89   53.19
  -2   4   7 1189.68   61.09
  -2   4   7 1130.79   59.09
   1  -4  -7  168.98   10.70
   1  -4  -7  171.68   13.30
   1  -4  -7  182.58   10.70
   1  -4  -7  184.28   10.40
  -1   4   7  185.68   13.30
  -1   4   7  189.88    9.80
  -1   4   7  172.38   14.40
  -1   4   7  175.18   13.30
   0  -4  -7 2189.88  104.49
   0  -4  -7 2199.38  101.59
   0  -4  -7 2182.48   99.39
   0  -4  -7 2240.98   98.69
   0  -4  -7 2100.19   98.29
   0   4   7 2376.66  102.49
   0   4   7 2320.07   98.89
   0   4   7 2100.09  105.19
  -1  -4  -7   60.79    8.40
  -1  -4  -7   72.99   11.00
  -1  -4  -7   73.99    8.30
   1   4   7   86.79   10.40
   1   4   7   58.99   11.40
   1   4   7   72.89    6.50
  -2  -4  -7  957.60   51.89
  -2  -4  -7  914.71   46.70
  -2  -4  -7  909.21   47.20
   2   4   7  870.71   46.90
   2   4   7  902.51   53.69
   2   4   7 1054.19   48.80
  -3  -4  -7   19.70    5.90
  -3  -4  -7   19.40    5.40
   3   4   7   19.70    5.70
   3   4   7   11.50    6.90
  -4  -4  -7   39.70    9.30
  -4  -4  -7   26.00    7.00
   4   4   7   32.70    9.50
   6  -5  -7  221.48   17.10
   6  -5  -7  220.28   20.10
  -6   5   7  243.78   25.50
  -6   5   7  212.58   27.20
   5  -5  -7   18.80    5.60
   5  -5  -7   16.60    4.80
  -5   5   7   15.90    6.70
  -5   5   7   18.50    7.40
   4  -5  -7  613.64   32.90
   4  -5  -7  608.14   35.70
  -4   5   7  718.43   42.30
  -4   5   7  623.04   39.80
   3  -5  -7  157.08   11.10
   3  -5  -7  155.48   14.00
   3  -5  -7  186.08   13.00
  -3   5   7  209.78   17.30
  -3   5   7  172.78   16.20
  -3   5   7  170.78   12.80
   2  -5  -7  551.24   27.20
   2  -5  -7  521.45   31.10
  -2   5   7  549.05   33.40
  -2   5   7  597.84   33.70
  -2   5   7  516.35   31.20
   1  -5  -7  273.17   15.60
   1  -5  -7  281.77   18.90
  -1   5   7  284.87   19.80
  -1   5   7  281.27   20.50
   0  -5  -7   24.20    6.30
   0  -5  -7    9.20    4.40
   0  -5  -7   21.80    4.30
   0   5   7   16.70    6.20
   0   5   7   22.10    3.70
   0   5   7   22.50    5.60
  -1  -5  -7    3.50    3.40
  -1  -5  -7    5.20    2.70
  -1  -5  -7    4.90    2.40
   1   5   7    2.90    1.20
   1   5   7    4.60    3.60
   1   5   7    7.50    4.90
  -2  -5  -7  698.73   42.80
  -2  -5  -7  755.02   39.70
  -2  -5  -7  725.53   38.40
   2   5   7  702.33   46.20
  -3  -5  -7   54.79   10.10
  -3  -5  -7   57.19    9.70
   3   5   7   42.70   12.00
   5  -6  -7   60.59    9.60
   5  -6  -7   68.69    9.70
  -5   6   7   82.69   16.20
  -5   6   7   80.29   15.70
   4  -6  -7   27.60    6.60
   4  -6  -7   26.40    5.20
  -4   6   7   26.60    8.40
  -4   6   7   23.30    8.30
   3  -6  -7   47.40    8.30
   3  -6  -7   29.90    5.10
  -3   6   7   31.20    8.70
  -3   6   7   34.40    6.20
  -3   6   7   33.70    8.50
   2  -6  -7  116.59   13.70
   2  -6  -7  142.79    9.90
  -2   6   7  121.79   12.10
  -2   6   7  136.79   13.70
   1  -6  -7   15.90    5.60
   1  -6  -7   28.30    5.00
  -1   6   7   27.50    7.00
  -1   6   7   31.20    7.50
   0  -6  -7  375.66   26.60
   0  -6  -7  385.06   24.70
   0  -6  -7  403.26   22.10
   0   6   7  368.96   28.00
  -1  -6  -7  188.38   13.40
  -1  -6  -7  161.38   14.40
  -1  -6  -7  153.18   15.40
   1   6   7  171.68   22.60
  -2  -6  -7  278.27   21.30
  -2  -6  -7  303.47   24.10
  -2  -6  -7  338.27   21.30
   2   6   7  318.17   28.30
   5  -7  -7   15.30    3.90
   5  -7  -7   13.90    3.50
  -5   7   7   13.60    6.10
  -5   7   7    8.20    7.20
   4  -7  -7   43.10    7.00
   4  -7  -7   33.60    6.40
  -4   7   7   30.00   10.30
  -4   7   7   48.00   11.00
   3  -7  -7   45.30    6.90
   3  -7  -7   35.20    7.90
  -3   7   7   39.50    6.80
  -3   7   7   26.90    8.00
   2  -7  -7  138.89   10.50
   2  -7  -7  137.59   15.60
  -2   7   7  128.49   13.30
  -2   7   7  135.59   14.60
   1  -7  -7    8.20    3.30
   1  -7  -7   10.20    3.90
   1  -7  -7   10.80    3.70
  -1   7   7    7.70    3.70
  -1   7   7    9.80    3.90
   0  -7  -7  228.48   15.50
   0  -7  -7  240.08   19.90
   0  -7  -7  195.08   16.90
   0   7   7  216.18   20.90
  -1  -7  -7  279.27   18.80
  -1  -7  -7  257.37   20.20
  -1  -7  -7  280.57   22.70
   1   7   7  271.17   25.90
  -2  -7  -7   84.59   13.00
  -2  -7  -7   63.89    9.80
  -2  -7  -7   82.49   13.50
   2   7   7   82.19   17.50
   4  -8  -7   43.30    7.40
   4  -8  -7   49.20    8.60
  -4   8   7   52.19   12.80
   3  -8  -7   90.29   12.60
   3  -8  -7   82.39   10.20
  -3   8   7   89.79    9.70
  -3   8   7  107.69   17.40
   2  -8  -7   29.90    7.90
   2  -8  -7   36.80    6.40
  -2   8   7   41.30   10.20
  -2   8   7   48.60   10.20
   1  -8  -7  243.48   16.60
   1  -8  -7  216.38   18.70
   1  -8  -7  232.88   20.00
  -1   8   7  210.78   20.70
  -1   8   7  267.47   22.50
   0  -8  -7  128.49   11.20
   0  -8  -7  103.09   14.40
   0  -8  -7  128.39   18.10
   0   8   7  127.59   14.30
   0   8   7  121.39   18.90
  -1  -8  -7   22.50    5.70
  -1  -8  -7   26.00    7.10
  -1  -8  -7   17.40    4.50
   1   8   7   11.20    7.10
   3  -9  -7   30.20    6.00
   3  -9  -7   31.30    6.10
  -3   9   7   33.40    9.50
   2  -9  -7  345.47   22.60
   2  -9  -7  346.47   26.00
  -2   9   7  396.26   31.20
  -2   9   7  361.26   27.70
   1  -9  -7    3.90    1.60
   1  -9  -7    1.30    3.50
   1  -9  -7    5.10    2.20
  -1   9   7    5.70    2.30
  -1   9   7    2.90    2.30
  -1   9  -8   89.39   12.10
  -1   9  -8   80.99   13.50
   1  -9   8   67.89   10.50
   1   8  -8   14.00    4.50
   1   8  -8    9.80    3.50
  -1  -8   8   10.50    2.00
  -1  -8   8    8.90    3.30
   0   8  -8  256.47   20.20
   0   8  -8  316.17   22.20
   0  -8   8  254.57   18.70
  -1   8  -8  208.58   17.40
  -1   8  -8  175.58   15.60
   1  -8   8  235.08   17.10
  -2   8  -8    1.00    2.40
  -2   8  -8   -1.40    2.20
  -2   8  -8    3.50    2.00
   2  -8   8    8.30    2.10
  -3   8  -8  889.61   50.49
  -3   8  -8  770.72   47.30
   3  -8   8  807.82   51.19
   3  -8   8  762.62   45.50
   2   7  -8    8.50    3.40
   2   7  -8    9.30    3.70
   2   7  -8   14.10    2.70
  -2  -7   8   15.40    3.50
   1   7  -8  206.68   18.00
   1   7  -8  249.08   17.90
   1   7  -8  244.98   19.00
  -1  -7   8  242.48   17.00
  -1  -7   8  214.18   15.60
   0   7  -8  496.15   31.50
   0   7  -8  474.45   30.30
   0  -7   8  514.75   29.50
   0  -7   8  517.25   27.30
  -1   7  -8  429.16   27.50
  -1   7  -8  411.46   25.20
   1  -7   8  347.97   24.00
  -2   7  -8  397.86   23.90
  -2   7  -8  357.16   27.00
  -2   7  -8  354.66   26.00
   2  -7   8  407.06   25.30
  -3   7  -8   17.10    5.80
  -3   7  -8   12.10    3.10
  -3   7  -8   12.60    4.40
   3  -7   8   16.50    7.60
   3  -7   8   21.00    4.00
  -4   7  -8  118.09   16.50
   4  -7   8   91.89   17.20
   4  -7   8   94.49   13.00
   3   6  -8  228.58   18.80
   3   6  -8  214.88   17.70
   3   6  -8  237.18   20.10
  -3  -6   8  223.98   19.10
   2   6  -8   30.70    6.20
   2   6  -8   26.90    7.00
   2   6  -8   29.10    7.40
  -2  -6   8   26.30    5.50
  -2  -6   8   24.40    4.80
   1   6  -8  154.68   16.60
   1   6  -8  131.49   12.80
  -1  -6   8  127.79   10.80
  -1  -6   8  138.69   10.80
   0   6  -8  298.17   20.00
   0   6  -8  294.17   20.80
   0  -6   8  282.77   18.60
   0  -6   8  277.67   16.60
  -1   6  -8  141.19   11.80
  -1   6  -8  137.49   15.60
   1  -6   8  119.59    8.30
   1  -6   8  118.99   10.70
  -2   6  -8   29.40    5.50
  -2   6  -8   30.40    6.80
  -2   6  -8   52.09    8.90
   2  -6   8   30.40    5.90
   2  -6   8   30.50    8.90
  -3   6  -8  543.55   32.80
  -3   6  -8  526.95   33.40
  -3   6  -8  564.34   30.00
   3  -6   8  486.35   34.40
   3  -6   8  496.85   31.40
  -4   6  -8  145.49   18.80
   4  -6   8  107.79   17.20
   4  -6   8  112.99   14.30
   4   5  -8   45.20   10.00
   4   5  -8   52.19    9.90
   4   5  -8   56.39    9.30
  -4  -5   8   49.40   11.10
   3   5  -8   12.60    4.20
   3   5  -8   18.90    6.00
   3   5  -8   13.50    6.20
  -3  -5   8   18.00    5.90
  -3  -5   8   15.60    3.20
   2   5  -8  117.99   12.00
   2   5  -8  120.89   15.10
   2   5  -8  125.69   14.00
  -2  -5   8  128.49   10.10
  -2  -5   8  113.29    9.90
   1   5  -8  221.78   16.80
   1   5  -8  219.88   16.90
  -1  -5   8  220.48   16.30
  -1  -5   8  238.68   15.20
   0   5  -8   68.09   10.50
   0   5  -8   89.89   11.20
   0  -5   8   79.19    6.40
   0  -5   8   79.29   11.50
   0  -5   8   82.09    9.50
  -1   5  -8  426.96   26.80
  -1   5  -8  451.65   25.50
   1  -5   8  429.36   25.00
   1  -5   8  437.76   21.00
   1  -5   8  409.86   27.70
  -2   5  -8   42.00    7.00
  -2   5  -8   46.40    7.60
  -2   5  -8   44.20    8.90
   2  -5   8   44.20    9.70
   2  -5   8   38.50    6.80
  -3   5  -8  744.83   48.50
  -3   5  -8  889.61   43.50
  -3   5  -8  808.52   46.40
   3  -5   8  842.42   45.20
   3  -5   8  886.31   48.60
  -4   5  -8  148.19   18.50
  -4   5  -8  133.19   10.70
   4  -5   8  164.98   19.80
   4  -5   8  117.79   14.70
  -5   5  -8  267.27   21.70
   5  -5   8  214.68   17.90
   4   4  -8  104.29   10.90
   4   4  -8   73.89   11.60
   4   4  -8   69.69   12.10
  -4  -4   8   66.69   11.70
   3   4  -8  408.16   27.00
   3   4  -8  455.35   28.40
   3   4  -8  439.96   26.80
  -3  -4   8  422.66   23.90
  -3  -4   8  384.26   26.60
   2   4  -8  617.24   33.80
   2   4  -8  631.44   35.60
   2   4  -8  596.44   34.20
  -2  -4   8  603.34   31.30
  -2  -4   8  651.43   34.00
  -2  -4   8  555.34   31.40
   1   4  -8  409.16   24.50
   1   4  -8  446.36   25.20
  -1  -4   8  397.46   22.40
  -1  -4   8  402.76   24.20
   0   4  -8  899.61   44.00
   0   4  -8  857.71   44.20
   0  -4   8  870.81   42.40
   0  -4   8  821.72   44.90
  -1   4  -8  637.04   34.10
  -1   4  -8  683.03   35.70
   1  -4   8  659.33   36.90
   1  -4   8  614.64   33.40
  -2   4  -8   55.19    7.70
  -2   4  -8   58.89   10.00
  -2   4  -8   55.79    7.70
  -2   4  -8   59.99    8.50
   2  -4   8   46.70    7.40
   2  -4   8   58.09   10.70
  -3   4  -8    7.40    4.00
  -3   4  -8   17.80    3.70
  -3   4  -8   13.00    4.10
   3  -4   8   10.70    2.30
   3  -4   8    8.00    4.70
  -4   4  -8   65.39   11.40
  -4   4  -8   99.19   13.60
   4  -4   8   77.99   11.40
   4  -4   8   81.09   13.00
  -5   4  -8   19.20    5.30
  -5   4  -8   35.80    8.50
   5  -4   8   43.00    9.20
   5  -4   8   33.40    6.40
   5   3  -8    5.20    4.60
   5   3  -8   21.80    5.40
   5   3  -8    3.10    2.70
  -5  -3   8    3.10    2.50
   4   3  -8  496.25   31.00
   4   3  -8  437.76   28.60
   4   3  -8  420.56   27.40
  -4  -3   8  473.35   30.70
   3   3  -8   16.70    5.00
   3   3  -8   21.00    6.10
   3   3  -8   11.30    5.20
  -3  -3   8   10.60    4.60
  -3  -3   8   16.00    3.40
   2   3  -8  157.88   12.10
   2   3  -8  156.18   12.70
   2   3  -8  124.39   12.50
  -2  -3   8  141.39   10.40
  -2  -3   8  152.18   12.10
  -2  -3   8  149.99    9.90
   1   3  -8  364.76   20.80
   1   3  -8  307.37   19.40
   1   3  -8  322.37   18.60
  -1  -3   8  342.07   19.10
  -1  -3   8  346.77   18.20
  -1  -3   8  307.87   19.60
   0   3  -8   32.00    6.00
   0   3  -8   36.80    5.10
   0   3  -8   41.00    6.80
   0   3  -8   37.00    3.30
   0  -3   8   50.69    8.20
   0  -3   8   37.10    7.00
   0  -3   8   38.60    3.50
   0  -3   8   45.40    5.60
  -1   3  -8    0.80    2.70
  -1   3  -8   -2.90    1.60
  -1   3  -8   -0.20    2.00
   1  -3   8   -1.40    0.60
   1  -3   8    1.10    2.90
   1  -3   8   -1.60    2.30
  -2   3  -8  133.39   12.10
  -2   3  -8  166.68   12.40
   2  -3   8  117.39   14.80
   2  -3   8  138.09   10.90
   2  -3   8  149.09   12.40
  -3   3  -8   -1.90    2.70
  -3   3  -8    6.40    3.00
   3  -3   8    2.60    1.80
   3  -3   8    3.10    3.60
   3  -3   8    5.60    3.40
  -4   3  -8  255.67   20.10
  -4   3  -8  249.18   19.90
   4  -3   8  237.58   19.10
   4  -3   8  279.77   19.10
  -5   3  -8  178.28   22.10
  -5   3  -8  212.48   19.00
   5  -3   8  199.58   16.90
   5  -3   8  254.17   17.80
   5   2  -8  108.69   14.20
   5   2  -8   94.89   12.20
   5   2  -8  114.29   15.90
  -5  -2   8   83.79   14.50
   4   2  -8   72.99   10.00
   4   2  -8   69.89   11.60
   4   2  -8   65.39   10.50
  -4  -2   8   63.59   11.20
   3   2  -8  265.37   17.40
   3   2  -8  265.97   18.40
   3   2  -8  295.07   20.70
  -3  -2   8  248.68   14.40
  -3  -2   8  301.07   15.80
  -3  -2   8  284.27   19.70
   2   2  -8  394.56   25.10
   2   2  -8  408.26   21.40
   2   2  -8  422.96   22.50
   2   2  -8  426.56   23.60
  -2  -2   8  372.46   21.40
  -2  -2   8  405.36   20.40
  -2  -2   8  400.56   23.70
   1   2  -8   67.09    3.70
   1   2  -8   61.29    5.50
   1   2  -8   76.59    9.10
   1   2  -8   83.09    7.10
  -1  -2   8   76.09    6.50
  -1  -2   8   66.39    8.50
  -1  -2   8   79.39    7.90
  -1  -2   8   73.69    5.30
   0   2  -8 1647.94   74.29
   0   2  -8 1575.64   78.39
   0   2  -8 1725.03   77.69
   0   2  -8 1672.83   75.69
   0   2  -8 1745.73   76.59
   0  -2   8 1873.21   80.39
   0  -2   8 1662.03   79.59
   0  -2   8 1720.33   74.89
   0  -2   8 1665.83   76.09
  -1   2  -8   79.09    6.70
  -1   2  -8   92.29    8.00
  -1   2  -8   78.89    9.20
   1  -2   8   84.09    6.90
   1  -2   8   95.89    9.20
   1  -2   8   81.79   10.70
  -2   2  -8  146.19   11.90
  -2   2  -8  135.59   11.50
   2  -2   8  128.59   12.30
   2  -2   8  144.99   12.00
   2  -2   8  136.19   10.30
  -3   2  -8  185.38   15.10
  -3   2  -8  175.78   14.90
   3  -2   8  190.88   13.80
   3  -2   8  173.98   14.00
   3  -2   8  180.38   15.20
  -4   2  -8   24.00    6.00
  -4   2  -8   23.00    6.80
   4  -2   8   24.30    5.20
   4  -2   8   17.90    5.60
  -5   2  -8   66.59   12.00
  -5   2  -8   46.90    9.90
   5  -2   8   81.59   11.10
   5  -2   8   62.49    9.90
   5   1  -8  157.48   12.90
   5   1  -8  160.68   14.00
   5   1  -8  149.79   15.60
  -5  -1   8  141.39   18.80
   4   1  -8  982.40   49.30
   4   1  -8 1012.40   54.09
   4   1  -8  962.30   50.09
  -4  -1   8 1032.50   54.59
   3   1  -8  233.68   18.60
   3   1  -8  260.37   15.70
   3   1  -8  261.97   17.10
  -3  -1   8  265.57   19.00
  -3  -1   8  263.37   13.90
   2   1  -8  779.12   44.30
   2   1  -8  907.01   40.90
   2   1  -8  873.21   39.30
   2   1  -8  838.62   40.10
   2   1  -8  877.11   42.60
  -2  -1   8  855.71   43.80
  -2  -1   8  989.80   44.10
  -2  -1   8  787.62   41.00
   1   1  -8   44.80    4.90
   1   1  -8   42.80    4.50
   1   1  -8   39.20    3.90
   1   1  -8   36.20    6.10
  -1  -1   8   41.30    5.60
  -1  -1   8   38.50    6.50
  -1  -1   8   39.40    6.10
  -1  -1   8   38.80    2.90
   0   1  -8  218.48   12.00
   0   1  -8  211.88   13.00
   0   1  -8  218.18   12.90
   0  -1   8  230.98   11.30
   0  -1   8  201.68   14.60
   0  -1   8  226.38   15.30
  -1   1  -8 1653.23   79.09
  -1   1  -8 1679.33   78.59
  -1   1  -8 1755.42   77.59
   1  -1   8 1812.42   77.79
   1  -1   8 1732.83   80.99
   1  -1   8 1663.43   80.99
  -2   1  -8   -2.20    1.70
  -2   1  -8   -1.20    2.50
   2  -1   8    1.50    2.60
   2  -1   8    1.70    3.00
   2  -1   8    8.40    2.40
  -3   1  -8 1536.45   73.09
  -3   1  -8 1495.25   73.29
   3  -1   8 1523.05   71.49
   3  -1   8 1459.15   72.49
   3  -1   8 1431.86   72.19
  -4   1  -8   32.90    7.60
  -4   1  -8   33.50    8.00
   4  -1   8   35.10    6.90
   4  -1   8   30.50    5.50
   4  -1   8   43.10    7.90
  -5   1  -8  450.85   33.90
  -5   1  -8  604.94   37.00
   5  -1   8  582.84   34.40
   6   0  -8  193.58   15.40
   6   0  -8  209.08   20.10
  -6   0   8  203.78   25.70
   5   0  -8   12.00    5.60
   5   0  -8    2.00    3.30
   5   0  -8    6.40    3.30
  -5   0   8   -1.70    1.40
   4   0  -8  139.19   10.40
   4   0  -8  130.29   11.20
   4   0  -8  130.09   13.60
  -4   0   8  130.59   18.90
  -4   0   8  117.39   16.30
   3   0  -8  183.28   13.00
   3   0  -8  213.58   13.70
   3   0  -8  207.48   16.10
   3   0  -8  196.58   12.20
  -3   0   8  181.98   16.50
  -3   0   8  186.18   15.80
  -3   0   8  209.38   11.60
   2   0  -8   21.40    3.10
   2   0  -8   19.70    2.70
   2   0  -8   16.20    5.40
   2   0  -8   22.90    4.70
  -2   0   8   20.40    5.10
  -2   0   8   19.90    1.50
  -2   0   8   20.50    3.90
  -2   0   8   20.40    4.40
  -2   0   8   21.00    5.00
  -2   0   8   21.90    1.60
   1   0  -8 2543.25  115.59
   1   0  -8 2630.84  112.79
   1   0  -8 2317.57  116.19
   1   0  -8 2776.52  113.19
  -1   0   8 2659.13  117.99
  -1   0   8 2660.93  115.99
  -1   0   8 2575.94  116.69
   0   0  -8  815.42   36.70
   0   0  -8  766.92   39.40
   0   0  -8  831.12   37.50
   0   0  -8  841.92   37.10
   0   0   8  756.82   40.20
   0   0   8  809.42   36.10
   0   0   8  819.72   37.30
   0   0   8  764.32   41.10
  -1   0  -8 1848.72   79.49
  -1   0  -8 1660.53   81.69
  -1   0  -8 1737.23   79.89
  -1   0  -8 1782.32   76.99
   1   0   8 1681.83   82.39
   1   0   8 1912.71   79.29
   1   0   8 1675.93   82.99
  -2   0  -8  173.38   12.60
  -2   0  -8  161.88   13.70
   2   0   8  168.18    9.30
   2   0   8  175.28   13.60
   2   0   8  168.78   11.40
   2   0   8  145.59   13.40
  -3   0  -8   73.89   11.10
  -3   0  -8   83.89   11.80
   3   0   8   95.99   11.70
   3   0   8   76.09   11.20
   3   0   8   94.79    8.40
  -4   0  -8    2.80    4.10
  -4   0  -8    1.80    1.90
   4   0   8    0.10    2.10
   4   0   8    4.40    1.50
   4   0   8    5.00    3.30
  -5   0  -8  278.07   22.50
  -5   0  -8  218.38   19.60
   6  -1  -8   29.30    5.90
   6  -1  -8   41.40    9.30
  -6   1   8   16.10    7.70
  -6   1   8   30.00   10.30
   5  -1  -8  439.16   29.30
   5  -1  -8  405.16   23.60
  -5   1   8  369.86   29.00
  -5   1   8  356.26   30.80
   4  -1  -8   32.80    5.90
   4  -1  -8   52.19    6.50
   4  -1  -8   35.80    8.50
  -4   1   8   43.50    9.70
  -4   1   8   53.19   11.60
   3  -1  -8 3040.70  134.49
   3  -1  -8 2795.72  133.69
   3  -1  -8 3270.57  136.29
   3  -1  -8 3063.39  139.99
  -3   1   8 3156.38  135.19
  -3   1   8 2960.90  142.29
  -3   1   8 2851.71  133.09
  -3   1   8 3395.36  137.49
  -3   1   8 3055.29  141.29
   2  -1  -8  156.28    7.70
   2  -1  -8  137.09   11.80
   2  -1  -8  148.79    7.50
   2  -1  -8  141.89   10.30
  -2   1   8  141.59   11.70
  -2   1   8  155.68   10.20
  -2   1   8  153.48   11.20
  -2   1   8  158.88   12.10
   1  -1  -8  621.84   31.30
  -1   1   8  600.34   30.60
  -1   1   8  579.84   31.90
  -1   1   8  595.04   30.80
   0  -1  -8   22.30    3.20
   0  -1  -8   21.80    3.60
   0  -1  -8   19.80    2.90
   0  -1  -8   18.40    4.60
   0   1   8   19.10    1.60
   0   1   8   19.80    1.50
   0   1   8   19.60    5.30
   0   1   8   22.90    4.90
  -1  -1  -8   18.90    3.30
  -1  -1  -8   23.30    5.70
  -1  -1  -8   14.40    3.20
  -1  -1  -8   23.50    4.50
   1   1   8   19.10    5.30
   1   1   8   23.60    3.50
   1   1   8   28.20    6.50
  -2  -1  -8  461.05   29.60
  -2  -1  -8  496.65   24.90
  -2  -1  -8  509.05   27.70
   2   1   8  511.95   30.90
   2   1   8  533.75   27.00
   2   1   8  513.95   28.90
  -3  -1  -8  362.46   26.10
  -3  -1  -8  369.26   24.40
   3   1   8  423.86   24.00
   3   1   8  425.56   24.80
   3   1   8  388.46   26.80
  -4  -1  -8  722.33   44.80
  -4  -1  -8  887.01   48.50
   4   1   8  785.52   44.00
   4   1   8  917.91   43.90
   4   1   8  752.42   45.90
   6  -2  -8   72.59   13.40
   6  -2  -8   63.19    9.40
  -6   2   8   73.49   15.30
  -6   2   8   66.29   16.10
   5  -2  -8  284.67   22.10
   5  -2  -8  246.88   16.90
  -5   2   8  274.57   23.50
  -5   2   8  234.58   23.40
   4  -2  -8   16.70    6.20
   4  -2  -8   11.90    3.10
   4  -2  -8    7.20    2.80
  -4   2   8    6.80    3.70
  -4   2   8   14.90    6.50
   3  -2  -8   17.00    5.60
   3  -2  -8   10.30    2.00
   3  -2  -8   12.60    3.30
   3  -2  -8   11.90    2.50
  -3   2   8   12.00    5.40
  -3   2   8   39.40    8.00
  -3   2   8   16.10    3.20
  -3   2   8   14.00    3.30
   2  -2  -8   27.30    1.70
   2  -2  -8   27.80    1.80
   2  -2  -8   34.20    5.50
   2  -2  -8   26.80    5.90
  -2   2   8   34.00    5.30
  -2   2   8   33.00    6.50
  -2   2   8   34.40    6.40
  -2   2   8   27.20    5.10
   1  -2  -8  106.09    5.30
   1  -2  -8  118.79    9.10
   1  -2  -8  122.59    5.40
  -1   2   8   97.59    9.60
  -1   2   8  116.79    9.40
  -1   2   8  117.69    9.60
   0  -2  -8  809.52   34.80
   0  -2  -8  731.83   36.60
   0  -2  -8  739.03   34.80
   0  -2  -8  707.33   39.20
   0   2   8  677.13   39.70
   0   2   8  757.82   38.60
   0   2   8  791.92   33.60
  -1  -2  -8 1972.20   97.39
  -1  -2  -8 2150.88   93.39
  -1  -2  -8 1943.21   93.29
  -1  -2  -8 2113.59   93.29
   1   2   8 2279.17   92.89
   1   2   8 1928.51   98.29
   1   2   8 2084.79   96.09
  -2  -2  -8  202.58   13.00
  -2  -2  -8  206.28   14.30
  -2  -2  -8  196.38   16.70
   2   2   8  215.38   15.40
   2   2   8  173.68   16.80
   2   2   8  218.98   13.80
  -3  -2  -8  384.16   22.30
  -3  -2  -8  358.16   24.40
  -3  -2  -8  396.96   27.70
   3   2   8  435.26   25.10
   3   2   8  378.06   27.90
   3   2   8  443.26   24.70
  -4  -2  -8   28.20    6.90
  -4  -2  -8    9.70    5.00
   4   2   8   20.50    7.30
   4   2   8   22.50    5.60
   6  -3  -8   52.89    7.80
   6  -3  -8   57.29   11.60
  -6   3   8   53.09   13.00
  -6   3   8   42.50   12.60
   5  -3  -8    5.00    2.50
   5  -3  -8    1.50    4.00
  -5   3   8    0.80    2.80
  -5   3   8   -0.90    3.00
   4  -3  -8  100.49   10.90
   4  -3  -8   81.19    7.40
  -4   3   8   85.99   13.60
  -4   3   8   87.99   14.60
   3  -3  -8   64.89    9.50
   3  -3  -8   60.99    5.00
   3  -3  -8   64.09    5.70
  -3   3   8   75.09   11.60
  -3   3   8   83.69   12.30
  -3   3   8   57.59    6.10
   2  -3  -8  728.63   36.90
   2  -3  -8  714.13   32.60
   2  -3  -8  728.83   32.60
  -2   3   8  794.02   37.40
  -2   3   8  674.93   37.80
  -2   3   8  725.93   39.30
  -2   3   8  748.13   39.00
   1  -3  -8  293.57   15.10
   1  -3  -8  323.67   19.00
   1  -3  -8  306.87   14.80
  -1   3   8  332.87   19.40
  -1   3   8  306.07   19.80
  -1   3   8  316.77   18.50
  -1   3   8  297.27   20.40
   0  -3  -8   10.90    2.50
   0  -3  -8    1.40    3.20
   0  -3  -8    3.60    1.50
   0  -3  -8    6.70    3.00
   0   3   8    0.60    2.70
   0   3   8   29.00    5.80
   0   3   8    5.10    1.00
  -1  -3  -8   34.90    5.70
  -1  -3  -8   28.30    6.80
   1   3   8   38.00    5.00
   1   3   8   32.80    6.50
   1   3   8   26.60    7.20
  -2  -3  -8  183.58   17.10
  -2  -3  -8  203.18   14.20
  -2  -3  -8  214.58   15.00
   2   3   8  206.88   18.90
   2   3   8  223.58   15.90
   2   3   8  208.78   14.00
  -3  -3  -8  111.09   11.60
  -3  -3  -8  112.59   13.70
  -3  -3  -8   97.99   14.50
   3   3   8  106.19   10.70
   3   3   8  107.39   16.40
  -4  -3  -8  876.91   52.19
  -4  -3  -8  902.71   49.90
   6  -4  -8   10.60    5.40
   6  -4  -8   12.60    3.60
  -6   4   8    7.60    5.10
  -6   4   8    4.70    5.00
   5  -4  -8    9.40    3.50
   5  -4  -8    2.00    3.90
  -5   4   8    2.20    2.60
  -5   4   8   -1.80    4.10
   4  -4  -8   61.19   10.40
   4  -4  -8   60.49    7.40
  -4   4   8   79.89   13.50
  -4   4   8   60.79   12.10
   3  -4  -8  306.27   19.40
   3  -4  -8  312.77   16.00
   3  -4  -8  284.77   16.00
  -3   4   8  325.27   22.70
  -3   4   8  291.27   22.00
  -3   4   8  288.17   18.50
   2  -4  -8  799.52   35.90
   2  -4  -8  787.12   38.50
   2  -4  -8  756.52   36.40
   2  -4  -8  751.52   40.70
  -2   4   8  732.13   42.20
  -2   4   8  840.22   40.60
  -2   4   8  798.42   42.30
  -2   4   8  754.62   41.30
   1  -4  -8  505.65   29.10
   1  -4  -8  486.15   25.70
   1  -4  -8  491.95   26.10
   1  -4  -8  545.85   25.20
  -1   4   8  504.05   31.20
  -1   4   8  525.35   29.40
  -1   4   8  550.34   23.30
  -1   4   8  568.74   30.00
   0  -4  -8  536.05   26.90
   0  -4  -8  533.55   32.60
   0  -4  -8  520.75   29.60
   0   4   8  555.74   30.70
   0   4   8  564.74   30.00
   0   4   8  535.55   33.50
  -1  -4  -8   40.70    6.20
  -1  -4  -8   38.60    6.90
  -1  -4  -8   44.80    9.20
   1   4   8   33.50    9.40
   1   4   8   38.90    7.40
   1   4   8   50.59    6.60
  -2  -4  -8  526.05   35.20
  -2  -4  -8  599.24   32.00
   2   4   8  499.65   36.80
   2   4   8  639.44   33.50
  -3  -4  -8   28.70    6.80
  -3  -4  -8   47.10    8.60
  -3  -4  -8   36.30    8.50
   3   4   8   30.10    7.40
   3   4   8   44.50   11.60
   5  -5  -8  143.89   11.60
   5  -5  -8  127.79   13.60
  -5   5   8  171.28   23.20
  -5   5   8  152.28   22.60
   4  -5  -8   57.89    7.10
   4  -5  -8   52.99    9.30
  -4   5   8   41.00   10.50
  -4   5   8   53.89   11.80
   3  -5  -8  119.89    8.90
   3  -5  -8  129.99   10.60
   3  -5  -8  106.49   13.20
  -3   5   8  133.49   11.00
  -3   5   8  139.69   14.00
  -3   5   8  153.08   17.80
   2  -5  -8   71.09    6.50
   2  -5  -8   73.99    5.90
   2  -5  -8   67.89   10.00
  -2   5   8   71.69   10.40
  -2   5   8   71.59   12.00
  -2   5   8   73.39   11.10
   1  -5  -8  317.77   22.80
   1  -5  -8  316.37   17.30
   1  -5  -8  326.07   21.10
  -1   5   8  297.67   22.50
  -1   5   8  332.67   21.80
   0  -5  -8  236.88   16.90
   0  -5  -8  242.28   19.40
   0  -5  -8  226.58   14.10
   0   5   8  228.58   16.90
   0   5   8  221.48   19.50
   0   5   8  235.58   17.30
  -1  -5  -8  214.48   18.40
  -1  -5  -8  202.18   15.70
  -1  -5  -8  206.38   14.20
   1   5   8  192.68   19.70
   1   5   8  218.98   16.70
  -2  -5  -8   39.90    8.20
  -2  -5  -8   37.80    8.40
  -2  -5  -8   54.39    8.40
   2   5   8   44.60    8.70
   2   5   8   54.99   13.20
  -3  -5  -8    4.00    2.90
  -3  -5  -8   -6.80    2.70
   3   5   8   -3.80    3.50
   5  -6  -8  219.98   19.40
   5  -6  -8  243.98   16.80
  -5   6   8  248.68   24.40
  -5   6   8  239.98   27.30
   4  -6  -8   10.10    4.90
   4  -6  -8   17.10    3.80
  -4   6   8    4.10    4.50
  -4   6   8    9.70    4.90
   3  -6  -8  437.16   27.80
   3  -6  -8  419.56   22.90
  -3   6   8  407.46   29.60
  -3   6   8  402.46   25.90
  -3   6   8  457.95   30.80
   2  -6  -8   15.70    3.40
   2  -6  -8   10.00    4.90
  -2   6   8   16.60    5.10
  -2   6   8   19.60    5.40
   1  -6  -8   15.40    3.60
   1  -6  -8   16.40    4.80
   1  -6  -8   12.00    4.80
  -1   6   8   12.10    5.20
  -1   6   8   17.40    4.80
   0  -6  -8   18.60    5.50
   0  -6  -8   10.20    3.20
   0  -6  -8   16.80    5.40
   0   6   8   15.60    5.70
   0   6   8   12.90    3.70
  -1  -6  -8   57.49    8.40
  -1  -6  -8   57.49    9.70
  -1  -6  -8   59.29   10.80
   1   6   8   51.29   12.70
  -2  -6  -8    1.90    2.50
  -2  -6  -8    2.20    4.10
  -2  -6  -8   13.90    4.50
   2   6   8   15.30    8.40
   5  -7  -8  197.88   15.00
   5  -7  -8  173.08   20.20
  -5   7   8  198.68   25.50
  -5   7   8  231.98   23.70
   4  -7  -8  198.38   14.00
   4  -7  -8  199.18   17.10
  -4   7   8  218.58   21.20
  -4   7   8  145.89   21.20
   3  -7  -8   15.50    3.80
   3  -7  -8    9.30    4.30
  -3   7   8   17.00    5.60
  -3   7   8   12.30    3.60
   2  -7  -8  166.78   15.40
   2  -7  -8  196.28   13.00
  -2   7   8  183.08   16.60
  -2   7   8  187.28   17.90
   1  -7  -8  180.88   17.80
   1  -7  -8  218.18   17.70
   1  -7  -8  226.18   14.70
  -1   7   8  260.87   20.40
  -1   7   8  194.28   18.90
   0  -7  -8   29.10    5.80
   0  -7  -8   30.80    6.90
   0  -7  -8   28.10    7.30
   0   7   8   28.90    8.20
   0   7   8   25.90    6.20
  -1  -7  -8  694.43   39.40
  -1  -7  -8  685.73   36.60
  -1  -7  -8  627.94   41.60
   1   7   8  644.14   45.80
   4  -8  -8   12.50    3.50
   4  -8  -8   12.60    3.80
  -4   8   8   11.00    5.30
   3  -8  -8  780.32   47.30
   3  -8  -8  848.12   42.80
  -3   8   8  803.42   46.90
  -3   8   8  900.31   53.49
   2  -8  -8   10.20    4.50
   2  -8  -8   14.50    4.10
  -2   8   8   18.50    6.50
  -2   8   8   21.90    6.30
   1  -8  -8  378.16   26.00
   1  -8  -8  368.36   27.40
   1  -8  -8  353.96   21.70
  -1   8   8  318.57   27.40
  -1   8   8  361.86   27.90
   0  -8  -8  224.58   19.10
   0  -8  -8  254.87   17.10
   0  -8  -8  206.48   19.60
   0   8   8  224.88   22.90
   1   8  -9  129.09   12.20
   1   8  -9  155.98   18.80
   1   8  -9  143.69   13.90
   0   8  -9  557.34   35.30
   0   8  -9  514.15   33.60
   0  -8   9  595.84   33.20
  -1   8  -9  169.88   15.40
  -1   8  -9  141.79   13.80
   1  -8   9  176.78   14.00
  -2   8  -9  122.29   11.70
  -2   8  -9  177.08   20.30
   2  -8   9  158.78   22.20
   2  -8   9  139.29   12.70
   2   7  -9   45.20    9.60
   2   7  -9   75.59   11.10
   2   7  -9   53.09   10.00
  -2  -7   9   49.50    8.30
   1   7  -9  112.09   10.90
   1   7  -9  100.49   14.00
   1   7  -9  107.29   14.50
  -1  -7   9   81.89   12.40
  -1  -7   9  102.89   12.20
   0   7  -9    2.90    3.00
   0   7  -9    3.20    2.20
   0  -7   9    5.90    1.30
  -1   7  -9   45.40    8.20
  -1   7  -9   35.10    7.50
   1  -7   9   36.80    9.70
   1  -7   9   44.20    7.30
  -2   7  -9   11.40    4.50
  -2   7  -9   14.70    3.80
  -2   7  -9   16.50    4.60
   2  -7   9   16.20    3.00
   2  -7   9   18.40    7.60
  -3   7  -9    7.90    3.30
   3  -7   9    5.30    2.10
   3  -7   9   -2.50    3.10
   3   6  -9    5.70    2.50
   3   6  -9    5.40    4.80
   3   6  -9    0.80    3.80
  -3  -6   9    5.50    2.70
   2   6  -9  218.88   17.90
   2   6  -9  208.78   17.40
   2   6  -9  196.18   16.70
  -2  -6   9  183.78   14.80
   1   6  -9   33.90    7.20
   1   6  -9   45.50    8.80
  -1  -6   9   34.40    5.90
  -1  -6   9   35.00    7.30
   0   6  -9   80.89   10.80
   0   6  -9   90.69   12.80
   0  -6   9   71.79   11.80
   0  -6   9   70.09    9.20
  -1   6  -9  108.89   14.30
  -1   6  -9  104.19   10.20
   1  -6   9   89.59   11.30
   1  -6   9   96.49   14.60
  -2   6  -9    0.20    1.40
  -2   6  -9    3.10    1.80
  -2   6  -9    8.50    3.20
   2  -6   9   -6.20    2.40
  -3   6  -9   52.39   10.30
  -3   6  -9   44.30    7.30
   3  -6   9   54.89   12.30
   3  -6   9   43.10    7.40
  -4   6  -9   18.90    4.60
   4  -6   9   32.90    9.10
   4  -6   9   20.00    3.90
   4   5  -9  243.98   20.70
   4   5  -9  307.27   23.30
   4   5  -9  313.77   23.20
  -4  -5   9  292.37   23.70
   3   5  -9   57.49    9.30
   3   5  -9   36.40    8.60
   3   5  -9   46.50    9.20
  -3  -5   9   26.50    6.60
   2   5  -9  179.28   15.40
   2   5  -9  179.58   16.20
   2   5  -9  209.88   16.60
  -2  -5   9  166.18   13.20
  -2  -5   9  196.98   13.50
  -2  -5   9  176.48   14.60
   1   5  -9  193.78   15.30
   1   5  -9  185.58   15.30
  -1  -5   9  184.88   14.70
  -1  -5   9  183.28   12.90
   0   5  -9   22.80    6.30
   0   5  -9   25.50    6.40
   0  -5   9   27.90    4.80
   0  -5   9   27.80    6.80
  -1   5  -9   -0.10    2.10
  -1   5  -9    1.70    3.10
   1  -5   9   -0.60    2.60
   1  -5   9   -0.10    0.70
  -2   5  -9  691.43   36.20
  -2   5  -9  626.14   37.90
   2  -5   9  633.54   39.80
   2  -5   9  682.53   36.70
  -3   5  -9    2.60    2.60
  -3   5  -9    9.70    2.30
   3  -5   9    6.70    2.20
   3  -5   9   -1.00    3.90
  -4   5  -9  251.97   17.30
  -4   5  -9  252.77   20.90
   4  -5   9  258.47   19.60
   4  -5   9  277.87   22.60
   4   4  -9    4.10    4.10
   4   4  -9    5.50    2.50
   4   4  -9    7.30    4.00
  -4  -4   9    5.30    2.90
   3   4  -9  199.38   17.30
   3   4  -9  187.38   16.60
   3   4  -9  203.48   16.00
  -3  -4   9  202.18   16.70
   2   4  -9 1075.49   51.29
   2   4  -9  972.70   51.59
   2   4  -9  980.50   53.09
  -2  -4   9 1014.60   48.30
  -2  -4   9  923.01   48.90
  -2  -4   9 1017.10   50.89
   1   4  -9  184.28   14.40
   1   4  -9  184.28   14.30
  -1  -4   9  190.08   14.30
  -1  -4   9  189.78   12.30
  -1  -4   9  176.98   12.70
   0   4  -9 1826.42   82.19
   0   4  -9 1760.22   81.69
   0  -4   9 1688.23   79.49
   0  -4   9 1637.04   82.79
  -1   4  -9    8.20    2.60
  -1   4  -9    1.00    3.20
  -1   4  -9    5.50    3.20
   1  -4   9    1.60    3.10
   1  -4   9    5.10    1.40
  -2   4  -9  978.70   52.19
  -2   4  -9  990.10   50.59
  -2   4  -9 1054.39   49.99
   2  -4   9  962.50   53.79
   2  -4   9 1006.70   50.59
  -3   4  -9    7.20    1.90
  -3   4  -9   -0.70    3.40
  -3   4  -9    2.60    2.20
   3  -4   9    1.40    4.00
   3  -4   9    9.50    2.20
  -4   4  -9  156.38   18.70
  -4   4  -9  171.48   15.90
   4  -4   9  170.38   14.10
   4  -4   9  167.38   16.30
   5   3  -9   41.50    9.00
   5   3  -9   16.40    4.90
   5   3  -9   33.40    7.20
  -5  -3   9   28.70    8.80
   4   3  -9  789.32   45.00
   4   3  -9  817.52   41.80
   4   3  -9  721.73   42.00
  -4  -3   9  669.83   43.00
   3   3  -9  362.96   25.30
   3   3  -9  364.76   22.80
   3   3  -9  338.17   23.70
  -3  -3   9  422.76   25.50
   2   3  -9  849.22   41.30
   2   3  -9  751.42   43.60
   2   3  -9  860.21   42.70
  -2  -3   9  793.52   41.70
  -2  -3   9  706.73   39.50
  -2  -3   9  851.91   38.80
   1   3  -9  106.49   10.00
   1   3  -9  106.99   11.00
  -1  -3   9  109.79    7.70
  -1  -3   9   84.99    8.80
  -1  -3   9  106.29    8.50
   0   3  -9  254.87   16.50
   0   3  -9  220.08   16.20
   0   3  -9  242.98   15.00
   0   3  -9  221.78   12.60
   0   3  -9  263.37   13.00
   0  -3   9  225.98   17.20
   0  -3   9  273.97   18.40
   0  -3   9  252.27   14.70
   0  -3   9  284.67   13.70
  -1   3  -9    2.50    3.40
  -1   3  -9    0.50    2.30
  -1   3  -9    2.60    2.60
   1  -3   9    0.50    3.20
   1  -3   9    8.60    4.40
   1  -3   9    4.30    1.70
  -2   3  -9  379.46   24.70
  -2   3  -9  424.86   24.20
   2  -3   9  361.76   23.00
   2  -3   9  433.26   25.50
   2  -3   9  413.26   26.90
  -3   3  -9  715.23   43.10
  -3   3  -9  821.32   43.30
   3  -3   9  740.43   41.80
   3  -3   9  785.22   44.80
   3  -3   9  883.21   43.30
  -4   3  -9  290.17   21.90
  -4   3  -9  296.17   22.20
   4  -3   9  288.57   20.10
   4  -3   9  259.57   21.20
  -5   3  -9  209.88   19.10
   5  -3   9  302.47   35.00
   5   2  -9   12.90    5.70
   5   2  -9   34.70    6.50
   5   2  -9   35.50    8.10
  -5  -2   9   37.70    9.40
   4   2  -9  320.57   24.30
   4   2  -9  318.97   22.30
   4   2  -9  354.76   21.50
  -4  -2   9  324.07   24.30
   3   2  -9   46.20    8.10
   3   2  -9   63.69   10.80
   3   2  -9   56.09    7.60
  -3  -2   9   50.79    9.10
  -3  -2   9   58.39    4.90
   2   2  -9  184.38   15.50
   2   2  -9  183.48   12.60
   2   2  -9  208.48   14.40
  -2  -2   9  164.18   12.00
  -2  -2   9  193.08   10.80
  -2  -2   9  184.58   13.90
   1   2  -9 1993.60   89.79
   1   2  -9 2056.99   90.69
   1   2  -9 2074.89   92.89
   1   2  -9 1846.52   86.99
  -1  -2   9 1880.31   92.19
  -1  -2   9 2013.30   90.99
  -1  -2   9 2209.18   94.39
  -1  -2   9 1989.70   88.69
   0   2  -9   69.59    5.70
   0   2  -9   68.69    9.00
   0   2  -9   64.99    7.80
   0   2  -9   60.09    5.70
   0   2  -9   62.19    4.20
   0  -2   9   77.09   10.00
   0  -2   9   68.29    4.40
   0  -2   9   63.89    5.20
   0  -2   9   89.29   11.10
  -1   2  -9 3015.10  137.29
  -1   2  -9 3095.99  135.69
  -1   2  -9 3016.90  136.39
   1  -2   9 2908.11  139.69
   1  -2   9 3284.37  139.79
   1  -2   9 2998.60  135.69
  -2   2  -9   93.59   11.80
  -2   2  -9  107.39   10.60
   2  -2   9  130.99   11.80
   2  -2   9  113.09   11.50
   2  -2   9  111.59    9.20
  -3   2  -9  259.97   18.90
  -3   2  -9  219.58   17.90
   3  -2   9  267.77   18.60
   3  -2   9  257.57   17.20
   3  -2   9  226.88   18.80
  -4   2  -9  294.87   22.40
  -4   2  -9  300.67   22.90
   4  -2   9  301.47   22.20
   4  -2   9  336.07   21.30
  -5   2  -9   38.90    8.60
  -5   2  -9   33.50    8.70
   5  -2   9   35.60    7.50
   5   1  -9  317.77   25.20
   5   1  -9  320.17   20.90
   5   1  -9  329.97   21.90
  -5  -1   9  303.57   25.20
   4   1  -9    6.70    4.20
   4   1  -9   10.30    3.40
   4   1  -9   11.60    6.30
  -4  -1   9   -0.10    2.00
   3   1  -9  510.05   30.70
   3   1  -9  487.25   27.30
   3   1  -9  463.25   25.30
  -3  -1   9  482.05   29.70
  -3  -1   9  474.55   24.30
   2   1  -9  690.03   32.90
   2   1  -9  636.54   37.30
   2   1  -9  750.32   35.80
   2   1  -9  665.53   32.40
  -2  -1   9  664.93   36.10
  -2  -1   9  642.94   30.90
  -2  -1   9  745.03   36.60
  -2  -1   9  656.03   34.00
   1   1  -9  127.79    8.80
   1   1  -9  143.49    9.10
   1   1  -9  138.79    8.50
   1   1  -9  133.59   11.10
  -1  -1   9  135.59   10.80
  -1  -1   9  145.69    7.40
  -1  -1   9  145.89    9.90
  -1  -1   9  145.49   11.60
   0   1  -9  778.82   35.20
   0   1  -9  820.62   37.60
   0   1  -9  783.32   36.30
   0   1  -9  710.63   37.50
   0  -1   9  753.72   40.20
   0  -1   9  812.62   41.00
   0  -1   9  773.02   35.30
  -1   1  -9   50.19    5.70
  -1   1  -9   39.10    6.40
  -1   1  -9   38.40    6.20
   1  -1   9   42.10    5.20
   1  -1   9   39.20    7.80
   1  -1   9   27.50    6.50
  -2   1  -9   90.99   10.80
  -2   1  -9   77.09   10.30
   2  -1   9   88.09    7.60
   2  -1   9   90.79   12.00
   2  -1   9   78.19   11.20
  -3   1  -9  650.63   36.60
  -3   1  -9  602.54   35.50
   3  -1   9  618.44   34.00
   3  -1   9  617.54   36.00
   3  -1   9  645.14   36.40
  -4   1  -9  134.99   16.80
  -4   1  -9  165.38   18.40
   4  -1   9  128.59   11.20
   4  -1   9  120.99   12.60
   4  -1   9  129.59   12.30
   5   0  -9   16.30    6.60
   5   0  -9   14.70    3.80
   5   0  -9   17.40    5.60
  -5   0   9   23.30    7.10
   4   0  -9   19.20    7.00
   4   0  -9   18.80    5.50
   4   0  -9   12.00    3.30
  -4   0   9   13.00    5.60
  -4   0   9   17.60    6.80
   3   0  -9  136.99   12.90
   3   0  -9  135.59   10.80
   3   0  -9  130.39    8.90
  -3   0   9  137.59    8.90
  -3   0   9  103.99   12.00
  -3   0   9  121.49   15.10
   2   0  -9   43.40    3.90
   2   0  -9   38.40    7.90
   2   0  -9   44.00    6.80
   2   0  -9   44.10    3.60
  -2   0   9   42.90    6.10
  -2   0   9   34.70    6.90
  -2   0   9   52.19    7.40
  -2   0   9   53.89    7.80
   1   0  -9  549.74   24.80
   1   0  -9  522.35   24.20
   1   0  -9  510.85   28.30
   1   0  -9  525.95   27.40
  -1   0   9  530.55   27.30
  -1   0   9  537.15   29.60
  -1   0   9  520.35   28.40
   0   0  -9   40.70    4.40
   0   0  -9   43.60    5.20
   0   0  -9   39.40    4.30
   0   0  -9   36.80    6.20
   0   0   9   39.40    2.90
   0   0   9   37.60    7.10
   0   0   9   46.90    7.50
  -1   0  -9 1409.76   70.29
  -1   0  -9 1480.05   67.49
  -1   0  -9 1488.35   68.29
  -1   0  -9 1495.45   64.89
   1   0   9 1407.56   71.89
   1   0   9 1441.26   71.29
   1   0   9 1594.94   67.29
  -2   0  -9    5.00    3.70
  -2   0  -9    8.90    3.40
   2   0   9    3.70    1.40
   2   0   9    4.30    3.60
   2   0   9    3.90    3.60
  -3   0  -9  760.82   43.10
  -3   0  -9  730.53   41.30
   3   0   9  750.32   43.10
   3   0   9  783.42   42.00
   3   0   9  795.22   40.40
  -4   0  -9    4.60    2.80
  -4   0  -9    4.20    4.60
   4   0   9    7.60    4.40
   4   0   9    3.90    3.80
   6  -1  -9   98.69   11.60
   6  -1  -9   95.49   15.80
  -6   1   9   85.49   18.70
  -6   1   9  101.89   17.40
   5  -1  -9   75.19    9.40
   5  -1  -9  101.79   15.90
  -5   1   9   89.49   15.20
  -5   1   9   85.89   16.60
   4  -1  -9   95.99   13.80
   4  -1  -9   86.79    9.90
   4  -1  -9   79.49    7.40
  -4   1   9  103.29   16.30
  -4   1   9   80.79   13.50
   3  -1  -9  565.84   28.30
   3  -1  -9  537.05   31.60
   3  -1  -9  512.55   25.70
  -3   1   9  573.44   29.30
  -3   1   9  518.75   32.80
  -3   1   9  492.95   31.60
  -3   1   9  522.15   27.00
   2  -1  -9  119.79    5.70
   2  -1  -9  113.69    9.50
   2  -1  -9  103.59    5.50
   2  -1  -9  107.59   10.70
  -2   1   9  127.69   10.80
  -2   1   9  119.39   10.10
  -2   1   9  113.39    8.90
  -2   1   9  100.99    9.60
   1  -1  -9   73.59    8.90
  -1   1   9   67.69    9.50
  -1   1   9   80.19    7.10
  -1   1   9   75.99    7.50
   0  -1  -9   37.00    4.10
   0  -1  -9   37.60    4.40
   0  -1  -9   40.40    7.00
   0  -1  -9   31.50    4.50
   0   1   9   36.30    2.20
   0   1   9   47.50    7.70
   0   1   9   40.80    7.80
  -1  -1  -9  721.13   33.30
  -1  -1  -9  654.23   37.70
  -1  -1  -9  696.93   34.60
  -1  -1  -9  703.23   34.80
   1   1   9  694.33   37.60
   1   1   9  751.82   33.70
   1   1   9  659.73   38.90
  -2  -1  -9  235.18   15.70
  -2  -1  -9  220.28   17.80
  -2  -1  -9  224.08   12.90
   2   1   9  215.68   18.30
   2   1   9  254.97   14.90
   2   1   9  224.08   16.80
  -3  -1  -9  138.89   12.50
  -3  -1  -9  130.19   16.30
   3   1   9  128.29   16.80
   3   1   9  142.39   11.00
   3   1   9  142.09   13.20
  -4  -1  -9  218.28   18.80
  -4  -1  -9  257.57   21.60
   4   1   9  214.88   19.60
   4   1   9  276.27   18.80
   6  -2  -9   44.90   10.30
   6  -2  -9   30.50    5.20
  -6   2   9   17.90    7.70
  -6   2   9   10.10    5.40
   5  -2  -9   10.90    3.50
   5  -2  -9   16.40    6.90
  -5   2   9   18.90    7.20
  -5   2   9   28.50    8.90
   4  -2  -9 1082.39   53.99
   4  -2  -9 1001.00   47.30
   4  -2  -9  966.30   47.50
  -4   2   9  993.10   56.79
  -4   2   9  937.01   54.99
   3  -2  -9  222.18   17.00
   3  -2  -9  241.18   14.50
   3  -2  -9  225.98   12.10
  -3   2   9  247.68   14.60
  -3   2   9  226.68   18.20
  -3   2   9  240.58   18.50
  -3   2   9  227.28   15.20
   2  -2  -9  547.25   30.60
   2  -2  -9  529.35   28.80
  -2   2   9  563.44   31.00
  -2   2   9  531.75   30.50
  -2   2   9  582.64   29.60
  -2   2   9  583.34   31.60
   1  -2  -9  671.53   36.30
   1  -2  -9  663.43   34.30
  -1   2   9  696.53   35.50
  -1   2   9  641.14   36.80
  -1   2   9  721.23   35.70
   0  -2  -9  237.58   14.20
   0  -2  -9  203.98   12.10
   0  -2  -9  205.68   16.10
   0  -2  -9  236.28   12.30
   0   2   9  236.58   10.50
   0   2   9  193.58   16.40
   0   2   9  233.08   16.10
  -1  -2  -9    1.30    2.30
  -1  -2  -9    0.40    1.80
  -1  -2  -9    4.60    2.40
   1   2   9    1.70    0.60
   1   2   9    1.90    2.80
   1   2   9   -2.70    2.00
  -2  -2  -9   43.40    7.20
  -2  -2  -9   41.70    9.00
  -2  -2  -9   31.00    5.20
   2   2   9   38.40    5.60
   2   2   9   23.50    6.50
   2   2   9   25.90    7.90
  -3  -2  -9    6.20    2.90
  -3  -2  -9   -0.50    3.40
   3   2   9    6.00    3.40
   3   2   9    6.20    5.50
  -4  -2  -9    9.20    4.70
  -4  -2  -9    5.90    5.00
   4   2   9    3.60    4.50
   4   2   9   13.70    6.40
   6  -3  -9  218.38   16.90
   6  -3  -9  294.27   23.60
  -6   3   9  237.28   28.60
  -6   3   9  251.47   26.20
   5  -3  -9    2.70    1.90
   5  -3  -9    3.70    4.00
  -5   3   9    3.20    3.60
  -5   3   9    3.70    2.60
   4  -3  -9   10.00    5.00
   4  -3  -9   11.30    2.90
  -4   3   9    9.40    4.90
  -4   3   9   14.90    5.60
   3  -3  -9   27.30    6.60
   3  -3  -9   28.10    4.60
   3  -3  -9   22.80    3.00
  -3   3   9   22.20    4.80
  -3   3   9   31.10    6.90
  -3   3   9   18.70    6.10
  -3   3   9   33.40    5.70
   2  -3  -9   95.39   10.80
   2  -3  -9   91.09    9.00
  -2   3   9   95.89    9.60
  -2   3   9   97.79    9.20
  -2   3   9   94.09    8.80
  -2   3   9   86.99   11.50
   1  -3  -9  111.19   11.30
   1  -3  -9  107.49    9.80
   1  -3  -9  120.89    6.90
  -1   3   9  129.29   12.10
  -1   3   9  132.99    9.80
  -1   3   9  122.49   11.10
  -1   3   9  128.99   10.80
   0  -3  -9  830.62   41.10
   0  -3  -9  805.72   44.20
   0   3   9  756.42   44.80
   0   3   9  845.02   43.00
   0   3   9  839.12   36.80
  -1  -3  -9   -0.40    1.90
  -1  -3  -9    1.60    2.00
  -1  -3  -9    1.50    2.90
   1   3   9    0.40    3.10
   1   3   9    2.80    4.10
  -2  -3  -9  109.69   11.00
  -2  -3  -9   84.69   10.80
  -2  -3  -9  107.89   15.30
   2   3   9  109.49   11.20
   2   3   9   85.89   14.60
  -3  -3  -9  195.08   18.90
  -3  -3  -9  206.28   16.70
   3   3   9  241.08   17.60
   3   3   9  208.18   20.70
   5  -4  -9  289.77   22.80
   5  -4  -9  294.57   18.70
  -5   4   9  306.47   26.20
  -5   4   9  332.87   28.00
   4  -4  -9  331.67   19.10
   4  -4  -9  364.16   24.00
  -4   4   9  353.26   26.80
  -4   4   9  374.26   27.70
   3  -4  -9  292.27   15.90
   3  -4  -9  291.37   18.80
   3  -4  -9  266.57   14.60
  -3   4   9  287.37   18.60
  -3   4   9  270.07   21.20
  -3   4   9  282.57   21.30
   2  -4  -9  665.13   37.40
   2  -4  -9  725.63   35.60
   2  -4  -9  677.13   31.60
  -2   4   9  627.04   37.90
  -2   4   9  749.23   39.10
  -2   4   9  698.03   39.40
  -2   4   9  728.53   37.30
   1  -4  -9    1.30    3.00
   1  -4  -9   -0.20    2.20
   1  -4  -9    0.20    1.00
  -1   4   9    1.40    0.90
  -1   4   9    0.50    2.60
  -1   4   9   -1.40    2.20
   0  -4  -9    1.80    2.50
   0  -4  -9   -0.50    2.40
   0  -4  -9    1.90    1.60
   0   4   9    0.00    0.70
   0   4   9   -0.40    2.90
   0   4   9   -2.40    1.70
  -1  -4  -9  144.79   14.80
  -1  -4  -9  160.78   12.60
   1   4   9  158.38   13.80
   1   4   9  142.89   18.80
  -2  -4  -9    5.90    3.10
  -2  -4  -9    4.40    4.30
  -2  -4  -9    1.30    3.20
   2   4   9    3.80    4.20
   2   4   9    6.80    5.90
  -3  -4  -9  404.96   26.70
  -3  -4  -9  389.96   29.60
  -3  -4  -9  440.56   27.90
   3   4   9  452.45   27.10
   3   4   9  360.56   31.40
   5  -5  -9   19.20    6.10
   5  -5  -9   24.20    4.50
  -5   5   9   10.50    6.80
  -5   5   9   22.00    8.00
   4  -5  -9  120.79   11.70
   4  -5  -9  124.69    9.20
   4  -5  -9  104.09   14.20
  -4   5   9  131.29   14.90
  -4   5   9  114.99   17.40
   3  -5  -9   70.09   10.60
   3  -5  -9   77.59    6.00
   3  -5  -9   71.89    9.30
  -3   5   9   81.49   12.80
  -3   5   9   56.99   11.00
  -3   5   9   79.69    8.30
   2  -5  -9    8.50    3.40
   2  -5  -9    8.10    2.20
  -2   5   9    6.80    2.40
  -2   5   9    5.40    2.70
  -2   5   9    6.90    3.90
   1  -5  -9 1180.48   59.59
   1  -5  -9 1108.69   61.79
   1  -5  -9 1168.58   54.49
  -1   5   9 1265.67   60.39
  -1   5   9 1134.69   62.59
  -1   5   9 1248.28   60.59
   0  -5  -9   49.40    8.40
   0  -5  -9   46.70   10.00
   0  -5  -9   51.79    6.40
   0   5   9   62.29   12.00
   0   5   9   57.39    8.40
   0   5   9   48.50    8.90
  -1  -5  -9 1406.76   68.69
  -1  -5  -9 1333.97   72.99
  -1  -5  -9 1324.77   66.19
   1   5   9 1389.06   76.29
   1   5   9 1547.35   70.99
  -2  -5  -9   15.90    5.10
  -2  -5  -9    9.40    4.50
   2   5   9   19.40    6.40
   2   5   9   21.00    8.90
   5  -6  -9  143.99   18.40
   5  -6  -9  156.38   12.10
  -5   6   9  176.98   19.90
  -5   6   9  131.59   21.70
   4  -6  -9  133.99   16.40
   4  -6  -9  131.59   10.00
  -4   6   9  145.69   16.20
  -4   6   9  115.99   17.50
   3  -6  -9 1102.29   49.99
   3  -6  -9 1018.40   55.99
  -3   6   9 1128.09   60.09
  -3   6   9  980.40   58.29
  -3   6   9 1026.00   54.99
   2  -6  -9   90.49    7.20
   2  -6  -9   76.09   11.40
  -2   6   9   90.89   13.20
  -2   6   9   89.19   13.70
   1  -6  -9  535.35   27.20
   1  -6  -9  495.05   33.50
   1  -6  -9  512.35   31.50
  -1   6   9  558.94   33.10
  -1   6   9  500.15   34.20
   0  -6  -9    3.80    2.40
   0  -6  -9    1.20    3.10
   0  -6  -9    6.90    2.60
   0   6   9    5.90    4.00
   0   6   9    5.60    2.00
  -1  -6  -9    2.50    2.30
  -1  -6  -9    8.40    3.50
  -1  -6  -9   14.20    5.30
   1   6   9    8.40    7.10
  -2  -6  -9  108.79   16.40
  -2  -6  -9   92.39   12.60
   2   6   9   91.29   18.10
   4  -7  -9   44.60    9.10
   4  -7  -9   40.40    5.90
  -4   7   9   40.90   10.30
  -4   7   9   24.30    8.90
   3  -7  -9   58.49    7.00
   3  -7  -9   57.59   10.40
  -3   7   9   63.59   12.50
  -3   7   9   53.49    9.00
   2  -7  -9   24.20    4.70
   2  -7  -9   24.60    6.30
  -2   7   9   20.60    6.20
  -2   7   9   25.80    6.70
   1  -7  -9   32.90    5.50
   1  -7  -9   48.50   10.20
   1  -7  -9   39.30    8.10
  -1   7   9   26.20    7.70
  -1   7   9   38.40    8.40
   0  -7  -9  466.25   30.00
   0  -7  -9  444.06   32.40
   0  -7  -9  471.45   26.70
   0   7   9  498.05   31.80
   0   7   9  465.55   35.10
  -1  -7  -9  253.67   17.80
  -1  -7  -9  271.47   22.90
  -1  -7  -9  238.88   19.50
   1   7   9  244.18   25.50
   3  -8  -9   71.99   11.10
   3  -8  -9   73.09    8.80
  -3   8   9   86.69   15.80
  -3   8   9   66.09   11.10
   2  -8  -9  294.17   18.30
   2  -8  -9  298.57   24.60
   2  -8  -9  288.07   22.40
  -2   8   9  296.17   24.70
  -2   8   9  269.67   23.20
   1  -8  -9  225.38   20.30
   1  -8  -9  235.98   19.10
   1  -8  -9  211.88   15.00
  -1   8   9  201.48   20.60
  -1   8   9  204.18   19.30
   0  -8  -9   28.10    7.00
   0  -8  -9   29.60    5.80
   0  -8  -9   36.60    8.00
   0   8   9   23.10    5.60
   0   8 -10   55.39   10.20
   0   8 -10   51.99    9.00
   0  -8  10   57.19   11.60
  -1   8 -10   67.19   10.90
  -1   8 -10   99.89   14.40
   1  -8  10   85.29   14.90
  -2   8 -10  319.27   26.80
  -2   8 -10  270.27   22.20
  -2   8 -10  264.77   19.70
   2  -8  10  291.57   25.90
   2   7 -10   62.79   11.70
   2   7 -10   51.99   10.40
   2   7 -10   70.19   11.00
  -2  -7  10   74.89   11.20
  -2  -7  10   69.39   10.80
   1   7 -10  671.63   39.50
   1   7 -10  665.03   39.10
   1   7 -10  596.84   38.10
  -1  -7  10  647.24   38.60
   0   7 -10   79.79   12.20
   0   7 -10   67.99   11.80
   0  -7  10   69.39   12.60
  -1   7 -10  375.76   26.10
  -1   7 -10  369.76   24.40
   1  -7  10  385.96   23.90
   1  -7  10  336.57   27.30
  -2   7 -10  950.20   52.59
  -2   7 -10  970.00   49.40
   2  -7  10  878.91   54.79
   2  -7  10  893.91   49.50
  -3   7 -10   10.20    3.50
   3  -7  10    3.40    1.70
   3  -7  10    5.70    4.90
   3   6 -10   65.39   10.80
   3   6 -10   82.19   12.70
   3   6 -10   72.79   12.60
  -3  -6  10   63.59   10.50
   2   6 -10  104.09   14.00
   2   6 -10  136.89   16.00
   2   6 -10  133.79   13.10
  -2  -6  10  123.69   11.40
  -2  -6  10  131.49   12.20
   1   6 -10   16.00    4.90
   1   6 -10   16.70    6.10
  -1  -6  10   17.30    5.20
   0   6 -10  856.71   44.90
   0   6 -10  835.02   43.60
   0  -6  10  710.93   44.20
   0  -6  10  755.72   40.90
  -1   6 -10  173.58   14.20
  -1   6 -10  178.08   19.50
   1  -6  10  169.28   13.20
   1  -6  10  157.38   16.30
  -2   6 -10  772.32   45.00
  -2   6 -10  825.52   42.80
   2  -6  10  742.83   47.20
   2  -6  10  801.22   43.30
  -3   6 -10  131.89   16.80
  -3   6 -10   99.89    9.80
   3  -6  10  122.29   11.00
   3  -6  10   95.69   16.80
   3   5 -10   50.69    9.80
   3   5 -10   40.40    9.30
   3   5 -10   59.09    9.30
  -3  -5  10   53.59   10.20
   2   5 -10 1442.76   66.49
   2   5 -10 1333.67   67.99
   2   5 -10 1160.48   65.39
  -2  -5  10 1339.37   65.09
  -2  -5  10 1234.08   63.49
   1   5 -10  217.18   16.90
   1   5 -10  221.48   17.00
  -1  -5  10  213.08   14.80
  -1  -5  10  209.88   16.50
  -1  -5  10  218.38   14.50
   0   5 -10  250.57   18.90
   0   5 -10  274.07   18.80
   0  -5  10  264.97   16.80
   0  -5  10  254.37   19.80
  -1   5 -10   71.69   10.50
  -1   5 -10   64.39   10.60
   1  -5  10   59.89    8.30
   1  -5  10   57.29   11.00
  -2   5 -10  100.49    9.70
  -2   5 -10  100.69   14.20
   2  -5  10  102.49    9.30
   2  -5  10   95.09   14.70
  -3   5 -10   81.59   10.80
  -3   5 -10   68.59   11.70
   3  -5  10   63.79    9.40
   3  -5  10   40.50   10.50
  -4   5 -10  315.27   24.50
  -4   5 -10  326.07   23.10
   4  -5  10  293.07   24.50
   4  -5  10  379.06   27.30
   4   4 -10  108.49   16.10
   4   4 -10  115.69   15.80
   4   4 -10  124.19   15.00
  -4  -4  10   89.69   14.20
   3   4 -10  193.38   15.20
   3   4 -10  138.69   14.70
   3   4 -10  196.78   17.10
  -3  -4  10  172.78   15.20
   2   4 -10   25.40    6.10
   2   4 -10   21.30    6.40
   2   4 -10   28.50    7.10
  -2  -4  10   21.70    4.80
  -2  -4  10   21.00    4.20
   1   4 -10   86.59   11.00
   1   4 -10  112.09   13.00
  -1  -4  10   98.49   12.20
  -1  -4  10   83.29    7.20
   0   4 -10  202.88   15.10
   0   4 -10  215.88   15.60
   0  -4  10  183.88   15.70
   0  -4  10  178.98   12.50
  -1   4 -10   31.40    7.10
  -1   4 -10   41.20    7.60
   1  -4  10   29.80    5.00
   1  -4  10   27.90    7.40
  -2   4 -10 1456.15   66.89
  -2   4 -10 1314.77   67.69
  -2   4 -10 1463.05   70.09
   2  -4  10 1420.36   67.69
   2  -4  10 1283.77   71.09
  -3   4 -10   28.50    5.20
  -3   4 -10   23.00    6.40
  -3   4 -10   18.00    5.90
   3  -4  10   26.10    7.10
   3  -4  10   25.30    7.70
   3  -4  10   22.40    4.70
  -4   4 -10  820.92   45.00
  -4   4 -10  705.03   44.70
   4  -4  10  790.42   46.30
   4  -4  10  752.82   47.50
   4   3 -10  123.49   13.30
   4   3 -10  116.79   13.40
   4   3 -10   93.49   13.20
  -4  -3  10  108.59   15.00
   3   3 -10   27.30    6.90
   3   3 -10   25.50    6.00
   3   3 -10   21.70    6.70
  -3  -3  10   16.40    4.80
   2   3 -10  397.46   24.20
   2   3 -10  357.56   22.00
   2   3 -10  366.86   25.30
  -2  -3  10  390.86   23.30
  -2  -3  10  341.67   21.40
   1   3 -10   74.49    9.40
   1   3 -10   71.39   10.30
  -1  -3  10   67.29    9.70
  -1  -3  10   65.09    8.00
  -1  -3  10   70.39    5.80
   0   3 -10 1566.44   68.09
   0   3 -10 1526.35   72.29
   0   3 -10 1489.05   73.09
   0  -3  10 1495.75   69.99
   0  -3  10 1408.86   74.09
   0  -3  10 1664.53   75.49
  -1   3 -10   24.20    4.90
  -1   3 -10   26.40    6.00
  -1   3 -10   22.40    5.60
   1  -3  10   28.30    7.10
   1  -3  10   29.10    4.60
   1  -3  10   28.40    7.10
  -2   3 -10  151.48   12.80
  -2   3 -10  149.39   13.30
   2  -3  10  144.79   11.40
   2  -3  10  168.38   14.40
   2  -3  10  157.18   15.00
  -3   3 -10  405.96   27.30
  -3   3 -10  419.96   26.80
   3  -3  10  405.96   28.50
   3  -3  10  461.95   27.40
   3  -3  10  388.96   24.90
  -4   3 -10   14.50    4.90
  -4   3 -10   12.20    5.70
   4  -3  10   17.60    6.50
   5   2 -10   52.39    8.30
   5   2 -10   74.19   13.00
   5   2 -10   67.89   11.20
  -5  -2  10   79.99   14.20
   4   2 -10   34.30    6.60
   4   2 -10   29.10    8.10
   4   2 -10   26.60    7.20
  -4  -2  10   33.50    8.20
   3   2 -10  141.89   14.30
   3   2 -10  148.99   11.20
   3   2 -10  134.99   12.70
  -3  -2  10  134.89   16.00
  -3  -2  10  141.69    9.70
   2   2 -10  501.55   27.30
   2   2 -10  455.65   24.80
   2   2 -10  405.46   28.20
  -2  -2  10  467.35   23.30
  -2  -2  10  476.05   27.20
  -2  -2  10  443.36   25.20
   1   2 -10  515.95   25.90
   1   2 -10  501.55   28.00
   1   2 -10  455.15   22.60
  -1  -2  10  458.85   27.40
  -1  -2  10  537.05   26.20
  -1  -2  10  428.96   23.20
  -1  -2  10  550.04   29.60
   0   2 -10   60.69    5.90
   0   2 -10   81.89    9.00
   0   2 -10   55.49    9.10
   0  -2  10   60.19    9.90
   0  -2  10   62.49    5.10
   0  -2  10   70.79   10.20
  -1   2 -10  200.18   14.60
  -1   2 -10  210.08   14.10
   1  -2  10  188.58   16.30
   1  -2  10  203.28   12.90
   1  -2  10  214.48   16.50
  -2   2 -10   18.50    5.10
  -2   2 -10   23.40    5.90
   2  -2  10   24.70    6.80
   2  -2  10   31.10    5.00
   2  -2  10   10.40    4.80
  -3   2 -10   67.39   10.80
  -3   2 -10   42.90    8.80
   3  -2  10   57.19   10.40
   3  -2  10   76.09    9.70
   3  -2  10   62.99   10.30
  -4   2 -10  173.28   20.00
  -4   2 -10  174.68   16.70
   4  -2  10  193.38   16.80
   5   1 -10  427.86   30.60
   5   1 -10  380.36   25.50
   5   1 -10  437.06   25.20
  -5  -1  10  376.56   29.60
   4   1 -10  107.89   15.70
   4   1 -10  118.39   12.20
   4   1 -10  138.49   10.70
  -4  -1  10  135.39   17.40
   3   1 -10   30.50    8.20
   3   1 -10   40.40    5.90
   3   1 -10   56.79    8.90
  -3  -1  10   40.90    8.60
  -3  -1  10   43.10    4.40
   2   1 -10  166.08   12.50
   2   1 -10  126.29    8.80
   2   1 -10  134.79    9.40
  -2  -1  10  132.49   10.40
  -2  -1  10  153.98   12.10
  -2  -1  10  165.98   12.80
   1   1 -10   42.90    7.50
   1   1 -10   43.90    5.40
   1   1 -10   47.60    5.60
   1   1 -10   47.50    5.00
  -1  -1  10   46.50    3.00
  -1  -1  10   53.79    6.40
  -1  -1  10   47.10    8.00
  -1  -1  10   44.70    7.30
   0   1 -10  127.09    7.30
   0   1 -10  119.89    9.80
   0   1 -10  134.29    8.50
   0   1 -10  138.69    7.70
   0   1 -10  136.99    9.70
   0  -1  10  138.19   12.30
   0  -1  10  127.59   11.70
  -1   1 -10    1.40    1.90
  -1   1 -10    1.50    2.50
   1  -1  10    2.10    0.80
   1  -1  10   -4.00    2.50
   1  -1  10   -2.10    2.70
  -2   1 -10   12.80    4.90
  -2   1 -10    9.50    4.00
   2  -1  10    8.60    2.40
   2  -1  10   10.50    5.00
   2  -1  10   16.20    5.70
  -3   1 -10   33.20    6.90
  -3   1 -10   28.00    7.00
   3  -1  10   27.20    7.30
   3  -1  10   28.00    4.70
   3  -1  10   24.40    6.80
  -4   1 -10    2.90    2.50
  -4   1 -10    1.10    3.70
   4  -1  10    0.70    2.80
   4  -1  10   -0.20    2.50
   5   0 -10  154.38   12.20
   5   0 -10  161.18   16.70
  -5   0  10  142.19   20.00
   4   0 -10  203.98   15.70
   4   0 -10  219.88   19.00
   4   0 -10  242.98   14.60
  -4   0  10  223.68   19.50
   3   0 -10  199.18   14.00
   3   0 -10  171.98   11.10
   3   0 -10  191.98   16.20
  -3   0  10  203.38   14.40
  -3   0  10  180.98   15.60
  -3   0  10  182.88   11.90
   2   0 -10  187.08   10.30
   2   0 -10  200.58   14.20
   2   0 -10  180.08   10.00
  -2   0  10  214.58   15.00
  -2   0  10  186.28   12.90
  -2   0  10  186.08   14.10
   1   0 -10  157.88   11.90
   1   0 -10  181.78    9.80
   1   0 -10  154.18   12.80
   1   0 -10  182.18    9.20
  -1   0  10  188.58   11.90
  -1   0  10  178.28   13.30
  -1   0  10  182.58   14.10
   0   0 -10   15.60    3.40
   0   0 -10   14.00    2.60
   0   0 -10   16.90    2.90
   0   0 -10   10.90    3.90
   0   0  10   18.40    5.30
   0   0  10   15.10    1.40
   0   0  10   15.80    5.20
  -1   0 -10    2.30    2.30
  -1   0 -10    0.80    1.10
  -1   0 -10    4.40    3.20
   1   0  10    2.70    3.30
   1   0  10    6.30    4.10
  -2   0 -10  258.47   16.90
  -2   0 -10  243.58   18.30
   2   0  10  233.48   18.20
   2   0  10  233.98   14.80
   2   0  10  215.98   18.40
  -3   0 -10   15.30    4.50
  -3   0 -10   12.00    5.30
   3   0  10    7.90    4.90
   3   0  10   14.90    6.00
  -4   0 -10  377.86   27.00
  -4   0 -10  413.36   29.10
   4   0  10  363.46   27.00
   4   0  10  442.76   27.10
   5  -1 -10   29.70    5.30
   5  -1 -10   47.90   11.40
  -5   1  10   33.50    9.90
  -5   1  10   37.80   10.20
   4  -1 -10  330.47   23.70
   4  -1 -10  314.47   19.30
   4  -1 -10  328.87   17.80
  -4   1  10  282.47   23.50
  -4   1  10  271.17   24.00
   3  -1 -10    2.20    3.00
   3  -1 -10    0.10    4.00
   3  -1 -10    0.90    1.20
  -3   1  10    2.00    2.10
  -3   1  10    5.50    1.70
  -3   1  10   10.50    3.60
  -3   1  10    1.40    2.20
   2  -1 -10  348.47   23.10
   2  -1 -10  336.67   21.00
  -2   1  10  390.86   23.00
  -2   1  10  373.56   21.20
  -2   1  10  375.16   22.60
  -2   1  10  344.97   22.20
   1  -1 -10  243.38   15.10
   1  -1 -10  221.58   16.10
  -1   1  10  246.28   15.50
  -1   1  10  263.77   17.00
  -1   1  10  267.47   18.30
   0  -1 -10 1231.08   62.89
   0  -1 -10 1301.87   58.69
   0  -1 -10 1272.87   58.29
   0  -1 -10 1325.17   59.59
   0   1  10 1289.97   65.29
   0   1  10 1350.26   63.89
  -1  -1 -10   18.20    5.80
  -1  -1 -10   25.80    4.80
  -1  -1 -10   20.40    3.40
   1   1  10   22.40    3.20
   1   1  10   16.80    6.30
   1   1  10   27.10    6.80
  -2  -1 -10  771.42   44.00
  -2  -1 -10  815.82   41.20
   2   1  10  766.82   45.30
   2   1  10  809.92   43.50
  -3  -1 -10    0.70    3.40
  -3  -1 -10    7.90    3.40
   3   1  10   -3.30    3.20
   3   1  10    7.80    5.00
  -4  -1 -10    2.00    4.00
  -4  -1 -10    1.70    2.70
   4   1  10    1.30    4.30
   4   1  10    4.50    4.60
   5  -2 -10    3.20    2.30
   5  -2 -10   22.20    6.70
  -5   2  10    2.20    1.80
  -5   2  10    9.70    5.60
   4  -2 -10 1367.16   68.79
   4  -2 -10 1464.55   67.59
   4  -2 -10 1547.05   75.29
  -4   2  10 1431.76   78.29
  -4   2  10 1382.46   76.59
  -4   2  10 1673.53   71.09
   3  -2 -10  114.89   11.80
   3  -2 -10  123.79    9.90
   3  -2 -10  113.99    6.40
  -3   2  10  116.89   14.90
  -3   2  10  123.79    9.50
  -3   2  10  110.69   11.80
  -3   2  10  111.99   10.00
   2  -2 -10  978.20   51.39
   2  -2 -10 1061.59   53.59
  -2   2  10 1085.09   53.69
  -2   2  10 1033.60   53.89
  -2   2  10 1084.79   54.09
  -2   2  10 1163.58   52.79
   1  -2 -10   36.40    5.90
   1  -2 -10   41.90    7.40
  -1   2  10   36.60    7.60
  -1   2  10   45.00    7.00
  -1   2  10   36.20    6.80
   0  -2 -10 1049.30   55.39
   0  -2 -10 1114.59   49.80
   0  -2 -10 1099.29   51.89
   0   2  10 1094.19   54.99
   0   2  10 1079.59   57.19
  -1  -2 -10  252.57   19.10
  -1  -2 -10  264.47   15.20
  -1  -2 -10  242.78   15.10
   1   2  10  226.98   19.50
   1   2  10  241.88   18.00
  -2  -2 -10    6.40    3.30
  -2  -2 -10    1.80    3.20
  -2  -2 -10    0.50    2.30
   2   2  10    1.70    5.00
   2   2  10    4.40    4.50
  -3  -2 -10 1074.09   57.19
  -3  -2 -10 1120.39   61.09
   3   2  10 1001.70   61.09
   3   2  10 1226.58   58.39
  -4  -2 -10   25.10    8.20
  -4  -2 -10   14.90    4.50
   4   2  10   12.00    6.70
   4   2  10   11.20    4.60
   5  -3 -10   29.70    5.10
  -5   3  10   33.10    9.60
  -5   3  10   30.90    9.70
   4  -3 -10  410.36   26.30
   4  -3 -10  352.96   19.60
  -4   3  10  390.76   28.70
  -4   3  10  374.66   27.90
   3  -3 -10    1.70    2.60
   3  -3 -10    3.70    0.90
   3  -3 -10    1.10    3.30
  -3   3  10    4.40    2.20
  -3   3  10    3.30    1.60
  -3   3  10    4.40    2.90
  -3   3  10    4.80    2.30
   2  -3 -10  139.99   12.00
   2  -3 -10  140.99   11.90
  -2   3  10  138.39   11.70
  -2   3  10  174.78   12.90
  -2   3  10  149.99   13.00
  -2   3  10  131.59   15.00
   1  -3 -10  634.04   34.70
   1  -3 -10  635.54   29.70
   1  -3 -10  624.44   37.00
   1  -3 -10  689.83   29.60
  -1   3  10  747.33   35.10
  -1   3  10  595.34   37.40
  -1   3  10  676.43   36.10
   0  -3 -10  744.03   42.60
   0  -3 -10  811.62   36.50
   0  -3 -10  776.12   39.20
   0   3  10  705.93   43.50
   0   3  10  786.52   41.60
  -1  -3 -10  694.73   35.70
  -1  -3 -10  734.63   35.40
  -1  -3 -10  676.83   40.50
   1   3  10  718.73   39.00
   1   3  10  629.94   41.50
  -2  -3 -10  299.27   19.20
  -2  -3 -10  298.87   24.00
  -2  -3 -10  325.17   20.70
   2   3  10  354.26   23.20
   2   3  10  328.27   26.30
  -3  -3 -10  231.78   21.20
  -3  -3 -10  222.18   17.90
   3   3  10  257.67   19.30
   3   3  10  230.78   22.90
   5  -4 -10  103.19    8.60
   5  -4 -10  122.39   16.40
  -5   4  10  116.09   19.00
  -5   4  10   87.49   16.60
   4  -4 -10    4.60    3.50
   4  -4 -10    3.30    1.40
  -4   4  10    2.50    2.50
  -4   4  10   11.40    4.90
   3  -4 -10 1231.78   54.79
   3  -4 -10 1227.38   60.89
   3  -4 -10 1252.17   59.49
   3  -4 -10 1158.28   62.39
  -3   4  10 1207.48   61.59
  -3   4  10 1288.77   65.59
  -3   4  10 1315.17   65.69
   2  -4 -10   28.50    5.70
   2  -4 -10   31.10    2.20
   2  -4 -10   24.10    5.70
  -2   4  10   31.90    6.80
  -2   4  10   31.10    6.60
  -2   4  10   35.50    7.00
  -2   4  10   31.40    7.30
   1  -4 -10 1110.19   58.09
   1  -4 -10 1052.89   54.69
   1  -4 -10 1034.10   49.20
  -1   4  10 1167.98   54.79
  -1   4  10 1065.89   58.49
  -1   4  10 1176.98   56.39
   0  -4 -10    7.20    3.30
   0  -4 -10    5.20    4.00
   0   4  10   11.50    5.10
   0   4  10    9.50    4.90
  -1  -4 -10  147.49   12.30
  -1  -4 -10  141.99   17.70
   1   4  10  159.18   20.70
   1   4  10  154.58   14.30
  -2  -4 -10   72.49   10.50
  -2  -4 -10   59.19   12.10
  -2  -4 -10   87.49   10.70
   2   4  10   77.29   15.10
   2   4  10   77.19   11.60
  -3  -4 -10  433.66   33.00
  -3  -4 -10  481.65   30.30
   3   4  10  394.26   34.70
   3   4  10  580.14   31.90
  -5   5  10  104.09   18.30
  -5   5  10  110.69   18.00
   4  -5 -10  133.69    9.00
   4  -5 -10  103.59   14.40
  -4   5  10  132.69   19.30
  -4   5  10  135.49   19.80
   3  -5 -10   18.30    2.80
   3  -5 -10   15.50    4.70
  -3   5  10    9.50    4.50
  -3   5  10   26.70    7.00
  -3   5  10   14.70    4.00
   2  -5 -10  321.57   22.20
   2  -5 -10  332.47   16.60
  -2   5  10  299.67   22.90
  -2   5  10  362.16   23.60
   1  -5 -10  334.47   25.30
   1  -5 -10  367.56   18.80
   1  -5 -10  344.07   23.10
  -1   5  10  370.26   23.30
  -1   5  10  395.56   24.70
  -1   5  10  332.17   25.70
   0  -5 -10   26.00    4.60
   0  -5 -10   30.30    6.60
   0  -5 -10   20.90    6.90
   0   5  10   29.10    8.10
   0   5  10   24.50    7.40
  -1  -5 -10  845.02   51.09
  -1  -5 -10  869.51   46.40
   1   5  10  871.41   54.19
   1   5  10  935.81   49.00
  -2  -5 -10   38.50    7.80
  -2  -5 -10   28.00    7.60
  -2  -5 -10   34.00    6.90
   2   5  10   33.40   10.90
   2   5  10   35.30    8.90
   5  -6 -10   17.80    5.10
  -5   6  10   19.80    7.10
  -5   6  10   16.30    6.10
   4  -6 -10   10.00    4.20
  -4   6  10    7.20    5.00
  -4   6  10    3.00    2.00
   3  -6 -10  163.08   10.30
   3  -6 -10  153.18   17.60
  -3   6  10  191.38   17.40
  -3   6  10  185.88   21.50
  -3   6  10  161.28   14.40
   2  -6 -10   40.00    4.90
   2  -6 -10   38.70    7.90
  -2   6  10   43.00    8.50
  -2   6  10   41.90    9.10
   1  -6 -10  375.16   25.20
   1  -6 -10  385.96   28.00
   1  -6 -10  365.56   20.60
  -1   6  10  403.56   26.00
  -1   6  10  377.26   28.30
   0  -6 -10   31.60    5.30
   0  -6 -10   20.40    6.20
   0  -6 -10   27.60    8.20
   0   6  10   21.30    7.30
  -1  -6 -10  239.48   21.30
  -1  -6 -10  222.58   16.10
  -1  -6 -10  252.07   18.80
   1   6  10  256.97   25.10
   4  -7 -10  195.48   17.50
  -4   7  10  211.28   21.30
  -4   7  10  205.68   25.30
   3  -7 -10   11.90    3.30
   3  -7 -10   22.10    6.00
  -3   7  10    6.00    2.30
  -3   7  10   22.90    7.00
   2  -7 -10   23.60    5.60
   2  -7 -10   17.00    5.80
   2  -7 -10    7.90    2.40
  -2   7  10   18.30    5.60
  -2   7  10    8.00    3.20
   1  -7 -10   39.50    8.40
   1  -7 -10   45.40    6.60
   1  -7 -10   46.30   10.20
  -1   7  10   47.90    9.40
  -1   7  10   41.10    9.40
   0  -7 -10  126.59   10.30
   0  -7 -10  115.19   14.80
   0  -7 -10  128.59   17.80
   0   7  10   81.79   15.60
   2  -8 -10   55.79   10.70
   2  -8 -10   54.29    7.10
   2  -8 -10   67.19   12.70
  -2   8  10   61.79   12.30
  -2   8  10   45.20   10.00
  -1   8  10  107.19   12.10
   1   7 -11  579.44   36.30
   1   7 -11  606.04   36.80
   1   7 -11  545.85   35.60
  -1  -7  11  595.34   36.30
   0   7 -11   -0.60    2.20
   0   7 -11    8.50    4.60
   0  -7  11    5.80    3.30
  -1   7 -11  422.56   29.40
  -1   7 -11  427.56   27.40
   1  -7  11  437.66   31.70
  -2   7 -11  219.88   18.40
  -2   7 -11  205.08   16.30
   2  -7  11  196.08   20.60
   2   6 -11   43.70    9.30
   2   6 -11   53.99    9.60
   2   6 -11   48.10    8.90
  -2  -6  11   49.80    8.50
  -2  -6  11   45.20    8.10
   1   6 -11   80.69   12.30
   1   6 -11   83.69   12.20
  -1  -6  11   99.59   13.70
   0   6 -11  167.28   14.70
   0   6 -11  183.38   19.30
   0  -6  11  153.88   15.40
  -1   6 -11    5.10    2.60
  -1   6 -11    4.80    3.30
   1  -6  11    1.50    2.70
  -2   6 -11  166.68   19.50
  -2   6 -11  194.18   15.10
   2  -6  11  164.08   22.50
  -3   6 -11  144.99   12.40
  -3   6 -11  194.28   22.00
   3  -6  11  134.19   20.50
   3   5 -11   57.39    9.80
   3   5 -11   41.40    8.90
   3   5 -11   68.09   11.10
  -3  -5  11   53.79    9.70
   2   5 -11   82.19   12.80
   2   5 -11   63.99   11.60
   2   5 -11   73.89   10.80
  -2  -5  11   66.39   10.10
  -2  -5  11   66.69    9.70
   1   5 -11   14.60    4.90
   1   5 -11    9.30    4.40
   0   5 -11   93.49   12.40
   0   5 -11  100.19   13.00
   0  -5  11   74.89   12.60
  -1   5 -11  111.59   14.30
  -1   5 -11  114.09   10.90
   1  -5  11  130.19   17.50
  -2   5 -11  164.88   13.70
  -2   5 -11  184.68   15.90
   2  -5  11  153.88   20.40
  -3   5 -11   80.99   13.20
  -3   5 -11   89.89    9.00
   3  -5  11   90.99   16.20
   4   4 -11   66.69   12.20
   4   4 -11   84.69   13.20
   4   4 -11   67.69   10.80
  -4  -4  11   64.39   11.70
   3   4 -11  457.95   27.30
   3   4 -11  401.16   28.20
   3   4 -11  439.86   30.10
  -3  -4  11  415.66   27.90
   2   4 -11    2.70    3.60
   2   4 -11    2.90    3.70
   2   4 -11   13.80    4.70
  -2  -4  11   12.50    3.10
  -2  -4  11    4.30    1.90
   1   4 -11  242.18   16.90
   1   4 -11  241.38   17.70
  -1  -4  11  211.48   14.50
  -1  -4  11  211.68   16.70
   0   4 -11   32.50    7.00
   0   4 -11   34.30    6.90
   0  -4  11   25.30    7.00
  -1   4 -11   26.40    6.00
  -1   4 -11   24.30    6.50
   1  -4  11   20.70    6.90
   1  -4  11   21.50    4.00
  -2   4 -11   17.30    5.00
  -2   4 -11    5.40    3.00
  -2   4 -11   12.50    3.30
   2  -4  11    6.40    5.10
   2  -4  11   10.50    6.00
  -3   4 -11   11.00    2.00
  -3   4 -11    6.90    3.70
  -3   4 -11    1.90    3.10
   3  -4  11    3.90    4.90
   3  -4  11    7.80    5.10
  -4   4 -11    3.70    3.40
  -4   4 -11    5.10    3.30
   4  -4  11    1.20    4.70
   4   3 -11   54.29   10.30
   4   3 -11   69.59   11.80
   4   3 -11   70.39   10.20
  -4  -3  11   63.19   11.70
   3   3 -11    5.60    4.00
   3   3 -11    0.50    2.40
   3   3 -11   -0.70    4.20
  -3  -3  11    8.10    3.30
   2   3 -11  202.98   15.90
   2   3 -11  199.38   14.10
   2   3 -11  169.08   16.00
  -2  -3  11  173.08   13.40
  -2  -3  11  178.98   14.10
   1   3 -11  151.48   13.10
   1   3 -11  129.79   11.30
  -1  -3  11  123.29   11.80
  -1  -3  11  148.29   10.50
   0   3 -11    6.20    3.70
   0   3 -11    9.00    3.60
   0  -3  11    3.50    1.10
   0  -3  11    7.90    4.60
   0  -3  11   10.60    3.80
  -1   3 -11  674.43   39.70
  -1   3 -11  767.32   37.60
  -1   3 -11  661.93   39.10
   1  -3  11  705.63   42.30
   1  -3  11  779.02   37.90
   1  -3  11  877.71   43.30
  -2   3 -11    4.60    3.60
  -2   3 -11    8.90    4.10
   2  -3  11    1.60    4.00
   2  -3  11   10.50    5.90
  -3   3 -11  512.35   33.70
  -3   3 -11  560.44   33.60
   3  -3  11  543.65   35.80
   3  -3  11  614.34   34.80
  -4   3 -11  210.88   19.30
  -4   3 -11  247.38   20.30
   4  -3  11  245.68   21.00
   5   2 -11   73.99   10.40
   5   2 -11   72.59   11.00
   5   2 -11  129.19   18.40
  -5  -2  11   78.49   13.60
   4   2 -11  150.78   15.20
   4   2 -11  129.39   11.10
   4   2 -11   98.19   13.10
  -4  -2  11  114.19   16.20
   3   2 -11  592.14   37.30
   3   2 -11  654.33   35.20
   3   2 -11  614.04   32.20
  -3  -2  11  565.44   30.90
  -3  -2  11  614.74   36.20
   2   2 -11  167.98   13.80
   2   2 -11  129.09   10.70
  -2  -2  11  149.59   11.60
  -2  -2  11  151.98   12.40
   1   2 -11  884.41   45.10
   1   2 -11  862.21   41.80
  -1  -2  11  764.02   43.90
  -1  -2  11  815.22   41.50
  -1  -2  11  960.20   46.90
   0   2 -11  181.38   12.30
   0   2 -11  197.38   13.60
   0   2 -11  189.28   15.10
   0  -2  11  183.58   15.50
   0  -2  11  208.88   16.60
   0  -2  11  209.08   12.20
  -1   2 -11    3.20    3.00
  -1   2 -11    2.00    2.50
   1  -2  11    0.30    3.70
   1  -2  11    3.10    1.00
   1  -2  11    9.20    4.80
  -2   2 -11  307.37   21.10
  -2   2 -11  308.07   21.00
   2  -2  11  300.57   23.40
   2  -2  11  368.96   24.10
  -3   2 -11   10.90    5.70
  -3   2 -11   13.70    4.50
   3  -2  11   20.80    7.00
   3  -2  11   23.30    7.20
  -4   2 -11  361.06   26.30
  -4   2 -11  328.27   25.40
   4  -2  11  375.56   26.50
   5   1 -11  315.97   22.80
   5   1 -11  345.37   21.60
   5   1 -11  380.26   28.30
  -5  -1  11  338.97   27.60
   4   1 -11   86.99   14.40
   4   1 -11   59.79    7.80
   4   1 -11   71.49   10.50
  -4  -1  11   45.20    9.60
   3   1 -11  484.85   31.10
   3   1 -11  513.65   28.20
   3   1 -11  458.95   24.60
  -3  -1  11  396.46   28.40
  -3  -1  11  462.65   24.90
   2   1 -11  592.34   28.70
   2   1 -11  600.74   32.50
   2   1 -11  502.55   28.10
  -2  -1  11  663.53   34.40
  -2  -1  11  612.14   32.80
  -2  -1  11  561.14   31.10
   1   1 -11  150.28   10.90
   1   1 -11  180.18   11.10
   1   1 -11  175.88   14.10
  -1  -1  11  180.08   11.60
  -1  -1  11  157.58   13.20
  -1  -1  11  206.48   15.50
   0   1 -11 3128.39  135.59
   0   1 -11 3102.89  132.59
   0   1 -11 2809.62  135.99
   0  -1  11 2914.81  139.59
   0  -1  11 3277.67  141.39
  -1   1 -11    7.80    3.40
  -1   1 -11    8.90    4.20
   1  -1  11    6.60    4.60
   1  -1  11   10.20    5.10
  -2   1 -11 1616.94   77.29
  -2   1 -11 1498.85   75.49
   2  -1  11 1615.44   79.29
   2  -1  11 1573.44   78.99
  -3   1 -11  152.58   16.70
  -3   1 -11  145.99   14.60
   3  -1  11  118.49   15.70
   3  -1  11  141.19   17.40
  -4   1 -11  250.87   21.00
  -4   1 -11  227.38   19.70
   4  -1  11  235.68   19.60
   4  -1  11  238.78   19.80
   5   0 -11   55.39    7.70
   5   0 -11   47.20   11.10
  -5   0  11   39.70    9.50
   4   0 -11  389.56   27.60
   4   0 -11  372.36   21.10
   4   0 -11  377.56   23.90
  -4   0  11  397.96   28.30
   3   0 -11   77.89    6.40
   3   0 -11   96.59    9.80
   3   0 -11  103.69   14.30
  -3   0  11   99.79   13.50
  -3   0  11   89.39    7.50
  -3   0  11   99.49    9.90
   2   0 -11 1168.68   56.19
   2   0 -11 1112.49   50.69
   2   0 -11 1042.60   53.89
  -2   0  11 1171.48   56.79
  -2   0  11 1111.09   55.19
  -2   0  11 1234.08   58.09
   1   0 -11  548.15   30.50
   1   0 -11  618.34   27.20
   1   0 -11  548.85   31.90
   1   0 -11  591.44   27.20
  -1   0  11  587.64   32.40
  -1   0  11  559.94   29.80
  -1   0  11  585.74   33.70
   0   0 -11  569.54   27.30
   0   0 -11  546.75   30.90
   0   0 -11  596.14   28.40
   0   0  11  547.85   32.50
   0   0  11  558.04   33.50
  -1   0 -11  121.99   11.90
  -1   0 -11  146.39   10.70
   1   0  11  133.19   13.60
   1   0  11  127.79   12.90
  -2   0 -11   21.80    6.50
  -2   0 -11   18.70    5.40
   2   0  11   25.10    7.60
   2   0  11   19.60    6.90
  -3   0 -11   49.90    9.20
  -3   0 -11   46.60    9.60
   3   0  11   39.10    9.40
   3   0  11   55.89   10.30
  -4   0 -11  537.85   36.70
  -4   0 -11  607.54   39.10
   4   0  11  593.94   38.30
   4   0  11  686.13   37.80
   5  -1 -11   -1.70    1.60
   5  -1 -11    2.80    1.90
  -5   1  11    4.80    3.90
  -5   1  11    8.10    4.40
   4  -1 -11 1017.60   45.90
   4  -1 -11 1014.90   54.09
   4  -1 -11 1044.80   49.00
  -4   1  11  873.81   53.89
  -4   1  11  831.22   54.79
   3  -1 -11    6.90    3.70
   3  -1 -11   12.60    2.00
   3  -1 -11   10.30    5.80
  -3   1  11   12.10    3.10
  -3   1  11   14.40    5.50
  -3   1  11    5.40    2.70
  -3   1  11    8.80    3.00
   2  -1 -11    7.40    3.30
   2  -1 -11   11.20    5.30
   2  -1 -11   10.60    4.10
  -2   1  11    7.50    2.10
  -2   1  11   10.20    3.90
  -2   1  11   10.50    3.80
  -2   1  11   15.90    4.10
   1  -1 -11    3.20    2.70
   1  -1 -11   -1.80    1.20
  -1   1  11    2.20    2.80
  -1   1  11    3.20    1.70
  -1   1  11    0.30    2.50
   0  -1 -11  363.06   23.20
   0  -1 -11  369.16   19.70
   0  -1 -11  371.76   19.10
   0   1  11  342.67   23.30
   0   1  11  373.86   25.20
  -1  -1 -11  112.09    9.30
  -1  -1 -11  124.59   14.70
   1   1  11  115.19   15.40
   1   1  11  128.89   12.40
  -2  -1 -11  886.61   50.99
  -2  -1 -11  934.41   48.00
   2   1  11 1028.10   51.79
   2   1  11  930.11   53.29
  -3  -1 -11  234.98   17.90
  -3  -1 -11  238.88   20.30
   3   1  11  212.68   20.30
   3   1  11  221.68   18.50
   5  -2 -11   17.10    2.90
   5  -2 -11   24.60    7.30
  -5   2  11    4.80    3.70
  -5   2  11   13.10    5.70
   4  -2 -11  220.68   18.90
   4  -2 -11  215.18   12.80
  -4   2  11  261.67   16.50
  -4   2  11  226.18   20.30
  -4   2  11  222.08   20.30
   3  -2 -11    0.50    2.60
   3  -2 -11    0.70    3.80
  -3   2  11    7.60    3.00
  -3   2  11    4.70    3.10
  -3   2  11    3.70    1.60
  -3   2  11    1.90    1.50
   2  -2 -11  133.09   12.80
   2  -2 -11  135.49   11.90
  -2   2  11  177.38   13.70
  -2   2  11  147.09   12.10
  -2   2  11  156.88   13.60
  -2   2  11  173.58   12.90
   1  -2 -11  111.89   11.40
   1  -2 -11  128.49   10.40
  -1   2  11  134.19   10.90
  -1   2  11  134.89   13.00
  -1   2  11  137.89   11.90
   0  -2 -11 1120.49   59.19
   0  -2 -11 1137.09   52.89
   0  -2 -11 1194.88   55.19
   0   2  11 1114.19   60.99
   0   2  11 1229.08   59.39
  -1  -2 -11    4.10    2.30
  -1  -2 -11   11.50    3.30
  -1  -2 -11   -0.40    2.50
   1   2  11    4.40    4.10
   1   2  11    4.80    4.60
  -2  -2 -11  315.87   20.50
  -2  -2 -11  297.77   23.60
   2   2  11  319.37   25.80
   2   2  11  345.07   23.50
  -3  -2 -11  217.58   17.80
  -3  -2 -11  243.48   21.30
   3   2  11  266.87   20.20
   3   2  11  245.58   22.70
   5  -3 -11   52.49   10.60
  -5   3  11   55.69   13.20
  -5   3  11   49.40   11.60
   4  -3 -11  129.29   13.30
  -4   3  11  115.39    9.90
  -4   3  11   88.39   14.60
  -4   3  11  131.49   19.00
   3  -3 -11   31.60    7.50
   3  -3 -11   36.90    5.90
  -3   3  11   27.50    6.70
  -3   3  11   29.70    6.30
  -3   3  11   25.40    5.20
  -3   3  11   30.00    7.90
   2  -3 -11  468.85   28.00
   2  -3 -11  477.75   28.10
  -2   3  11  491.95   30.10
  -2   3  11  472.95   29.40
  -2   3  11  485.75   28.40
  -2   3  11  496.05   28.20
   1  -3 -11  357.76   21.80
   1  -3 -11  352.26   24.10
  -1   3  11  339.27   24.70
  -1   3  11  374.66   23.40
   0  -3 -11   49.70    5.60
   0  -3 -11   56.99   10.10
   0  -3 -11   38.30    6.30
   0   3  11   36.70    7.70
   0   3  11   48.20    9.70
  -1  -3 -11  163.08   12.20
  -1  -3 -11  141.49   14.90
  -1  -3 -11  170.98   12.00
   1   3  11  176.38   18.00
   1   3  11  179.68   15.70
  -2  -3 -11   25.80    8.60
  -2  -3 -11   46.20    7.70
   2   3  11   32.40   10.30
   2   3  11   29.60    7.70
  -3  -3 -11  244.48   19.00
  -3  -3 -11  240.28   22.00
   3   3  11  284.17   20.90
   3   3  11  213.48   22.90
   5  -4 -11  100.89   14.80
  -5   4  11   88.49   16.40
  -5   4  11   74.59   15.20
   4  -4 -11   36.40    7.80
  -4   4  11   56.49   11.90
  -4   4  11   60.09   11.90
   3  -4 -11  179.88   14.70
   3  -4 -11  142.99   12.60
  -3   4  11  135.09   17.20
  -3   4  11  163.28   13.60
  -3   4  11  147.59   14.20
   2  -4 -11  104.19   12.60
   2  -4 -11  109.49   10.00
  -2   4  11  109.39   11.00
  -2   4  11  107.69   11.80
  -2   4  11  122.19   14.90
  -2   4  11  131.59   11.30
   1  -4 -11    4.20    3.50
   1  -4 -11    2.00    2.50
  -1   4  11   10.90    4.40
  -1   4  11    7.70    4.30
   0  -4 -11    7.10    3.40
   0  -4 -11   13.00    3.30
   0  -4 -11   14.00    5.40
   0   4  11   18.90    6.20
   0   4  11   14.80    6.00
  -1  -4 -11   44.30    6.80
  -1  -4 -11   23.70    7.10
  -1  -4 -11   31.70    6.30
   1   4  11   25.00    9.00
   1   4  11   36.80    8.60
  -2  -4 -11   30.00    6.30
  -2  -4 -11   23.10    8.10
   2   4  11   22.40    9.50
   2   4  11   32.60    8.20
  -5   5  11    5.00    3.50
  -5   5  11    1.70    2.60
   4  -5 -11  164.58   19.00
  -4   5  11  207.88   19.20
  -4   5  11  156.48   20.80
   3  -5 -11   30.90    6.50
  -3   5  11   47.60   10.70
  -3   5  11   36.30    8.00
  -3   5  11   36.70    7.60
   2  -5 -11  171.68   15.10
  -2   5  11  209.08   16.20
  -2   5  11  184.18   15.70
  -2   5  11  173.38   16.30
   1  -5 -11   -0.40    2.30
   1  -5 -11   12.30    5.10
   1  -5 -11    6.80    1.90
  -1   5  11   -0.90    3.00
  -1   5  11    2.30    3.00
   0  -5 -11   37.90    7.60
   0  -5 -11   42.80    9.60
   0   5  11   34.90    9.80
   0   5  11   42.90    9.00
  -1  -5 -11    5.50    3.70
  -1  -5 -11    0.50    3.30
   1   5  11    2.70    3.80
   1   5  11    0.80    5.20
  -2  -5 -11   51.39    8.40
  -2  -5 -11   37.30   10.00
   2   5  11   49.80   14.00
   2   5  11   56.69   11.30
   4  -6 -11  107.29   14.80
  -4   6  11  112.99   18.60
  -4   6  11  109.39   17.60
   3  -6 -11   11.10    4.00
  -3   6  11    2.70    4.10
  -3   6  11    6.90    2.90
  -3   6  11    9.60    3.70
   2  -6 -11   87.49   12.20
   2  -6 -11   94.79   14.90
  -2   6  11   76.19   12.90
   1  -6 -11   39.10    7.90
   1  -6 -11   27.80    4.20
   1  -6 -11   31.70    8.00
  -1   6  11   39.50    9.80
   0  -6 -11  280.67   24.20
   0  -6 -11  323.67   22.10
   0   6  11  293.17   26.30
  -1  -6 -11   28.90    7.20
  -1  -6 -11   17.50    6.10
   1   6  11   36.80   12.10
   3  -7 -11   53.29    9.50
  -3   7  11   39.50    8.40
  -3   7  11   72.99   12.90
   2  -7 -11  448.26   33.70
   2  -7 -11  452.85   31.10
  -2   7  11  546.05   33.90
  -2   7  11  492.65   34.30
   1  -7 -11    4.70    3.50
   1  -7 -11    2.20    1.50
   1  -7 -11    3.70    3.40
  -1   7  11   14.20    6.00
   0  -7 -11  425.16   25.20
   0  -7 -11  413.86   32.20
   0  -7 -11  486.15   30.00
   0   7  11  463.45   35.80
   1   7 -12   11.90    2.60
   1   7 -12   10.20    4.50
   1   7 -12   19.60    5.70
  -1  -7  12   18.20    5.30
   0   7 -12   12.40    4.90
   0   7 -12   11.10    4.70
   0  -7  12    5.90    3.80
  -1   7 -12  293.17   22.50
  -1   7 -12  278.87   20.70
   1  -7  12  260.47   23.50
   2   6 -12  216.38   19.40
   2   6 -12  215.28   18.80
   2   6 -12  256.87   20.60
   1   6 -12   26.80    7.20
   1   6 -12   13.00    4.40
  -1  -6  12   18.90    5.80
   0   6 -12  446.76   28.60
   0   6 -12  431.86   27.80
   0  -6  12  399.16   29.10
  -1   6 -12  204.58   16.50
  -1   6 -12  191.88   20.70
   1  -6  12  193.78   19.00
  -2   6 -12  138.99   12.40
  -2   6 -12  169.38   20.20
   2  -6  12  138.39   20.20
   3   5 -12   16.90    5.40
   3   5 -12   21.30    5.50
   3   5 -12   12.20    5.20
  -3  -5  12   13.50    3.20
   2   5 -12   69.09   11.10
   2   5 -12   76.79   12.60
   2   5 -12   54.69    9.50
  -2  -5  12   72.19    9.80
  -2  -5  12   53.09    8.50
   1   5 -12  239.08   18.40
   1   5 -12  214.48   17.10
  -1  -5  12  216.78   17.70
   0   5 -12    4.00    2.70
   0   5 -12    9.50    4.80
   0  -5  12    7.50    4.30
  -1   5 -12 1182.28   62.59
  -1   5 -12 1271.97   62.49
   1  -5  12 1176.58   65.49
  -2   5 -12   11.60    4.90
  -2   5 -12    9.10    2.20
   2  -5  12   11.80    6.60
  -3   5 -12  537.15   34.80
  -3   5 -12  544.35   32.50
   3  -5  12  527.75   37.40
   3   4 -12 1596.34   77.99
   3   4 -12 1462.35   71.49
   3   4 -12 1350.26   73.19
  -3  -4  12 1355.96   72.99
   2   4 -12   57.89   11.10
   2   4 -12   53.09   10.10
   2   4 -12   59.79    9.50
  -2  -4  12   52.79    8.70
  -2  -4  12   64.79    9.40
   1   4 -12 1463.15   68.79
   1   4 -12 1367.26   66.49
  -1  -4  12 1235.58   67.39
   0   4 -12   25.60    6.30
   0   4 -12   23.70    6.20
   0  -4  12   17.50    6.40
  -1   4 -12  253.77   18.70
  -1   4 -12  279.87   19.60
   1  -4  12  250.37   21.10
  -2   4 -12    6.30    3.00
  -2   4 -12    7.40    2.60
   2  -4  12   -1.30    4.70
   2  -4  12    1.90    4.90
  -3   4 -12   13.70    4.40
  -3   4 -12    5.40    3.70
   3  -4  12    2.90    5.10
   3  -4  12   10.00    6.40
   4   3 -12  203.08   15.50
   4   3 -12  216.18   19.00
   4   3 -12  191.78   17.20
  -4  -3  12  169.18   21.20
   3   3 -12   96.29   11.80
   3   3 -12  135.79   16.40
   3   3 -12  137.39   14.40
  -3  -3  12  130.59   16.20
   2   3 -12    5.20    3.00
   2   3 -12   -4.40    2.80
   2   3 -12    1.50    3.80
  -2  -3  12    5.20    1.80
  -2  -3  12    4.10    1.90
   1   3 -12   29.30    6.00
   1   3 -12   22.00    6.70
  -1  -3  12   24.50    6.20
   0   3 -12   53.29    8.10
   0   3 -12   44.30    8.10
   0  -3  12   44.60    9.60
   0  -3  12   45.40    9.60
  -1   3 -12  616.54   37.70
  -1   3 -12  736.83   38.10
  -1   3 -12  634.44   35.70
   1  -3  12  797.72   41.80
   1  -3  12  666.93   40.70
  -2   3 -12  413.76   28.40
  -2   3 -12  486.65   29.90
  -2   3 -12  469.95   28.30
   2  -3  12  597.54   33.30
   2  -3  12  458.05   32.40
  -3   3 -12  671.33   38.70
  -3   3 -12  615.04   38.70
   3  -3  12  660.03   41.70
   3  -3  12  697.93   40.10
   4   2 -12   44.20    7.40
   4   2 -12   43.20   10.50
   4   2 -12   29.40    7.90
  -4  -2  12   51.99    9.90
   3   2 -12   10.60    3.90
   3   2 -12   10.60    5.60
   3   2 -12    9.40    5.00
  -3  -2  12   14.10    4.60
  -3  -2  12   12.70    2.50
   2   2 -12  296.57   20.60
   2   2 -12  307.37   17.90
  -2  -2  12  269.97   18.70
  -2  -2  12  295.17   19.60
   1   2 -12  828.42   44.00
   1   2 -12  800.42   40.20
  -1  -2  12  864.01   45.60
  -1  -2  12  766.72   43.30
   0   2 -12  328.17   19.60
   0   2 -12  303.17   21.60
   0   2 -12  299.57   18.20
   0  -2  12  330.07   22.90
   0  -2  12  367.46   24.00
  -1   2 -12  337.47   21.80
  -1   2 -12  329.47   21.30
   1  -2  12  405.16   26.10
   1  -2  12  359.46   25.50
  -2   2 -12   56.79    9.30
  -2   2 -12   52.19    9.10
   2  -2  12   56.69   11.40
   2  -2  12   52.39   10.50
  -3   2 -12  182.48   16.40
  -3   2 -12  193.88   17.40
   3  -2  12  231.18   20.10
   3  -2  12  237.68   19.40
   5   1 -12   25.90    5.30
   5   1 -12   30.00    7.70
  -5  -1  12   33.80    8.70
   4   1 -12   24.00    7.90
   4   1 -12   13.80    3.80
   4   1 -12   15.30    6.20
  -4  -1  12   16.90    5.70
   3   1 -12  365.56   26.90
   3   1 -12  359.76   20.10
   3   1 -12  410.56   24.60
  -3  -1  12  328.37   24.40
  -3  -1  12  367.06   21.20
   2   1 -12   56.59    9.20
   2   1 -12   49.70    5.80
  -2  -1  12   64.49   10.20
  -2  -1  12   40.40    7.20
  -2  -1  12   36.10    6.50
   1   1 -12  164.48   11.90
   1   1 -12  185.18   11.70
   1   1 -12  205.78   15.60
  -1  -1  12  199.28   15.30
  -1  -1  12  199.48   16.30
  -1  -1  12  184.58   12.00
   0   1 -12  164.88   13.10
   0   1 -12  203.18   13.10
   0   1 -12  169.78   14.90
   0  -1  12  219.28   17.50
   0  -1  12  211.58   16.70
  -1   1 -12   62.69    8.70
  -1   1 -12   43.40    7.70
   1  -1  12   43.80    9.70
   1  -1  12   51.39   10.40
  -2   1 -12  444.16   28.40
  -2   1 -12  490.75   30.40
   2  -1  12  530.45   33.10
   2  -1  12  514.45   32.80
  -3   1 -12  121.19   15.60
  -3   1 -12  135.79   16.30
   3  -1  12  141.79   18.10
   3  -1  12  134.19   17.80
   5   0 -12   35.60    9.00
   5   0 -12   42.00    6.00
  -5   0  12   74.59   14.10
   4   0 -12   36.10    9.70
   4   0 -12   45.50    8.80
   4   0 -12   45.30    5.80
  -4   0  12   44.70    9.60
   3   0 -12   64.39    9.40
   3   0 -12   72.49   12.30
   3   0 -12   63.89    5.20
  -3   0  12   67.59    6.70
  -3   0  12   90.09   11.90
  -3   0  12   73.89   11.60
   2   0 -12  212.68   10.90
   2   0 -12  209.28   14.30
   2   0 -12  227.18   16.30
  -2   0  12  226.18   17.30
  -2   0  12  218.28   15.40
  -2   0  12  206.88   15.40
   1   0 -12   39.70    7.80
   1   0 -12   37.40    6.60
   1   0 -12   38.30    4.20
  -1   0  12   44.30    8.20
  -1   0  12   33.20    7.80
  -1   0  12   38.30    5.40
   0   0 -12  291.07   20.10
   0   0 -12  328.47   17.90
   0   0  12  317.17   22.20
   0   0  12  339.47   23.80
  -1   0 -12   11.70    3.70
  -1   0 -12    3.20    3.50
   1   0  12    1.00    3.70
   1   0  12    2.50    4.20
  -2   0 -12   62.69   10.60
  -2   0 -12   68.89   10.00
   2   0  12   62.19   12.10
   2   0  12   61.19   10.90
  -3   0 -12    2.80    2.50
  -3   0 -12    8.30    4.50
   3   0  12    0.10    4.00
   3   0  12   -4.10    3.50
   5  -1 -12   10.70    5.40
  -5   1  12   25.80    8.60
   4  -1 -12   10.00    5.80
   4  -1 -12    9.00    3.60
  -4   1  12    7.80    3.80
  -4   1  12    0.10    2.10
   3  -1 -12  140.09   14.90
   3  -1 -12  172.18   13.30
  -3   1  12  123.49   13.20
  -3   1  12  173.48   15.10
  -3   1  12  161.48   13.60
  -3   1  12  168.08   12.00
   2  -1 -12    3.70    2.60
   2  -1 -12    2.70    3.30
  -2   1  12    2.70    2.50
  -2   1  12    6.60    2.10
  -2   1  12    9.50    4.10
   1  -1 -12  171.68   12.20
   1  -1 -12  167.28   13.80
  -1   1  12  179.28   15.80
  -1   1  12  176.68   12.50
  -1   1  12  198.98   15.00
   0  -1 -12  216.88   12.60
   0  -1 -12  189.58   15.90
   0  -1 -12  204.28   12.90
   0   1  12  235.68   17.70
   0   1  12  235.28   19.20
  -1  -1 -12  141.89   13.60
  -1  -1 -12  133.69   10.40
   1   1  12  132.29   16.10
   1   1  12  114.99   16.60
  -2  -1 -12   92.59   11.10
  -2  -1 -12   56.59   10.70
   2   1  12   83.49   12.90
   2   1  12   68.49   12.90
  -3  -1 -12    9.00    3.10
  -3  -1 -12    1.80    3.30
   3   1  12    2.30    5.00
   3   1  12    3.10    4.40
   5  -2 -12  843.02   47.10
  -5   2  12  702.23   49.30
  -5   2  12  696.13   47.80
   4  -2 -12   28.00    7.80
  -4   2  12   35.30    9.40
  -4   2  12   38.60    6.60
  -4   2  12   57.19   11.40
   3  -2 -12  110.59   10.10
   3  -2 -12  113.59   14.60
  -3   2  12  105.89    9.30
  -3   2  12  101.29   10.50
  -3   2  12   97.49   13.90
  -3   2  12   92.89   10.80
   2  -2 -12  155.18   12.80
   2  -2 -12  151.58   14.20
   2  -2 -12  161.78   13.30
   2  -2 -12  158.18   13.90
  -2   2  12  180.78   15.30
  -2   2  12  186.98   13.90
  -2   2  12  167.38   13.80
   1  -2 -12   35.30    7.70
   1  -2 -12   41.00    6.50
  -1   2  12   45.10    8.10
  -1   2  12   41.10    6.50
  -1   2  12   39.80    8.50
   0  -2 -12    3.50    1.60
   0  -2 -12    1.90    2.90
   0  -2 -12   -0.30    1.40
   0   2  12    0.90    3.30
   0   2  12    3.80    3.30
  -1  -2 -12  371.06   20.50
  -1  -2 -12  327.57   24.50
   1   2  12  352.66   24.70
   1   2  12  320.07   26.20
  -2  -2 -12    9.50    3.20
  -2  -2 -12   10.40    4.90
   2   2  12    6.90    4.70
   2   2  12    8.00    6.10
  -3  -2 -12   52.79    9.20
  -3  -2 -12   42.70   10.70
   3   2  12   39.60    9.80
   3   2  12   40.90   11.60
   5  -3 -12  146.59   14.90
  -5   3  12  131.09   20.50
  -5   3  12  114.79   19.90
   4  -3 -12   70.69   11.70
  -4   3  12   62.59    8.90
  -4   3  12   66.59   12.80
  -4   3  12   60.89   11.70
   3  -3 -12  201.88   14.50
   3  -3 -12  221.88   17.20
  -3   3  12  208.18   15.20
  -3   3  12  196.88   17.40
  -3   3  12  220.08   16.80
  -3   3  12  195.88   17.20
   2  -3 -12  163.58   13.40
   2  -3 -12  165.28   14.80
   2  -3 -12  154.48   13.60
  -2   3  12  153.48   14.50
  -2   3  12  182.28   14.20
  -2   3  12  153.28   13.80
   1  -3 -12  973.40   49.60
   1  -3 -12  963.40   52.89
  -1   3  12 1003.30   51.89
  -1   3  12 1003.40   54.79
   0  -3 -12    7.70    2.20
   0  -3 -12    5.50    2.70
   0  -3 -12    2.30    3.70
   0   3  12    8.20    5.10
   0   3  12   16.90    6.50
  -1  -3 -12  199.68   13.30
  -1  -3 -12  145.39   18.90
   1   3  12  179.08   19.20
   1   3  12  205.28   17.50
  -2  -3 -12  520.45   36.90
  -2  -3 -12  570.84   32.80
   2   3  12  675.43   37.60
   2   3  12  552.54   40.10
   5  -4 -12  359.66   26.10
  -5   4  12  326.87   29.20
  -5   4  12  400.06   32.00
   4  -4 -12   52.09    9.40
  -4   4  12   61.19   12.10
  -4   4  12   57.79   12.10
  -4   4  12   61.19   12.90
   3  -4 -12  455.55   30.00
   3  -4 -12  482.05   29.10
  -3   4  12  508.65   30.80
  -3   4  12  418.86   31.20
  -3   4  12  506.35   32.10
  -3   4  12  543.35   29.90
   2  -4 -12   95.49   13.90
   2  -4 -12   90.99    9.60
   2  -4 -12   91.19   11.80
  -2   4  12   97.79   12.50
  -2   4  12   84.89   12.60
  -2   4  12  118.09   15.40
   1  -4 -12   55.39   10.40
   1  -4 -12   49.99    8.50
  -1   4  12   59.09   11.30
  -1   4  12   57.29    9.60
   0  -4 -12  319.87   21.40
   0  -4 -12  329.37   25.40
   0  -4 -12  349.57   18.70
   0   4  12  340.87   27.30
   0   4  12  376.26   25.20
  -1  -4 -12   67.09    8.60
  -1  -4 -12   43.80   10.40
   1   4  12   75.99   12.50
   1   4  12   51.29   12.90
  -2  -4 -12  541.65   37.80
   2   4  12  638.74   36.80
   2   4  12  494.25   39.90
   4  -5 -12  372.76   26.40
  -4   5  12  367.26   28.60
  -4   5  12  339.17   28.00
   3  -5 -12   13.90    3.90
  -3   5  12   11.10    4.70
   2  -5 -12 1315.97   69.49
   2  -5 -12 1317.07   72.69
  -2   5  12 1333.87   72.59
  -2   5  12 1563.54   71.39
   1  -5 -12    8.10    4.20
   1  -5 -12    9.00    3.50
  -1   5  12    2.30    2.50
  -1   5  12   -2.30    2.30
   0  -5 -12 1179.78   52.49
   0  -5 -12 1047.30   55.69
   0  -5 -12 1028.20   60.59
   0   5  12 1022.90   62.79
   0   5  12 1152.08   59.49
  -1  -5 -12   13.50    5.50
  -1  -5 -12   13.10    3.90
   1   5  12   26.70   10.30
   1   5  12   23.50    7.80
   4  -6 -12  282.37   22.20
  -4   6  12  263.67   23.70
  -4   6  12  270.07   24.50
   3  -6 -12  103.99   14.80
  -3   6  12  138.99   13.70
   2  -6 -12   12.00    3.50
   2  -6 -12    9.20    4.00
  -2   6  12    6.10    2.80
   1  -6 -12   20.30    6.20
   1  -6 -12    5.70    3.30
  -1   6  12   17.90    6.50
   0  -6 -12  201.38   16.30
   0  -6 -12  158.48   21.30
   0   6  12  192.68   20.70
   2  -7 -12  138.69   20.10
   2  -7 -12  112.89   14.90
  -2   7  12  125.39   18.40
   1   6 -13  278.47   21.20
   1   6 -13  274.97   21.00
  -1  -6  13  258.37   20.70
   0   6 -13  356.56   23.90
   0   6 -13  299.47   22.90
   0  -6  13  293.97   24.20
  -1   6 -13   46.60    8.70
  -1   6 -13   69.79   11.80
   1  -6  13   61.79   12.30
  -2   6 -13  231.68   17.80
  -2   6 -13  255.47   20.40
   2  -6  13  215.38   22.40
   2   5 -13  193.38   16.50
   2   5 -13  222.18   19.20
   2   5 -13  207.38   18.50
   1   5 -13   -3.80    2.50
   1   5 -13    9.20    4.70
  -1  -5  13   12.50    4.30
   0   5 -13    4.40    3.70
   0   5 -13    2.30    2.20
   0  -5  13    3.00    2.40
  -1   5 -13  123.29   15.30
  -1   5 -13  119.29   11.80
   1  -5  13  115.69   18.00
  -2   5 -13  239.38   19.40
  -2   5 -13  224.88   17.50
   2  -5  13  214.68   21.60
   3   4 -13   50.49    8.90
   3   4 -13   25.40    7.60
   3   4 -13   44.60    8.10
  -3  -4  13   39.00    7.30
   2   4 -13   64.39    9.60
   2   4 -13   70.89   12.50
   2   4 -13   74.89   12.00
  -2  -4  13   59.79    9.30
   1   4 -13  160.08   14.90
   1   4 -13  147.19   12.80
  -1  -4  13  138.89   13.60
   0   4 -13   24.60    6.30
   0   4 -13   23.70    5.80
   0  -4  13   34.30    8.10
  -1   4 -13  845.82   47.10
  -1   4 -13  915.01   47.40
   1  -4  13  837.02   50.19
  -2   4 -13   69.69   11.10
  -2   4 -13   63.09   10.50
   2  -4  13   43.60   10.70
   2  -4  13   81.79   14.10
  -3   4 -13  347.07   23.80
  -3   4 -13  334.07   25.10
   3  -4  13  303.37   27.20
   3  -4  13  420.76   27.90
   4   3 -13   88.19   13.10
   4   3 -13  133.29   19.20
   4   3 -13  108.79   12.60
  -4  -3  13  115.69   16.30
   3   3 -13   75.39   12.50
   3   3 -13   78.89   10.30
   3   3 -13   79.39   13.60
  -3  -3  13   56.19    9.80
   2   3 -13  223.98   17.60
   2   3 -13  189.98   14.30
  -2  -3  13  167.28   13.90
  -2  -3  13  176.68   14.40
   1   3 -13  328.97   22.80
   1   3 -13  319.07   20.20
  -1  -3  13  320.57   22.50
   0   3 -13   47.60    8.10
   0   3 -13   48.80    8.90
   0  -3  13   56.89   11.20
   0  -3  13   37.00    9.00
  -1   3 -13   15.30    4.40
  -1   3 -13   15.00    3.80
   1  -3  13   14.10    6.00
   1  -3  13    0.70    5.20
  -2   3 -13  210.98   17.20
  -2   3 -13  213.78   26.90
  -2   3 -13  233.08   18.30
   2  -3  13  249.18   21.70
   2  -3  13  265.57   21.30
  -3   3 -13   16.00    4.50
  -3   3 -13   15.80    5.50
   3  -3  13   13.80    6.60
   3  -3  13   21.80    8.10
   4   2 -13  177.58   18.00
   4   2 -13  167.38   12.60
   4   2 -13  149.59   15.10
  -4  -2  13  156.78   20.00
   3   2 -13  288.47   20.40
   3   2 -13  244.48   16.20
   3   2 -13  270.17   22.60
  -3  -2  13  221.08   18.90
   2   2 -13  249.18   16.10
   2   2 -13  297.67   20.30
  -2  -2  13  277.07   18.30
  -2  -2  13  230.88   17.50
   1   2 -13   47.50    7.30
   1   2 -13   64.19   10.60
  -1  -2  13   45.90    8.70
  -1  -2  13   62.89   11.00
   0   2 -13    2.30    2.40
   0   2 -13    5.40    3.70
   0  -2  13    2.20    4.40
   0  -2  13    5.40    3.80
  -1   2 -13   21.20    5.30
  -1   2 -13   43.40    8.00
  -1   2 -13   36.00    6.70
   1  -2  13   34.50    9.30
   1  -2  13   22.00    7.40
  -2   2 -13  103.79   12.80
  -2   2 -13   80.19   11.50
   2  -2  13  109.59   16.70
   2  -2  13  115.99   16.30
  -3   2 -13  177.08   15.80
   3  -2  13  187.08   18.50
   3  -2  13  175.38   17.60
   4   1 -13   31.80    4.80
   4   1 -13   34.30    8.10
   4   1 -13   47.20   10.20
  -4  -1  13   50.99   10.10
   3   1 -13  118.59   17.20
   3   1 -13   98.39   12.90
   3   1 -13   99.49    7.80
  -3  -1  13  118.09    9.30
  -3  -1  13  100.39   13.80
   2   1 -13  283.17   16.40
   2   1 -13  296.77   21.00
  -2  -1  13  324.17   20.30
  -2  -1  13  302.77   20.10
  -2  -1  13  336.57   23.00
   1   1 -13  297.97   16.50
   1   1 -13  296.47   20.80
  -1  -1  13  270.17   20.20
  -1  -1  13  297.37   22.10
   0   1 -13    3.50    2.90
   0   1 -13    7.30    2.90
   0   1 -13    4.80    3.60
   0  -1  13   10.40    5.60
   0  -1  13    8.70    4.70
  -1   1 -13    0.30    3.00
  -1   1 -13   10.60    4.00
   1  -1  13    3.60    4.30
   1  -1  13    7.70    5.50
  -2   1 -13   17.80    5.10
  -2   1 -13   16.50    5.90
   2  -1  13   15.30    6.80
   2  -1  13   23.50    7.60
  -3   1 -13   67.69   10.70
  -3   1 -13   43.20    9.10
   3  -1  13   72.19   13.10
   3  -1  13   54.09   11.30
   4   0 -13  193.68   18.70
   4   0 -13  180.68   15.20
  -4   0  13  189.28   22.60
   3   0 -13   -1.30    3.40
   3   0 -13    4.50    4.30
  -3   0  13   13.60    4.10
  -3   0  13    4.80    1.90
  -3   0  13    6.70    3.80
   2   0 -13  332.17   22.40
  -2   0  13  353.06   24.20
  -2   0  13  344.57   21.80
  -2   0  13  338.87   21.90
   1   0 -13  725.33   32.80
   1   0 -13  702.13   35.50
   1   0 -13  674.33   39.10
   1   0 -13  646.44   36.90
  -1   0  13  715.83   39.70
  -1   0  13  807.32   42.70
   0   0 -13  113.89    8.60
   0   0 -13  103.19   10.70
   0   0  13  116.69   15.70
   0   0  13  108.49   14.30
  -1   0 -13 1237.28   59.49
  -1   0 -13 1149.78   62.29
   1   0  13 1283.57   66.69
   1   0  13 1273.97   65.39
  -2   0 -13    3.10    4.40
  -2   0 -13    6.30    3.20
   2   0  13   -0.90    3.70
   2   0  13    1.30    4.30
  -3   0 -13  776.92   46.10
  -3   0 -13  709.73   42.90
   3   0  13  782.72   47.80
   3   0  13  821.62   46.50
   5  -1 -13   10.90    4.90
  -5   1  13    4.30    3.10
   4  -1 -13    6.00    4.30
   4  -1 -13    1.00    2.80
  -4   1  13    4.50    2.20
   3  -1 -13  736.23   39.00
   3  -1 -13  708.13   42.40
  -3   1  13  734.13   38.00
  -3   1  13  747.43   41.00
  -3   1  13  645.84   40.80
   2  -1 -13  185.28   15.70
   2  -1 -13  203.38   15.60
  -2   1  13  229.58   16.10
  -2   1  13  232.38   18.30
  -2   1  13  219.38   16.10
   1  -1 -13 1029.00   51.19
   1  -1 -13 1014.10   53.99
  -1   1  13 1105.19   57.89
  -1   1  13 1041.80   51.99
  -1   1  13 1139.59   55.89
   0  -1 -13   74.09   11.20
   0  -1 -13   89.09    6.70
   0   1  13   87.69   13.90
   0   1  13   72.29   11.80
  -1  -1 -13  308.87   19.40
  -1  -1 -13  319.57   23.40
   1   1  13  340.47   24.60
   1   1  13  347.27   26.50
  -2  -1 -13    2.10    2.10
   2   1  13   -0.60    3.60
   2   1  13    1.90    3.50
  -3  -1 -13   43.30    9.80
  -3  -1 -13   55.39    9.60
   3   1  13   47.00   10.80
   3   1  13   49.80   12.20
   5  -2 -13 1114.99   57.49
  -5   2  13  935.81   57.99
  -5   2  13  810.32   57.39
   4  -2 -13   13.50    5.70
  -4   2  13    3.30    2.20
  -4   2  13    5.30    2.60
  -4   2  13   19.90    5.60
  -4   2  13    6.30    3.00
   3  -2 -13  469.95   26.60
   3  -2 -13  470.35   29.90
  -3   2  13  465.35   30.00
  -3   2  13  469.65   26.60
  -3   2  13  375.06   28.00
  -3   2  13  446.96   28.60
   2  -2 -13    9.20    4.10
   2  -2 -13    6.80    2.90
   2  -2 -13    1.50    4.30
   2  -2 -13    6.30    2.60
  -2   2  13    4.90    2.40
  -2   2  13    6.50    3.10
  -2   2  13   -1.20    1.90
   1  -2 -13   92.19   12.50
   1  -2 -13  106.99    9.40
  -1   2  13  106.49   13.60
  -1   2  13  124.79   16.20
   0  -2 -13  126.09   13.10
   0  -2 -13  133.49    8.60
   0   2  13  126.09   15.70
   0   2  13  110.69   16.60
  -1  -2 -13  215.88   14.50
  -1  -2 -13  188.78   17.80
   1   2  13  214.28   20.80
   1   2  13  249.08   19.90
  -2  -2 -13  560.24   32.80
  -2  -2 -13  531.55   36.90
   2   2  13  592.44   40.70
   2   2  13  672.93   38.40
   4  -3 -13    8.00    4.40
  -4   3  13    4.90    3.10
  -4   3  13   -1.20    1.60
  -4   3  13    5.60    2.10
   3  -3 -13   13.90    5.20
   3  -3 -13    8.30    2.80
   3  -3 -13    7.60    3.30
  -3   3  13   15.80    4.50
  -3   3  13   15.70    4.60
  -3   3  13    7.90    2.80
  -3   3  13    7.70    2.60
   2  -3 -13  312.17   21.10
   2  -3 -13  262.57   19.30
   2  -3 -13  319.07   22.60
   2  -3 -13  279.77   19.80
  -2   3  13  302.77   22.90
  -2   3  13  325.67   21.30
  -2   3  13  269.77   20.60
   1  -3 -13  699.73   41.00
   1  -3 -13  699.13   37.30
  -1   3  13  656.63   42.20
  -1   3  13  725.23   40.20
   0  -3 -13  246.98   20.10
   0  -3 -13  225.18   13.40
   0   3  13  245.58   19.80
   0   3  13  244.58   21.80
  -1  -3 -13  253.17   16.20
  -1  -3 -13  234.48   20.90
   1   3  13  246.18   23.60
   1   3  13  271.47   21.50
  -2  -3 -13   13.40    4.00
  -2  -3 -13    9.00    5.20
   2   3  13   17.30    6.50
   2   3  13    2.90    5.70
   4  -4 -13  246.18   19.80
  -4   4  13  221.48   20.70
  -4   4  13  224.58   20.60
  -4   4  13  219.78   16.90
   3  -4 -13   86.29   12.30
  -3   4  13  118.59   11.40
  -3   4  13   99.19   14.80
  -3   4  13   97.69   10.80
  -3   4  13   97.29   13.60
   2  -4 -13   17.20    5.20
   2  -4 -13   13.10    4.10
  -2   4  13   15.80    5.20
  -2   4  13   13.90    4.90
   1  -4 -13   60.49   11.30
   1  -4 -13   50.89    8.30
  -1   4  13   54.19   10.10
  -1   4  13   44.20   10.40
   0  -4 -13   29.90    8.00
   0  -4 -13   26.20    6.10
   0   4  13   49.10   10.10
   0   4  13   39.00   10.10
  -1  -4 -13   74.79   13.60
   1   4  13   85.59   17.00
   1   4  13   92.29   14.30
   4  -5 -13   69.89   11.00
  -4   5  13   89.99   15.50
  -4   5  13   91.79   15.00
   3  -5 -13   78.79   11.60
  -3   5  13   71.49   11.90
  -3   5  13   53.99   10.00
  -3   5  13   61.69   11.60
   2  -5 -13   92.19   12.60
   2  -5 -13   87.29   13.90
  -2   5  13  117.59   15.10
  -2   5  13   83.89   14.20
   1  -5 -13    2.20    2.80
   1  -5 -13    6.20    3.10
  -1   5  13    7.50    3.60
  -1   5  13   -3.20    2.80
   0  -5 -13  287.67   20.00
   0  -5 -13  278.87   23.80
   0   5  13  312.77   23.70
   0   5  13  262.67   25.10
   3  -6 -13  110.49   14.70
  -3   6  13  142.69   16.00
  -3   6  13  130.89   13.70
   2  -6 -13   99.39   15.30
   2  -6 -13  100.99   13.10
  -2   6  13   70.99   13.40
   1  -6 -13   91.49   12.30
   1  -6 -13  109.69   17.40
  -1   6  13  100.09   17.30
   0   6 -14  107.69   15.00
   0   6 -14  104.99   14.90
   0  -6  14  110.09   16.80
   2   5 -14   58.39   11.30
   2   5 -14   58.39   11.50
   2   5 -14   59.19   10.00
  -2  -5  14   46.30    8.30
   1   5 -14   34.10    7.90
   1   5 -14   42.50    9.10
  -1  -5  14   18.20    5.30
   0   5 -14   20.30    4.90
   0   5 -14   14.10    3.70
   0  -5  14    9.30    4.50
  -1   5 -14   33.40    6.50
  -1   5 -14   26.90    6.80
   1  -5  14   36.60    9.70
   3   4 -14   57.09   11.40
   2   4 -14   24.40    6.60
   2   4 -14   38.00    8.60
   2   4 -14   29.40    7.40
  -2  -4  14   40.20    7.90
   1   4 -14    5.00    4.20
   1   4 -14   -0.10    2.70
  -1  -4  14    1.90    1.90
   0   4 -14  312.87   21.40
   0   4 -14  328.67   22.90
   0  -4  14  296.57   23.70
  -1   4 -14   16.70    4.30
  -1   4 -14   18.30    5.70
   1  -4  14   13.70    6.00
  -2   4 -14  309.97   22.80
  -2   4 -14  327.37   23.80
   2  -4  14  311.17   27.10
   2  -4  14  395.66   28.00
   3   3 -14   13.40    5.20
   3   3 -14    5.50    3.20
   3   3 -14    4.90    4.00
  -3  -3  14   10.20    3.20
   2   3 -14  830.92   43.00
   2   3 -14  911.81   47.60
  -2  -3  14  777.62   44.70
   1   3 -14    5.20    3.60
   1   3 -14    5.10    4.00
  -1  -3  14    7.90    3.10
   0   3 -14  823.02   43.70
   0   3 -14  827.22   46.40
   0  -3  14  951.70   50.49
   0  -3  14  768.12   47.40
  -1   3 -14    8.10    3.10
  -1   3 -14   18.40    5.00
   1  -3  14   -1.90    4.50
   1  -3  14    9.90    4.60
  -2   3 -14  204.78   16.80
  -2   3 -14  203.88   16.90
   2  -3  14  192.38   20.10
   2  -3  14  249.68   21.20
   4   2 -14  216.08   18.70
   4   2 -14  216.98   20.50
  -4  -2  14  206.98   18.80
   3   2 -14   72.59    8.40
   3   2 -14   75.39   11.60
   3   2 -14   74.19   14.50
  -3  -2  14   65.49   10.30
  -3  -2  14   91.09    8.00
   2   2 -14  298.67   17.70
   2   2 -14  298.27   21.90
  -2  -2  14  281.57   20.00
   1   2 -14   38.90    8.70
   1   2 -14   36.10    6.10
  -1  -2  14   33.10    9.20
  -1  -2  14   33.90    7.50
   0   2 -14   60.49    8.50
   0   2 -14   73.39   12.00
   0  -2  14   64.19   11.80
   0  -2  14   82.29   13.80
  -1   2 -14  460.15   31.40
  -1   2 -14  533.95   30.50
   1  -2  14  622.14   36.90
   1  -2  14  517.35   34.90
  -2   2 -14  142.59   15.80
  -2   2 -14  108.59   13.80
   2  -2  14  116.89   18.00
   2  -2  14  129.29   17.90
   4   1 -14  148.19   14.30
   4   1 -14  146.99   16.10
  -4  -1  14  135.39   18.50
   3   1 -14  463.35   28.70
   3   1 -14  470.45   32.30
  -3  -1  14  417.36   25.50
  -3  -1  14  437.76   29.10
   2   1 -14   29.10    6.30
   2   1 -14   34.60    8.20
  -2  -1  14   31.50    5.30
  -2  -1  14   38.10    8.40
  -2  -1  14   27.00    6.10
   1   1 -14 1150.78   54.89
   1   1 -14 1129.49   60.79
  -1  -1  14 1205.48   61.69
  -1  -1  14 1275.97   64.29
   0   1 -14  141.69   10.50
   0   1 -14  127.29   13.00
   0  -1  14  120.89   16.20
   0  -1  14  129.99   17.60
  -1   1 -14  308.17   19.50
  -1   1 -14  280.67   20.40
   1  -1  14  301.57   24.50
   1  -1  14  294.67   23.80
  -2   1 -14  294.37   22.40
  -2   1 -14  319.17   21.50
   2  -1  14  318.47   25.50
   2  -1  14  313.87   25.70
   4   0 -14  142.19   15.20
   4   0 -14   98.39   12.40
  -4   0  14  106.19   16.10
   3   0 -14  211.18   19.70
   3   0 -14  248.58   18.10
  -3   0  14  222.28   18.00
  -3   0  14  214.18   18.20
  -3   0  14  221.98   15.70
   2   0 -14  191.98   15.90
  -2   0  14  187.38   15.10
  -2   0  14  174.68   13.60
  -2   0  14  208.78   17.80
   1   0 -14   51.39    8.00
   1   0 -14   61.19   10.30
  -1   0  14   67.19   11.90
  -1   0  14   66.59   10.70
   0   0 -14   36.20    7.10
   0   0 -14   35.50    5.20
   0   0  14   46.20    9.10
   0   0  14   45.20   10.50
  -1   0 -14  188.88   13.40
  -1   0 -14  144.09   14.40
   1   0  14  193.58   18.60
   1   0  14  174.28   17.40
  -2   0 -14   67.79    9.90
  -2   0 -14   68.49   12.10
   2   0  14   65.89   13.20
   2   0  14   76.89   13.50
   4  -1 -14   23.40    7.70
  -4   1  14   27.30    7.20
   3  -1 -14   92.49   12.10
   3  -1 -14  115.79   16.20
  -3   1  14  110.79   12.00
  -3   1  14  113.89   14.90
  -3   1  14  120.59   10.40
   2  -1 -14    4.90    2.30
   2  -1 -14    3.50    2.00
   2  -1 -14    9.10    4.20
  -2   1  14    4.40    2.80
  -2   1  14    2.70    1.40
  -2   1  14    4.20    3.10
   1  -1 -14  289.07   21.80
   1  -1 -14  313.27   21.70
  -1   1  14  327.37   23.10
  -1   1  14  380.56   26.20
   0  -1 -14   45.50    9.10
   0  -1 -14   66.79    5.70
   0   1  14   76.99   12.70
   0   1  14   55.69   12.10
  -1  -1 -14  289.17   23.00
  -1  -1 -14  320.27   19.50
   1   1  14  369.46   26.00
   1   1  14  323.77   26.50
  -2  -1 -14   59.99   11.50
  -2  -1 -14   53.59    8.10
   2   1  14   59.19   13.20
   2   1  14   70.79   13.40
   4  -2 -14   -0.30    3.50
  -4   2  14    2.20    2.30
  -4   2  14   -0.50    1.70
  -4   2  14    9.90    3.30
   3  -2 -14   12.80    3.90
   3  -2 -14   33.90    8.40
   3  -2 -14   13.70    4.10
  -3   2  14   13.50    3.70
  -3   2  14    9.00    3.30
  -3   2  14   12.50    4.40
   2  -2 -14   19.70    5.30
   2  -2 -14   17.10    4.20
   2  -2 -14   26.90    7.30
   2  -2 -14   21.40    5.30
  -2   2  14   25.20    6.30
  -2   2  14   21.10    4.90
  -2   2  14   10.90    5.00
   1  -2 -14  573.04   35.50
  -1   2  14  637.94   36.50
  -1   2  14  584.34   38.10
   0  -2 -14  224.88   19.90
   0   2  14  292.87   24.20
   0   2  14  295.57   21.90
  -1  -2 -14  245.78   21.50
  -1  -2 -14  272.27   17.20
   1   2  14  290.57   23.30
   1   2  14  307.57   26.10
  -2  -2 -14  315.67   25.30
  -2  -2 -14  284.77   20.30
   2   2  14  346.67   25.70
   2   2  14  300.97   27.50
   4  -3 -14  209.58   18.30
  -4   3  14  182.48   23.10
  -4   3  14  197.58   16.20
  -4   3  14  212.68   19.50
   3  -3 -14  195.48   17.50
   3  -3 -14  204.08   16.90
   3  -3 -14  230.78   18.30
  -3   3  14  199.98   17.80
  -3   3  14  232.88   19.10
  -3   3  14  226.08   16.80
   2  -3 -14  174.38   14.60
   2  -3 -14  193.38   15.10
   2  -3 -14  198.48   16.30
   2  -3 -14  188.38   16.90
  -2   3  14  193.68   18.00
  -2   3  14  177.78   15.40
  -2   3  14  219.28   16.80
   1  -3 -14    2.60    3.20
   1  -3 -14   10.10    2.90
  -1   3  14    8.00    4.50
  -1   3  14   14.10    5.00
   0  -3 -14    2.40    2.90
   0   3  14   -2.20    2.90
   0   3  14   -2.90    3.70
  -1  -3 -14   29.20    7.90
  -1  -3 -14   33.60    5.30
   1   3  14   20.60    8.90
   1   3  14   25.60    8.00
   4  -4 -14   35.20    7.20
  -4   4  14   26.20    7.40
  -4   4  14   31.30    7.00
  -4   4  14   25.30    6.90
   3  -4 -14  141.89   18.20
   3  -4 -14  118.89   15.40
  -3   4  14  168.18   14.40
  -3   4  14  175.98   20.70
  -3   4  14  161.38   15.50
   2  -4 -14  143.09   13.00
   2  -4 -14  118.49   16.60
  -2   4  14  133.29   18.30
  -2   4  14  161.78   14.70
   1  -4 -14   29.00    7.40
   1  -4 -14   29.70    6.20
  -1   4  14   24.20    7.20
  -1   4  14   37.60    9.50
   0  -4 -14   33.40    8.30
   0   4  14   37.30   10.50
   0   4  14   44.10   10.40
  -1  -4 -14   80.29   13.90
   1   4  14  105.79   19.10
   1   4  14   95.39   14.90
   3  -5 -14   23.90    5.60
   3  -5 -14   17.20    5.00
  -3   5  14   17.10    5.20
  -3   5  14   21.70    6.50
   2  -5 -14    3.10    2.50
   2  -5 -14   11.20    4.40
  -2   5  14    3.50    3.70
  -2   5  14    3.00    3.20
   1  -5 -14    5.90    3.20
   1  -5 -14   26.60    5.80
  -1   5  14   -2.50    3.30
  -1   5  14    9.10    4.90
   0  -5 -14    3.30    3.70
   0   5  14    1.70    4.30
   0   5  14    1.40    4.80
   0   5 -15  688.63   38.10
   0   5 -15  645.74   38.70
   0  -5  15  581.44   39.90
   2   4 -15  204.08   19.40
   2   4 -15  200.68   15.80
   2   4 -15  195.48   17.90
  -2  -4  15  219.38   17.10
   1   4 -15   18.90    6.30
   1   4 -15   16.40    5.50
  -1  -4  15   22.40    6.00
   0   4 -15   31.10    7.20
   0   4 -15   35.30    6.90
   0  -4  15   33.10    8.20
  -1   4 -15  118.79   11.90
  -1   4 -15  148.09   16.70
   1  -4  15  105.79   16.90
   3   3 -15   91.79   16.00
   2   3 -15    4.70    3.50
   2   3 -15   17.60    6.10
   2   3 -15   -0.20    2.70
   1   3 -15   22.00    5.60
   1   3 -15   28.60    8.00
  -1  -3  15   39.10    8.90
   0   3 -15  779.52   44.70
   0   3 -15  728.43   41.10
   0  -3  15  719.03   45.70
   0  -3  15  938.21   49.99
  -1   3 -15   48.20    9.50
  -1   3 -15   55.09    9.50
   1  -3  15   46.30   11.70
   1  -3  15   47.80   10.90
  -2   3 -15  656.53   42.10
  -2   3 -15  742.43   42.20
   2  -3  15  768.12   47.90
   2  -3  15  801.42   47.20
   3   2 -15    3.50    4.60
   3   2 -15    2.20    4.40
  -3  -2  15   12.20    2.50
  -3  -2  15    2.60    2.30
   2   2 -15  477.05   30.00
  -2  -2  15  421.56   27.70
   1   2 -15    6.60    4.20
   1   2 -15    4.50    2.80
  -1  -2  15   -0.90    3.90
  -1  -2  15   16.20    4.80
   0   2 -15  116.29   10.10
   0   2 -15  115.79   15.20
   0  -2  15  126.59   17.90
   0  -2  15  125.69   16.60
  -1   2 -15  247.38   19.50
  -1   2 -15  230.98   17.30
   1  -2  15  240.18   21.70
   1  -2  15  280.67   23.50
  -2   2 -15  142.09   16.00
   2  -2  15  146.39   20.10
   2  -2  15  143.19   19.90
   3   1 -15  391.16   25.70
   3   1 -15  361.16   28.30
  -3  -1  15  353.86   22.60
  -3  -1  15  340.07   24.50
   2   1 -15  153.08   14.60
  -2  -1  15  148.49   13.60
  -2  -1  15  182.98   17.20
   1   1 -15  227.58   18.80
  -1  -1  15  212.78   18.10
  -1  -1  15  255.37   21.30
   0   1 -15   79.19   12.10
   0   1 -15   67.49    8.10
   0  -1  15   57.19   12.40
   0  -1  15   82.39   13.50
  -1   1 -15   96.39   11.30
   1  -1  15  115.89   17.40
   1  -1  15  112.69   17.40
  -2   1 -15   75.69   12.20
  -2   1 -15   95.99   11.90
   2  -1  15  108.29   17.00
   2  -1  15   98.59   16.60
   4   0 -15   36.20    9.20
  -4   0  15   18.90    5.20
   3   0 -15    0.90    3.40
   3   0 -15   -0.90    3.30
  -3   0  15    0.80    1.60
  -3   0  15    2.80    1.50
  -3   0  15    0.00    2.70
   2   0 -15  112.49   14.60
  -2   0  15   96.29   13.00
  -2   0  15  113.09   15.90
   1   0 -15   49.30    9.60
  -1   0  15   47.20   10.50
  -1   0  15   41.40    9.20
   0   0 -15   24.10    6.30
   0   0  15   24.00    6.50
   0   0  15    7.90    6.20
  -1   0 -15   10.30    2.90
  -1   0 -15    2.50    3.00
   1   0  15   -2.10    4.10
   1   0  15   -5.50    3.40
  -2   0 -15    0.20    3.50
  -2   0 -15   13.10    3.70
   2   0  15   17.20    7.60
   2   0  15   -3.00    4.80
   4  -1 -15  158.98   20.90
  -4   1  15  126.39   18.00
   3  -1 -15   72.29   13.00
   3  -1 -15   67.19   10.10
  -3   1  15   75.39   11.70
  -3   1  15   98.89    9.40
  -3   1  15   92.79   13.60
   2  -1 -15   -2.90    2.60
   2  -1 -15   12.80    4.70
  -2   1  15    7.60    4.00
  -2   1  15    3.00    2.70
   1  -1 -15    8.00    3.30
   1  -1 -15   13.30    5.00
  -1   1  15   15.40    5.40
  -1   1  15    8.30    4.90
   0  -1 -15   97.39   13.20
   0   1  15  104.09   14.80
   0   1  15  103.69   16.60
  -1  -1 -15    8.20    2.30
  -1  -1 -15   -3.20    3.10
   1   1  15    3.40    5.50
   1   1  15    0.40    4.20
   4  -2 -15   41.00    9.90
  -4   2  15   38.20    8.50
   3  -2 -15   79.79   13.30
   3  -2 -15   65.69    9.40
   3  -2 -15   55.19    9.60
  -3   2  15   76.19   10.80
  -3   2  15   65.29   11.90
  -3   2  15   56.39    9.70
   2  -2 -15  300.57   21.10
   2  -2 -15  274.27   22.10
  -2   2  15  326.57   22.20
  -2   2  15  299.77   23.80
  -2   2  15  284.87   20.30
   1  -2 -15   18.20    5.40
  -1   2  15   27.50    7.10
  -1   2  15   12.30    5.60
   0   2  15  469.15   31.80
   0   2  15  467.15   34.30
  -1  -2 -15   30.70    8.20
   1   2  15   29.90    8.50
   1   2  15   24.30    9.20
   3  -3 -15   31.10    6.10
   3  -3 -15   20.60    5.90
   3  -3 -15   27.50    6.30
  -3   3  15   27.20    6.20
  -3   3  15   28.20    7.20
  -3   3  15   36.70    7.40
   2  -3 -15  565.94   37.30
   2  -3 -15  583.44   34.30
   2  -3 -15  555.54   36.30
   2  -3 -15  604.64   36.10
  -2   3  15  599.14   35.80
  -2   3  15  622.34   39.20
   1  -3 -15   20.40    6.30
  -1   3  15   22.50    6.60
  -1   3  15   22.60    7.50
   0  -3 -15   19.50    7.00
   0   3  15   21.60    6.70
   0   3  15   19.40    8.10
   3  -4 -15   85.89   13.80
   3  -4 -15   83.29   11.50
  -3   4  15   66.09   11.10
  -3   4  15   71.39   12.40
  -3   4  15   83.39   12.50
   2  -4 -15  197.28   15.70
   2  -4 -15  198.58   18.50
   2  -4 -15  178.48   14.60
  -2   4  15  197.18   19.40
  -2   4  15  211.88   17.70
   1  -4 -15  255.77   22.70
  -1   4  15  285.47   25.30
  -1   4  15  328.57   23.80
   0  -4 -15   46.70   10.20
   0   4  15   53.69   10.90
   0   4  15   40.80   11.50
   2   3 -16   23.80    6.50
   1   3 -16   -3.00    2.50
   1   3 -16    7.10    3.90
  -1  -3  16   -1.80    1.30
   0   3 -16    7.20    3.40
   0   3 -16    5.20    2.70
   0  -3  16    1.40    4.60
   2   2 -16   12.40    5.00
  -2  -2  16   19.00    4.40
   1   2 -16  320.97   24.20
  -1  -2  16  377.96   27.80
  -1  -2  16  316.67   24.40
   0   2 -16   25.30    4.80
   0   2 -16   33.60    7.80
   0  -2  16   22.40    9.00
   0  -2  16   23.20    6.90
  -1   2 -16  305.07   19.30
  -1   2 -16  218.68   19.30
   1  -2  16  297.17   25.30
   1  -2  16  263.07   23.50
   3   1 -16  189.38   16.70
   3   1 -16  161.08   18.00
  -3  -1  16  168.08   13.70
   2   1 -16  286.87   21.60
  -2  -1  16  288.17   23.90
  -2  -1  16  277.87   20.60
   1   1 -16    3.10    3.10
  -1  -1  16    2.70    2.50
  -1  -1  16   -2.60    3.30
   0   1 -16   67.09   11.10
   0  -1  16   73.79   14.30
   0  -1  16   66.59   11.70
  -1   1 -16    5.90    2.60
  -1   1 -16   28.70    5.60
   1  -1  16    8.50    7.40
   1  -1  16   13.90    7.30
   3   0 -16   88.19   15.90
   3   0 -16   85.39   11.90
  -3   0  16   96.29   14.90
  -3   0  16   96.59    9.30
   2   0 -16  763.72   43.60
  -2   0  16  772.32   43.40
  -2   0  16  766.72   46.70
   1   0 -16   15.00    4.10
  -1   0  16    6.10    5.00
  -1   0  16    4.70    2.90
   0   0 -16  695.93   43.40
   0   0  16  769.52   45.80
   0   0  16  815.82   48.70
   1   0  16  129.29   19.80
   1   0  16   92.49   16.20
   3  -1 -16   87.79   11.90
   3  -1 -16   79.29   14.40
  -3   1  16   83.79   13.90
  -3   1  16   84.29   12.20
  -3   1  16   91.89    9.30
   2  -1 -16  577.64   34.80
   2  -1 -16  522.95   36.30
  -2   1  16  584.14   34.90
  -2   1  16  600.64   38.40
   1  -1 -16   19.30    5.00
  -1   1  16   12.60    5.90
  -1   1  16   28.90    7.20
   0  -1 -16   53.69   10.00
   0   1  16   62.69   11.50
   0   1  16   57.09   13.20
   3  -2 -16    3.10    3.00
  -3   2  16    6.20    2.00
  -3   2  16    4.70    2.80
  -3   2  16    7.00    4.20
   2  -2 -16   23.10    6.80
   2  -2 -16   31.20    6.40
  -2   2  16   21.70    5.90
  -2   2  16   12.40    5.30
   1  -2 -16   85.29   12.00
   1  -2 -16   59.69   10.70
  -1   2  16   84.39   15.20
  -1   2  16   79.59   12.80
   0  -2 -16  199.68   18.40
   0   2  16  227.38   20.20
   0   2  16  204.68   21.70
   2  -3 -16  430.56   31.10
   2  -3 -16  464.45   29.60
  -2   3  16  516.85   35.10
  -2   3  16  520.45   32.00
   1  -3 -16    7.30    3.50
  -1   3  16    6.00    4.00
  -1   3  16   10.30    5.30
   1   1 -17  107.39   14.60
  -1  -1  17   91.09   14.10
  -1  -1  17  107.29   17.30
   2   0 -17  106.09   16.20
   1   0 -17   96.59   13.40
  -1   0  17   84.29   15.10
  -1   0  17   92.89   14.40
   1  -1 -17   14.30    3.50

_computing_structure_solution     'SHELXT 2014/4 (Sheldrick, 2014)'
;
_shelx_hkl_checksum              8391
_olex2_submission_special_instructions 'No special instructions were received'
loop_
_space_group_symop_operation_xyz
'x, y, z'
'-x, -y, -z'
loop_
_atom_site_label
_atom_site_type_symbol
_atom_site_fract_x
_atom_site_fract_y
_atom_site_fract_z
_atom_site_U_iso_or_equiv
_atom_site_adp_type
_atom_site_occupancy
_atom_site_site_symmetry_order
_atom_site_calc_flag
_atom_site_refinement_flags_posn
S1 S 0.46522(8) 0.88369(5) 0.62018(3) 0.01145(10) Uani 1 1 d .
S2 S 0.92309(8) 0.83583(6) 0.80959(3) 0.01566(10) Uani 1 1 d .
P P -0.05972(8) 0.72124(5) 0.44132(3) 0.01018(10) Uani 1 1 d .
N N 0.4946(3) 0.55534(17) 0.68607(10) 0.0103(2) Uani 1 1 d .
C1 C 0.2029(3) 0.6843(2) 0.55085(12) 0.0100(3) Uani 1 1 d .
C2 C 0.6359(3) 0.7446(2) 0.71116(12) 0.0110(3) Uani 1 1 d .
C3 C 0.2537(3) 0.5162(2) 0.59812(12) 0.0097(3) Uani 1 1 d .
C4 C 0.5863(3) 0.4063(2) 0.75357(12) 0.0116(3) Uani 1 1 d .
H4A H 0.8009 0.4507 0.7844 0.014 Uiso 1 1 calc R
H4B H 0.5574 0.2890 0.7050 0.014 Uiso 1 1 calc R
C5 C 0.4122(4) 0.3574(2) 0.84907(13) 0.0147(3) Uani 1 1 d .
H5A H 0.2027 0.2922 0.8187 0.018 Uiso 1 1 calc R
H5B H 0.4140 0.4769 0.8912 0.018 Uiso 1 1 calc R
C6 C 0.5482(4) 0.2275(2) 0.92705(14) 0.0198(3) Uani 1 1 d .
H6A H 0.5552 0.1122 0.8845 0.030 Uiso 1 1 calc GR
H6B H 0.4266 0.1908 0.9854 0.030 Uiso 1 1 calc GR
H6C H 0.7505 0.2959 0.9614 0.030 Uiso 1 1 calc GR
loop_
_atom_site_aniso_label
_atom_site_aniso_U_11
_atom_site_aniso_U_22
_atom_site_aniso_U_33
_atom_site_aniso_U_23
_atom_site_aniso_U_13
_atom_site_aniso_U_12
S1 0.01308(18) 0.00854(17) 0.01127(18) 0.00151(12) 0.00012(13) 0.00107(13)
S2 0.01339(19) 0.01678(19) 0.01349(19) -0.00046(14) -0.00240(14) 0.00046(14)
P 0.01164(18) 0.00829(17) 0.01032(18) 0.00215(13) 0.00041(13) 0.00270(13)
N 0.0106(6) 0.0111(6) 0.0089(6) 0.0015(5) 0.0008(5) 0.0028(5)
C1 0.0097(6) 0.0101(6) 0.0095(6) 0.0007(5) 0.0017(5) 0.0014(5)
C2 0.0106(7) 0.0134(7) 0.0097(7) 0.0020(5) 0.0030(5) 0.0031(5)
C3 0.0096(6) 0.0119(6) 0.0084(6) 0.0020(5) 0.0022(5) 0.0033(5)
C4 0.0123(7) 0.0117(7) 0.0115(7) 0.0024(5) 0.0000(5) 0.0052(5)
C5 0.0175(7) 0.0149(7) 0.0134(7) 0.0047(6) 0.0045(6) 0.0057(6)
C6 0.0263(9) 0.0202(8) 0.0149(8) 0.0065(6) 0.0033(6) 0.0092(7)
loop_
_atom_type_symbol
_atom_type_description
_atom_type_scat_dispersion_real
_atom_type_scat_dispersion_imag
_atom_type_scat_source
C C 0.0033 0.0016 'International Tables Vol C Tables 4.2.6.8 and 6.1.1.4'
H H 0.0000 0.0000 'International Tables Vol C Tables 4.2.6.8 and 6.1.1.4'
N N 0.0061 0.0033 'International Tables Vol C Tables 4.2.6.8 and 6.1.1.4'
P P 0.1023 0.0942 'International Tables Vol C Tables 4.2.6.8 and 6.1.1.4'
S S 0.1246 0.1234 'International Tables Vol C Tables 4.2.6.8 and 6.1.1.4'
loop_
_geom_angle_atom_site_label_1
_geom_angle_atom_site_label_2
_geom_angle_atom_site_label_3
_geom_angle
_geom_angle_site_symmetry_3
C2 S1 C1 93.15(7) .
C1 P C3 100.02(7) 2_566
C2 N C3 116.24(12) .
C2 N C4 120.41(12) .
C3 N C4 123.27(12) .
P C1 S1 118.62(8) .
C3 C1 S1 109.47(11) .
C3 C1 P 131.91(11) .
S2 C2 S1 123.24(9) .
N C2 S1 109.04(10) .
N C2 S2 127.72(11) .
N C3 P 119.84(11) 2_566
N C3 C1 112.09(13) .
C1 C3 P 128.06(11) 2_566
N C4 H4A 109.1 .
N C4 H4B 109.1 .
N C4 C5 112.57(12) .
H4A C4 H4B 107.8 .
C5 C4 H4A 109.1 .
C5 C4 H4B 109.1 .
C4 C5 H5A 109.6 .
C4 C5 H5B 109.6 .
C4 C5 C6 110.43(13) .
H5A C5 H5B 108.1 .
C6 C5 H5A 109.6 .
C6 C5 H5B 109.6 .
C5 C6 H6A 109.5 .
C5 C6 H6B 109.5 .
C5 C6 H6C 109.5 .
H6A C6 H6B 109.5 .
H6A C6 H6C 109.5 .
H6B C6 H6C 109.5 .
loop_
_geom_bond_atom_site_label_1
_geom_bond_atom_site_label_2
_geom_bond_distance
_geom_bond_site_symmetry_2
S1 C1 1.7494(15) .
S1 C2 1.7395(15) .
S2 C2 1.6482(15) .
P C1 1.7390(15) .
P C3 1.7494(15) 2_566
N C2 1.3685(19) .
N C3 1.3990(18) .
N C4 1.4697(18) .
C1 C3 1.406(2) .
C3 P 1.7495(15) 2_566
C4 H4A 0.9900 .
C4 H4B 0.9900 .
C4 C5 1.521(2) .
C5 H5A 0.9900 .
C5 H5B 0.9900 .
C5 C6 1.523(2) .
C6 H6A 0.9800 .
C6 H6B 0.9800 .
C6 H6C 0.9800 .
