#------------------------------------------------------------------------------
#$Date: 2018-12-15 01:14:53 +0200 (Sat, 15 Dec 2018) $
#$Revision: 212588 $
#$URL: file:///home/coder/svn-repositories/cod/cif/7/12/27/7122727.cif $
#------------------------------------------------------------------------------
#
# This file is available in the Crystallography Open Database (COD),
# http://www.crystallography.net/
#
# All data on this site have been placed in the public domain by the
# contributors.
#
data_7122727
loop_
_publ_author_name
'Zhang, Cai-Yan'
'Cao, Ke'
'Xu, Tao-Tao'
'Wu, Ji'
'Jiang, Lin-Hai'
'Yang, Junxiao'
_publ_section_title
;
 A facile approach for synthesis of nido-carborane fused oxazoles via one
 pot deboronation/cyclization of 9-amide-o-carboranes
;
_journal_name_full               'Chemical Communications'
_journal_paper_doi               10.1039/C8CC07728B
_journal_year                    2018
_chemical_formula_moiety         'C9 H16 B9 N O'
_chemical_formula_sum            'C9 H16 B9 N O'
_chemical_formula_weight         251.52
_space_group_crystal_system      triclinic
_space_group_IT_number           2
_space_group_name_Hall           '-P 1'
_space_group_name_H-M_alt        'P -1'
_symmetry_space_group_name_Hall  '-P 1'
_symmetry_space_group_name_H-M   'P -1'
_atom_sites_solution_hydrogens   mixed
_atom_sites_solution_primary     direct
_audit_creation_date             2018-04-27
_audit_creation_method
;
Olex2 1.2
(compiled 2018.04.26 svn.r3504 for OlexSys, GUI svn.r5492)
;
_audit_update_record
;
2018-07-02 deposited with the CCDC.
2018-12-12 downloaded from the CCDC.
;
_cell_angle_alpha                90.954(13)
_cell_angle_beta                 90.958(13)
_cell_angle_gamma                105.754(16)
_cell_formula_units_Z            2
_cell_length_a                   6.7060(12)
_cell_length_b                   10.2830(19)
_cell_length_c                   10.2838(14)
_cell_measurement_reflns_used    1038
_cell_measurement_temperature    290.38(10)
_cell_measurement_theta_max      27.0380
_cell_measurement_theta_min      3.8260
_cell_volume                     682.2(2)
_computing_cell_refinement
;
CrysAlisPro, Agilent Technologies,
Version 1.171.37.33 (release 27-03-2014 CrysAlis171 .NET)
(compiled Mar 27 2014,17:12:48)
;
_computing_data_collection
;
CrysAlisPro, Agilent Technologies,
Version 1.171.37.33 (release 27-03-2014 CrysAlis171 .NET)
(compiled Mar 27 2014,17:12:48)
;
_computing_data_reduction
;
CrysAlisPro, Agilent Technologies,
Version 1.171.37.33 (release 27-03-2014 CrysAlis171 .NET)
(compiled Mar 27 2014,17:12:48)
;
_computing_molecular_graphics    'Olex2 (Dolomanov et al., 2009)'
_computing_publication_material  'Olex2 (Dolomanov et al., 2009)'
_computing_structure_refinement  'ShelXL (Sheldrick, 2015)'
_computing_structure_solution    'ShelXS (Sheldrick, 2008)'
_diffrn_ambient_environment      air
_diffrn_ambient_temperature      290.38(10)
_diffrn_detector                 'CCD plate'
_diffrn_detector_area_resol_mean 16.0733
_diffrn_detector_type            Eos
_diffrn_measured_fraction_theta_full 0.998
_diffrn_measured_fraction_theta_max 0.998
_diffrn_measurement_details
;
#__ type_ start__ end____ width___ exp.time_
  1 omega   -1.00   26.00   1.5000    3.0000
omega____ theta____ kappa____ phi______ frames
    -       22.7867   57.0000   30.0000 18

#__ type_ start__ end____ width___ exp.time_
  2 omega   16.00   53.50   1.5000    3.0000
omega____ theta____ kappa____ phi______ frames
    -       22.7867   57.0000 -120.0000 25

#__ type_ start__ end____ width___ exp.time_
  3 omega  -48.00   43.50   1.5000    3.0000
omega____ theta____ kappa____ phi______ frames
    -       22.7867  -77.0000   30.0000 61

#__ type_ start__ end____ width___ exp.time_
  4 omega   -5.00   25.00   1.5000    3.0000
omega____ theta____ kappa____ phi______ frames
    -      -19.5055  -99.0000   30.0000 20

#__ type_ start__ end____ width___ exp.time_
  5 omega  -48.00   45.00   1.5000    3.0000
omega____ theta____ kappa____ phi______ frames
    -       22.7867  -57.0000  120.0000 62

#__ type_ start__ end____ width___ exp.time_
  6 omega  -45.00   45.00   1.5000    3.0000
omega____ theta____ kappa____ phi______ frames
    -       22.7867  -57.0000 -120.0000 60
;
_diffrn_measurement_device       'four-circle diffractometer'
_diffrn_measurement_device_type  'SuperNova, Dual, Cu at zero, Eos'
_diffrn_measurement_method       '\w scans'
_diffrn_orient_matrix_UB_11      0.1034335000
_diffrn_orient_matrix_UB_12      0.0335758000
_diffrn_orient_matrix_UB_13      0.0193858000
_diffrn_orient_matrix_UB_21      0.0317928000
_diffrn_orient_matrix_UB_22      -0.0577205000
_diffrn_orient_matrix_UB_23      -0.0192380000
_diffrn_orient_matrix_UB_31      0.0193497000
_diffrn_orient_matrix_UB_32      0.0260786000
_diffrn_orient_matrix_UB_33      -0.0633633000
_diffrn_radiation_monochromator  mirror
_diffrn_radiation_probe          x-ray
_diffrn_radiation_type           MoK\a
_diffrn_radiation_wavelength     0.71073
_diffrn_reflns_av_R_equivalents  0.0233
_diffrn_reflns_av_unetI/netI     0.0498
_diffrn_reflns_Laue_measured_fraction_full 0.998
_diffrn_reflns_Laue_measured_fraction_max 0.998
_diffrn_reflns_limit_h_max       8
_diffrn_reflns_limit_h_min       -8
_diffrn_reflns_limit_k_max       12
_diffrn_reflns_limit_k_min       -12
_diffrn_reflns_limit_l_max       12
_diffrn_reflns_limit_l_min       -12
_diffrn_reflns_number            4266
_diffrn_reflns_point_group_measured_fraction_full 0.998
_diffrn_reflns_point_group_measured_fraction_max 0.998
_diffrn_reflns_theta_full        25.242
_diffrn_reflns_theta_max         26.021
_diffrn_reflns_theta_min         3.691
_diffrn_source                   'SuperNova (Mo) X-ray Source'
_exptl_absorpt_coefficient_mu    0.066
_exptl_absorpt_correction_T_max  1.00000
_exptl_absorpt_correction_T_min  0.89351
_exptl_absorpt_correction_type   multi-scan
_exptl_absorpt_process_details
;
CrysAlisPro, Agilent Technologies,
Version 1.171.37.33 (release 27-03-2014 CrysAlis171 .NET)
(compiled Mar 27 2014,17:12:48)
Empirical absorption correction using spherical harmonics,
 implemented in SCALE3 ABSPACK scaling algorithm.
;
_exptl_crystal_colour            'clear light colourless'
_exptl_crystal_colour_lustre     clear
_exptl_crystal_colour_modifier   light
_exptl_crystal_colour_primary    colourless
_exptl_crystal_density_diffrn    1.224
_exptl_crystal_description       block
_exptl_crystal_F_000             260
_exptl_crystal_size_max          0.21
_exptl_crystal_size_mid          0.14
_exptl_crystal_size_min          0.12
_refine_diff_density_max         0.253
_refine_diff_density_min         -0.269
_refine_diff_density_rms         0.044
_refine_ls_extinction_method     none
_refine_ls_goodness_of_fit_ref   1.062
_refine_ls_hydrogen_treatment    mixed
_refine_ls_matrix_type           full
_refine_ls_number_parameters     201
_refine_ls_number_reflns         2680
_refine_ls_number_restraints     0
_refine_ls_restrained_S_all      1.062
_refine_ls_R_factor_all          0.0863
_refine_ls_R_factor_gt           0.0602
_refine_ls_shift/su_max          0.000
_refine_ls_shift/su_mean         0.000
_refine_ls_structure_factor_coef Fsqd
_refine_ls_weighting_details
'w=1/[\s^2^(Fo^2^)+(0.0561P)^2^+0.3490P] where P=(Fo^2^+2Fc^2^)/3'
_refine_ls_weighting_scheme      calc
_refine_ls_wR_factor_gt          0.1460
_refine_ls_wR_factor_ref         0.1676
_reflns_Friedel_coverage         0.000
_reflns_number_gt                1877
_reflns_number_total             2680
_reflns_threshold_expression     'I > 2\s(I)'
_iucr_refine_instructions_details
;

    zcy_087.res created by SHELXL-2014/7

TITL ZCY_087 in P-1 #2
REM reset to P-1 #2
CELL 0.71073 6.706018 10.283024 10.283838 90.9537 90.9584 105.7542
ZERR 2 0.00121 0.001853 0.001365 0.0125 0.0127 0.0159
LATT 1
SFAC C H B N O
UNIT 18 32 18 2 2
 
L.S. 10
PLAN  20
BOND $H
HTAb
CONF
fmap 2
acta
SHEL 999 0.81
REM <olex2.extras>
REM <HklSrc "%.\\ZCY_087.hkl">
REM </olex2.extras>
 
WGHT    0.056100    0.349000
FVAR      11.82864
O1    5    0.171775    0.822459    0.928215    11.00000    0.04409    0.04433 =
         0.03381    0.00310    0.00594    0.02024
N1    4    0.291209    0.672476    1.035046    11.00000    0.04711    0.04345 =
         0.03678    0.01246    0.01089    0.02230
AFIX  43
H1    2    0.310805    0.628348    1.102180    11.00000   -1.20000
AFIX   0
C7    1    0.460165    0.698958    0.609673    11.00000    0.05090    0.06556 =
         0.03152    0.00048    0.00697    0.01923
H7    2    0.489635    0.694508    0.515463    11.00000    0.06172
C8    1    0.311145    0.565295    0.659463    11.00000    0.04640    0.05517 =
         0.04547   -0.01397    0.00050    0.01015
H8    2    0.250186    0.490727    0.584628    11.00000    0.06296
C12   1    0.191059    0.764490    1.038444    11.00000    0.03293    0.03501 =
         0.03515    0.00231    0.00293    0.00873
C13   1    0.094048    0.803951    1.153549    11.00000    0.04153    0.03200 =
         0.03429    0.00002    0.00567    0.00854
C14   1   -0.063113    0.866945    1.137663    11.00000    0.05115    0.03662 =
         0.04365    0.00134    0.00912    0.01516
AFIX  43
H14   2   -0.100954    0.887722    1.054776    11.00000   -1.20000
AFIX   0
C15   1   -0.163163    0.898738    1.244666    11.00000    0.06117    0.04276 =
         0.06272    0.00192    0.02458    0.02168
AFIX  43
H15   2   -0.269445    0.940110    1.233859    11.00000   -1.20000
AFIX   0
C16   1   -0.105860    0.869287    1.367571    11.00000    0.07721    0.05290 =
         0.04893   -0.00822    0.02745    0.01262
AFIX  43
H16   2   -0.173151    0.891395    1.439575    11.00000   -1.20000
AFIX   0
C17   1    0.050696    0.807212    1.384508    11.00000    0.08175    0.07639 =
         0.03416   -0.00224    0.00663    0.02332
AFIX  43
H17   2    0.089224    0.787820    1.467710    11.00000   -1.20000
AFIX   0
C18   1    0.150215    0.773888    1.277439    11.00000    0.05672    0.06478 =
         0.03977   -0.00222    0.00047    0.02434
AFIX  43
H18   2    0.254960    0.731252    1.288559    11.00000   -1.20000
AFIX   0
B1    3    0.619114    0.651527    0.845270    11.00000    0.03830    0.04694 =
         0.04247    0.00210    0.00609    0.01642
AFIX 153
H1A   2    0.743256    0.637055    0.909974    11.00000   -1.20000
AFIX   0
B2    3    0.545445    0.807209    0.844691    11.00000    0.03508    0.03745 =
         0.03939    0.00108    0.00270    0.00600
AFIX 153
H2    2    0.624466    0.894479    0.907158    11.00000   -1.20000
AFIX   0
B3    3    0.670967    0.761266    0.712198    11.00000    0.03604    0.05410 =
         0.04091    0.00251    0.00962    0.01036
AFIX 153
H3    2    0.830877    0.813982    0.686876    11.00000   -1.20000
AFIX   0
B4    3    0.572083    0.586731    0.684865    11.00000    0.04694    0.05390 =
         0.04883   -0.00230    0.00619    0.02203
AFIX 153
H4    2    0.665979    0.527305    0.638150    11.00000   -1.20000
AFIX   0
B5    3    0.396218    0.516271    0.803866    11.00000    0.04846    0.03883 =
         0.05416    0.00017    0.00946    0.01512
AFIX 153
H5    2    0.379961    0.413215    0.838124    11.00000   -1.20000
AFIX   0
B6    3    0.369980    0.650506    0.901573    11.00000    0.03531    0.03631 =
         0.04144    0.00444    0.00735    0.01276
B9    3    0.179626    0.586001    0.779935    11.00000    0.03864    0.04295 =
         0.05026   -0.00925    0.00327    0.00639
H9    2    0.020901    0.519332    0.804588    11.00000    0.05910
B10   3    0.270720    0.766912    0.819728    11.00000    0.03795    0.04310 =
         0.03069   -0.00096    0.00284    0.01503
B11   3    0.456715    0.832559    0.688854    11.00000    0.05028    0.05164 =
         0.03959    0.00902    0.00906    0.01847
H11   2    0.474221    0.931216    0.642061    11.00000    0.05116
H10   2    0.191630    0.743450    0.727637    11.00000    0.11465
HKLF 4
 
REM  ZCY_087 in P-1 #2
REM R1 =  0.0602 for    1877 Fo > 4sig(Fo)  and  0.0863 for all    2680 data
REM    201 parameters refined using      0 restraints
 
END  
     
WGHT      0.0540      0.3547 

REM No hydrogen bonds found for HTAB generation

REM Highest difference peak  0.253,  deepest hole -0.269,  1-sigma level  0.044
Q1    1   0.2215  0.6441  0.6855  11.00000  0.05    0.25
Q2    1   0.5562  0.8619  0.9356  11.00000  0.05    0.22
Q3    1   0.2597  0.5652  0.8478  11.00000  0.05    0.20
Q4    1   0.4229  0.8132  0.7964  11.00000  0.05    0.19
Q5    1   0.2716  0.6723  0.8469  11.00000  0.05    0.19
Q6    1   0.5674  0.5719  0.7744  11.00000  0.05    0.18
Q7    1   0.3347  0.3994  0.7856  11.00000  0.05    0.17
Q8    1   0.2141  0.7831  0.7188  11.00000  0.05    0.17
Q9    1   0.6561  0.6074  0.7597  11.00000  0.05    0.16
Q10   1   0.3428  0.7618  1.0798  11.00000  0.05    0.15
Q11   1   0.6241  0.5283  0.5884  11.00000  0.05    0.15
Q12   1   0.4039  0.5162  0.7082  11.00000  0.05    0.14
Q13   1   0.3983  0.6784  0.9841  11.00000  0.05    0.14
Q14   1  -0.3294  0.7962  1.0600  11.00000  0.05    0.13
Q15   1  -0.3003  0.9586  1.3957  11.00000  0.05    0.13
Q16   1   0.4778  0.7795  0.5047  11.00000  0.05    0.13
Q17   1   0.1977  0.8313  1.4790  11.00000  0.05    0.13
Q18   1   0.2717  0.3456  0.8260  11.00000  0.05    0.13
Q19   1   0.5961  0.8243  0.7594  11.00000  0.05    0.13
Q20   1   0.8003  0.7862  0.6406  11.00000  0.05    0.13

  REM The information below was added by Olex2.
  REM
  REM R1 = 0.0602 for 1877 Fo > 4sig(Fo) and 0.0863 for all 4714 data
  REM n/a parameters refined using n/a restraints
  REM Highest difference peak 0.25, deepest hole -0.27
  REM Mean Shift 0, Max Shift 0.000.

  REM +++ Tabular Listing of Refinement Information +++
  REM R1_all = 0.0863
  REM R1_gt = 0.0602
  REM wR_ref = 0.1676
  REM GOOF = 1.062
  REM Shift_max = 0.000
  REM Shift_mean = 0
  REM Reflections_all = 4714
  REM Reflections_gt = 1877
  REM Parameters = n/a
  REM Hole = -0.27
  REM Peak = 0.25
  REM Flack = n/a

  
;
_cod_data_source_file            c8cc07728b2.cif
_cod_data_source_block           zcy_087
_cod_original_cell_volume        682.3(2)
_cod_database_code               7122727
_shelx_shelxl_version_number     2014/7
_shelx_space_group_comment
;
The symmetry employed for this shelxl refinement is uniquely defined
by the following loop, which should always be used as a source of
symmetry information in preference to the above space-group names.
They are only intended as comments.
;
_reflns_odcompleteness_completeness 99.78
_reflns_odcompleteness_iscentric 1
_reflns_odcompleteness_theta     26.32
_olex2_refinement_description
;
1. Fixed Uiso
 At 1.2 times of:
  All B(H) groups, All C(H) groups, All N(H) groups
2.a Aromatic/amide H refined with riding coordinates:
 N1(H1), C14(H14), C15(H15), C16(H16), C17(H17), C18(H18)
2.b Boron cage BH refined with riding coordinates:
 B1(H1A), B2(H2), B3(H3), B4(H4), B5(H5)
;
_olex2_date_sample_data_collection 2017-06-16
_olex2_submission_special_instructions 'No special instructions were received'
loop_
_space_group_symop_operation_xyz
'x, y, z'
'-x, -y, -z'
loop_
_atom_site_label
_atom_site_type_symbol
_atom_site_fract_x
_atom_site_fract_y
_atom_site_fract_z
_atom_site_U_iso_or_equiv
_atom_site_adp_type
_atom_site_occupancy
_atom_site_site_symmetry_order
_atom_site_calc_flag
_atom_site_refinement_flags_posn
O1 O 0.1718(2) 0.82246(16) 0.92821(14) 0.0390(4) Uani 1 1 d .
N1 N 0.2912(3) 0.6725(2) 1.03505(18) 0.0402(5) Uani 1 1 d .
H1 H 0.3108 0.6283 1.1022 0.048 Uiso 1 1 calc R
C7 C 0.4602(4) 0.6990(3) 0.6097(2) 0.0486(7) Uani 1 1 d .
H7 H 0.490(4) 0.695(3) 0.515(3) 0.062(8) Uiso 1 1 d .
C8 C 0.3111(4) 0.5653(3) 0.6595(3) 0.0499(7) Uani 1 1 d .
H8 H 0.250(4) 0.491(3) 0.585(3) 0.063(8) Uiso 1 1 d .
C12 C 0.1911(3) 0.7645(2) 1.0384(2) 0.0344(5) Uani 1 1 d .
C13 C 0.0940(4) 0.8040(2) 1.1535(2) 0.0362(5) Uani 1 1 d .
C14 C -0.0631(4) 0.8669(2) 1.1377(2) 0.0431(6) Uani 1 1 d .
H14 H -0.1010 0.8877 1.0548 0.052 Uiso 1 1 calc R
C15 C -0.1632(5) 0.8987(3) 1.2447(3) 0.0538(7) Uani 1 1 d .
H15 H -0.2694 0.9401 1.2339 0.065 Uiso 1 1 calc R
C16 C -0.1059(5) 0.8693(3) 1.3676(3) 0.0605(8) Uani 1 1 d .
H16 H -0.1732 0.8914 1.4396 0.073 Uiso 1 1 calc R
C17 C 0.0507(5) 0.8072(3) 1.3845(3) 0.0637(8) Uani 1 1 d .
H17 H 0.0892 0.7878 1.4677 0.076 Uiso 1 1 calc R
C18 C 0.1502(4) 0.7739(3) 1.2774(2) 0.0523(7) Uani 1 1 d .
H18 H 0.2550 0.7313 1.2886 0.063 Uiso 1 1 calc R
B1 B 0.6191(4) 0.6515(3) 0.8453(3) 0.0416(7) Uani 1 1 d .
H1A H 0.7433 0.6371 0.9100 0.050 Uiso 1 1 calc R
B2 B 0.5454(4) 0.8072(3) 0.8447(3) 0.0380(6) Uani 1 1 d .
H2 H 0.6245 0.8945 0.9072 0.046 Uiso 1 1 calc R
B3 B 0.6710(5) 0.7613(3) 0.7122(3) 0.0439(7) Uani 1 1 d .
H3 H 0.8309 0.8140 0.6869 0.053 Uiso 1 1 calc R
B4 B 0.5721(5) 0.5867(3) 0.6849(3) 0.0482(7) Uani 1 1 d .
H4 H 0.6660 0.5273 0.6381 0.058 Uiso 1 1 calc R
B5 B 0.3962(5) 0.5163(3) 0.8039(3) 0.0464(7) Uani 1 1 d .
H5 H 0.3800 0.4132 0.8381 0.056 Uiso 1 1 calc R
B6 B 0.3700(4) 0.6505(3) 0.9016(3) 0.0370(6) Uani 1 1 d .
B9 B 0.1796(5) 0.5860(3) 0.7799(3) 0.0450(7) Uani 1 1 d .
H9 H 0.021(4) 0.519(3) 0.805(2) 0.059(8) Uiso 1 1 d .
B10 B 0.2707(4) 0.7669(3) 0.8197(3) 0.0365(6) Uani 1 1 d .
B11 B 0.4567(5) 0.8326(3) 0.6889(3) 0.0461(7) Uani 1 1 d .
H11 H 0.474(4) 0.931(3) 0.642(2) 0.051(7) Uiso 1 1 d .
H10 H 0.192(6) 0.743(4) 0.728(4) 0.115(13) Uiso 1 1 d .
loop_
_atom_site_aniso_label
_atom_site_aniso_U_11
_atom_site_aniso_U_22
_atom_site_aniso_U_33
_atom_site_aniso_U_23
_atom_site_aniso_U_13
_atom_site_aniso_U_12
O1 0.0441(10) 0.0443(10) 0.0338(9) 0.0031(7) 0.0059(7) 0.0202(8)
N1 0.0471(12) 0.0434(12) 0.0368(11) 0.0125(9) 0.0109(9) 0.0223(10)
C7 0.0509(16) 0.0656(18) 0.0315(13) 0.0005(12) 0.0070(11) 0.0192(13)
C8 0.0464(16) 0.0552(17) 0.0455(15) -0.0140(13) 0.0005(12) 0.0102(12)
C12 0.0329(12) 0.0350(12) 0.0351(12) 0.0023(10) 0.0029(9) 0.0087(9)
C13 0.0415(14) 0.0320(12) 0.0343(12) 0.0000(9) 0.0057(10) 0.0085(10)
C14 0.0512(15) 0.0366(13) 0.0436(14) 0.0013(11) 0.0091(11) 0.0152(11)
C15 0.0612(18) 0.0428(15) 0.0627(18) 0.0019(13) 0.0246(14) 0.0217(13)
C16 0.077(2) 0.0529(17) 0.0489(17) -0.0082(13) 0.0274(15) 0.0126(15)
C17 0.082(2) 0.076(2) 0.0342(15) -0.0022(14) 0.0066(14) 0.0233(18)
C18 0.0567(17) 0.0648(18) 0.0398(14) -0.0022(12) 0.0005(12) 0.0243(14)
B1 0.0383(16) 0.0469(16) 0.0425(15) 0.0021(12) 0.0061(12) 0.0164(13)
B2 0.0351(15) 0.0375(14) 0.0394(15) 0.0011(11) 0.0027(11) 0.0060(11)
B3 0.0360(15) 0.0541(18) 0.0409(16) 0.0025(13) 0.0096(12) 0.0104(13)
B4 0.0469(18) 0.0539(18) 0.0488(17) -0.0023(14) 0.0062(14) 0.0220(14)
B5 0.0485(18) 0.0388(16) 0.0542(18) 0.0002(13) 0.0095(14) 0.0151(13)
B6 0.0353(15) 0.0363(14) 0.0414(15) 0.0044(11) 0.0073(11) 0.0128(11)
B9 0.0386(16) 0.0429(16) 0.0503(17) -0.0092(13) 0.0033(13) 0.0064(13)
B10 0.0380(15) 0.0431(15) 0.0307(14) -0.0010(11) 0.0028(11) 0.0150(12)
B11 0.0503(18) 0.0516(18) 0.0396(16) 0.0090(13) 0.0091(13) 0.0185(14)
loop_
_atom_type_symbol
_atom_type_description
_atom_type_scat_dispersion_real
_atom_type_scat_dispersion_imag
_atom_type_scat_source
C C 0.0033 0.0016 'International Tables Vol C Tables 4.2.6.8 and 6.1.1.4'
H H 0.0000 0.0000 'International Tables Vol C Tables 4.2.6.8 and 6.1.1.4'
B B 0.0013 0.0007 'International Tables Vol C Tables 4.2.6.8 and 6.1.1.4'
N N 0.0061 0.0033 'International Tables Vol C Tables 4.2.6.8 and 6.1.1.4'
O O 0.0106 0.0060 'International Tables Vol C Tables 4.2.6.8 and 6.1.1.4'
loop_
_geom_angle_atom_site_label_1
_geom_angle_atom_site_label_2
_geom_angle_atom_site_label_3
_geom_angle
C12 O1 B10 111.69(17)
C12 N1 H1 123.2
C12 N1 B6 113.56(19)
B6 N1 H1 123.2
C8 C7 H7 113.1(16)
C8 C7 B3 112.5(2)
C8 C7 B4 62.79(18)
C8 C7 B11 115.3(2)
B3 C7 H7 116.3(17)
B3 C7 B4 61.17(17)
B4 C7 H7 106.4(15)
B11 C7 H7 125.1(16)
B11 C7 B3 65.58(18)
B11 C7 B4 117.6(2)
C7 C8 H8 114.2(15)
C7 C8 B4 63.19(17)
C7 C8 B5 112.3(2)
C7 C8 B9 114.1(2)
B4 C8 H8 111.2(15)
B5 C8 H8 119.2(14)
B5 C8 B4 60.92(17)
B9 C8 H8 122.2(15)
B9 C8 B4 117.7(2)
B9 C8 B5 66.20(18)
O1 C12 C13 118.34(19)
N1 C12 O1 116.41(19)
N1 C12 C13 125.2(2)
C14 C13 C12 119.3(2)
C18 C13 C12 121.0(2)
C18 C13 C14 119.6(2)
C13 C14 H14 120.0
C15 C14 C13 120.0(2)
C15 C14 H14 120.0
C14 C15 H15 120.0
C16 C15 C14 120.0(3)
C16 C15 H15 120.0
C15 C16 H16 119.8
C15 C16 C17 120.4(2)
C17 C16 H16 119.8
C16 C17 H17 120.1
C16 C17 C18 119.8(3)
C18 C17 H17 120.1
C13 C18 H18 120.0
C17 C18 C13 120.1(3)
C17 C18 H18 120.0
B2 B1 H1A 122.0
B3 B1 H1A 122.0
B3 B1 B2 58.34(15)
B3 B1 B5 108.0(2)
B3 B1 B6 107.16(19)
B4 B1 H1A 124.4
B4 B1 B2 105.1(2)
B4 B1 B3 59.59(17)
B4 B1 B5 58.82(17)
B4 B1 B6 104.1(2)
B5 B1 H1A 121.7
B5 B1 B2 108.4(2)
B6 B1 H1A 122.8
B6 B1 B2 61.59(15)
B6 B1 B5 58.66(16)
B1 B2 H2 122.0
B1 B2 B6 58.55(15)
B3 B2 B1 59.90(15)
B3 B2 H2 120.2
B3 B2 B6 106.0(2)
B3 B2 B10 112.6(2)
B3 B2 B11 62.01(16)
B6 B2 H2 125.2
B10 B2 B1 108.07(19)
B10 B2 H2 119.7
B10 B2 B6 57.52(15)
B11 B2 B1 109.4(2)
B11 B2 H2 120.0
B11 B2 B6 106.4(2)
B11 B2 B10 63.37(16)
C7 B3 B1 103.3(2)
C7 B3 B2 99.13(19)
C7 B3 H3 128.4
C7 B3 B4 59.56(17)
C7 B3 B11 53.77(16)
B1 B3 H3 121.1
B1 B3 B11 108.7(2)
B2 B3 B1 61.76(15)
B2 B3 H3 123.4
B2 B3 B4 108.1(2)
B2 B3 B11 59.27(15)
B4 B3 B1 60.00(17)
B4 B3 H3 121.0
B4 B3 B11 106.2(2)
B11 B3 H3 123.1
C7 B4 B1 103.4(2)
C7 B4 B3 59.27(17)
C7 B4 H4 126.4
C7 B4 B5 103.7(2)
C8 B4 C7 54.02(16)
C8 B4 B1 104.1(2)
C8 B4 B3 103.8(2)
C8 B4 H4 126.0
C8 B4 B5 59.42(17)
B1 B4 H4 123.0
B3 B4 B1 60.40(17)
B3 B4 H4 121.0
B5 B4 B1 61.27(17)
B5 B4 B3 110.6(2)
B5 B4 H4 120.6
C8 B5 B1 103.3(2)
C8 B5 B4 59.66(17)
C8 B5 H5 128.5
C8 B5 B6 98.22(19)
C8 B5 B9 53.25(15)
B1 B5 H5 121.5
B1 B5 B9 108.2(2)
B4 B5 B1 59.91(17)
B4 B5 H5 121.6
B4 B5 B6 106.3(2)
B4 B5 B9 105.6(2)
B6 B5 B1 60.42(16)
B6 B5 H5 124.5
B6 B5 B9 59.48(16)
B9 B5 H5 123.2
N1 B6 B1 132.6(2)
N1 B6 B2 110.5(2)
N1 B6 B5 138.3(2)
N1 B6 B9 116.1(2)
N1 B6 B10 97.35(18)
B1 B6 B2 59.86(15)
B5 B6 B1 60.92(16)
B5 B6 B2 108.85(19)
B5 B6 B9 61.91(17)
B9 B6 B1 110.5(2)
B9 B6 B2 108.66(19)
B10 B6 B1 111.34(19)
B10 B6 B2 60.04(15)
B10 B6 B5 114.1(2)
B10 B6 B9 63.06(16)
C8 B9 B5 60.54(17)
C8 B9 B6 103.0(2)
C8 B9 H9 125.7(13)
C8 B9 B10 104.6(2)
B5 B9 H9 116.9(13)
B5 B9 B10 107.2(2)
B6 B9 B5 58.61(16)
B6 B9 H9 121.4(13)
B6 B9 B10 58.00(15)
B10 B9 H9 124.3(13)
O1 B10 B2 110.9(2)
O1 B10 B6 100.98(18)
O1 B10 B9 118.7(2)
O1 B10 B11 137.9(2)
O1 B10 H10 120(2)
B2 B10 B9 107.35(19)
B2 B10 B11 57.27(15)
B2 B10 H10 125(2)
B6 B10 B2 62.44(15)
B6 B10 B9 58.94(16)
B6 B10 B11 105.53(19)
B6 B10 H10 122(2)
B9 B10 B11 103.04(19)
B9 B10 H10 66(2)
B11 B10 H10 71(2)
C7 B11 B2 103.9(2)
C7 B11 B3 60.65(17)
C7 B11 B10 102.8(2)
C7 B11 H11 122.9(13)
B2 B11 B3 58.72(16)
B2 B11 B10 59.36(15)
B2 B11 H11 126.4(13)
B3 B11 B10 106.85(19)
B3 B11 H11 122.2(13)
B10 B11 H11 124.1(13)
loop_
_geom_bond_atom_site_label_1
_geom_bond_atom_site_label_2
_geom_bond_distance
O1 C12 1.310(3)
O1 B10 1.490(3)
N1 H1 0.8600
N1 C12 1.301(3)
N1 B6 1.514(3)
C7 H7 0.99(3)
C7 C8 1.564(4)
C7 B3 1.719(4)
C7 B4 1.724(4)
C7 B11 1.591(4)
C8 H8 1.07(3)
C8 B4 1.718(4)
C8 B5 1.714(4)
C8 B9 1.577(4)
C12 C13 1.464(3)
C13 C14 1.388(3)
C13 C18 1.386(3)
C14 H14 0.9300
C14 C15 1.378(3)
C15 H15 0.9300
C15 C16 1.377(4)
C16 H16 0.9300
C16 C17 1.379(4)
C17 H17 0.9300
C17 C18 1.383(4)
C18 H18 0.9300
B1 H1A 1.1000
B1 B2 1.799(4)
B1 B3 1.767(4)
B1 B4 1.760(4)
B1 B5 1.783(4)
B1 B6 1.775(4)
B2 H2 1.1000
B2 B3 1.738(4)
B2 B6 1.830(4)
B2 B10 1.788(4)
B2 B11 1.748(4)
B3 H3 1.1000
B3 B4 1.752(4)
B3 B11 1.796(4)
B4 H4 1.1000
B4 B5 1.740(4)
B5 H5 1.1000
B5 B6 1.743(4)
B5 B9 1.801(4)
B6 B9 1.759(4)
B6 B10 1.741(4)
B9 H9 1.13(3)
B9 B10 1.830(4)
B10 B11 1.858(4)
B10 H10 1.07(4)
B11 H11 1.11(2)
loop_
_geom_torsion_atom_site_label_1
_geom_torsion_atom_site_label_2
_geom_torsion_atom_site_label_3
_geom_torsion_atom_site_label_4
_geom_torsion
O1 C12 C13 C14 19.4(3)
O1 C12 C13 C18 -163.5(2)
O1 B10 B11 C7 -175.7(3)
O1 B10 B11 B2 85.6(3)
O1 B10 B11 B3 121.5(3)
N1 C12 C13 C14 -158.4(2)
N1 C12 C13 C18 18.7(4)
N1 B6 B9 C8 -175.9(2)
N1 B6 B9 B5 -132.9(2)
N1 B6 B9 B10 84.9(2)
N1 B6 B10 O1 1.4(2)
N1 B6 B10 B2 109.4(2)
N1 B6 B10 B9 -115.6(2)
N1 B6 B10 B11 148.3(2)
C7 C8 B4 B1 96.5(2)
C7 C8 B4 B3 34.10(18)
C7 C8 B4 B5 140.2(2)
C7 C8 B5 B1 4.5(3)
C7 C8 B5 B4 -38.2(2)
C7 C8 B5 B6 66.0(2)
C7 C8 B5 B9 107.5(2)
C7 C8 B9 B5 -104.9(2)
C7 C8 B9 B6 -63.0(3)
C7 C8 B9 B10 -3.1(3)
C7 B3 B4 C8 -31.85(17)
C7 B3 B4 B1 -130.4(2)
C7 B3 B4 B5 -94.0(2)
C7 B3 B11 B2 131.6(2)
C7 B3 B11 B10 95.5(2)
C7 B4 B5 C8 32.25(19)
C7 B4 B5 B1 -98.0(2)
C7 B4 B5 B6 -57.8(3)
C7 B4 B5 B9 4.3(3)
C8 C7 B3 B1 -5.1(3)
C8 C7 B3 B2 -68.1(2)
C8 C7 B3 B4 37.6(2)
C8 C7 B3 B11 -108.7(2)
C8 C7 B4 B1 -97.8(2)
C8 C7 B4 B3 -140.7(2)
C8 C7 B4 B5 -34.6(2)
C8 C7 B11 B2 63.3(3)
C8 C7 B11 B3 104.5(2)
C8 C7 B11 B10 2.1(3)
C8 B4 B5 B1 -130.3(2)
C8 B4 B5 B6 -90.1(2)
C8 B4 B5 B9 -27.95(19)
C8 B5 B6 N1 136.8(3)
C8 B5 B6 B1 -100.6(2)
C8 B5 B6 B2 -63.5(2)
C8 B5 B6 B9 38.11(18)
C8 B5 B6 B10 1.3(3)
C8 B5 B9 B6 -130.3(2)
C8 B5 B9 B10 -97.4(2)
C8 B9 B10 O1 178.0(2)
C8 B9 B10 B2 -55.3(2)
C8 B9 B10 B6 -96.4(2)
C8 B9 B10 B11 4.1(3)
C12 O1 B10 B2 -65.8(2)
C12 O1 B10 B6 -1.3(2)
C12 O1 B10 B9 59.2(3)
C12 O1 B10 B11 -129.7(3)
C12 N1 B6 B1 126.8(3)
C12 N1 B6 B2 59.5(3)
C12 N1 B6 B5 -141.0(3)
C12 N1 B6 B9 -64.8(3)
C12 N1 B6 B10 -1.3(3)
C12 C13 C14 C15 176.8(2)
C12 C13 C18 C17 -177.4(2)
C13 C14 C15 C16 0.7(4)
C14 C13 C18 C17 -0.3(4)
C14 C15 C16 C17 -0.4(4)
C15 C16 C17 C18 -0.2(5)
C16 C17 C18 C13 0.6(5)
C18 C13 C14 C15 -0.3(4)
B1 B2 B3 C7 100.3(2)
B1 B2 B3 B4 39.48(19)
B1 B2 B3 B11 137.9(2)
B1 B2 B6 N1 128.2(2)
B1 B2 B6 B5 -37.61(19)
B1 B2 B6 B9 -103.4(2)
B1 B2 B6 B10 -145.1(2)
B1 B2 B10 O1 122.6(2)
B1 B2 B10 B6 30.87(18)
B1 B2 B10 B9 -8.5(2)
B1 B2 B10 B11 -103.1(2)
B1 B2 B11 C7 4.2(3)
B1 B2 B11 B3 -37.9(2)
B1 B2 B11 B10 101.0(2)
B1 B3 B4 C7 130.4(2)
B1 B3 B4 C8 98.6(2)
B1 B3 B4 B5 36.4(2)
B1 B3 B11 C7 -93.1(2)
B1 B3 B11 B2 38.5(2)
B1 B3 B11 B10 2.4(3)
B1 B4 B5 C8 130.3(2)
B1 B4 B5 B6 40.19(19)
B1 B4 B5 B9 102.3(2)
B1 B5 B6 N1 -122.6(3)
B1 B5 B6 B2 37.15(18)
B1 B5 B6 B9 138.7(2)
B1 B5 B6 B10 102.0(2)
B1 B5 B9 C8 93.2(2)
B1 B5 B9 B6 -37.14(19)
B1 B5 B9 B10 -4.2(3)
B1 B6 B9 C8 -5.0(3)
B1 B6 B9 B5 37.98(19)
B1 B6 B9 B10 -104.2(2)
B1 B6 B10 O1 -140.1(2)
B1 B6 B10 B2 -32.07(19)
B1 B6 B10 B9 102.9(2)
B1 B6 B10 B11 6.8(3)
B2 B1 B3 C7 -93.3(2)
B2 B1 B3 B4 -135.7(2)
B2 B1 B3 B11 -37.4(2)
B2 B1 B4 C7 -4.3(2)
B2 B1 B4 C8 -60.1(2)
B2 B1 B4 B3 37.97(18)
B2 B1 B4 B5 -102.7(2)
B2 B1 B5 C8 54.2(2)
B2 B1 B5 B4 96.8(2)
B2 B1 B5 B6 -37.79(18)
B2 B1 B5 B9 -1.1(3)
B2 B1 B6 N1 -90.9(3)
B2 B1 B6 B5 138.6(2)
B2 B1 B6 B9 100.2(2)
B2 B1 B6 B10 32.13(19)
B2 B3 B4 C7 90.1(2)
B2 B3 B4 C8 58.3(2)
B2 B3 B4 B1 -40.30(19)
B2 B3 B4 B5 -3.9(3)
B2 B3 B11 C7 -131.6(2)
B2 B3 B11 B10 -36.19(19)
B2 B6 B9 C8 59.0(2)
B2 B6 B9 B5 101.9(2)
B2 B6 B9 B10 -40.29(17)
B2 B6 B10 O1 -108.0(2)
B2 B6 B10 B9 135.00(19)
B2 B6 B10 B11 38.91(18)
B2 B10 B11 C7 98.8(2)
B2 B10 B11 B3 35.90(19)
B3 C7 C8 B4 -36.9(2)
B3 C7 C8 B5 0.3(3)
B3 C7 C8 B9 73.2(3)
B3 C7 B4 C8 140.7(2)
B3 C7 B4 B1 42.90(19)
B3 C7 B4 B5 106.1(2)
B3 C7 B11 B2 -41.15(18)
B3 C7 B11 B10 -102.3(2)
B3 B1 B2 B6 136.7(2)
B3 B1 B2 B10 106.2(2)
B3 B1 B2 B11 38.8(2)
B3 B1 B4 C7 -42.29(19)
B3 B1 B4 C8 -98.0(2)
B3 B1 B4 B5 -140.7(2)
B3 B1 B5 C8 -7.5(2)
B3 B1 B5 B4 35.07(19)
B3 B1 B5 B6 -99.5(2)
B3 B1 B5 B9 -62.8(2)
B3 B1 B6 N1 -128.6(3)
B3 B1 B6 B2 -37.66(19)
B3 B1 B6 B5 101.0(2)
B3 B1 B6 B9 62.6(3)
B3 B1 B6 B10 -5.5(3)
B3 B2 B6 N1 166.30(19)
B3 B2 B6 B1 38.12(19)
B3 B2 B6 B5 0.5(3)
B3 B2 B6 B9 -65.3(2)
B3 B2 B6 B10 -107.0(2)
B3 B2 B10 O1 -173.20(19)
B3 B2 B10 B6 95.1(2)
B3 B2 B10 B9 55.7(2)
B3 B2 B10 B11 -38.9(2)
B3 B2 B11 C7 42.2(2)
B3 B2 B11 B10 138.9(2)
B3 B4 B5 C8 94.2(2)
B3 B4 B5 B1 -36.1(2)
B3 B4 B5 B6 4.1(3)
B3 B4 B5 B9 66.2(3)
B4 C7 C8 B5 37.3(2)
B4 C7 C8 B9 110.1(2)
B4 C7 B3 B1 -42.66(18)
B4 C7 B3 B2 -105.6(2)
B4 C7 B3 B11 -146.2(2)
B4 C7 B11 B2 -7.8(3)
B4 C7 B11 B3 33.3(2)
B4 C7 B11 B10 -69.0(3)
B4 C8 B5 B1 42.72(19)
B4 C8 B5 B6 104.1(2)
B4 C8 B5 B9 145.7(2)
B4 C8 B9 B5 -33.8(2)
B4 C8 B9 B6 8.1(3)
B4 C8 B9 B10 68.0(3)
B4 B1 B2 B3 -38.56(19)
B4 B1 B2 B6 98.1(2)
B4 B1 B2 B10 67.6(2)
B4 B1 B2 B11 0.3(3)
B4 B1 B3 C7 42.42(18)
B4 B1 B3 B2 135.7(2)
B4 B1 B3 B11 98.3(2)
B4 B1 B5 C8 -42.58(18)
B4 B1 B5 B6 -134.6(2)
B4 B1 B5 B9 -97.9(2)
B4 B1 B6 N1 169.4(2)
B4 B1 B6 B2 -99.7(2)
B4 B1 B6 B5 38.91(19)
B4 B1 B6 B9 0.5(3)
B4 B1 B6 B10 -67.6(2)
B4 B3 B11 C7 -29.93(19)
B4 B3 B11 B2 101.7(2)
B4 B3 B11 B10 65.5(2)
B4 B5 B6 N1 -162.6(3)
B4 B5 B6 B1 -39.94(19)
B4 B5 B6 B2 -2.8(3)
B4 B5 B6 B9 98.8(2)
B4 B5 B6 B10 62.0(3)
B4 B5 B9 C8 30.3(2)
B4 B5 B9 B6 -100.0(2)
B4 B5 B9 B10 -67.0(2)
B5 C8 B4 C7 -140.2(2)
B5 C8 B4 B1 -43.62(19)
B5 C8 B4 B3 -106.1(2)
B5 C8 B9 B6 41.90(19)
B5 C8 B9 B10 101.8(2)
B5 B1 B2 B3 -100.2(2)
B5 B1 B2 B6 36.51(18)
B5 B1 B2 B10 6.0(2)
B5 B1 B2 B11 -61.3(2)
B5 B1 B3 C7 7.7(2)
B5 B1 B3 B2 101.0(2)
B5 B1 B3 B4 -34.75(19)
B5 B1 B3 B11 63.5(3)
B5 B1 B4 C7 98.4(2)
B5 B1 B4 C8 42.63(19)
B5 B1 B4 B3 140.7(2)
B5 B1 B6 N1 130.5(3)
B5 B1 B6 B2 -138.6(2)
B5 B1 B6 B9 -38.4(2)
B5 B1 B6 B10 -106.5(2)
B5 B6 B9 C8 -42.9(2)
B5 B6 B9 B10 -142.2(2)
B5 B6 B10 O1 153.3(2)
B5 B6 B10 B2 -98.7(2)
B5 B6 B10 B9 36.3(2)
B5 B6 B10 B11 -59.8(3)
B5 B9 B10 O1 -118.9(2)
B5 B9 B10 B2 7.8(3)
B5 B9 B10 B6 -33.22(19)
B5 B9 B10 B11 67.2(2)
B6 N1 C12 O1 0.6(3)
B6 N1 C12 C13 178.4(2)
B6 B1 B2 B3 -136.7(2)
B6 B1 B2 B10 -30.49(18)
B6 B1 B2 B11 -97.9(2)
B6 B1 B3 C7 -54.2(2)
B6 B1 B3 B2 39.2(2)
B6 B1 B3 B4 -96.6(2)
B6 B1 B3 B11 1.7(3)
B6 B1 B4 C7 59.5(2)
B6 B1 B4 C8 3.8(2)
B6 B1 B4 B3 101.8(2)
B6 B1 B4 B5 -38.84(18)
B6 B1 B5 C8 92.0(2)
B6 B1 B5 B4 134.6(2)
B6 B1 B5 B9 36.73(19)
B6 B2 B3 C7 62.8(2)
B6 B2 B3 B1 -37.50(19)
B6 B2 B3 B4 2.0(3)
B6 B2 B3 B11 100.4(2)
B6 B2 B10 O1 91.7(2)
B6 B2 B10 B9 -39.39(18)
B6 B2 B10 B11 -134.0(2)
B6 B2 B11 C7 -57.5(2)
B6 B2 B11 B3 -99.7(2)
B6 B2 B11 B10 39.26(17)
B6 B5 B9 C8 130.3(2)
B6 B5 B9 B10 32.97(18)
B6 B9 B10 O1 -85.6(2)
B6 B9 B10 B2 41.05(18)
B6 B9 B10 B11 100.4(2)
B6 B10 B11 C7 57.3(2)
B6 B10 B11 B2 -41.45(19)
B6 B10 B11 B3 -5.5(3)
B9 C8 B4 C7 -104.6(3)
B9 C8 B4 B1 -8.0(3)
B9 C8 B4 B3 -70.5(3)
B9 C8 B4 B5 35.6(2)
B9 C8 B5 B1 -103.0(2)
B9 C8 B5 B4 -145.7(2)
B9 C8 B5 B6 -41.57(19)
B9 B5 B6 N1 98.6(3)
B9 B5 B6 B1 -138.7(2)
B9 B5 B6 B2 -101.6(2)
B9 B5 B6 B10 -36.8(2)
B9 B6 B10 O1 117.0(2)
B9 B6 B10 B2 -135.00(19)
B9 B6 B10 B11 -96.1(2)
B9 B10 B11 C7 -3.7(2)
B9 B10 B11 B2 -102.4(2)
B9 B10 B11 B3 -66.5(2)
B10 O1 C12 N1 0.6(3)
B10 O1 C12 C13 -177.4(2)
B10 B2 B3 C7 1.9(2)
B10 B2 B3 B1 -98.4(2)
B10 B2 B3 B4 -59.0(3)
B10 B2 B3 B11 39.5(2)
B10 B2 B6 N1 -86.7(2)
B10 B2 B6 B1 145.1(2)
B10 B2 B6 B5 107.5(2)
B10 B2 B6 B9 41.71(18)
B10 B2 B11 C7 -96.8(2)
B10 B2 B11 B3 -138.9(2)
B10 B6 B9 C8 99.3(2)
B10 B6 B9 B5 142.2(2)
B11 C7 C8 B4 -109.5(2)
B11 C7 C8 B5 -72.2(3)
B11 C7 C8 B9 0.6(3)
B11 C7 B3 B1 103.6(2)
B11 C7 B3 B2 40.59(18)
B11 C7 B3 B4 146.2(2)
B11 C7 B4 C8 105.9(3)
B11 C7 B4 B1 8.1(3)
B11 C7 B4 B3 -34.8(2)
B11 C7 B4 B5 71.3(3)
B11 B2 B3 C7 -37.63(18)
B11 B2 B3 B1 -137.9(2)
B11 B2 B3 B4 -98.5(2)
B11 B2 B6 N1 -128.8(2)
B11 B2 B6 B1 103.0(2)
B11 B2 B6 B5 65.4(2)
B11 B2 B6 B9 -0.4(2)
B11 B2 B6 B10 -42.11(18)
B11 B2 B10 O1 -134.3(2)
B11 B2 B10 B6 134.0(2)
B11 B2 B10 B9 94.6(2)
B11 B3 B4 C7 27.83(18)
B11 B3 B4 C8 -4.0(2)
B11 B3 B4 B1 -102.6(2)
B11 B3 B4 B5 -66.2(3)
loop_
_refln_index_h
_refln_index_k
_refln_index_l
_refln_F_squared_meas
_refln_F_squared_sigma
_refln_scale_group_code
0 2 0 517427 2940.92 6
0 3 0 244661 2496.02 6
0 4 0 14731.2 718.474 6
0 5 0 25975.7 1075.76 6
0 6 0 10702.3 779.578 6
0 7 0 14423.1 988.667 6
0 8 0 6365.93 713.113 6
0 8 0 4623 414.757 3
0 9 0 13149.9 1090.81 6
0 10 0 2554.54 526.068 6
0 11 0 3547.62 644.085 6
0 -11 0 3506.43 687.478 5
0 -12 0 2205.06 566.021 5
0 12 0 2132.4 538.698 6
0 -13 0 1026.64 405.223 5
0 -13 1 293.021 229.671 5
0 12 -1 299.805 214.602 6
0 -12 1 313.647 245.402 5
0 11 -1 1987.57 500.147 6
0 10 -1 2077.15 472.157 6
0 9 -1 747.707 243.427 6
0 8 -1 1247.28 313.044 6
0 7 -1 1216.37 297.66 6
0 7 -1 1020 168.575 3
0 6 -1 26059.5 1233.61 6
0 6 -1 25613.3 783.978 3
0 5 -1 24968.5 1085.06 6
0 5 -1 23132.7 680.8 3
0 4 -1 54377.2 1189.1 4
0 4 -1 51384.8 939.261 3
0 4 -1 52177.3 1408.43 6
0 3 -1 4472.09 234.743 3
0 3 -1 4241.68 297.851 4
0 3 -1 4126.75 348.343 6
0 -2 1 633419 2484.22 3
0 2 -1 640111 3506.76 6
0 2 -1 638206 2379.57 3
0 2 -1 634295 2886.67 2
0 2 -1 641157 3058.76 4
0 -2 -1 95608.7 1554.01 5
0 2 1 99928.8 1168.3 6
0 3 1 632.188 121.54 6
0 -3 -1 625.82 115.873 6
0 4 1 7086.46 474.437 6
0 5 1 457.397 145.393 6
0 6 1 6653.32 586.018 6
0 7 1 40977.6 1610.64 6
0 8 1 1277.21 317.714 6
0 -9 -1 2512.66 505.046 5
0 9 1 1768.09 406.465 6
0 10 1 184.79 181.644 6
0 -10 -1 181.656 182.359 5
0 11 1 2933.81 566.081 6
0 -11 -1 3221.23 654.452 5
0 -12 -1 186.359 192.655 5
0 12 1 490.625 258.145 6
0 13 1 1440.17 469.309 6
0 -13 -1 1106.13 423.502 5
0 12 -2 250.337 214.66 6
0 11 -2 385.67 275.461 6
0 10 -2 5450.66 779.956 6
0 9 -2 1197.87 363.406 6
0 8 -2 8202.17 833.448 6
0 7 -2 1425.17 170.781 3
0 7 -2 914.075 267.083 6
0 6 -2 75429 2166.05 6
0 6 -2 72225.5 1200.22 3
0 5 -2 38594.5 1415.43 6
0 5 -2 41638.1 855.423 3
0 -4 2 14403.2 509.615 3
0 4 -2 14806.9 608.209 2
0 4 -2 14972.1 486.521 3
0 4 -2 15281.2 787.319 6
0 -3 2 33665.4 840.263 2
0 -3 2 34432.8 769.899 3
0 -3 2 33379.2 948.66 4
0 3 -2 33915.5 803.477 2
0 3 -2 35602.2 709.631 3
0 3 -2 34746.9 1058 6
0 3 -2 36152.4 906.984 4
0 -2 2 397.122 77.9103 3
0 -2 2 402.446 94.8762 4
0 2 -2 437.748 79.1922 3
0 2 -2 279.6 81.5808 6
0 -2 2 426.539 81.4964 2
0 1 -2 13146.9 433.324 6
0 1 -2 13913.3 443.527 3
0 1 -2 13316.8 402.92 5
0 0 -2 202409 1649.94 5
0 -1 -2 230.465 74.0539 5
0 2 2 77562.2 917.998 6
0 -2 -2 76154.2 854.014 6
0 3 2 86062 1329.79 6
0 -3 -2 88257.4 1258.36 6
0 -3 -2 88023.6 1859.36 5
0 -4 -2 975.683 219.805 5
0 4 2 764.182 151.628 6
0 5 2 1009.26 202.707 6
0 -5 -2 1834.01 340.161 5
0 6 2 1924.89 306.128 6
0 -6 -2 2302.18 407.827 5
0 7 2 1412.71 295.832 6
0 -7 -2 1788.81 374.046 5
0 8 2 944.875 261.796 6
0 -8 -2 1496.86 372.167 5
0 -9 -2 2247.96 491.745 5
0 9 2 2283.33 451.356 6
0 10 2 145.281 115.884 6
0 -10 -2 -147.597 151.117 5
0 -11 -2 107.052 191.543 5
0 11 2 84.526 131.122 6
0 12 2 541.533 276.671 6
0 -12 -2 698.074 319.21 5
0 13 2 -137.271 179.855 6
0 12 -3 5846.03 922.004 6
0 11 -3 325.579 234.722 6
0 10 -3 8062.88 970.023 6
0 9 -3 419.986 239.535 6
0 8 -3 3509.06 585.719 6
0 7 -3 18032.2 593.36 3
0 7 -3 17474.1 1159.01 6
0 6 -3 7199.55 722.058 6
0 6 -3 6237.41 365.916 3
0 -5 3 4477.19 334.997 3
0 5 -3 4312.87 488.93 6
0 5 -3 4489.48 303.744 3
0 4 -3 16342.1 856.516 6
0 -4 3 15612.2 684.559 2
0 -4 3 17274.6 822.813 4
0 -4 3 17692.7 659.431 3
0 4 -3 17058.6 595.093 3
0 -3 3 3228.25 329.811 4
0 -3 3 2854.75 260.429 3
0 3 -3 3022.79 327.528 6
0 3 -3 3116.15 255.188 3
0 -3 3 2894.33 265.847 2
0 2 -3 7575.51 398.06 3
0 -2 3 7161.24 407.414 3
0 2 -3 7314.3 434.532 6
0 -2 3 7692.53 389.834 5
0 -2 3 7152.43 452.79 4
0 -1 3 1050.36 139.828 5
0 1 -3 1068.9 154.007 3
0 1 -3 927.051 130.308 5
0 -1 3 1031.76 126.821 6
0 1 -3 955.294 130.179 6
0 0 -3 32607.4 536.418 6
0 0 3 32815.8 539.257 1
0 0 -3 32989.7 835.064 5
0 0 3 32733.5 500.148 6
0 -1 -3 64.0253 56.6076 5
0 -2 -3 8543.39 222.63 6
0 2 3 8660.35 261.91 6
0 -2 -3 8723.84 556.293 5
0 3 3 959.688 139.904 6
0 -3 -3 708.454 102.196 6
0 -4 -3 14916.9 900.024 5
0 4 3 14054.3 618.761 6
0 -5 -3 3808.42 511.447 5
0 5 3 3093.99 334.727 6
0 -6 -3 8003.65 782.045 5
0 6 3 6460.74 551.244 6
0 7 3 1930.75 330.136 6
0 -7 -3 2019.12 424.423 5
0 8 3 195.39 131.853 6
0 -8 -3 -4.39888 115.374 5
0 9 3 2045.07 403.585 6
0 -9 -3 1984.45 471.661 5
0 -10 -3 11.1532 109.941 5
0 10 3 305.133 180.767 6
0 -11 -3 343.282 270.846 5
0 11 3 574.507 253.425 6
0 -12 -3 522.739 295.219 5
0 12 3 66.8968 143.63 6
0 11 -4 2049.02 532.773 6
0 10 -4 1851.56 483.24 6
0 9 -4 279.981 192.032 6
0 8 -4 18672.3 1324.01 6
0 7 -4 -98.2008 171.476 6
0 6 -4 16635.7 647.057 3
0 6 -4 16522.7 1077.78 6
0 -5 4 20883.5 1043.2 4
0 5 -4 20590.3 1102.77 6
0 5 -4 21243.3 746.198 3
0 4 -4 2453.48 352.486 6
0 -4 4 2192.44 267.55 2
0 4 -4 2478.42 258.692 3
0 -4 4 2738.81 352.748 4
0 -3 4 72910.5 1697.94 4
0 -3 4 73027.3 1460.19 2
0 3 -4 73342 1688.32 6
0 3 -4 74400.5 1427.32 3
0 2 -4 63899.5 1280.93 5
0 2 -4 63004.8 1366.37 6
0 2 -4 67012.8 1376.47 3
0 -1 4 64.4554 39.1537 6
0 1 -4 22.952 46.8462 5
0 1 -4 49.1363 53.7578 6
0 0 -4 73626.6 1401.38 5
0 0 4 70408.3 889.837 1
0 0 -4 70593.2 892.916 6
0 0 4 70214.7 818.436 6
0 -1 -4 3190.42 325.962 5
0 -2 -4 14114.3 764.998 5
0 -3 -4 658.501 189.558 5
0 -3 -4 514.131 67.3015 6
0 3 4 451.667 76.7866 6
0 -4 -4 98239.6 1277.53 6
0 4 4 96154 1509.21 6
0 5 4 1472.41 231.389 6
0 -5 -4 1286.59 313.453 5
0 6 4 24467.9 1034.79 6
0 -6 -4 25881 1462.04 5
0 7 4 6334.11 581.788 6
0 -7 -4 6285.68 760.161 5
0 8 4 2199.33 381.685 6
0 -8 -4 2150.49 488.048 5
0 -9 -4 2994.34 596.111 5
0 9 4 1744.35 366.025 6
0 10 4 1412.49 357.852 6
0 -10 -4 1923.51 498.333 5
0 -11 -4 323.737 234.009 5
0 -12 -4 131.742 148.727 5
0 11 -5 95.9193 189.721 6
0 10 -5 204.163 178.557 6
0 9 -5 164.336 122.136 6
0 8 -5 7935.03 880.65 6
0 7 -5 -24.912 108.441 6
0 6 -5 457.387 119.52 3
0 6 -5 385.213 171.902 6
0 5 -5 38094.3 1534.47 6
0 -5 5 35818.7 1463.65 4
0 -5 5 37689.6 1262.49 2
0 5 -5 39821.7 1146.91 3
0 -4 5 2435.91 368.894 4
0 4 -5 2644.39 374.724 6
0 -4 5 2509.58 306.666 2
0 4 -5 2797.62 307.473 3
0 3 -5 2577.75 329.338 6
0 -3 5 2414.99 349.863 4
0 2 -5 65432.5 1422.55 5
0 2 -5 64631 1469.54 6
0 -1 5 30391.5 775.761 6
0 1 -5 29574.6 841.482 6
0 1 -5 30488.1 971.691 5
0 0 5 212.431 50.9107 6
0 0 5 181.115 53.7425 1
0 0 -5 317.638 120.298 5
0 -1 -5 2953.63 342.383 5
0 -2 -5 19070.1 951.903 5
0 -3 -5 40.2935 64.2708 5
0 -4 -5 35258.9 1536.57 5
0 -4 -5 29639.2 599.642 6
0 -5 -5 204.053 172.445 5
0 5 5 141.759 83.256 6
0 6 5 360.139 123.947 6
0 -6 -5 267.766 179.8 5
0 -7 -5 1576.74 397.132 5
0 7 5 808.36 202.41 6
0 8 5 7892.4 681.982 6
0 -8 -5 7386.46 905.551 5
0 -9 -5 -33.504 119.536 5
0 -10 -5 5218.41 838.638 5
0 -11 -5 3524.73 733.609 5
0 11 -6 367.843 247.99 6
0 10 -6 992.94 365.965 6
0 9 -6 542.766 274.359 6
0 8 -6 821.693 301.666 6
0 7 -6 -247.538 166.887 6
0 6 -6 1411.28 330.293 6
0 -6 6 1221.34 304.874 4
0 -6 6 1482.62 281.164 2
0 -5 6 13313.3 797.815 2
0 -5 6 12187.5 908.041 4
0 5 -6 12586.4 918.503 6
0 -4 6 359.942 174.489 4
0 -4 6 461.332 150.413 2
0 4 -6 734.842 208.309 6
0 3 -6 352.018 143.057 6
0 -3 6 397.104 144.814 4
0 2 -6 315.829 126.404 6
0 2 -6 200.566 88.0913 5
0 -1 6 25513.4 827.311 1
0 1 -6 25468.2 825.12 6
0 1 -6 25831.4 994.375 5
0 0 -6 7442.77 557.315 5
0 0 6 6724.01 277.024 6
0 0 6 6688.65 315.52 1
0 -1 -6 -266.974 122.839 5
0 -2 -6 39.6626 76.3448 5
0 -3 -6 5681.14 596.484 5
0 -4 -6 3286.14 490.87 5
0 -5 -6 -108.068 203.462 5
0 -6 -6 2377.72 489.276 5
0 -7 -6 -265.968 193.043 5
0 -8 -6 2447.99 512.13 5
0 -9 -6 2471.93 578.17 5
0 -10 -6 21.7919 259.994 5
0 10 -7 402.237 250.5 6
0 9 -7 930.755 344.629 6
0 8 -7 1753.69 434.087 6
0 7 -7 4266.89 628.472 6
0 6 -7 3.16374 101.402 6
0 -6 7 -176.517 141.958 4
0 -6 7 36.4679 70.5243 2
0 5 -7 2619.7 441.125 6
0 -5 7 2757.03 468.243 4
0 -5 7 3224.5 421.2 2
0 4 -7 10381.8 792.231 6
0 -4 7 9487.15 836.264 4
0 -4 7 11066.5 767.833 2
0 -3 7 8067.26 749.762 4
0 3 -7 7359.08 606.089 6
0 2 -7 467.317 157.51 5
0 2 -7 276.691 114.668 6
0 -1 7 3585.51 320.966 1
0 1 -7 4438.74 445.28 5
0 0 -7 3430.84 418.52 5
0 0 7 1384.97 129.503 6
0 -1 -7 524.774 182.274 5
0 -2 -7 50480.3 1745.22 5
0 -3 -7 2894.57 450.985 5
0 -4 -7 36132.1 1671.92 5
0 -5 -7 -11.1231 134.731 5
0 -6 -7 -88.6484 131.78 5
0 -7 -7 1730.33 447.678 5
0 -8 -7 50.2023 137.952 5
0 -9 -7 207.912 198.972 5
0 -10 -7 -788.378 365.757 5
0 10 -8 2.71628 102.507 6
0 9 -8 1350.61 430.664 6
0 8 -8 609.506 266.014 6
0 -7 8 145.986 150.504 4
0 7 -8 41.9774 145.291 6
0 -6 8 686.994 260.059 4
0 6 -8 478.67 216.25 6
0 5 -8 4642.67 592.155 6
0 -5 8 4441.55 523.49 2
0 -5 8 4230.72 617.355 4
0 4 -8 8.15299 62.1174 6
0 -4 8 63.8938 75.0194 2
0 -4 8 208.123 168.975 4
0 -3 8 535.598 210.424 4
0 3 -8 339.726 131.287 5
0 3 -8 593.192 167.423 6
0 2 -8 753.63 185.724 6
0 2 -8 1354.51 277.125 5
0 -2 8 938.655 195.48 1
0 1 -8 2841.17 392.01 5
0 -1 8 2590.66 271.172 1
0 0 -8 2539.68 393.675 5
0 -1 -8 24144.5 1207.55 5
0 -2 -8 430.198 144.428 5
0 -3 -8 4743.42 599.512 5
0 -4 -8 20627 1310.44 5
0 -5 -8 2980.72 538.707 5
0 -6 -8 500.806 254.914 5
0 -7 -8 1402.05 423.243 5
0 -8 -8 613.934 282.296 5
0 -9 -8 -27.2488 95.2897 5
0 9 -9 464.125 248.116 6
0 8 -9 836.513 323.315 6
0 7 -9 1630.79 417.827 6
0 -7 9 1669.11 439.154 4
0 -6 9 478.212 241.815 4
0 6 -9 201.547 160.458 6
0 -5 9 -51.4243 128.251 4
0 5 -9 -259.69 158.69 6
0 -5 9 -22.9301 65.9183 2
0 -4 9 860.594 238.554 1
0 -4 9 816.248 301.152 4
0 4 -9 907.538 243.592 6
0 -3 9 3922.07 611.659 4
0 3 -9 3776.64 461.576 6
0 3 -9 3314.4 445.233 5
0 -3 9 3226.22 419.266 1
0 2 -9 10251 778.071 5
0 1 -9 54944.9 1822.55 5
0 0 -9 20316 1132.67 5
0 -1 -9 11358.7 882.628 5
0 -2 -9 64402.4 2203.72 5
0 -3 -9 2769.95 485.259 5
0 -4 -9 15565.8 1185.24 5
0 -5 -9 3295.34 583.85 5
0 -6 -9 2491.98 527.423 5
0 -7 -9 3587.94 668.066 5
0 -8 -9 -183.12 182.558 5
0 9 -10 2279.65 563.778 6
0 -9 10 2621.72 604.906 1
0 -8 10 2987.33 612.369 1
0 8 -10 2321.1 536.878 6
0 7 -10 -256.525 179.566 6
0 -7 10 -229.439 181.881 1
0 -7 10 297.797 218.299 4
0 -6 10 -29.46 114.558 4
0 -6 10 -300.464 186.061 1
0 6 -10 16.5018 87.4066 6
0 -5 10 146.864 129.134 4
0 -5 10 -42.9674 97.5399 1
0 -4 10 89.3099 149.473 4
0 -3 10 5975.9 804.647 4
0 3 -10 5566.94 611.76 5
0 2 -10 34.0345 58.1887 5
0 1 -10 7220.3 698.562 5
0 0 -10 943.743 271.689 5
0 -1 -10 89.462 111 5
0 -2 -10 90.7912 142.217 5
0 -3 -10 953.319 311.889 5
0 -4 -10 7030.04 829.577 5
0 -5 -10 703.482 290.387 5
0 -6 -10 -137.596 170.838 5
0 -7 -10 -100.418 149.973 5
0 -7 11 2105.49 564.699 4
0 -6 11 1011.73 389.593 4
0 -5 11 531.946 281.643 4
0 -4 11 5913.32 865.787 4
0 3 -11 31.9774 67.6859 5
0 -3 11 98.1148 126.685 4
0 2 -11 460.228 194.225 5
0 1 -11 545.109 235.121 5
0 0 -11 1062.34 295.599 5
0 -1 -11 1651.06 380.472 5
0 -2 -11 -94.192 126.786 5
0 -3 -11 346.481 237.003 5
0 -4 -11 -26.4027 107.779 5
0 -5 -11 189.555 174.377 5
0 -6 -11 647.684 305.582 5
0 -6 12 230.021 215.184 4
0 -5 12 1914.83 527.248 4
0 -4 12 1090.96 403.036 4
0 -3 12 13.635 102.056 4
0 -2 12 2046.13 556.223 4
0 1 -12 1603.12 382.713 5
0 0 -12 988.238 308.535 5
0 -1 -12 700.634 256.325 5
0 -2 -12 163.89 142.075 5
0 -3 -12 416.342 224.351 5
0 -4 -12 429.882 229.267 5
0 -5 -12 153.37 160.681 5
0 0 -13 1930.36 446.951 5
0 -1 -13 -161.563 147.475 5
0 -2 -13 404.796 217.322 5
0 -3 -13 440.326 266.858 5
1 -4 -13 -32.8822 101.65 5
1 -3 -13 1202.68 372.631 5
1 -5 -12 146.389 166.417 5
1 -4 -12 2743.73 546.568 5
1 -3 -12 167.726 180.659 5
1 -2 -12 1882.51 418.139 5
1 -1 -12 393.2 203.261 5
-1 0 12 502.335 276.201 4
-1 -1 12 1864.82 518.927 4
-1 -2 12 1735.38 506.212 4
-1 -3 12 131.878 188.005 4
-1 -4 12 -69.1185 138.678 4
-1 -5 12 1676.44 527.434 4
1 -7 -11 754.436 363.84 5
1 -6 -11 2542.52 567.26 5
1 -5 -11 458.132 249.61 5
1 -4 -11 461.403 220.576 5
1 -3 -11 2443.49 478.328 5
1 -2 -11 1000.94 302.397 5
1 -1 -11 1293.48 318.862 5
1 0 -11 3118.66 473.673 5
-1 -1 11 190.554 172.169 4
-1 -2 11 979.109 371.291 4
-1 -3 11 -109.964 138.092 4
-1 -4 11 238.615 194.652 4
-1 -5 11 -18.0761 157.293 4
-1 -6 11 209.183 201.153 4
1 -8 -10 320.905 212.307 5
1 -7 -10 -218.71 202.08 5
1 -6 -10 147.612 154.958 5
1 -5 -10 2494.41 505.146 5
1 -4 -10 1501.84 375.485 5
1 -3 -10 659.356 253.33 5
1 -2 -10 575.962 208.007 5
1 -1 -10 775.515 237.49 5
1 0 -10 1737.83 334.42 5
-1 -1 10 731.42 276.816 4
1 1 -10 899.919 231.651 5
1 2 -10 211.932 105.617 5
-1 -2 10 642.709 278.092 4
-1 -3 10 679.005 306.861 4
-1 -4 10 1686.18 464.675 4
-1 -4 10 1417.8 333.87 1
-1 -5 10 69.3556 91.4371 1
-1 -5 10 67.6831 116.477 4
-1 -6 10 122.539 214.579 4
-1 -6 10 380.245 227.399 1
-1 -7 10 401.371 231.427 1
-1 -8 10 2055.27 530.709 1
1 -9 -9 210.419 225.762 5
1 -8 -9 1297.25 427.734 5
1 -7 -9 1821.84 466.37 5
1 -6 -9 5379.84 772.262 5
1 -5 -9 1886 433.568 5
1 -4 -9 -47.019 104.355 5
1 -3 -9 248.039 182.171 5
1 -2 -9 5839.07 639.189 5
1 -1 -9 2453.32 391.495 5
1 0 -9 2328.97 361.699 5
1 1 -9 22616.3 1081.73 5
-1 -1 9 20209.7 1406.31 4
-1 -2 9 40158.4 2003.02 4
-1 -2 9 38365.1 1401.04 1
1 2 -9 36376.7 1364.9 5
-1 -3 9 16049.2 1298.81 4
-1 -3 9 17498.6 1047.88 1
-1 -4 9 4714.26 722.8 4
-1 -4 9 4951.36 613.693 1
-1 -5 9 376.518 252.073 4
-1 -5 9 22.9205 106.884 1
-1 -6 9 1412.06 387.283 1
-1 -6 9 1191.91 389.323 4
-1 -7 9 1471.08 412.895 1
-1 -8 9 -49.3202 176.282 1
-1 -9 9 19.2965 102.479 1
1 -9 -8 1556.32 479.947 5
1 -8 -8 -28.7528 112.375 5
1 -7 -8 -233.905 196.354 5
1 -6 -8 318.002 203.937 5
1 -5 -8 3087.11 526.125 5
1 -4 -8 15914.5 1137.14 5
1 -3 -8 32617.3 1512.67 5
1 -2 -8 4087.82 514.104 5
1 -1 -8 29616.4 1278.08 5
1 0 -8 96276 2168.83 5
1 1 -8 39919.2 1343.11 5
-1 -1 8 44326.1 1929.35 4
1 2 -8 39910.5 1306.59 5
-1 -2 8 40886.1 1887.63 4
-1 -2 8 41083.9 1424.08 1
1 3 -8 363.236 177.682 3
-1 -3 8 165.031 137.775 4
1 4 -8 2987.69 454.76 3
-1 -4 8 2708.69 439.46 1
-1 -4 8 2378.94 341.881 2
-1 -4 8 2785.9 527.695 4
1 5 -8 4311.09 534.846 3
-1 -5 8 4384.02 679.137 4
-1 -5 8 4721.19 631.167 1
-1 -6 8 4.91361 127.569 1
1 6 -8 231.161 135.595 3
1 6 -8 249.267 161.771 6
-1 -6 8 268.044 191.389 4
1 7 -8 2321.29 494.914 6
-1 -7 8 1880.67 463.962 1
1 8 -8 432.334 271.882 6
-1 -8 8 128.163 209.704 1
-1 -9 8 2166.02 544.217 1
1 -10 -7 261.677 219.562 5
1 -9 -7 708.122 324.285 5
1 -8 -7 2388.46 554.038 5
1 -7 -7 -420.582 245.186 5
1 -6 -7 2673.01 514.119 5
1 -5 -7 1858.03 396.749 5
1 -4 -7 30203.3 1509.76 5
1 -3 -7 17728.1 1075.73 5
1 -2 -7 4748.66 509.043 5
1 -1 -7 1836.88 305.93 5
-1 1 7 1602.8 161.56 6
1 0 -7 4299.12 422.61 5
1 1 -7 3880.32 385.086 5
1 1 -7 3634.22 465.302 3
-1 -1 7 3749.09 374.205 1
-1 -1 7 5086.21 618.303 4
-1 -2 7 334.629 176.93 4
-1 -2 7 325.107 128.166 1
1 2 -7 323.515 145.895 3
1 2 -7 264.449 107.255 5
1 3 -7 2342.39 374.186 3
-1 -3 7 2653.64 391.374 1
-1 -3 7 2408.04 442.907 4
1 4 -7 12594.6 854.387 3
-1 -4 7 13743.6 972.319 1
-1 -4 7 13422.6 736.577 2
-1 -4 7 11944.8 1021.39 4
1 5 -7 11032.7 927.109 6
-1 -5 7 10798.2 1009.56 4
-1 -5 7 10861 937.128 1
1 5 -7 11254 807.252 3
1 6 -7 714.807 250.567 6
-1 -6 7 1180.12 331.122 1
1 6 -7 984.17 243.2 3
1 7 -7 1487.31 393.608 6
1 8 -7 420.634 225.439 6
1 9 -7 1765.4 480.034 6
1 10 -7 635.034 289.511 6
-1 -10 7 411.357 239.304 1
1 -11 -6 -115.265 198.492 5
1 -10 -6 4279.52 785.467 5
1 -9 -6 1016.26 362.649 5
1 -8 -6 2997.5 605.841 5
1 -7 -6 1042.61 339.885 5
1 -6 -6 2813.84 517.413 5
-1 6 6 2468.27 279.332 6
1 -5 -6 29866.9 1556.09 5
-1 5 6 28531.9 780.523 6
1 -4 -6 252.297 135.341 5
-1 4 6 374.443 70.9431 6
-1 3 6 13943 330.739 6
1 -3 -6 15562.7 970.395 5
1 -2 -6 287.218 72.7624 1
-1 2 6 456.256 70.4874 6
-1 2 6 318.816 50.826 6
1 -2 -6 171.077 97.5487 5
1 -1 -6 33.4709 48.7427 5
-1 1 6 46.7945 35.2091 6
1 0 -6 50589.8 1318.58 5
1 0 -6 50854.4 1632.09 3
-1 -1 6 1911.43 258.122 1
1 1 -6 2122.16 258.468 5
1 1 -6 2211.15 341.053 3
1 2 -6 69.3586 57.6854 5
1 2 -6 59.9217 74.3993 3
-1 -2 6 70.4307 75.4286 1
-1 -2 6 56.3781 72.4714 4
1 3 -6 33995 1310.54 3
-1 -3 6 33989.4 1532.28 4
-1 -3 6 31890.1 1313.84 1
1 4 -6 1917.02 312.535 3
-1 -4 6 1284.18 202.49 2
-1 -4 6 1702.35 343.325 1
1 4 -6 1936.43 357.059 6
-1 -4 6 1787.88 388.872 4
1 5 -6 4231.62 550.201 6
-1 -5 6 4455.29 614.297 4
1 5 -6 4587.09 489.333 3
-1 -5 6 4122.41 368.197 2
1 6 -6 3910.69 444.964 3
1 6 -6 2856.57 499.642 6
1 7 -6 829.511 287.293 6
1 8 -6 -355.722 223.253 6
1 9 -6 464.224 265.766 6
1 10 -6 -297.402 246.688 6
1 -11 -5 3167.41 687.202 5
1 -10 -5 11407.8 1259.42 5
1 -9 -5 10994.6 1166.47 5
1 -8 -5 1100.78 389.518 5
-1 8 5 529.86 165.021 6
1 -7 -5 77.3681 137.848 5
-1 7 5 -53.6929 58.0873 6
1 -6 -5 9107.17 894.163 5
-1 6 5 8910.17 567.058 6
1 -5 -5 6674.17 713.41 5
-1 5 5 6237.97 404.273 6
-1 4 5 13817.2 498.928 6
1 -4 -5 14291.6 969.555 5
-1 3 5 888.059 105.749 6
1 -3 -5 717.084 195.98 5
1 -2 -5 2893.67 363.413 5
1 -1 -5 102767 1411.92 1
1 -1 -5 103797 1923.49 5
-1 1 5 104550 1345.57 6
1 -1 -5 108311 2210.46 3
1 0 -5 13154.1 607.298 5
-1 0 5 13155 563.614 6
1 0 -5 14072.9 794.563 3
1 1 -5 27075.2 800.507 5
-1 -1 5 27387.9 954.03 1
1 1 -5 27763 1102.05 3
1 2 -5 5550.27 361.609 5
-1 -2 5 5932.37 494.416 1
1 2 -5 5515.41 495.659 3
1 3 -5 477.741 159.805 6
-1 -3 5 816.412 213.768 1
1 3 -5 927.527 207.836 3
-1 -3 5 760.838 242.345 4
1 4 -5 6922.38 649.739 6
-1 -4 5 6989.23 687.056 4
-1 -4 5 6293.2 402.712 2
1 4 -5 7400.43 578.625 3
1 5 -5 189.886 112.639 3
1 5 -5 362.254 160.179 6
1 6 -5 4332.99 603.768 6
1 6 -5 4284.84 446.161 3
1 7 -5 2520.18 498.73 6
1 8 -5 1960.15 444.528 6
1 9 -5 747.017 305.349 6
1 10 -5 977.482 368.803 6
1 11 -5 724.895 323.209 6
1 -12 -4 3002.73 706.44 5
1 -11 -4 9429.71 1175.13 5
1 -10 -4 56.6569 128.704 5
-1 10 4 -57.0587 134.445 6
1 -9 -4 1435.56 408.499 5
-1 9 4 1181.38 290.377 6
1 -8 -4 6715.52 844.193 5
-1 8 4 7629.11 676.151 6
-1 7 4 20426 996.293 6
1 -7 -4 22954.3 1465.53 5
1 -6 -4 32242.7 1630.53 5
-1 6 4 30777.4 1102.6 6
-1 5 4 87.8591 62.8323 6
1 -5 -4 -320.322 170.999 5
1 -4 -4 25455.2 1237.09 5
-1 4 4 23042.8 703.973 6
1 -3 -4 175149 2926.26 5
-1 3 4 173380 1529.5 6
1 -2 -4 6204.32 490.61 5
1 -2 -4 6002.49 474.295 3
1 -1 -4 113838 2052.7 3
1 -1 -4 116036 1857.73 5
1 -1 -4 116098 1410.38 1
1 0 -4 32785.8 1096.9 3
1 0 -4 32774.6 858.867 1
1 0 -4 32366.1 824.545 5
-1 0 4 32753.7 849.705 6
-1 0 4 31455.1 919.535 5
1 1 -4 16583.1 531.19 5
-1 -1 4 17129.6 587.123 5
1 1 -4 16472.5 784.283 3
-1 -2 4 1267.43 149.124 5
1 2 -4 1105.06 208.212 3
-1 -2 4 1186.07 215.38 1
1 3 -4 21321.1 909.55 3
1 3 -4 21000.1 985.865 6
-1 -3 4 22186.4 1122.39 4
-1 -3 4 21610 621.126 2
-1 -3 4 20654.3 637.247 5
1 4 -4 34411.1 1171.31 3
1 4 -4 30631.2 1320.55 6
1 5 -4 22778.9 1237.87 6
1 5 -4 23470.4 990.616 3
1 6 -4 27584.7 1467.87 6
1 6 -4 26123.5 1049.46 3
1 7 -4 -408.69 213.613 6
1 7 -4 -19.0851 51.4561 3
1 8 -4 388.647 191.239 6
1 9 -4 4431.21 705.514 6
1 10 -4 -71.0813 246.87 6
1 11 -4 308.618 163.244 6
-1 12 3 244.403 198.814 6
1 -12 -3 -65.6786 158.179 5
-1 11 3 1410.57 389.12 6
1 -11 -3 1262.19 448.941 5
1 -10 -3 2434 567.067 5
-1 10 3 1470.03 365.246 6
-1 9 3 2009.2 386.265 6
1 -9 -3 2734.66 567.928 5
-1 8 3 4402.58 526.015 6
1 -8 -3 4469.92 672.401 5
1 -7 -3 30870.2 1666.96 5
-1 7 3 25527.6 1149.7 6
1 -6 -3 1413.46 326.579 5
-1 6 3 1189.71 218.367 6
1 -5 -3 5546.85 615.871 5
-1 5 3 5294.96 407.521 6
-1 4 3 807.453 144.888 6
1 -4 -3 881.598 235.463 5
1 -3 -3 12397.6 759.398 5
-1 3 3 12651.6 443.993 6
1 -2 -3 13041.6 627.422 3
1 -2 -3 14766 702.356 5
1 -1 -3 1189.54 174.726 5
1 -1 -3 1177.22 187.923 3
-1 1 3 1229.63 182.746 5
1 0 -3 2308.73 186.415 5
1 0 -3 2417.92 269.395 3
-1 0 3 2232.62 202.198 5
1 0 -3 2512.79 222.018 1
1 1 -3 5443.29 238.273 5
-1 -1 3 5479.41 257.369 5
1 1 -3 4884.11 391.786 3
-1 -1 3 5081.45 373.829 1
-1 -2 3 33.3453 47.231 1
-1 -2 3 14.0988 11.2904 5
1 2 -3 22.3787 48.2821 3
1 2 -3 72.7973 59.6548 6
1 3 -3 9635.35 577.281 3
-1 -3 3 8528.7 323.24 2
1 3 -3 10214.9 662.68 6
1 4 -3 3061.37 413.663 6
1 4 -3 2413.85 298.004 3
1 5 -3 3020.31 342.703 3
1 5 -3 4001.26 505.803 6
1 6 -3 53.8546 110.408 6
1 6 -3 339.58 116.368 3
1 7 -3 2726.42 488.921 6
1 7 -3 2726.09 343.223 3
1 8 -3 8.59041 127.712 6
1 9 -3 438.572 246.398 6
1 10 -3 -113.287 146.326 6
1 11 -3 1190.64 425.654 6
-1 13 2 1215.41 406.409 6
1 -12 -2 -239.849 212.268 5
-1 12 2 70.5845 117.889 6
-1 11 2 1978.97 465.601 6
1 -11 -2 2396.74 593.109 5
-1 10 2 478.908 214.11 6
1 -10 -2 983.036 344.998 5
-1 9 2 1509.11 337.272 6
-1 8 2 6040.93 620.754 6
-1 7 2 3.7285 65.5837 6
-1 6 2 7411.03 570.603 6
-1 5 2 6928.27 481.612 6
-1 4 2 11099.5 529.27 6
-1 3 2 2.2881 26.6863 6
1 -3 -2 0.61082 20.3141 6
-1 2 2 99.7858 31.019 6
1 -2 -2 104.597 63.9953 3
1 -1 -2 184431 2043.77 3
1 -1 -2 178180 1878.52 5
1 0 -2 5450.72 225.346 5
1 0 -2 5407.44 363.603 3
1 0 -2 5334.22 352.367 4
-1 0 2 5652.02 246.963 5
1 1 -2 43488.1 1067.99 3
-1 -1 2 43062.7 987.72 1
-1 -2 2 8693.98 529.194 1
1 2 -2 9359.18 545.632 6
1 2 -2 8689.78 502.476 3
1 3 -2 705.919 177.331 6
1 3 -2 607.524 145.094 3
1 4 -2 5085.05 422.587 3
1 4 -2 4507.89 479.572 6
1 4 -2 5162.95 275.909 2
1 5 -2 451.068 101.243 2
1 5 -2 623.634 198.636 6
1 5 -2 548.001 144.045 3
1 6 -2 317.109 127.803 3
1 6 -2 297.255 128.887 6
1 7 -2 901.762 205.004 3
1 7 -2 1076.92 285.301 6
1 8 -2 -19.9942 130.96 6
1 9 -2 1291.14 389.218 6
1 10 -2 -328.386 210.849 6
-1 -10 2 188.717 155.773 5
1 11 -2 807.06 332.866 6
1 -13 -1 -260.688 235.335 5
-1 13 1 100.602 162.911 6
1 -12 -1 -209.265 206.264 5
-1 12 1 405.164 210.197 6
-1 11 1 929.583 320.819 6
-1 10 1 -140.075 135.903 6
-1 9 1 797.848 257.894 6
-1 8 1 1104.26 282.275 6
-1 7 1 682.349 198.951 6
-1 6 1 4666.65 468.128 6
-1 6 1 5411.36 340.683 3
-1 5 1 10045.6 442.611 3
-1 5 1 10222.6 608.679 6
-1 4 1 7722.75 459.48 6
-1 4 1 8123.8 383.699 3
1 -3 -1 50106.6 937.917 6
-1 3 1 49038.8 906.835 3
1 -3 -1 47383.5 860.907 3
-1 3 1 47924.3 958.041 6
1 -2 -1 13546.2 455.603 3
-1 2 1 14175.8 425.685 6
1 -1 -1 160388 1443.31 4
1 -1 -1 160246 1656.9 3
1 0 -1 22789.6 662.907 3
1 0 -1 21769 650.243 4
1 1 -1 84339.9 1388.99 3
-1 -1 1 86923.3 1304.2 1
-1 -2 1 237241 2488.47 3
-1 -2 1 228557 2542.37 1
1 2 -1 233409 2512.97 3
1 3 -1 6355.63 448.135 3
1 3 -1 5803.56 470.875 6
1 4 -1 70886.6 1591.56 3
1 4 -1 71882.7 1830.06 6
1 5 -1 8233.81 685.866 6
1 5 -1 8039.31 574.302 3
1 6 -1 794.724 185.319 3
1 6 -1 1171.1 283.738 6
1 7 -1 -287.429 127.03 3
1 7 -1 -18.0937 101.632 6
1 8 -1 337.927 210.556 6
1 8 -1 432.867 160.057 3
-1 -9 1 155.104 146.867 5
1 9 -1 -78.0703 121.632 6
1 10 -1 -21.9551 115.308 6
-1 -10 1 36.5392 139.285 5
-1 -11 1 1942.6 475.98 5
1 11 -1 1977.95 529.317 6
1 12 -1 724.188 365.181 6
1 -13 0 802.979 368.71 5
-1 13 0 402.367 253.009 6
-1 12 0 623.972 301.821 6
-1 11 0 621.951 291.583 6
-1 10 0 -161.315 154.273 6
-1 9 0 4506.67 609.747 6
-1 8 0 6758.07 688.804 6
-1 7 0 14702 445.463 3
-1 7 0 15441.1 954.671 6
-1 6 0 32808.5 627.135 3
-1 6 0 33727.2 1278.09 6
-1 5 0 1.96738 56.5623 6
-1 5 0 58.1699 27.2726 3
-1 4 0 37118.4 584.925 3
-1 4 0 37150.8 1051.82 6
-1 3 0 9606.54 294.432 3
1 -3 0 9759.82 264.914 3
-1 3 0 9200.3 445.039 6
-1 2 0 20144.3 468.505 3
1 -2 0 19507.9 440.139 3
-1 2 0 19424.7 529.734 6
-1 -1 0 912327 3099.05 5
-1 -1 0 923611 3922.08 1
-1 -2 0 113894 1662.03 1
-1 -2 0 111717 1470.41 5
1 3 0 364186 3546.32 6
-1 -3 0 366656 3246.37 5
-1 -4 0 61470.2 1561.81 5
1 4 0 61016.5 1630.66 6
1 5 0 16032.5 917.571 6
-1 -5 0 16813.7 923.229 5
1 6 0 2980.75 433.076 6
-1 -6 0 3465.69 463.279 5
1 7 0 15518.9 902.706 3
-1 -7 0 15149.2 1042.78 5
1 7 0 13508 989.607 6
-1 -8 0 63.9489 96.2711 5
1 8 0 -56.8918 129.583 6
1 8 0 98.2658 91.4292 3
-1 -9 0 99.2117 160.226 5
1 9 0 -14.9121 93.6031 6
-1 -10 0 592.839 254.684 5
1 10 0 942.674 342.558 6
-1 -11 0 1736.77 466.383 5
1 11 0 1491.96 436.893 6
-1 -12 0 1282.59 410.237 5
-1 13 -1 398.842 265.542 6
-1 12 -1 -35.5823 116.524 6
-1 11 -1 237.492 182.799 6
-1 10 -1 17.6758 120.229 6
-1 9 -1 1314.72 348.028 6
-1 8 -1 5552.58 641.904 6
-1 7 -1 9864.11 777.516 6
-1 7 -1 8635.62 423.767 4
-1 6 -1 16357 520.432 4
-1 6 -1 15662.4 901.366 6
-1 5 -1 14.1592 71.1991 6
-1 5 -1 93.756 37.0223 4
-1 4 -1 3856.03 353.619 6
-1 3 -1 5293.39 361.182 6
1 -2 1 202.617 78.4956 2
-1 2 -1 258.195 69.3172 6
1 -1 1 999999 4216.34 2
-1 0 -1 85402.6 1076.73 5
-1 -1 -1 947170 4006.12 5
-1 -1 -1 967956 3649.31 1
-1 -2 -1 221477 2163.35 1
-1 -2 -1 221808 2286.23 6
-1 -2 -1 220271 2369.04 5
-1 -3 -1 70358.6 1557.36 5
-1 -4 -1 65128.8 1676.42 5
1 4 1 63862 1594.4 6
-1 -5 -1 23495.3 1122.83 5
1 5 1 24741.7 1107.69 6
-1 -6 -1 47.4819 98.4966 5
1 6 1 -248.071 139.685 6
1 7 1 34408 1548.19 6
-1 -7 -1 34321.4 1612.59 5
1 8 1 9073.53 868.567 6
-1 -8 -1 7858.98 823.111 5
-1 -9 -1 -136.472 132.601 5
1 9 1 177.363 159.37 6
1 10 1 1148.09 363.393 6
-1 -10 -1 1265.77 385.091 5
-1 -11 -1 475.092 248.651 5
1 11 1 330.216 216.783 6
-1 -12 -1 47.9696 122.832 5
-1 12 -2 -331.782 242.382 6
-1 11 -2 -73.6995 140.674 6
-1 10 -2 377.45 226.39 6
-1 9 -2 16001.3 1193.53 6
-1 8 -2 22272.7 1299.24 6
-1 7 -2 1139.6 273.69 6
-1 6 -2 1640.43 298.396 6
-1 5 -2 117493 2307.27 6
1 -4 2 5367.82 314.552 4
-1 4 -2 5085.11 428.701 6
-1 3 -2 57559.7 1249.7 6
1 -3 2 57710 745.681 3
1 -3 2 57715.7 1340.65 2
-1 2 -2 16717.3 569.891 6
1 -2 2 17025.9 666.484 2
-1 1 -2 6076.14 350.79 5
-1 1 -2 6527.09 286.805 6
-1 0 -2 10814.2 467.119 5
-1 -1 -2 11941.5 544.635 5
1 1 2 12582.2 390.091 1
-1 -2 -2 2190.47 263.742 5
-1 -2 -2 2276.47 216.381 6
-1 -2 -2 2075.3 191.567 1
-1 -3 -2 64836.4 1306.64 1
-1 -3 -2 66500.8 1629.9 5
-1 -4 -2 52193 1604.69 5
1 5 2 289.081 136.47 6
-1 -5 -2 -47.3877 75.2636 5
1 6 2 5662.87 569.382 6
-1 -6 -2 5595.77 626.846 5
-1 -7 -2 32.2585 138.161 5
1 7 2 211.865 138.125 6
-1 -8 -2 6948.74 801.623 5
1 8 2 7329.13 756.168 6
-1 -9 -2 246.864 194.272 5
1 9 2 292.367 182.956 6
1 10 2 326.124 220.551 6
-1 -10 -2 215.322 178.373 5
-1 -11 -2 -40.0659 132.929 5
-1 -12 -2 2142.44 560.169 5
-1 -12 -2 2054.9 513.709 1
-1 12 -3 761.755 328.042 6
-1 11 -3 3013.06 613.84 6
-1 10 -3 5065.85 738.244 6
-1 9 -3 93.3625 114.384 6
-1 8 -3 1797.6 384.081 6
-1 7 -3 18121.3 1124.9 6
-1 6 -3 21815.5 1126.85 6
1 -5 3 30769.9 612.588 3
-1 5 -3 32982.1 1272.11 6
1 -5 3 31226.6 966.736 4
1 -4 3 3109.1 218.915 3
1 -4 3 3313.16 375.698 2
1 -4 3 3082.5 284.302 4
-1 4 -3 3152.72 351.751 6
1 -3 3 17986.9 800.109 2
-1 3 -3 18534.3 744.007 6
1 -3 3 18057 565.047 3
-1 2 -3 1448.15 179.994 6
-1 2 -3 1286.93 188.132 5
-1 1 -3 27402.3 652.443 6
-1 1 -3 29252.2 864.629 5
-1 0 -3 2960.16 279.964 5
-1 0 -3 2749.97 168.034 6
-1 -1 -3 99096.6 1732.41 5
1 1 3 98235.5 954.943 1
-1 -2 -3 60103.3 1016.91 6
-1 -2 -3 59175.4 1497.79 5
-1 -2 -3 59475.5 901.406 1
-1 -3 -3 4912.23 328.391 1
-1 -3 -3 4359.96 321.94 6
-1 -4 -3 21607.5 1094.47 5
-1 -5 -3 2862.77 430.755 5
-1 -6 -3 3078.99 479.965 5
-1 -7 -3 352.005 189.395 5
-1 -8 -3 521.106 238.972 5
-1 -9 -3 -126.381 144.929 5
-1 -10 -3 -148.777 165.928 5
-1 -11 -3 -198.263 183.636 5
-1 -12 -3 42.1176 117.278 5
-1 12 -4 1620.13 499.367 6
-1 11 -4 24258 1754.19 6
-1 10 -4 4363.85 701.698 6
-1 9 -4 7887.98 881.508 6
-1 8 -4 19141.8 1278.03 6
-1 7 -4 8112.99 769.273 6
-1 6 -4 9128.12 755.975 6
1 -6 4 9187.28 632.61 4
1 -6 4 8204.79 385.883 3
-1 5 -4 122.036 127.13 6
1 -5 4 89.1148 49.9525 3
1 -5 4 91.1881 79.2608 2
1 -5 4 76.8732 42.5069 4
-1 4 -4 11613.2 705.309 6
1 -4 4 11269.1 703.998 2
-1 3 -4 1939.07 258.957 6
1 -3 4 2473.19 313.606 2
-1 2 -4 46244.8 1084.22 6
-1 2 -4 45018.9 1251.51 5
-1 1 -4 1895.82 252.826 5
1 -1 4 2278.68 186.468 6
-1 1 -4 1832.81 181.298 6
-1 0 -4 14451.2 395.606 6
-1 0 -4 15657 724.311 5
-1 -1 -4 3425.13 363.75 5
-1 -2 -4 1945.01 302.719 5
-1 -2 -4 1630.43 152.219 6
-1 -3 -4 20996.5 1047.16 5
-1 -3 -4 18706 610.497 6
-1 -3 -4 20960.5 591.801 1
-1 -4 -4 7444.55 675.121 5
-1 -4 -4 7003.74 431.515 1
-1 -5 -4 2803.3 322.073 1
-1 -5 -4 2448.04 420.113 5
-1 -6 -4 1495.67 363.237 5
-1 -7 -4 5972.48 737.837 5
-1 -8 -4 1793.74 430.039 5
-1 -9 -4 439.019 261.902 5
-1 -10 -4 3174.22 633.542 5
-1 -11 -4 1602.36 472.07 5
-1 11 -5 7460.3 1011.29 6
-1 10 -5 -143.996 182.741 6
-1 9 -5 6293.74 804.927 6
-1 8 -5 427.363 191.944 6
-1 7 -5 13781.2 1034.91 6
1 -6 5 2135.36 334.523 4
-1 6 -5 2617.54 421.445 6
1 -6 5 2743.53 411.539 2
-1 5 -5 3038.37 413.688 6
1 -5 5 3048.43 409.902 2
1 -5 5 3383.54 398.721 4
1 -4 5 86255.4 2065.19 2
-1 4 -5 83559.7 1970.94 6
-1 3 -5 878.99 185.16 6
-1 2 -5 42489.7 1297.06 5
-1 2 -5 41585.8 1088.4 6
-1 1 -5 81619.8 1293.07 6
-1 1 -5 85229.1 1797.42 5
-1 0 -5 98.2328 69.8692 5
-1 0 -5 191.353 51.6421 6
-1 -1 -5 9470.02 656.207 5
-1 -1 -5 9476.34 258.388 6
-1 -2 -5 2095.61 327.202 5
-1 -2 -5 2443.57 151.168 6
-1 -3 -5 18778.5 514.487 6
-1 -3 -5 21139.5 1112.61 5
-1 -4 -5 1126.97 151.804 1
-1 -4 -5 1205.5 296.558 5
-1 -5 -5 66024.6 1405.86 1
-1 -5 -5 67859.7 2290.71 5
-1 -6 -5 -97.7438 210.532 5
-1 -6 -5 229.052 107.018 1
-1 -7 -5 10240.5 727.175 1
-1 -7 -5 10482.4 1017.02 5
-1 -8 -5 4387.45 691.781 5
-1 -9 -5 442.173 244.926 5
-1 -10 -5 3313.64 676.787 5
-1 -11 -5 2202.41 568.18 5
-1 11 -6 2050.73 554.156 6
-1 10 -6 -159.008 192.094 6
-1 9 -6 67.4166 167.158 6
-1 8 -6 5924.8 740.905 6
1 -7 6 3205.2 463.851 4
1 -7 6 2903.16 461.804 2
-1 7 -6 3455.54 529.414 6
1 -6 6 600.238 214.558 2
-1 6 -6 651.06 237.277 6
1 -6 6 505.631 182.284 4
-1 5 -6 16534 992.421 6
1 -5 6 17129.1 1014.15 2
1 -5 6 16092 955.374 4
1 -4 6 1655.86 306.287 2
-1 4 -6 1601.44 282.243 6
-1 3 -6 969.933 221.634 5
-1 3 -6 908.905 208.654 6
-1 2 -6 -16.0759 52.898 5
-1 2 -6 57.4411 51.5705 6
-1 1 -6 11035.2 502.615 6
-1 1 -6 11736.3 723.957 5
-1 0 -6 94.1457 82.362 5
-1 0 -6 150.689 47.7083 6
-1 -1 -6 4194.59 471.539 5
-1 -2 -6 160.046 122.65 5
-1 -3 -6 676.019 225.928 5
-1 -4 -6 6254.56 690.133 5
-1 -5 -6 9388.61 890.395 5
-1 -6 -6 11434.5 1035.98 5
-1 -7 -6 -76.1923 145.91 5
-1 -8 -6 272.49 168.888 5
-1 -9 -6 -157.137 197.062 5
-1 -10 -6 56.8483 149.979 5
-1 11 -7 292.399 236.732 6
-1 10 -7 338.796 215.66 6
-1 9 -7 -2.20713 172.822 6
-1 8 -7 304.711 188.964 6
1 -7 7 1076.93 289.448 4
1 -7 7 1339.93 318.373 2
1 -6 7 4547.81 571.725 2
1 -6 7 4301.06 560.985 4
-1 6 -7 3505.49 520.723 6
1 -5 7 2824.48 433.996 2
1 -5 7 2668.89 423.576 4
-1 5 -7 2307.79 391.326 6
1 -4 7 14130.9 946.864 2
-1 4 -7 13657.2 861.787 6
-1 3 -7 2152.48 340.206 5
-1 3 -7 1830.48 288.758 6
-1 2 -7 1890.42 260.096 6
-1 2 -7 2097.76 335.961 5
-1 1 -7 4417.14 337.36 6
-1 1 -7 4685.02 498.88 5
-1 0 -7 12658.3 431.464 6
1 0 7 11945.6 306.274 1
-1 -1 -7 9388.96 745.039 5
-1 -2 -7 13014.3 925.35 5
-1 -3 -7 5637.94 648.006 5
-1 -4 -7 3606.17 534.56 5
-1 -5 -7 995.109 298.83 5
-1 -6 -7 18.4917 135.811 5
-1 -7 -7 258.297 183.906 5
-1 -8 -7 257.922 248.058 5
-1 -9 -7 -47.6495 94.5513 5
-1 10 -8 -135.788 187.808 6
-1 9 -8 -66.5637 124.145 6
-1 8 -8 639.583 276.268 6
-1 7 -8 1933.4 432.87 6
1 -7 8 2467.56 472.627 4
1 -7 8 2197.11 430.981 2
1 -6 8 3387.66 518.569 2
1 -6 8 3572.26 542.945 4
-1 6 -8 3641.52 546.037 6
1 -5 8 2090.35 394.137 2
1 -5 8 2133.48 416.844 4
-1 5 -8 1626.08 334.722 6
1 -4 8 -41.376 115.103 2
-1 4 -8 -211.923 120.832 6
-1 3 -8 454.711 168.804 5
-1 3 -8 222.16 116.808 6
-1 2 -8 13031.5 882.062 5
-1 2 -8 12837.3 703.805 6
-1 1 -8 475.43 181.394 5
-1 1 -8 147.841 68.1512 6
-1 0 -8 13511.1 924.122 5
-1 -1 -8 12082.4 899.659 5
-1 -2 -8 5496.48 638.811 5
-1 -3 -8 19953.2 1262.42 5
-1 -4 -8 4240.46 611.744 5
-1 -5 -8 1222.34 367.13 5
-1 -6 -8 2822.99 555.182 5
-1 -7 -8 2747.23 578.924 5
-1 -8 -8 1224.14 424.195 5
-1 -9 -8 4171.14 779.29 5
-1 10 -9 440.168 293.181 6
-1 9 -9 172.644 171.261 6
-1 8 -9 310.868 200.18 6
-1 7 -9 6381.85 795.722 6
1 -7 9 5145.22 723.107 4
1 -6 9 2957.84 539.238 4
1 -6 9 2981.59 508.452 2
-1 6 -9 2462.65 473.096 6
-1 5 -9 2351.23 436.287 6
1 -5 9 2056.64 414.822 2
1 -5 9 1953.59 431.635 4
1 -4 9 568.754 222.451 2
-1 4 -9 155.321 111.868 6
-1 3 -9 32.6549 103.85 5
-1 2 -9 5033.75 587.038 5
-1 1 -9 91.0663 144.917 5
-1 0 -9 11154.6 892.13 5
-1 -1 -9 -9.61584 72.7057 5
-1 -2 -9 4568.76 606.578 5
-1 -3 -9 14509.8 1127.21 5
-1 -4 -9 1905 429.683 5
-1 -5 -9 8760.74 964.511 5
-1 -6 -9 3581.94 644.196 5
-1 -7 -9 3446.77 655.876 5
-1 -8 -9 341.731 251.402 5
-1 9 -10 882.098 319.218 6
-1 8 -10 352.019 226.606 6
-1 7 -10 259.93 176.282 6
1 -7 10 -145.936 162.71 4
1 -6 10 109.714 153.122 4
1 -5 10 5691.29 731.592 2
1 -5 10 6425.04 846.222 4
1 -4 10 239.564 169.313 2
-1 3 -10 2299.96 421.943 5
-1 2 -10 520.274 193.029 5
-1 1 -10 344.565 178.086 5
-1 0 -10 6956.48 741.402 5
-1 -1 -10 2150.32 438.899 5
-1 -2 -10 2867.4 509.97 5
-1 -3 -10 4012.47 626.258 5
-1 -4 -10 28.7539 147.687 5
-1 -5 -10 -564.042 280.551 5
-1 -6 -10 2073.36 505.412 5
-1 -7 -10 -24.9175 110.665 5
1 -6 11 390.061 234.437 4
1 -5 11 -79.0054 108.26 2
1 -5 11 -59.9349 115.334 4
1 -4 11 -39.1389 106.896 2
1 -4 11 -69.5047 116.62 4
-1 3 -11 1684.12 389.33 5
-1 2 -11 -119.787 121.193 5
-1 1 -11 1829 402.529 5
-1 0 -11 470.025 235.646 5
-1 -1 -11 649.31 257.943 5
-1 -2 -11 811.988 287.64 5
-1 -3 -11 -8.83476 93.8858 5
-1 -4 -11 394.227 192.236 5
-1 -5 -11 -228.984 185.283 5
1 -6 12 38.1314 156.136 4
1 -5 12 1176.96 414.128 4
1 -4 12 1731.53 449.077 2
1 -4 12 843.038 346.69 4
-1 3 -12 -181.6 154.047 5
-1 2 -12 -80.6655 131.6 5
-1 1 -12 493.997 229.251 5
-1 0 -12 255.667 177.308 5
-1 -1 -12 3733.99 626.622 5
-1 -2 -12 85.2192 127.674 5
-1 -3 -12 527.499 268.42 5
-1 -4 -12 237.278 180.811 5
-1 2 -13 77.2204 126.322 5
-1 1 -13 166.03 155.43 5
-1 0 -13 293.898 191.857 5
-1 -1 -13 147.134 150.691 5
-1 -2 -13 353.345 214.122 5
2 -6 -12 309.753 226.293 5
2 -5 -12 7869.59 943.916 5
-2 4 12 -107.109 157.346 4
2 -4 -12 212.95 181.693 5
-2 3 12 35.1824 124.886 4
-2 2 12 1147.72 418.491 4
-2 1 12 1331.21 462.049 4
-2 0 12 1824.5 538.052 4
-2 -1 12 1621.24 522.692 4
-2 -2 12 254.108 231.066 4
-2 -3 12 1545.6 520.238 4
2 -7 -11 4141.79 743.88 5
2 -6 -11 4565.52 732.503 5
2 -5 -11 983.723 334.648 5
2 -4 -11 1450.39 387.517 5
2 -3 -11 2498.26 468.292 5
-2 3 11 4109.39 737.537 4
2 -2 -11 158.779 125.805 5
-2 2 11 -123.217 161.184 4
-2 1 11 674.512 309.039 4
-2 0 11 299.086 221.49 4
-2 -1 11 251.775 163.906 4
-2 -2 11 40.8057 157.723 4
-2 -3 11 -446.209 270.831 4
-2 -4 11 30.6007 128.15 4
-2 -5 11 1192.81 451.49 4
2 -8 -10 362.215 293.482 5
2 -7 -10 5812.77 854.889 5
2 -6 -10 1650.24 447.247 5
2 -5 -10 2536.64 509.386 5
2 -4 -10 221.615 125.606 5
2 -3 -10 358.308 193.114 5
2 -2 -10 4340.27 553.724 5
-2 2 10 3322.82 623.725 4
2 -1 -10 170.122 108.934 5
-2 1 10 158.015 160.954 4
-2 0 10 930.226 343.107 4
-2 -1 10 1305.85 410.744 4
-2 -2 10 1450.69 443.169 4
2 3 -10 67.7068 104.307 3
-2 -3 10 -423.309 269.88 4
2 4 -10 306.983 200.511 3
-2 -4 10 162.318 134.759 1
-2 -4 10 81.2366 160.684 4
-2 -5 10 -364.269 249.438 4
-2 -5 10 -19.8158 75.232 1
2 5 -10 -390.041 212.949 3
-2 -6 10 282.153 198.907 1
-2 -7 10 40.7443 139.603 1
2 -9 -9 -426.103 273.287 5
2 -8 -9 538.31 326.178 5
2 -7 -9 195.036 152.439 5
2 -6 -9 1233.75 360.984 5
2 -5 -9 4178.22 635.923 5
2 -4 -9 -26.975 102.54 5
2 -3 -9 75.5407 98.4572 5
2 -2 -9 218.527 142.013 5
-2 2 9 41.6476 113.824 4
2 -1 -9 4490.96 496.906 5
-2 1 9 5043.43 709.789 4
-2 0 9 2629.49 538.672 4
2 0 -9 3232.44 523.981 3
2 0 -9 3572.78 416.861 5
2 1 -9 1801.83 403.317 3
-2 -1 9 2159.54 492.257 4
-2 -2 9 11021.5 1119.83 4
2 2 -9 9923.87 920.05 3
2 3 -9 316.905 168.437 3
-2 -3 9 452.538 181.522 1
2 4 -9 22388.1 1390.82 3
-2 -4 9 21622.5 1658.08 4
-2 -4 9 21406.3 1335.15 1
-2 -5 9 10941.5 1205.23 4
2 5 -9 8834.36 864.582 3
-2 -5 9 8931.05 925.196 1
-2 -6 9 5491.05 773.903 1
-2 -7 9 361.646 243.92 1
-2 -8 9 -332.211 227.614 1
2 -10 -8 2288.59 601.739 5
2 -9 -8 482.006 319.193 5
2 -8 -8 17.2551 114.486 5
2 -7 -8 3622.91 655.87 5
2 -6 -8 4572.52 683.847 5
2 -5 -8 235.488 161.907 5
2 -4 -8 3687.65 538.525 5
2 -3 -8 2034.14 372.886 5
2 -2 -8 857.155 223.066 5
-2 2 8 397.971 193.636 4
2 -1 -8 6410.02 559.665 5
2 -1 -8 6445.57 704.113 3
-2 1 8 6266.24 742.715 4
2 0 -8 7172.37 745.459 3
-2 0 8 7145.82 813.79 4
2 0 -8 7987.53 574.185 5
2 1 -8 7164.38 745.069 3
2 1 -8 6484.34 477.93 5
-2 -1 8 5940.7 757.814 4
2 2 -8 44499.1 1853.92 3
-2 -2 8 43836.3 2084.59 4
2 3 -8 15514.1 1091.38 3
-2 -3 8 15018.1 1276.77 4
-2 -3 8 15856.1 1058.54 1
2 4 -8 3414.19 514.978 3
-2 -4 8 3446.31 628.165 4
-2 -4 8 3695.09 548.688 1
-2 -5 8 3561.83 582.544 1
2 5 -8 4579.45 606.885 3
2 6 -8 324.045 166.657 3
-2 -6 8 -85.7736 201.601 1
-2 -7 8 4617.69 738.999 1
-2 -8 8 308.553 180.546 1
-2 -9 8 486.562 291.537 1
2 -10 -7 157.105 184.424 5
2 -9 -7 479.295 287.611 5
2 -8 -7 3746.95 691.907 5
2 -7 -7 848.819 308.777 5
2 -6 -7 5866.91 753.377 5
2 -5 -7 3758.6 564.195 5
-2 4 7 39.1391 39.1943 6
2 -4 -7 -61.776 171.808 5
-2 3 7 22715 639.114 6
2 -3 -7 23133.1 1204.39 5
2 -2 -7 3945.14 458.346 5
2 -2 -7 5012.93 593.541 3
2 -1 -7 3285.95 376.191 5
2 -1 -7 3754.65 512.621 3
-2 1 7 3048.48 492.085 4
-2 0 7 8769.34 838.117 4
2 0 -7 7829.4 523.189 5
2 0 -7 8548.7 761.676 3
2 1 -7 33035 1510.19 3
-2 -1 7 32926.3 1654.7 4
2 1 -7 33136.2 977.305 5
-2 -2 7 195.687 167.239 4
-2 -2 7 269.9 127.826 1
2 2 -7 5.30656 116.554 3
2 3 -7 36141.5 1592.41 3
-2 -3 7 36878.9 1561.19 1
-2 -3 7 32623.6 1781.46 4
-2 -4 7 1936.93 461.064 4
2 4 -7 2833.72 452.896 3
-2 -4 7 2862.43 471.592 1
-2 -5 7 235.776 168.93 1
2 5 -7 525.536 211.098 3
2 6 -7 914.027 257.44 3
-2 -6 7 672.161 279.485 1
-2 -7 7 2772.7 560.08 1
-2 -8 7 3470.21 664.006 1
-2 -9 7 -86.3434 137.904 1
2 -11 -6 561.053 307.094 5
2 -10 -6 -109.154 133.104 5
2 -9 -6 3066.13 641.421 5
2 -8 -6 11920.9 1182.72 5
2 -7 -6 158.916 157.721 5
-2 6 6 208.009 95.6753 6
2 -6 -6 256.3 188.92 5
2 -5 -6 3339.68 517.179 5
-2 5 6 3004.57 295.183 6
2 -4 -6 44822.9 1752.2 5
-2 4 6 42135.4 945.066 6
2 -3 -6 5119.96 562.314 3
2 -3 -6 4798.18 532.921 5
2 -2 -6 16975 901.17 5
2 -2 -6 17218.1 1026.21 3
-2 2 6 18479.7 1079.88 4
2 -1 -6 -63.8639 57.0856 5
-2 1 6 -65.054 91.3613 4
2 -1 -6 -16.3988 92.2398 3
2 0 -6 5304.39 574.101 3
2 0 -6 6352.72 424.075 5
2 1 -6 2228.39 223.339 5
2 1 -6 2510.41 398.535 3
2 2 -6 11759.9 857.586 3
-2 -2 6 11219.4 961.577 4
-2 -2 6 11534.7 784.3 1
2 3 -6 9758.5 800.231 3
-2 -3 6 7335.09 805.685 4
-2 -3 6 8923.61 746.283 1
2 4 -6 39920.7 1622.7 3
-2 -4 6 40564.7 1717.91 1
2 5 -6 170.55 126.496 3
-2 -5 6 75.504 92.66 1
2 6 -6 99.5557 106.197 3
-2 -6 6 -71.5076 149.762 1
-2 -7 6 682.068 265.945 1
-2 -8 6 2129.94 514.592 1
-2 -9 6 337.466 235.733 1
2 -11 -5 232.075 139.741 5
2 -10 -5 9138.85 1125.87 5
-2 9 5 510.067 189.546 6
2 -9 -5 666.937 324.267 5
-2 8 5 13567.6 866.624 6
2 -8 -5 14986 1290.92 5
-2 7 5 13.7972 65.3418 6
2 -7 -5 3.14997 117.579 5
2 -6 -5 2852.24 502.043 5
-2 6 5 2308.97 292.352 6
-2 5 5 100.316 72.6607 6
2 -5 -5 36.7229 95.0531 5
2 -4 -5 -4.06931 97.5411 5
-2 4 5 17.0607 31.7022 6
2 -3 -5 995.067 226.84 3
2 -3 -5 698.363 191.337 5
2 -2 -5 150.811 78.1193 3
2 -2 -5 83.6749 86.9668 5
2 -1 -5 952.226 238.286 3
2 -1 -5 1083.63 186.034 5
2 0 -5 3136.1 420.595 3
2 0 -5 2935.22 258.182 5
2 1 -5 1456.98 154.026 5
-2 -1 5 1494.51 179.908 5
2 1 -5 1494.06 291.696 3
-2 -2 5 7424.3 345.631 5
2 2 -5 7043.13 633.802 3
-2 -2 5 7800.23 632.323 1
2 3 -5 4893.75 542.676 3
-2 -3 5 4240.86 245.628 5
-2 -3 5 4460.71 237.235 2
-2 -3 5 4424.33 518.202 1
2 4 -5 4924.39 551.947 3
-2 -4 5 4726.55 567.71 1
-2 -5 5 3310.52 516.723 1
2 5 -5 3636.31 478.831 3
-2 -6 5 746.155 286.138 1
2 6 -5 663.906 221.891 3
-2 -7 5 739.512 289.208 1
2 7 -5 741.128 226.981 3
-2 -8 5 283.709 188.283 1
-2 -9 5 1012.79 367.625 1
-2 -10 5 152.141 204.447 1
2 -12 -4 4259.31 853.459 5
2 -11 -4 7702.21 1087.62 5
-2 11 4 5512.57 717.587 6
2 -10 -4 40045.4 2346.23 5
-2 10 4 34980.1 1672.55 6
2 -9 -4 3966.29 698.514 5
-2 9 4 3743.83 504.951 6
-2 8 4 -64.6505 77.3368 6
2 -8 -4 -161.465 216.226 5
2 -7 -4 20083.7 1385.47 5
-2 7 4 19261.8 950.063 6
-2 6 4 1156.19 212.319 6
2 -6 -4 1448.24 369.387 5
-2 5 4 1580.37 220.528 6
2 -5 -4 1782.86 366.384 5
2 -4 -4 473.815 149.455 3
-2 4 4 386.914 99.4902 6
2 -4 -4 143.405 118.897 5
2 -3 -4 30003.7 1170.2 3
2 -3 -4 30516.9 1228.66 5
2 -2 -4 76544.8 1881.9 3
2 -2 -4 74045.2 1680.69 5
-2 2 4 76789.2 1840.69 4
2 -1 -4 72319.9 1853.02 3
2 -1 -4 73846.8 1423.81 5
2 0 -4 131538 2516.87 3
2 0 -4 129341 1451.83 5
2 1 -4 1712.84 120.172 5
2 1 -4 2067.42 323.423 3
-2 -2 4 9577.2 676.02 1
2 2 -4 8788.74 673.54 3
-2 -3 4 3652.38 182.101 5
2 3 -4 3716.68 453.006 3
-2 -3 4 3973 476.233 1
-2 -4 4 456.9 182.015 1
2 4 -4 179.219 111.311 3
-2 -4 4 238.628 61.1878 5
-2 -5 4 2508.04 443.254 1
2 5 -4 2880.81 413.657 3
-2 -6 4 4235.75 621.042 1
2 6 -4 4819.76 551.417 3
-2 -7 4 7771.21 875.902 1
2 7 -4 7022.27 672.937 3
-2 -8 4 2033.13 461.595 1
-2 -9 4 4081.03 711.193 1
-2 -10 4 56.4952 174.408 1
-2 13 3 -205.175 179.432 6
2 -12 -3 9065.54 1214.35 5
-2 12 3 8932.3 986.902 6
-2 11 3 -184.25 169.769 6
2 -11 -3 678.643 361.901 5
-2 10 3 421.279 187.586 6
-2 9 3 3699.24 514.034 6
-2 8 3 1499.69 305.29 6
-2 7 3 13923.2 826.197 6
-2 6 3 24898.3 992.834 6
-2 5 3 25781.2 911.662 6
-2 4 3 22535.1 755.415 6
2 -4 -3 22208.8 907.182 3
-2 3 3 139676 2154.44 4
2 -3 -3 137756 2283.86 3
2 -2 -3 61444.4 1559.33 3
-2 2 3 58453 1471.27 4
2 -1 -3 1293.69 232.728 3
2 -1 -3 1079.71 162.456 5
2 0 -3 19664.6 920.315 3
2 0 -3 20523.2 500.238 5
-2 -1 3 9828.32 618.068 1
2 1 -3 10973.6 713.404 3
2 2 -3 10201.5 707.761 3
-2 -2 3 9842.49 656.515 1
-2 -3 3 384.213 57.5017 5
-2 -3 3 419.015 160.603 1
-2 -3 3 345.705 62.1497 5
2 3 -3 201.871 99.2644 3
-2 -4 3 7782.03 700.589 1
2 4 -3 8365.17 673.76 3
-2 -4 3 7833.32 416.574 5
2 5 -3 22466.1 1150.66 3
-2 -5 3 21161.2 843.839 5
-2 -5 3 22086.1 1264.93 1
-2 -6 3 16516.5 1164.69 1
2 6 -3 15794.6 995.065 3
-2 -6 3 16234.4 842.872 5
-2 -7 3 5988.44 753.894 1
-2 -7 3 5450.57 545.81 5
2 7 -3 5958.47 623.079 3
-2 -8 3 285.006 219.805 1
-2 -9 3 1865.5 474.734 1
-2 -10 3 2294.21 570.559 1
-2 -11 3 -86.8691 149.432 1
-2 13 2 49.4443 153.523 6
-2 12 2 1567.33 428.299 6
-2 11 2 2408.22 491.074 6
-2 10 2 2890.24 496.456 6
-2 9 2 268.389 149.685 6
-2 8 2 31708.2 1403.52 6
-2 7 2 4253.37 466.867 6
-2 6 2 29209 1110.6 6
2 -5 -2 6959.42 452.561 3
-2 5 2 7148.53 488.172 6
2 -4 -2 42062 1131.87 3
-2 4 2 42480.1 1056.73 6
-2 4 2 43004.4 965.886 4
2 -3 -2 58.8656 63.6437 3
-2 3 2 31.9903 33.4978 4
2 -2 -2 3665.16 358.027 3
-2 2 2 3345.32 323.993 4
2 -1 -2 17213.1 792.203 3
2 0 -2 34984.6 1179.4 3
2 1 -2 32806.4 1178.73 3
-2 -1 2 30620.3 560.11 2
2 2 -2 70098 1813.31 3
-2 -2 2 71204 1697.46 1
2 3 -2 8363.5 657.004 3
-2 -3 2 7282.77 337.327 5
-2 -3 2 8797.7 659.578 1
-2 -4 2 1392.17 192.519 5
2 4 -2 1678.08 311.092 3
-2 -4 2 1317.78 291.006 1
2 5 -2 -9.45059 20.3897 2
-2 -5 2 17.7953 38.3357 5
2 5 -2 -57.6301 89.2038 3
-2 -6 2 29542.4 1522.6 1
2 6 -2 28218 1350.32 3
-2 -6 2 27980.1 1143.83 5
2 7 -2 220.302 130.65 3
-2 -7 2 29.6108 54.9435 5
-2 -7 2 152.893 155.99 1
-2 -8 2 1189.5 343.808 1
-2 -8 2 1163.48 289.419 5
-2 -9 2 1684.12 422.852 1
-2 -10 2 204.628 224.57 1
-2 -11 2 197.837 190.536 1
-2 13 1 294.047 217.091 6
-2 12 1 4007.4 678.572 6
-2 11 1 105.594 135.972 6
-2 10 1 4350.63 615.762 6
-2 9 1 1367.93 332.52 6
-2 8 1 1564.04 327.611 6
-2 7 1 16178.5 930.019 6
-2 6 1 25.777 57.822 6
-2 6 1 44.5626 24.7456 3
-2 6 1 -14.0809 12.7901 4
-2 5 1 8873.08 486.166 3
2 -5 -1 8910.33 436.645 3
-2 5 1 9867.63 592.124 6
-2 5 1 8869.37 300.622 4
-2 4 1 64164.1 1350.25 3
-2 4 1 66090.1 1362.43 6
-2 4 1 62943.4 943.27 4
2 -4 -1 64341.3 1234.59 3
2 -3 -1 19569.7 718.724 3
-2 3 1 20702 776.612 3
-2 3 1 19644.4 678.863 6
2 -2 -1 1971.01 208.021 4
2 -2 -1 1868.91 245.127 3
-2 1 1 44220.9 1051.51 2
2 -1 -1 42267.9 1105.41 4
2 -1 -1 42672.7 1194.08 3
2 0 -1 139350 2306.88 3
2 0 -1 140694 1158.5 5
-2 0 1 140316 1580.18 2
2 1 -1 107.01 90.4744 3
-2 -1 1 119.118 32.8552 5
2 1 -1 221.498 46.078 5
2 1 -1 267.725 60.0555 2
2 2 -1 80266.3 1898.71 3
2 2 -1 77999.5 876.031 2
-2 -2 1 79822.2 982.26 5
-2 -3 1 18318.7 629.37 5
2 3 -1 18595.1 962.555 3
-2 -3 1 18668.6 918.118 1
-2 -4 1 25017 1173.58 1
2 4 -1 24473.8 1162.18 3
-2 -4 1 23330.7 859.807 5
2 5 -1 79.1005 71.787 3
-2 -5 1 106.4 122.007 1
-2 -5 1 230.276 105.727 5
2 6 -1 88.8493 108.265 3
-2 -6 1 590.257 240.892 1
-2 -6 1 607.684 188.448 5
2 7 -1 79.5585 84.7213 3
-2 -7 1 -183.755 120.484 5
-2 -7 1 -70.87 140.461 1
2 8 -1 66.949 107.269 3
-2 -8 1 335.61 203.973 1
-2 -8 1 98.3113 114.695 5
-2 -9 1 5039.52 750.647 1
-2 -9 1 3662.14 556.168 5
-2 -10 1 1716.03 448.801 1
-2 -11 1 967.852 358.527 1
-2 13 0 1281.04 421.855 6
-2 12 0 2793.65 579.963 6
-2 11 0 1479.51 406.984 6
-2 10 0 4282.56 616.762 6
-2 9 0 -2.49177 83.3492 6
-2 8 0 2671.37 421.264 6
-2 7 0 2460.14 171.764 3
-2 7 0 3151.77 427.473 6
-2 6 0 32295 718.978 3
-2 6 0 34260.6 1263.11 6
2 -5 0 27629 640.347 3
-2 5 0 29113.4 1050.08 6
-2 5 0 27091.2 723.643 3
2 -4 0 65811.6 1107.97 3
-2 4 0 65772.1 1185.9 3
2 -3 0 37395.4 929.825 3
2 -3 0 38046.4 693.891 4
-2 3 0 39532.6 977.927 3
-2 3 0 39103.9 979.459 6
2 -2 0 2105.62 246.497 3
-2 2 0 2289.77 251.856 3
2 -1 0 4604.44 287.058 5
2 -1 0 4459 392.385 3
2 -1 0 4589.47 346.985 2
2 0 0 15051.4 465.868 5
2 0 0 14850.6 733.724 3
-2 0 0 15773.1 491.764 5
2 0 0 14275.5 556.021 2
-2 -1 0 103282 1259.18 5
2 1 0 104556 1317.86 5
2 1 0 100550 2034.06 3
2 2 0 1529.16 188.729 5
-2 -2 0 1471.61 176.129 5
2 2 0 1575.12 278.874 3
-2 -2 0 1561.71 234.824 1
-2 -3 0 117215 1811.06 5
2 3 0 118507 2435.53 3
-2 -3 0 118301 2222.54 1
-2 -4 0 92501.7 2152.88 1
-2 -4 0 91161 1835.63 5
2 4 0 91028.3 2247.95 3
-2 -5 0 6009.85 597.633 1
2 5 0 5030.85 559.014 3
-2 -5 0 5129.61 496.204 5
-2 -6 0 87281.2 2226.37 5
-2 -6 0 91830.7 2515.49 1
2 6 0 85777.2 2401.06 3
2 7 0 1855.43 380.149 3
-2 -7 0 865.164 268.101 1
-2 -7 0 1602.71 324.759 5
2 8 0 186.611 127.25 3
-2 -8 0 352.181 186.442 1
-2 -8 0 100.235 100.403 5
-2 -9 0 13991.8 1203.48 1
-2 -9 0 13780.4 1117.52 5
-2 -10 0 749.852 290.991 1
-2 -10 0 1245.31 358.293 5
-2 -11 0 -436.482 279.978 1
-2 13 -1 -0.89482 112.758 6
-2 12 -1 1125.45 378.239 6
-2 11 -1 -66.3486 128.19 6
-2 10 -1 -94.561 124.564 6
-2 9 -1 131.365 92.9098 6
-2 8 -1 2596.37 439.172 6
-2 7 -1 15723.1 968.649 6
-2 6 -1 25797.6 1135.58 6
2 -5 1 15478.2 363.146 3
-2 5 -1 16329.2 807.07 6
-2 4 -1 454.514 131.862 6
2 -4 1 406.529 85.6099 3
2 -3 1 28.68 38.4282 3
-2 3 -1 80.8241 53.6447 6
2 -3 1 29.7138 49.9094 2
2 -2 1 19129.4 719.62 3
2 -2 1 19267 804.008 2
2 -1 1 1595.25 214.118 2
-2 0 -1 40319.5 921.49 5
2 0 1 39674.2 905.062 5
-2 -1 -1 72824.5 1291.78 5
-2 -2 -1 158400 2069.74 5
-2 -2 -1 155884 2222.13 1
-2 -3 -1 6072.59 458.477 5
-2 -3 -1 6836.97 516.692 1
-2 -4 -1 146957 2622.69 1
-2 -4 -1 143318 2499.13 5
-2 -5 -1 287.48 138.832 1
-2 -5 -1 493.783 182.223 5
-2 -6 -1 1156.49 294.357 1
-2 -6 -1 1485.96 309.469 5
-2 -7 -1 2954.49 469.333 1
-2 -7 -1 2696.3 445.729 5
2 8 1 3474.03 555.961 3
-2 -8 -1 3357.26 532.558 5
-2 -8 -1 3210.17 528.746 1
-2 -9 -1 -573.492 258.689 1
-2 -9 -1 -43.0932 76.5201 5
-2 -10 -1 422.574 217.484 1
-2 -10 -1 440.513 235.001 5
-2 -11 -1 16.8908 100.74 1
-2 -12 -1 154.472 172.512 1
-2 12 -2 20.359 158.094 6
-2 11 -2 162.289 114.988 6
-2 10 -2 3075.47 546.375 6
-2 9 -2 413.55 195.686 6
-2 8 -2 9025.54 814.473 6
-2 7 -2 3881.21 499.852 6
-2 6 -2 1039.01 237.81 6
2 -5 2 5230.38 226.255 3
2 -5 2 5533.19 257.764 4
-2 5 -2 5818.95 505.896 6
-2 4 -2 5.89514 46.3714 6
2 -4 2 23.8426 72.1987 2
2 -3 2 3586.67 394.922 2
-2 3 -2 3021.14 293.485 6
-2 2 -2 128340 1725.28 6
2 -2 2 130343 2195.57 2
-2 1 -2 5575.19 396.943 5
2 -1 2 5607.49 431.998 2
-2 0 -2 4606.48 354.663 5
-2 -1 -2 3455 320.472 5
-2 -2 -2 41977.3 1193.84 5
-2 -3 -2 1585.24 232.695 1
-2 -3 -2 1452.7 241.743 5
-2 -4 -2 728.633 207.448 5
-2 -4 -2 949.152 204.363 1
-2 -5 -2 448.78 165.843 1
-2 -5 -2 614.443 192.841 5
-2 -6 -2 18028.8 1049.06 1
-2 -6 -2 17252.2 1097.51 5
-2 -7 -2 2112.01 409.619 5
-2 -7 -2 2636.73 439.627 1
-2 -8 -2 -293.518 172.869 1
-2 -8 -2 -143.157 133.858 5
-2 -9 -2 352.02 194.515 1
-2 -9 -2 423.9 209.929 5
-2 -10 -2 644.573 278.266 5
-2 -10 -2 594.005 254.127 1
-2 -11 -2 717.936 302.784 1
-2 -11 -2 531.324 266.005 5
-2 12 -3 421.308 244.399 6
-2 11 -3 298.47 199.757 6
-2 10 -3 758.556 271.609 6
-2 9 -3 17594.9 1249.99 6
-2 8 -3 155.583 169.819 6
-2 7 -3 10838.9 848.454 6
-2 6 -3 2915.91 407.135 6
2 -6 3 3597.15 281.005 4
2 -5 3 331.48 159.196 2
-2 5 -3 452.947 135.787 6
2 -4 3 11956.2 783.469 2
-2 4 -3 12088.9 678.594 6
2 -3 3 21261.5 993.049 2
-2 3 -3 19872.1 771.652 6
-2 2 -3 41667 1011.35 6
-2 2 -3 43682.9 1247.57 5
2 -2 3 43522 1351.3 2
-2 1 -3 33178.1 1046.46 5
-2 0 -3 11917.5 635.061 5
-2 -1 -3 3890.05 374.932 5
-2 -2 -3 56735 1531.83 5
-2 -3 -3 6517.91 561.173 5
-2 -4 -3 14514.2 898.881 5
-2 -4 -3 13102.6 710.718 1
-2 -5 -3 173.287 108.225 5
-2 -5 -3 218.202 105.091 1
-2 -6 -3 2842.82 459.157 5
-2 -6 -3 1924.06 333.623 1
-2 -7 -3 -52.9486 111.353 1
-2 -7 -3 -57.8433 142.9 5
-2 -8 -3 38.3278 96.7556 1
-2 -8 -3 -373.456 204.733 5
-2 -9 -3 -66.8473 109.642 1
-2 -9 -3 -129.23 138.416 5
-2 -10 -3 59.4779 118.785 1
-2 -10 -3 507.609 255.043 5
-2 -11 -3 -134.25 135.403 5
-2 12 -4 238.286 218.499 6
-2 11 -4 -21.7344 132.519 6
-2 10 -4 183.971 164.051 6
-2 9 -4 13768.5 1129.86 6
-2 8 -4 4039.39 580.679 6
-2 7 -4 3703.95 512.832 6
2 -7 4 3558.32 344.78 4
2 -6 4 9977.88 393.928 3
2 -6 4 11057.8 875.8 2
2 -6 4 10879.2 586.328 4
-2 6 -4 11717.1 835.001 6
-2 5 -4 342.739 140.753 6
2 -5 4 622.992 116.501 3
2 -5 4 616.357 187.582 2
2 -4 4 4373.9 500.863 2
-2 4 -4 4686.45 443.893 6
2 -3 4 11594.5 778.249 2
-2 3 -4 10358.3 582.776 6
-2 2 -4 26510.2 833.095 6
-2 2 -4 26609.5 1057.56 5
-2 1 -4 1296.4 170.3 6
-2 1 -4 1218.65 227.751 5
-2 0 -4 35884.9 1215.83 5
-2 -1 -4 6867.74 549.667 5
2 1 4 6576.46 360.736 1
-2 -2 -4 9265.78 677.975 5
-2 -3 -4 16.2154 70.9911 5
-2 -4 -4 1568.51 312.115 5
-2 -4 -4 1529.35 236.128 1
-2 -5 -4 292.599 112.406 1
-2 -5 -4 475.458 216.885 5
-2 -6 -4 1984.94 399.484 5
-2 -6 -4 1450.11 278.054 1
-2 -7 -4 343.901 151.446 1
-2 -7 -4 230.303 134.486 5
-2 -8 -4 706.546 241.925 1
-2 -8 -4 536.45 251.803 5
-2 -9 -4 322.872 194.138 5
-2 -10 -4 236.437 192.193 5
-2 -11 -4 18.5888 132.196 5
-2 12 -5 2658.07 629.649 6
-2 11 -5 5130.65 814.046 6
-2 10 -5 16036.4 1339.41 6
-2 9 -5 9.97816 97.0552 6
-2 8 -5 27450.6 1529.03 6
2 -7 5 2294.94 435.838 2
-2 7 -5 1705.26 363.374 6
2 -7 5 1645.77 274.983 4
-2 6 -5 43.6173 123.459 6
2 -6 5 71.4164 71.112 4
2 -6 5 149 115.041 2
2 -5 5 9634.97 805.014 2
-2 5 -5 8287.33 670.015 6
2 -4 5 3413.64 461.913 2
-2 4 -5 2480.01 337.66 6
2 -3 5 16471.3 984.687 2
-2 3 -5 17511.3 797.964 6
-2 2 -5 34.7059 41.854 6
-2 2 -5 36.6653 78.6691 5
-2 1 -5 23518 1044.69 5
-2 1 -5 24325.7 749.961 6
-2 0 -5 9690.82 686.107 5
-2 0 -5 10368.4 448.859 6
-2 -1 -5 17201.4 941.786 5
2 1 5 14970 513.81 1
-2 -2 -5 5578.7 566.116 5
-2 -3 -5 -21.3949 94.7968 5
-2 -4 -5 370.994 178.094 5
-2 -5 -5 2004.21 391.393 5
-2 -6 -5 4859.99 657.534 5
-2 -6 -5 4847.8 476.822 1
-2 -7 -5 793.901 297.904 5
-2 -8 -5 1025.05 355.245 5
-2 -9 -5 1650.29 460.993 5
-2 -10 -5 111.027 142.251 5
-2 11 -6 1049.37 383.902 6
-2 10 -6 3886.38 674.678 6
-2 9 -6 15.7052 176.549 6
-2 8 -6 1719.86 404.501 6
-2 7 -6 318.03 187.312 6
2 -7 6 553.03 208.645 2
2 -7 6 220.67 114.192 4
-2 6 -6 72.4451 125.674 6
2 -6 6 60.9009 89.9806 4
2 -6 6 -8.96532 74.8194 2
2 -5 6 8995.57 801.304 2
-2 5 -6 8636.66 711.484 6
2 -4 6 8082.04 754.264 2
-2 4 -6 8397.9 635.344 6
-2 3 -6 19957.3 1057.39 5
-2 3 -6 20563.4 900.553 6
-2 2 -6 44.3034 44.1085 6
-2 2 -6 -1.71566 104.124 5
-2 1 -6 12776.4 826.308 5
-2 1 -6 13251.5 579.2 6
-2 0 -6 5639.32 562.694 5
-2 0 -6 5215.02 322.722 6
2 1 6 3130.9 208.748 1
-2 -1 -6 3398.65 453.646 5
-2 -1 -6 3767.87 249.86 6
-2 -2 -6 911.773 250.181 5
-2 -3 -6 475.117 192.064 5
-2 -4 -6 15481.4 1094.9 5
-2 -5 -6 268.196 154.114 5
-2 -6 -6 13408.5 1120.92 5
-2 -7 -6 -82.6842 135.256 5
-2 -8 -6 1691.22 455.522 5
-2 -9 -6 2868.83 608.34 5
-2 -10 -6 275.645 236.569 5
-2 11 -7 265.665 210.641 6
-2 10 -7 162.009 167.44 6
-2 9 -7 218.974 146.831 6
2 -8 7 339.596 198.799 2
-2 8 -7 -89.3767 126.857 6
-2 7 -7 3908.77 569.65 6
2 -7 7 3850.14 595.291 2
2 -7 7 3223.48 464.102 4
-2 6 -7 3640.94 519.871 6
2 -6 7 3815.21 500.532 4
2 -6 7 3197.65 521.715 2
2 -5 7 1371.93 330.095 2
-2 5 -7 967.388 254.314 6
2 -4 7 19087.1 1199.2 2
-2 4 -7 17936.2 973.925 6
-2 3 -7 6414.08 643.385 5
-2 3 -7 6995.16 554.217 6
-2 2 -7 -20.4008 45.7235 6
-2 2 -7 -107.227 120.583 5
-2 1 -7 2020.89 354.009 5
-2 1 -7 2183.25 248.113 6
-2 0 -7 3413.09 465.431 5
-2 0 -7 3542.91 267.061 6
-2 -1 -7 115.967 110.257 5
-2 -2 -7 4306.51 558.775 5
-2 -3 -7 49.497 110.385 5
-2 -4 -7 1156.23 312.944 5
-2 -5 -7 10934.3 1012 5
-2 -6 -7 2476.37 513.169 5
-2 -7 -7 -53.2389 151.9 5
-2 -8 -7 11291.2 1180.26 5
-2 -9 -7 -276.751 220.404 5
-2 10 -8 26.8788 148.098 6
-2 9 -8 38.5517 114.505 6
2 -8 8 602.328 264.214 2
-2 8 -8 991.544 335.296 6
-2 7 -8 833.215 308.383 6
2 -7 8 462.033 225.618 2
2 -7 8 271.105 165.393 4
2 -6 8 766.95 270.038 2
-2 6 -8 983.637 278.136 6
2 -6 8 760.264 251.202 4
2 -5 8 5515.42 698.835 2
-2 5 -8 5157.45 583.186 6
-2 4 -8 139.071 125.299 6
2 -4 8 182.733 162.193 2
-2 3 -8 5632.89 633.401 5
-2 3 -8 6688.22 567.931 6
-2 2 -8 5849.04 472.517 6
-2 2 -8 5657.89 620.3 5
-2 1 -8 6089.84 651.661 5
-2 0 -8 3327.84 494.575 5
-2 -1 -8 15473.4 1078.3 5
-2 -2 -8 100.085 142.772 5
-2 -3 -8 -44.8414 110.488 5
-2 -4 -8 -120.851 204.601 5
-2 -5 -8 -92.9501 149.549 5
-2 -6 -8 3533.62 635.067 5
-2 -7 -8 -113 151.806 5
-2 -8 -8 124.321 169.509 5
-2 10 -9 1055.7 394.681 6
-2 9 -9 958.025 332.868 6
2 -8 9 327.641 190.024 2
-2 8 -9 -182.645 175.533 6
2 -7 9 -30.5943 97.8718 2
-2 7 -9 316.053 195.976 6
2 -6 9 15749.9 1256.07 2
2 -6 9 14268.8 1129.55 4
-2 6 -9 14203.5 1086.85 6
2 -5 9 4252.12 647.612 2
-2 5 -9 3318.43 492.082 6
-2 4 -9 2432.92 385.762 6
2 -4 9 1823.72 416.73 2
-2 3 -9 4667.32 612.661 5
-2 2 -9 513.037 202.618 5
-2 1 -9 16312.2 1123.32 5
-2 0 -9 406.707 209.444 5
-2 -1 -9 10726.8 944.314 5
-2 -2 -9 323.313 191.109 5
-2 -3 -9 10758.8 1020.53 5
-2 -4 -9 231.089 191.891 5
-2 -5 -9 4133.61 684.244 5
-2 -6 -9 2210.66 531.691 5
-2 -7 -9 1519.32 448.906 5
-2 9 -10 541.283 331.914 6
-2 8 -10 1935.92 480.092 6
2 -7 10 3566.1 642.585 2
2 -6 10 3018.6 580.985 2
2 -6 10 2940.62 552.631 4
2 -5 10 3236.63 601.057 2
2 -4 10 716.755 294.952 2
-2 3 -10 598.435 230.272 5
-2 2 -10 361.035 197.405 5
-2 1 -10 1193.33 335.743 5
-2 0 -10 1636.84 391.785 5
-2 -1 -10 14779.7 1174.43 5
-2 -2 -10 -104.012 129.455 5
-2 -3 -10 9563.19 1004.08 5
-2 -4 -10 -63.0294 186.525 5
-2 -5 -10 109.829 225.294 5
-2 -6 -10 4983.53 812.166 5
2 -6 11 1588.11 448.508 2
2 -6 11 1090.76 369.195 4
2 -5 11 366.731 227.928 2
2 -4 11 121.443 200.883 2
-2 3 -11 3575 586.089 5
-2 2 -11 -70.9652 112.608 5
-2 1 -11 118.54 168.944 5
-2 0 -11 4997.7 709.159 5
-2 -1 -11 2189.23 489.962 5
-2 -2 -11 8431.43 960.982 5
-2 -3 -11 -26.4051 138.77 5
-2 -4 -11 -38.2624 140.539 5
2 -6 12 291.18 211.169 4
2 -5 12 497.407 298.243 2
2 -4 12 258.623 218.382 2
-2 3 -12 482.042 252.009 5
-2 2 -12 313.115 194.925 5
-2 1 -12 100.215 144.319 5
-2 0 -12 1842.15 462.807 5
-2 -1 -12 466.91 257.8 5
-2 -2 -12 560.667 271.131 5
2 -4 13 2642.4 625.178 2
-2 2 -13 249.849 185.681 5
-2 1 -13 327.505 219.472 5
-3 5 12 -135.478 165.714 4
-3 4 12 2641.33 643.069 4
-3 3 12 1311.37 480.095 4
-3 2 12 118.117 178.744 4
-3 1 12 6455.66 1030.3 4
-3 0 12 1256.72 472.263 4
3 -7 -11 55.1173 124.512 5
3 -6 -11 7530.73 933.883 5
-3 6 11 8239.04 1055.53 4
3 -5 -11 390.551 231.484 5
-3 5 11 821.464 355.177 4
-3 4 11 1306.91 437.581 4
-3 3 11 674.161 312.096 4
-3 2 11 707.977 373.446 4
-3 1 11 229.763 173.914 4
-3 0 11 1282.94 448.239 4
3 1 -11 149.45 195.077 3
-3 -1 11 -44.3361 138.002 4
3 2 -11 -69.726 112.86 3
-3 -2 11 -9.46383 133.391 4
-3 -3 11 104.048 164.489 4
3 3 -11 -161.366 170.031 3
3 4 -11 -134.616 144.506 3
3 -8 -10 762.629 341.662 5
3 -7 -10 4124.48 712.727 5
-3 7 10 3689.23 670.733 4
3 -6 -10 37.2787 97.3385 5
-3 6 10 -135.225 151.936 4
-3 5 10 436.65 230.45 4
3 -5 -10 728.603 266.047 5
3 -4 -10 -24.483 83.9348 5
-3 4 10 107.277 142.116 4
-3 3 10 450.855 252.707 4
-3 2 10 328.99 234.16 4
3 -1 -10 1573.94 436.594 3
-3 1 10 2658.19 584.238 4
3 0 -10 80.1029 112.992 3
-3 0 10 -200.926 193.001 4
3 1 -10 3454.08 610.219 3
-3 -1 10 2614.48 618.232 4
3 2 -10 1405.09 398.892 3
-3 -2 10 2477.29 610.346 4
3 3 -10 490.617 245.668 3
-3 -3 10 54.357 150.682 4
3 4 -10 261.718 174.375 3
3 5 -10 1393.54 394.021 3
-3 -6 10 2596.32 569.06 1
3 -9 -9 3343.07 705.169 5
3 -8 -9 1209.48 405.854 5
3 -7 -9 310.06 200.966 5
-3 7 9 433.899 213.734 4
-3 6 9 4419.12 677.974 4
3 -6 -9 5374.97 754.842 5
3 -5 -9 2950.83 532.722 5
-3 5 9 3057.1 572.496 4
-3 4 9 2810.44 546.132 4
3 -4 -9 3291.31 520.811 5
3 -3 -9 2779.78 446.149 5
-3 3 9 2925.46 553.99 4
3 -2 -9 4169.49 486.325 5
3 -2 -9 4464.46 646.488 3
-3 2 9 4166.23 681.294 4
3 -1 -9 2932.54 531.134 3
-3 1 9 2133.88 496.78 4
3 0 -9 174.065 177.586 3
-3 0 9 -86.4676 127.353 4
3 1 -9 295.806 213.593 3
-3 -1 9 140.381 197.5 4
-3 -2 9 516.73 281.696 4
3 2 -9 1025.69 328.706 3
-3 -3 9 185.054 179.286 4
3 3 -9 412.715 218.146 3
3 4 -9 281.388 172.54 3
3 5 -9 -99.9319 187.678 3
-3 -5 9 163.237 163.415 1
-3 -6 9 3231 619.963 1
-3 -7 9 1037.19 386.057 1
3 -10 -8 208.962 220.059 5
3 -9 -8 122.297 168.533 5
3 -8 -8 202.868 139.311 5
3 -7 -8 253.62 193.049 5
-3 7 8 77.9186 97.7711 4
3 -6 -8 822.244 313.945 5
-3 6 8 488.615 217.208 4
-3 5 8 87.9698 118.479 4
3 -5 -8 77.2086 155.537 5
-3 4 8 1221.15 341.091 4
3 -4 -8 830.263 258.474 5
3 -3 -8 502.105 224.345 3
3 -3 -8 181.79 126.506 5
3 -2 -8 14.9178 106.034 3
3 -2 -8 161.862 106.858 5
-3 2 8 -124.778 141.311 4
3 -1 -8 1003.99 302.478 3
3 -1 -8 506.451 147.738 5
-3 1 8 409.799 201.38 4
3 0 -8 1511.42 351.431 3
-3 0 8 1429.46 390.78 4
3 1 -8 6618.58 763.946 3
-3 -1 8 7212.89 913.794 4
-3 -2 8 5618.55 824.466 4
3 2 -8 6079.48 747.464 3
3 3 -8 27742.9 1590.03 3
3 4 -8 2974.77 534.885 3
-3 -4 8 2814.73 525.206 1
3 5 -8 31113.4 1718.05 3
-3 -5 8 30804.3 1783.91 1
3 6 -8 17857.8 1299.01 3
-3 -6 8 18406 1453.91 1
-3 -7 8 7438.09 976.309 1
-3 -8 8 860.207 349.271 1
3 -10 -7 523.799 250.939 5
3 -9 -7 347.079 247.338 5
3 -8 -7 95.7297 147.287 5
3 -7 -7 3316.29 608.485 5
-3 7 7 3925.92 554.821 4
3 -6 -7 2117.87 457.761 5
-3 6 7 1607.26 359.238 4
3 -5 -7 4296.71 602.575 5
-3 5 7 4862.46 627.077 4
-3 4 7 109.229 66.7008 6
3 -4 -7 168.326 146.613 3
3 -4 -7 73.4621 119.631 5
-3 4 7 195.645 143.314 4
-3 3 7 9247.71 873.637 4
3 -3 -7 8722.41 730.918 5
3 -3 -7 7402.16 764.253 3
3 -2 -7 3747.92 430.066 5
3 -2 -7 3694.79 548.839 3
-3 2 7 2914.5 510.313 4
3 -1 -7 69.5363 104.658 3
3 -1 -7 72.1114 40.2212 5
-3 1 7 156.895 149.206 4
3 0 -7 8440.16 835.354 3
3 0 -7 7825.74 451.684 5
-3 0 7 9028.15 934.785 4
-3 -1 7 327.849 180.453 4
3 1 -7 254.338 167.324 3
-3 -2 7 228.037 206.826 4
3 2 -7 1084.37 308.377 3
3 3 -7 2046.29 435.747 3
3 4 -7 13110.8 1078.06 3
-3 -4 7 11952.9 1025.24 1
3 5 -7 10026.8 954.165 3
-3 -5 7 8849.61 936.615 1
3 6 -7 658.992 264.06 3
-3 -6 7 398.579 257.036 1
-3 -7 7 -29.0083 183.817 1
-3 -8 7 1340.13 464.193 1
3 -11 -6 -454.42 308.737 5
3 -10 -6 1522.6 470.099 5
3 -9 -6 188.126 189.299 5
3 -8 -6 483.19 237.329 5
-3 7 6 2415.54 333.206 6
3 -7 -6 2501.48 520.309 5
-3 7 6 2493.5 405.016 4
-3 6 6 -3.73975 56.02 6
-3 6 6 -103.551 95.3458 4
3 -6 -6 -62.2502 102.7 5
-3 5 6 36.1479 65.7726 6
-3 5 6 48.0823 88.1845 4
3 -5 -6 40.1421 74.4961 3
3 -5 -6 101.337 126.904 5
-3 4 6 -50.5076 114.727 4
3 -4 -6 -134.738 119.694 3
3 -4 -6 10.5161 112.091 5
3 -3 -6 8705.64 713.421 5
3 -3 -6 8819.22 789.392 3
-3 3 6 8694.26 788.898 4
3 -2 -6 16209.6 1082.12 3
3 -2 -6 15206.3 831.87 5
-3 2 6 16666.6 1133.9 4
3 -1 -6 41626.4 1182.05 5
3 -1 -6 45630.9 1822.83 3
-3 1 6 44339.5 1899.01 4
3 0 -6 836.294 134.01 5
3 0 -6 998.289 297.878 3
-3 0 6 903.359 309.714 4
3 1 -6 14006.4 1028.49 3
-3 -1 6 12911.8 1084.05 4
3 2 -6 18909.6 1212.59 3
3 3 -6 1086.18 303.661 3
-3 -3 6 926.057 266.342 1
-3 -4 6 4283.65 606.696 1
3 4 -6 3787.06 558.648 3
3 5 -6 318.005 167.31 3
-3 -5 6 1077.57 312.123 1
3 6 -6 4986.57 660.742 3
-3 -6 6 4425.15 693.558 1
-3 -7 6 880.331 334.708 1
-3 -8 6 642.457 317.006 1
-3 -9 6 -84.4404 147.75 1
3 -11 -5 6363.11 1010.35 5
3 -10 -5 157.974 178.482 5
-3 9 5 1786.95 350.105 6
3 -9 -5 2110.79 534.885 5
-3 8 5 2709.28 392.05 6
3 -8 -5 1920.49 485.629 5
3 -7 -5 15348.5 1253.46 5
-3 7 5 15483.5 865.339 6
3 -6 -5 8237 859.093 5
3 -6 -5 8029.56 707.368 3
-3 6 5 8161.33 578.979 6
3 -5 -5 16703.5 1007.2 3
3 -5 -5 18586.2 1201.44 5
-3 5 5 17199.7 781.987 6
3 -4 -5 671.875 212.255 3
3 -4 -5 595.599 195.122 5
3 -3 -5 15123.7 980.81 3
3 -3 -5 16494.4 940.266 5
-3 3 5 15788.9 993.118 4
3 -2 -5 1494.25 323.524 3
3 -2 -5 1876.13 280.525 5
-3 2 5 1894.56 356.423 4
3 -1 -5 16734.7 1067.33 3
3 -1 -5 14608.1 655.828 5
-3 1 5 14785 1034.86 4
3 0 -5 7956.85 737.747 3
-3 0 5 7332.68 767.926 4
3 0 -5 7902.61 352.363 5
3 1 -5 8834.95 794.618 3
3 2 -5 24557.4 1347.39 3
3 3 -5 15771.7 1102.41 3
-3 -3 5 15188.1 1037.42 1
-3 -4 5 821.18 266.544 1
3 4 -5 1220.43 312.076 3
3 5 -5 826.48 275.003 3
-3 -5 5 792.041 270.854 1
3 6 -5 641.391 242.332 3
-3 -6 5 659.398 256.216 1
-3 -7 5 126.351 139.718 1
3 7 -5 50.6722 109.191 3
-3 -8 5 -173.317 189.736 1
-3 -9 5 2994.64 634.897 1
3 -12 -4 135.299 216.298 5
-3 11 4 -2.94287 93.1544 6
3 -11 -4 8.06882 132.436 5
-3 10 4 1369.65 326.951 6
-3 9 4 27247.2 1366.36 6
-3 8 4 374.977 168.003 6
-3 7 4 60678.1 1597.86 4
-3 7 4 59455.6 1719.12 6
3 -6 -4 8572.02 671.864 3
-3 6 4 8258.94 611.121 4
-3 6 4 8046.75 580.757 6
3 -5 -4 35746.2 1381.94 3
-3 5 4 36923.2 1322.45 4
-3 5 4 38278.3 1173.02 6
3 -4 -4 7605.76 650.673 3
3 -3 -4 3427.28 447.519 3
3 -2 -4 15646.1 956.19 3
3 -2 -4 14896.6 774.941 5
3 -1 -4 394.704 166.305 3
3 -1 -4 308.179 95.8876 5
3 0 -4 47430.7 1759.04 3
3 0 -4 46363.7 764.194 5
3 1 -4 4042.79 524.819 3
3 2 -4 17284.5 1096.81 3
-3 -3 4 3091.47 456.061 1
3 3 -4 3306.08 488.955 3
-3 -4 4 188.818 143.319 1
3 4 -4 28.1186 71.8067 3
3 5 -4 -35.0173 137.902 3
-3 -5 4 106.228 123.218 1
3 6 -4 3.18553 122.624 3
-3 -6 4 298.89 233.549 1
-3 -7 4 532.081 227.261 1
3 7 -4 487.379 208.235 3
-3 -8 4 -332.602 212.876 1
-3 -9 4 4.26467 155.278 1
-3 13 3 269.333 192.974 6
-3 12 3 292.798 186.207 6
-3 11 3 10159.7 979.886 6
-3 10 3 1778.18 395.554 6
-3 9 3 8495.33 776.929 6
-3 8 3 20443.3 1100.77 6
-3 7 3 1858.55 311.845 6
-3 7 3 2452.64 279.201 4
-3 6 3 1311.75 242.893 6
3 -6 -3 1181.26 233.481 3
-3 6 3 1401.55 222.053 4
3 -5 -3 7186.04 581.723 3
-3 5 3 7412.95 531.033 4
-3 5 3 7150.74 511.683 6
3 -4 -3 2883.47 376.007 3
-3 4 3 2588.87 328.166 4
3 -3 -3 15396.4 885.469 3
-3 3 3 14734.1 834.769 4
3 -2 -3 34091.1 1358.55 3
3 -1 -3 11731.1 823.084 3
3 0 -3 23771.1 1195.49 3
3 0 -3 22625.4 536.634 5
3 1 -3 30506.4 1394.12 3
-3 -1 3 27050.5 694.288 2
3 2 -3 1152.24 274.693 3
-3 -3 3 2684.46 427.486 1
3 3 -3 2774.21 456.074 3
3 4 -3 3897.51 550.679 3
-3 -4 3 3306.58 161.005 5
-3 -4 3 3196.39 489.715 1
-3 -5 3 905.523 279.141 1
3 5 -3 773.822 258.392 3
-3 -6 3 2275.28 471.206 1
3 6 -3 2187.12 449.852 3
-3 -7 3 1429.4 382.852 1
3 7 -3 1128.98 317.283 3
-3 -8 3 666.692 271.26 1
-3 -9 3 308.896 231.33 1
-3 -10 3 1982.75 552.651 1
-3 13 2 221.766 200.101 6
-3 12 2 554.853 272.426 6
-3 11 2 1061.8 311.224 6
-3 10 2 2119.36 425.894 6
-3 9 2 118.456 125.33 6
-3 8 2 2115.54 364.787 6
-3 7 2 2938.52 389.095 6
-3 6 2 596.813 172.152 6
3 -6 -2 522.435 148.224 3
-3 5 2 286.553 108.02 6
3 -5 -2 308.762 123.015 3
3 -4 -2 49562.9 1456.83 3
3 -3 -2 4251.51 446.162 3
3 -2 -2 1633.63 286.355 3
3 -1 -2 26476.3 1192.3 3
3 0 -2 1885.62 145.835 5
3 0 -2 2122.33 359.439 3
3 1 -2 9597.98 771.659 3
3 1 -2 8119.72 247.029 5
3 2 -2 38999.7 1615.91 3
-3 -3 2 253.374 131.297 1
-3 -3 2 192.215 48.6981 5
3 3 -2 213.001 130.456 3
-3 -4 2 32.6794 31.8054 5
3 4 -2 42.1443 113.729 3
-3 -5 2 164.97 84.4567 5
-3 -5 2 58.1004 135.137 1
3 5 -2 277.035 213.229 3
-3 -6 2 2342.52 458.245 1
3 6 -2 2712.51 494.185 3
-3 -7 2 1352.71 369.812 1
3 7 -2 1697.47 402.924 3
-3 -8 2 4263.83 683.177 1
3 8 -2 3988.47 621.993 3
-3 -9 2 302.48 249.249 1
-3 -10 2 1769.7 509.298 1
-3 13 1 216.568 214.3 6
-3 12 1 298.505 195.114 6
-3 11 1 325.2 182.564 6
-3 10 1 25.0024 119.577 6
-3 9 1 292.396 158.951 6
-3 8 1 6458.85 644.28 6
3 -7 -1 3736.1 318.06 3
-3 7 1 4392.3 486.292 6
-3 6 1 202.672 91.3476 6
3 -6 -1 331.039 106.572 3
3 -5 -1 11862.4 650.479 3
-3 5 1 12434.5 695.936 6
3 -4 -1 1983.31 281.135 3
3 -4 -1 1843.5 204.661 4
-3 4 1 2172.36 277.186 6
3 -3 -1 21727.1 967.703 3
3 -2 -1 95.255 76.1408 3
3 -1 -1 371.21 89.8888 5
3 -1 -1 637.98 209.39 3
3 0 -1 3119.45 224.732 5
3 0 -1 3884.17 461.827 3
3 1 -1 38094.3 786.261 5
3 1 -1 40561.7 1569.66 3
3 1 -1 39055.5 990.202 2
-3 -2 1 4777.1 274.876 5
3 2 -1 4684.88 565.95 3
3 2 -1 4688.52 310.856 5
3 2 -1 4859.45 316.698 2
-3 -3 1 42930.3 934.294 5
3 3 -1 42806.4 1735.96 3
3 3 -1 42385.1 866.097 2
-3 -3 1 44662 1595.16 1
-3 -4 1 160.638 74.2059 5
-3 -4 1 10.5055 98.1453 1
3 5 -1 14048.4 1078.38 3
-3 -5 1 12790.3 684.403 5
-3 -5 1 12313.5 948.761 1
3 6 -1 -49.8934 202.471 3
-3 -6 1 278.616 125.815 5
-3 -6 1 69.1102 112.788 1
3 7 -1 9486.48 946.103 3
-3 -7 1 11274.3 1022.89 1
3 8 -1 10925.5 1050.06 3
-3 -8 1 9352.15 990.655 1
-3 -9 1 5601.4 810.345 1
-3 -10 1 70.462 111.797 1
-3 13 0 -83.1201 145.239 6
-3 12 0 407.957 219.121 6
-3 11 0 3197.82 586.96 6
-3 10 0 518.21 229.374 6
-3 9 0 7185.59 743.464 6
-3 8 0 3391.01 476.689 6
3 -7 0 22301.2 651.327 3
-3 7 0 23705.4 1149.91 6
-3 6 0 507.723 169 6
-3 6 0 287.908 94.0671 3
3 -6 0 318.263 91.45 3
3 -5 0 16421.3 722.376 3
-3 5 0 18117.1 855.413 6
-3 4 0 478.934 141.719 6
3 -4 0 633.492 161.297 3
3 -4 0 461.433 101.686 4
3 -3 0 139848 2428.54 3
3 -2 0 16584.1 876.584 3
3 -2 0 16755.3 854.359 2
3 -1 0 18183.5 964.594 3
3 -1 0 16137.9 786.606 2
3 0 0 24272.9 1153.59 3
3 0 0 22293.5 863.785 2
-3 -1 0 95485 1443.23 5
3 1 0 91177.4 2355.24 3
3 1 0 93256.2 1663.13 2
-3 -2 0 21385.3 723.574 5
3 2 0 22998.5 1224.99 3
3 2 0 22877.1 800.525 2
3 3 0 11817.2 937.635 3
-3 -3 0 12572.6 849.462 1
3 4 0 3.84683 137.001 3
-3 -4 0 -67.4981 118.533 1
-3 -4 0 34.4931 60.6599 5
3 5 0 2400.33 453.676 3
-3 -5 0 2336.34 323.646 5
-3 -5 0 1825.61 351.919 1
3 6 0 3568.34 566.601 3
-3 -6 0 3702.96 448.548 5
-3 -6 0 4125.8 580.346 1
3 7 0 472.56 249.021 3
-3 -7 0 954.243 297.249 1
-3 -7 0 1202.03 279.105 5
-3 -8 0 -17.3012 203.525 1
3 8 0 131.195 119.208 3
-3 -9 0 2092.33 506.315 1
-3 -10 0 8696.43 1036.71 1
-3 -11 0 182.194 192.544 1
-3 13 -1 42.3174 140.705 6
-3 12 -1 766.932 299.02 6
-3 11 -1 3177.45 586.485 6
-3 10 -1 362.231 230.561 6
-3 9 -1 5419.85 667.183 6
-3 8 -1 1851.92 356.03 6
-3 7 -1 143.955 122.831 6
3 -7 1 17.5986 20.4515 3
3 -6 1 16854 593.895 3
-3 6 -1 17166.9 943.741 6
3 -5 1 94684.3 1679.4 3
-3 5 -1 100900 2101.79 6
-3 4 -1 6124.5 487.707 6
3 -4 1 5927.77 465.156 3
3 -3 1 20378.9 919.129 3
3 -3 1 20691.8 1042.51 2
3 -2 1 18316.1 918.587 3
3 -2 1 19836.2 965.785 2
3 -1 1 30155.3 1240.81 3
3 -1 1 30466 1105.09 2
-3 0 -1 4537.67 366.647 5
3 0 1 4506.12 409.139 2
-3 -1 -1 41337.9 1098.05 5
-3 -2 -1 6163.21 442.391 5
-3 -3 -1 56517.4 1446.82 5
-3 -4 -1 25764.7 1059.33 5
-3 -4 -1 25643.9 1207.43 1
-3 -5 -1 77628.9 1995.21 5
-3 -5 -1 78681.5 2251.55 1
-3 -6 -1 7417.05 672.179 5
3 6 1 8072.81 875.731 3
-3 -6 -1 7789.2 756.634 1
-3 -7 -1 5141.23 605.118 5
3 7 1 6278.12 802.229 3
-3 -7 -1 5725.29 696.334 1
-3 -8 -1 23595.6 1498.8 1
3 8 1 21664.9 1528.02 3
-3 -8 -1 20803.9 1287.66 5
-3 -9 -1 2652.84 537.69 1
-3 -10 -1 2566.76 559.309 1
-3 -11 -1 14.518 99.4254 1
-3 12 -2 -286.25 217.471 6
-3 11 -2 317.912 207.165 6
-3 10 -2 258.867 170.811 6
-3 9 -2 7004.06 768.152 6
-3 8 -2 3738.45 517.552 6
-3 7 -2 5632.78 596.027 6
-3 6 -2 57.553 94.4455 6
3 -6 2 -4.19217 24.9469 3
3 -5 2 8288.12 507.37 3
-3 5 -2 8220.12 611.554 6
-3 4 -2 -34.5788 60.2514 6
3 -4 2 -0.47323 62.0415 3
3 -4 2 -30.4915 136.572 2
-3 3 -2 888.712 187.499 6
3 -3 2 711.427 185.72 2
3 -2 2 27172.1 1163.04 2
-3 1 -2 9696.41 595.555 5
3 -1 2 11147.1 713.329 2
-3 0 -2 -23.4712 49.934 5
-3 -1 -2 7381.14 517.509 5
-3 -2 -2 27463.8 1040.98 5
-3 -3 -2 22422.5 1006.85 5
-3 -4 -2 41377.2 1446.1 5
-3 -5 -2 286.243 149.892 1
-3 -5 -2 141.362 93.8554 5
-3 -6 -2 783.671 245.558 1
-3 -6 -2 721.966 227.107 5
-3 -7 -2 34.2756 94.8366 5
-3 -7 -2 164.007 140.26 1
3 8 2 1899.7 484.59 3
-3 -8 -2 1969.35 422.83 5
-3 -8 -2 1909.21 409.393 1
-3 -9 -2 594.067 239.331 5
-3 -9 -2 697.485 275.185 1
-3 -10 -2 812.089 298.918 1
-3 12 -3 -21.4007 83.3316 6
-3 11 -3 1814.46 457.639 6
-3 10 -3 736.965 274.773 6
-3 9 -3 5831.99 720.727 6
-3 8 -3 854.357 265.792 6
-3 7 -3 434.392 180.647 6
3 -6 3 4432.06 342.311 3
-3 6 -3 4932.11 530.738 6
-3 5 -3 938.871 216.036 6
3 -5 3 1027.75 191.298 3
3 -5 3 901.263 257.01 2
-3 4 -3 1885.9 276.307 6
3 -4 3 2134.6 366.962 2
3 -3 3 105910 2511.47 2
-3 3 -3 100980 1907.73 6
3 -2 3 40040.4 1482.08 2
-3 1 -3 67832.3 1695.82 5
3 -1 3 69597.4 1897.17 2
-3 0 -3 2168.86 311.828 5
-3 -1 -3 6797.26 540.192 5
-3 -2 -3 30920 1200.57 5
-3 -3 -3 8497.95 675.886 5
-3 -4 -3 1971.07 344.769 5
-3 -5 -3 893.83 222.296 5
-3 -6 -3 2466.49 397.011 1
-3 -6 -3 2295.96 423.202 5
-3 -7 -3 2998.05 471.773 1
-3 -7 -3 2505.57 459.734 5
-3 -8 -3 824.76 292.034 5
-3 -8 -3 1294.28 335.219 1
-3 -9 -3 748.028 292.964 5
-3 -9 -3 1132.07 334.366 1
-3 -10 -3 271.898 196.593 5
-3 12 -4 112.77 173.27 6
-3 11 -4 149.869 179.269 6
-3 10 -4 757.711 304.319 6
-3 9 -4 1521.12 377.562 6
-3 8 -4 9132.09 865.901 6
-3 7 -4 10602.2 869.078 6
3 -6 4 29036.9 1542.18 2
-3 6 -4 29894.2 1328.29 6
3 -5 4 22716.9 1308.04 2
-3 5 -4 24250.7 1111.71 6
3 -4 4 4523.78 561.019 2
-3 4 -4 4082.05 416.404 6
3 -3 4 3046.42 453.856 2
-3 3 -4 3251.84 360.091 6
-3 2 -4 103036 2309.27 5
3 -2 4 108956 2628.37 2
-3 2 -4 109264 1893.33 6
-3 1 -4 13508.8 807.418 5
-3 0 -4 181.246 100.078 5
-3 -1 -4 2106.93 335.466 5
-3 -2 -4 1673.18 297.456 5
-3 -3 -4 7891.61 687.202 5
-3 -4 -4 527.01 192.665 5
-3 -5 -4 4326.03 562.574 5
-3 -6 -4 1025.76 297.17 5
-3 -7 -4 146.439 133.704 5
-3 -7 -4 202.776 141.604 1
-3 -8 -4 -31.8284 84.9972 5
-3 -9 -4 50.1181 115.588 5
-3 -10 -4 -115.633 145.931 5
-3 11 -5 33.9543 150.506 6
-3 10 -5 2376.11 512.741 6
-3 9 -5 3978.11 622.585 6
-3 8 -5 23276.1 1405.18 6
3 -7 5 37957.4 1884.48 2
-3 7 -5 35311.8 1616.4 6
3 -6 5 18685.1 1275.59 2
-3 6 -5 17379.2 1061.38 6
3 -5 5 21717.5 1314.92 2
-3 5 -5 20131.4 1047.87 6
3 -4 5 8344.97 791.063 2
-3 4 -5 8614.48 632.518 6
3 -3 5 27345.7 1394.71 2
-3 3 -5 26621.4 1027.84 6
-3 2 -5 -0.87327 51.9262 6
-3 2 -5 44.9228 118.242 5
-3 1 -5 810.694 167.083 6
-3 1 -5 636.269 184.988 5
-3 0 -5 11775.6 807.638 5
-3 -1 -5 2222.51 371.712 5
-3 -2 -5 29975.2 1370.87 5
-3 -3 -5 914.776 253.191 5
-3 -4 -5 376.42 170.238 5
-3 -5 -5 3884.87 571.768 5
-3 -6 -5 138.855 133.854 5
-3 -7 -5 267.864 179.938 5
-3 -8 -5 208.783 142.385 5
-3 -9 -5 235.891 196.058 5
-3 -10 -5 370.153 263.5 5
-3 11 -6 199.463 202.074 6
-3 10 -6 3583.3 639.457 6
-3 9 -6 5898.27 782.336 6
-3 8 -6 894.485 293.989 6
-3 7 -6 3341.37 509.458 6
3 -7 6 3413.05 585.598 2
-3 6 -6 553.379 223.05 6
3 -6 6 589.993 248.862 2
-3 5 -6 777.86 229.81 6
3 -5 6 867.502 269.052 2
-3 4 -6 56.8451 99.7107 6
3 -4 6 -67.7185 178.233 2
3 -3 6 2717.35 465.078 2
-3 3 -6 2955.58 353.439 6
-3 2 -6 140.639 75.3715 6
-3 2 -6 248.442 139.995 5
-3 1 -6 2806.26 433.006 5
-3 1 -6 2522.46 285.632 6
-3 0 -6 22622.8 1194.73 5
-3 0 -6 20786.5 782.564 6
-3 -1 -6 4930.63 578.286 5
-3 -2 -6 -0.44424 102.851 5
-3 -3 -6 286.635 153.248 5
-3 -4 -6 181.815 131.19 5
-3 -5 -6 984.393 313.747 5
-3 -6 -6 64.1922 119.965 5
-3 -7 -6 875.842 316.164 5
-3 -8 -6 -15.0633 105.101 5
-3 -9 -6 250.914 188.681 5
-3 11 -7 187.074 186.421 6
-3 10 -7 51.7494 111.432 6
-3 9 -7 -218.961 174.148 6
-3 8 -7 -163.393 145.327 6
3 -8 7 49.7122 100.93 2
-3 7 -7 -2.13594 108.314 6
3 -7 7 173.272 242.626 2
3 -6 7 1199.54 341.6 2
-3 6 -7 1114.93 288.648 6
-3 5 -7 140.385 106.568 6
3 -5 7 193.603 144.144 2
-3 4 -7 260.102 139.074 6
3 -4 7 156.007 128.599 2
-3 3 -7 3068.91 479.359 5
3 -3 7 2842.26 519.138 2
-3 3 -7 2829.6 365.735 6
-3 2 -7 1389.64 234.068 6
-3 2 -7 1779.64 364.074 5
-3 1 -7 2675.23 437.6 5
-3 1 -7 2497.38 290.278 6
-3 0 -7 -4.03016 41.9431 6
-3 0 -7 -73.5414 165.321 5
-3 -1 -7 457.629 222.241 5
-3 -2 -7 1610.45 354.504 5
-3 -3 -7 4.82159 145.793 5
-3 -4 -7 35.8515 83.3626 5
-3 -5 -7 2330.92 489.3 5
-3 -6 -7 759.212 318.89 5
-3 -7 -7 85.1949 161.832 5
-3 -8 -7 149.673 169.018 5
-3 10 -8 896.69 359.284 6
-3 9 -8 129.527 169.229 6
-3 8 -8 125.761 117.547 6
3 -8 8 122.856 150.972 2
-3 7 -8 873.528 317.326 6
3 -7 8 388.616 258.015 2
-3 6 -8 741.998 260.963 6
3 -6 8 993.294 332.488 2
-3 5 -8 131.261 99.4255 6
3 -5 8 177.955 98.6797 2
3 -4 8 5650.33 750.79 2
-3 4 -8 5276.2 556.902 6
-3 3 -8 992.132 228.729 6
-3 3 -8 1189.8 332.844 5
3 -3 8 998.756 322.255 2
-3 2 -8 4384 599.303 5
-3 2 -8 4444.69 433.757 6
-3 1 -8 26.5839 74.4354 5
-3 0 -8 175.016 122.969 5
-3 -1 -8 136.791 141.23 5
-3 -2 -8 1863.35 417.609 5
-3 -3 -8 -4.14275 106.789 5
-3 -4 -8 0.63876 119.61 5
-3 -5 -8 -39.126 125.5 5
-3 -6 -8 363.495 246.866 5
-3 -7 -8 5050.28 796.944 5
-3 10 -9 772.7 327.65 6
3 -9 9 578.864 293.743 2
-3 9 -9 216.532 193.103 6
-3 8 -9 2925.7 552.304 6
3 -8 9 3767.11 699.512 2
-3 7 -9 782.37 276.5 6
3 -7 9 589.697 278.749 2
-3 6 -9 1039.35 296.824 6
3 -6 9 977.234 342.202 2
-3 5 -9 143.473 148.968 6
3 -5 9 87.6225 122.991 2
3 -4 9 3535.36 614.493 2
-3 3 -9 335.147 183.755 5
-3 2 -9 236.025 159.99 5
-3 1 -9 1045.21 318.482 5
-3 0 -9 806.522 276.913 5
-3 -1 -9 -77.2932 140.118 5
-3 -2 -9 3521.58 582.017 5
-3 -3 -9 912.242 327.904 5
-3 -4 -9 1814.49 447.934 5
-3 -5 -9 545.862 269.593 5
-3 -6 -9 343.081 199.494 5
-3 9 -10 159.307 166.655 6
3 -8 10 1675.14 478.111 2
3 -7 10 4356.14 759.777 2
3 -6 10 460.964 240.479 2
3 -5 10 3233.62 641.935 2
3 -4 10 1.55628 77.9278 2
-3 3 -10 3516.95 590.495 5
-3 2 -10 1775.14 419.62 5
-3 1 -10 144.497 137.374 5
-3 0 -10 1378.49 382.319 5
-3 -1 -10 9222 979.729 5
-3 -2 -10 9442.62 1013.56 5
-3 -3 -10 1082.92 369.167 5
-3 -4 -10 2051.02 506.646 5
3 -7 11 -22.2915 92.1031 2
3 -6 11 1909.68 519.086 2
3 -5 11 663.01 304.992 2
3 -4 11 1252.7 423.791 2
-3 3 -11 3281.5 600.935 5
-3 2 -11 870.901 317.676 5
-3 1 -11 1042.57 350.554 5
-3 0 -11 6987.81 876.772 5
-3 -1 -11 882.943 324.245 5
-3 -2 -11 6927.36 902.22 5
-3 -3 -11 2497.69 565.149 5
3 -6 12 338.281 239.976 2
3 -5 12 643.934 329.732 2
3 -4 12 2507.9 625.838 2
-3 3 -12 300.116 205.683 5
3 -3 12 -62.8886 150.433 2
-3 2 -12 187.711 179.742 5
-3 1 -12 650.958 276.43 5
-3 0 -12 651.587 286.524 5
-4 6 11 -27.7511 104.166 4
-4 5 11 1184.28 433.072 4
-4 4 11 -112.546 172.001 4
-4 3 11 437.157 288.986 4
4 -2 -11 -311.585 237.614 3
-4 2 11 115.555 155.231 4
4 -1 -11 975.809 364.187 3
-4 1 11 1074.01 432.704 4
-4 0 11 -133.15 183.722 4
4 0 -11 23.0734 95.8621 3
-4 -1 11 1415.72 500.318 4
4 1 -11 1374.84 431.179 3
4 2 -11 449.354 284.623 3
4 3 -11 119.402 144.973 3
4 4 -11 566.384 284.463 3
4 -8 -10 -0.89305 169.143 5
4 -7 -10 -202.078 192.204 5
-4 6 10 476.951 268.356 4
-4 5 10 -397.718 246.881 4
-4 4 10 400.073 254.274 4
4 -3 -10 275.492 215.703 3
-4 3 10 -156.146 177.281 4
4 -2 -10 89.2823 144.254 3
-4 2 10 383.488 281.192 4
4 -1 -10 8981.59 1032.28 3
-4 1 10 9052.47 1166.66 4
-4 0 10 -163.349 204.33 4
4 0 -10 300.643 238.29 3
-4 -1 10 801.738 369.198 4
4 1 -10 1599.78 439.531 3
4 2 -10 55.3067 103.517 3
4 3 -10 499.682 253.712 3
4 4 -10 701.212 290.665 3
4 5 -10 1.60116 64.5135 3
4 -9 -9 229.563 199.372 5
4 -8 -9 243.445 241.925 5
4 -7 -9 -70.2117 135.66 5
4 -6 -9 935.075 325.939 5
-4 6 9 791.803 313.426 4
4 -5 -9 664.091 250.567 5
-4 5 9 531.384 251.45 4
4 -4 -9 71.0178 110.142 3
-4 4 9 185.492 169.659 4
4 -3 -9 522.731 241.871 3
-4 3 9 516.206 265.771 4
4 -2 -9 -208.062 166.168 3
-4 2 9 443.19 244.401 4
-4 1 9 1675.08 512.847 4
4 -1 -9 1276.81 379.301 3
-4 0 9 2170.77 562.732 4
4 0 -9 2541.61 542.079 3
4 1 -9 490.21 268.701 3
4 2 -9 2084.6 494.807 3
4 3 -9 3183.54 616.233 3
4 4 -9 539.497 258.391 3
4 5 -9 229.291 188.719 3
4 -10 -8 5468.33 940.75 5
4 -9 -8 252.838 222.582 5
4 -8 -8 1512.03 437.419 5
4 -7 -8 1411.4 415.267 5
4 -6 -8 357.517 193.294 5
-4 6 8 273.98 185.39 4
4 -5 -8 1001.12 311.576 3
4 -5 -8 825.526 273.671 5
-4 5 8 596.778 256.09 4
4 -4 -8 14325.2 1184.42 3
4 -4 -8 13094 989.821 5
-4 4 8 13970.6 1213.78 4
4 -3 -8 9576.22 969.012 3
-4 3 8 10352.2 1069.53 4
4 -2 -8 2953.54 549.747 3
-4 2 8 3861.58 658.344 4
4 -1 -8 11801.9 1095.04 3
-4 1 8 10944.2 1153.43 4
-4 0 8 747.798 310.555 4
4 0 -8 269.027 187.724 3
4 1 -8 49.8887 133.095 3
4 2 -8 6787.3 849.99 3
4 3 -8 -61.8148 101.624 3
4 4 -8 1435.39 421.814 3
4 5 -8 686.256 298.554 3
4 6 -8 3957.77 678.347 3
4 -10 -7 844.828 381.034 5
4 -9 -7 49.7785 81.0754 5
4 -8 -7 223.575 195.097 5
4 -7 -7 973.773 338.414 5
4 -6 -7 849.857 280.951 3
4 -6 -7 485.379 191.239 5
-4 6 7 676.47 247.764 4
-4 5 7 1376.92 247.982 6
4 -5 -7 1396.89 332.283 3
4 -5 -7 941.927 311.324 5
-4 5 7 1060.52 316.531 4
4 -4 -7 715.894 251.895 3
4 -4 -7 849.168 250.656 5
-4 4 7 854.388 292.462 4
4 -3 -7 124.777 127.225 3
4 -3 -7 -34.7119 65.1744 5
-4 3 7 32.973 96.3639 4
-4 2 7 1243.92 362.025 4
4 -2 -7 1609.27 381.981 3
-4 1 7 266.228 193.282 4
4 -1 -7 -100.144 133.538 3
4 0 -7 2824.98 514.325 3
4 1 -7 1273.5 351.716 3
4 2 -7 3564.86 614.601 3
4 3 -7 1024.5 337.222 3
4 4 -7 13920.3 1207.11 3
4 5 -7 4550.43 710.99 3
4 6 -7 16716 1358.27 3
-4 -6 7 20606.6 1596.68 1
-4 -7 7 2682.1 604.732 1
4 -11 -6 1060.6 427.904 5
4 -10 -6 365.25 209.584 5
4 -9 -6 2277.62 564.807 5
4 -8 -6 5424.46 816.534 5
4 -7 -6 247.872 151.936 3
-4 7 6 102.628 83.9194 6
4 -7 -6 174.645 180.076 5
-4 6 6 123.991 87.1034 6
4 -6 -6 12.6038 68.1844 3
4 -6 -6 188.217 163.47 5
-4 6 6 99.1554 69.3972 4
-4 5 6 364.003 136.252 6
4 -5 -6 205.303 138.782 3
4 -5 -6 311.551 193.735 5
-4 5 6 240.659 150.111 4
4 -4 -6 655.402 236.062 3
4 -4 -6 439.213 177.575 5
-4 4 6 350.317 185.232 4
-4 3 6 286.767 183.752 4
4 -3 -6 221.318 106.498 3
4 -3 -6 34.5461 94.9148 5
-4 2 6 1252.29 359.76 4
4 -2 -6 1427.21 376.851 3
4 -2 -6 1644.75 262.672 5
4 -1 -6 8447.84 864.043 3
4 0 -6 12147.5 1045.1 3
4 1 -6 5028.75 684.01 3
4 2 -6 3222.1 553.072 3
4 3 -6 32.1799 108.168 3
4 4 -6 6883.11 846.101 3
-4 -5 6 72.9892 142.047 1
4 5 -6 86.7162 144.395 3
-4 -6 6 1737.57 477.562 1
4 6 -6 2116.59 484.615 3
-4 -7 6 -10.0154 129.82 1
4 -11 -5 263.627 244.442 5
-4 10 5 -64.7439 90.6605 6
4 -10 -5 255.833 222.794 5
-4 9 5 619.202 208.922 6
-4 8 5 453.315 171.974 6
-4 7 5 177.827 96.1498 6
4 -7 -5 838.575 254.698 3
4 -6 -5 2838.35 452.993 3
-4 6 5 2619.47 352.901 6
-4 6 5 3165.36 463.448 4
-4 5 5 3125.06 471.385 4
4 -5 -5 2714.08 448.646 3
-4 5 5 3504.24 400.776 6
4 -4 -5 8500.96 800.604 3
-4 4 5 8623.32 807.55 4
4 -3 -5 5016.6 629.538 3
4 -3 -5 5213.98 540.695 5
-4 3 5 4582.64 602.722 4
4 -2 -5 20249.5 1267.82 3
4 -2 -5 21012.2 941.287 5
4 -1 -5 516.37 246.602 3
4 -1 -5 439.698 107.617 5
4 0 -5 38864.1 1829.33 3
4 1 -5 -49.0909 156.694 3
4 2 -5 -107.944 124.194 3
4 3 -5 -58.8018 162.293 3
4 4 -5 2533.49 505.782 3
-4 -5 5 290.126 207.677 1
4 5 -5 248.361 161.472 3
-4 -6 5 425.392 233.439 1
4 6 -5 101.517 169.074 3
-4 -7 5 25.6199 159.356 1
4 7 -5 -320.682 213.537 3
-4 -8 5 934.813 368.632 1
-4 12 4 748.453 287.534 6
-4 11 4 204.611 129.439 6
-4 10 4 2762.87 479.843 6
-4 9 4 4344.82 563.156 6
-4 8 4 1027.75 269.293 6
-4 7 4 619.263 194.013 6
4 -7 -4 512.223 176.931 3
4 -6 -4 124545 2831.56 3
-4 6 4 121763 2440.91 6
4 -5 -4 9594.05 803.432 3
-4 5 4 9440.33 654.967 6
4 -4 -4 65181.2 2121.64 3
4 -3 -4 12198.1 932.474 3
4 -2 -4 17254.9 1138.65 3
4 -1 -4 33129 1623.64 3
4 -1 -4 32466.4 947.628 5
4 0 -4 610.783 74.579 5
4 0 -4 838.333 260.608 3
4 1 -4 1478.9 376.601 3
4 2 -4 2836.56 503.906 3
4 3 -4 9695.92 948.033 3
4 4 -4 1846.6 455.374 3
-4 -5 4 5179.94 712.713 1
4 5 -4 5243 736.874 3
-4 -6 4 330.197 246.487 1
4 6 -4 -122.813 144.442 3
-4 -7 4 202.172 176.193 1
4 7 -4 357.503 196.695 3
-4 -8 4 1301.17 407.683 1
-4 13 3 120.842 138.855 6
-4 12 3 1785.4 440.381 6
-4 11 3 1165.97 343.279 6
-4 10 3 167.981 140.972 6
-4 9 3 672.685 221.998 6
4 -8 -3 49836.9 1603.25 3
-4 8 3 51458.5 1819.32 6
-4 7 3 1619.46 303.349 6
4 -7 -3 1395.28 272.398 3
4 -6 -3 115573 2574.79 3
-4 6 3 115319 2399.86 6
-4 5 3 136.148 107.86 6
4 -5 -3 123.947 91.3402 3
4 -4 -3 1801.13 338.713 3
4 -3 -3 10256 840.087 3
4 -2 -3 5046.52 604.411 3
4 -1 -3 5014.61 621.099 3
4 0 -3 2397.17 167.583 5
4 0 -3 2741.17 486.711 3
4 1 -3 38870.2 1799.82 3
4 2 -3 20145.7 1346.32 3
4 3 -3 38639.6 1890.1 3
4 4 -3 1.23719 167.131 3
-4 -5 3 437.109 235.63 1
4 5 -3 656.653 281.886 3
-4 -6 3 454.261 250.926 1
4 6 -3 458.323 231.325 3
-4 -7 3 1125.45 363.71 1
4 7 -3 1288.23 389.223 3
-4 -8 3 -10.5754 138.624 1
-4 -9 3 169.64 163.449 1
-4 13 2 1074.37 361.029 6
-4 12 2 4911.29 737.565 6
-4 11 2 142.386 146.958 6
-4 10 2 806.027 265.762 6
-4 9 2 1304.45 310.974 6
-4 8 2 4002.57 512.666 6
4 -8 -2 2745.87 343.107 3
-4 7 2 50.7634 119.483 6
4 -7 -2 21.9931 67.7047 3
4 -6 -2 2521.93 363.197 3
-4 6 2 3047.96 396.963 6
4 -5 -2 4337.78 488.109 3
-4 5 2 4659.27 467.27 6
4 -4 -2 39.7571 63.2103 3
4 -3 -2 7208.22 674.617 3
4 -2 -2 16036.5 1053.81 3
4 -1 -2 2000.94 396.675 3
4 0 -2 5443 657.504 3
4 0 -2 4172.74 265.812 5
4 1 -2 32487.7 1650.69 3
4 1 -2 30846 672.127 5
4 2 -2 5200.64 682.41 3
4 3 -2 1093.97 332.833 3
4 4 -2 1803.12 453.313 3
-4 -5 2 2563.77 479.273 1
4 5 -2 2872.85 543.186 3
-4 -6 2 -62.5449 112.486 1
4 6 -2 107.301 139.674 3
-4 -7 2 -292.313 196.891 1
4 7 -2 77.7125 124.652 3
-4 -8 2 -226.452 194.195 1
4 8 -2 50.1354 122.935 3
-4 -9 2 163.948 184.509 1
-4 13 1 1158.31 390.749 6
-4 12 1 1002.24 341.974 6
-4 11 1 1271.96 359.319 6
-4 10 1 47.3236 160.374 6
-4 9 1 807.737 255.63 6
-4 8 1 279.744 135.813 6
-4 7 1 254.456 162.451 6
4 -7 -1 -19.376 35.9781 3
-4 6 1 248.01 108.864 6
4 -6 -1 276.235 125.563 3
-4 5 1 486.889 154.675 6
4 -5 -1 804.61 208.45 3
4 -4 -1 4662.06 514.54 3
4 -3 -1 5261.76 572.619 3
4 -2 -1 6965.51 678.215 3
4 -1 -1 72.9946 111.283 3
4 0 -1 41.128 122.432 3
4 1 -1 7083.92 761.499 3
4 1 -1 6092.64 472.493 2
4 2 -1 410.342 214.488 3
-4 -2 1 391.862 94.4156 5
4 2 -1 316.278 108.615 2
-4 -3 1 5470.86 361.172 5
4 3 -1 5410.7 382.837 2
-4 -4 1 4797.23 365.127 5
4 4 -1 5323.35 726.207 3
4 5 -1 731.378 308.656 3
-4 -5 1 888.147 282.454 1
4 6 -1 205.877 226.495 3
-4 -6 1 86.5238 151.688 1
4 7 -1 66.577 174.603 3
-4 -7 1 -32.3515 218.123 1
-4 -8 1 -308.635 215.729 1
4 8 -1 178.448 187.653 3
-4 -9 1 1734.6 479.394 1
-4 12 0 4625.1 737.259 6
-4 11 0 1029.31 351.907 6
-4 10 0 218.47 177.054 6
-4 9 0 3590.19 547.168 6
-4 8 0 575.437 213.878 6
-4 7 0 570.489 186.418 6
4 -7 0 395.699 126.487 3
4 -6 0 3695.68 407.867 3
-4 6 0 3717.31 450.682 6
-4 5 0 351.162 141.266 6
4 -5 0 67.1687 88.6606 3
4 -4 0 1069.75 258.221 3
4 -3 0 172.639 111.481 3
4 -2 0 10133.3 827.181 3
4 -2 0 10369 761.867 2
4 -1 0 3303.32 494.936 3
4 -1 0 4274.86 467.549 2
4 0 0 16506.9 1136.49 3
4 0 0 18365.3 917.734 2
4 1 0 2385.55 462.185 3
-4 -1 0 2329.48 265.325 5
4 1 0 2734.3 335.415 2
-4 -2 0 8520.79 510.234 5
4 2 0 8369 866.205 3
4 2 0 8712.52 571.314 2
-4 -3 0 8722.3 534.897 5
4 3 0 8156.59 872.779 3
4 3 0 8935.97 572.209 2
-4 -4 0 6979.88 520.352 5
4 4 0 7921.63 902.836 3
4 4 0 5889.97 457.04 2
4 5 0 -34.1868 156.243 3
-4 -5 0 -11.5874 53.6306 5
4 6 0 190.331 128.656 3
-4 -6 0 70.7831 126.549 1
4 7 0 3842.04 696.047 3
-4 -7 0 4159.7 650.258 1
4 8 0 3477.37 692.712 3
-4 -8 0 4395.56 707.546 1
-4 -9 0 1654.3 469.806 1
-4 12 -1 1765.59 474.353 6
-4 11 -1 2979.39 566.352 6
-4 10 -1 534.755 254.761 6
-4 9 -1 1693.83 383.272 6
-4 8 -1 8327.85 777.265 6
-4 7 -1 397.767 167.978 6
4 -7 1 820.245 164.526 3
4 -6 1 7599.38 567.563 3
-4 6 -1 9366.23 714.398 6
4 -5 1 8535.93 654.12 3
-4 5 -1 8763.65 657.859 6
4 -4 1 36656.9 1436.21 3
4 -3 1 78.7034 107.586 3
4 -3 1 33.3297 94.9172 2
4 -2 1 80507.9 2297.01 3
4 -2 1 78042.4 2142.53 2
4 -1 1 5469.81 631.894 3
4 -1 1 5621.15 551.434 2
-4 0 -1 9890.87 616.043 5
4 0 1 10955.6 929.216 3
4 0 1 10426.3 712.607 2
-4 -1 -1 5417.27 447.411 5
4 1 1 5441.38 669.833 3
4 1 1 5631.21 511.115 2
-4 -2 -1 12995.1 701.863 5
4 2 1 13429.8 1102.75 3
4 2 1 13492.7 787.539 2
4 3 1 620.697 269.114 3
-4 -3 -1 64.645 76.2372 5
-4 -4 -1 14199.8 808.517 5
4 4 1 14454.3 1204.54 3
4 5 1 1380.97 419.477 3
-4 -5 -1 1537.18 289.551 5
4 6 1 3162.99 622.39 3
-4 -6 -1 3152.77 434.11 5
4 7 1 4375.18 743.849 3
-4 -7 -1 4017.28 612.483 1
4 8 1 -353.783 250.232 3
-4 -8 -1 -234.255 218.57 1
-4 -9 -1 1189.68 399.348 1
-4 -10 -1 282.692 215.15 1
-4 12 -2 94.3415 146.748 6
-4 11 -2 -89.9999 146.104 6
-4 10 -2 104.808 150.725 6
-4 9 -2 712.878 257.977 6
-4 8 -2 6640.27 710.595 6
-4 7 -2 10428.6 829.643 6
-4 6 -2 2273.16 375.538 6
4 -6 2 2669.32 349.809 3
4 -5 2 1294.4 264.71 3
-4 5 -2 971.737 227.22 6
4 -5 2 1710.01 359.194 2
4 -4 2 8031.17 674.748 3
4 -4 2 8318.32 789.74 2
-4 4 -2 8719.98 638.799 6
4 -3 2 1052.07 259.629 3
4 -3 2 1486.46 322.759 2
4 -2 2 323.147 179.457 2
4 -2 2 -44.0373 156.873 3
4 -1 2 -60.2238 73.3885 2
-4 0 -2 7123.94 563.708 5
4 0 2 8163.23 673.046 2
-4 -1 -2 4597.98 451.987 5
4 1 2 4086.05 477.723 2
-4 -2 -2 32900 1227.44 5
-4 -3 -2 2890.7 385.967 5
-4 -4 -2 14147.8 881.548 5
-4 -5 -2 12577.2 880.709 5
4 6 2 656.24 304.41 3
-4 -6 -2 373.905 169.476 5
4 7 2 145.962 186.851 3
-4 -7 -2 42.5879 104.858 5
4 8 2 1059.86 381.903 3
-4 -8 -2 1063.97 340.183 1
-4 -9 -2 1973.47 489.76 1
-4 12 -3 196.801 200.954 6
-4 11 -3 1427.02 425.309 6
-4 10 -3 3155.89 580.213 6
-4 9 -3 71.8025 152.731 6
-4 8 -3 5181.77 634.704 6
-4 7 -3 925.988 268.244 6
4 -6 3 683.813 183.442 3
-4 6 -3 682.391 205.97 6
4 -6 3 809.137 281.711 2
-4 5 -3 49.0189 105.414 6
4 -5 3 -28.9658 64.4711 3
4 -5 3 -48.3174 189.189 2
4 -4 3 6233.24 611.487 3
4 -4 3 6122.4 701.617 2
-4 4 -3 5440.64 512.277 6
4 -3 3 16316.3 1097.24 2
4 -2 3 41367.5 1668.73 2
-4 1 -3 447.512 176.296 5
4 -1 3 480.619 196.089 2
-4 0 -3 914.698 216.459 5
4 0 3 823.3 238.158 2
-4 -1 -3 4312.1 468.645 5
-4 -2 -3 1422.36 280.296 5
-4 -3 -3 19654.9 1069.57 5
-4 -4 -3 180.499 139.645 5
-4 -5 -3 3071.32 463.797 5
-4 -6 -3 1002.33 285.489 5
-4 -7 -3 -29.7107 117.902 5
4 8 3 483.883 289.06 3
-4 -8 -3 720.856 270.085 5
4 9 3 256.727 237.727 3
-4 11 -4 -138.496 168.331 6
-4 10 -4 742.76 295.914 6
-4 9 -4 1808.88 407.446 6
-4 8 -4 189.196 134.398 6
-4 7 -4 54.5761 117.663 6
-4 6 -4 499.576 203.085 6
4 -6 4 627.181 196.197 3
4 -6 4 484.275 224.331 2
4 -5 4 8022.5 860.053 2
-4 5 -4 8186.54 678.299 6
-4 4 -4 26981.2 1163.29 6
4 -4 4 27105.7 1517.21 2
4 -3 4 2477.38 448.917 2
-4 3 -4 3108.07 383.967 6
-4 2 -4 3002.7 429.868 5
4 -2 4 3503.79 515.556 2
-4 1 -4 14819.5 929.025 5
4 -1 4 13236.5 983.862 2
-4 0 -4 778.204 215.049 5
-4 -1 -4 5706.44 580.249 5
-4 -2 -4 8060.58 705.977 5
-4 -3 -4 2155.65 371.174 5
-4 -4 -4 7271.02 727.869 5
-4 -5 -4 2044.35 409.089 5
-4 -6 -4 4107.51 601.921 5
-4 -7 -4 121.992 123.258 5
-4 -8 -4 991.435 316.001 5
-4 11 -5 477.891 263.024 6
-4 10 -5 143.581 201.866 6
-4 9 -5 1110.5 350.144 6
-4 8 -5 1346.51 356.367 6
4 -7 5 19946.6 1473.65 2
-4 7 -5 22683.9 1307.15 6
4 -6 5 7401.69 876.404 2
-4 6 -5 8038.9 730.353 6
4 -5 5 6374.36 794.132 2
-4 5 -5 6189.02 606.018 6
4 -4 5 38195.8 1834.52 2
-4 4 -5 36089.5 1363.09 6
4 -3 5 26168.4 1499.27 2
-4 3 -5 24895.9 1076.38 6
-4 2 -5 64136 2068.5 5
4 -2 5 60635.9 2245.38 2
-4 2 -5 61653.6 1648.88 6
-4 1 -5 8547.29 755.897 5
-4 0 -5 1561.99 322.983 5
-4 -1 -5 12586.8 909.662 5
-4 -2 -5 869.025 262.53 5
-4 -3 -5 1576.78 338.237 5
-4 -4 -5 445.838 197.352 5
-4 -5 -5 393.749 198.194 5
-4 -6 -5 706.887 254.241 5
-4 -7 -5 296.131 182.395 5
-4 -8 -5 -103.792 127.91 5
-4 11 -6 529.804 319.903 6
-4 10 -6 1641.38 441.385 6
-4 9 -6 8059.91 908.844 6
-4 8 -6 1640.01 401.305 6
4 -8 6 1812.85 490.865 2
4 -7 6 12993.8 1217.78 2
-4 7 -6 10729.3 927.803 6
4 -6 6 16232.6 1324.9 2
-4 6 -6 16429.9 1074.04 6
4 -5 6 198.848 167.782 2
-4 5 -6 386.641 170.267 6
4 -4 6 33478.4 1783.5 2
-4 4 -6 30603.9 1305.28 6
-4 3 -6 -36.1996 76.7119 6
4 -3 6 -72.4326 152.007 2
-4 2 -6 1707 276.259 6
-4 2 -6 1116.94 296.111 5
4 -2 6 1221.91 348.464 2
-4 1 -6 836.324 193.761 6
-4 1 -6 973.448 271.784 5
-4 0 -6 712.87 231.529 5
-4 -1 -6 15917.4 1081.56 5
-4 -2 -6 3251.9 516.691 5
-4 -3 -6 1692.72 378.234 5
-4 -4 -6 1864.89 404.064 5
-4 -5 -6 2778.29 523.019 5
-4 -6 -6 124.906 128.197 5
-4 -7 -6 272.671 185.67 5
-4 -8 -6 602.855 275.244 5
-4 10 -7 2894.87 619.019 6
-4 9 -7 1840.34 454.652 6
-4 8 -7 325.651 176.688 6
4 -8 7 228.314 197.467 2
-4 7 -7 231.257 192.543 6
4 -7 7 453.772 253.172 2
-4 6 -7 2770.98 463.064 6
4 -6 7 1616.51 423.169 2
-4 5 -7 2235.06 392.938 6
4 -5 7 2099.92 490.257 2
-4 4 -7 253.004 152.924 6
4 -4 7 0.66625 120.919 2
4 -3 7 3500.41 603.253 2
-4 3 -7 2846 385.64 6
-4 2 -7 599.502 174.183 6
-4 2 -7 1164.91 330.49 5
4 -2 7 672.836 290.036 2
-4 1 -7 187.217 99.2193 6
-4 1 -7 169.255 137.477 5
-4 0 -7 2544.74 452.259 5
-4 0 -7 3083.98 354.149 6
-4 -1 -7 4.26307 94.9751 5
-4 -2 -7 12.8032 99.1818 5
-4 -3 -7 -1.76547 102.154 5
-4 -4 -7 68.2 123.566 5
-4 -5 -7 -501.883 244.719 5
-4 -6 -7 678.529 298.7 5
-4 -7 -7 833.413 332.189 5
-4 10 -8 2735 609.089 6
-4 9 -8 2594.79 560.338 6
4 -9 8 2334.36 591.217 2
-4 8 -8 316.559 204.396 6
4 -8 8 444.342 258.004 2
-4 7 -8 871.248 284.93 6
4 -7 8 1374.43 435.676 2
4 -6 8 268.914 192.187 2
-4 6 -8 149.382 132.132 6
4 -5 8 4076.46 691.867 2
-4 5 -8 3166.85 474.588 6
-4 4 -8 297.772 148.907 6
4 -4 8 112.044 145.286 2
-4 3 -8 1838.5 322.267 6
4 -3 8 2309.41 496.328 2
-4 2 -8 514.352 244.571 5
-4 1 -8 651.14 280.903 5
-4 0 -8 26.587 78.7251 5
-4 -1 -8 74.7997 111.539 5
-4 -2 -8 1288.82 374.721 5
-4 -3 -8 921.181 302.841 5
-4 -4 -8 156.696 174.236 5
-4 -5 -8 -98.3213 140.336 5
-4 -6 -8 -98.8578 163.129 5
-4 9 -9 740.122 315.786 6
4 -9 9 877.792 412.753 2
-4 8 -9 138.522 129.794 6
4 -8 9 -24.5477 112.151 2
-4 7 -9 235.011 158.896 6
4 -7 9 613.81 324.151 2
-4 6 -9 1007.57 306.92 6
4 -6 9 940.922 359.393 2
4 -5 9 49.2716 141.919 2
4 -4 9 299.016 242.364 2
-4 3 -9 2749.67 534.707 5
4 -3 9 2860.63 602.766 2
-4 2 -9 -47.0273 189.078 5
-4 1 -9 389.926 229.121 5
-4 0 -9 1367.33 385.831 5
-4 -1 -9 1242.85 366.122 5
-4 -2 -9 2130.14 488.778 5
-4 -3 -9 5162.94 763.022 5
-4 -4 -9 1027.18 368.751 5
4 -8 10 136.788 163.127 2
4 -7 10 2858.59 654.978 2
4 -6 10 36.3039 133.485 2
4 -5 10 19.8002 96.9939 2
4 -4 10 -63.7285 124.279 2
-4 3 -10 -99.7188 133.285 5
4 -3 10 603.142 303.576 2
-4 2 -10 861.837 322.424 5
-4 1 -10 482.928 250.038 5
-4 0 -10 808.065 325.263 5
-4 -1 -10 224.561 185.746 5
-4 -2 -10 449.86 227.946 5
-4 -3 -10 2076.31 520.855 5
4 -6 11 494.066 283.637 2
4 -5 11 328.251 247.09 2
4 -4 11 -177.172 175.532 2
4 -3 11 44.307 134.71 2
-4 2 -11 -46.88 156.3 5
-4 1 -11 2.35403 141.209 5
-4 0 -11 1663.41 456.41 5
-5 5 11 2662.78 676.017 4
-5 4 11 -485.169 321.025 4
-5 3 11 493.82 315.917 4
-5 5 10 434.063 271.201 4
5 -5 -10 272.242 192.704 3
-5 4 10 1531.88 492.575 4
5 -4 -10 1071.61 374.964 3
-5 3 10 4306.33 828.96 4
5 -3 -10 4323.55 760.823 3
-5 2 10 724.299 352.714 4
5 -2 -10 200.408 195.001 3
5 -1 -10 7946.41 1036.66 3
5 0 -10 578.385 292.953 3
5 1 -10 519.122 296.071 3
5 2 -10 463.129 274.439 3
5 -6 -9 623.573 291.935 3
-5 5 9 1761.61 495.225 4
5 -5 -9 1969.79 483.077 3
-5 4 9 -271.406 218.964 4
5 -4 -9 -223.238 191.331 3
-5 3 9 581.725 308.372 4
5 -3 -9 -21.7406 111.348 3
5 -2 -9 13121 1274.51 3
5 -1 -9 1302.78 423.211 3
5 0 -9 1891.85 498.115 3
5 1 -9 -594.625 292.439 3
5 2 -9 429.427 239.107 3
5 3 -9 1117.19 415.846 3
5 4 -9 389.28 246.36 3
5 5 -9 237.215 119.783 3
5 -9 -8 3892.95 760.279 5
5 -8 -8 324.789 237.315 5
5 -7 -8 7383.58 893.415 3
5 -7 -8 7064.7 904.526 5
-5 6 8 524.737 255.572 4
5 -6 -8 456.869 238.856 3
-5 5 8 2245.48 533.951 4
5 -5 -8 1727.59 441.047 3
-5 4 8 -197.163 182.05 4
5 -4 -8 49.1002 128.764 3
5 -3 -8 777.584 297.349 3
5 -2 -8 800.111 298.283 3
5 -1 -8 811.907 299.002 3
5 0 -8 12935.6 1258.2 3
5 1 -8 728.221 309.963 3
5 2 -8 274.418 201.619 3
5 3 -8 2712.25 592.493 3
5 4 -8 815.811 322.57 3
5 5 -8 -110.262 165.903 3
5 -10 -7 1020.39 403.354 5
5 -9 -7 1946.86 550.802 5
5 -8 -7 135.423 180.553 5
5 -7 -7 146.232 161.941 3
5 -7 -7 266.098 188.602 5
-5 6 7 419.51 216.725 4
5 -6 -7 367.564 207.505 3
5 -6 -7 405.26 213.499 5
5 -5 -7 26.6916 94.2767 3
5 -4 -7 1440.41 400.701 3
5 -3 -7 2013.94 468.927 3
5 -2 -7 13516 1212.66 3
5 -1 -7 2184 490.188 3
5 0 -7 3985.65 671.171 3
5 1 -7 492.429 220.408 3
5 2 -7 458.104 262.275 3
5 3 -7 5021.71 789.256 3
5 4 -7 400.934 253.409 3
5 5 -7 2638.57 598.659 3
5 6 -7 370.611 251.086 3
5 -10 -6 596.273 317.598 5
5 -9 -6 3955.5 749.37 5
5 -8 -6 2459.77 464.886 3
-5 8 6 2266.82 392.929 6
5 -8 -6 2652.89 577.374 5
5 -7 -6 3604.24 573.151 3
5 -7 -6 4117.49 678.222 5
-5 7 6 4075.39 503.909 6
-5 6 6 55.6068 79.8714 6
5 -6 -6 137.366 136.184 3
5 -6 -6 58.3495 114.366 5
5 -5 -6 2505.29 496.265 3
5 -5 -6 2293.58 441.122 5
5 -4 -6 56.9864 146.711 3
5 -4 -6 29.7515 110.188 5
5 -3 -6 -152.22 145.542 3
5 -2 -6 11.0359 78.0706 3
5 -1 -6 729.37 317.149 3
5 0 -6 92.6927 157.429 3
5 1 -6 1048.62 369.348 3
5 2 -6 -346.884 221.929 3
5 3 -6 -213.609 194.786 3
5 4 -6 -106.711 159.93 3
5 5 -6 2047 515.184 3
5 6 -6 33.119 123.664 3
-5 10 5 405.017 195.157 6
-5 9 5 1380.06 331.519 6
-5 8 5 1216.07 287.736 6
5 -8 -5 836.051 264.752 3
-5 7 5 2916.88 432.098 6
5 -7 -5 2039.81 417.074 3
-5 6 5 117.508 117.022 6
5 -6 -5 66.5282 127.177 3
5 -5 -5 3798.83 582.491 3
5 -4 -5 1396.48 347.88 3
5 -3 -5 850.607 297.419 3
5 -2 -5 15408.3 1236.31 3
5 -1 -5 2743.17 559.026 3
5 0 -5 943.743 337.694 3
5 1 -5 572.092 267.899 3
5 2 -5 517.268 250.943 3
5 3 -5 -274.68 197.295 3
5 4 -5 33.5933 149.953 3
5 5 -5 2637.12 591.093 3
5 6 -5 294.722 195.842 3
5 7 -5 1284.43 422.246 3
-5 12 4 2096.14 485.21 6
-5 11 4 -26.6635 86.5555 6
-5 10 4 160.596 137.283 6
-5 9 4 647.89 211.592 6
-5 8 4 82.2264 101.913 6
5 -8 -4 -106.634 99.3381 3
-5 7 4 2990.23 437.173 6
5 -7 -4 3209.28 495.992 3
-5 6 4 133.859 117.068 6
5 -6 -4 218.593 141.711 3
5 -5 -4 11272.3 954.325 3
5 -4 -4 8014.62 830.352 3
5 -3 -4 9286.91 924.14 3
5 -2 -4 746.179 288.523 3
5 -1 -4 65.174 95.7571 3
5 0 -4 6325.98 801.981 3
5 1 -4 -423.308 240.432 3
5 2 -4 2640.83 523.428 3
5 3 -4 -449.862 247.374 3
5 4 -4 368.976 247.618 3
5 5 -4 3498.15 657.566 3
5 6 -4 74.3511 127.292 3
5 7 -4 757.65 318.491 3
-5 12 3 937.74 334.35 6
-5 11 3 -4.49756 99.5545 6
-5 10 3 171.097 143.419 6
-5 9 3 395.264 189.568 6
-5 8 3 350.812 175.504 6
5 -8 -3 297.995 162.15 3
5 -7 -3 24431.5 1314.23 3
-5 7 3 25405.9 1273.49 6
-5 6 3 1301.96 276.403 6
5 -6 -3 1210.83 302.036 3
5 -5 -3 112514 2948.81 3
5 -4 -3 3972.2 580.919 3
5 -3 -3 8759.27 870.914 3
5 -2 -3 72414.6 2535.67 3
5 -1 -3 168.277 129.966 3
5 0 -3 -33.445 112.439 3
5 1 -3 28108.4 1723.58 3
5 2 -3 872.874 306.121 3
5 3 -3 5641.25 815.517 3
5 4 -3 3409.18 652.445 3
5 5 -3 105.457 148.129 3
5 6 -3 211.789 210.064 3
5 7 -3 119.186 137.269 3
-5 12 2 186.414 170.328 6
-5 11 2 2108.83 471.942 6
-5 10 2 151.553 151.018 6
-5 9 2 155.797 150.953 6
-5 8 2 2688.43 438.912 6
5 -8 -2 2105.36 347.434 3
5 -7 -2 17173.6 1053.87 3
-5 7 2 18427.6 1092.42 6
-5 6 2 615.997 212.683 6
5 -6 -2 633.171 198.032 3
5 -5 -2 10384.6 876.182 3
5 -4 -2 10139.9 883.623 3
5 -3 -2 12181.1 1011.8 3
5 -2 -2 429.672 207.249 3
5 -1 -2 389.529 212.493 3
5 0 -2 2122.26 479.081 3
5 1 -2 9705.47 1011.46 3
5 2 -2 40249.8 2102.92 3
5 3 -2 141.745 131.772 3
5 4 -2 1163.86 384.292 3
5 5 -2 992.301 371.336 3
5 6 -2 28.1547 115.165 3
5 7 -2 565.455 302.2 3
-5 12 1 641.378 285.419 6
-5 11 1 2350.94 500.62 6
-5 10 1 175.305 138.493 6
-5 9 1 818.793 259.54 6
-5 8 1 214.272 132.207 6
-5 7 1 -51.0768 90.4155 6
5 -7 -1 25.9512 60.5877 3
-5 6 1 695.115 224.418 6
5 -6 -1 279.416 135.009 3
5 -5 -1 5435.85 618.289 3
5 -4 -1 4919.46 622.262 3
5 -3 -1 19733.9 1266.77 3
5 -2 -1 23177.4 1434.68 3
5 -1 -1 263.796 203.578 3
5 0 -1 3226.38 575.203 3
5 1 -1 5547.23 760.203 3
5 2 -1 -171.327 177.488 3
5 3 -1 533.072 270.346 3
5 4 -1 480.165 280.799 3
5 5 -1 226.588 225.063 3
5 6 -1 182.177 150.269 3
5 7 -1 -69.6497 133.969 3
5 8 -1 -193.771 205.193 3
-5 12 0 2660.88 571.171 6
-5 11 0 -118.653 158.815 6
-5 10 0 72.2103 131.326 6
-5 9 0 2457.67 460.602 6
-5 8 0 4476.56 586.249 6
-5 7 0 910.822 264.723 6
5 -7 0 841.388 222.93 3
-5 6 0 1297.95 291.905 6
5 -6 0 893.815 240.683 3
-5 5 0 54.814 92.5006 6
5 -5 0 357.801 152.619 3
5 -4 0 11989.4 958.672 3
5 -3 0 2157.77 440.371 3
5 -2 0 2087.15 435.452 3
5 -1 0 2173.27 457.15 3
5 -1 0 2302.46 383.55 2
5 0 0 48.8732 115.95 3
5 0 0 -43.9794 92.094 2
5 1 0 1831.51 447.61 3
5 1 0 1701.26 308.501 2
5 2 0 2921.72 575.787 3
-5 -2 0 2555.99 312.625 5
5 2 0 2715.95 371.036 2
5 3 0 1106.45 389.083 3
5 4 0 2889.96 614.623 3
5 5 0 240.341 241.317 3
5 6 0 192.937 281.514 3
5 7 0 592.709 363.154 3
5 8 0 -16.778 133.628 3
-5 12 -1 423.27 236.447 6
-5 11 -1 259.13 164.807 6
-5 10 -1 14561.5 1201.74 6
-5 9 -1 380.141 210.084 6
-5 8 -1 9360.29 854.919 6
5 -7 1 5153.03 532.736 3
-5 7 -1 5946.52 648.912 6
-5 6 -1 -83.0333 124.263 6
5 -6 1 50.1598 86.5989 3
5 -5 1 18518.9 1139.86 3
-5 5 -1 19541.1 1075.68 6
5 -4 1 908.348 284.807 3
5 -3 1 30.5982 113.422 3
5 -3 1 43.2708 109.72 2
5 -2 1 1843.46 413.326 3
5 -2 1 2071.98 394.228 2
5 -1 1 23678.3 1489.54 3
5 -1 1 22781.4 1249.76 2
5 0 1 4326.58 666.497 3
5 0 1 4895.78 562.892 2
-5 -1 -1 10517.1 700.869 5
5 1 1 10448.2 1054.39 3
5 1 1 10829.2 805.804 2
-5 -2 -1 7617.68 593.671 5
5 2 1 8888.91 987.509 3
5 2 1 8337.88 688.177 2
5 3 1 1601.69 426.937 3
5 3 1 784.591 208.979 2
-5 -3 -1 1177.26 239.97 5
5 4 1 8045.82 1004.56 3
5 5 1 3006.06 662.641 3
5 6 1 269.49 258.95 3
5 7 1 1585.39 509.474 3
5 8 1 800.534 364.184 3
-5 11 -2 2445.31 540.203 6
-5 10 -2 9720.26 994.556 6
-5 9 -2 2995.1 520.595 6
-5 8 -2 442.712 219.27 6
-5 7 -2 7752.28 746.524 6
5 -6 2 7634.32 712.083 3
-5 6 -2 8327.14 738.262 6
5 -5 2 707.531 223.395 3
-5 5 -2 1075.89 273.533 6
5 -4 2 536.228 203.135 3
5 -4 2 1146.11 352.151 2
5 -3 2 2830.91 495.079 3
5 -3 2 2750.84 479.659 2
5 -2 2 344.79 232.493 3
5 -2 2 -192.762 144.459 2
5 -1 2 29749.5 1696.74 3
5 -1 2 27995.8 1448.09 2
5 0 2 1825.06 369.593 2
-5 0 -2 1562.04 299.482 5
5 0 2 2200.07 487.556 3
5 1 2 1468.44 328.341 2
5 1 2 1694.39 428.567 3
-5 -1 -2 1370.46 270.475 5
5 2 2 1202.72 378.623 3
5 2 2 842.008 242.002 2
-5 -2 -2 996.353 231.112 5
5 3 2 993.736 351.014 3
-5 -3 -2 1126.49 254.507 5
5 3 2 1123.28 269.329 2
5 4 2 2242 556.283 3
-5 -4 -2 1088.5 264.178 5
5 5 2 1948.6 535.656 3
5 6 2 3293.91 720.55 3
5 7 2 463.102 317.37 3
5 8 2 1307.72 478.479 3
-5 11 -3 3035.23 602.51 6
-5 10 -3 5112.31 742.888 6
-5 9 -3 143.722 136.827 6
-5 8 -3 240.926 154.457 6
-5 7 -3 1879.8 378.793 6
5 -6 3 3527.21 492.042 3
5 -6 3 3104.93 582.874 2
-5 6 -3 4202.97 535.671 6
5 -5 3 1465.85 335.463 3
-5 5 -3 1059.2 268.808 6
5 -5 3 1246.76 359.508 2
-5 4 -3 1872.39 327.499 6
5 -4 3 1260.26 332.016 3
5 -4 3 1394.77 374.254 2
5 -3 3 44.9572 121.344 3
5 -3 3 114.608 107.004 2
5 -2 3 -1.57089 138.231 2
5 -2 3 254.722 191.245 3
5 -1 3 5220.85 637.834 2
-5 0 -3 5884.83 594.26 5
5 0 3 5079.21 630.157 2
-5 -1 -3 338.954 137.576 5
5 1 3 579.539 209.511 2
-5 -2 -3 148.762 122.622 5
5 2 3 47.3824 94.8728 2
-5 -3 -3 168.429 116.315 5
-5 -4 -3 65.1233 83.3064 5
5 5 3 -169.65 194.362 3
-5 -5 -3 202.362 145.309 5
5 6 3 2934.79 707.916 3
5 7 3 906.57 413.721 3
5 8 3 268.775 250.546 3
-5 11 -4 -132.708 158.727 6
-5 10 -4 2147.13 494.937 6
-5 9 -4 2647.72 513.557 6
-5 8 -4 1129.38 319.926 6
-5 7 -4 2294.64 421.743 6
-5 6 -4 2706.58 433.156 6
5 -6 4 2862.38 451.455 3
5 -6 4 2915.45 573.455 2
-5 5 -4 355.127 185.941 6
5 -5 4 598.685 225.793 3
5 -5 4 625.511 261.892 2
5 -4 4 7613.92 809.973 3
5 -4 4 6986.78 838.805 2
-5 4 -4 7847.83 683.521 6
5 -3 4 25678.2 1542.24 2
5 -2 4 1360.16 366.501 2
5 -1 4 2298.57 452.846 2
-5 1 -4 1835.65 360.147 5
-5 0 -4 974.585 266.522 5
5 0 4 408.647 183.406 2
-5 -1 -4 1659.17 339.056 5
5 1 4 2090.25 421.153 2
-5 -2 -4 272.738 160.56 5
-5 -3 -4 3093.89 485.414 5
-5 -4 -4 98.1591 118.445 5
-5 -5 -4 1566.58 371.29 5
-5 -6 -4 815.765 257.618 5
5 7 4 193.1 178.162 3
5 8 4 933.666 417.043 3
-5 11 -5 1022.15 345.226 6
-5 10 -5 -2.21152 99.0499 6
-5 9 -5 485.27 237.804 6
-5 8 -5 4052.11 598.941 6
-5 7 -5 18.1108 126.766 6
5 -7 5 364.052 236.953 2
5 -6 5 7478.12 751.763 3
5 -6 5 8717.04 1020.73 2
-5 6 -5 8304.44 778.855 6
-5 5 -5 2082.75 377.745 6
5 -5 5 2346.79 510.411 2
5 -4 5 7557.03 901.803 2
-5 4 -5 6472.87 631.773 6
5 -3 5 -181.028 212.812 2
-5 3 -5 483.148 190.708 6
5 -2 5 -104.658 147.031 2
-5 1 -5 10655.2 907.899 5
5 -1 5 12278.2 1075.95 2
-5 0 -5 157.268 105.113 5
5 0 5 805.339 300.984 2
-5 -1 -5 1850.77 384.353 5
-5 -2 -5 1326.24 332.385 5
-5 -3 -5 4416.57 604.79 5
-5 -4 -5 3961.8 595.685 5
-5 -5 -5 235.017 150.447 5
-5 -6 -5 85.2976 102.563 5
-5 -7 -5 -250.615 183.327 5
-5 10 -6 198.684 186.638 6
-5 9 -6 2726.34 547.872 6
-5 8 -6 2427.52 481.018 6
5 -8 6 1654.82 501.26 2
-5 7 -6 -32.378 94.6615 6
5 -7 6 62.5313 128.307 2
5 -6 6 6060.71 875.038 2
-5 6 -6 6659.71 719.359 6
-5 5 -6 2854.58 444.471 6
5 -5 6 3061.68 620.289 2
5 -4 6 2275.46 523.064 2
-5 4 -6 2059.32 371.559 6
5 -3 6 17595.6 1376.46 2
-5 3 -6 17336 1005.45 6
-5 2 -6 1484.94 290.878 6
-5 2 -6 1234.93 330.304 5
5 -2 6 1626.51 428.962 2
-5 1 -6 6105.31 720.559 5
5 -1 6 5359.89 762.428 2
-5 0 -6 7017.66 771.854 5
-5 -1 -6 33.7232 103.715 5
-5 -2 -6 662.246 255.125 5
-5 -3 -6 924.711 296.358 5
-5 -4 -6 244.023 185.397 5
-5 -5 -6 1607.76 417.665 5
-5 -6 -6 802.435 314.882 5
-5 -7 -6 -58.5434 122.812 5
-5 10 -7 727.895 313.723 6
-5 9 -7 -210.098 193.866 6
-5 8 -7 66.1497 117.617 6
5 -8 7 177.514 200.347 2
-5 7 -7 53.8462 102.015 6
5 -7 7 -87.9519 166.451 2
-5 6 -7 1204.59 317.115 6
5 -6 7 669.141 325.942 2
5 -5 7 420.217 216.52 2
-5 5 -7 880.652 261.89 6
-5 4 -7 205.323 135.051 6
5 -4 7 3.09752 116.955 2
-5 3 -7 1572.59 312.968 6
5 -3 7 1277.11 378.137 2
-5 2 -7 157.797 112.731 6
-5 2 -7 183.416 162.895 5
5 -2 7 510.536 261.291 2
-5 1 -7 -33.9629 64.1423 6
-5 1 -7 273.504 172.511 5
5 -1 7 85.7755 184.454 2
-5 0 -7 463.28 211.102 5
-5 -1 -7 266.429 180.317 5
-5 -2 -7 -186.794 154.438 5
-5 -3 -7 285.824 183.545 5
-5 -4 -7 1278.4 369.651 5
-5 -5 -7 -166.192 163.991 5
-5 -6 -7 59.2845 73.6602 5
-5 9 -8 2775.01 605.201 6
5 -9 8 3087.01 744.477 2
-5 8 -8 130.55 161.934 6
5 -8 8 129.534 196.643 2
-5 7 -8 208.96 182.276 6
5 -7 8 252.162 253.117 2
-5 6 -8 1508.74 368.636 6
5 -6 8 1275.37 439.852 2
5 -5 8 1077.99 393.923 2
-5 5 -8 1192.16 303.374 6
-5 4 -8 436.57 178.256 6
5 -4 8 118.568 162.188 2
5 -3 8 1685.34 479.91 2
-5 2 -8 712.207 283.224 5
5 -2 8 647.331 288.152 2
-5 1 -8 861.071 294.207 5
5 -1 8 1188.5 384.095 2
-5 0 -8 831.071 304.452 5
-5 -1 -8 -313.402 201.415 5
-5 -2 -8 653.863 293.986 5
-5 -3 -8 316.867 236.21 5
-5 -4 -8 700.666 299.924 5
-5 9 -9 -495.557 261.089 6
-5 8 -9 -0.7226 64.4983 6
-5 7 -9 133.14 149.156 6
5 -7 9 64.5925 136.136 2
5 -6 9 -456.573 284.31 2
5 -5 9 743.118 370.861 2
5 -4 9 4.58345 123.092 2
5 -3 9 404.252 278.377 2
-5 2 -9 889.904 331.343 5
5 -2 9 914 352.406 2
-5 1 -9 10.9262 88.1003 5
5 -1 9 -326.126 243.883 2
-5 0 -9 281.436 197.24 5
-5 -1 -9 632.404 285.413 5
-5 -2 -9 928.734 344.902 5
5 -5 10 142.667 186.25 2
5 -4 10 -160.303 182.677 2
5 -3 10 697.347 361.846 2
-5 2 -10 626.878 309.442 5
5 -2 10 875.828 375.363 2
-5 1 -10 -293.416 212.32 5
5 -1 10 446.223 282.425 2
6 -5 -9 165.101 161.537 3
6 -4 -9 2786.34 623.314 3
6 -3 -9 82.2098 149.954 3
6 -2 -9 10848.2 1241.97 3
6 -1 -9 2766.47 642.504 3
6 -8 -8 1695.81 453.204 3
6 -7 -8 1962.55 498.147 3
6 -6 -8 2584.47 561.197 3
6 -5 -8 95.5233 146.378 3
6 -4 -8 -136.229 152.835 3
6 -3 -8 6469.16 932.349 3
6 -2 -8 496.488 283.226 3
6 -1 -8 2569.61 604.928 3
6 0 -8 155.245 232.032 3
6 1 -8 1585.32 484.239 3
6 2 -8 2201.15 579.875 3
6 3 -8 745.278 358.995 3
6 -9 -7 6278.53 973.163 5
6 -8 -7 7433.69 899.564 3
6 -7 -7 2314.95 514.357 3
-6 6 7 1711.9 353.647 6
6 -6 -7 2044.56 488.236 3
6 -5 -7 1159.85 381.365 3
6 -4 -7 718.662 309.016 3
6 -3 -7 477.61 267.222 3
6 -2 -7 651.498 308.272 3
6 -1 -7 3595.7 689.995 3
6 0 -7 1606.33 478.237 3
6 1 -7 2119.05 546.532 3
6 2 -7 -147.71 182.454 3
6 3 -7 326.024 235.641 3
6 4 -7 1908.81 546.207 3
6 -10 -6 427.049 270.525 5
6 -9 -6 6724.44 992.212 5
-6 8 6 1219.61 318.315 6
6 -8 -6 1456.56 387.442 3
6 -8 -6 1828.45 497.785 5
-6 7 6 345.395 166.301 6
6 -7 -6 240.937 201.145 3
-6 6 6 1516.62 332.174 6
6 -6 -6 1152.5 350.512 3
6 -5 -6 -18.799 113.76 3
6 -4 -6 2079.44 488.956 3
6 -3 -6 20.3416 125.173 3
6 -2 -6 24.1503 104.849 3
6 -1 -6 3644.16 690.731 3
6 0 -6 2405.16 570.678 3
6 1 -6 1178.07 408.338 3
6 2 -6 95.4392 208.755 3
6 3 -6 720.37 295.036 3
6 4 -6 368.015 197.029 3
6 5 -6 372.936 262.814 3
-6 10 5 6945.65 806.818 6
-6 9 5 926.651 286.547 6
-6 8 5 1715.67 372.762 6
6 -8 -5 2426.18 480.151 3
-6 7 5 749.282 234.854 6
6 -7 -5 449.488 223.381 3
6 -6 -5 6645.67 824.464 3
-6 6 5 6446.04 683.535 6
6 -5 -5 -8.77201 134.364 3
6 -4 -5 2389.88 509.321 3
6 -3 -5 -16.7371 114.728 3
6 -2 -5 880.864 339.59 3
6 -1 -5 3198.32 630.734 3
6 0 -5 5948 864.026 3
6 1 -5 -122.869 178.423 3
6 2 -5 3387.8 692.898 3
6 3 -5 -176.014 199.149 3
6 4 -5 2436.45 604.17 3
6 5 -5 212.611 141.317 3
6 6 -5 -65.6298 141.613 3
-6 11 4 20.4331 84.6845 6
-6 10 4 3615.66 590.149 6
-6 9 4 485.816 194.451 6
-6 8 4 723.779 248.197 6
6 -8 -4 1273.56 335.728 3
-6 7 4 191.761 154.397 6
6 -7 -4 404.589 192.341 3
-6 6 4 172.427 116.012 6
6 -6 -4 -156.014 131.516 3
6 -5 -4 -30.1162 102.811 3
6 -4 -4 173.06 130.083 3
6 -3 -4 17031.7 1361.95 3
6 -2 -4 338.109 219.428 3
6 -1 -4 1314.48 406.471 3
6 0 -4 5579.62 841.474 3
6 1 -4 4164.68 740.817 3
6 2 -4 12.8957 171.114 3
6 3 -4 11362.2 1268.3 3
6 4 -4 -132.218 174.1 3
6 5 -4 2066.69 554.468 3
6 6 -4 1294.05 461.44 3
-6 11 3 1584.02 411.538 6
-6 10 3 377.899 198.808 6
-6 9 3 302.615 180.441 6
-6 8 3 2482.96 448.129 6
6 -8 -3 2573.15 460.342 3
-6 7 3 7.71879 111.498 6
6 -7 -3 139.631 128.543 3
-6 6 3 3317.39 488.352 6
6 -6 -3 2749.05 504.624 3
6 -5 -3 3386.41 587.483 3
6 -4 -3 19187.6 1410.13 3
6 -3 -3 7911.25 926.106 3
6 -2 -3 21535 1558.49 3
6 -1 -3 1353.82 402.969 3
6 0 -3 8647.02 1031.77 3
6 1 -3 1577.66 450.521 3
6 2 -3 340.749 249.406 3
6 3 -3 2668.68 624.482 3
6 4 -3 4049.48 804.987 3
6 5 -3 217.374 229.205 3
6 6 -3 754.275 365.482 3
6 7 -3 830.732 374.031 3
-6 11 2 228.599 168.437 6
-6 10 2 68.0569 105.509 6
-6 9 2 172.388 88.5954 6
-6 8 2 18.1045 97.6226 6
-6 7 2 2326.97 428.694 6
6 -7 -2 1423.45 355.778 3
6 -6 -2 5016.31 666.065 3
-6 6 2 5178.9 621.839 6
6 -5 -2 4713.92 669.672 3
6 -4 -2 14854.5 1218.58 3
6 -3 -2 1053.86 337.97 3
6 -2 -2 2968.39 580.976 3
6 -1 -2 2143.22 492.026 3
6 0 -2 8021.5 992.207 3
6 1 -2 549.451 303.346 3
6 2 -2 1556.78 473.25 3
6 3 -2 747.708 347.608 3
6 4 -2 56.2978 178.292 3
6 5 -2 475.23 288.391 3
6 6 -2 385.38 281.659 3
6 7 -2 -223.276 221.93 3
-6 11 1 1150.58 364.681 6
-6 10 1 142.635 154.069 6
-6 9 1 26.7881 106.338 6
-6 8 1 4715.51 628.549 6
-6 7 1 55.2485 116.577 6
6 -7 -1 37.5701 84.2348 3
-6 6 1 -357.099 181.539 6
6 -6 -1 -314.975 173.41 3
6 -5 -1 -51.8373 107.142 3
6 -4 -1 2478.19 493.491 3
6 -3 -1 772.354 287.176 3
6 -2 -1 1425.15 383.78 3
6 -1 -1 115.656 163.798 3
6 0 -1 -100.769 207.622 3
6 1 -1 2749.62 619.534 3
6 2 -1 126.037 167.634 3
6 3 -1 76.2451 149.612 3
6 4 -1 2266.6 590.679 3
6 5 -1 -157.627 224.804 3
6 6 -1 148.275 181.429 3
6 7 -1 404.26 276.254 3
-6 11 0 276.631 231.928 6
-6 10 0 614.295 278.8 6
-6 9 0 -2.36514 159.619 6
-6 8 0 180.653 147.637 6
-6 7 0 474.344 197.215 6
6 -7 0 799.341 258.497 3
6 -6 0 5690.3 700.361 3
-6 6 0 6405.31 687.449 6
6 -5 0 274.188 185.169 3
6 -4 0 5192.99 719.924 3
6 -3 0 -8.68223 184.76 3
6 -2 0 2988.64 577.014 3
6 -1 0 882.729 332.554 3
6 0 0 967.735 328.166 3
6 0 0 808.607 234 2
6 1 0 300 270.571 3
6 2 0 142.158 173.835 3
6 3 0 1054.36 384.06 3
6 4 0 -107.569 211.722 3
6 5 0 652.151 352.815 3
6 6 0 -122.319 181.016 3
6 7 0 -134.892 185.612 3
-6 11 -1 -135.805 146.519 6
-6 10 -1 2434.59 512.291 6
-6 9 -1 590.079 271.071 6
-6 8 -1 367.992 202.272 6
-6 7 -1 -96.2989 133.02 6
-6 6 -1 142.745 125.725 6
6 -6 1 101.725 115.206 3
6 -5 1 326.877 185.403 3
6 -4 1 70.1331 175.135 3
6 -3 1 109.973 116.551 3
6 -2 1 154.584 150.885 3
6 -2 1 207.083 102.745 2
6 -1 1 17.3109 136.738 3
6 -1 1 -51.1622 110.023 2
6 0 1 463.254 303.989 3
6 0 1 252.598 169.486 2
6 1 1 107.752 132.722 3
6 1 1 220.049 146.912 2
6 2 1 177.187 212.125 3
6 3 1 1637.09 492.843 3
6 4 1 -36.3588 150.366 3
6 5 1 1462.23 502.928 3
6 6 1 -143.86 214.349 3
6 7 1 244.757 247.679 3
-6 11 -2 1578.93 425.969 6
-6 10 -2 191.97 164.814 6
-6 9 -2 10268.3 1000.74 6
-6 8 -2 674.644 246.422 6
-6 7 -2 3020.43 499.587 6
6 -6 2 9318.09 901.586 3
-6 6 -2 10287.1 876.941 6
6 -5 2 1819.65 429.085 3
-6 5 -2 1999.38 379.236 6
6 -4 2 314.595 229.492 3
6 -4 2 358.812 195.282 2
6 -3 2 -169.974 168.779 3
6 -3 2 218.426 176.206 2
6 -2 2 1401.77 409.574 3
6 -2 2 1724.38 426.72 2
6 -1 2 578.951 320.969 3
6 -1 2 -2.28032 136.81 2
6 0 2 9972.81 1124.03 3
6 0 2 9151.19 880.879 2
6 1 2 -34.8621 127.864 2
-6 -1 -2 216.896 136.726 5
6 1 2 316.502 229.931 3
6 2 2 90.0233 126.082 2
6 2 2 95.6436 217.836 3
-6 -2 -2 235.072 133.713 5
6 3 2 8061.18 1113.64 3
6 4 2 -10.9822 143.49 3
6 5 2 514.943 307.875 3
6 6 2 3636.6 811.541 3
-6 10 -3 5486.26 779.967 6
-6 9 -3 790.386 300.201 6
-6 8 -3 167.886 136.818 6
-6 7 -3 1051.91 302.29 6
6 -6 3 841.771 283.28 3
-6 6 -3 896.669 264.292 6
6 -5 3 1172.99 355.968 3
-6 5 -3 1155.36 316.693 6
6 -5 3 976.553 370.908 2
6 -4 3 333.722 206.525 3
6 -4 3 256.608 200.803 2
6 -3 3 -96.6804 122.364 3
6 -3 3 52.251 97.9845 2
6 -2 3 424.178 247.076 3
6 -2 3 590.263 243.633 2
6 -1 3 3517.95 589.663 2
6 -1 3 2874.72 604.999 3
6 0 3 2753.12 508.4 2
6 0 3 2604 586.841 3
6 1 3 132.438 129.941 2
6 1 3 126.812 185.351 3
-6 -1 -3 217.723 151.573 5
6 2 3 4607.11 843.224 3
6 2 3 4212.95 610.688 2
-6 -2 -3 3535.77 514.521 5
6 3 3 3427.41 728.728 3
-6 -3 -3 2310.92 411.282 5
6 4 3 672.521 336.209 3
6 5 3 1264.76 493.501 3
6 6 3 2125.18 650.145 3
-6 10 -4 2124.51 503.329 6
-6 9 -4 3638.29 625.456 6
-6 8 -4 3.04342 95.9955 6
-6 7 -4 132.423 143.003 6
6 -6 4 320.539 201.545 3
-6 6 -4 37.3869 90.9252 6
-6 5 -4 1358.39 326.004 6
6 -5 4 1427.37 379.746 3
6 -5 4 1819.22 475.357 2
-6 4 -4 632.904 222.023 6
6 -4 4 621.39 257.517 3
6 -4 4 775.049 303.276 2
6 -3 4 667.947 288.294 3
6 -3 4 574.233 264.575 2
6 -2 4 1029.32 340.967 2
6 -2 4 609.525 293.439 3
6 -1 4 320.092 205.876 2
6 -1 4 427.378 259.373 3
-6 0 -4 4396.34 598.163 5
6 0 4 4449.47 671.744 2
6 1 4 -18.9298 111.136 2
-6 -1 -4 -142.506 125.494 5
-6 -2 -4 5505.92 671.5 5
6 2 4 6437.47 793.357 2
6 3 4 2513.26 651.486 3
-6 -3 -4 1731.97 383.59 5
6 3 4 2533.18 498.469 2
6 4 4 232.48 229.953 3
6 5 4 703.491 385.789 3
-6 10 -5 294.084 200.182 6
-6 9 -5 317.294 235.71 6
-6 8 -5 41.1843 117.884 6
-6 7 -5 3175.07 527.94 6
6 -7 5 3294.77 695.073 2
-6 6 -5 164.91 120.706 6
6 -6 5 -52.4032 210.936 2
-6 5 -5 2107.02 411.753 6
6 -5 5 2309.03 499.26 3
6 -5 5 1738.8 487.958 2
-6 4 -5 205.108 151.278 6
6 -4 5 29.6042 148.084 3
6 -4 5 382.684 226.187 2
6 -3 5 4749.12 762.499 2
-6 3 -5 3797.35 522.857 6
6 -2 5 738.8 279.267 2
6 -1 5 1758.65 465.648 2
6 0 5 102.28 145.204 2
-6 0 -5 245.721 189.166 5
-6 -1 -5 1417.19 358.52 5
6 1 5 1689.9 443.755 2
-6 -2 -5 7029.6 801.299 5
6 2 5 8387.32 956.852 2
-6 -3 -5 3350.27 561.716 5
6 3 5 2925.53 574.969 2
-6 -4 -5 5798.77 747.706 5
-6 9 -6 686.636 314.282 6
-6 8 -6 132.149 176.364 6
6 -8 6 273.641 229.42 2
-6 7 -6 2723.8 513.333 6
6 -7 6 1672.92 491.748 2
-6 6 -6 2313.49 451.846 6
6 -6 6 2882.99 649.705 2
6 -5 6 7595.72 922.677 3
6 -5 6 9439.45 1140.52 2
-6 5 -6 7611.43 773.128 6
6 -4 6 868.878 344.363 2
-6 4 -6 780.811 236.167 6
6 -3 6 10771 1172.56 2
-6 3 -6 10842.3 875.709 6
-6 2 -6 1405.88 325.499 6
6 -2 6 700.127 304.445 2
-6 1 -6 379.726 216.973 5
6 -1 6 -23.2953 163.54 2
-6 0 -6 9242.76 945.402 5
6 0 6 8518.35 1014.17 2
-6 -1 -6 1912.07 441.155 5
6 1 6 2514.64 562.901 2
-6 -2 -6 7111.02 842.752 5
6 2 6 8120.99 997.27 2
-6 -3 -6 185.69 159.344 5
-6 -4 -6 -91.3604 118.182 5
-6 -5 -6 -69.3183 117.142 5
-6 9 -7 20.6481 143.49 6
-6 8 -7 147.09 153.689 6
6 -8 7 39.9405 172.046 2
-6 7 -7 198.303 156.424 6
6 -7 7 464.44 300.74 2
-6 6 -7 269.08 170.008 6
6 -6 7 18.7131 122.734 2
6 -5 7 9047.51 1151.96 2
-6 5 -7 7753.69 797.517 6
6 -4 7 3151.39 664.936 2
-6 4 -7 3825.5 543.265 6
6 -3 7 1221.78 421.145 2
-6 3 -7 1215.93 298.353 6
-6 2 -7 312.639 156.676 6
6 -2 7 100.261 116.14 2
-6 1 -7 165.594 172.038 5
6 -1 7 -391.248 251.926 2
-6 0 -7 1483.01 424.338 5
6 0 7 1731.17 478.021 2
-6 -1 -7 -170.963 154.907 5
6 1 7 -65.1613 142.133 2
-6 -2 -7 -313.416 201.883 5
-6 -3 -7 131.001 142.951 5
-6 -4 -7 47.3112 100.306 5
-6 8 -8 246.592 186.606 6
-6 7 -8 295.657 217.571 6
-6 6 -8 2006.11 441.743 6
6 -6 8 2817.61 657.74 2
6 -5 8 297.826 247.891 2
-6 5 -8 296.438 179.912 6
6 -4 8 1053.37 403.691 2
6 -3 8 240.188 268.206 2
6 -2 8 1036.02 397.477 2
-6 1 -8 533.448 269.496 5
6 -1 8 647.065 351.218 2
-6 0 -8 -108.847 137.132 5
6 0 8 13.8688 121.423 2
-6 -1 -8 -19.0925 77.828 5
6 1 8 320.849 265.886 2
-6 -2 -8 419.47 233.214 5
7 -7 -7 143.574 165.148 3
-7 6 7 2511.35 475.222 6
7 -6 -7 2314.74 557.449 3
7 -5 -7 1677.42 493.683 3
7 -4 -7 1123.32 412.654 3
7 -3 -7 -215.335 188.088 3
7 -2 -7 -225.094 215.956 3
7 -1 -7 94.4088 149.059 3
-7 8 6 2564.72 484.821 6
7 -8 -6 3334.11 626.432 3
-7 7 6 714.427 261.353 6
7 -7 -6 512.144 260.175 3
7 -6 -6 177.82 162.501 3
7 -5 -6 410.267 254.952 3
7 -4 -6 338.351 259.475 3
7 -3 -6 507.45 283.605 3
7 -2 -6 822.118 333.101 3
7 -1 -6 54.5529 141.892 3
7 0 -6 -161.451 195.105 3
7 1 -6 1046.51 412.409 3
-7 9 5 502.313 242.593 6
-7 8 5 8.89031 85.0482 6
7 -8 -5 -173.632 178.396 3
-7 7 5 43.9112 97.5224 6
7 -7 -5 -122.273 132.327 3
7 -6 -5 -139.628 152.868 3
7 -5 -5 1271.79 408.8 3
7 -4 -5 1245.42 415.398 3
7 -3 -5 6016.57 903.651 3
7 -2 -5 277.811 247.29 3
7 -1 -5 -273.263 240.986 3
7 0 -5 531.147 315.649 3
7 1 -5 2062.78 603.465 3
7 2 -5 4749.18 896.926 3
-7 10 4 -407.48 224.148 6
-7 9 4 7846.52 877.001 6
-7 8 4 11.8942 75.9948 6
-7 7 4 482.803 215.005 6
7 -7 -4 305.777 195.52 3
7 -6 -4 1517.07 434.214 3
7 -5 -4 2534.15 565.086 3
7 -4 -4 -7.34376 89.04 3
7 -3 -4 2750.94 608.696 3
7 -2 -4 627.752 274.23 3
7 -1 -4 377.939 251.703 3
7 0 -4 1518.82 484.445 3
7 1 -4 -231.841 236.042 3
7 2 -4 292.737 250.883 3
7 3 -4 4587.59 870.497 3
-7 10 3 207.32 182.773 6
-7 9 3 2242.54 487.879 6
-7 8 3 -63.869 98.7804 6
-7 7 3 221.806 142.769 6
7 -7 -3 -66.0999 115.8 3
7 -6 -3 96.7819 121.066 3
7 -5 -3 1480.91 423.313 3
7 -4 -3 -78.845 191.058 3
7 -3 -3 4368.64 748.802 3
7 -2 -3 4349.82 773.171 3
7 -1 -3 9268.59 1140.36 3
7 0 -3 660.299 365.961 3
7 1 -3 2534.68 633.264 3
7 2 -3 10727.6 1320.3 3
7 3 -3 -118.077 201 3
7 4 -3 10096.4 1325.74 3
-7 10 2 -49.2445 115.185 6
-7 9 2 883.509 299.035 6
-7 8 2 385.732 203.427 6
-7 7 2 1666.05 389.095 6
7 -7 -2 941.85 315.682 3
7 -6 -2 1228.99 368.508 3
7 -5 -2 9399.99 1042.35 3
7 -4 -2 3119.96 630.868 3
7 -3 -2 17845.9 1522.92 3
7 -2 -2 11413.9 1244.59 3
7 -1 -2 7430.82 1035.12 3
7 0 -2 193 214.47 3
7 1 -2 885.745 408.179 3
7 2 -2 7929.84 1145.19 3
7 3 -2 2424.8 645.977 3
7 4 -2 546.507 291.785 3
-7 10 1 303.13 207.704 6
-7 9 1 265.217 198.825 6
-7 8 1 187.026 176.836 6
-7 7 1 1942.94 434.847 6
7 -7 -1 2723.48 527.43 3
-7 6 1 193.766 137.895 6
7 -6 -1 332.363 200.217 3
7 -5 -1 621.655 285.048 3
7 -4 -1 19940.1 1556.6 3
7 -3 -1 -184.016 183.729 3
7 -2 -1 2066.74 525.766 3
7 -1 -1 -243.998 221.384 3
7 0 -1 368.589 275.723 3
7 1 -1 665.33 372.056 3
7 2 -1 -190.643 209.007 3
7 3 -1 100.308 179.879 3
7 4 -1 380.011 278.634 3
-7 9 0 1038.09 344.695 6
-7 8 0 6492.48 789.599 6
-7 7 0 -17.9752 111.143 6
-7 6 0 136.307 165.245 6
7 -6 0 26.2499 84.5066 3
7 -5 0 1126.45 366.318 3
7 -4 0 685.58 310.089 3
7 -3 0 756.294 336.719 3
7 -2 0 815.62 362.81 3
7 -1 0 2012.29 560.616 3
7 0 0 -136.665 203.107 3
7 1 0 203.627 223.497 3
7 2 0 645.598 348.394 3
7 3 0 627.148 309.915 3
7 4 0 10.457 169.334 3
-7 9 -1 2454.83 509.333 6
-7 8 -1 579.296 259.6 6
-7 7 -1 2803.81 509.525 6
-7 6 -1 -68.8853 102.893 6
7 -6 1 -214.551 164.142 3
7 -5 1 326.974 198.189 3
7 -4 1 10618.3 1160.01 3
7 -3 1 1252.74 427.329 3
7 -2 1 968.786 393.261 3
7 -1 1 154.532 155.341 3
7 -1 1 511.417 248.897 2
7 0 1 -159.965 219.055 3
7 1 1 537.316 293.856 3
7 2 1 112.817 183.739 3
7 3 1 276.433 231.503 3
7 4 1 373.168 288.098 3
-7 9 -2 -6.94827 122.757 6
-7 8 -2 264.304 213.576 6
-7 7 -2 327.487 232.703 6
-7 6 -2 2595.94 485.507 6
7 -6 2 2770.24 562.002 3
-7 5 -2 45.4163 92.8829 6
7 -5 2 149.343 182.453 3
7 -4 2 4689.01 793.114 3
7 -3 2 437.416 270.264 3
7 -3 2 256.228 216.214 2
7 -2 2 696.941 337.259 3
7 -2 2 656.575 285.083 2
7 -1 2 97.2879 174.509 3
7 -1 2 -171.281 161.234 2
7 0 2 432.586 302.014 3
7 0 2 730.294 273.738 2
7 1 2 1762.65 554.033 3
7 2 2 114.744 189.251 3
7 3 2 -44.7932 175.856 3
-7 9 -3 201.85 171.058 6
-7 8 -3 330.087 192.415 6
-7 7 -3 780.297 280.809 6
-7 6 -3 1698.86 397.372 6
7 -6 3 1270.1 383.837 3
7 -5 3 35.4082 116.516 3
-7 5 -3 223.368 158.22 6
7 -4 3 95.8608 136.211 3
7 -4 3 -154.655 173.598 2
7 -3 3 38.5267 180.106 3
7 -3 3 186.978 146.801 2
7 -2 3 280.782 212.985 3
7 -2 3 29.6486 107.33 2
7 -1 3 2977.38 681.844 3
7 -1 3 2364.89 529.082 2
7 0 3 1458.69 509.873 3
7 0 3 1277.16 373.76 2
7 1 3 599.991 379.66 3
7 2 3 -396.042 307.33 3
7 3 3 73.6822 303.638 3
-7 8 -4 -25.1939 120.848 6
-7 7 -4 261.811 202.66 6
-7 6 -4 136.823 127.258 6
7 -6 4 110.681 140 2
7 -5 4 354.915 222.633 3
-7 5 -4 37.0836 91.7588 6
7 -4 4 101.747 116.228 3
-7 4 -4 417.774 207.751 6
7 -4 4 310.175 228.716 2
7 -3 4 -216.134 214.137 3
7 -3 4 -36.0793 126.67 2
7 -2 4 -112.414 171.954 3
7 -2 4 73.4168 146.748 2
7 -1 4 167.834 219.165 2
7 -1 4 -14.8664 181.916 3
7 0 4 494.005 296.733 2
7 0 4 1185.79 452.404 3
7 1 4 1102.36 372.964 2
7 1 4 1326.46 509.843 3
7 2 4 609.102 362.812 3
-7 8 -5 96.7138 157.962 6
-7 7 -5 -94.4854 141.969 6
-7 6 -5 897.246 299.79 6
7 -6 5 502.556 302.082 2
-7 5 -5 284.845 197.289 6
7 -5 5 373.367 215.764 3
7 -5 5 415.485 264.615 2
-7 4 -5 1066.85 307.498 6
7 -4 5 342.537 244.565 3
7 -4 5 1030.69 384.711 2
-7 3 -5 68.7354 117.809 6
7 -3 5 106.659 142.009 3
7 -3 5 -209.394 185.172 2
7 -2 5 412.403 229.016 2
7 -2 5 1082.88 426.115 3
7 -1 5 715.323 338.175 2
7 -1 5 1139.19 429.127 3
7 0 5 72.2711 146.69 2
7 0 5 -45.4689 199.111 3
7 1 5 1844.94 486.991 2
-7 -1 -5 1259.58 366.049 5
7 1 5 2654.95 681.78 3
-7 -2 -5 147.95 146.278 5
-7 7 -6 615.291 280.626 6
-7 6 -6 285.425 192.486 6
7 -6 6 484.05 369.862 2
-7 5 -6 1949.53 424.592 6
7 -5 6 1715.39 503.146 3
7 -5 6 2804.66 667.781 2
-7 4 -6 1658.92 387.022 6
7 -4 6 860.484 355.541 3
7 -3 6 1276.61 442.929 2
-7 3 -6 880.973 279.255 6
7 -3 6 585.982 322.493 3
7 -2 6 1059.02 412.959 2
7 -2 6 698.773 371.465 3
7 -1 6 436.387 245.705 2
7 -1 6 28.2124 163.214 3
7 0 6 442.303 260.309 2
7 1 6 1843.09 517.614 2
-7 -1 -6 1869.87 465.572 5
7 2 6 59.1601 160.186 2
-7 -2 -6 314.627 222.622 5
-7 7 -7 1264.82 378.393 6
-7 6 -7 840.769 304.258 6
-7 5 -7 2261.23 464.702 6
7 -4 7 6945.07 1025.83 3
7 -4 7 9454.56 1243.39 2
-7 4 -7 6792.65 779.862 6
7 -3 7 -256.743 247.025 2
-7 3 -7 27.8844 113.411 6
7 -2 7 944.025 382.431 2
7 -1 7 1085.1 417.163 2
-7 0 -7 -66.3945 127.139 5
7 0 7 365.85 234.018 2
7 1 7 1560.36 520.969 2
-7 -1 -7 2201.9 532.014 5
8 -7 -5 752.909 337.426 3
8 -6 -5 148.95 156.105 3
8 -5 -5 196.064 187.503 3
8 -4 -5 2086.39 575.292 3
8 -7 -4 -67.1539 107.374 3
8 -6 -4 36.5825 110.723 3
8 -5 -4 121.242 151.219 3
8 -4 -4 1148.01 429.031 3
8 -3 -4 717.536 343.27 3
8 -2 -4 3407.8 754.552 3
-8 7 3 845.371 314.629 6
8 -7 -3 1176.4 382.852 3
8 -6 -3 1281.78 420.767 3
8 -5 -3 469.68 261.092 3
8 -4 -3 1339.88 472.815 3
8 -3 -3 373.368 263.758 3
8 -2 -3 2333.37 607.807 3
8 -1 -3 -129.943 162.454 3
-8 7 2 271.222 152.989 6
8 -7 -2 339.344 268.317 3
8 -6 -2 313.355 223.489 3
8 -5 -2 982.199 410.261 3
8 -4 -2 4826.74 838.798 3
8 -3 -2 -238.448 218.941 3
8 -2 -2 5553.02 954.418 3
8 -1 -2 4324.6 864.256 3
8 0 -2 1132.22 446.272 3
-8 7 1 -35.7413 129.162 6
-8 6 1 979.833 326.162 6
8 -6 -1 361.754 201.946 3
8 -5 -1 832.728 345.041 3
8 -4 -1 7683.41 1065.95 3
8 -3 -1 5667.36 943.168 3
8 -2 -1 606.628 345.342 3
8 -1 -1 1636.39 540.539 3
8 0 -1 783.169 416.733 3
-8 7 0 1858.13 449.326 6
-8 6 0 211.488 160.423 6
8 -6 0 1097.77 387.254 3
8 -5 0 3227.24 683.826 3
8 -4 0 730.243 348.112 3
8 -3 0 3817.88 779.04 3
8 -2 0 -197.811 226.029 3
8 -1 0 1039.05 431.503 3
8 0 0 2708.36 700.431 3
-8 7 -1 2835.58 550.908 6
-8 6 -1 -62.1642 102.268 6
8 -6 1 282.245 207.292 3
8 -5 1 651.399 294.511 3
8 -4 1 2960.22 681.274 3
8 -3 1 -11.1984 121.054 3
8 -2 1 241.62 199.019 3
8 -1 1 2488.06 680.024 3
8 0 1 210.872 238.316 3
-8 6 -2 191.964 166.763 6
-8 5 -2 4538.6 686.596 6
8 -5 2 4247.93 800.873 3
8 -4 2 -316.216 256.084 3
8 -3 2 2416.83 635.778 3
8 -2 2 1142.32 439.226 3
8 -1 2 1604 555.981 3
8 0 2 1966.28 628.811 3
-8 6 -3 565.793 258.427 6
-8 5 -3 1291.91 387.669 6
8 -5 3 727.054 344.555 3
8 -4 3 357.814 231.671 3
8 -3 3 554.412 328.803 3
8 -3 3 417.532 227.873 2
8 -2 3 127.379 187.871 3
8 -2 3 -375.838 247.541 2
8 -1 3 3376.7 810.037 3
-8 5 -4 223.995 180.698 6
8 -5 4 -89.9668 151.586 2
8 -4 4 -45.9355 143.271 3
-8 4 -4 130.153 142.815 6
8 -4 4 -92.5019 163.313 2
8 -3 4 128.098 166.627 3
8 -3 4 216.776 222.883 2
8 -2 4 440.064 321.556 3
8 -2 4 520.367 264.242 2
8 -1 4 87.9713 157.825 2
-8 5 -5 237.89 194.628 6
8 -4 5 95.8496 154.21 3
-8 4 -5 37.171 95.6679 6
8 -4 5 56.7998 159.122 2
8 -3 5 1234.23 505.83 3
-8 3 -5 1770.96 422.75 6
8 -3 5 600.548 343.457 2
8 -2 5 -19.1799 140.597 2
8 -1 5 52.8947 148.055 2
-8 4 -6 410.569 254.262 6
8 -4 6 170.403 136.994 3
-8 3 -6 1375.85 395.067 6
