#------------------------------------------------------------------------------
#$Date: 2019-02-10 01:01:33 +0200 (Sun, 10 Feb 2019) $
#$Revision: 213586 $
#$URL: file:///home/coder/svn-repositories/cod/cif/7/12/29/7122956.cif $
#------------------------------------------------------------------------------
#
# This file is available in the Crystallography Open Database (COD),
# http://www.crystallography.net/
#
# All data on this site have been placed in the public domain by the
# contributors.
#
data_7122956
loop_
_publ_author_name
'Zhang, Xingang'
'Lou, Yue-Guang'
'Wang, An-Jun'
'Zhao, Liang'
'He, Lin-Feng'
'Li, Xiaofei'
'He, Chun-Yang'
_publ_section_title
;
 Palladium-Catalyzed Cross-Coupling of Unactivated Alkylzinc Reagents with
 2-Bromo-3,3,3-Trifluoropropene: A New Access to Diversified Fluorinated
 Amino Acids
;
_journal_name_full               'Chemical Communications'
_journal_paper_doi               10.1039/C8CC10212K
_journal_year                    2019
_chemical_absolute_configuration ad
_chemical_formula_sum            'C11 H20 F3 N O5'
_chemical_formula_weight         303.28
_chemical_name_systematic
; 
 ? 
;
_space_group_crystal_system      monoclinic
_space_group_IT_number           4
_space_group_name_Hall           'P 2yb'
_space_group_name_H-M_alt        'P 1 21 1'
_symmetry_space_group_name_Hall  'P 2yb'
_symmetry_space_group_name_H-M   'P 1 21 1'
_atom_sites_solution_hydrogens   mixed
_audit_block_doi                 10.5517/ccdc.csd.cc21by0c
_audit_creation_method           SHELXL-2013
_audit_update_record
;
2018-12-26 deposited with the CCDC.
2019-02-08 downloaded from the CCDC.
;
_cell_angle_alpha                90
_cell_angle_beta                 102.524(2)
_cell_angle_gamma                90
_cell_formula_units_Z            2
_cell_length_a                   6.6250(2)
_cell_length_b                   9.3524(3)
_cell_length_c                   13.0235(4)
_cell_measurement_reflns_used    5002
_cell_measurement_temperature    296(2)
_cell_measurement_theta_max      139.60
_cell_measurement_theta_min      11.747
_cell_volume                     787.73(4)
_computing_cell_refinement       'Bruker SAINT'
_computing_data_collection       'Bruker APEX2'
_computing_data_reduction        'Bruker SAINT'
_computing_molecular_graphics    'Bruker SHELXTL'
_computing_publication_material  'Bruker SHELXTL'
_computing_structure_refinement  'SHELXL-2013 (Sheldrick, 2013)'
_computing_structure_solution    'SHELXS-97 (Sheldrick 2008)'
_diffrn_ambient_temperature      296(2)
_diffrn_measured_fraction_theta_full 0.970
_diffrn_measured_fraction_theta_max 0.994
_diffrn_measurement_device_type  'Bruker APEX-II CCD'
_diffrn_measurement_method       '\f and \w scans'
_diffrn_radiation_type           CuK\a
_diffrn_radiation_wavelength     1.54178
_diffrn_reflns_av_R_equivalents  0.0591
_diffrn_reflns_av_unetI/netI     0.0530
_diffrn_reflns_Laue_measured_fraction_full 0.970
_diffrn_reflns_Laue_measured_fraction_max 0.994
_diffrn_reflns_limit_h_max       7
_diffrn_reflns_limit_h_min       -7
_diffrn_reflns_limit_k_max       11
_diffrn_reflns_limit_k_min       -11
_diffrn_reflns_limit_l_max       15
_diffrn_reflns_limit_l_min       -15
_diffrn_reflns_number            10507
_diffrn_reflns_point_group_measured_fraction_full 0.964
_diffrn_reflns_point_group_measured_fraction_max 0.988
_diffrn_reflns_theta_full        67.679
_diffrn_reflns_theta_max         66.494
_diffrn_reflns_theta_min         5.873
_exptl_absorpt_coefficient_mu    1.064
_exptl_absorpt_correction_T_max  0.7533
_exptl_absorpt_correction_T_min  0.4791
_exptl_absorpt_correction_type   multi-scan
_exptl_absorpt_process_details   sadabs
_exptl_crystal_colour            colorless
_exptl_crystal_density_diffrn    1.279
_exptl_crystal_description       prismatic
_exptl_crystal_F_000             320
_exptl_crystal_size_max          0.140
_exptl_crystal_size_mid          0.120
_exptl_crystal_size_min          0.070
_refine_diff_density_max         0.186
_refine_diff_density_min         -0.162
_refine_diff_density_rms         0.034
_refine_ls_abs_structure_details
; 
 Flack x determined using 987 quotients [(I+)-(I-)]/[(I+)+(I-)] 
 (Parsons and Flack (2004), Acta Cryst. A60, s61). 
;
_refine_ls_abs_structure_Flack   0.21(15)
_refine_ls_extinction_coef       0.021(6)
_refine_ls_extinction_expression Fc^*^=kFc[1+0.001xFc^2^\l^3^/sin(2\q)]^-1/4^
_refine_ls_extinction_method     SHELXL
_refine_ls_goodness_of_fit_ref   1.065
_refine_ls_hydrogen_treatment    mixed
_refine_ls_matrix_type           full
_refine_ls_number_parameters     194
_refine_ls_number_reflns         2741
_refine_ls_number_restraints     1
_refine_ls_restrained_S_all      1.064
_refine_ls_R_factor_all          0.0539
_refine_ls_R_factor_gt           0.0472
_refine_ls_shift/su_max          0.000
_refine_ls_shift/su_mean         0.000
_refine_ls_structure_factor_coef Fsqd
_refine_ls_weighting_details
'w=1/[\s^2^(Fo^2^)+(0.0621P)^2^+0.0957P] where P=(Fo^2^+2Fc^2^)/3'
_refine_ls_weighting_scheme      calc
_refine_ls_wR_factor_gt          0.1239
_refine_ls_wR_factor_ref         0.1314
_reflns_Friedel_coverage         0.865
_reflns_Friedel_fraction_full    0.956
_reflns_Friedel_fraction_max     0.981
_reflns_number_gt                2416
_reflns_number_total             2741
_reflns_threshold_expression     'I > 2\s(I)'
_cod_data_source_file            c8cc10212k2.cif
_cod_data_source_block           cu_d8v18496_0m
_cod_database_code               7122956
_shelx_space_group_comment
; 
The symmetry employed for this shelxl refinement is uniquely defined 
by the following loop, which should always be used as a source of 
symmetry information in preference to the above space-group names. 
They are only intended as comments. 
;
_shelx_estimated_absorpt_t_min   0.865
_shelx_estimated_absorpt_t_max   0.929
_shelxl_version_number           2013-4
_shelx_res_file
; 
TITL cu_d8v18496_0m_a.res in P2(1) 
CELL 1.54178 6.625 9.3524 13.0235 90 102.524 90 
ZERR 2 0.0002 0.0003 0.0004 0 0.002 0 
LATT -1 
SYMM -X,0.5+Y,-Z 
SFAC C  H  F  N  O 
UNIT 22 40 6 2 10 
OMIT 1 0 1 
OMIT  -3.00 133.00 
L.S. 10 
ACTA 
BOND $H 
FMAP 2 
PLAN 20 
LIST 4 
size 0.14 0.12 0.07 
wpdb -1 
mpla 
htab 
conf 
TEMP 23 
WGHT    0.062100    0.095700 
EXTI    0.020951 
FVAR       1.65016 
F1    3    0.470883    0.868274    0.831790    11.00000    0.16215    0.09714 = 
         0.12007   -0.03662    0.01846   -0.01742 
F2    3    0.230543    0.720471    0.837189    11.00000    0.12914    0.18996 = 
         0.09024   -0.02191    0.03651   -0.02824 
F3    3    0.540697    0.673996    0.917531    11.00000    0.19127    0.17788 = 
         0.07410   -0.00045   -0.02501    0.01835 
O1    5    0.048575    0.455903    0.506712    11.00000    0.05090    0.06556 = 
         0.09301    0.01499    0.00182   -0.00588 
O2    5    0.365850    0.391530    0.586322    11.00000    0.06064    0.05396 = 
         0.12953    0.00463   -0.01371    0.00698 
AFIX 147 
H2    2    0.311733    0.312472    0.584703    11.00000   -1.50000 
AFIX   0 
O3    5    0.316947    0.569126    0.327907    11.00000    0.05635    0.07370 = 
         0.08142   -0.01522    0.01363    0.00573 
O4    5    0.097293    0.756585    0.277302    11.00000    0.06730    0.07399 = 
         0.06085    0.00014    0.00968    0.00568 
N1    4    0.208260    0.711345    0.446263    11.00000    0.05102    0.05786 = 
         0.06034   -0.00038    0.00893    0.00112 
C1    1    0.321199    0.631398    0.534645    11.00000    0.04132    0.05789 = 
         0.06003   -0.00093    0.00750    0.00222 
AFIX  13 
H1A   2    0.464265    0.620583    0.526876    11.00000   -1.20000 
AFIX   0 
C2    1    0.229491    0.484327    0.539811    11.00000    0.05049    0.05426 = 
         0.06400   -0.00181    0.00462    0.00350 
C3    1    0.322001    0.716406    0.635186    11.00000    0.06341    0.05592 = 
         0.06904   -0.00654    0.00290    0.00534 
AFIX  23 
H3A   2    0.360075    0.814552    0.624470    11.00000   -1.20000 
H3B   2    0.182951    0.717217    0.647758    11.00000   -1.20000 
AFIX   0 
C4    1    0.468431    0.657987    0.732214    11.00000    0.08109    0.05972 = 
         0.06718    0.00019   -0.00602    0.00146 
AFIX  13 
H4    2    0.440422    0.555545    0.736672    11.00000   -1.20000 
AFIX   0 
C5    1    0.694713    0.675106    0.726985    11.00000    0.06992    0.12943 = 
         0.12169   -0.00956   -0.01506    0.01532 
AFIX 137 
H5A   2    0.727860    0.608303    0.677150    11.00000   -1.50000 
H5B   2    0.780808    0.657069    0.795116    11.00000   -1.50000 
H5C   2    0.718031    0.770732    0.705394    11.00000   -1.50000 
AFIX   0 
C6    1    0.425550    0.728891    0.829776    11.00000    0.10054    0.10238 = 
         0.07238   -0.00787   -0.00704   -0.00169 
C7    1    0.215133    0.669957    0.347184    11.00000    0.04355    0.06068 = 
         0.06582   -0.00219    0.00796   -0.00543 
C8    1    0.062902    0.729936    0.163515    11.00000    0.08606    0.08757 = 
         0.05677   -0.00348    0.00406   -0.00561 
C9    1   -0.089797    0.845401    0.119324    11.00000    0.12747    0.09902 = 
         0.07975    0.01042   -0.01227    0.00198 
AFIX 137 
H9A   2   -0.210240    0.836521    0.148648    11.00000   -1.50000 
H9B   2   -0.128894    0.835889    0.044230    11.00000   -1.50000 
H9C   2   -0.027592    0.937393    0.136927    11.00000   -1.50000 
AFIX   0 
C10   1   -0.031181    0.584367    0.138147    11.00000    0.13513    0.09209 = 
         0.09751   -0.01796   -0.01852   -0.02314 
AFIX 137 
H10A  2    0.072312    0.512390    0.160545    11.00000   -1.50000 
H10B  2   -0.083918    0.576582    0.063652    11.00000   -1.50000 
H10C  2   -0.141994    0.571208    0.174049    11.00000   -1.50000 
AFIX   0 
C11   1    0.266513    0.749357    0.128916    11.00000    0.12947    0.17793 = 
         0.08905    0.00633    0.05160   -0.01328 
AFIX 137 
H11A  2    0.332825    0.835377    0.159328    11.00000   -1.50000 
H11B  2    0.240163    0.755931    0.053621    11.00000   -1.50000 
H11C  2    0.354903    0.669006    0.151990    11.00000   -1.50000 
AFIX   6 
O5    5    0.267602    0.131927    0.608691    11.00000    0.05330    0.05924 = 
         0.15033    0.00037    0.00161    0.00229 
H5D   2    0.379115    0.085566    0.630193    11.00000   -1.50000 
H5E   2    0.172543    0.074795    0.579528    11.00000   -1.50000 
AFIX   0 
H1    2    0.117375    0.787847    0.453268    11.00000    0.07934 
HKLF 4 
  
REM  cu_d8v18496_0m_a.res in P2(1) 
REM R1 =  0.0472 for    2416 Fo > 4sig(Fo)  and  0.0539 for all    2741 data 
REM    194 parameters refined using      1 restraints 
  
END 
  
WGHT      0.0562      0.1034 
  
REM Instructions for potential hydrogen bonds 
HTAB O2 O5 
HTAB C4 O2 
HTAB C10 O3 
HTAB C11 O3 
EQIV $1 -x+1, y-1/2, -z+1 
HTAB O5 O3_$1 
EQIV $2 -x, y-1/2, -z+1 
HTAB O5 O1_$2 
EQIV $3 -x, y+1/2, -z+1 
HTAB N1 O1_$3 
  
REM Highest difference peak  0.186,  deepest hole -0.162,  1-sigma level  0.034 
Q1    1   0.3582  0.6412  0.8555  11.00000  0.05    0.19 
Q2    1   0.6859  0.6603  0.8959  11.00000  0.05    0.13 
Q3    1   0.0976  0.5847  0.4809  11.00000  0.05    0.11 
Q4    1   0.0727  0.3536  0.5306  11.00000  0.05    0.11 
Q5    1   0.3691  0.5647  0.6396  11.00000  0.05    0.11 
Q6    1   0.2821  0.2725  0.6193  11.00000  0.05    0.11 
Q7    1   0.2957  0.6389  0.6571  11.00000  0.05    0.11 
Q8    1   0.8113  0.6029  0.7892  11.00000  0.05    0.11 
Q9    1   0.4182  0.8042  0.8814  11.00000  0.05    0.10 
Q10   1   0.1457  0.3805  0.5930  11.00000  0.05    0.09 
Q11   1   0.8794  0.6836  0.7580  11.00000  0.05    0.09 
Q12   1  -0.0123  0.4782  0.5002  11.00000  0.05    0.09 
Q13   1   0.6895  0.5552  0.6707  11.00000  0.05    0.09 
Q14   1   0.0688  0.1940  0.5589  11.00000  0.05    0.09 
Q15   1   0.0739  0.1746  0.5012  11.00000  0.05    0.09 
Q16   1   0.2124  0.6481  0.2445  11.00000  0.05    0.09 
Q17   1  -0.2194  0.7466  0.1333  11.00000  0.05    0.09 
Q18   1   0.3553  0.7581  0.2989  11.00000  0.05    0.08 
Q19   1   0.2580  0.8363  0.3309  11.00000  0.05    0.08 
Q20   1  -0.2454  0.9599  0.0582  11.00000  0.05    0.08 
;
_shelx_res_checksum              57525
_shelx_hkl_file
; 
   1   0   0  624.74   38.10 
  -1   0   0  601.74   38.90 
  -1   0   0  613.44   38.80 
  -2   0   0 1202.98   88.49 
  -2   0   0 1574.54   87.39 
   2   0   0 1339.57   87.19 
  -2   0   0 1520.65   86.79 
  -3   0   0  483.35   30.40 
  -3   0   0  413.16   32.40 
  -3   0   0  478.45   29.70 
  -4   0   0  434.06   35.80 
  -4   0   0  472.95   32.40 
  -4   0   0  519.95   32.00 
   5   0   0  115.69   10.70 
  -5   0   0  116.19   10.60 
   5   0   0  121.99   12.20 
   5   0   0  118.99   10.70 
   5   0   0  125.29   13.20 
   5   0   0  112.19   10.80 
  -5   0   0   97.89   11.00 
   6   0   0    4.70    2.50 
   6   0   0    3.40    3.60 
   6   0   0   11.00    3.20 
   6   0   0    4.10    1.80 
  -6   0   0    7.60    2.20 
  -7   0   0   44.60    5.20 
  -7   0   0   52.29    4.70 
   7   0   0   48.30    7.50 
   7   0   0   50.39    5.60 
   7   0   0   44.20    5.00 
   0  -1   0    0.30    0.20 
   0  -1   0    0.80    0.40 
   0   1   0    0.00    0.30 
   0   1   0    0.20    0.20 
  -2  -1   0  153.68   10.60 
  -2  -1   0  132.59   12.10 
  -2  -1   0  163.58    9.70 
   2  -1   0  176.28   11.00 
  -2   1   0  153.18   10.80 
   2   1   0  156.78   10.60 
  -2   1   0  126.99   11.50 
  -2   1   0  135.29   11.50 
  -2   1   0  149.29   10.40 
  -3  -1   0   50.19    5.00 
  -3  -1   0   48.20    6.70 
  -3   1   0   45.40    6.20 
  -3   1   0   50.99    4.80 
  -3   1   0   54.39    5.30 
  -4  -1   0  213.58   21.40 
  -4  -1   0  240.68   17.90 
  -4  -1   0  277.67   17.50 
  -4   1   0  248.18   17.70 
  -4   1   0  221.08   20.70 
  -4   1   0  241.28   18.20 
   5  -1   0   17.10    3.70 
   5  -1   0   10.30    3.40 
   5  -1   0   14.60    4.50 
   5  -1   0    4.20    4.70 
   5  -1   0   11.80    2.90 
   5   1   0   11.20    3.00 
  -5   1   0    9.20    2.30 
   5   1   0    9.40    6.20 
   5   1   0    8.90    3.30 
  -5   1   0    5.80    2.20 
   5   1   0   12.00    4.00 
   5   1   0   10.40    4.90 
   6  -1   0   71.19    7.60 
  -6  -1   0   76.79    8.90 
   6  -1   0   69.39    7.60 
  -6  -1   0   68.29    6.90 
   6  -1   0   72.19   10.50 
   6  -1   0   64.89    9.30 
  -6   1   0   72.69    6.60 
  -6   1   0   69.79    8.60 
   6   1   0   74.69    8.20 
   6   1   0   79.19    8.40 
  -6   1   0   57.59    7.30 
   6   1   0   90.39   10.80 
   6   1   0   74.19    8.00 
   7  -1   0   35.70    6.80 
  -7  -1   0   29.40    4.70 
   7  -1   0   26.00    4.60 
  -7  -1   0   40.90    4.00 
   7  -1   0   39.30    4.30 
  -7   1   0   34.90    4.30 
   7   1   0   35.80    4.70 
   7   1   0   37.10    4.60 
  -7   1   0   33.90    3.70 
   1  -2   0  776.52   55.09 
   1  -2   0  876.11   54.89 
  -1  -2   0  938.01   56.49 
  -1  -2   0  966.40   55.89 
  -1  -2   0  867.21   55.19 
   1   2   0  873.61   56.39 
  -1   2   0  920.91   55.89 
  -2  -2   0 3416.66  191.68 
  -2  -2   0 3086.69  192.38 
   2  -2   0 3235.18  191.58 
  -2  -2   0 3011.30  194.18 
  -2   2   0 3028.60  192.38 
  -2   2   0 2968.10  193.18 
  -3  -2   0  557.34   41.10 
  -3  -2   0  601.24   34.30 
  -3  -2   0  519.05   35.70 
  -3   2   0  555.84   35.50 
  -3   2   0  515.95   37.30 
  -3   2   0  526.25   36.40 
  -4  -2   0  485.15   28.40 
  -4  -2   0  398.76   29.10 
  -4  -2   0  410.86   41.40 
  -4   2   0  411.86   32.30 
  -4   2   0  396.16   29.90 
  -4   2   0  432.46   29.00 
  -5  -2   0   71.69    7.30 
   5  -2   0   64.09    7.80 
   5  -2   0   65.59    7.40 
   5  -2   0   54.89    9.20 
   5  -2   0   67.09    9.60 
  -5   2   0   77.79    7.90 
   5   2   0   72.99    7.80 
  -5   2   0   66.79    6.30 
  -5   2   0   68.69    7.80 
   5   2   0   75.59   10.30 
   5   2   0   68.69    8.00 
   5   2   0   66.09    7.80 
   6  -2   0   11.20    4.30 
   6  -2   0   17.00    5.10 
   6  -2   0   13.40    3.10 
   6   2   0   19.10    4.70 
  -6   2   0   14.40    3.60 
   6   2   0   25.40    4.40 
  -6   2   0   16.70    3.20 
   6   2   0   14.70    3.50 
   6   2   0   16.10    5.50 
   7  -2   0    6.90    3.30 
  -7   2   0    4.80    2.00 
   7   2   0   10.90    3.60 
   7   2   0    6.50    1.90 
  -7   2   0    4.40    2.00 
   7   2   0    8.70    2.40 
   0  -3   0    0.20    0.50 
   0   3   0    0.50    0.60 
   1  -3   0 3664.93  258.67 
  -1  -3   0 4411.66  260.57 
   1  -3   0 4297.87  258.57 
  -1   3   0 4595.44  260.37 
   1   3   0 4207.68  260.57 
  -2  -3   0 1196.88   67.19 
   2  -3   0 1042.70   66.59 
  -2  -3   0 1120.69   70.19 
  -2   3   0 1071.49   68.29 
  -2   3   0  929.81   68.09 
   2   3   0 1047.00   69.79 
  -3  -3   0  110.19    9.30 
  -3  -3   0  106.39   12.10 
  -3   3   0  106.19    8.80 
  -3   3   0  109.39   10.20 
  -3   3   0  119.59   10.40 
  -4  -3   0   75.09    7.70 
   4  -3   0   87.99   10.80 
  -4  -3   0   66.09   12.80 
  -4   3   0   72.39    9.40 
  -4   3   0   65.99    7.60 
   4   3   0   80.29    8.80 
  -4   3   0   79.79    7.70 
  -4   3   0   66.49    8.40 
  -5  -3   0  162.48   13.10 
   5  -3   0  161.78   15.50 
   5  -3   0  157.28   15.90 
  -5   3   0  171.08   14.00 
  -5   3   0  164.48   14.00 
   5   3   0  178.88   14.70 
   5   3   0  164.58   17.10 
   5   3   0  176.48   14.60 
  -5   3   0  166.78   12.00 
   5   3   0  165.18   13.60 
   6  -3   0   88.99   12.00 
  -6  -3   0  102.29    9.10 
   6  -3   0   95.99   12.10 
   6   3   0   99.89    9.70 
   6   3   0  101.29   12.20 
  -6   3   0   97.09    9.40 
   6   3   0  103.79    9.80 
  -6   3   0   80.49    9.30 
  -6   3   0   85.59    7.30 
   6   3   0   93.59    9.00 
   7  -3   0   11.90    3.90 
  -7  -3   0   12.30    2.70 
   7   3   0   19.60    3.50 
   7   3   0   18.30    4.50 
  -7   3   0   14.70    3.20 
   7   3   0   20.40    4.30 
   0  -4   0 2531.55  154.58 
   0   4   0 2613.14  157.48 
   0   4   0 2450.25  156.08 
   1  -4   0 1925.91  133.49 
   1  -4   0 2230.38  133.79 
   1   4   0 2211.28  136.29 
  -1   4   0 2317.47  136.29 
  -1   4   0 2201.38  133.59 
  -2  -4   0   98.49   10.20 
  -2  -4   0   90.29    8.00 
   2  -4   0   91.59    7.50 
  -2   4   0   92.29    9.20 
  -3  -4   0  137.29   11.40 
   3  -4   0  120.39   10.50 
  -3  -4   0  137.19   14.50 
  -3   4   0  159.98   11.90 
  -3   4   0  123.99   12.40 
   4  -4   0  104.49   11.30 
   4  -4   0  120.69   10.10 
  -4  -4   0  105.49    7.90 
   4   4   0   75.49   12.30 
   4   4   0  106.99   13.30 
  -4   4   0  109.59   10.20 
  -4   4   0  101.49    7.90 
   4   4   0  111.29   10.40 
  -5  -4   0   63.09    6.40 
   5  -4   0   55.79    8.90 
   5  -4   0   69.49    9.00 
   5   4   0   66.19    7.50 
  -5   4   0   62.99    7.80 
  -5   4   0   68.49    6.00 
  -5   4   0   62.89    7.60 
   5   4   0   77.29   10.90 
   5   4   0   72.29    7.80 
   6  -4   0   31.80    6.50 
   6   4   0   21.30    5.30 
   6   4   0   31.30    4.90 
   6   4   0   32.10    4.90 
  -6   4   0   30.60    5.20 
  -6   4   0   36.60    5.20 
  -7  -4   0   22.30    2.80 
   7  -4   0   17.60    4.10 
   7   4   0   24.90    3.60 
   7   4   0   18.60    3.50 
  -7   4   0   19.00    3.30 
   0  -5   0    0.70    1.20 
   0  -5   0    1.70    0.70 
   0   5   0   -0.20    1.00 
   0   5   0    0.60    0.90 
   1  -5   0 1023.50   63.19 
   1   5   0  916.01   65.39 
   1   5   0 1105.59   66.09 
  -1   5   0  987.60   65.99 
  -2  -5   0  320.37   26.70 
  -2  -5   0  358.66   24.70 
  -2   5   0  361.56   26.50 
  -3  -5   0  160.48   13.30 
   3  -5   0  166.28   17.30 
   3  -5   0  154.58   11.80 
  -3  -5   0  133.89   15.80 
  -3   5   0  178.18   14.00 
  -3   5   0  168.08   14.30 
  -3   5   0  133.19   14.40 
  -3   5   0  159.88   12.80 
   4  -5   0  145.99   10.80 
   4  -5   0  150.68   14.20 
   4  -5   0  155.78   13.40 
  -4  -5   0  143.79   10.30 
   4   5   0  147.49   13.90 
   4   5   0  141.59   12.50 
   4   5   0  156.28   13.40 
   4   5   0  126.19   12.40 
  -4   5   0  144.89   13.50 
  -4   5   0  149.09   13.10 
   5  -5   0  124.09   13.30 
  -5  -5   0  144.89   10.70 
   5  -5   0  148.19   14.30 
  -5   5   0  135.89   12.60 
   5   5   0  132.19   11.90 
   5   5   0  116.79   13.20 
   5   5   0  134.59   12.10 
  -5   5   0  125.89   12.40 
   6  -5   0   36.80    6.00 
   6  -5   0   29.20    5.60 
   6   5   0   35.90    4.80 
   6   5   0   41.00    5.00 
  -6   5   0   34.90    6.70 
   6   5   0   25.30    5.10 
  -6   5   0   33.60    5.30 
   7  -5   0    0.30    2.20 
  -7   5   0    4.30    1.40 
   7   5   0   -2.50    2.50 
   0  -6   0  190.38   13.20 
   0   6   0  190.78   16.70 
  -1  -6   0  290.67   23.70 
  -1  -6   0  295.57   19.30 
   1  -6   0  312.27   20.80 
  -1  -6   0  314.07   24.20 
  -1   6   0  297.07   24.10 
   2  -6   0   15.50    3.10 
  -2  -6   0   12.60    4.30 
  -2   6   0   11.40    3.10 
  -2   6   0   11.10    3.50 
  -2   6   0   14.20    4.80 
   3  -6   0  143.99   13.00 
   3  -6   0  122.49   11.30 
   3  -6   0  137.09   10.90 
  -3   6   0  137.69   12.00 
   3   6   0  136.79   13.00 
   3   6   0  125.59   12.30 
   3   6   0  138.69   12.10 
  -3   6   0  138.59   13.40 
  -3   6   0  152.58   13.70 
  -3   6   0  140.89   11.90 
   3   6   0  136.99   12.90 
   4  -6   0  134.89    9.80 
   4  -6   0  121.19   12.70 
   4   6   0  140.99   12.30 
  -4   6   0  136.39   12.80 
   4   6   0  126.79   12.40 
   4   6   0  120.49   11.10 
  -4   6   0  130.69   12.40 
   4   6   0  125.59   11.20 
  -4   6   0  114.99   11.10 
   5  -6   0    8.60    3.60 
   5  -6   0   13.60    4.50 
  -5   6   0    7.70    3.10 
   5   6   0   10.70    2.90 
   5   6   0   11.40    3.60 
   5   6   0    9.90    2.80 
  -5   6   0   13.60    3.70 
   6  -6   0    4.90    2.30 
   6  -6   0    6.70    2.30 
   6   6   0    7.40    2.40 
  -6   6   0   12.00    2.60 
  -6   6   0    8.60    3.60 
   6   6   0    5.70    1.80 
   0  -7   0    0.70    1.00 
   0   7   0    0.20    2.00 
   0   7   0   -3.40    3.80 
   0   7   0    1.00    2.50 
  -1  -7   0  110.29    8.60 
   1  -7   0  117.19    9.80 
   1   7   0  125.19   12.70 
   1   7   0  119.19   10.80 
   1   7   0  114.09   11.00 
  -1   7   0  117.89   10.80 
  -1   7   0  116.79   12.30 
   1   7   0  123.89   12.50 
  -1   7   0  107.49   10.80 
  -1   7   0  110.99   13.10 
  -1   7   0  119.19   12.00 
   2  -7   0   96.29    9.40 
   2  -7   0   68.89    7.50 
   2  -7   0   87.19    8.30 
   2   7   0   76.79   10.60 
   2   7   0   87.69    8.80 
  -2   7   0   79.29    8.40 
  -2   7   0   90.39   10.00 
  -2   7   0   81.09   10.20 
  -2   7   0   81.89    8.60 
  -2   7   0   82.49    9.20 
   2   7   0   82.89   10.00 
   2   7   0   94.29    9.10 
   3  -7   0   51.89    7.20 
   3  -7   0   57.49    7.10 
   3  -7   0   57.89    5.90 
  -3   7   0   65.89    8.20 
   3   7   0   51.09    7.40 
   3   7   0   51.79    7.70 
   3   7   0   46.00    6.90 
  -3   7   0   60.79    6.90 
  -3   7   0   58.39    7.90 
  -3   7   0   62.69    6.70 
   4  -7   0   35.50    6.20 
   4  -7   0   32.20    5.60 
   4  -7   0   35.50    4.10 
  -4   7   0   22.70    5.00 
   4   7   0   28.70    6.20 
   4   7   0   32.10    6.10 
  -4   7   0   34.20    6.20 
   4   7   0   20.80    4.80 
  -4   7   0   33.50    5.80 
   5  -7   0    7.20    3.50 
   5  -7   0   18.10    4.00 
  -5   7   0    6.80    3.00 
  -5   7   0   10.10    3.10 
   5   7   0   10.30    2.30 
   5   7   0    7.70    2.50 
   5   7   0    7.10    3.60 
   6  -7   0   -1.40    1.90 
   6  -7   0   -2.70    1.50 
  -6   7   0    1.90    1.30 
  -6   7   0    2.70    1.80 
   6   7   0    0.10    1.40 
   0  -8   0  105.19    9.10 
   0   8   0  124.19   11.40 
   0   8   0   89.99    9.60 
   0   8   0  121.89   12.60 
   0   8   0   91.39   12.60 
   1  -8   0   72.39    9.30 
   1  -8   0   86.79    8.20 
  -1  -8   0   87.19    7.30 
  -1   8   0   80.49    9.00 
  -1   8   0   85.59    9.80 
  -1   8   0  104.29   11.60 
  -1   8   0   78.59   10.50 
   1   8   0  100.69   10.30 
   1   8   0   98.19   10.60 
   1   8   0   84.19    8.60 
  -1   8   0   93.09   10.40 
   2  -8   0    2.60    1.80 
  -2  -8   0    2.20    0.90 
   2  -8   0    1.00    1.40 
   2  -8   0    0.20    1.90 
  -2   8   0    1.20    1.40 
   2   8   0    2.90    2.40 
  -2   8   0   -1.90    3.10 
   2   8   0   -0.50    1.80 
   2   8   0   -2.10    3.60 
  -2   8   0    1.50    1.60 
   2   8   0   -1.70    1.80 
   3  -8   0   -2.60    2.90 
   3  -8   0   -1.70    2.10 
   3  -8   0    2.40    1.70 
  -3   8   0    0.40    2.50 
   3   8   0    0.00    2.10 
   3   8   0    2.60    5.20 
   3   8   0    0.40    2.50 
  -3   8   0    3.10    2.20 
  -3   8   0    3.60    3.10 
  -3   8   0    1.00    1.90 
   4  -8   0   10.70    3.40 
   4  -8   0    7.30    2.70 
   4  -8   0   12.10    2.30 
   4   8   0    9.10    3.60 
  -4   8   0    7.00    2.90 
  -4   8   0    2.80    2.70 
  -4   8   0   10.90    3.50 
   4   8   0    6.90    3.50 
   5  -8   0    5.30    2.20 
   5  -8   0    5.70    2.00 
  -5   8   0    2.30    1.80 
  -5   8   0    5.00    2.30 
   0  -9   0    2.80    1.30 
   0   9   0   -2.60    2.80 
   0   9   0   -1.40    1.30 
   0   9   0    4.00    2.00 
   0   9   0   -5.10    2.70 
   1  -9   0   12.80    3.90 
   1  -9   0   22.50    4.00 
  -1  -9   0   21.90    3.10 
   1   9   0   19.20    5.00 
  -1   9   0   21.60    4.50 
  -1   9   0   13.70    3.70 
  -1   9   0   24.80    6.00 
   1   9   0   14.10    4.70 
   1   9   0   20.70    5.00 
   1   9   0   13.50    3.40 
   2  -9   0   25.30    4.10 
  -2  -9   0   22.30    3.10 
   2  -9   0   25.70    4.60 
   2  -9   0   15.60    4.50 
   2   9   0   24.80    4.70 
  -2   9   0   25.30    6.50 
   2   9   0   28.30    4.60 
  -2   9   0   24.00    4.70 
  -2   9   0   23.00    4.40 
   3  -9   0   41.10    4.30 
   3  -9   0   30.20    4.80 
   3   9   0   26.90    5.50 
   3   9   0   31.60    5.10 
  -3   9   0   37.80    5.00 
  -3   9   0   31.60    4.60 
  -3   9   0   33.80    5.90 
   4  -9   0    6.30    2.40 
   4  -9   0   -2.10    1.30 
  -4   9   0   -0.90    1.50 
  -4   9   0    0.90    2.20 
   0 -10   0   15.30    3.00 
   0  10   0    9.50    3.20 
   0  10   0   10.90    4.00 
   0  10   0   11.40    3.10 
  -1  10   0    0.80    1.30 
   1  10   0    4.40    1.70 
  -1  10   0   -1.20    2.60 
   1  10   0    2.60    2.00 
  -1  10   0    2.50    1.90 
   1  10   0   -3.10    2.50 
   2 -10   0   23.40    3.50 
  -2  10   0   11.60    3.50 
  -2  10   0   17.30    3.30 
   2  10   0   20.50    3.50 
   2  10   0   21.20    3.80 
   3 -10   0    2.60    1.10 
   3 -10   0    1.70    1.20 
  -3  10   0    0.50    1.90 
  -3  10   0    0.70    1.60 
   3  10   0    3.50    2.00 
   0 -11   0    1.20    1.30 
   0  11   0    0.00    1.20 
   0  11   0    0.50    2.10 
   0  11   0   -0.40    1.30 
   1 -11   0    7.10    1.50 
  -1  11   0   11.30    2.70 
  -1  11   0    7.30    1.90 
   1  11   0    4.70    1.70 
   1  11   0    7.50    2.20 
  -1  11   0    6.60    2.40 
   2 -11   0    0.40    1.00 
   2 -11   0    1.80    1.10 
   2  11   0   -1.80    1.20 
  -2  11   0    2.00    1.00 
  -2  11   0   -0.50    0.80 
  -2  11   0    2.40    1.70 
   7   0  -1   33.80    4.60 
   7   0  -1   34.20    4.60 
  -7   0   1   36.10    4.00 
  -7   0   1   41.40    4.60 
   7   0  -1   35.90    7.10 
  -6   0   1    3.10    1.70 
   6   0  -1    8.30    3.50 
   6   0  -1    2.50    1.80 
   6   0  -1    6.30    2.60 
  -6   0   1    7.30    2.30 
   6   0  -1    6.20    2.80 
  -5   0   1   24.70    4.30 
   5   0  -1   22.50    4.80 
   5   0  -1   38.80    6.90 
  -5   0   1   24.30    3.90 
   5   0  -1   24.90    4.60 
   5   0  -1   30.80    7.10 
  -4   0   1  248.38   17.70 
  -4   0   1  273.07   17.90 
  -4   0   1  232.68   21.50 
   3   0  -1 1778.22   96.79 
  -3   0   1 1551.64   95.29 
  -3   0   1 1393.66   98.19 
  -3   0   1 1440.16   95.19 
  -1   0   1    3.50    0.50 
  -1   0   1    4.10    1.30 
   1   0  -1    3.80    1.00 
   1   0  -1    4.40    0.60 
  -1   0  -1   43.90    4.20 
  -1   0  -1   53.99    4.00 
   1   0   1   48.40    4.00 
   1   0   1   42.30    4.20 
   2   0   1 1307.27   89.19 
  -2   0  -1 1619.04   89.49 
  -2   0  -1 1377.86   90.59 
  -3   0  -1  578.54   38.60 
  -3   0  -1  535.75   40.40 
  -3   0  -1  628.24   37.70 
  -4   0  -1  267.07   18.40 
  -4   0  -1  225.28   21.90 
  -4   0  -1  250.77   19.30 
   5   0   1   15.30    3.70 
  -5   0  -1    9.50    2.50 
   5   0   1   13.30    3.10 
  -5   0  -1    6.20    2.40 
   5   0   1    6.00    2.50 
   5   0   1   12.60    3.90 
   5   0   1    3.10    3.90 
   6   0   1    8.40    4.50 
  -6   0  -1    7.30    3.20 
   6   0   1   13.30    4.60 
   6   0   1    5.10    2.30 
   6   0   1    8.40    2.90 
   7   0   1   20.00    3.80 
   7   0   1   14.50    2.80 
  -7   0  -1   14.90    2.80 
   7   0   1   15.90    4.20 
  -7  -1   1   17.80    3.30 
   7  -1  -1   30.90    4.40 
   7  -1  -1   21.50    5.00 
  -7  -1   1   20.70    3.50 
   7  -1  -1   25.50    5.80 
  -7   1   1   26.80    3.30 
   7   1  -1   24.60    4.00 
  -7   1   1   21.90    3.70 
   7   1  -1   26.20    3.90 
   7   1  -1   18.60    5.40 
   6  -1  -1   73.79    8.70 
  -6  -1   1   83.79    8.10 
  -6  -1   1   85.19    9.00 
   6  -1  -1   92.29    9.10 
   6  -1  -1   97.39    9.00 
   6  -1  -1  100.19   12.20 
   6   1  -1   90.99    9.60 
  -6   1   1   87.49    8.00 
  -6   1   1   94.99   10.20 
   6   1  -1   91.19    9.40 
   6   1  -1  114.69   13.30 
   6   1  -1   93.09    9.40 
   5  -1  -1   70.39    9.70 
   5  -1  -1   56.79    7.30 
   5  -1  -1   62.59    7.10 
   5  -1  -1   55.49    7.80 
  -5  -1   1   56.29    6.30 
   5   1  -1   57.19    7.00 
  -5   1   1   53.79    6.70 
  -5   1   1   53.99    6.40 
  -5   1   1   44.60    5.80 
   5   1  -1   63.69    9.40 
   5   1  -1   57.69    7.10 
   5   1  -1   59.29    6.60 
  -4  -1   1  343.47   29.00 
  -4  -1   1  380.76   24.20 
  -4  -1   1  359.56   24.10 
  -4   1   1  347.77   24.70 
  -4   1   1  362.16   28.30 
  -3  -1   1  454.25   27.00 
  -3  -1   1  461.95   27.40 
  -3  -1   1  395.36   27.40 
  -3  -1   1  397.96   30.60 
  -3   1   1  424.16   27.80 
  -3   1   1  399.66   29.90 
  -3   1   1  416.66   27.50 
  -2  -1   1  343.37   21.00 
  -2  -1   1  339.57   20.90 
  -2  -1   1  307.57   24.90 
  -2   1   1  318.77   20.90 
  -2   1   1  304.87   22.30 
  -2   1   1  333.97   21.20 
   0  -1  -1   80.79    6.20 
   0  -1   1   82.09    6.00 
   0  -1  -1   99.89    6.50 
   0   1   1   93.59    6.20 
   0   1  -1   82.39    6.10 
  -2  -1  -1  825.42   45.80 
  -2  -1  -1  763.32   46.90 
  -2   1  -1  646.14   47.70 
  -2   1  -1  626.14   47.60 
  -2   1  -1  772.92   47.40 
  -2   1  -1  804.02   46.60 
  -3  -1  -1  103.19    7.40 
  -3  -1  -1   87.29   10.30 
  -3  -1  -1  100.79    8.50 
  -3   1  -1   80.19    9.30 
  -3   1  -1   96.39    7.90 
  -3   1  -1  104.29    9.00 
  -4  -1  -1   14.40    3.50 
  -4  -1  -1   25.50    5.90 
  -4   1  -1   18.50    4.30 
  -4   1  -1   16.10    5.00 
   5  -1   1   45.30    7.50 
   5  -1   1   41.60    5.50 
  -5  -1  -1   34.70    5.60 
   5  -1   1   44.70    5.80 
   5  -1   1   50.79    7.60 
  -5  -1  -1   32.90    5.50 
   5  -1   1   38.10    5.50 
   5   1   1   42.40    6.00 
  -5   1  -1   41.40    4.90 
   5   1   1   32.20    5.20 
   5   1   1   31.20    5.20 
   5   1   1   44.50    7.80 
   5   1   1   49.60    7.80 
  -5   1  -1   46.80    5.50 
   6  -1   1   82.49    8.30 
  -6  -1  -1   85.29    8.20 
   6  -1   1   86.29   10.80 
  -6  -1  -1   81.19    7.70 
   6  -1   1   86.79    8.60 
  -6  -1  -1   76.59    9.10 
   6  -1   1   72.99   10.10 
  -6   1  -1   96.19    9.90 
  -6   1  -1   84.09    7.40 
   6   1   1   98.99    9.20 
   6   1   1   79.79   10.20 
   6   1   1   92.09    9.00 
  -6   1  -1   84.09    8.60 
   6   1   1   97.99   11.80 
  -7  -1  -1   57.49    5.60 
   7  -1   1   64.09    8.10 
  -7  -1  -1   66.29    5.40 
   7  -1   1   61.49    5.60 
   7  -1   1   53.99    5.80 
  -7   1  -1   56.89    5.90 
   7   1   1   71.89    6.80 
   7   1   1   62.29    8.20 
  -7   1  -1   60.29    5.10 
   7   1   1   63.39    6.80 
  -7  -2   1   13.60    2.80 
   7  -2  -1   11.10    4.30 
   7   2  -1    8.80    2.40 
   7   2  -1    6.80    3.50 
  -7   2   1   13.90    2.20 
   7   2  -1   14.70    3.30 
  -7   2   1   11.40    2.90 
   6  -2  -1    7.50    4.40 
  -6  -2   1    3.50    2.50 
   6  -2  -1    8.20    2.40 
   6  -2  -1    8.50    2.80 
  -6  -2   1    6.10    2.20 
   6   2  -1    4.00    2.00 
  -6   2   1   14.10    3.40 
  -6   2   1    7.90    2.70 
   6   2  -1   11.80    5.20 
   6   2  -1    6.00    2.60 
  -6   2   1    6.10    1.90 
   6   2  -1    5.40    2.50 
   5  -2  -1    9.70    6.40 
   5  -2  -1   15.50    5.40 
   5  -2  -1   23.90    4.40 
  -5  -2   1   17.60    3.60 
   5  -2  -1   20.70    5.10 
   5  -2  -1   23.40    4.30 
   5   2  -1   23.00    4.30 
  -5   2   1   25.40    4.40 
  -5   2   1   24.90    5.00 
   5   2  -1   24.30    4.40 
   5   2  -1   22.30    5.20 
   5   2  -1   22.30    6.80 
  -5   2   1   23.40    3.70 
  -4  -2   1  175.38   11.90 
  -4  -2   1  167.68   12.60 
  -4  -2   1  156.18   16.80 
  -4   2   1  154.48   13.00 
  -4   2   1  156.88   15.30 
  -4   2   1  157.28   12.50 
  -3  -2   1  376.66   28.50 
  -3  -2   1  406.56   23.50 
  -3  -2   1  355.56   24.70 
  -3   2   1  358.96   26.70 
  -3   2   1  369.26   25.60 
  -2  -2   1 2895.81  165.28 
  -2  -2   1 2560.14  167.68 
   2  -2  -1 2664.73  165.88 
   2  -2  -1 2603.04  165.18 
  -2  -2   1 2724.43  165.78 
  -2   2   1 2719.83  166.38 
  -2   2   1 2695.83  166.08 
  -1  -2   1  922.51   59.99 
  -1  -2   1  954.80   59.39 
   1  -2  -1  880.21   59.49 
   1  -2  -1  955.20   59.59 
   1  -2  -1  944.31   59.09 
  -1  -2   1  910.51   59.99 
  -1   2   1  996.30   59.69 
   1   2  -1 1052.59   59.49 
   0  -2   1 2216.18  159.38 
   0  -2  -1 2524.85  160.78 
   0  -2  -1 2646.74  160.78 
   0  -2   1 2541.55  160.58 
   0  -2   1 2775.22  159.58 
   0   2   1 2876.91  160.98 
   0   2   1 2733.23  160.68 
   1  -2   1  357.16   23.80 
   1  -2   1  349.67   23.00 
  -1  -2  -1  370.96   24.70 
  -1  -2  -1  374.16   23.50 
  -1  -2  -1  364.96   24.10 
  -1   2  -1  338.37   22.80 
  -1   2  -1  407.26   22.90 
  -1   2  -1  363.06   24.00 
   1   2   1  338.17   24.70 
  -2  -2  -1 2710.33  145.19 
   2   2   1 2212.38  147.49 
  -2   2  -1 2438.86  145.99 
  -2   2  -1 2409.36  145.19 
  -2   2  -1 2228.88  146.19 
  -2   2  -1 2114.79  145.29 
  -3  -2  -1   27.00    5.30 
  -3  -2  -1   26.40    3.90 
  -3  -2  -1   29.40    2.80 
  -3   2  -1   21.90    3.40 
  -3   2  -1   24.00    4.00 
  -3   2  -1   28.80    4.50 
  -4  -2  -1  112.19   10.90 
  -4  -2  -1  108.39   14.30 
  -4  -2  -1  121.59    9.90 
  -4   2  -1  126.69   12.00 
  -4   2  -1  118.39   13.00 
  -4   2  -1  147.49   12.50 
   5  -2   1  178.58   16.20 
  -5  -2  -1  159.58   13.90 
   5  -2   1  169.78   15.90 
   5  -2   1  167.18   13.40 
  -5   2  -1  173.48   14.00 
  -5   2  -1  173.68   12.50 
   5   2   1  160.38   14.40 
   5   2   1  162.28   13.70 
   5   2   1  162.18   14.30 
   5   2   1  187.18   17.10 
   5   2   1  198.08   16.20 
   6  -2   1   54.39    8.80 
  -6  -2  -1   69.79    7.30 
  -6  -2  -1   51.19    6.80 
   6  -2   1   74.69    8.80 
   6  -2   1   45.70    7.90 
   6   2   1   67.59    7.50 
  -6   2  -1   66.59    5.70 
  -6   2  -1   59.29    6.90 
   6   2   1   39.20   11.50 
   6   2   1   67.99    7.50 
   6   2   1   62.49    9.90 
   7  -2   1    9.70    4.80 
  -7  -2  -1   10.40    1.90 
   7   2   1   16.70    3.40 
   7   2   1   14.00    5.20 
   7   2   1   15.20    3.70 
  -7   2  -1   13.80    1.90 
  -7   2  -1    8.90    2.20 
   7  -3  -1    4.00    3.30 
  -7  -3   1    5.70    1.70 
  -7  -3   1    8.40    1.90 
   7   3  -1    7.90    2.50 
  -7   3   1   10.20    2.70 
   7   3  -1    9.70    2.60 
   7   3  -1    8.50    3.00 
  -6  -3   1   21.60    3.70 
   6  -3  -1    9.30    4.60 
  -6   3   1   20.40    3.00 
   6   3  -1   18.80    4.40 
   6   3  -1   21.70    4.10 
   6   3  -1   16.60    4.30 
  -6   3   1   23.20    4.90 
   6   3  -1   17.50    5.70 
  -6   3   1   14.10    3.80 
  -5  -3   1    5.40    1.80 
   5  -3  -1   10.90    4.70 
   5  -3  -1    6.40    3.40 
   5   3  -1    3.10    4.20 
  -5   3   1   10.10    2.60 
  -5   3   1    4.70    1.50 
   5   3  -1    2.00    1.90 
   5   3  -1    6.80    2.70 
  -5   3   1    4.90    2.30 
   5   3  -1    3.00    2.50 
  -4  -3   1   29.10    3.30 
  -4  -3   1   37.70    7.40 
  -4   3   1   31.80    4.70 
  -4   3   1   27.20    4.90 
  -4   3   1   36.30    6.30 
   3  -3  -1  305.87   21.70 
  -3  -3   1  326.67   22.40 
  -3  -3   1  313.17   25.90 
  -3   3   1  368.26   24.20 
  -3   3   1  315.67   23.40 
   2  -3  -1 1302.67   81.29 
  -2  -3   1 1266.57   84.09 
  -2  -3   1 1344.17   81.59 
  -2   3   1 1326.27   82.89 
   1  -3  -1  998.40   65.89 
  -1  -3   1 1004.90   66.39 
   1  -3  -1 1011.70   64.99 
  -1  -3   1 1052.19   67.49 
  -1   3   1 1091.09   66.59 
   1   3  -1 1148.49   66.39 
   0  -3  -1 1180.38   73.99 
   0  -3   1 1255.17   74.09 
   0  -3  -1 1298.87   76.09 
   0  -3   1 1050.79   74.19 
   0   3   1 1227.78   75.89 
   0   3  -1 1141.29   77.69 
   0   3   1 1317.97   76.19 
   1  -3   1  227.88   15.20 
  -1  -3  -1  241.38   16.10 
   1   3   1  219.08   17.20 
  -1   3  -1  233.08   16.70 
  -2  -3  -1  821.42   49.80 
   2  -3   1  780.32   49.30 
   2   3   1  717.13   52.39 
  -2   3  -1  904.81   49.80 
  -2   3  -1  774.02   51.09 
  -2   3  -1  683.03   49.30 
  -3  -3  -1  662.83   49.10 
  -3  -3  -1  704.93   42.60 
  -3  -3  -1  664.73   45.90 
  -3   3  -1  710.13   45.80 
  -3   3  -1  693.03   46.70 
  -3   3  -1  673.23   44.40 
   4  -3   1  214.98   18.20 
   4  -3   1  207.28   17.60 
  -4  -3  -1  187.58   16.60 
  -4  -3  -1  196.28   14.90 
   4   3   1  203.88   16.60 
   4   3   1  252.37   20.20 
  -4   3  -1  218.28   14.60 
  -4   3  -1  218.88   16.50 
   4   3   1  240.68   17.40 
  -4   3  -1  197.08   18.20 
  -5  -3  -1  292.37   22.00 
   5  -3   1  338.77   24.60 
   5  -3   1  293.47   30.00 
   5   3   1  291.87   28.50 
  -5   3  -1  306.47   22.70 
   5   3   1  249.08   25.00 
   5   3   1  323.27   24.10 
   5   3   1  344.57   27.60 
  -5   3  -1  337.97   28.40 
  -5   3  -1  291.87   21.20 
   6  -3   1  107.29   14.10 
   6  -3   1   81.49   10.20 
  -6  -3  -1   89.49    9.20 
  -6  -3  -1   99.19    8.40 
   6   3   1  111.79   13.20 
  -6   3  -1   91.09    7.00 
   6   3   1   96.39   12.20 
  -6   3  -1   89.79   10.40 
   6   3   1  102.29   11.10 
   7  -3   1   22.50    4.80 
  -7  -3  -1   25.30    2.80 
  -7   3  -1   20.70    3.40 
   7   3   1   27.00    3.60 
   7   3   1   29.80    3.80 
   7   3   1   24.50    4.50 
   7  -4  -1    2.20    2.70 
  -7  -4   1   -0.10    1.80 
  -7   4   1    3.90    2.10 
   7   4  -1    3.20    1.30 
   7   4  -1    3.10    1.60 
   7   4  -1    6.70    2.50 
   6  -4  -1   17.50    4.90 
   6  -4  -1   14.90    5.00 
  -6  -4   1   22.10    4.30 
   6   4  -1   24.80    4.60 
   6   4  -1   13.40    4.20 
  -6   4   1   25.90    4.90 
   6   4  -1   28.40    4.90 
  -6   4   1   23.70    4.50 
   6   4  -1   25.70    4.60 
   5  -4  -1    4.80    3.60 
  -5  -4   1    6.50    1.90 
  -5   4   1   11.70    3.20 
  -5   4   1    5.90    2.70 
   5   4  -1    8.10    2.70 
  -5   4   1   12.40    2.50 
   5   4  -1    7.60    3.30 
   5   4  -1   15.40    6.70 
   4  -4  -1   85.29   11.10 
   4   4  -1   82.09   10.90 
  -4   4   1   78.69    9.80 
  -4   4   1   91.69   10.20 
   4   4  -1   83.09    9.00 
  -4   4   1   84.99    8.30 
  -4   4   1   86.49    7.20 
   4   4  -1   92.69    9.60 
  -4   4   1   82.59   11.30 
  -3  -4   1  829.22   61.19 
  -3  -4   1  916.41   57.29 
  -3   4   1  825.62   58.69 
  -3   4   1  975.70   58.79 
   2  -4  -1  418.36   29.10 
  -2  -4   1  429.76   29.80 
  -2  -4   1  449.26   32.20 
  -2   4   1  462.35   31.40 
  -2   4   1  479.55   30.70 
   1  -4  -1  885.01   59.09 
  -1  -4   1  812.02   58.49 
   1  -4  -1  871.61   57.19 
  -1  -4   1  953.50   59.29 
   1   4  -1  992.40   59.39 
  -1   4   1  915.91   59.39 
  -1   4   1  992.10   58.49 
   0   4   1  710.63   49.80 
   0   4  -1  776.82   50.49 
   0   4   1  835.42   50.59 
   1  -4   1 1358.46   81.29 
  -1  -4  -1 1336.07   82.59 
   1   4   1 1250.97   83.99 
  -1   4  -1 1296.57   83.59 
   2  -4   1  845.62   51.49 
  -2  -4  -1  841.82   52.19 
   2   4   1  755.22   55.09 
  -2   4  -1  781.12   53.69 
  -3  -4  -1   16.10    3.40 
  -3  -4  -1   16.10    6.00 
  -3  -4  -1   12.50    1.30 
  -3   4  -1    8.60    3.10 
   4  -4   1  131.69   12.00 
   4  -4   1  123.79   10.80 
   4  -4   1  112.89   12.30 
  -4  -4  -1  121.99    9.40 
   4   4   1  121.19   11.30 
  -4   4  -1  120.49   11.20 
   4   4   1  115.79   10.90 
   4   4   1  125.19   13.10 
  -4   4  -1  119.69    8.80 
   4   4   1  148.89   13.00 
  -4   4  -1  131.79   12.00 
   5  -4   1   93.79   11.10 
  -5  -4  -1   94.89    8.60 
   5  -4   1   94.09   10.80 
   5   4   1   89.69   11.30 
   5   4   1  102.69    9.90 
  -5   4  -1   96.39    9.70 
   5   4   1  106.29   10.60 
   5   4   1  102.09    9.80 
  -5   4  -1   98.79    9.60 
  -6  -4  -1   19.50    4.00 
   6  -4   1   20.60    5.10 
   6  -4   1   13.50    3.80 
   6   4   1   20.50    3.70 
   6   4   1   11.70    2.80 
  -6   4  -1   14.90    3.60 
   6   4   1   18.00    5.10 
  -7  -4  -1   25.80    2.80 
   7  -4   1   23.20    3.50 
   7   4   1   23.30    3.20 
   7   4   1   27.70    3.40 
  -7   4  -1   17.20    3.20 
   7   4   1   21.20    3.80 
   7  -5  -1    7.80    2.50 
  -7   5   1    8.60    2.20 
   7   5  -1   10.00    2.20 
   7   5  -1   11.30    2.20 
   6  -5  -1    5.10    3.30 
   6  -5  -1    0.20    3.10 
  -6   5   1    6.90    2.60 
  -6   5   1    8.70    3.00 
   6   5  -1    5.20    2.00 
   6   5  -1    4.50    1.80 
   6   5  -1    3.10    2.70 
   5  -5  -1  275.27   23.70 
   5  -5  -1  276.27   22.60 
  -5   5   1  292.07   22.10 
   5   5  -1  260.97   20.50 
  -5   5   1  284.37   22.40 
   5   5  -1  316.07   23.10 
   5   5  -1  286.07   21.50 
   5   5  -1  275.47   21.40 
   4  -5  -1  147.79   14.00 
   4  -5  -1  143.89   10.60 
   4   5  -1  156.18   13.50 
   4   5  -1  125.29   12.10 
   4   5  -1  125.79   12.00 
  -4   5   1  145.49   12.70 
  -4   5   1  142.89   13.20 
   4   5  -1  140.89   12.30 
  -4   5   1  136.19   12.00 
   3  -5  -1  339.97   29.60 
   3  -5  -1  341.47   23.80 
  -3  -5   1  376.76   25.40 
  -3   5   1  379.16   26.40 
  -3   5   1  315.97   26.60 
  -2  -5   1  175.38   13.60 
  -2  -5   1  160.58   15.00 
  -2   5   1  174.08   14.90 
  -2   5   1  162.88   12.60 
   1  -5  -1  268.67   17.60 
  -1   5   1  262.47   20.20 
  -1   5   1  237.98   18.10 
   1   5  -1  267.17   20.00 
   0  -5   1 1181.38   68.59 
   0  -5  -1 1076.79   68.49 
   0   5  -1 1060.99   71.79 
   0   5   1 1187.18   72.19 
   0   5   1 1029.10   70.89 
  -1  -5  -1    8.00    2.10 
   1  -5   1   10.10    2.00 
  -1   5  -1    7.40    2.30 
  -2  -5  -1  714.03   45.00 
   2  -5   1  680.13   43.90 
   2   5   1  629.74   47.80 
  -2   5  -1  671.03   47.00 
   3  -5   1  211.18   16.60 
  -3  -5  -1  198.68   16.10 
   3  -5   1  191.88   15.20 
   3  -5   1  195.78   14.30 
  -3   5  -1  217.28   16.50 
  -3   5  -1  184.28   15.00 
   3   5   1  204.18   18.40 
  -3   5  -1  189.88   16.70 
   3   5   1  184.68   17.00 
   4  -5   1    6.90    3.20 
   4  -5   1    4.80    1.60 
  -4  -5  -1    4.30    1.40 
   4  -5   1    7.40    3.00 
   4   5   1    8.40    2.60 
   4   5   1    3.70    2.10 
   4   5   1    3.80    2.40 
  -4   5  -1    5.30    2.60 
   4   5   1   10.10    3.30 
   5  -5   1    9.70    3.50 
  -5  -5  -1   10.10    2.60 
   5  -5   1   10.10    4.10 
   5   5   1    6.80    3.60 
   5   5   1   10.90    2.80 
  -5   5  -1    5.90    3.40 
   5   5   1    7.90    2.90 
   5   5   1   14.00    4.40 
  -5   5  -1    4.50    3.10 
   6  -5   1   32.60    5.80 
   6  -5   1   26.80    5.40 
  -6   5  -1   26.00    4.80 
   6   5   1   32.50    4.40 
  -6   5  -1   39.00    7.00 
   6   5   1   26.00    5.00 
   6   5   1   38.90    4.50 
   6  -6  -1   31.90    5.90 
  -6   6   1   25.80    5.00 
  -6   6   1   26.40    5.00 
   6   6  -1   34.50    4.30 
   6   6  -1   31.70    4.10 
   5  -6  -1   12.40    4.60 
   5  -6  -1   20.80    7.20 
   5   6  -1    7.30    3.70 
  -5   6   1   12.60    6.20 
  -5   6   1    7.50    3.30 
   5   6  -1   12.30    3.30 
   5   6  -1   13.80    3.30 
   4  -6  -1  264.87   17.60 
   4  -6  -1  253.77   21.40 
  -4   6   1  260.07   20.60 
   4   6  -1  237.78   19.00 
   4   6  -1  270.47   19.50 
   4   6  -1  230.78   19.70 
  -4   6   1  249.38   20.80 
  -4   6   1  249.68   19.10 
   3  -6  -1   30.00    6.50 
   3  -6  -1   30.60    4.50 
  -3   6   1   28.90    5.00 
  -3   6   1   33.80    6.70 
   3   6  -1   31.30    6.20 
   3   6  -1   33.70    6.60 
  -3   6   1   35.90    6.20 
   3   6  -1   36.70    7.00 
   3   6  -1   33.10    7.20 
  -3   6   1   35.40    5.10 
  -2  -6   1  110.09   10.70 
   2  -6  -1  108.69    9.10 
  -2   6   1   74.29   14.60 
  -2   6   1  118.99   11.50 
  -2   6   1  100.59   14.60 
  -2   6   1  113.09   10.00 
  -1  -6   1  140.59    9.70 
   1  -6  -1  148.99   11.10 
   1   6  -1  146.59   13.80 
  -1   6   1  136.89   14.40 
   0  -6   1  194.08   13.00 
   0  -6  -1  186.38   13.00 
   0   6  -1  178.18   16.20 
   0   6   1  171.28   14.80 
   0   6   1  188.48   16.80 
  -1  -6  -1   33.20    3.10 
   1  -6   1   35.50    4.10 
  -1  -6  -1   29.50    5.40 
   1   6   1   29.30    5.60 
  -1   6  -1   40.80    6.40 
   2  -6   1  142.79   12.30 
   2  -6   1  151.88   12.70 
  -2   6  -1  183.78   15.10 
  -2   6  -1  160.48   13.10 
   2   6   1  151.48   14.70 
   2   6   1  162.38   14.40 
  -2   6  -1  185.88   15.20 
  -2   6  -1  159.38   13.80 
   2   6   1  162.28   13.90 
   3  -6   1  102.09   10.00 
   3  -6   1  103.19   10.60 
   3  -6   1  106.09    8.80 
  -3   6  -1  110.99   10.00 
  -3   6  -1  107.69   11.20 
  -3   6  -1   93.39    9.40 
   3   6   1  100.09   11.20 
   3   6   1  100.19   10.50 
   3   6   1  110.99   11.10 
   3   6   1   93.79    9.60 
  -3   6  -1  120.49   11.50 
   4  -6   1   14.50    2.80 
  -4  -6  -1   13.50    2.40 
   4  -6   1   15.90    4.80 
   4  -6   1   15.20    3.80 
   4   6   1   11.90    3.60 
   4   6   1   13.70    3.30 
   4   6   1   10.90    3.10 
  -4   6  -1   11.50    3.70 
   4   6   1   13.20    3.30 
  -4   6  -1   20.90    5.10 
  -4   6  -1   19.40    3.50 
   5  -6   1   49.00    7.20 
   5  -6   1   44.00    6.90 
   5   6   1   51.29    5.60 
  -5   6  -1   47.50    6.70 
   5   6   1   45.20    5.80 
  -5   6  -1   37.90    6.10 
   5   6   1   33.90    5.70 
   5   6   1   41.80    6.80 
   6  -6   1    8.80    2.50 
   6  -6   1    1.50    1.80 
  -6   6  -1    3.80    1.70 
  -6   6  -1    3.50    2.50 
   6   6   1    6.20    1.60 
   6   6   1    4.60    1.80 
   6   6   1    3.30    2.20 
   6  -7  -1    2.90    5.00 
   6  -7  -1    3.40    1.50 
   6   7  -1    2.30    1.60 
  -6   7   1    5.50    2.50 
  -6   7   1    0.60    1.20 
   5  -7  -1    2.90    2.10 
   5  -7  -1    4.80    2.70 
   5   7  -1    7.90    2.40 
   5   7  -1    2.80    2.00 
  -5   7   1    3.40    2.00 
  -5   7   1   -0.10    1.70 
   4  -7  -1    4.00    1.50 
   4  -7  -1    4.10    2.90 
  -4   7   1    8.90    3.50 
  -4   7   1    1.70    2.30 
   4   7  -1    1.50    2.50 
  -4   7   1    0.30    2.00 
   4   7  -1    3.60    3.00 
   4   7  -1   -3.00    3.30 
   3  -7  -1   13.80    3.30 
   3  -7  -1   22.50    5.20 
   3  -7  -1   23.40    4.00 
  -3   7   1   24.00    5.10 
  -3   7   1   21.70    5.60 
  -3   7   1   28.30    5.30 
  -3   7   1   21.30    5.40 
   3   7  -1   18.30    6.50 
   3   7  -1   16.10    5.60 
   3   7  -1   12.50    4.10 
   2  -7  -1  111.09    9.60 
  -2   7   1  119.79   12.20 
  -2   7   1  111.39   10.80 
   2   7  -1  122.79   11.10 
   2   7  -1   81.89   10.50 
   2   7  -1  119.19   11.50 
  -2   7   1  107.99   10.40 
   2   7  -1  101.19   11.60 
  -2   7   1   84.69   11.40 
  -2   7   1  115.09   10.50 
   1  -7  -1   97.79    8.70 
  -1  -7   1   94.29    7.70 
   1   7  -1  101.89   11.20 
   1   7  -1  109.89   10.10 
   1   7  -1  116.99   11.90 
  -1   7   1   97.39   10.00 
   1   7  -1   95.29   10.80 
  -1   7   1  104.49   10.10 
  -1   7   1  108.59   11.50 
  -1   7   1   97.19   10.50 
   0  -7   1   69.99    6.50 
   0  -7  -1   71.09    6.50 
   0   7  -1   73.69    9.10 
   0   7   1   63.49    7.50 
   0   7   1   75.69    9.40 
   0   7  -1   76.59    8.00 
   0   7  -1   65.99    8.70 
   0   7   1   70.99    7.70 
   0   7   1   76.49    9.00 
   0   7  -1   82.99   10.00 
  -1  -7  -1   30.60    3.60 
   1  -7   1   38.40    5.00 
  -1   7  -1   40.40    6.30 
  -1   7  -1   28.20    5.70 
   1   7   1   31.70    5.50 
   1   7   1   30.70    6.80 
   1   7   1   30.00    7.20 
   1   7   1   39.80    5.60 
  -1   7  -1   36.00    5.80 
  -1   7  -1   31.40    5.00 
  -1   7  -1   33.00    6.90 
   2  -7   1    6.80    2.70 
   2  -7   1   11.80    2.50 
   2  -7   1   11.00    3.20 
   2   7   1   10.80    3.60 
  -2   7  -1   11.70    4.10 
  -2   7  -1    6.80    2.50 
  -2   7  -1   13.40    4.60 
  -2   7  -1   11.30    3.50 
   2   7   1   14.70    3.60 
   2   7   1    8.40    3.60 
   3  -7   1   18.80    4.50 
   3  -7   1   20.60    3.80 
  -3  -7  -1   20.80    2.30 
   3  -7   1   24.70    5.00 
  -3   7  -1   34.30    5.50 
  -3   7  -1   26.30    4.30 
  -3   7  -1   22.70    6.00 
   3   7   1   30.90    5.10 
   3   7   1   22.40    4.40 
   3   7   1   24.10    4.60 
  -3   7  -1   30.30    4.60 
   3   7   1   19.60    4.50 
  -4  -7  -1   47.00    4.40 
   4  -7   1   46.70    6.90 
  -4   7  -1   40.80    5.40 
  -4   7  -1   45.30    6.90 
   4   7   1   47.90    5.90 
   4   7   1   36.00    6.80 
  -4   7  -1   50.29    7.10 
   5  -7   1   31.70    5.10 
   5  -7   1   29.80    5.50 
   5   7   1   22.20    5.90 
   5   7   1   35.50    4.70 
   5   7   1   37.10    4.20 
  -5   7  -1   29.60    5.20 
  -5   7  -1   30.40    5.00 
   6  -7   1    3.50    1.50 
   6  -7   1    2.30    1.60 
   6   7   1    3.10    1.40 
  -6   7  -1    0.00    1.30 
   5  -8  -1    1.30    1.90 
   5  -8  -1    4.90    2.50 
  -5   8   1   -0.10    2.10 
  -5   8   1    0.70    2.00 
   4  -8  -1   16.80    4.40 
   4  -8  -1   10.10    3.10 
  -4   8   1   10.60    3.80 
  -4   8   1    4.40    3.30 
   3  -8  -1    7.40    3.30 
   3  -8  -1    5.60    2.00 
   3  -8  -1    9.70    3.30 
  -3   8   1    6.40    2.50 
  -3   8   1    6.90    3.60 
  -3   8   1    8.80    3.30 
   3   8  -1    4.80    2.90 
  -3   8   1    5.90    3.10 
   3   8  -1    6.10    2.90 
   2  -8  -1  109.89    9.70 
  -2  -8   1  113.79    8.40 
   2  -8  -1  125.29   10.40 
   2  -8  -1  115.19   11.70 
  -2   8   1  109.49   10.90 
   2   8  -1  109.29   10.70 
   2   8  -1  110.69   11.40 
  -2   8   1  118.99   11.40 
  -2   8   1   94.99   11.60 
  -2   8   1  120.59   11.00 
   2   8  -1  120.89   12.00 
  -2   8   1  133.29   13.20 
  -1  -8   1   36.40    4.30 
   1  -8  -1   43.80    6.60 
   1  -8  -1   41.50    5.30 
  -1   8   1   52.59    6.10 
  -1   8   1   37.90    6.40 
   1   8  -1   54.69   10.10 
   1   8  -1   26.80    6.30 
   1   8  -1   49.30    7.00 
  -1   8   1   41.10    7.60 
   1   8  -1   56.89    8.10 
   0  -8  -1    4.00    1.80 
   0  -8   1    5.10    1.90 
   0   8  -1    8.90    3.40 
   0   8  -1    3.80    3.60 
   0   8  -1   11.50    3.90 
   0   8  -1    6.90    3.90 
   0   8   1    6.10    3.50 
   0   8   1    1.90    2.70 
   0   8   1    5.10    3.00 
   1  -8   1  110.49   10.00 
  -1  -8  -1  108.39    8.80 
  -1   8  -1  116.69   11.60 
   1   8   1  116.79   12.10 
   1   8   1  106.59   11.40 
   1   8   1  105.89   10.80 
  -1   8  -1   99.19   11.80 
  -1   8  -1  114.09   10.70 
   2  -8   1   17.40    4.10 
   2  -8   1   38.60    4.70 
   2  -8   1   29.10    4.80 
  -2  -8  -1   25.20    3.00 
  -2   8  -1   26.30    4.90 
   2   8   1   28.00    5.00 
  -2   8  -1   27.80    4.70 
  -2   8  -1   24.90    6.20 
   2   8   1   30.10    5.60 
  -2   8  -1   30.10    5.80 
   2   8   1   27.00    5.00 
   3  -8   1   53.09    9.70 
  -3  -8  -1   67.19    4.80 
   3  -8   1   56.39    7.60 
   3  -8   1   66.69    6.20 
  -3   8  -1   48.40    7.80 
   3   8   1   46.80   11.10 
  -3   8  -1   55.99    6.80 
   3   8   1   53.99    9.80 
  -3   8  -1   51.69    7.80 
   4  -8   1    5.50    2.60 
   4  -8   1    4.30    1.30 
   4  -8   1    7.60    2.70 
   4   8   1    9.60    3.40 
  -4   8  -1    1.50    2.20 
  -4   8  -1    8.70    2.30 
   4   8   1    2.00    2.60 
  -4   8  -1    4.50    2.60 
   5  -8   1    0.70    1.80 
   5  -8   1    5.40    1.90 
  -5   8  -1    0.90    1.40 
   5   8   1   -0.30    2.60 
  -5   8  -1    2.30    1.90 
   4  -9  -1    0.40    1.60 
   4  -9  -1   -0.90    1.50 
  -4   9   1    0.00    2.40 
  -4   9   1   -0.60    1.70 
   3  -9  -1   30.20    4.10 
  -3   9   1   22.10    5.80 
  -3   9   1   28.40    4.20 
  -3   9   1   12.80    7.10 
   3   9  -1   26.70    4.50 
   3   9  -1   26.50    4.50 
  -3   9   1   34.90    4.90 
   2  -9  -1   18.30    3.50 
  -2  -9   1   18.60    2.90 
   2  -9  -1   23.50    4.40 
   2  -9  -1   13.30    3.80 
   2   9  -1   20.90    4.30 
   2   9  -1   14.80    4.20 
  -2   9   1   19.50    5.70 
  -2   9   1   21.70    4.50 
   2   9  -1   26.80    5.70 
  -2   9   1   23.70    5.10 
   1   9  -1    7.60    2.70 
   1   9  -1    9.30    3.10 
  -1   9   1   18.50    4.70 
   1   9  -1    7.20    3.80 
  -1   9   1    8.60    2.70 
  -1   9   1   14.80    3.60 
  -1   9   1   14.30    4.30 
   0  -9  -1    5.80    1.80 
   0  -9   1    7.70    2.00 
   0   9  -1    3.10    3.60 
   0   9   1    3.40    2.20 
   0   9   1    7.60    3.30 
   0   9  -1    4.20    2.50 
   0   9  -1   16.40    7.60 
   0   9   1   -0.80    3.20 
   0   9  -1    6.20    2.40 
  -1  -9  -1   71.99    6.70 
   1  -9   1   83.69    8.10 
  -1   9  -1   87.29   10.20 
  -1   9  -1   79.59    9.00 
   1   9   1   65.69    9.00 
   1   9   1   74.89    8.40 
   1   9   1   73.49    9.20 
  -1   9  -1   78.29    8.20 
   2  -9   1   46.00    6.60 
   2  -9   1   53.29    9.10 
  -2   9  -1   37.10    7.10 
  -2   9  -1   54.49    7.90 
   2   9   1   50.69    7.30 
   2   9   1   64.39    7.20 
  -2   9  -1   59.29    6.60 
   2   9   1   43.90    6.20 
  -2   9  -1   55.99    6.80 
   3  -9   1    7.50    2.00 
   3  -9   1    5.80    2.70 
  -3   9  -1    5.60    1.90 
   3   9   1    3.50    2.50 
   3   9   1    4.80    2.20 
  -3   9  -1    4.20    1.90 
  -3   9  -1    7.20    3.90 
   3   9   1    4.60    2.10 
  -3   9  -1    4.00    2.80 
   4  -9   1    0.20    1.50 
  -4   9  -1    4.20    2.30 
  -4   9  -1    6.80    2.00 
   3 -10  -1    2.30    1.30 
   3 -10  -1   -2.40    1.80 
   3  10  -1   -0.50    2.20 
  -3  10   1    1.30    1.60 
  -3  10   1   -1.10    1.40 
  -3  10   1    9.40    3.20 
   2 -10  -1    5.90    2.20 
   2 -10  -1   10.70    2.30 
  -2  10   1    6.10    2.40 
  -2  10   1    4.90    2.00 
   2  10  -1    7.00    2.20 
   2  10  -1   10.30    2.90 
  -2  10   1   15.10    4.70 
   1 -10  -1    8.20    2.00 
   1 -10  -1    5.00    2.20 
  -1  10   1    0.40    1.60 
  -1  10   1    3.00    1.80 
   1  10  -1    3.40    3.30 
   1  10  -1    4.50    1.80 
   1  10  -1    8.00    2.10 
  -1  10   1   10.00    3.50 
   0  10   1    3.20    1.90 
   0  10  -1    1.50    2.20 
   0  10   1    1.70    2.60 
   0  10  -1    3.30    2.00 
   0  10   1    2.10    1.70 
   0  10   1    0.60    2.70 
   1 -10   1   40.40    4.60 
   1  10   1   43.60    6.20 
  -1  10  -1   41.20    5.50 
  -1  10  -1   36.20    6.30 
   1  10   1   39.80    5.30 
  -1  10  -1   36.50    4.90 
   1  10   1   29.60    5.40 
   2 -10   1    5.10    2.10 
   2  10   1    2.80    1.70 
  -2  10  -1    1.20    2.10 
   2  10   1    1.20    1.60 
  -2  10  -1    1.60    3.50 
  -2  10  -1    1.60    1.80 
  -2  10  -1    2.50    1.80 
   3 -10   1   16.40    2.30 
   3 -10   1   11.50    2.50 
   3  10   1   11.00    2.60 
  -3  10  -1   16.60    3.60 
   3  10   1   10.40    2.60 
  -3  10  -1   14.00    2.50 
   2 -11  -1    0.30    1.00 
  -2  11   1    0.40    1.00 
  -2  11   1    0.70    1.20 
  -2  11   1    2.30    1.60 
   2  11  -1    2.10    1.90 
   1 -11  -1   12.50    2.40 
   1  11  -1   10.00    2.10 
   1  11  -1   14.40    2.70 
  -1  11   1    7.20    1.90 
  -1  11   1    8.40    2.20 
  -1  11   1    7.30    2.00 
   0 -11   1    2.50    1.20 
   0 -11  -1    5.20    1.30 
   0  11  -1    2.40    1.20 
   0  11   1    2.70    1.80 
   0  11  -1    2.40    1.40 
   0  11   1    0.30    1.20 
  -1 -11  -1    3.30    2.10 
   1 -11   1    0.70    1.00 
  -1  11  -1   -0.10    1.40 
   1  11   1    1.10    1.20 
   1  11   1    0.90    1.40 
  -1  11  -1    0.50    0.80 
  -8   0   2    4.20    1.20 
   8   0  -2    5.00    2.30 
   8   0  -2   10.20    2.30 
  -8   0   2    3.90    1.10 
   7   0  -2   17.90    5.40 
   7   0  -2   23.50    3.90 
  -7   0   2   16.30    3.60 
   7   0  -2   24.40    4.00 
  -6   0   2    8.00    2.80 
  -6   0   2    4.10    2.00 
   6   0  -2    3.50    2.30 
  -6   0   2    4.90    1.90 
   6   0  -2   -3.70    3.60 
   6   0  -2    6.60    2.40 
   6   0  -2    3.20    1.80 
   5   0  -2   67.29    8.00 
  -5   0   2   66.89    6.90 
   5   0  -2   64.89    8.20 
   5   0  -2   60.29    7.70 
   5   0  -2   96.09   11.00 
  -5   0   2   70.09    7.00 
   5   0  -2   82.59    8.00 
  -4   0   2  465.95   30.20 
  -4   0   2  446.56   34.40 
   3   0  -2   50.59    3.90 
  -3   0   2   52.49    4.00 
  -3   0   2   48.50    6.50 
  -3   0   2   52.59    4.50 
  -2   0   2 2856.61  179.08 
  -2   0   2 2932.01  176.98 
  -1   0   2  788.42   47.70 
   1   0  -2  727.33   48.00 
   0   0  -2  674.03   38.40 
   0   0   2  602.64   38.80 
   0   0   2  571.24   38.30 
  -1   0  -2  281.87   19.60 
  -1   0  -2  289.57   18.60 
   1   0   2  286.37   19.90 
   1   0   2  307.97   19.50 
  -2   0  -2 1115.09   64.19 
  -2   0  -2  988.30   62.79 
   2   0   2  927.41   65.09 
  -3   0  -2   82.89    9.60 
  -3   0  -2   83.09    7.20 
  -3   0  -2   77.99    8.10 
  -4   0  -2   75.39   10.90 
  -4   0  -2   72.89    7.60 
  -4   0  -2   75.69    8.90 
  -5   0  -2  176.38   13.10 
   5   0   2  177.08   14.40 
   5   0   2  183.28   14.70 
  -5   0  -2  176.98   14.00 
  -5   0  -2  160.28   15.00 
   5   0   2  180.08   16.20 
   5   0   2  184.48   16.80 
   6   0   2    1.00    1.90 
  -6   0  -2    3.90    1.70 
  -6   0  -2    3.40    2.50 
   6   0   2    5.90    4.60 
  -6   0  -2    7.60    3.30 
   6   0   2    2.20    2.10 
   6   0   2    6.30    3.00 
  -7   0  -2    1.40    2.00 
   7   0   2    5.30    1.80 
   7   0   2    3.90    1.50 
  -8  -1   2    4.80    1.20 
   8  -1  -2    1.80    1.80 
  -8  -1   2   -0.10    1.40 
  -8   1   2    2.30    1.20 
   8   1  -2    1.70    2.60 
   8   1  -2    5.10    1.40 
  -7  -1   2    7.50    2.00 
   7  -1  -2    5.10    1.90 
   7  -1  -2    4.80    3.30 
   7  -1  -2    9.20    2.40 
   7   1  -2    6.00    3.50 
  -7   1   2    5.80    2.10 
   7   1  -2    6.70    2.10 
   7   1  -2    3.40    1.70 
   7   1  -2    3.40    2.30 
   6  -1  -2   27.50    7.60 
   6  -1  -2   30.70    5.20 
  -6  -1   2   40.20    5.00 
   6  -1  -2   37.90    5.50 
   6  -1  -2   32.10    5.00 
  -6  -1   2   32.30    4.80 
  -6   1   2   28.70    4.20 
   6   1  -2   26.20    5.00 
   6   1  -2   32.00    5.60 
   6   1  -2   28.90    7.60 
  -6   1   2   35.60    4.90 
  -6   1   2   32.80    5.20 
   6   1  -2   29.30    5.10 
  -5  -1   2    5.00    2.00 
   5  -1  -2   10.70    2.90 
   5  -1  -2   11.60    4.40 
   5  -1  -2    1.40    3.80 
  -5   1   2    7.30    2.40 
  -5   1   2    7.10    2.00 
   5   1  -2    6.00    2.90 
   5   1  -2    2.70    2.10 
   5   1  -2   11.50    3.80 
  -5   1   2    8.90    2.90 
   5   1  -2    2.10    4.40 
   5   1  -2    7.40    3.70 
  -4  -1   2  256.87   22.90 
  -4  -1   2  290.77   18.60 
  -4   1   2  262.47   18.50 
  -4   1   2  262.17   22.30 
  -3  -1   2 3279.87  194.88 
   3  -1  -2 2996.20  195.38 
  -3  -1   2 3347.96  195.18 
  -3  -1   2 3095.39  199.18 
  -3  -1   2 3230.08  194.68 
  -3   1   2 3183.48  195.48 
  -3   1   2 3179.28  198.48 
  -2  -1   2  836.72   59.79 
  -2  -1   2  978.60   56.89 
  -2  -1   2  921.51   56.89 
  -2   1   2  926.81   59.29 
  -2   1   2  935.41   57.49 
  -2   1   2  956.50   57.49 
   0  -1  -2 2234.78  143.59 
   0  -1   2 2317.57  143.19 
   0  -1  -2 2228.18  143.19 
   0   1   2 2391.86  144.39 
   0   1  -2 2532.25  143.59 
  -1  -1  -2 1596.94  101.89 
   1  -1   2 1433.06  100.99 
   1  -1   2 1716.73  100.99 
  -1  -1  -2 1781.82  100.99 
  -1   1  -2 1741.03  101.59 
  -1   1  -2 1583.24  100.89 
   1   1   2 1707.63  101.49 
   1   1   2 1528.55  102.19 
  -2  -1  -2 1251.77   76.09 
  -2  -1  -2 1291.87   74.89 
  -2   1  -2 1247.88   75.79 
  -2   1  -2 1162.48   76.79 
   2   1   2 1110.99   78.09 
  -3  -1  -2   87.29   10.80 
  -3  -1  -2   99.29    9.00 
  -3  -1  -2  107.39    7.90 
  -3   1  -2  107.99    8.60 
  -3   1  -2   88.29   10.00 
  -3   1  -2   96.09    9.50 
  -4  -1  -2   63.39    7.90 
  -4  -1  -2   69.29   10.90 
  -4  -1  -2   71.29    7.10 
  -4   1  -2   67.79    9.70 
  -4   1  -2   65.59    7.30 
  -4   1  -2   65.99    8.50 
   5  -1   2  317.27   23.70 
   5  -1   2  284.57   23.80 
  -5  -1  -2  258.87   21.70 
  -5  -1  -2  280.87   20.10 
   5  -1   2  275.87   20.90 
   5  -1   2  328.67   21.70 
   5   1   2  289.67   21.70 
  -5   1  -2  294.57   19.90 
   5   1   2  290.77   24.10 
   5   1   2  272.97   23.50 
   5   1   2  294.97   21.10 
  -5   1  -2  298.97   21.40 
  -5   1  -2  254.17   22.20 
   5   1   2  313.87   22.10 
   6  -1   2   72.89   10.70 
   6  -1   2   50.09    8.70 
  -6  -1  -2   61.69    6.20 
  -6  -1  -2   61.29    6.60 
   6  -1   2   56.79    7.10 
   6  -1   2   72.79    8.00 
  -6  -1  -2   52.79    7.80 
   6   1   2   76.69    7.90 
   6   1   2   64.09    9.20 
  -6   1  -2   63.59    7.40 
   6   1   2   68.59    7.30 
  -6   1  -2   73.19   10.20 
  -6   1  -2   70.79    6.10 
   7  -1   2   17.70    2.70 
  -7  -1  -2   18.30    2.60 
   7  -1   2   10.00    3.20 
  -7   1  -2   18.90    2.20 
   7   1   2   19.60    3.20 
   7   1   2   26.80    5.50 
   7   1   2   16.00    2.80 
  -7  -2   2   35.30    4.10 
   7  -2  -2   20.30    5.50 
   7   2  -2   28.10    4.50 
  -7   2   2   33.70    3.40 
   7   2  -2   33.90    4.80 
  -7   2   2   27.60    4.20 
   7   2  -2   37.20    4.90 
   6  -2  -2   57.39    7.10 
   6  -2  -2   67.39   10.20 
  -6  -2   2   61.49    6.80 
  -6  -2   2   61.99    9.50 
   6  -2  -2   60.79    6.80 
   6  -2  -2   64.99    7.70 
  -6   2   2   48.30    6.80 
  -6   2   2   64.99   13.30 
   6   2  -2   65.19    7.40 
  -6   2   2   63.69    7.20 
   6   2  -2   64.79    7.90 
  -6   2   2   65.19    6.10 
   6   2  -2   58.59    7.70 
   6   2  -2   49.70    9.80 
   5  -2  -2   38.00    5.60 
  -5  -2   2   37.30    5.50 
   5  -2  -2   32.10    7.30 
   5  -2  -2   31.40    5.60 
   5   2  -2   46.10    5.80 
  -5   2   2   42.00    5.50 
  -5   2   2   38.50    4.50 
   5   2  -2   40.90    8.40 
  -5   2   2   34.40    5.00 
   5   2  -2   29.40    5.70 
   5   2  -2   27.70    5.50 
  -4  -2   2  359.06   22.30 
  -4  -2   2  323.67   27.80 
  -4   2   2  322.57   22.90 
  -4   2   2  337.87   26.30 
  -4   2   2  319.97   23.10 
  -3  -2   2   25.80    3.20 
  -3  -2   2   39.10    3.30 
  -3  -2   2   30.40    5.30 
  -3  -2   2   32.80    2.70 
  -3   2   2   28.20    4.50 
  -3   2   2   31.80    3.50 
  -2  -2   2 1142.29   75.99 
  -2  -2   2 1267.17   75.89 
   2  -2  -2 1239.58   76.69 
  -2  -2   2 1164.48   78.29 
   2  -2  -2 1207.28   76.29 
  -2   2   2 1379.86   77.79 
  -2   2   2 1200.88   76.59 
   1  -2  -2 1328.57   80.79 
  -1  -2   2 1189.28   80.59 
  -1  -2   2 1261.27   80.19 
   1  -2  -2 1277.77   79.89 
  -1   2   2 1320.27   80.59 
   1   2  -2 1406.46   80.49 
   0  -2  -2 3524.55  231.38 
   0  -2  -2 3442.46  230.78 
   0   2  -2 3794.72  231.28 
   0   2   2 4333.77  232.58 
  -1  -2  -2  327.77   20.20 
   1  -2   2  319.97   21.00 
   1   2   2  323.87   25.80 
  -1   2  -2  356.86   20.60 
  -1   2  -2  275.87   20.60 
  -1   2  -2  365.46   24.50 
  -2  -2  -2  147.29    9.30 
   2  -2   2  133.39   10.00 
  -2  -2  -2  142.09   10.50 
   2   2   2  133.59   12.70 
  -2   2  -2  138.79   10.40 
  -2   2  -2  121.29   10.70 
  -2   2  -2  148.39   11.80 
  -3  -2  -2  353.66   21.60 
  -3   2  -2  306.27   24.60 
   3   2   2  292.07   26.30 
  -3   2  -2  346.07   23.00 
  -3   2  -2  339.97   24.90 
  -4  -2  -2  289.57   23.60 
   4  -2   2  318.87   26.00 
   4   2   2  378.36   25.90 
  -4   2  -2  327.57   21.20 
   4   2   2  316.87   23.00 
  -4   2  -2  284.17   25.70 
  -4   2  -2  277.27   25.80 
   4   2   2  340.27   23.30 
  -4   2  -2  304.47   23.10 
  -4   2  -2  326.97   26.40 
   5  -2   2   86.69    8.50 
  -5  -2  -2   83.19    9.00 
   5  -2   2   89.29   10.70 
   5  -2   2  113.19   10.70 
  -5   2  -2   98.09    9.20 
   5   2   2   99.99    9.50 
   5   2   2   85.69    9.20 
   5   2   2   92.69   11.00 
   5   2   2   79.49   10.10 
  -5   2  -2   87.09    7.50 
  -6  -2  -2  170.88   12.00 
   6  -2   2  168.18   14.80 
  -6  -2  -2  146.59   13.60 
   6  -2   2  152.38   12.40 
  -6   2  -2  157.58   13.50 
   6   2   2  137.49   17.80 
   6   2   2  172.98   15.00 
   6   2   2  157.68   16.10 
   6   2   2  140.19   15.30 
   7  -2   2    5.50    2.50 
  -7  -2  -2    6.20    1.40 
   7  -2   2   14.60    3.60 
   7   2   2    3.80    2.60 
   7   2   2    6.20    2.00 
  -7   2  -2    6.20    1.80 
   7   2   2    4.30    1.60 
  -7  -3   2    1.80    1.40 
   7  -3  -2   -2.70    1.80 
   7   3  -2    1.40    1.30 
  -7   3   2    1.20    1.60 
   7   3  -2    2.80    2.10 
   7   3  -2    2.00    1.50 
  -7   3   2    2.70    3.20 
   7   3  -2    2.60    2.40 
  -6  -3   2   99.79    9.10 
   6  -3  -2  114.29   13.20 
   6   3  -2  104.69   10.80 
   6   3  -2  102.39    9.90 
  -6   3   2  103.59   10.10 
   6   3  -2   97.69   10.40 
   6   3  -2   96.89   12.00 
  -6   3   2  105.29    8.20 
  -6   3   2  105.59   10.30 
  -5  -3   2  111.69    9.30 
   5  -3  -2  129.69   13.70 
   5  -3  -2  117.79   10.90 
   5   3  -2  105.39   10.80 
   5   3  -2  109.19   10.50 
   5   3  -2   93.79   12.30 
   5   3  -2  107.89   11.00 
  -5   3   2  118.89   10.90 
  -5   3   2  102.29   10.30 
  -5   3   2  106.79    8.70 
  -4  -3   2  363.06   30.80 
  -4  -3   2  368.66   23.80 
  -4   3   2  376.76   30.40 
  -4   3   2  319.57   24.70 
  -4   3   2  398.36   28.60 
  -3  -3   2 1328.87   76.89 
  -3  -3   2 1206.38   79.29 
   3  -3  -2 1146.39   74.49 
  -3   3   2 1124.69   74.59 
  -3   3   2 1175.38   76.19 
  -2  -3   2  951.00   61.19 
   2  -3  -2 1006.60   61.09 
  -2  -3   2  961.10   63.39 
  -2   3   2  986.80   62.29 
   1  -3  -2 1916.31  113.29 
  -1  -3   2 1693.63  113.99 
   1  -3  -2 1903.31  115.19 
  -1  -3   2 1814.12  114.59 
  -1   3   2 1852.31  114.59 
   1   3  -2 1951.30  114.49 
  -1   3   2 1760.22  115.19 
   0  -3   2 1313.77   84.69 
   0  -3  -2 1290.87   84.69 
   0   3   2 1441.86   87.39 
   0   3  -2 1363.76   86.59 
   0   3   2 1497.05   86.69 
   1  -3   2  669.73   41.10 
  -1  -3  -2  674.43   41.90 
   1   3   2  597.44   43.50 
  -1   3  -2  660.83   42.90 
  -2  -3  -2  712.43   43.50 
  -2  -3  -2  757.12   45.80 
  -2   3  -2  690.83   44.40 
  -2   3  -2  711.33   44.70 
  -2   3  -2  723.33   47.50 
   2   3   2  652.93   48.70 
  -3  -3  -2  221.68   17.20 
  -3   3  -2  230.88   17.60 
   3   3   2  213.28   20.90 
  -3   3  -2  243.68   19.40 
   4  -3   2   46.80    8.00 
  -4  -3  -2   40.40    6.50 
   4  -3   2   53.09    8.70 
  -4  -3  -2   45.40    5.20 
   4   3   2   59.19    7.80 
  -4   3  -2   44.80    7.50 
   4   3   2   57.79    9.50 
   4   3   2   51.79    6.40 
  -5  -3  -2  269.97   22.30 
   5  -3   2  344.87   24.90 
   5  -3   2  302.17   24.90 
   5   3   2  349.37   25.50 
   5   3   2  320.17   23.40 
  -5   3  -2  273.27   20.30 
   5   3   2  328.67   25.80 
   5   3   2  314.67   23.40 
  -5   3  -2  325.97   23.20 
  -6  -3  -2   36.60    7.60 
  -6  -3  -2   46.60    5.20 
   6  -3   2   56.59    7.60 
   6   3   2   49.60    6.20 
   6   3   2   38.30    6.90 
   6   3   2   42.20    7.40 
  -6   3  -2   43.50    3.80 
  -6   3  -2   49.00    6.00 
   6   3   2   48.90    6.10 
   7  -3   2   -2.50    3.80 
   7  -3   2    3.10    1.80 
  -7  -3  -2   10.10    1.90 
  -7   3  -2    6.00    1.60 
   7   3   2    8.90    2.20 
   7   3   2    7.60    2.70 
   7   3   2    5.00    1.60 
   7  -4  -2   -1.40    2.40 
  -7  -4   2    1.30    1.50 
   7   4  -2    1.30    1.30 
  -7   4   2    2.30    1.60 
   7   4  -2    3.00    2.20 
  -7   4   2    3.20    2.90 
   7   4  -2    2.00    1.60 
   6  -4  -2   15.50    7.10 
  -6  -4   2   21.50    3.70 
   6   4  -2   12.50    3.80 
  -6   4   2   15.10    4.40 
   6   4  -2   13.40    3.50 
  -6   4   2   20.00    4.30 
   6   4  -2   13.70    4.50 
   6   4  -2   24.90    5.50 
   5  -4  -2   60.89    9.60 
   5  -4  -2   48.00    9.10 
  -5  -4   2   76.39    6.60 
   5   4  -2   80.89   10.00 
   5   4  -2   56.19   10.00 
  -5   4   2   69.89    8.30 
  -5   4   2   80.29    5.90 
  -5   4   2   77.69    8.10 
   5   4  -2   63.49    8.00 
   5   4  -2   67.59    8.20 
  -4  -4   2  439.86   28.10 
   4  -4  -2  475.75   35.20 
  -4   4   2  451.95   31.50 
  -4   4   2  440.86   28.90 
   4   4  -2  423.86   31.20 
  -4   4   2  490.75   33.20 
   4   4  -2  385.86   31.20 
   4   4  -2  431.56   30.90 
  -3  -4   2  336.57   27.50 
  -3  -4   2  367.36   24.10 
   3  -4  -2  344.97   23.50 
  -3   4   2  341.57   25.50 
   2  -4  -2  315.07   19.60 
  -2  -4   2  287.17   21.70 
  -2  -4   2  282.07   20.00 
  -2   4   2  307.67   21.40 
  -2   4   2  245.88   21.00 
   1  -4  -2  643.04   38.80 
  -1  -4   2  541.85   39.20 
   1   4  -2  617.94   40.60 
  -1   4   2  643.84   40.90 
   0  -4  -2  308.87   20.90 
   0  -4   2  330.67   21.00 
   0   4   2  313.77   23.60 
   0   4  -2  320.77   23.40 
   0   4   2  370.56   23.70 
  -1  -4  -2   22.20    2.30 
   1  -4   2   25.60    3.00 
  -1  -4  -2   23.80    3.60 
   1   4   2   28.40    4.50 
  -1   4  -2   24.50    4.10 
  -2  -4  -2  267.37   18.40 
   2  -4   2  274.67   17.90 
  -2  -4  -2  247.28   15.70 
   2   4   2  222.48   21.00 
  -2   4  -2  237.78   20.00 
  -3  -4  -2  184.88   19.80 
  -3  -4  -2  190.28   15.90 
  -3  -4  -2  211.78   13.30 
  -3   4  -2  210.28   18.90 
   4  -4   2  246.68   20.70 
   4  -4   2  268.57   21.60 
  -4  -4  -2  257.17   18.50 
  -4   4  -2  267.57   20.50 
   4   4   2  253.17   19.90 
   4   4   2  264.27   20.20 
  -4   4  -2  268.77   20.40 
   4   4   2  285.07   22.90 
   4   4   2  268.17   21.60 
  -5  -4  -2   35.00    5.90 
   5  -4   2   36.10    7.50 
   5  -4   2   29.30    6.10 
  -5   4  -2   33.80    6.40 
   5   4   2   36.20    5.40 
   5   4   2   36.20    5.30 
   5   4   2   39.70    6.90 
  -5   4  -2   30.50    5.50 
   6  -4   2   16.00    4.00 
   6  -4   2    4.80    3.00 
  -6  -4  -2   12.60    2.30 
   6   4   2    9.90    4.30 
  -6   4  -2    9.40    3.00 
   6   4   2    6.10    2.00 
   6   4   2    8.40    3.30 
   6   4   2    9.30    2.80 
   7  -4   2   10.70    2.60 
  -7  -4  -2   17.70    2.10 
   7   4   2   13.80    2.50 
   7   4   2   14.30    3.30 
   7   4   2   11.60    2.20 
  -7   4  -2   14.00    2.30 
   7   5  -2   11.80    2.30 
   7   5  -2   12.90    2.80 
  -7   5   2    9.50    3.70 
   6  -5  -2    1.90    2.90 
  -6  -5   2    4.40    3.70 
   6   5  -2    1.00    1.40 
  -6   5   2    3.60    2.40 
   6   5  -2    1.00    2.70 
   6   5  -2    2.10    1.70 
   6   5  -2   -0.80    3.90 
  -6   5   2    3.10    2.20 
   5  -5  -2  109.99   12.40 
   5  -5  -2   83.59   10.80 
  -5   5   2  104.99   10.50 
   5   5  -2   87.79    9.50 
   5   5  -2  103.89   10.50 
   5   5  -2  103.09    9.90 
   5   5  -2  102.99   10.20 
  -5   5   2  102.69   10.50 
   4  -5  -2  469.05   29.30 
   4  -5  -2  459.95   33.60 
   4   5  -2  468.35   32.50 
   4   5  -2  459.95   31.80 
   4   5  -2  431.76   31.40 
   4   5  -2  386.96   31.10 
  -4   5   2  458.35   31.80 
  -4   5   2  453.55   31.00 
  -4   5   2  447.56   32.50 
   4   5  -2  416.16   31.10 
   3  -5  -2  333.97   24.50 
   3  -5  -2  391.46   27.60 
   3  -5  -2  343.57   24.40 
  -3  -5   2  334.27   28.60 
  -3  -5   2  374.16   25.60 
  -3   5   2  390.46   27.10 
  -2  -5   2  313.37   24.70 
  -2  -5   2  314.97   23.60 
   2  -5  -2  374.86   24.20 
  -2   5   2  337.47   25.30 
  -1  -5   2   67.89    6.40 
  -1  -5   2   72.39    5.00 
   1  -5  -2   78.69    6.40 
  -1   5   2   80.49    8.40 
  -1   5   2   78.99    8.00 
   1   5  -2   71.19    8.00 
   0  -5  -2  297.97   19.70 
   0  -5   2  324.27   19.90 
   0   5   2  275.67   22.40 
   0   5  -2  279.57   22.60 
   0   5   2  321.27   22.80 
  -1  -5  -2  581.44   37.90 
  -1  -5  -2  553.44   34.80 
  -1   5  -2  533.45   39.10 
  -2  -5  -2   28.10    4.50 
   2  -5   2   29.10    4.10 
   2   5   2   22.20    5.70 
   3  -5   2   54.49    6.80 
   3  -5   2   66.99    5.80 
   3  -5   2   62.39    7.90 
  -3  -5  -2   55.89    4.50 
  -3   5  -2   56.69    7.50 
  -3   5  -2   55.79    6.40 
  -3   5  -2   58.39    6.70 
   3   5   2   58.89    8.20 
   3   5   2   53.49    6.60 
  -3   5  -2   60.49    8.10 
   3   5   2   75.29    8.50 
   3   5   2   50.29    7.70 
   4  -5   2   24.20    3.70 
  -4  -5  -2   38.90    4.10 
   4  -5   2   33.50    6.40 
   4  -5   2   35.30    6.50 
   4   5   2   47.90    6.20 
   4   5   2   33.80    5.40 
   4   5   2   32.60    4.90 
   4   5   2   29.80    8.50 
  -4   5  -2   34.10    5.50 
  -4   5  -2   31.30    5.80 
  -5  -5  -2   26.10    4.60 
   5  -5   2   29.10    5.90 
   5  -5   2   26.20    5.40 
  -5   5  -2   18.00    5.60 
  -5   5  -2   28.20    5.10 
   5   5   2   23.90    4.50 
   5   5   2   37.00    4.60 
   5   5   2   25.60    5.90 
   5   5   2   14.30    7.50 
   6  -5   2    4.50    2.80 
   6  -5   2    1.60    1.80 
  -6   5  -2    0.10    1.70 
   6   5   2    0.80    2.50 
   6   5   2    0.90    1.80 
   6   5   2    3.30    1.70 
   6  -6  -2   12.30    4.10 
  -6   6   2   16.70    4.50 
   6   6  -2   17.10    3.40 
   6   6  -2   18.70    4.00 
   5  -6  -2    0.20    3.00 
  -5  -6   2    6.30    2.00 
   5  -6  -2    0.80    2.90 
  -5   6   2    2.80    3.80 
   5   6  -2    2.30    2.80 
  -5   6   2    1.10    2.40 
   5   6  -2    2.80    2.50 
   5   6  -2    5.00    2.30 
   4  -6  -2    2.90    2.70 
   4  -6  -2    1.90    1.60 
  -4   6   2    1.40    2.20 
  -4   6   2    4.20    2.70 
  -4   6   2   -0.50    1.50 
   4   6  -2    6.00    3.30 
   4   6  -2    3.60    2.30 
   3  -6  -2   10.50    2.40 
   3  -6  -2   20.30    4.90 
  -3   6   2   13.40    4.40 
  -3   6   2   14.50    3.40 
  -3   6   2   16.30    5.40 
  -3   6   2   11.70    4.50 
   3   6  -2   11.30    3.80 
   3   6  -2   10.30    3.60 
   3   6  -2    5.60    3.40 
  -2  -6   2   48.10    6.70 
   2  -6  -2   47.60    5.30 
  -2   6   2   46.00    6.60 
  -2   6   2   60.39    7.80 
  -2   6   2   46.80    6.20 
  -1  -6   2  238.08   16.10 
   1  -6  -2  241.38   17.20 
  -1   6   2  242.58   20.40 
   1   6  -2  258.57   21.00 
   0  -6   2  343.57   21.10 
   0  -6  -2  298.57   23.40 
   0  -6  -2  312.37   20.80 
   0   6   2  278.77   23.60 
   1  -6   2  137.99   10.80 
  -1  -6  -2  133.09    9.40 
  -1  -6  -2  137.89   12.40 
  -1   6  -2  108.49   13.20 
   1   6   2  130.09   13.40 
   2  -6   2    3.60    1.90 
  -2  -6  -2    1.90    0.70 
   2  -6   2    1.10    1.40 
   2   6   2    1.90    2.30 
  -2   6  -2    0.40    2.90 
   2   6   2   -4.30    2.80 
   2   6   2    1.10    2.40 
  -2   6  -2    4.60    2.00 
  -3  -6  -2  245.48   16.20 
   3  -6   2  265.77   17.60 
   3  -6   2  243.38   20.00 
   3   6   2  253.17   20.50 
  -3   6  -2  248.98   20.20 
  -3   6  -2  252.57   20.50 
  -3   6  -2  262.27   19.20 
   3   6   2  235.28   20.40 
  -3   6  -2  244.68   18.80 
   3   6   2  227.18   20.50 
   3   6   2  246.78   18.60 
   4  -6   2   53.19    4.90 
   4  -6   2   69.09    8.10 
   4  -6   2   52.69    7.90 
  -4   6  -2   49.40    7.20 
   4   6   2   54.49    6.10 
   4   6   2   52.69    7.80 
   4   6   2   63.49    7.90 
   4   6   2   55.29    6.40 
  -4   6  -2   64.09    8.00 
  -4   6  -2   48.30    6.40 
   4   6   2   40.20    7.90 
   5  -6   2   66.19    8.20 
  -5  -6  -2   68.69    7.30 
   5  -6   2   74.09    8.70 
  -5   6  -2   76.09    8.10 
   5   6   2   79.79    7.30 
  -5   6  -2   73.99    8.30 
   5   6   2   75.49    8.50 
   5   6   2   63.49    8.60 
   5   6   2   78.09    7.40 
   6  -6   2    2.90    2.20 
   6  -6   2    2.10    1.30 
   6   6   2    3.60    1.80 
   6   6   2    3.10    1.30 
  -6   6  -2    1.30    1.30 
   6   6   2    1.10    1.30 
   6  -7  -2    9.20    2.70 
   6   7  -2    9.00    2.00 
  -6   7   2    8.70    2.30 
  -6   7   2    6.90    2.50 
   6   7  -2    7.00    1.90 
   5  -7  -2   18.60    5.20 
  -5   7   2   22.40    4.70 
  -5   7   2   29.90    5.10 
   5   7  -2   21.90    4.40 
   5   7  -2   25.40    4.50 
   4  -7  -2   28.80    4.00 
   4  -7  -2   17.70    4.80 
  -4   7   2   26.30    5.70 
  -4   7   2   29.50    6.70 
  -4   7   2   31.50    4.80 
   4   7  -2   19.90    4.30 
   3  -7  -2    1.30    1.90 
   3  -7  -2    4.20    1.70 
   3  -7  -2    6.10    2.80 
  -3   7   2    3.70    2.10 
  -3   7   2    8.90    2.80 
   3   7  -2    7.50    4.40 
   3   7  -2    4.60    5.80 
  -3   7   2    4.30    2.50 
   2  -7  -2   49.10    5.50 
   2  -7  -2   34.40    5.60 
   2   7  -2   43.70    7.70 
   2   7  -2   54.39    7.10 
  -2   7   2   33.70    6.20 
  -2   7   2   53.69    7.40 
   2   7  -2   48.00    7.00 
  -2   7   2   46.00    6.30 
  -2   7   2   36.20    8.50 
   2   7  -2   58.29    6.90 
  -2   7   2   47.00    6.10 
   1  -7  -2  205.28   16.20 
  -1  -7   2  211.68   14.70 
  -1   7   2  202.78   16.70 
   1   7  -2  218.18   18.30 
  -1   7   2  213.88   17.00 
  -1   7   2  185.68   17.60 
   1   7  -2  200.08   16.30 
  -1   7   2  242.28   19.60 
   1   7  -2  206.68   17.70 
   0  -7   2    3.50    1.50 
   0  -7  -2    5.00    1.70 
   0   7   2   11.00    4.20 
   0   7  -2    2.60    2.30 
   0   7   2    3.00    2.20 
   0   7   2    9.00    3.00 
   0   7   2    5.10    2.70 
   0   7  -2    6.30    2.40 
   0   7  -2    8.40    3.30 
   1  -7   2   49.30    6.00 
   1   7   2   43.40    6.70 
  -1   7  -2   51.89    8.20 
   1   7   2   38.40    7.10 
  -1   7  -2   49.50    6.10 
  -1   7  -2   42.60    6.70 
   1   7   2   58.79    7.00 
  -1   7  -2   45.90    7.20 
  -2  -7  -2   34.40    3.60 
   2  -7   2   37.90    4.80 
   2  -7   2   29.40    5.90 
   2  -7   2   40.40    5.40 
   2   7   2   37.50    5.90 
   2   7   2   30.10    5.90 
  -2   7  -2   32.50    6.20 
  -2   7  -2   32.90    5.00 
  -2   7  -2   35.20    6.50 
  -2   7  -2   43.00    5.80 
   2   7   2   40.30    6.50 
   3  -7   2   45.40    7.90 
   3  -7   2   46.40    6.80 
   3  -7   2   58.79    5.40 
  -3  -7  -2   51.09    4.20 
   3   7   2   47.20    7.00 
  -3   7  -2   49.20    6.10 
  -3   7  -2   47.30    6.20 
   3   7   2   32.40    6.70 
   3   7   2   35.00    5.40 
  -3   7  -2   45.10    7.30 
   3   7   2   55.69    7.20 
  -3   7  -2   45.70    7.30 
   4  -7   2   26.40    5.80 
   4  -7   2   17.90    2.80 
   4  -7   2   13.60    4.10 
  -4  -7  -2   20.70    3.30 
  -4   7  -2   15.10    4.30 
   4   7   2   13.70    4.20 
  -4   7  -2   13.90    3.40 
   4   7   2   12.70    4.10 
  -4   7  -2   19.60    4.40 
   4   7   2   22.90    5.00 
   5  -7   2    8.40    3.20 
   5  -7   2    4.00    2.60 
  -5   7  -2   15.60    3.50 
  -5   7  -2   12.00    3.50 
   5   7   2   11.70    2.60 
   5   7   2    7.70    2.90 
   5  -8  -2    5.40    2.60 
   5  -8  -2    2.00    2.30 
  -5   8   2    2.10    1.80 
  -5   8   2    0.40    1.80 
   4  -8  -2   51.39    4.70 
   4  -8  -2   36.60    6.70 
  -4   8   2   39.70    5.50 
  -4   8   2   43.10    6.80 
   3  -8  -2   24.70    4.50 
   3  -8  -2   30.70    4.80 
   3  -8  -2   39.70    6.30 
  -3   8   2   37.30    5.70 
  -3   8   2   33.10    6.40 
   3   8  -2   33.10    6.60 
  -3   8   2   24.10    6.70 
   3   8  -2   34.00    7.10 
  -3   8   2   40.90    5.70 
  -2  -8   2  108.99    8.50 
   2  -8  -2  118.09   10.10 
   2   8  -2   98.89   11.30 
   2   8  -2  123.19   10.70 
  -2   8   2  125.09   13.40 
   2   8  -2  106.59   11.20 
  -2   8   2  126.39   11.20 
  -2   8   2  118.29   11.20 
  -2   8   2  111.89   11.40 
   2   8  -2  122.59   11.90 
   1  -8  -2   30.90    6.60 
   1  -8  -2   23.30    3.70 
  -1  -8   2   27.30    3.40 
  -1   8   2   18.10    4.50 
   1   8  -2   17.70    4.40 
   1   8  -2   25.50    5.60 
  -1   8   2   23.50    5.20 
   1   8  -2   23.70    4.30 
  -1   8   2   24.10    4.50 
  -1   8   2   28.20    4.90 
   0  -8   2   32.60    4.50 
   0  -8  -2   33.00    4.20 
   0   8  -2   35.10    5.20 
   0   8   2   37.60    6.80 
   0   8   2   34.90    5.20 
   0   8   2   33.50    7.40 
   0   8  -2   28.50    5.80 
   0   8  -2   33.30    6.30 
   0   8   2   27.40    8.80 
   1  -8   2  270.17   20.50 
  -1  -8  -2  274.47   18.70 
   1  -8   2  249.08   19.10 
  -1   8  -2  268.57   20.50 
  -1   8  -2  281.07   23.00 
   1   8   2  249.97   22.40 
  -1   8  -2  282.37   21.80 
   1   8   2  279.07   21.40 
  -1   8  -2  280.67   22.80 
   1   8   2  272.67   21.70 
  -2  -8  -2   32.80    4.60 
   2  -8   2   31.00    5.60 
   2  -8   2   25.00    4.40 
  -2   8  -2   33.50    6.30 
  -2   8  -2   33.70    5.30 
   2   8   2   29.10    6.00 
  -2   8  -2   33.10    5.10 
   2   8   2   27.50    5.60 
  -2   8  -2   32.60    6.90 
   2   8   2   19.40    5.60 
  -3  -8  -2   81.59    6.80 
   3  -8   2   72.89    8.90 
  -3   8  -2   95.39   10.30 
   3   8   2   77.89    9.70 
  -3   8  -2  100.59   10.30 
  -3   8  -2  114.49   11.90 
   3   8   2   72.89    9.50 
   3   8   2  105.39   10.40 
  -3   8  -2   96.19    9.10 
   4  -8   2    6.40    2.60 
   4  -8   2    9.90    3.20 
  -4   8  -2   14.90    3.80 
  -4   8  -2   12.30    3.50 
  -4   8  -2   12.60    2.80 
   4   8   2   18.80    4.90 
   5  -8   2    0.40    1.20 
   5   8   2    3.20    2.00 
  -5   8  -2   -0.20    1.50 
  -5   8  -2    0.10    1.10 
   4  -9  -2    9.60    2.80 
   4  -9  -2    6.20    2.50 
  -4   9   2   10.80    3.70 
   3  -9  -2   32.00    4.20 
   3  -9  -2   27.50    4.90 
  -3   9   2   36.40    4.50 
  -3   9   2   30.50    6.40 
   3   9  -2   24.70    4.60 
   3   9  -2   19.40    4.90 
  -3   9   2   25.00    4.50 
  -2  -9   2   20.00    3.30 
   2  -9  -2   24.50    4.50 
   2  -9  -2   25.50    5.00 
   2   9  -2   16.60    4.20 
  -2   9   2   17.40    4.80 
   2   9  -2   20.30    3.70 
  -2   9   2   23.20    4.50 
   2   9  -2   13.50    3.60 
  -2   9   2   25.00    4.70 
  -1  -9   2   30.40    4.10 
   1  -9  -2   32.00    4.20 
   1   9  -2   30.30    5.90 
  -1   9   2   27.10    5.20 
  -1   9   2   32.40    5.10 
   1   9  -2   34.60    5.70 
   1   9  -2   25.30    5.40 
  -1   9   2   34.10    6.00 
   1   9  -2   38.20    6.20 
   0  -9  -2   61.49    5.90 
   0  -9   2   60.19    6.40 
   0   9   2   49.20    7.70 
   0   9  -2   50.79    7.40 
   0   9   2   52.49    7.20 
   0   9   2   44.20    9.90 
   0   9   2   61.49    7.60 
   0   9  -2   66.99    7.20 
   0   9  -2   75.59    9.20 
   1  -9   2   20.80    4.20 
   1  -9   2   19.10    3.80 
  -1  -9  -2   18.50    3.00 
   1   9   2   20.40    5.90 
  -1   9  -2   18.10    5.00 
   1   9   2   12.00    3.80 
  -1   9  -2   24.50    5.30 
   1   9   2   22.40    4.90 
  -1   9  -2   15.50    5.30 
  -2  -9  -2   32.60    3.70 
   2  -9   2   37.70    4.70 
   2   9   2   32.90    5.70 
   2   9   2   32.30    6.20 
  -2   9  -2   39.00    5.40 
  -2   9  -2   33.00    6.30 
  -2   9  -2   41.00    5.60 
   3  -9   2    2.50    1.80 
   3  -9   2    3.70    1.30 
  -3   9  -2   -0.80    2.10 
  -3   9  -2    5.00    2.60 
   3   9   2    9.50    3.30 
  -3   9  -2    3.20    2.10 
   3   9   2   -0.30    2.30 
   3   9   2    6.60    2.80 
   4  -9   2   18.80    3.60 
  -4   9  -2   17.60    4.00 
   4   9   2   22.80    4.00 
   4   9   2   13.90    3.10 
   3 -10  -2    3.00    1.20 
  -3  10   2    1.10    1.50 
  -3  10   2    3.40    1.40 
  -3  10   2    3.30    2.20 
   2 -10  -2    8.00    2.50 
   2 -10  -2   10.60    2.40 
  -2  10   2    9.20    4.10 
   2  10  -2    9.00    2.50 
  -2  10   2    6.60    2.20 
   2  10  -2   13.60    3.10 
   2  10  -2   12.50    2.40 
  -2  10   2   10.80    3.00 
   1 -10  -2    4.50    2.20 
   1 -10  -2    0.50    1.60 
  -1  10   2    2.80    1.80 
  -1  10   2    4.80    2.20 
   1  10  -2    0.60    1.90 
   1  10  -2    5.20    2.30 
  -1  10   2    9.40    4.50 
   1  10  -2    4.10    2.50 
   0 -10  -2   16.50    4.00 
   0 -10   2   14.60    2.80 
   0  10  -2   13.90    3.60 
   0  10  -2   16.60    4.00 
   0  10   2   16.50    4.30 
   0  10  -2   14.50    3.10 
   0  10   2   14.40    3.30 
   0  10   2   17.90    4.60 
   1 -10   2   38.60    4.30 
  -1  10  -2   28.70    4.70 
   1  10   2   35.10    5.00 
   1  10   2   28.70    4.80 
  -1  10  -2   30.60    5.50 
   1  10   2   38.00    5.50 
  -1  10  -2   35.00    4.60 
   2 -10   2   -0.10    1.20 
  -2  10  -2    2.50    2.20 
   2  10   2   -0.10    1.60 
  -2  10  -2    1.40    1.30 
  -2  10  -2   -2.10    1.40 
  -2  10  -2    0.00    1.00 
   2  10   2    2.00    2.30 
   3 -10   2    9.20    2.30 
   3 -10   2   14.00    2.50 
   3  10   2    9.90    2.70 
  -3  10  -2   12.60    3.20 
  -3  10  -2   13.70    2.10 
   3  10   2    7.90    2.50 
   2 -11  -2    1.00    1.10 
  -2  11   2    1.40    1.30 
   2  11  -2    2.20    2.70 
  -2  11   2    1.20    1.20 
  -2  11   2    0.90    2.90 
  -1 -11   2    1.60    1.80 
   1 -11  -2    4.70    1.40 
  -1  11   2    0.90    1.50 
   1  11  -2    3.10    2.90 
   1  11  -2    1.70    1.40 
  -1  11   2    4.40    4.30 
   1  11  -2   -1.90    1.70 
  -1  11   2    0.20    1.10 
   0  11  -2    1.00    1.10 
   0  11  -2    2.80    1.30 
   0  11  -2    0.40    1.90 
   0  11   2    2.00    1.10 
   0  11   2    1.60    1.20 
   1 -11   2    0.10    0.80 
   1  11   2    1.10    1.30 
   1  11   2    1.20    1.10 
  -1  11  -2    1.70    1.90 
  -8   0   3    0.60    1.40 
   8   0  -3   -2.10    2.00 
  -8   0   3    2.80    1.50 
   8   0  -3    1.90    1.50 
   7   0  -3   22.90    4.00 
   7   0  -3   16.80    5.30 
  -7   0   3   29.80    3.80 
   7   0  -3   17.30    3.90 
   7   0  -3   24.30    4.90 
   6   0  -3   47.40    9.90 
  -6   0   3   61.59    6.60 
   6   0  -3   77.69    8.00 
   6   0  -3   63.59    7.70 
  -6   0   3   58.69    7.00 
   6   0  -3   57.79    7.30 
  -6   0   3   76.69    7.30 
   5   0  -3   18.70    4.50 
   5   0  -3   21.70    4.60 
  -5   0   3   19.60    3.50 
   5   0  -3   13.30    3.70 
   5   0  -3   24.40    4.80 
  -5   0   3   12.20    3.00 
  -4   0   3 2265.27  136.19 
  -4   0   3 2129.39  140.79 
  -3   0   3   70.59    8.10 
  -3   0   3   75.79    5.90 
  -2   0   3 1124.49   70.39 
  -2   0   3 1156.18   72.49 
   1   0  -3 8436.96  516.85 
  -1   0  -3  744.93   49.30 
  -1   0  -3  868.51   49.10 
  -1   0  -3  758.62   48.10 
   1   0   3  720.43   49.99 
  -2   0  -3 1778.72  103.99 
  -2   0  -3 1644.14  102.49 
   2   0   3 1551.64  105.49 
  -3   0  -3  106.09   10.30 
  -3   0  -3  103.89   11.90 
  -3   0  -3  112.09    9.30 
  -4   0  -3  268.57   27.70 
  -4   0  -3  289.37   25.10 
  -4   0  -3  295.87   23.20 
   4   0   3  375.46   23.40 
   4   0   3  364.96   25.50 
   5   0   3  178.08   20.60 
  -5   0  -3  180.38   13.80 
   5   0   3  177.38   16.60 
  -5   0  -3  170.98   13.50 
   5   0   3  202.48   16.30 
   5   0   3  169.78   14.10 
  -5   0  -3  148.19   14.90 
  -6   0  -3    9.50    2.60 
  -6   0  -3    2.10    5.30 
   6   0   3    4.70    2.00 
   6   0   3    8.20    3.20 
   6   0   3    4.20    3.70 
  -6   0  -3    7.80    2.20 
   6   0   3    4.40    2.20 
   7   0   3   -0.80    1.00 
   7   0   3   -2.60    2.80 
   7   0   3   -0.80    1.40 
   7   0   3    0.70    1.00 
  -7   0  -3    0.30    0.80 
   8  -1  -3    4.00    2.30 
  -8  -1   3    4.50    1.20 
   8   1  -3    2.90    1.30 
  -8   1   3    5.00    1.40 
   8   1  -3    5.00    1.60 
   7  -1  -3   -0.10    2.60 
  -7  -1   3    4.40    1.60 
   7  -1  -3    2.30    1.50 
   7  -1  -3    5.30    2.20 
   7   1  -3    3.50    1.90 
   7   1  -3    1.00    3.30 
  -7   1   3    3.20    2.00 
  -7   1   3    6.00    1.70 
   7   1  -3    4.00    2.30 
  -7   1   3    8.50    2.80 
   7   1  -3    1.50    1.60 
   6  -1  -3   22.90    4.50 
  -6  -1   3   21.50    3.70 
   6  -1  -3   21.80    4.90 
  -6  -1   3   13.10    3.60 
   6  -1  -3   14.00    3.20 
   6  -1  -3   11.70    4.80 
  -6  -1   3   12.10    3.00 
  -6   1   3   20.90    3.90 
   6   1  -3   20.20    5.30 
   6   1  -3   15.30    3.70 
  -6   1   3    9.20    3.00 
  -6   1   3   16.80    3.40 
   6   1  -3   23.20    4.20 
   6   1  -3   13.80    4.00 
   5  -1  -3  242.28   20.10 
  -5  -1   3  267.87   18.90 
   5  -1  -3  265.97   20.20 
  -5   1   3  245.48   18.40 
   5   1  -3  221.18   20.20 
   5   1  -3  243.68   20.30 
  -5   1   3  294.37   20.30 
  -5   1   3  271.47   19.10 
   5   1  -3  272.27   20.30 
   5   1  -3  261.37   19.70 
  -4  -1   3  204.68   19.50 
  -4  -1   3  210.78   15.20 
  -4   1   3  223.78   15.80 
  -4   1   3  219.88   19.10 
  -3  -1   3  128.39    9.00 
  -3  -1   3  119.69   11.80 
  -3   1   3  126.19    9.30 
  -3   1   3  124.99   11.50 
  -2  -1   3 2571.14  167.68 
   2  -1  -3 3055.59  167.88 
  -2  -1   3 2588.84  170.08 
  -2   1   3 2803.62  169.88 
  -2   1   3 2705.03  168.08 
   1  -1  -3 1407.66   90.49 
  -1  -1   3 1518.15   91.09 
   1  -1  -3 1594.44   92.79 
   1  -1  -3 1396.76   89.99 
  -1  -1   3 1536.25   89.89 
  -1  -1   3 1461.55   89.79 
   1   1  -3 1328.07   91.59 
   1   1  -3 1498.05   90.19 
   0  -1   3 2048.59  125.69 
   0  -1   3 2091.19  126.09 
   0  -1  -3 1987.00  126.09 
   0  -1   3 2189.88  126.59 
   0  -1  -3 2021.60  125.59 
   0   1   3 2033.00  127.79 
   0   1  -3 2052.29  126.69 
   0   1   3 1868.61  126.49 
   0   1  -3 2200.28  126.89 
   1  -1   3  350.26   23.50 
  -1  -1  -3  353.86   21.90 
   1  -1   3  347.47   22.30 
  -1  -1  -3  347.87   22.90 
  -1   1  -3  381.66   23.00 
  -1   1  -3  316.17   23.50 
  -1   1  -3  319.77   22.50 
  -2  -1  -3  621.74   36.00 
  -2  -1  -3  624.24   34.60 
   2  -1   3  510.85   37.00 
   2   1   3  543.85   38.60 
  -2   1  -3  490.85   35.20 
  -2   1  -3  468.25   36.30 
  -3  -1  -3  180.38   12.40 
  -3  -1  -3  180.68   13.70 
  -3   1  -3  171.28   13.10 
  -3   1  -3  142.59   14.20 
  -3   1  -3  148.19   15.00 
   3   1   3  165.78   16.70 
  -4  -1  -3  227.68   20.60 
   4  -1   3  290.57   21.00 
  -4  -1  -3  232.58   19.10 
   4  -1   3  290.97   21.50 
   4  -1   3  284.87   19.30 
  -4   1  -3  268.27   17.90 
   4   1   3  256.97   19.20 
   4   1   3  258.57   21.20 
   4   1   3  283.97   19.40 
  -4   1  -3  207.38   24.70 
   4   1   3  270.07   21.40 
  -4   1  -3  229.48   19.50 
  -5  -1  -3   72.49    7.50 
   5  -1   3   82.59   11.30 
   5  -1   3   60.49   10.30 
   5  -1   3   77.19    7.20 
  -5  -1  -3   62.49    7.90 
  -5   1  -3   54.89    8.90 
   5   1   3   72.79   10.60 
  -5   1  -3   78.29    7.60 
  -5   1  -3   63.89    7.70 
   5   1   3   80.49    8.60 
   5   1   3   60.69    9.70 
   5   1   3   60.19   10.80 
  -6  -1  -3   14.90    2.70 
   6  -1   3   17.70    4.30 
   6  -1   3   15.90    4.90 
   6  -1   3   19.20    3.30 
   6  -1   3   14.90    3.20 
  -6  -1  -3   27.70    5.00 
   6   1   3    8.90    3.90 
   6   1   3    9.40    4.00 
  -6   1  -3   15.60    3.00 
   6   1   3   15.90    3.70 
  -6   1  -3   18.10    3.60 
   6   1   3   26.20    4.50 
   7  -1   3    8.70    2.00 
   7  -1   3    5.40    2.60 
   7  -1   3    6.70    3.00 
  -7  -1  -3    7.20    1.40 
   7   1   3    7.20    2.50 
   7   1   3    5.80    1.70 
  -7   1  -3    7.40    1.40 
  -7   1  -3    7.00    3.50 
   7   1   3    7.50    1.80 
   7  -2  -3    3.00    3.10 
   7  -2  -3    1.00    2.10 
   7   2  -3    2.60    2.40 
   7   2  -3    2.40    1.70 
  -7   2   3    2.90    1.70 
   7   2  -3    3.80    1.70 
  -7   2   3    5.70    2.40 
   7   2  -3    1.50    3.20 
  -6  -2   3   47.40    6.00 
   6  -2  -3   49.99    7.00 
   6  -2  -3   40.60    6.10 
   6  -2  -3   50.89    6.10 
  -6  -2   3   40.20    7.10 
   6  -2  -3   61.99    9.50 
  -6   2   3   45.20    6.40 
   6   2  -3   49.60    6.90 
   6   2  -3   47.60    6.90 
   6   2  -3   48.00    6.60 
  -6   2   3   56.19    5.60 
   5  -2  -3   45.10    7.70 
   5  -2  -3   54.19   10.10 
   5  -2  -3   47.00    6.50 
  -5  -2   3   49.99    5.40 
  -5   2   3   50.69    5.90 
  -5   2   3   47.20    5.40 
   5   2  -3   44.90    6.40 
   5   2  -3   48.40    6.50 
   5   2  -3   31.40    7.80 
   5   2  -3   58.49    6.90 
   5   2  -3   46.60    6.40 
  -5   2   3   46.90    6.50 
  -4  -2   3  300.97   26.40 
  -4  -2   3  311.37   20.90 
  -4   2   3  319.57   21.60 
  -4   2   3  313.47   24.90 
   3  -2  -3  505.35   31.80 
  -3  -2   3  469.65   34.80 
  -3  -2   3  503.15   30.70 
  -3   2   3  445.86   31.30 
  -3   2   3  517.45   34.00 
  -3   2   3  473.95   31.30 
  -2  -2   3  149.88    9.80 
  -2  -2   3  153.78   10.20 
  -2  -2   3  150.88   12.50 
  -2  -2   3  154.38   10.30 
   2  -2  -3  159.48   10.60 
  -2   2   3  148.69   10.90 
  -2   2   3  158.58   10.60 
  -1  -2   3 1588.44   99.39 
  -1  -2   3 1634.74   97.99 
   1  -2  -3 1680.13   98.69 
   1  -2  -3 1573.24   99.69 
  -1  -2   3 1503.35   98.79 
   1   2  -3 1670.63   99.39 
  -1   2   3 1580.84   99.29 
   0  -2   3 1872.51  108.59 
   0  -2   3 1524.95  109.09 
   0  -2  -3 1789.42  108.49 
   0  -2   3 1942.91  110.59 
   0  -2  -3 1725.23  109.29 
   0   2  -3 1828.32  109.99 
   0   2   3 1709.13  111.29 
   1  -2   3  385.46   28.20 
  -1  -2  -3  465.45   27.50 
   1  -2   3  443.36   28.30 
  -1  -2  -3  456.45   28.80 
  -1   2  -3  467.65   30.20 
   1   2   3  431.66   31.20 
  -2  -2  -3  300.57   18.80 
  -2  -2  -3  289.27   20.30 
   2  -2   3  281.97   19.70 
  -2   2  -3  307.87   20.40 
  -2   2  -3  292.87   22.00 
  -2   2  -3  268.97   20.70 
   2   2   3  297.87   23.60 
  -2   2  -3  288.97   20.20 
  -3  -2  -3  701.93   39.10 
  -3  -2  -3  643.74   40.90 
  -3   2  -3  584.74   40.30 
   3   2   3  587.54   45.50 
  -3   2  -3  551.44   42.30 
  -3   2  -3  572.34   42.80 
   4  -2   3  585.24   37.80 
   4  -2   3  582.14   40.20 
   4  -2   3  599.74   42.30 
  -4   2  -3  560.04   37.50 
   4   2   3  546.45   42.00 
  -4   2  -3  597.14   38.30 
   4   2   3  596.04   42.50 
   4   2   3  462.15   39.70 
   5  -2   3   34.90    6.10 
  -5  -2  -3   38.70    5.00 
   5  -2   3   23.70    4.50 
   5  -2   3   29.40    6.60 
  -5  -2  -3   35.10    5.40 
   5   2   3   27.90    6.50 
   5   2   3   30.40    5.10 
   5   2   3   31.40    5.00 
  -5   2  -3   41.80    4.30 
   5   2   3   29.20    6.50 
  -5   2  -3   34.90    4.90 
   6  -2   3   54.99    6.60 
  -6  -2  -3   78.29    6.60 
  -6  -2  -3   78.19   10.10 
   6  -2   3   83.09    9.10 
   6  -2   3   72.79    9.30 
   6   2   3   65.29    8.90 
   6   2   3   61.29    8.80 
   6   2   3   82.29    8.10 
  -6   2  -3   71.69    5.80 
  -6   2  -3   64.69    7.50 
   6   2   3   77.99    7.70 
   7  -2   3    1.10    1.50 
   7  -2   3   -2.70    2.20 
  -7   2  -3    2.00    1.50 
   7   2   3    0.50    1.40 
   7   2   3    1.30    0.90 
   7   2   3    0.40    0.90 
  -7  -3   3    6.40    1.80 
   7   3  -3    5.80    2.60 
  -7   3   3    4.30    2.30 
  -7   3   3    3.90    2.60 
   7   3  -3    4.80    2.30 
   7   3  -3    4.60    2.50 
   7   3  -3    5.50    2.10 
  -6  -3   3  159.38   12.30 
   6  -3  -3  147.69   16.50 
   6   3  -3  144.99   14.00 
   6   3  -3  158.98   15.60 
  -6   3   3  161.18   13.60 
  -6   3   3  161.78   11.40 
   6   3  -3  137.29   13.30 
  -6   3   3  144.89   13.40 
   6   3  -3  157.18   14.10 
   5  -3  -3  137.09   14.20 
   5  -3  -3  119.19   11.40 
  -5  -3   3  134.59   10.00 
  -5   3   3  117.39   11.50 
   5   3  -3  103.79   11.20 
  -5   3   3  126.19    9.70 
   5   3  -3  117.99   11.20 
   5   3  -3  105.39   11.30 
   5   3  -3  101.79   10.80 
   5   3  -3  125.39   13.50 
  -4  -3   3  541.45   43.20 
  -4  -3   3  567.24   36.80 
  -4   3   3  662.83   42.30 
  -4   3   3  535.45   37.50 
  -3  -3   3  211.38   15.10 
  -3  -3   3  236.28   14.30 
  -3  -3   3  227.18   19.10 
   3  -3  -3  226.78   15.40 
  -3   3   3  222.78   15.40 
  -3   3   3  219.78   16.40 
  -2  -3   3  602.34   43.50 
  -2  -3   3  628.84   42.10 
   2  -3  -3  698.33   41.90 
  -2   3   3  632.24   42.70 
   2   3  -3  739.43   42.70 
  -1  -3   3  652.33   48.60 
  -1  -3   3  794.22   46.70 
  -1  -3   3  737.43   48.10 
   1  -3  -3  774.72   47.70 
  -1   3   3  845.72   50.89 
  -1   3   3  763.62   48.80 
   0  -3  -3 1182.48   76.39 
   0  -3   3 1279.07   76.49 
   0  -3  -3 1200.58   77.59 
   0   3   3 1323.57   80.39 
   0   3  -3 1215.48   78.49 
  -1  -3  -3  648.24   39.50 
   1  -3   3  634.04   40.50 
  -1  -3  -3  660.63   41.20 
   1   3   3  601.64   43.80 
   2  -3   3  472.85   31.70 
  -2  -3  -3  503.45   30.10 
  -2  -3  -3  492.95   32.20 
  -2   3  -3  467.25   34.30 
   2   3   3  457.25   35.80 
  -3  -3  -3   68.59    7.70 
  -3  -3  -3   82.29    6.20 
  -3   3  -3   71.99    9.80 
   3   3   3   72.09   13.90 
   4  -3   3   56.39    6.50 
   4  -3   3   53.59    7.70 
   4  -3   3   61.09    9.00 
   4  -3   3   55.39    7.50 
   4   3   3   59.99    7.00 
  -4   3  -3   55.19    6.80 
   4   3   3   66.79    6.90 
   4   3   3   47.00    7.60 
   4   3   3   62.89    8.70 
  -4   3  -3   46.90    4.90 
   5  -3   3   52.99    5.70 
   5  -3   3   51.59    7.70 
   5  -3   3   62.59    7.80 
  -5  -3  -3   60.89    6.60 
   5   3   3   52.89    6.60 
   5   3   3   62.69    7.00 
   5   3   3   57.09    8.30 
  -5   3  -3   58.59    6.50 
  -5   3  -3   50.29    4.60 
   5   3   3   53.79    7.80 
  -6  -3  -3    7.70    1.90 
  -6  -3  -3    6.20    3.40 
   6  -3   3    4.00    2.50 
   6  -3   3    5.90    2.80 
   6   3   3    7.40    2.40 
   6   3   3   15.10    4.00 
  -6   3  -3    2.10    2.20 
   6   3   3    6.90    2.20 
   6   3   3    2.80    2.90 
   7  -3   3    0.50    1.20 
   7   3   3   -0.60    1.00 
  -7   3  -3   -0.60    1.20 
   7   3   3    1.00    1.20 
   7   3   3    0.60    0.80 
   7  -4  -3    5.30    3.20 
   7   4  -3    9.80    2.50 
  -7   4   3    4.10    2.40 
  -7   4   3    3.40    1.90 
   7   4  -3    4.00    2.00 
   7   4  -3    9.60    2.70 
  -6  -4   3   32.50    4.60 
   6  -4  -3   36.10   12.90 
   6   4  -3   39.20    5.90 
   6   4  -3   35.90    5.50 
   6   4  -3   38.40    6.80 
  -6   4   3   32.90    5.60 
   6   4  -3   30.20    5.90 
  -6   4   3   31.10    5.50 
   5  -4  -3  144.49   15.20 
  -5  -4   3  144.09   10.80 
  -5   4   3  140.99   13.10 
   5   4  -3  136.99   13.10 
   5   4  -3  145.49   15.70 
   5   4  -3  115.89   12.50 
  -5   4   3  151.08   12.80 
  -5   4   3  152.68   10.40 
   5   4  -3  123.69   11.80 
   5   4  -3  140.69   13.50 
  -4  -4   3  105.99    8.10 
   4  -4  -3  129.19   13.00 
  -4   4   3  109.99    8.50 
  -4   4   3  126.09   13.30 
  -4   4   3  122.59   11.80 
   4   4  -3  111.39   10.80 
   4   4  -3  103.89   11.30 
   4   4  -3   94.29   10.50 
  -4   4   3  108.79   11.00 
   3  -4  -3   76.29    6.70 
  -3  -4   3   65.39    9.00 
  -3  -4   3   77.69    6.70 
  -3   4   3   73.59    7.80 
  -3   4   3   83.49    9.20 
   2  -4  -3  137.59   10.10 
  -2  -4   3  117.69   11.20 
   2   4  -3  153.58   11.50 
  -2   4   3  133.79   11.40 
  -2   4   3  126.39   12.20 
  -1  -4   3   51.89    3.60 
   1  -4  -3   49.40    4.50 
  -1  -4   3   49.00    4.60 
  -1  -4   3   52.99    5.40 
  -1   4   3   52.29    5.80 
   1   4  -3   52.99    6.00 
  -1   4   3   50.99    6.80 
   0  -4   3  448.16   27.90 
   0  -4  -3  421.06   29.40 
   0  -4  -3  409.86   27.70 
   0   4   3  457.65   32.00 
   0   4  -3  444.06   30.70 
  -1  -4  -3  842.42   52.69 
  -1  -4  -3  897.51   55.09 
   1  -4   3  867.41   54.09 
  -1   4  -3  835.32   56.79 
   1   4   3  813.22   57.99 
  -2  -4  -3  818.92   52.39 
  -2  -4  -3  817.12   49.70 
   2  -4   3  833.82   51.89 
   2   4   3  714.93   56.29 
  -2   4  -3  820.32   55.39 
  -3  -4  -3  184.68   13.80 
   3  -4   3  214.48   16.50 
   3  -4   3  177.38   14.10 
   3   4   3  199.58   18.10 
  -3   4  -3  217.08   16.60 
   3   4   3  235.08   18.40 
   3   4   3  220.58   16.00 
  -4  -4  -3  248.48   17.70 
   4  -4   3  228.38   19.80 
   4  -4   3  253.17   20.60 
   4  -4   3  278.67   20.20 
   4   4   3  225.18   21.30 
   4   4   3  247.98   19.00 
   4   4   3  254.37   19.20 
  -4   4  -3  231.48   18.90 
  -4   4  -3  258.27   19.90 
   4   4   3  268.67   21.40 
   4   4   3  238.78   21.00 
   5  -4   3   25.20    5.80 
  -5  -4  -3   28.60    4.50 
   5  -4   3   17.30    4.40 
   5   4   3   19.90    5.60 
   5   4   3   22.30    5.00 
  -5   4  -3   21.40    5.00 
   5   4   3   19.00    5.00 
   5   4   3   23.60    4.40 
   6  -4   3    4.50    2.50 
  -6  -4  -3    5.40    1.90 
   6  -4   3    8.20    3.00 
   6   4   3   11.40    2.80 
  -6   4  -3    9.80    2.90 
   6   4   3    2.90    2.90 
   6   4   3   10.20    3.10 
   6   4   3    9.90    2.70 
   7  -5  -3   13.20    3.60 
  -7   5   3    7.50    2.20 
  -7   5   3    8.00    2.60 
  -6  -5   3   36.50    5.90 
   6  -5  -3   24.70    5.90 
  -6   5   3   28.80    5.40 
   6   5  -3   35.60    4.90 
   6   5  -3   39.60    5.40 
   6   5  -3   27.60    4.80 
  -6   5   3   27.00    5.50 
   5  -5  -3   80.19   10.70 
   5  -5  -3   74.19    9.90 
   5   5  -3   85.29    9.10 
   5   5  -3   70.49    8.40 
   5   5  -3   68.89    9.80 
   5   5  -3   77.39    8.60 
  -5   5   3   82.29    9.40 
  -5   5   3   87.69    9.20 
   4  -5  -3  197.98   14.50 
   4  -5  -3  219.68   18.90 
   4   5  -3  209.88   16.70 
  -4   5   3  218.38   17.00 
  -4   5   3  206.98   16.00 
  -4   5   3  199.88   17.40 
   4   5  -3  201.48   16.40 
   4   5  -3  191.78   16.50 
   4   5  -3  180.78   16.40 
  -3  -5   3   24.30    6.20 
   3  -5  -3   32.20    4.10 
  -3   5   3   35.00    6.40 
  -3   5   3   33.20    5.70 
  -3   5   3   19.60    7.50 
  -3   5   3   31.00    6.80 
  -2  -5   3   52.69    6.50 
   2  -5  -3   60.89    5.70 
   2   5  -3   65.29    7.60 
  -2   5   3   60.89    7.90 
  -2   5   3   64.09    7.30 
  -1  -5   3  169.58   11.50 
   1   5  -3  169.48   15.00 
  -1   5   3  180.28   15.90 
  -1   5   3  177.98   14.80 
   0  -5  -3  148.89   12.90 
   0  -5   3  172.18   11.70 
   0  -5  -3  156.88   11.20 
   0   5   3  147.99   14.60 
   0   5  -3  145.79   13.90 
   1  -5   3  289.87   19.60 
  -1  -5  -3  289.17   20.80 
  -1  -5  -3  272.57   18.10 
  -1   5  -3  269.37   22.50 
   1   5   3  253.97   23.10 
  -2  -5  -3   47.70    6.40 
  -2  -5  -3   48.20    4.00 
   2  -5   3   45.20    5.60 
   2   5   3   45.40    8.40 
  -2   5  -3   58.39    8.40 
  -3  -5  -3    4.90    1.40 
   3  -5   3    1.40    2.30 
   3  -5   3    5.40    3.20 
   3  -5   3    3.60    1.80 
  -3   5  -3    6.00    2.30 
  -3   5  -3    9.50    3.40 
   3   5   3   -2.00    3.20 
   3   5   3    5.20    2.30 
   3   5   3   -1.00    2.50 
  -3   5  -3   14.60    4.10 
   3   5   3    5.60    3.50 
   4  -5   3  204.18   18.00 
  -4  -5  -3  205.78   15.30 
   4  -5   3  216.98   18.30 
   4   5   3  219.88   17.10 
   4   5   3  225.78   16.70 
   4   5   3  185.58   18.10 
   4   5   3  237.58   19.20 
  -4   5  -3  207.78   16.60 
  -4   5  -3  213.48   18.00 
  -4   5  -3  210.78   17.40 
   4   5   3  230.48   19.40 
  -5  -5  -3   15.20    3.50 
   5  -5   3   11.10    3.50 
   5  -5   3   20.60    4.90 
   5   5   3   10.80    3.30 
   5   5   3   16.80    3.90 
   5   5   3   16.60    3.70 
  -5   5  -3   18.60    4.10 
   5   5   3   25.80    5.00 
   6  -5   3   -1.00    1.50 
   6  -5   3    1.00    1.40 
   6   5   3   -5.60    3.60 
   6   5   3   -0.50    1.80 
  -6   5  -3   -0.30    1.30 
   6   5   3    0.20    1.00 
   6   5   3    0.10    1.10 
   6  -6  -3   10.90    4.30 
   6   6  -3   19.00    3.70 
   6   6  -3   18.90    3.70 
  -6   6   3   16.40    4.20 
  -6   6   3    7.00    3.90 
   5  -6  -3    8.20    3.60 
   5  -6  -3   11.90    5.00 
   5   6  -3    6.30    2.90 
   5   6  -3   12.90    3.50 
  -5   6   3   13.00    4.40 
   5   6  -3    6.80    3.20 
  -5   6   3    7.20    5.60 
   4  -6  -3   27.10    5.50 
   4  -6  -3   26.30    4.00 
   4   6  -3   23.20    4.80 
   4   6  -3   30.90    4.90 
  -4   6   3   24.60    4.40 
   4   6  -3   31.10    5.90 
  -4   6   3   29.40    5.30 
  -4   6   3   17.20    5.10 
   4   6  -3   35.60    5.40 
   3  -6  -3   42.10    5.20 
  -3   6   3   45.50    6.50 
   3   6  -3   37.20    6.40 
   3   6  -3   36.90    6.50 
  -3   6   3   49.40    6.50 
  -3   6   3   39.00    6.70 
   3   6  -3   44.70    6.40 
  -3   6   3   44.70    6.00 
  -3   6   3   31.30    6.40 
   2  -6  -3    4.90    2.20 
  -2  -6   3    5.80    1.10 
  -2  -6   3    2.80    2.40 
   2  -6  -3    6.50    1.90 
  -2   6   3    8.30    3.10 
  -2   6   3    6.00    2.10 
  -2   6   3    7.00    3.40 
   2   6  -3    6.70    3.40 
  -2   6   3   14.50    4.20 
   2   6  -3    2.00    2.50 
  -1  -6   3  220.98   15.40 
   1  -6  -3  230.28   16.40 
  -1   6   3  206.18   19.20 
  -1   6   3  238.08   19.80 
   1   6  -3  259.47   22.50 
   0  -6  -3    1.80    1.90 
   0  -6  -3    1.20    0.90 
   0  -6   3    3.30    1.40 
   0   6   3    3.50    2.60 
   0   6  -3    2.50    2.00 
  -1  -6  -3   25.40    2.80 
   1  -6   3   19.80    3.50 
  -1   6  -3   22.60    5.30 
   1   6   3   25.60    5.50 
   1   6   3   18.50    5.20 
   1   6   3   19.20    4.90 
  -1   6  -3   19.10    4.90 
  -1   6  -3   20.60    3.70 
  -1   6  -3   21.90    4.80 
  -2  -6  -3  100.39    7.70 
   2  -6   3   99.09    8.90 
   2  -6   3  103.59   10.00 
   2   6   3   91.39    9.20 
  -2   6  -3  113.19    9.70 
  -2   6  -3  123.09   11.30 
   2   6   3  111.59   11.50 
   2   6   3  102.19   11.40 
  -2   6  -3  107.79   10.40 
  -2   6  -3  109.19   11.40 
   2   6   3  113.19   11.60 
   3  -6   3  418.76   32.00 
   3  -6   3  458.95   30.60 
   3  -6   3  439.66   31.60 
  -3  -6  -3  412.96   28.30 
   3   6   3  422.06   33.00 
  -3   6  -3  437.36   36.40 
   3   6   3  403.76   33.60 
   3   6   3  490.05   33.90 
  -3   6  -3  461.85   32.80 
  -3   6  -3  438.86   31.00 
   3   6   3  451.15   30.40 
  -4  -6  -3   22.50    3.20 
   4  -6   3   21.90    5.00 
   4  -6   3   16.40    3.00 
   4  -6   3   15.30    4.50 
   4   6   3   18.10    5.00 
   4   6   3   25.40    6.10 
  -4   6  -3   29.40    5.40 
  -4   6  -3   26.10    5.90 
   4   6   3   23.00    3.70 
   4   6   3   14.00    3.30 
   4   6   3   20.80    5.50 
  -4   6  -3   14.70    4.00 
   5  -6   3   56.89    7.00 
   5  -6   3   43.10    6.60 
   5   6   3   45.90    7.00 
  -5   6  -3   50.69    6.50 
  -5   6  -3   51.39    6.90 
   5   6   3   56.39    5.60 
   5   6   3   57.59    5.70 
   5   6   3   65.19    7.70 
   6  -6   3    7.60    2.40 
   6  -6   3    1.80    2.10 
   6   6   3    7.10    1.50 
  -6   6  -3    6.80    2.10 
   6   6   3    6.00    1.40 
   6   6   3    7.90    2.50 
   6  -7  -3   12.80    3.60 
   6   7  -3   10.40    2.60 
   6   7  -3   13.60    2.20 
  -6   7   3   16.20    3.60 
  -6   7   3    8.30    2.80 
   5  -7  -3   84.19   10.10 
   5  -7  -3   74.39    8.90 
   5   7  -3   84.49    8.30 
  -5   7   3   77.59    9.20 
  -5   7   3   65.09    8.30 
   5   7  -3   70.29    7.90 
   4  -7  -3   83.89    9.80 
   4  -7  -3   73.59    6.60 
   4   7  -3   59.29    8.50 
   4   7  -3   65.99    8.20 
   4   7  -3   69.29    9.00 
  -4   7   3   71.99    7.90 
  -4   7   3   51.59    8.40 
  -4   7   3   66.69    9.00 
   3  -7  -3   10.10    4.00 
   3  -7  -3   14.00    3.30 
   3  -7  -3   13.30    3.10 
   3   7  -3   13.50    4.50 
  -3   7   3   12.20    3.70 
   3   7  -3   15.10    4.70 
  -3   7   3   21.10    5.20 
  -3   7   3   15.40    3.50 
   3   7  -3   14.70    3.90 
   2  -7  -3   37.00    5.10 
   2  -7  -3   44.70    5.90 
  -2  -7   3   45.10    4.20 
  -2   7   3   52.79    6.80 
  -2   7   3   39.80    6.40 
  -2   7   3   44.00    7.10 
   2   7  -3   56.19    7.80 
  -2   7   3   41.40    6.00 
   2   7  -3   41.20    7.10 
   2   7  -3   48.20    6.80 
   2   7  -3   50.69    6.50 
   1  -7  -3    7.10    2.20 
   1   7  -3    5.30    3.10 
  -1   7   3    9.20    3.00 
   1   7  -3    5.00    2.40 
   1   7  -3    7.40    4.20 
   1   7  -3    6.00    2.70 
  -1   7   3    7.20    3.00 
  -1   7   3    6.60    3.30 
  -1   7   3    8.30    3.20 
   0  -7   3    8.00    2.70 
   0  -7  -3    7.40    2.30 
   0   7   3    8.00    5.50 
   0   7   3   12.50    3.80 
   0   7  -3    4.60    3.20 
   0   7   3   10.10    3.20 
   0   7  -3    7.60    4.40 
   0   7  -3   10.30    3.30 
   0   7  -3   15.20    4.50 
   0   7   3    9.40    4.30 
   1  -7   3  340.27   25.70 
  -1  -7  -3  378.06   25.30 
   1  -7   3  390.16   27.40 
   1   7   3  396.26   29.00 
   1   7   3  398.26   29.00 
  -1   7  -3  378.16   29.00 
  -1   7  -3  409.06   29.80 
  -1   7  -3  387.96   28.30 
   1   7   3  345.97   29.30 
  -1   7  -3  391.16   27.00 
  -2  -7  -3   44.80    4.40 
   2  -7   3   49.30    6.90 
  -2   7  -3   59.09    9.30 
  -2   7  -3   48.30    6.60 
   2   7   3   50.99    9.30 
  -2   7  -3   56.89    9.40 
   3  -7   3   57.19    7.30 
   3  -7   3   63.99    5.90 
  -3  -7  -3   58.99    5.30 
  -3   7  -3   44.30    6.40 
   3   7   3   56.09    8.30 
   3   7   3   53.19    8.00 
  -3   7  -3   58.79    7.90 
  -3   7  -3   57.49    8.10 
   3   7   3   47.20    7.80 
   4  -7   3   17.40    4.00 
  -4  -7  -3   21.40    3.60 
   4  -7   3   15.10    4.20 
  -4   7  -3   22.20    4.90 
   4   7   3   12.30    4.30 
   4   7   3   24.60    5.50 
   4   7   3   11.10    4.20 
  -4   7  -3   24.70    4.50 
   4   7   3   12.60    2.90 
  -4   7  -3   13.40    3.10 
   5  -7   3    3.20    1.80 
   5   7   3    1.30    1.10 
   5   7   3    1.50    2.00 
  -5   7  -3    3.20    1.90 
  -5   7  -3    4.60    3.10 
   5   7   3    0.90    3.00 
   5  -8  -3   16.00    4.40 
   5  -8  -3   17.60    4.50 
  -5   8   3   15.30    3.80 
   4  -8  -3   12.10    4.50 
  -4   8   3    9.80    3.60 
  -4   8   3    5.20    5.50 
   3  -8  -3    4.30    3.00 
   3  -8  -3    9.40    2.60 
   3  -8  -3    3.00    3.10 
  -3   8   3    6.90    2.80 
  -3   8   3    5.80    2.70 
  -3   8   3    5.70    4.40 
   3   8  -3    7.80    2.90 
   3   8  -3   13.50    5.20 
   3   8  -3    5.10    5.60 
  -2  -8   3   32.90    4.00 
   2  -8  -3   36.20    4.90 
   2  -8  -3   32.30    5.20 
   2   8  -3   48.50    6.90 
  -2   8   3   28.70    5.00 
  -2   8   3   30.90    5.80 
   2   8  -3   25.10    4.60 
  -2   8   3   31.60    5.40 
   2   8  -3   31.20    5.70 
   2   8  -3   38.00    5.80 
  -2   8   3   32.20    7.80 
   1  -8  -3   15.60    3.10 
  -1  -8   3   17.30    3.10 
  -1   8   3   14.50    4.00 
   1   8  -3   14.30    3.70 
   1   8  -3   10.20    4.30 
  -1   8   3   16.30    5.40 
  -1   8   3   22.40    4.90 
   1   8  -3   23.00    5.60 
  -1   8   3   17.90    4.10 
   1   8  -3   19.10    4.10 
   0  -8  -3  187.18   13.80 
   0  -8   3  186.48   14.70 
   0   8   3  190.28   16.10 
   0   8  -3  161.38   16.70 
   0   8  -3  197.48   16.30 
   0   8   3  152.08   16.40 
   0   8  -3  181.18   14.70 
   0   8  -3  185.18   16.60 
   0   8   3  173.18   16.90 
   0   8   3  193.68   16.40 
  -1  -8  -3  269.77   18.40 
   1  -8   3  282.97   20.80 
   1  -8   3  254.87   18.90 
  -1   8  -3  260.47   20.00 
   1   8   3  255.97   21.30 
   1   8   3  257.27   22.70 
  -1   8  -3  279.77   21.40 
   1   8   3  278.27   22.10 
  -1   8  -3  250.97   21.90 
   2  -8   3   14.70    3.00 
   2  -8   3   13.50    3.50 
   2   8   3    7.80    3.00 
   2   8   3   15.00    5.00 
   2   8   3    8.00    3.40 
  -2   8  -3   12.50    4.30 
  -2   8  -3   14.70    4.20 
  -2   8  -3    6.60    2.90 
  -2   8  -3   16.10    3.80 
   3  -8   3   16.30    4.00 
   3   8   3   11.60    3.90 
   3   8   3   27.80    5.50 
  -3   8  -3   17.30    3.60 
  -3   8  -3   19.90    4.90 
   3   8   3   25.50    5.40 
  -3   8  -3   19.40    4.70 
   4  -8   3   14.90    3.30 
   4  -8   3   14.00    3.50 
  -4   8  -3   13.70    3.00 
   4   8   3    9.60    3.40 
   4   8   3   12.90    3.40 
  -4   8  -3    9.00    3.40 
   4   8   3    7.50    2.90 
   5  -8   3   -1.50    1.30 
   5   8   3    1.10    1.60 
  -5   8  -3    0.10    1.30 
   4  -9  -3   21.70    4.90 
  -4   9   3   28.80    6.30 
   3  -9  -3   43.10    4.80 
  -3   9   3   31.70    5.30 
   3   9  -3   33.70    4.70 
  -3   9   3   32.00    4.90 
   2  -9  -3   36.40    5.10 
   2  -9  -3   24.70    4.70 
   2  -9  -3   32.70    6.10 
  -2   9   3   39.10    6.10 
   2   9  -3   37.70    5.90 
  -2   9   3   28.70    6.50 
   2   9  -3   34.30    5.20 
   2   9  -3   26.40    5.50 
  -2   9   3   36.20    5.40 
  -2   9   3   28.90    5.20 
   1  -9  -3   96.79    9.20 
  -1  -9   3   98.49    8.50 
   1  -9  -3  103.19    8.60 
  -1   9   3   69.19   10.00 
  -1   9   3  107.49   11.40 
   1   9  -3   72.59   13.10 
   1   9  -3   94.89    8.80 
  -1   9   3   91.19   11.70 
   0  -9   3   11.90    3.20 
   0  -9  -3   15.10    3.30 
   0  -9   3   16.30    3.00 
   0  -9  -3   17.90    3.20 
   0   9  -3   18.60    5.20 
   0   9  -3   20.60    5.00 
   0   9  -3   17.20    5.10 
   0   9   3   16.40    4.70 
   0   9  -3   13.50    4.20 
   0   9   3   11.50    3.20 
   1  -9   3   14.70    3.80 
  -1  -9  -3   18.10    2.80 
   1  -9   3   12.50    2.70 
  -1   9  -3   10.30    3.10 
   1   9   3   11.00    3.70 
  -1   9  -3    9.90    2.90 
   1   9   3   11.30    3.50 
  -1   9  -3    7.00    3.50 
   1   9   3   11.20    3.60 
   2  -9   3   11.10    2.30 
  -2  -9  -3    7.50    2.30 
  -2   9  -3    2.90    2.30 
  -2   9  -3    6.70    3.00 
   2   9   3    5.00    2.60 
  -2   9  -3    7.10    2.40 
   2   9   3    3.30    3.00 
   2   9   3   10.50    3.30 
  -2   9  -3    3.70    2.00 
   3  -9   3   -0.80    1.40 
   3  -9   3   -1.00    1.30 
   3   9   3    3.60    2.10 
  -3   9  -3   -1.10    2.30 
  -3   9  -3    0.40    1.20 
  -3   9  -3    2.70    2.40 
   3   9   3    2.10    2.20 
   4  -9   3    3.70    1.50 
  -4   9  -3    6.90    2.40 
   4   9   3    5.30    2.30 
   4   9   3    1.80    2.30 
  -4   9  -3    8.70    2.10 
   3 -10  -3    3.30    2.00 
   3 -10  -3    2.60    1.30 
  -3  10   3   -1.40    1.60 
  -3  10   3    0.50    1.80 
  -3  10   3    1.40    1.50 
   2 -10  -3   40.40    5.60 
   2  10  -3   48.30    5.10 
   2  10  -3   37.30    5.10 
  -2  10   3   37.40    5.20 
  -2  10   3   30.90    5.80 
   1  10  -3   -1.00    1.70 
  -1  10   3   -2.00    3.00 
  -1  10   3   -1.20    2.40 
   1  10  -3   -0.90    1.70 
   1  10  -3   -1.80    1.30 
  -1  10   3    1.90    1.70 
   1  10  -3   -0.80    3.10 
  -1  10   3    0.40    1.40 
   0 -10   3    5.40    1.60 
   0 -10  -3    5.60    2.70 
   0  10  -3    2.00    1.60 
   0  10  -3    0.90    2.40 
   0  10   3    2.40    1.50 
   0  10   3   -1.20    2.70 
   0  10  -3    2.20    2.50 
   0  10   3    3.70    2.10 
  -1 -10  -3   -4.90    3.50 
  -1  10  -3    1.60    1.40 
   1  10   3    2.90    1.50 
   1  10   3    0.10    2.00 
  -1  10  -3   -0.90    2.00 
  -1  10  -3    1.70    2.20 
  -1  10  -3    3.60    1.80 
   1  10   3   -0.60    1.60 
   2 -10   3   -0.90    1.10 
   2 -10   3    3.50    1.20 
   2  10   3    0.00    2.00 
  -2  10  -3    2.90    2.20 
  -2  10  -3    2.30    1.80 
  -2  10  -3    1.00    1.20 
   2  10   3    2.00    1.90 
   2  10   3    0.80    1.40 
   3 -10   3    9.30    2.60 
  -3  10  -3    8.50    2.40 
   3  10   3    3.00    1.70 
   3  10   3    8.00    2.80 
  -3  10  -3    4.20    1.40 
  -3  10  -3   -0.10    1.60 
  -1 -11   3    6.30    1.80 
   1 -11  -3    0.80    2.10 
   1  11  -3   10.00    2.00 
  -1  11   3    5.50    1.70 
   1  11  -3    3.40    1.80 
  -1  11   3    5.60    2.40 
   0 -11   3    0.60    2.00 
   0 -11  -3    5.10    2.80 
   0  11  -3    5.80    2.30 
   0  11   3    4.80    1.70 
   0  11  -3    6.30    1.60 
   0  11   3    4.80    1.60 
   1 -11   3    8.30    1.70 
   1 -11   3    4.40    1.50 
   1  11   3    2.70    1.60 
   1  11   3    5.50    1.70 
  -1  11  -3    4.90    1.90 
  -1  11  -3    2.40    1.30 
  -8   0   4    8.90    2.00 
   8   0  -4   12.70    2.20 
  -8   0   4    6.70    2.00 
   7   0  -4   -0.50    1.70 
   7   0  -4    0.20    1.40 
   7   0  -4    2.50    1.80 
  -7   0   4    2.40    1.30 
   7   0  -4   -0.20    2.80 
  -7   0   4   -0.60    1.90 
   6   0  -4   13.30    3.30 
  -6   0   4    8.30    3.00 
   6   0  -4    4.20    2.10 
  -6   0   4    5.30    2.20 
   6   0  -4    2.10    3.90 
  -6   0   4    9.70    2.60 
   6   0  -4    5.90    2.50 
   5   0  -4    4.90    2.70 
   5   0  -4    3.70    2.50 
  -4   0   4   -0.90    0.60 
  -3   0   4  210.08   14.50 
  -3   0   4  211.68   17.30 
  -2   0   4   60.19    5.00 
  -2   0   4   70.79    6.80 
  -1   0   4 7557.84  534.65 
   1   0  -4 9999.00  534.95 
   0   0  -4 4682.43  284.17 
   0   0  -4 5027.70  284.87 
   0   0   4 4489.45  284.97 
   0   0   4 4427.46  284.07 
   1   0   4 1947.01  138.29 
  -1   0  -4 2201.38  135.69 
  -1   0  -4 2479.25  136.99 
   2   0   4 2823.52  183.88 
  -2   0  -4 2864.91  179.58 
  -2   0  -4 3074.79  181.28 
  -3   0  -4   54.89    7.10 
   3   0   4   56.39    8.60 
  -4   0  -4   62.49    7.70 
   4   0   4   76.19    8.70 
   4   0   4   72.79    9.00 
   4   0   4   78.49    7.60 
   5   0   4   19.30    4.10 
   5   0   4   17.00    4.80 
   5   0   4   21.40    3.30 
  -5   0  -4   12.80    3.30 
   5   0   4   15.00    4.00 
  -5   0  -4   19.10    3.20 
   6   0   4    3.90    1.70 
  -6   0  -4    4.60    1.60 
   6   0   4    4.30    2.70 
   6   0   4    4.80    2.90 
   6   0   4    3.20    1.60 
   7   0   4    1.40    1.10 
   7   0   4    0.90    0.80 
   7   0   4    1.30    2.40 
  -7   0  -4   -1.10    0.90 
  -8  -1   4    2.40    1.10 
  -8  -1   4    3.30    1.50 
  -8   1   4    0.60    1.50 
   8   1  -4    2.00    1.10 
   8   1  -4    6.10    1.60 
   7  -1  -4   18.10    3.90 
   7  -1  -4   23.60    4.10 
  -7  -1   4   18.70    3.30 
   7  -1  -4   11.30    4.70 
   7  -1  -4   18.10    4.00 
  -7   1   4   21.40    4.10 
   7   1  -4   16.00    3.40 
   7   1  -4   23.60    4.90 
   7   1  -4   13.30    4.20 
   7   1  -4   17.10    4.10 
   6  -1  -4    6.20    3.20 
   6  -1  -4   11.50    3.40 
   6  -1  -4    7.20    2.80 
  -6  -1   4   10.50    2.80 
   6  -1  -4    7.70    4.00 
  -6   1   4   13.00    2.60 
   6   1  -4   11.30    5.20 
   6   1  -4   17.40    4.70 
   6   1  -4   10.00    3.50 
   6   1  -4   11.70    3.30 
  -6   1   4   11.90    2.80 
  -6   1   4   13.70    3.10 
   6   1  -4   15.70    3.80 
   5  -1  -4  119.49   11.70 
   5  -1  -4  137.69   12.00 
   5  -1  -4  110.89   11.20 
   5  -1  -4  110.79   11.50 
   5  -1  -4  139.39   14.60 
   5   1  -4  131.19   12.20 
   5   1  -4  107.09   11.60 
  -5   1   4  120.09   10.20 
   5   1  -4  115.99   11.90 
  -5   1   4  129.59   10.50 
   5   1  -4  125.79   11.70 
  -4  -1   4   38.30    6.70 
  -4  -1   4   38.60    4.20 
  -4   1   4   38.70    4.40 
  -4   1   4   36.30    6.40 
  -3  -1   4  839.82   54.09 
  -3  -1   4  834.82   57.69 
  -3   1   4  867.31   54.39 
  -3   1   4  918.11   57.99 
   2  -1  -4 1556.34   94.99 
  -2  -1   4 1541.05   97.39 
   2  -1  -4 1500.55   94.49 
  -2   1   4 1618.04   97.29 
  -2   1   4 1510.65   95.19 
   1  -1  -4  300.97   21.10 
  -1  -1   4  316.47   20.20 
  -1  -1   4  301.17   20.50 
  -1  -1   4  364.56   21.80 
   1  -1  -4  321.17   20.50 
   1  -1  -4  301.57   20.40 
   1   1  -4  359.66   21.10 
  -1   1   4  308.77   20.30 
   1   1  -4  307.97   22.90 
   0  -1   4  149.88   10.60 
   0  -1   4  118.29    9.70 
   0  -1   4  137.79    9.30 
   0  -1  -4  125.39    9.20 
   0  -1  -4  130.39    9.70 
   0   1   4  138.59   11.60 
   0   1  -4  154.38   10.90 
  -1  -1  -4  139.99   10.60 
   1  -1   4  148.89   11.90 
  -1  -1  -4  143.19    9.60 
  -1   1  -4  138.49   11.40 
  -1   1  -4  117.19   10.60 
  -1   1  -4  148.39   10.70 
   1   1   4  138.79   12.80 
  -2  -1  -4  439.16   25.90 
   2  -1   4  372.96   29.00 
  -2  -1  -4  404.76   27.10 
   2   1   4  394.16   30.60 
  -2   1  -4  403.76   28.40 
  -2   1  -4  363.76   27.10 
  -3  -1  -4  495.95   32.40 
  -3  -1  -4  523.35   34.40 
   3   1   4  469.55   38.80 
  -3   1  -4  465.95   35.50 
  -3   1  -4  493.35   33.40 
   4  -1   4   22.60    3.80 
  -4  -1  -4   15.60    3.00 
   4  -1   4   18.70    3.80 
   4  -1   4   25.60    5.40 
   4  -1   4   15.40    7.70 
  -4  -1  -4   21.90    4.20 
   4  -1   4   22.90    5.30 
  -4   1  -4   22.10    3.90 
  -4   1  -4   28.00    3.70 
   4   1   4   23.30    3.80 
   4   1   4   23.00    5.20 
   4   1   4   18.40    4.80 
   4   1   4   19.70    3.70 
   5  -1   4  122.59   11.00 
  -5  -1  -4  114.59   11.40 
   5  -1   4  114.99   12.70 
   5  -1   4  126.99   12.30 
  -5  -1  -4  115.39    9.60 
   5  -1   4  126.69   10.30 
   5   1   4  133.19   13.40 
  -5   1  -4  117.89    9.50 
  -5   1  -4  118.19   12.20 
   5   1   4  130.09   10.90 
   5   1   4  132.69   13.10 
   5   1   4  133.69   11.50 
  -5   1  -4  119.49   10.50 
  -6  -1  -4   14.90    2.60 
   6  -1   4   12.90    3.20 
   6  -1   4   17.70    4.60 
   6  -1   4   11.20    3.80 
   6  -1   4   17.30    3.20 
   6   1   4   11.10    2.80 
   6   1   4   20.70    5.00 
  -6   1  -4   15.50    3.30 
  -6   1  -4   18.50    2.80 
   6   1   4    8.90    3.50 
   6   1   4   15.30    3.60 
  -7  -1  -4    1.90    0.80 
   7  -1   4    1.00    1.50 
   7  -1   4    9.50    3.40 
   7   1   4    3.40    1.40 
   7   1   4    1.70    1.00 
  -7   1  -4    2.80    1.30 
   7   1   4    2.90    1.00 
   7  -2  -4    5.00    2.90 
   7  -2  -4    8.40    2.30 
  -7   2   4   11.40    3.00 
   7   2  -4    2.30    2.20 
  -7   2   4    2.00    2.60 
   7   2  -4    5.10    1.90 
   7   2  -4    7.20    2.40 
   7   2  -4    1.20    2.60 
   6  -2  -4    4.90    3.00 
  -6  -2   4    2.10    2.40 
   6  -2  -4    1.70    2.50 
   6  -2  -4   -0.80    1.90 
  -6  -2   4    4.50    2.00 
   6  -2  -4    5.70    3.90 
   6   2  -4    1.70    1.80 
   6   2  -4    3.10    2.00 
  -6   2   4    4.40    1.70 
   6   2  -4    1.60    3.70 
   6   2  -4   -3.30    2.00 
  -6   2   4    1.70    2.40 
   6   2  -4   -2.70    2.60 
  -5  -2   4   40.60    4.60 
   5  -2  -4   49.00    8.80 
   5  -2  -4   29.10    5.60 
   5  -2  -4   25.70    5.60 
   5   2  -4   36.10    7.10 
   5   2  -4   36.90    8.20 
  -5   2   4   29.50    4.60 
  -5   2   4   40.90    5.80 
   5   2  -4   24.60    5.00 
   5   2  -4   29.90    5.40 
   5   2  -4   37.30    5.80 
  -5   2   4   27.80    4.70 
  -4  -2   4  276.67   20.20 
  -4  -2   4  279.97   25.80 
  -4   2   4  358.36   27.40 
  -4   2   4  303.77   22.50 
  -3  -2   4  390.46   25.90 
  -3  -2   4  394.36   29.80 
   3  -2  -4  394.56   26.30 
   3  -2  -4  378.36   25.80 
  -3   2   4  408.06   26.50 
  -3   2   4  471.75   29.70 
   2  -2  -4  163.88   11.00 
   2  -2  -4  159.98   11.80 
  -2  -2   4  155.28   10.20 
  -2  -2   4  162.48   12.80 
  -2  -2   4  156.58   10.50 
   2  -2  -4  155.08   11.00 
  -2   2   4  156.28   10.80 
  -1  -2   4   71.99    5.80 
   1  -2  -4   59.99    4.90 
  -1  -2   4   64.09    4.60 
   1  -2  -4   63.99    5.40 
  -1   2   4   69.69    7.00 
   1   2  -4   67.69    5.90 
   1   2  -4   52.69    6.10 
   0  -2   4 1544.05   90.19 
   0  -2  -4 1473.95   90.89 
   0  -2   4 1442.16   90.79 
   0  -2  -4 1475.95   89.99 
   0   2  -4 1380.86   91.09 
   0   2  -4 1564.14   92.29 
   0   2   4 1362.26   93.49 
  -1  -2  -4 1611.34   93.79 
   1  -2   4 1456.45   94.49 
  -1  -2  -4 1636.74   95.29 
   1  -2   4 1486.75   95.29 
  -1   2  -4 1425.46   96.59 
   1   2   4 1529.95   98.89 
   2  -2   4  329.27   21.90 
  -2  -2  -4  299.37   22.20 
  -2  -2  -4  361.06   20.90 
  -2   2  -4  291.87   24.00 
   2   2   4  331.57   26.70 
  -2   2  -4  288.57   21.90 
  -3  -2  -4  139.99    9.70 
  -3  -2  -4  126.19   11.10 
  -3   2  -4  105.99   12.50 
   3   2   4  122.59   15.60 
  -3   2  -4  121.69   10.90 
  -3   2  -4  107.49   12.00 
   4  -2   4  291.97   22.20 
   4  -2   4  270.77   20.50 
   4  -2   4  317.57   23.50 
   4  -2   4  281.67   22.60 
   4   2   4  285.77   24.20 
   4   2   4  296.67   21.20 
  -4   2  -4  285.07   21.00 
   4   2   4  293.87   23.10 
  -4   2  -4  264.37   19.10 
   4   2   4  288.87   23.60 
  -4   2  -4  242.78   21.70 
   4   2   4  306.77   21.20 
   5  -2   4   24.20    5.10 
  -5  -2  -4   15.10    3.80 
   5  -2   4   25.70    4.10 
   5  -2   4   17.40    4.80 
  -5  -2  -4   27.00    3.90 
   5   2   4   25.90    4.20 
  -5   2  -4   22.00    4.40 
  -5   2  -4   23.40    3.20 
   5   2   4   16.70    4.50 
   5   2   4   17.90    4.20 
   5   2   4   33.30    4.70 
   6  -2   4   68.19    8.60 
  -6  -2  -4   79.99    6.70 
   6  -2   4   79.79    8.80 
   6  -2   4   83.89    7.40 
  -6   2  -4   74.99    7.70 
   6   2   4   76.99    7.60 
  -6   2  -4   83.99    5.80 
   6   2   4   73.49    9.20 
   6   2   4   81.39    9.20 
   6   2   4   73.89    7.80 
   7  -2   4    8.30    2.90 
  -7  -2  -4    9.00    1.60 
   7  -2   4   11.00    2.10 
   7   2   4    4.80    2.20 
   7   2   4   12.50    1.70 
   7  -3  -4   -0.20    2.50 
   7   3  -4   -2.20    1.20 
   7   3  -4    0.20    1.20 
  -7   3   4   -0.80    1.70 
  -7   3   4   -0.20    1.50 
   6  -3  -4  105.29   14.20 
  -6  -3   4  131.99   10.20 
   6   3  -4  110.89   12.50 
   6   3  -4  118.09   12.00 
  -6   3   4  110.99    9.20 
  -6   3   4  121.19   11.70 
   6   3  -4  122.69   12.10 
  -6   3   4  123.09   11.50 
   6   3  -4  110.59   11.50 
  -5  -3   4   27.00    3.70 
   5  -3  -4   16.30    4.40 
   5  -3  -4   15.50    5.00 
   5  -3  -4   27.60    4.90 
  -5   3   4   31.50    6.80 
   5   3  -4   23.60    4.40 
   5   3  -4   21.80    4.60 
   5   3  -4   20.10    4.80 
  -5   3   4   21.70    3.70 
   5   3  -4   26.70    5.70 
  -4  -3   4   33.20    6.80 
  -4  -3   4   34.40    3.60 
   4  -3  -4   42.60    7.20 
  -4   3   4   26.90    4.20 
  -4   3   4   34.90    6.30 
   4   3  -4   39.00    7.20 
  -4   3   4   40.10    6.20 
   4   3  -4   29.10    5.70 
   4   3  -4   27.60    5.60 
  -3  -3   4  418.16   26.20 
   3  -3  -4  453.25   29.70 
  -3  -3   4  418.06   30.60 
  -3   3   4  398.46   27.60 
  -3   3   4  375.56   28.40 
   2  -3  -4  318.97   20.90 
  -2  -3   4  303.17   22.40 
  -2  -3   4  298.87   19.80 
  -2  -3   4  304.47   20.90 
   2   3  -4  349.17   21.60 
  -1  -3   4 1701.93   96.59 
   1  -3  -4 1315.77   96.59 
   1  -3  -4 1550.44   95.99 
  -1  -3   4 1546.45   95.29 
   1   3  -4 1584.04   97.89 
  -1   3   4 1635.84   99.99 
   0  -3   4  954.80   56.69 
   0  -3  -4  913.91   57.89 
   0  -3  -4  914.51   56.49 
   0   3  -4  970.40   59.59 
   0   3   4  796.92   60.59 
  -1  -3  -4  201.78   14.50 
   1  -3   4  186.18   13.80 
  -1  -3  -4  201.88   12.80 
   1   3   4  178.28   17.40 
  -1   3  -4  193.28   16.20 
   2  -3   4  787.32   49.80 
  -2  -3  -4  732.23   50.19 
  -2  -3  -4  780.12   48.20 
  -2   3  -4  741.73   53.09 
   2   3   4  804.32   55.99 
  -3  -3  -4   75.99    8.50 
   3  -3   4   81.59   11.70 
  -3  -3  -4   88.69    7.10 
   3   3   4   90.79   10.40 
   3   3   4   83.49   13.40 
  -3   3  -4   73.39   11.10 
   4  -3   4  174.68   16.10 
   4  -3   4  182.08   16.70 
  -4  -3  -4  184.68   14.50 
   4  -3   4  174.58   14.30 
   4  -3   4  205.98   16.70 
  -4   3  -4  186.28   15.60 
   4   3   4  203.58   15.30 
   4   3   4  205.18   17.90 
  -4   3  -4  183.28   12.70 
   4   3   4  205.68   17.10 
   4   3   4  153.98   16.40 
   4   3   4  201.48   15.60 
   5  -3   4   35.10    6.70 
  -5  -3  -4   41.00    4.80 
   5  -3   4   35.70    4.70 
   5  -3   4   37.20    6.80 
  -5  -3  -4   38.10    5.20 
   5   3   4   40.50    5.70 
  -5   3  -4   36.20    3.50 
  -5   3  -4   34.20    5.70 
   5   3   4   44.50    5.70 
   5   3   4   36.70    6.60 
   5   3   4   35.90    6.50 
   6  -3   4   15.70    3.80 
   6  -3   4   13.00    3.60 
  -6  -3  -4   18.90    2.80 
   6   3   4   18.10    3.50 
   6   3   4   19.00    4.50 
   6   3   4   16.20    3.50 
  -6   3  -4   13.00    3.30 
  -7   4   4   16.50    3.50 
   7   4  -4   26.10    3.90 
   7   4  -4   19.90    4.20 
   7   4  -4   16.60    3.30 
  -7   4   4   17.80    4.00 
  -6  -4   4   32.90    4.50 
  -6   4   4   39.80    6.00 
   6   4  -4   36.90    5.70 
   6   4  -4   39.30    6.00 
  -6   4   4   26.60    5.60 
   6   4  -4   37.90    5.90 
  -5  -4   4   32.80    3.70 
   5  -4  -4   18.30    6.30 
  -5   4   4   22.20    4.80 
   5   4  -4   20.00    4.30 
  -5   4   4   31.30    5.50 
   5   4  -4   21.10    5.00 
   5   4  -4   34.90    5.80 
   5   4  -4   31.10    5.10 
   4  -4  -4   34.50    6.70 
  -4  -4   4   27.20    3.10 
   4  -4  -4   29.10    4.60 
   4   4  -4   24.80    5.00 
  -4   4   4   36.00    5.60 
   4   4  -4   25.20    5.40 
   4   4  -4   31.40    5.10 
  -4   4   4   29.20    4.00 
  -3  -4   4   55.39    7.60 
  -3  -4   4   55.19    4.40 
   3  -4  -4   60.69    5.60 
  -3   4   4   64.59    8.00 
  -3   4   4   50.79    6.40 
   2  -4  -4  496.45   33.00 
  -2  -4   4  513.85   31.70 
  -2  -4   4  492.05   34.40 
  -2   4   4  564.14   42.90 
   2   4  -4  539.25   34.80 
  -2   4   4  465.65   34.30 
  -1  -4   4  108.39    7.20 
   1  -4  -4   98.89    7.40 
   1  -4  -4   89.09    8.30 
  -1  -4   4   90.99    8.00 
  -1  -4   4   95.19    6.60 
   1   4  -4   94.99    9.40 
  -1   4   4   76.49    9.90 
   0  -4   4  477.55   29.40 
   0  -4  -4  437.26   30.80 
   0  -4  -4  452.85   29.10 
   0   4  -4  450.25   32.60 
   0   4   4  457.05   34.60 
   1  -4   4  645.84   43.40 
  -1  -4  -4  702.13   42.10 
  -1  -4  -4  694.23   44.40 
   1   4   4  642.74   48.70 
  -1   4  -4  669.53   46.90 
  -2  -4  -4  381.26   23.10 
  -2  -4  -4  345.87   25.50 
   2  -4   4  353.16   25.00 
   2   4   4  330.17   30.30 
  -2   4  -4  361.66   31.10 
  -3  -4  -4    7.80    2.00 
   3  -4   4    6.20    2.80 
   3   4   4    7.80    2.40 
   3   4   4    8.50    4.00 
   3   4   4   13.20    3.10 
  -3   4  -4   12.20    3.60 
   3   4   4    9.50    4.30 
   3   4   4    5.50    2.80 
  -3   4  -4   15.20    3.20 
  -4  -4  -4   78.59    7.70 
   4  -4   4   72.39    9.70 
   4  -4   4  105.89   10.10 
   4  -4   4   74.29    9.80 
   4   4   4   76.99   11.40 
   4   4   4   87.09   11.10 
   4   4   4   85.29    9.90 
  -4   4  -4   86.79    9.80 
   4   4   4   95.79    9.20 
   4   4   4   93.19   12.80 
  -5  -4  -4   32.40    4.70 
   5  -4   4   20.90    5.50 
   5  -4   4   24.40    5.50 
  -5  -4  -4   25.10    4.80 
   5   4   4   28.70    4.50 
   5   4   4   15.60    4.30 
   5   4   4   17.80    4.70 
   5   4   4   23.50    8.40 
   6  -4   4    6.30    2.10 
   6  -4   4    8.50    2.10 
  -6   4  -4   10.50    2.70 
   6   4   4   10.50    2.50 
   6   4   4    6.90    3.00 
   6   4   4    6.70    2.90 
   7   5  -4   25.90    3.60 
  -7   5   4   18.30    3.50 
   7   5  -4   25.50    3.70 
  -7   5   4   25.40    3.70 
   6   5  -4   33.80    5.30 
  -6   5   4   34.50    5.70 
  -6   5   4   33.30    5.40 
   6   5  -4   31.90    5.00 
   6   5  -4   42.50    5.70 
  -5  -5   4    8.30    1.90 
  -5   5   4    6.70    2.80 
   5   5  -4    7.70    3.40 
  -5   5   4    4.80    2.80 
   5   5  -4    4.80    3.30 
   5   5  -4    9.40    2.90 
   4  -5  -4  157.48   11.40 
  -4  -5   4  153.38   10.60 
   4  -5  -4  149.59   15.40 
  -4   5   4  141.09   12.70 
  -4   5   4  163.98   14.90 
   4   5  -4  129.89   13.30 
   4   5  -4  149.59   13.60 
   4   5  -4  145.49   13.50 
   4   5  -4  161.58   14.00 
  -4   5   4  147.19   13.20 
   3  -5  -4  113.89   13.10 
  -3  -5   4  130.59    8.90 
   3  -5  -4  133.79   10.50 
  -3   5   4  157.78   16.00 
  -3   5   4  161.68   14.00 
   3   5  -4  111.49   11.70 
  -3   5   4  102.89   17.00 
   3   5  -4  139.79   12.90 
   3   5  -4  152.38   12.90 
   2  -5  -4   73.29    6.30 
  -2  -5   4   66.09    4.80 
  -2   5   4   58.39    8.60 
   2   5  -4   66.79    8.10 
   1  -5  -4  225.18   17.90 
   1  -5  -4  235.78   16.20 
  -1  -5   4  240.28   15.50 
  -1   5   4  217.58   20.70 
   1   5  -4  239.88   19.50 
   0  -5   4   98.39    8.00 
   0  -5  -4  103.79    9.50 
   0  -5  -4   94.49    7.50 
   0   5   4   94.19   12.10 
   0   5  -4   92.89   10.80 
  -1  -5  -4  445.16   28.00 
   1  -5   4  442.86   29.80 
   1   5   4  414.76   35.10 
   2  -5   4   16.30    3.70 
   2  -5   4   23.70    3.70 
  -2  -5  -4   17.50    2.50 
   2   5   4   27.50    5.50 
   2   5   4   23.40    4.00 
   2   5   4   14.40    4.30 
  -2   5  -4   24.60    3.90 
  -2   5  -4   12.80    3.10 
  -2   5  -4   26.50    5.10 
   2   5   4   14.50    5.50 
   3  -5   4   23.50    3.30 
  -3  -5  -4   22.80    3.30 
   3  -5   4   24.70    5.00 
  -3   5  -4   21.90    3.80 
   3   5   4   15.40    3.30 
  -3   5  -4   29.90    6.00 
   3   5   4   13.90    5.00 
   3   5   4   26.40    4.10 
  -3   5  -4   22.30    5.20 
   3   5   4   17.10    4.80 
   3   5   4   27.80    6.80 
   4  -5   4   75.79    9.90 
  -4  -5  -4   97.19    8.10 
   4  -5   4  107.69    9.90 
   4  -5   4   85.69    9.80 
   4   5   4   92.29    9.00 
   4   5   4   95.79   10.80 
   4   5   4   94.29    8.80 
   4   5   4   77.69   10.40 
  -4   5  -4   94.69   10.30 
   4   5   4   84.69   11.20 
  -4   5  -4   85.39    9.00 
   5  -5   4   37.90    6.10 
  -5  -5  -4   58.49    6.60 
   5  -5   4   37.20    6.00 
  -5   5  -4   49.30    6.40 
   5   5   4   36.80    6.80 
   5   5   4   41.20    6.50 
   5   5   4   45.80    5.50 
   5   5   4   50.79    5.60 
   6  -5   4    2.20    1.10 
  -6  -5  -4    1.50    1.10 
   6  -5   4   -2.40    1.90 
   6   5   4   -0.90    1.40 
   6   5   4   -3.40    2.40 
   6   5   4    1.00    0.80 
   6   5   4    0.50    1.00 
   6  -6  -4   33.50    6.60 
   6   6  -4   40.60    5.40 
   6   6  -4   39.00    5.10 
  -6   6   4   35.90    5.70 
  -6   6   4   26.20    5.00 
   6   6  -4   36.00    4.90 
   5  -6  -4   11.80    5.90 
  -5  -6   4    5.20    1.70 
  -5   6   4    8.30    3.50 
   5   6  -4    6.70    3.40 
  -5   6   4   12.20    4.20 
   5   6  -4   11.80    3.40 
   5   6  -4   10.10    2.90 
   5   6  -4    2.50    2.70 
  -4  -6   4    1.80    0.80 
   4  -6  -4    3.80    1.50 
   4  -6  -4    1.70    3.10 
   4   6  -4    3.80    3.00 
   4   6  -4    6.30    2.80 
  -4   6   4    2.50    1.60 
   4   6  -4    3.00    2.00 
  -4   6   4   -2.80    2.70 
  -4   6   4    1.90    1.70 
   4   6  -4   -2.60    2.50 
  -3  -6   4   -0.20    1.00 
   3  -6  -4    0.10    1.60 
   3   6  -4    2.40    2.50 
  -3   6   4    2.10    2.40 
  -3   6   4    0.10    1.90 
  -3   6   4    4.40    2.30 
   3   6  -4    4.90    3.00 
   3   6  -4   -1.20    1.60 
  -2  -6   4  184.18   13.20 
   2  -6  -4  194.78   14.80 
   2   6  -4  226.88   17.50 
   2   6  -4  203.08   16.50 
  -2   6   4  218.18   17.40 
  -2   6   4  166.08   19.60 
  -1  -6   4   72.09    6.60 
   1  -6  -4   80.29    7.30 
   1   6  -4   99.49    9.90 
  -1   6   4   94.29    9.70 
  -1   6   4   86.49   11.40 
   1   6  -4   88.59    9.30 
   1   6  -4   85.39    9.10 
  -1   6   4   75.09    9.10 
  -1   6   4   77.69    9.00 
   1   6  -4   71.49    9.90 
   0  -6  -4  411.46   28.10 
   0  -6   4  428.56   29.00 
   0   6   4  452.85   31.60 
   0   6   4  383.76   31.40 
   0   6  -4  431.16   30.50 
   0   6  -4  412.06   31.00 
   0   6  -4  456.15   31.60 
   0   6   4  439.46   31.50 
   1  -6   4   23.20    4.60 
  -1  -6  -4   32.00    3.60 
   1  -6   4   35.20    4.80 
   1   6   4   33.80    6.40 
   1   6   4   37.50    6.10 
  -1   6  -4   38.40    5.00 
  -1   6  -4   33.50    6.00 
  -1   6  -4   37.10    5.80 
   1   6   4   26.90    6.20 
  -1   6  -4   33.10    6.60 
   2  -6   4   28.70    4.00 
   2  -6   4   22.70    6.10 
  -2  -6  -4   28.70    3.30 
   2   6   4   30.50    6.60 
  -2   6  -4   25.30    4.80 
  -2   6  -4   40.00    5.70 
   2   6   4   35.70    7.40 
  -2   6  -4   24.10    5.90 
   2   6   4   27.80    5.90 
  -2   6  -4   28.50    4.60 
   3  -6   4  248.78   17.20 
   3  -6   4  249.68   19.80 
  -3  -6  -4  235.28   16.90 
   3   6   4  264.77   21.90 
  -3   6  -4  219.98   18.70 
   3   6   4  282.07   21.60 
   3   6   4  214.98   18.10 
  -3   6  -4  255.67   20.20 
  -3   6  -4  281.57   20.90 
   3   6   4  232.48   21.70 
   4  -6   4   32.70    5.60 
   4  -6   4   24.90    5.10 
  -4  -6  -4   29.90    4.10 
   4  -6   4   25.40    5.30 
  -4   6  -4   28.70    5.50 
   4   6   4   32.90    5.50 
   4   6   4   31.10    6.60 
   4   6   4   25.60    4.30 
   4   6   4   28.70    6.70 
  -4   6  -4   22.70    4.90 
   4   6   4   28.60    6.20 
   5  -6   4   13.70    3.60 
   5  -6   4   11.80    3.10 
  -5   6  -4   10.00    3.10 
   5   6   4    7.60    2.10 
   5   6   4    6.10    1.80 
   5   6   4   12.40    3.60 
   5   6   4   13.00    4.00 
   6  -7  -4    8.20    3.10 
   6   7  -4    8.20    2.10 
  -6   7   4    7.90    2.90 
  -6   7   4   11.50    2.70 
   5  -7  -4   18.30    4.30 
   5  -7  -4   12.40    4.70 
   5   7  -4   18.70    4.80 
  -5   7   4   18.30    4.70 
   5   7  -4   11.80    4.00 
  -5   7   4   10.40    3.80 
   4  -7  -4    2.90    3.70 
   4  -7  -4    7.30    2.10 
  -4   7   4    8.10    4.00 
   4   7  -4   12.20    4.50 
  -4   7   4   14.10    5.50 
   4   7  -4   12.20    6.10 
  -4   7   4    8.20    3.10 
   4   7  -4   13.30    4.00 
   3  -7  -4   19.40    3.70 
  -3  -7   4   17.00    2.50 
   3  -7  -4   22.80    4.30 
  -3   7   4   28.40    5.30 
   3   7  -4   20.00    4.90 
  -3   7   4   13.90    4.00 
  -3   7   4   22.00    5.50 
  -3   7   4   24.80    4.50 
   3   7  -4   31.80    5.00 
   2  -7  -4    3.30    1.70 
   2  -7  -4    6.00    2.30 
  -2  -7   4    4.30    1.50 
  -2   7   4    9.40    3.50 
  -2   7   4    9.00    3.50 
   2   7  -4    4.00    3.30 
   2   7  -4   10.00    2.90 
  -2   7   4    6.90    2.70 
  -2   7   4    6.00    3.00 
   2   7  -4    7.10    2.50 
   1  -7  -4  116.19    9.80 
  -1  -7   4  115.09    9.70 
   1  -7  -4  107.19   10.40 
   1   7  -4  112.79   12.50 
  -1   7   4  116.19   11.60 
   1   7  -4  119.19   11.90 
   1   7  -4  109.39   11.20 
   1   7  -4  111.89   10.20 
  -1   7   4  115.29   11.90 
  -1   7   4  127.29   11.70 
   0  -7  -4   28.00    3.90 
   0  -7   4   27.00    4.50 
   0   7  -4   22.40    5.70 
   0   7   4   28.20    6.30 
   0   7   4   31.40    5.30 
   0   7   4   30.30    5.50 
   0   7  -4   28.30    5.00 
   0   7  -4   30.40    5.50 
   0   7  -4   23.00    4.30 
   1  -7   4  349.77   25.90 
   1  -7   4  351.66   23.90 
  -1  -7  -4  351.06   23.50 
  -1   7  -4  350.46   24.90 
   1   7   4  310.47   27.60 
  -1   7  -4  372.06   26.50 
   1   7   4  373.16   27.80 
  -1   7  -4  364.86   27.60 
  -1   7  -4  336.97   27.10 
   1   7   4  346.67   27.30 
  -2  -7  -4  165.78   11.80 
   2  -7   4  143.19   14.30 
   2  -7   4  165.78   12.60 
   2   7   4  167.88   13.00 
  -2   7  -4  147.99   15.00 
   2   7   4  157.68   15.20 
   2   7   4  168.18   16.00 
   2   7   4  159.68   16.10 
  -2   7  -4  187.58   14.90 
  -2   7  -4  160.08   15.40 
  -2   7  -4  173.28   13.70 
  -3  -7  -4   18.40    2.80 
   3  -7   4   14.40    4.00 
   3  -7   4   18.40    3.30 
   3   7   4   15.20    4.70 
   3   7   4   14.00    4.60 
  -3   7  -4   19.90    4.50 
  -3   7  -4   19.20    4.30 
  -3   7  -4   14.90    4.60 
   3   7   4   21.90    5.80 
   4  -7   4   32.40    5.30 
   4  -7   4   36.20    4.90 
   4   7   4   25.60    5.30 
  -4   7  -4   22.10    4.80 
   4   7   4   24.10    3.60 
   4   7   4   24.10    5.40 
  -4   7  -4   34.80    5.70 
   4   7   4   23.60    5.00 
   5  -7   4    5.20    2.10 
   5   7   4    4.00    2.70 
  -5   7  -4    2.20    1.80 
   5   7   4    1.60    1.20 
   5   7   4    1.10    1.50 
   5  -8  -4   16.70    4.30 
  -5   8   4   17.20    4.50 
   4  -8  -4    7.90    1.70 
   4  -8  -4    9.00    3.80 
  -4   8   4    7.10    2.50 
   4   8  -4    2.80    3.10 
  -4   8   4    9.60    4.20 
   3  -8  -4    1.30    3.00 
   3   8  -4   -0.60    2.50 
   3   8  -4    0.70    3.10 
   3   8  -4    2.00    2.90 
  -3   8   4    2.10    2.50 
  -3   8   4    0.10    3.20 
  -3   8   4    0.10    2.50 
  -2  -8   4   21.90    3.20 
   2  -8  -4   18.00    3.60 
   2   8  -4   16.90    4.10 
   2   8  -4   11.60    4.60 
  -2   8   4   24.50    4.90 
  -2   8   4   17.40    5.10 
   2   8  -4   16.70    4.50 
  -2   8   4   19.70    5.20 
   1  -8  -4   30.40    4.00 
   1  -8  -4   22.80    4.50 
  -1  -8   4   25.80    4.10 
   1   8  -4   25.20    4.40 
   1   8  -4   34.00    6.20 
  -1   8   4   27.10    6.00 
  -1   8   4   18.10    5.30 
  -1   8   4   26.20    6.00 
   1   8  -4   30.50    5.30 
   1   8  -4   39.00    6.00 
  -1   8   4   30.10    6.30 
   0  -8   4    9.70    2.90 
   0  -8  -4   15.80    3.10 
   0   8  -4   11.00    3.60 
   0   8   4    8.80    3.30 
   0   8  -4    8.80    2.40 
   0   8  -4   12.60    3.60 
   0   8   4    7.90    3.80 
   0   8   4   12.20    4.90 
   0   8  -4    8.20    2.90 
  -1  -8  -4   50.39    5.90 
   1  -8   4   48.90    7.20 
   1  -8   4   47.70    5.70 
   1   8   4   52.89    7.50 
  -1   8  -4   50.79    6.20 
   1   8   4   53.19    7.70 
   1   8   4   54.89    8.60 
  -1   8  -4   57.49    8.00 
  -1   8  -4   50.59    7.30 
  -1   8  -4   67.09    8.40 
  -2  -8  -4   11.00    2.10 
   2  -8   4   17.00    4.60 
   2  -8   4   17.60    3.30 
  -2   8  -4    6.50    2.80 
  -2   8  -4    5.00    2.50 
   2   8   4    9.70    4.40 
   2   8   4    9.20    3.40 
   2   8   4   18.60    5.50 
  -2   8  -4   11.20    3.50 
  -2   8  -4    8.40    3.00 
   3  -8   4    5.90    2.40 
   3  -8   4    2.30    1.30 
  -3  -8  -4    1.20    1.80 
   3   8   4    5.60    3.10 
  -3   8  -4    4.50    2.80 
   3   8   4    1.10    2.00 
  -3   8  -4    1.30    1.60 
  -3   8  -4    2.20    2.10 
   3   8   4    3.50    2.60 
   4  -8   4    0.50    1.70 
   4   8   4    2.20    1.70 
   4   8   4    0.20    2.30 
   4   8   4   -0.10    2.80 
  -4   8  -4    1.20    1.50 
   4   8   4   -1.60    1.60 
  -4   8  -4    0.20    1.50 
   4  -9  -4   11.00    3.30 
   4  -9  -4    8.20    2.50 
  -4   9   4   10.20    3.60 
   3  -9  -4   39.70    6.10 
   3  -9  -4   36.70    4.50 
   3   9  -4   33.60    5.50 
  -3   9   4   42.30    5.10 
   3   9  -4   30.80    6.00 
  -3   9   4   35.20    5.00 
  -3   9   4   26.00    6.30 
  -2  -9   4    8.60    2.10 
   2  -9  -4    4.70    2.80 
  -2   9   4    4.30    2.70 
  -2   9   4    5.70    3.10 
   2   9  -4    3.70    3.10 
   2   9  -4    5.40    2.10 
   2   9  -4    8.60    3.40 
  -2   9   4    8.40    2.80 
  -2   9   4    2.60    2.70 
   1  -9  -4   21.00    4.00 
   1  -9  -4   28.10    4.10 
  -1   9   4   16.60    4.00 
  -1   9   4   13.50    4.60 
   1   9  -4   14.50    4.30 
  -1   9   4   26.70    5.20 
   1   9  -4   27.30    4.90 
  -1   9   4   19.70    5.30 
   1   9  -4   18.40    4.40 
   1   9  -4   20.40    3.70 
   0  -9   4    3.40    1.60 
   0  -9  -4    4.90    1.70 
   0  -9   4    4.40    2.00 
   0  -9  -4    0.90    2.30 
   0   9  -4    5.40    3.30 
   0   9   4    6.70    2.60 
   0   9   4    4.30    2.70 
   0   9   4    3.50    2.50 
   0   9  -4    2.30    2.80 
   0   9  -4    0.70    1.90 
   0   9  -4    2.90    2.50 
  -1  -9  -4    8.10    3.10 
   1  -9   4   13.10    4.30 
   1  -9   4    8.70    2.60 
  -1   9  -4    7.80    3.20 
  -1   9  -4    6.80    3.40 
  -1   9  -4    7.60    3.40 
  -1   9  -4    9.40    2.40 
   1   9   4    8.60    3.10 
   1   9   4   11.80    3.80 
   1   9   4    6.00    2.70 
   2  -9   4    8.20    2.90 
   2  -9   4   14.20    2.80 
  -2   9  -4   15.50    3.70 
   2   9   4    9.70    3.10 
   2   9   4   11.00    3.60 
  -2   9  -4   11.10    3.40 
  -2   9  -4   10.50    3.10 
   2   9   4   13.10    4.50 
   3  -9   4   10.90    2.70 
   3  -9   4   11.20    2.00 
  -3   9  -4   11.30    3.20 
   3   9   4    5.80    2.30 
   3   9   4    2.90    2.00 
  -3   9  -4    3.00    2.00 
  -3   9  -4    7.40    2.10 
   3   9   4    6.30    2.60 
   3 -10  -4   -0.80    1.10 
   3 -10  -4    0.70    1.40 
   3  10  -4   -3.40    2.50 
  -3  10   4   -0.80    2.20 
  -3  10   4   -1.00    1.20 
   2 -10  -4   15.90    3.30 
  -2  10   4   19.60    3.40 
  -2  10   4   22.20    3.60 
   2  10  -4   22.60    3.90 
  -2  10   4   11.10    3.50 
   2  10  -4   17.80    3.30 
  -1 -10   4   14.20    2.90 
  -1  10   4   18.80    3.90 
  -1  10   4   17.80    4.60 
  -1  10   4   14.70    4.80 
   1  10  -4   20.80    3.80 
   0 -10   4   10.50    2.30 
   0 -10  -4   12.20    3.20 
   0  10   4    4.70    3.00 
   0  10  -4   10.60    2.70 
   0  10   4    9.50    3.20 
   0  10   4    8.30    2.80 
   1 -10   4    6.40    2.00 
  -1 -10  -4   10.40    5.30 
   1  10   4    4.70    2.20 
  -1  10  -4   10.80    3.10 
   1  10   4    5.90    2.00 
  -1  10  -4    3.90    2.50 
   1  10   4   12.90    3.10 
  -1  10  -4   10.70    3.00 
   2 -10   4    2.90    1.60 
   2 -10   4    3.00    1.10 
  -2  10  -4    2.50    1.50 
  -2  10  -4    3.20    2.00 
  -2  10  -4    1.10    1.30 
   2  10   4    2.50    1.60 
   2  10   4    1.90    2.20 
   2  10   4    1.40    1.70 
   1 -11  -4    0.70    2.00 
   1  11  -4    1.20    1.30 
  -1  11   4    1.70    1.40 
   1  11  -4    3.20    1.50 
  -1  11   4    4.70    1.60 
   0 -11   4   20.80    2.40 
   0 -11  -4   23.10    3.10 
   0  11  -4   15.90    2.60 
   0  11   4   13.60    2.60 
   0  11  -4   14.00    2.70 
   0  11   4   19.10    3.20 
   8   0  -5   12.70    2.30 
  -8   0   5    8.30    2.40 
  -8   0   5   10.60    2.10 
   7   0  -5    4.30    1.60 
  -7   0   5    1.10    1.80 
   7   0  -5    3.20    2.00 
   7   0  -5    1.80    2.90 
  -6   0   5    3.10    2.40 
   6   0  -5    2.00    2.90 
  -6   0   5    8.30    2.30 
   6   0  -5    4.60    2.20 
   6   0  -5   13.20    4.80 
   6   0  -5    2.70    2.50 
   5   0  -5  116.29   11.40 
   5   0  -5  128.39   13.90 
   5   0  -5   97.49   11.00 
   5   0  -5  110.29   11.50 
   5   0  -5  105.19   11.40 
  -5   0   5  117.39    9.90 
  -4   0   5  152.48   15.30 
  -4   0   5  143.39   11.20 
  -3   0   5    5.30    2.30 
  -3   0   5    4.30    1.20 
  -2   0   5   37.50    4.80 
  -2   0   5   32.90    3.10 
   1   0  -5  291.87   19.00 
  -1   0   5  263.47   18.40 
  -1   0   5  267.57   19.10 
  -1   0   5  329.97   20.70 
   0   0  -5 1096.09   69.59 
   0   0  -5 1070.99   69.69 
   0   0   5 1164.78   71.49 
   1   0   5  744.43   55.99 
  -1   0  -5  911.11   54.09 
  -1   0  -5  864.51   52.79 
   2   0   5  706.43   55.39 
  -2   0  -5  831.12   52.69 
  -2   0  -5  858.91   50.99 
  -3   0  -5   49.00    5.60 
   3   0   5   46.30    8.40 
  -3   0  -5   47.80    6.90 
  -4   0  -5    9.00    2.00 
   4   0   5    5.50    2.50 
   4   0   5    4.70    2.10 
   4   0   5    3.70    3.20 
   4   0   5    9.70    3.90 
   4   0   5   13.00    5.00 
  -4   0  -5   10.40    4.70 
   5   0   5   46.50    5.80 
  -5   0  -5   40.00    7.20 
   5   0   5   47.30    7.40 
  -5   0  -5   44.50    5.00 
   5   0   5   53.29    5.60 
   5   0   5   56.69    7.80 
   6   0   5    0.20    1.80 
   6   0   5    1.20    2.00 
  -6   0  -5    2.80    1.10 
   6   0   5    3.80    1.60 
   6   0   5    3.20    1.70 
  -8  -1   5   -0.20    1.00 
  -8  -1   5    1.30    1.00 
   8   1  -5   -0.20    1.10 
  -8   1   5    1.30    1.00 
   8   1  -5    3.40    1.60 
   7  -1  -5   15.90    4.00 
   7  -1  -5   17.90    4.50 
   7  -1  -5   23.60    4.10 
  -7  -1   5   28.90    5.00 
  -7  -1   5   25.20    3.70 
   7  -1  -5   16.90    4.20 
   7   1  -5   18.30    3.80 
   7   1  -5   15.50    4.00 
  -7   1   5   27.60    4.10 
   7   1  -5   16.80    4.40 
   6  -1  -5   29.70    5.60 
  -6  -1   5   40.60    7.30 
   6  -1  -5   30.00    5.30 
   6  -1  -5   27.90    5.40 
   6  -1  -5   20.60    6.00 
  -6  -1   5   38.30    5.30 
   6   1  -5   27.00    6.60 
   6   1  -5   33.40    5.80 
   6   1  -5   36.90    6.40 
   6   1  -5   35.60    5.90 
  -6   1   5   34.30    5.40 
  -6   1   5   33.30    5.70 
   6   1  -5   34.30    7.40 
  -6   1   5   35.80    4.90 
  -5  -1   5  132.39   10.50 
   5  -1  -5  103.79   11.70 
   5  -1  -5  117.49   11.50 
  -5  -1   5  112.99   10.80 
   5  -1  -5  135.59   14.50 
   5  -1  -5  122.79   12.40 
   5  -1  -5  132.79   12.40 
   5   1  -5  117.39   12.20 
  -5   1   5  126.19   10.40 
   5   1  -5  105.09   12.10 
   5   1  -5  104.79   11.70 
   5   1  -5  135.09   12.20 
  -5   1   5  133.29   11.10 
  -4  -1   5    9.20    2.10 
  -4  -1   5   14.60    5.10 
  -4   1   5   10.50    3.60 
  -4   1   5    9.00    2.20 
  -3  -1   5  567.44   37.60 
  -3  -1   5  592.64   41.20 
  -3   1   5  649.64   41.30 
  -3   1   5  565.34   37.80 
   2  -1  -5  124.49    9.00 
   2  -1  -5  130.69    9.40 
  -2  -1   5  134.89    9.50 
  -2  -1   5  146.29   11.70 
  -2   1   5  161.48   12.00 
  -2   1   5  130.29    9.50 
   1  -1  -5 1112.39   75.39 
   1  -1  -5 1127.49   74.29 
  -1  -1   5 1245.98   73.99 
  -1  -1   5 1277.17   74.89 
   1  -1  -5 1162.68   74.39 
  -1   1   5 1209.18   74.39 
  -1   1   5 1346.07   76.89 
   1   1  -5 1118.09   74.99 
   0  -1  -5 2645.94  179.08 
   0  -1   5 3255.77  181.48 
   0  -1  -5 2720.93  179.78 
   0  -1   5 3041.50  179.28 
   0   1  -5 2967.10  180.98 
   1  -1   5   24.00    4.30 
  -1  -1  -5   28.50    3.60 
   1  -1   5   22.10    3.40 
  -1  -1  -5   25.10    2.90 
  -1   1  -5   24.50    4.00 
   1   1   5   22.20    4.60 
  -1   1  -5   27.70    3.60 
  -2  -1  -5  147.39   10.50 
  -2  -1  -5  146.29   11.80 
   2  -1   5  130.99   13.70 
  -2   1  -5  142.89   11.30 
   2   1   5  132.69   14.90 
  -2   1  -5  146.09   12.80 
  -3  -1  -5   12.70    3.50 
  -3   1  -5   14.20    4.60 
   3   1   5   20.10    6.90 
  -3   1  -5    7.10    4.20 
   4  -1   5  207.48   18.10 
  -4  -1  -5  192.18   14.00 
   4  -1   5  195.48   15.40 
   4  -1   5  191.58   17.20 
   4  -1   5  186.18   14.80 
   4  -1   5  205.18   16.40 
   4   1   5  171.08   18.00 
   4   1   5  213.08   17.50 
  -4   1  -5  186.48   13.80 
  -4   1  -5  175.58   15.10 
   4   1   5  214.88   15.80 
   4   1   5  209.78   15.40 
   4   1   5  191.88   17.30 
   5  -1   5   83.79    9.90 
  -5  -1  -5   82.49    7.00 
  -5  -1  -5   75.79    8.70 
   5  -1   5   80.89    8.20 
   5  -1   5   86.39    9.60 
   5  -1   5   73.89    7.30 
  -5   1  -5   84.99    6.90 
   5   1   5   77.79   10.10 
   5   1   5   80.59    8.50 
   5   1   5   70.29    9.50 
   5   1   5   76.69    7.80 
  -5   1  -5   74.79    8.00 
   6  -1   5    0.50    1.70 
  -6  -1  -5   -0.50    1.00 
   6  -1   5    0.70    2.00 
   6  -1   5   -0.30    1.00 
   6   1   5    1.10    1.30 
   6   1   5    2.10    1.40 
   6   1   5   -3.20    1.70 
  -6   1  -5    0.10    0.80 
   6   1   5   -1.30    2.10 
   7  -2  -5    5.00    1.80 
   7  -2  -5    4.60    3.20 
  -7  -2   5    3.00    2.10 
  -7  -2   5    4.50    1.60 
  -7   2   5    4.80    1.40 
   7   2  -5    6.70    2.70 
  -7   2   5    2.50    2.30 
   7   2  -5    0.80    1.70 
  -7   2   5    3.70    1.70 
   7   2  -5    4.30    2.10 
  -6  -2   5   16.10    3.20 
   6  -2  -5   10.90    3.90 
   6  -2  -5   11.60    3.80 
   6  -2  -5    3.40    3.90 
  -6  -2   5   11.00    3.10 
  -6   2   5   18.80    4.40 
   6   2  -5    8.20    3.10 
  -6   2   5   14.10    3.00 
   6   2  -5   10.40    3.60 
   6   2  -5    5.40    3.40 
   6   2  -5    5.10    2.50 
   5  -2  -5   23.40    5.00 
   5  -2  -5   28.50    7.00 
  -5  -2   5   28.10    4.00 
   5   2  -5   29.50    6.60 
   5   2  -5   25.50    6.00 
  -5   2   5   21.20    4.70 
   5   2  -5   20.70    4.40 
  -5   2   5   29.20    4.80 
   5   2  -5   24.70    4.80 
  -5   2   5   25.20    4.10 
  -4  -2   5   27.00    3.30 
  -4  -2   5   33.70    6.40 
  -4   2   5   22.80    3.70 
  -4   2   5   28.10    5.50 
  -3  -2   5   87.49    7.00 
  -3  -2   5   91.59    9.60 
  -3   2   5  111.29   10.20 
  -3   2   5   88.69    7.30 
  -2  -2   5   59.79    4.60 
   2  -2  -5   55.69    4.90 
  -2  -2   5   60.19    6.40 
   2  -2  -5   59.39    4.90 
   2  -2  -5   54.19    5.70 
  -2  -2   5   55.89    4.20 
  -2   2   5   71.19    7.10 
   2   2  -5   54.79    4.50 
  -2   2   5   51.49    4.60 
  -1  -2   5 4070.79  257.37 
   1  -2  -5 4220.48  258.37 
   1  -2  -5 4109.39  257.77 
  -1  -2   5 4393.46  259.47 
  -1   2   5 4076.39  260.87 
   1   2  -5 4440.16  259.57 
   0  -2   5  425.86   29.30 
   0  -2   5  451.65   28.20 
   0  -2  -5  433.36   28.00 
   0  -2  -5  438.86   29.00 
   0   2   5  448.76   32.30 
   1  -2   5 2075.49  132.79 
  -1  -2  -5 2247.98  132.19 
   1  -2   5 2294.37  134.79 
  -1  -2  -5 2289.97  130.69 
   1   2   5 1858.61  135.89 
  -1   2  -5 1972.40  133.79 
  -2  -2  -5   67.39    7.00 
  -2   2  -5   58.69    7.60 
  -2   2  -5   66.49    8.30 
   2   2   5   71.29   10.20 
  -3  -2  -5  143.19   11.30 
   3  -2   5  141.29   12.80 
  -3  -2  -5  123.09   14.50 
   3   2   5  155.68   13.90 
   3   2   5  175.78   12.50 
   3   2   5  150.18   14.00 
  -3   2  -5  117.39   14.00 
   3   2   5  164.68   12.50 
  -3   2  -5  137.79   10.40 
  -4  -2  -5   36.60    5.20 
   4  -2   5   39.10    6.90 
   4  -2   5   54.89    6.70 
   4  -2   5   38.50    5.40 
   4  -2   5   45.90    6.80 
  -4  -2  -5   44.90    5.90 
   4   2   5   42.20    5.70 
   4   2   5   59.39    6.30 
  -4   2  -5   52.79    6.30 
   4   2   5   36.70    9.00 
   4   2   5   48.70    6.90 
   4   2   5   51.49    7.40 
  -4   2  -5   47.50    4.50 
   5  -2   5    8.80    2.60 
  -5  -2  -5   13.40    3.10 
  -5  -2  -5    8.00    2.00 
   5  -2   5    7.90    3.40 
   5  -2   5    7.20    3.10 
  -5   2  -5    4.50    1.60 
   5   2   5    4.70    2.20 
   5   2   5   13.50    4.20 
  -5   2  -5    8.90    3.30 
   5   2   5   11.00    2.90 
   5   2   5    6.80    3.50 
   6  -2   5   44.00    6.90 
  -6  -2  -5   58.09    4.80 
   6  -2   5   57.79    6.70 
   6   2   5   44.40    6.30 
  -6   2  -5   63.69    5.70 
   6   2   5   46.80    5.70 
  -6   2  -5   44.00    5.20 
   6   2   5   43.40    5.20 
  -7  -3   5    2.80    1.90 
   7  -3  -5    4.30    3.20 
  -7   3   5    5.60    2.80 
  -7   3   5    4.80    2.10 
   7   3  -5    8.60    3.10 
   7   3  -5    0.50    2.40 
   7   3  -5    2.60    1.70 
   6  -3  -5   31.20    8.50 
   6  -3  -5   44.00    6.80 
  -6  -3   5   57.39    5.60 
   6   3  -5   42.50    7.00 
  -6   3   5   42.00    6.60 
   6   3  -5   49.99    7.20 
  -6   3   5   50.29    5.00 
   6   3  -5   47.10    7.40 
  -6   3   5   44.20    6.80 
  -5  -3   5   31.70    4.10 
   5  -3  -5   25.20    5.50 
   5  -3  -5   31.80    6.00 
  -5   3   5   34.10    6.00 
   5   3  -5   18.60    5.20 
   5   3  -5   34.20    5.90 
   5   3  -5   33.70    5.30 
  -5   3   5   31.40    4.20 
  -4  -3   5    3.70    1.30 
   4  -3  -5    5.50    3.90 
   4  -3  -5    5.70    3.30 
   4   3  -5   -0.70    2.40 
   4   3  -5    6.70    3.00 
   4   3  -5    3.30    2.50 
   4   3  -5    0.90    2.00 
  -4   3   5    6.10    1.80 
  -3  -3   5  228.38   18.90 
  -3  -3   5  223.58   15.50 
   3  -3  -5  223.48   16.10 
  -3   3   5  264.57   19.80 
  -2  -3   5  397.86   24.70 
   2  -3  -5  363.96   25.70 
  -2  -3   5  390.76   27.10 
   2  -3  -5  394.86   25.40 
  -2   3   5  395.36   28.50 
   2   3  -5  387.36   26.00 
  -1  -3   5  501.65   32.10 
  -1  -3   5  544.05   33.20 
   1  -3  -5  505.65   32.60 
   1  -3  -5  485.55   33.40 
   1   3  -5  529.75   35.10 
  -1   3   5  495.95   36.60 
   0  -3   5 1092.69   76.49 
   0  -3  -5 1238.68   75.99 
   0  -3  -5 1260.97   74.59 
   0  -3   5 1285.47   74.79 
   0   3  -5 1184.98   78.09 
   0   3   5 1147.89   80.19 
  -1  -3  -5 1010.50   61.09 
  -1  -3  -5 1024.90   59.09 
   1  -3   5  927.81   60.09 
   1   3   5  814.42   65.19 
  -2  -3  -5 1128.29   74.39 
  -2  -3  -5 1304.57   72.39 
   2  -3   5 1150.68   73.79 
   2   3   5 1160.18   81.49 
  -2   3  -5 1024.20   77.29 
   3  -3   5   67.39    8.80 
   3  -3   5   63.29    7.20 
   3  -3   5   86.69    8.50 
  -3  -3  -5   67.79    6.50 
   3   3   5   80.29   10.50 
  -3   3  -5   68.79    8.20 
   3   3   5   76.19   10.00 
  -3   3  -5   71.29    5.80 
   3   3   5   70.99    7.70 
   3   3   5   69.19    7.80 
   3   3   5   72.69    9.30 
  -4  -3  -5    3.80    2.30 
   4  -3   5    7.10    2.90 
   4  -3   5    4.60    1.90 
   4  -3   5    8.10    3.20 
   4  -3   5   -0.40    2.80 
   4   3   5   12.90    3.70 
  -4   3  -5    3.20    1.20 
  -4   3  -5    0.10    3.10 
   4   3   5    6.80    4.50 
   4   3   5    5.80    3.10 
   4   3   5    2.40    2.10 
   4   3   5    4.00    2.80 
  -5  -3  -5   50.69    5.30 
   5  -3   5   50.49    7.40 
   5  -3   5   41.40    6.90 
  -5  -3  -5   62.89    6.90 
   5   3   5   54.69    8.60 
   5   3   5   54.59    6.90 
  -5   3  -5   50.19    6.50 
   5   3   5   28.70    9.70 
   5   3   5   58.49    8.00 
  -5   3  -5   56.69    6.40 
  -6  -3  -5   -1.00    1.00 
   6  -3   5   -0.10    1.50 
   6  -3   5   -1.70    1.90 
   6   3   5   -3.00    2.10 
   6   3   5    2.30    1.40 
  -6   3  -5    2.60    1.60 
   6   3   5    0.20    1.80 
   6   3   5    2.70    1.60 
  -7  -4   5    9.60    2.40 
   7  -4  -5    4.50    2.50 
   7   4  -5   14.90    3.20 
  -7   4   5   13.00    3.40 
   7   4  -5    8.30    2.40 
   7   4  -5   21.60    4.50 
   6  -4  -5    8.90    4.30 
   6   4  -5   13.10    3.80 
  -6   4   5   15.30    4.30 
   6   4  -5   15.40    3.90 
   6   4  -5   22.80    5.30 
   6   4  -5   14.70    4.00 
  -6   4   5   10.80    3.80 
  -5  -4   5   54.89    5.10 
   5  -4  -5   41.00    8.00 
   5   4  -5   51.39    7.00 
   5   4  -5   49.40    7.10 
   5   4  -5   39.10    6.70 
   5   4  -5   47.00    6.90 
  -5   4   5   50.69    7.40 
  -5   4   5   47.00    6.30 
   4  -4  -5    6.30    3.90 
  -4  -4   5    6.50    2.30 
  -4   4   5    7.00    3.10 
   4   4  -5    4.60    2.80 
   4   4  -5    4.60    2.60 
   4   4  -5    1.30    3.40 
   4   4  -5    6.80    3.50 
  -4   4   5   10.80    3.80 
   3  -4  -5   24.20    4.20 
  -3  -4   5   31.50    5.60 
   3  -4  -5   22.90    4.50 
  -3  -4   5   31.50    3.00 
  -3   4   5   31.50    7.10 
   2  -4  -5  402.66   29.90 
  -2  -4   5  478.95   30.70 
  -2  -4   5  450.15   28.30 
   2  -4  -5  447.66   29.20 
   2   4  -5  455.85   30.90 
  -2   4   5  435.06   33.40 
  -1  -4   5  191.88   14.00 
  -1  -4   5  203.28   14.00 
   1  -4  -5  214.08   14.50 
   1  -4  -5  206.58   15.60 
   1   4  -5  224.88   17.60 
  -1   4   5  221.58   19.70 
   0  -4  -5   99.09    8.90 
   0  -4   5  105.69    7.90 
   0  -4  -5  101.09    7.50 
   0   4  -5  100.59   10.60 
   0   4   5   76.99   11.20 
   1  -4   5  259.87   19.40 
  -1  -4  -5  289.67   20.10 
  -1  -4  -5  292.57   17.80 
   1   4   5  231.58   24.20 
  -1   4  -5  242.28   22.40 
   2  -4   5   97.99    8.50 
  -2  -4  -5   76.39   11.10 
  -2  -4  -5   92.59    7.60 
   2  -4   5   95.39    9.30 
  -2   4  -5  118.29   12.80 
   2   4   5  103.69   18.10 
   2   4   5  107.49   11.20 
   2   4   5   90.59   11.00 
  -3  -4  -5   80.79    7.40 
   3  -4   5   79.49    6.80 
   3  -4   5   84.49    9.10 
   3   4   5   92.49    8.60 
   3   4   5   97.19    9.50 
   3   4   5   80.19   10.30 
  -3   4  -5   98.69    9.60 
  -3   4  -5   84.59    8.70 
   3   4   5   77.29   11.10 
   3   4   5   92.49    8.60 
   4  -4   5   40.50    6.00 
   4  -4   5   34.00    5.90 
   4  -4   5   32.20    5.90 
  -4  -4  -5   40.90    4.70 
   4   4   5   29.10    7.50 
  -4   4  -5   30.30    5.70 
   4   4   5   40.80    6.20 
   4   4   5   38.30    5.20 
   4   4   5   38.30    5.20 
   4   4   5   25.90    6.60 
  -5  -4  -5   27.30    6.20 
  -5  -4  -5   20.90    3.50 
   5  -4   5   12.20    3.60 
   5   4   5   19.30    3.50 
   5   4   5   17.20    4.10 
   5   4   5   22.50    5.20 
   5   4   5   12.00    2.70 
  -5   4  -5   17.10    3.90 
   6  -4   5   15.80    2.70 
  -6  -4  -5   14.00    2.30 
   6  -4   5   14.80    3.40 
   6   4   5   19.00    2.80 
  -6   4  -5   12.00    2.80 
   6   4   5   14.50    2.60 
   6   4   5   12.40    2.90 
   6   4   5   11.10    2.60 
   7  -5  -5    8.70    3.30 
   7   5  -5   14.40    2.90 
   7   5  -5    8.30    2.50 
  -7   5   5   13.50    2.80 
   7   5  -5    7.60    2.50 
  -6   5   5   67.69    8.00 
  -6   5   5   55.79    6.50 
   6   5  -5   53.79    6.40 
   6   5  -5   48.00    6.90 
   6   5  -5   51.69    6.80 
   6   5  -5   63.69    7.20 
   5  -5  -5    1.60    3.30 
  -5  -5   5    7.90    1.80 
   5   5  -5    4.00    2.70 
   5   5  -5    8.70    2.80 
   5   5  -5    9.40    4.40 
   5   5  -5   11.60    3.50 
  -5   5   5    5.70    2.80 
  -5   5   5    4.70    2.70 
  -4  -5   5   11.10    2.00 
   4  -5  -5    9.90    2.30 
   4  -5  -5    7.20    3.70 
   4   5  -5    8.60    3.60 
   4   5  -5   17.20    3.90 
  -4   5   5    5.50    2.80 
   4   5  -5   12.80    3.60 
  -4   5   5   13.60    3.70 
   4   5  -5   13.30    2.90 
  -3  -5   5   79.19    5.80 
   3  -5  -5   79.49    7.90 
   3  -5  -5   63.89    6.80 
  -3   5   5   64.29    8.50 
  -3   5   5   80.79    9.60 
   3   5  -5   64.79    8.70 
  -3   5   5   82.39    9.70 
   3   5  -5   83.69    9.20 
   2  -5  -5   29.70    5.30 
   2  -5  -5   38.10    4.20 
  -2  -5   5   37.40    3.30 
  -2   5   5   46.40    9.20 
   2   5  -5   52.49   10.10 
   2   5  -5   29.40    6.10 
  -2   5   5   33.30    7.60 
   1  -5  -5  233.28   18.50 
  -1  -5   5  245.48   16.40 
   1  -5  -5  237.08   16.80 
   1   5  -5  254.67   21.00 
   0  -5  -5  384.96   28.80 
   0  -5   5  395.06   25.90 
   0  -5  -5  390.56   25.20 
   0   5   5  356.06   32.50 
   0   5  -5  382.76   30.60 
  -1  -5  -5   24.90    3.00 
   1  -5   5   16.90    3.80 
   1   5   5   30.10    6.70 
  -1   5  -5   31.70    5.20 
   1   5   5   30.90    5.20 
   1   5   5   18.90    6.50 
  -1   5  -5   13.00    6.10 
  -1   5  -5   15.40    3.60 
   2  -5   5  138.09   10.60 
   2  -5   5  144.19   12.40 
  -2  -5  -5  125.19   10.20 
   2  -5   5  107.69   11.80 
  -2   5  -5  136.19   13.00 
  -2   5  -5  153.98   14.60 
   2   5   5  168.48   14.10 
   2   5   5  126.59   11.30 
  -2   5  -5  147.89   12.50 
   2   5   5  137.09   14.00 
   2   5   5  136.09   14.90 
   3  -5   5   56.89   11.60 
   3  -5   5   51.69    5.80 
  -3  -5  -5   58.29    5.50 
  -3   5  -5   60.69    7.90 
  -3   5  -5   53.09    6.90 
   3   5   5   62.29    9.50 
   3   5   5   59.59    7.80 
   3   5   5   62.59   14.00 
   3   5   5   53.99    6.20 
   4  -5   5    6.30    3.20 
   4  -5   5    5.40    2.70 
  -4  -5  -5    4.50    1.70 
   4   5   5    4.10    1.70 
   4   5   5    4.80    2.90 
   4   5   5    5.10    3.70 
   4   5   5    0.80    2.70 
  -4   5  -5    3.60    2.80 
   4   5   5    4.20    2.30 
   5  -5   5    6.20    3.20 
   5  -5   5    9.60    3.00 
  -5  -5  -5   11.40    2.20 
   5   5   5    5.10    2.40 
   5   5   5    7.00    1.90 
  -5   5  -5   14.50    3.60 
   5   5   5    8.10    3.10 
   5   5   5    9.50    2.50 
   6  -5   5    0.30    1.20 
  -6  -5  -5    1.20    0.90 
  -6   5  -5    0.80    1.10 
   6   5   5    2.10    3.10 
   6   5   5    1.20    0.80 
   6   5   5    2.50    1.20 
   6   5   5    2.60    1.10 
   6  -6  -5    7.80    4.90 
   6   6  -5   11.00    2.80 
   6   6  -5    9.40    2.80 
  -6   6   5    5.20    2.30 
   6   6  -5   14.10    3.50 
  -6   6   5   18.40    5.50 
  -5  -6   5   48.20    6.00 
  -5   6   5   46.60    7.30 
   5   6  -5   36.50    6.20 
   5   6  -5   48.90    6.90 
   5   6  -5   42.60    6.10 
  -5   6   5   35.70    6.60 
   5   6  -5   46.10    6.60 
  -4  -6   5   49.40    4.30 
   4  -6  -5   56.09    5.50 
   4  -6  -5   58.19    8.80 
  -4   6   5   50.79    7.90 
  -4   6   5   62.59    6.70 
   4   6  -5   49.10    7.40 
   4   6  -5   51.59    7.10 
  -4   6   5   39.50    7.30 
   4   6  -5   50.09    6.90 
   4   6  -5   48.50    6.80 
   3  -6  -5    9.40    3.00 
  -3  -6   5   14.90    2.00 
   3  -6  -5    9.80    2.80 
  -3   6   5   15.90    3.60 
  -3   6   5   13.80    4.20 
   3   6  -5    7.00    3.00 
   3   6  -5   14.60    4.20 
   3   6  -5   16.10    3.90 
  -3   6   5   21.90    6.00 
   2  -6  -5  120.19    9.60 
   2  -6  -5   99.99   10.10 
  -2  -6   5  110.59    8.60 
   2   6  -5  127.19   11.60 
  -2   6   5  104.59   11.60 
   2   6  -5   87.99   11.70 
  -2   6   5  128.89   12.40 
   2   6  -5  113.99   12.30 
  -2   6   5  123.39   11.30 
  -2   6   5   93.09   11.90 
  -1  -6   5  101.39    8.20 
   1  -6  -5   98.49    8.40 
   1  -6  -5   86.89    9.70 
   1   6  -5  113.39   11.20 
  -1   6   5   86.79   14.40 
   1   6  -5  112.79   11.20 
   1   6  -5   79.89    9.80 
  -1   6   5  114.49   13.60 
  -1   6   5   99.69   10.90 
   0  -6   5  200.18   15.20 
   0  -6  -5  200.78   14.20 
   0   6  -5  201.28   17.30 
   0   6  -5  184.58   14.70 
   0   6   5  186.38   17.40 
   0   6   5  189.68   17.90 
   0   6  -5  217.18   16.50 
   0   6  -5  182.98   16.60 
   0   6   5  197.78   17.30 
  -1  -6  -5  254.07   17.50 
   1  -6   5  249.97   17.60 
   1   6   5  256.87   20.90 
   1   6   5  217.18   18.90 
  -1   6  -5  247.68   20.50 
  -1   6  -5  251.27   18.60 
  -1   6  -5  249.08   20.50 
   1   6   5  240.98   21.10 
  -1   6  -5  294.97   20.30 
   1   6   5  230.78   21.80 
   2  -6   5   95.49   10.20 
   2  -6   5  101.09    9.70 
   2  -6   5  106.79    8.30 
  -2  -6  -5   91.69    7.80 
  -2   6  -5   83.39    9.80 
  -2   6  -5   87.39    9.40 
   2   6   5  106.39   10.90 
   2   6   5   85.19    8.50 
   2   6   5   90.49   12.00 
   2   6   5   89.49   11.20 
  -2   6  -5   91.89   10.50 
   3  -6   5   30.00    3.80 
   3  -6   5   24.90    5.20 
  -3  -6  -5   32.70    4.90 
  -3   6  -5   37.50    5.20 
   3   6   5   37.00    7.20 
   3   6   5   24.60    4.20 
   3   6   5   28.30    6.70 
  -3   6  -5   24.00    5.50 
  -3   6  -5   34.30    6.90 
   3   6   5   34.40    7.00 
   4  -6   5   16.10    4.60 
   4  -6   5   22.10    4.10 
  -4  -6  -5   14.40    3.10 
  -4   6  -5   17.50    3.50 
   4   6   5   13.80    5.20 
   4   6   5   17.80    3.70 
   4   6   5   15.10    4.10 
   4   6   5   20.90    4.50 
  -4   6  -5   13.10    3.90 
   5  -6   5    3.80    1.60 
   5   6   5    3.30    2.20 
   5   6   5    1.10    1.60 
   5   6   5    3.10    1.30 
  -5   6  -5    2.60    1.60 
   5   6   5    1.10    1.20 
   6  -7  -5    1.70    1.90 
  -6   7   5    1.30    2.50 
   6   7  -5    1.20    1.60 
   5  -7  -5   -1.60    1.50 
   5   7  -5    2.20    2.70 
   5   7  -5   -2.30    2.00 
   5   7  -5    0.90    3.10 
  -5   7   5    1.10    1.70 
  -4  -7   5   31.70    3.50 
   4  -7  -5   39.30    4.60 
   4  -7  -5   47.00   11.30 
   4   7  -5   34.80    6.00 
   4   7  -5   22.40    4.80 
   4   7  -5   38.50    6.60 
  -4   7   5   33.60    5.60 
  -3  -7   5    7.20    1.60 
  -3   7   5    5.90    3.40 
  -3   7   5    8.90    3.30 
   3   7  -5    2.30    3.20 
   3   7  -5    6.50    5.60 
   3   7  -5   11.80    3.70 
  -3   7   5    8.00    3.20 
  -3   7   5    7.20    3.40 
   2  -7  -5   38.30    5.70 
  -2  -7   5   31.30    4.10 
   2  -7  -5   41.10    5.00 
   2   7  -5   45.10    8.60 
  -2   7   5   46.50   12.00 
  -2   7   5   29.50    5.90 
   2   7  -5   43.70    6.40 
  -2   7   5   47.10    9.40 
   2   7  -5   46.70    7.00 
  -2   7   5   44.20    6.80 
  -1  -7   5  178.38   14.60 
   1  -7  -5  168.48   15.20 
   1  -7  -5  210.18   14.80 
  -1   7   5  162.18   17.00 
   1   7  -5  204.08   15.90 
  -1   7   5  193.18   17.00 
   1   7  -5  201.88   17.10 
  -1   7   5  217.88   17.90 
  -1   7   5  172.88   17.20 
   1   7  -5  214.88   18.10 
   1   7  -5  207.28   16.50 
   0  -7   5  181.08   14.90 
   0  -7  -5  185.18   13.70 
   0   7  -5  198.18   17.10 
   0   7   5  184.88   16.60 
   0   7   5  167.88   16.40 
   0   7  -5  182.38   15.60 
   0   7  -5  183.58   14.10 
   0   7  -5  187.68   16.40 
   0   7   5  158.98   17.00 
   1  -7   5  135.49   12.50 
  -1  -7  -5  143.89   10.60 
   1  -7   5  132.39   10.90 
  -1   7  -5  139.79   11.70 
   1   7   5  134.29   13.70 
  -1   7  -5  130.89   13.40 
  -1   7  -5  149.09   13.10 
  -1   7  -5  127.69   13.20 
   1   7   5  130.19   14.10 
   1   7   5  132.19   14.70 
   2  -7   5   30.40    4.40 
   2  -7   5   37.20    5.90 
   2  -7   5   37.90    9.00 
   2   7   5   38.10    8.70 
  -2   7  -5   34.90    6.20 
   2   7   5   39.30    7.20 
   2   7   5   32.00    4.60 
  -2   7  -5   44.70    6.10 
  -2   7  -5   34.70    5.60 
   2   7   5   36.10    6.50 
  -3  -7  -5   34.80    4.20 
   3  -7   5   41.90    6.70 
   3  -7   5   32.90    4.10 
  -3   7  -5   39.40    6.80 
   3   7   5   34.20    6.70 
   3   7   5   37.80    8.20 
   3   7   5   33.20    4.60 
  -3   7  -5   26.40    5.30 
   3   7   5   41.10    7.50 
  -3   7  -5   31.20    5.10 
   4  -7   5   43.20    5.10 
   4  -7   5   35.50    5.70 
   4   7   5   28.50    5.90 
   4   7   5   40.30    5.40 
  -4   7  -5   28.80    4.50 
  -4   7  -5   32.70    5.30 
   4   7   5   21.80    5.40 
  -5  -7  -5   -0.20    2.80 
   5  -7   5    3.40    1.60 
   5   7   5    2.50    0.90 
   5   7   5    5.40    2.30 
   5   7   5    2.80    2.00 
  -5   7  -5    3.80    1.70 
   5  -8  -5   -0.20    2.00 
   5   8  -5   -1.00    2.50 
  -5   8   5    3.00    2.50 
   4  -8  -5    6.20    2.60 
  -4   8   5    7.80    3.00 
   4   8  -5    2.00    2.20 
   4   8  -5    3.60    2.40 
  -4   8   5    3.30    2.30 
  -3  -8   5   28.70    4.10 
   3  -8  -5   23.40    6.00 
   3  -8  -5   30.70    5.20 
   3   8  -5   28.30    5.70 
   3   8  -5   17.00    4.60 
  -3   8   5   30.10    5.50 
  -3   8   5   37.90    5.20 
   2  -8  -5    6.80    2.40 
  -2  -8   5    6.20    1.90 
   2  -8  -5   11.80    3.20 
   2   8  -5   14.40    4.80 
  -2   8   5   11.50    3.30 
  -2   8   5   12.90    3.90 
   2   8  -5   12.80    3.60 
  -2   8   5   10.20    3.80 
   2   8  -5   17.30    4.40 
  -2   8   5    7.80    4.20 
   1  -8  -5   12.20    3.70 
   1  -8  -5   19.30    3.60 
  -1  -8   5   18.80    3.80 
  -1   8   5   22.50    5.90 
   1   8  -5   19.00    3.70 
  -1   8   5   16.10    5.40 
   1   8  -5   15.50    3.60 
   1   8  -5   23.20    5.30 
  -1   8   5   12.10    4.90 
  -1   8   5   29.90    5.30 
   0  -8  -5   30.10    5.50 
   0  -8  -5   40.40    4.90 
   0  -8   5   37.40    5.40 
   0  -8   5   46.40    5.90 
   0   8  -5   37.50    5.90 
   0   8  -5   41.80    7.30 
   0   8  -5   38.80    6.40 
   0   8   5   40.80    7.20 
   0   8   5   45.00    7.70 
   0   8   5   39.80    7.00 
   0   8  -5   41.10    5.40 
   1  -8   5   57.69    6.20 
   1  -8   5   62.79    7.70 
  -1  -8  -5   68.09    5.90 
  -1   8  -5   61.79    6.70 
  -1   8  -5   54.89    8.00 
  -1   8  -5   55.09    8.10 
  -1   8  -5   64.69    7.90 
   1   8   5   62.89    9.40 
   1   8   5   56.89    8.20 
   1   8   5   61.29    8.80 
   2  -8   5    7.00    4.30 
   2  -8   5    3.40    2.50 
   2  -8   5    6.80    1.90 
   2   8   5    0.50    2.60 
  -2   8  -5    6.20    2.80 
  -2   8  -5    2.50    2.00 
  -2   8  -5    3.60    2.70 
   2   8   5    4.20    2.80 
   2   8   5    2.20    2.40 
   3  -8   5    3.30    1.20 
   3  -8   5    3.00    2.20 
   3   8   5    0.90    2.30 
   3   8   5    6.30    2.50 
   3   8   5    2.90    2.00 
   3   8   5    0.80    2.80 
  -3   8  -5    3.80    1.90 
  -3   8  -5    4.40    2.20 
  -3   8  -5    1.10    1.80 
   4  -8   5    4.20    1.70 
   4  -8   5    4.80    1.80 
   4   8   5    1.30    4.30 
  -4   8  -5    3.60    2.00 
   4   8   5    4.40    2.70 
   4   8   5    5.60    1.90 
  -4   8  -5    2.60    1.40 
   4   8   5    3.00    2.00 
   4  -9  -5   -1.60    1.80 
   4  -9  -5   -1.50    1.20 
  -4   9   5   -1.40    2.20 
   4   9  -5    1.50    2.30 
   3  -9  -5   27.00    3.70 
   3  -9  -5   20.70    5.50 
  -3   9   5   22.60    4.00 
  -3   9   5   27.40    5.00 
   3   9  -5   14.80    4.00 
   2   9  -5    8.10    2.40 
  -2   9   5    8.80    3.20 
  -2   9   5    4.60    3.20 
  -2   9   5   10.10    3.10 
   2   9  -5    6.10    3.50 
   2   9  -5   11.10    3.50 
  -2   9   5    9.10    4.00 
   1  -9  -5   38.40    4.80 
   1  -9  -5   27.60    6.00 
  -1  -9   5   30.90    5.10 
  -1   9   5   34.90    5.90 
  -1   9   5   39.90    6.30 
   1   9  -5   34.40    5.40 
  -1   9   5   31.80    5.90 
   1   9  -5   35.00    5.40 
   0  -9   5   12.80    3.50 
   0  -9  -5   17.20    3.20 
   0  -9   5   24.20    3.90 
   0   9   5   20.60    5.40 
   0   9  -5   24.60    5.30 
   0   9  -5   24.10    4.30 
   0   9  -5   14.40    3.00 
   0   9   5   18.20    4.90 
   0   9   5   15.60    4.50 
   0   9  -5   16.30    4.30 
   1  -9   5    0.10    1.20 
   1  -9   5    1.90    1.70 
   1   9   5   -1.40    1.80 
   1   9   5   -0.50    1.70 
  -1   9  -5    0.10    1.70 
  -1   9  -5   -2.60    2.10 
  -1   9  -5   -1.70    1.70 
   2  -9   5    5.50    3.00 
   2  -9   5    3.90    1.60 
   2   9   5    2.00    1.90 
   2   9   5    5.30    2.50 
  -2   9  -5    3.10    1.80 
   2   9   5    3.80    2.30 
  -2   9  -5    6.70    2.50 
  -2   9  -5    2.40    1.90 
   3  -9   5    3.50    1.90 
   3  -9   5    3.90    1.50 
   3   9   5    2.80    1.70 
   3   9   5    2.90    1.80 
  -3   9  -5    1.60    1.40 
  -3   9  -5    2.10    1.50 
   3   9   5    3.20    2.00 
   3 -10  -5    2.30    1.80 
   3 -10  -5    3.80    1.20 
   3  10  -5    4.50    2.00 
  -3  10   5    4.00    1.40 
  -3  10   5    4.40    2.40 
   2 -10  -5    4.00    1.70 
   2 -10  -5    2.30    2.00 
   2  10  -5    5.80    1.90 
   2  10  -5    1.10    1.30 
  -2  10   5   -0.20    1.50 
  -2  10   5   -1.80    1.30 
   2  10  -5    1.20    1.70 
  -2  10   5   -0.60    2.90 
  -1 -10   5   28.30    5.20 
  -1  10   5   20.80    4.00 
  -1  10   5   23.60    4.60 
   1  10  -5   26.00    4.10 
  -1  10   5   26.70    4.30 
   1  10  -5   23.00    3.80 
   0 -10   5   27.30    3.30 
   0 -10  -5   31.00    4.70 
   0  10   5   23.70    4.60 
   0  10   5   21.00    4.00 
   0  10  -5   19.00    4.30 
   0  10   5   23.30    4.50 
   0  10  -5   23.00    3.80 
   0  10  -5   24.50    4.30 
   1 -10   5    7.40    1.70 
   1 -10   5    6.10    2.00 
  -1 -10  -5    1.50    2.90 
   1  10   5    1.90    2.10 
   1  10   5   10.90    2.50 
   1  10   5    4.00    2.10 
  -1  10  -5    7.20    2.20 
  -1  10  -5    3.90    1.90 
  -1  10  -5    6.40    2.40 
   2 -10   5    5.70    1.70 
   2 -10   5    1.50    1.30 
  -2 -10  -5    1.00    3.80 
  -2  10  -5    2.60    1.90 
  -2  10  -5    3.50    1.60 
   2  10   5    2.80    1.40 
  -2  10  -5    3.80    1.70 
   2  10   5   -0.40    1.60 
   2  10   5    1.30    1.80 
  -7   0   6    3.30    1.80 
   7   0  -6    1.80    1.80 
   7   0  -6    1.60    2.30 
  -7   0   6    0.10    1.30 
   7   0  -6    0.10    2.70 
   7   0  -6    2.60    1.70 
   6   0  -6   15.50    4.60 
   6   0  -6    8.20    3.80 
  -6   0   6   14.70    3.00 
   6   0  -6    7.40    4.90 
   6   0  -6   14.20    3.20 
   6   0  -6   10.50    3.80 
  -6   0   6    8.60    2.70 
   5   0  -6   17.20    4.50 
   5   0  -6   20.00    4.30 
  -5   0   6   15.50    3.60 
   5   0  -6    9.30    3.90 
   5   0  -6   13.30    6.50 
  -5   0   6   15.00    3.00 
   5   0  -6   11.40    3.40 
  -4   0   6   15.80    2.80 
  -4   0   6   16.80    5.50 
  -3   0   6  215.68   15.80 
  -3   0   6  250.17   19.30 
  -2   0   6    8.90    1.60 
  -2   0   6   13.20    3.00 
   1   0  -6   23.50    3.00 
  -1   0   6   22.60    3.80 
  -1   0   6   20.90    2.50 
   0   0  -6  921.01   59.09 
   0   0  -6 1003.40   60.29 
   0   0   6  936.81   62.19 
   0   0   6  927.41   59.19 
  -1   0  -6 1150.28   76.49 
   1   0   6 1097.29   76.79 
  -1   0  -6 1228.48   72.59 
   2   0   6   44.70    7.80 
  -2   0  -6   42.10    5.90 
   3   0   6   22.70    3.60 
   3   0   6   13.80    3.60 
   3   0   6   20.80    5.80 
  -3   0  -6   12.70    3.10 
   3   0   6   10.40    4.90 
  -3   0  -6   17.30    3.20 
   3   0   6   14.30    3.40 
   3   0   6   24.50    5.10 
  -4   0  -6   87.59    9.60 
  -4   0  -6  112.89   10.20 
   4   0   6   88.89   11.20 
   4   0   6   96.09    8.60 
   4   0   6  104.69   11.80 
   4   0   6   98.39   12.00 
   4   0   6   97.09   10.70 
   5   0   6   -1.50    2.90 
   5   0   6   -0.60    1.40 
  -5   0  -6    2.20    6.00 
   5   0   6    0.50    2.00 
  -5   0  -6    2.10    1.40 
   5   0   6    6.70    2.80 
  -6   0  -6    6.80    1.30 
   6   0   6    8.70    2.60 
   6   0   6    5.60    1.70 
   7  -1  -6   12.00    3.20 
  -7  -1   6    4.40    2.70 
   7  -1  -6   11.30    3.10 
   7  -1  -6    5.80    2.90 
   7  -1  -6    8.30    2.90 
  -7   1   6   16.40    2.90 
  -7   1   6   12.10    3.00 
   7   1  -6    8.60    2.40 
   7   1  -6   12.80    3.40 
   7   1  -6    9.80    2.90 
  -6  -1   6    8.80    2.70 
   6  -1  -6    7.30    4.20 
  -6  -1   6   10.70    3.00 
   6  -1  -6   12.20    3.40 
   6  -1  -6   12.70    3.40 
   6  -1  -6   10.50    3.30 
   6   1  -6    6.40    3.20 
  -6   1   6   10.30    3.10 
   6   1  -6    7.20    3.60 
   6   1  -6    4.60    2.90 
   6   1  -6    5.70    3.50 
  -6   1   6   13.20    2.70 
  -6   1   6    5.60    2.40 
   5  -1  -6   13.80    4.00 
   5  -1  -6   26.20    6.10 
   5  -1  -6   19.10    4.10 
   5  -1  -6   18.50    5.30 
  -5  -1   6   19.10    3.90 
  -5  -1   6   25.70    3.70 
   5  -1  -6   19.20    4.30 
   5   1  -6   15.70    4.50 
  -5   1   6   17.10    3.50 
  -5   1   6   22.30    3.90 
   5   1  -6   19.70    5.00 
   5   1  -6   28.80    4.80 
   5   1  -6   27.30    5.30 
  -4  -1   6   68.19    6.10 
   4  -1  -6   48.40    8.30 
  -4  -1   6   80.59   13.00 
   4   1  -6   61.99    8.80 
   4   1  -6   71.19    8.20 
   4   1  -6   52.29    7.80 
  -4   1   6   67.59    6.20 
   4   1  -6   64.09    8.50 
  -3  -1   6  145.89   13.50 
  -3  -1   6  141.69   10.80 
  -3   1   6  161.08   13.90 
  -3   1   6  136.99   10.60 
   2  -1  -6  646.24   39.60 
  -2  -1   6  635.94   39.90 
   2  -1  -6  578.94   40.20 
  -2   1   6  690.33   47.10 
  -2   1   6  623.64   39.90 
  -1  -1   6 4356.16  265.17 
  -1  -1   6 4756.92  267.57 
   1  -1  -6 4401.36  265.77 
   1  -1  -6 4130.89  265.37 
  -1   1   6 3975.70  265.17 
  -1   1   6 4500.35  268.57 
   1   1  -6 4263.07  266.87 
   0  -1  -6 1047.20   68.79 
   0  -1   6 1071.69   70.29 
   0  -1  -6 1030.90   68.79 
   0  -1   6 1087.49   68.19 
   0   1   6 1148.49   72.19 
   0   1  -6 1166.98   70.19 
   1  -1   6  252.97   22.90 
   1  -1   6  288.47   20.60 
  -1  -1  -6  304.87   21.40 
  -1  -1  -6  301.87   20.00 
  -1   1  -6  313.17   22.50 
   1   1   6  344.27   28.10 
  -1   1  -6  315.87   21.00 
  -2  -1  -6  525.95   33.70 
  -2  -1  -6  503.55   35.30 
   2   1   6  446.36   39.70 
  -2   1  -6  542.65   37.10 
  -2   1  -6  558.54   34.80 
   3  -1   6   32.30    5.70 
   3  -1   6   17.90    7.20 
  -3  -1  -6   27.60    3.80 
   3  -1   6   29.40    5.70 
   3   1   6   35.60    8.30 
  -3   1  -6   32.60   11.00 
   3   1   6   21.90    5.20 
   3   1   6   24.50    4.50 
   3   1   6   27.80    5.70 
   4  -1   6  136.39   14.50 
  -4  -1  -6  157.88   13.20 
   4  -1   6  186.98   15.80 
   4  -1   6  127.29   11.60 
   4  -1   6  178.68   15.50 
   4  -1   6  119.29   16.20 
   4   1   6  151.78   13.60 
   4   1   6  177.88   16.10 
   4   1   6  146.49   15.60 
  -4   1  -6  140.29   14.80 
   5  -1   6    5.10    6.00 
   5  -1   6    0.30    1.70 
   5  -1   6    5.30    3.10 
   5  -1   6    1.60    2.90 
  -5  -1  -6   -3.30    3.00 
   5  -1   6    1.00    2.50 
   5   1   6   -0.70    2.00 
   5   1   6    3.60    2.50 
   5   1   6    2.90    3.30 
   5   1   6    1.80    1.70 
  -6  -1  -6    6.60    1.40 
   6  -1   6    4.80    2.00 
   6  -1   6    5.50    2.10 
   6   1   6    3.30    1.60 
   6   1   6    3.80    1.90 
   6   1   6    5.20    1.70 
  -6   1  -6    5.20    1.60 
   6   1   6    5.90    2.00 
   7  -2  -6    5.00    2.60 
   7  -2  -6   -2.20    1.70 
  -7   2   6   -1.20    2.30 
   7   2  -6    0.80    1.20 
  -7   2   6   -1.20    1.80 
   7   2  -6   -0.40    1.50 
   6  -2  -6   14.70    5.10 
  -6  -2   6    7.40    3.10 
   6  -2  -6    6.00    3.30 
   6  -2  -6    7.20    3.80 
   6   2  -6    6.60    3.50 
   6   2  -6   16.80    4.60 
   6   2  -6   14.80    4.00 
   6   2  -6    9.40    4.00 
  -6   2   6   13.40    2.90 
  -6   2   6   20.60    5.20 
   5  -2  -6    4.20    3.40 
   5  -2  -6    9.70    4.50 
  -5  -2   6    6.70    2.10 
   5  -2  -6    8.50    3.30 
   5   2  -6    1.70    2.70 
  -5   2   6    9.40    2.30 
   5   2  -6    9.30    3.30 
  -5   2   6   16.60    4.00 
  -5   2   6    4.40    2.30 
   5   2  -6    6.20    3.00 
   5   2  -6   13.30    4.00 
  -4  -2   6  138.79   10.10 
   4  -2  -6  104.39   12.10 
   4  -2  -6  109.19   12.10 
   4  -2  -6  134.59   12.80 
  -4   2   6  131.79   10.80 
   4   2  -6  137.79   13.40 
   4   2  -6  132.29   12.70 
  -4   2   6  141.79   10.40 
   4   2  -6  132.29   12.40 
   4   2  -6  119.59   12.70 
  -3  -2   6  477.15   33.50 
  -3  -2   6  449.26   29.80 
  -3   2   6  522.55   34.20 
  -3   2   6  413.46   29.80 
  -2  -2   6 1215.68   70.29 
   2  -2  -6 1031.10   70.59 
   2  -2  -6 1159.78   73.09 
  -2   2   6 1294.27   74.39 
  -2   2   6 1042.10   70.19 
   2   2  -6 1058.69   70.09 
   1  -2  -6 1324.17   82.59 
  -1  -2   6 1339.37   82.19 
  -1  -2   6 1396.96   83.99 
   1  -2  -6 1346.57   83.19 
   1   2  -6 1238.28   84.39 
   0  -2   6   48.50    4.30 
   0  -2   6   48.10    6.00 
   0  -2  -6   39.50    4.10 
   0  -2  -6   41.40    4.80 
   0   2   6   47.50    7.50 
   0   2  -6   37.20    5.30 
   1  -2   6  648.94   46.50 
  -1  -2  -6  689.63   43.90 
   1  -2   6  724.33   44.70 
  -1  -2  -6  668.63   45.40 
   1   2   6  660.63   50.29 
  -1   2  -6  762.22   48.10 
   2   2   6  180.78   21.70 
  -2   2  -6  183.78   22.10 
   3  -2   6  112.49   12.10 
  -3  -2  -6  103.09    9.40 
   3  -2   6  115.19   10.20 
  -3  -2  -6  101.59    8.90 
   3  -2   6  106.69   10.80 
   3  -2   6  138.29   11.60 
   3   2   6  127.09   12.30 
  -3   2  -6  118.29   10.30 
   3   2   6  119.89   10.20 
   3   2   6  113.49   10.20 
   3   2   6   86.29   12.30 
  -3   2  -6  110.39    8.20 
   3   2   6  108.89   11.10 
   4  -2   6   44.60    5.40 
  -4  -2  -6   30.50    4.30 
   4  -2   6   27.80    6.00 
   4  -2   6   40.50    6.00 
   4  -2   6   39.20    6.20 
   4   2   6   40.20    6.50 
  -4   2  -6   45.60    3.90 
  -4   2  -6   40.00    5.60 
   4   2   6   41.70    5.30 
   4   2   6   45.10    6.70 
   4   2   6   23.10    6.80 
   4   2   6   37.90    5.20 
  -5  -2  -6   52.09    7.40 
   5  -2   6   38.00    6.00 
  -5  -2  -6   44.30    4.80 
   5  -2   6   31.30    6.20 
   5  -2   6   44.70    5.50 
   5   2   6   49.40    7.00 
   5   2   6   41.30    5.40 
   5   2   6   40.90    5.60 
  -5   2  -6   44.30    3.80 
  -5   2  -6   37.10    5.70 
   5   2   6   53.69    6.80 
   6  -2   6    2.20    1.50 
  -6  -2  -6    1.20    1.00 
   6  -2   6    0.20    1.50 
  -6   2  -6   -1.00    1.00 
   6   2   6    0.50    1.40 
   6   2   6    2.10    1.00 
   6   2   6   -0.10    0.80 
   6   2   6    0.20    1.40 
   7  -3  -6   11.00    3.30 
  -7  -3   6    3.50    3.10 
  -7  -3   6    7.50    2.20 
  -7   3   6    5.00    1.80 
  -7   3   6   13.80    3.10 
   7   3  -6    6.70    2.70 
   7   3  -6    9.80    3.60 
   7   3  -6    5.10    2.60 
   6  -3  -6    7.30    3.90 
   6  -3  -6    9.00    3.00 
  -6  -3   6   10.90    2.50 
  -6   3   6   10.60    2.20 
  -6   3   6    9.40    5.90 
  -6   3   6   10.20    3.40 
   6   3  -6   13.70    4.00 
   5  -3  -6   40.70    8.20 
   5  -3  -6   30.70    6.20 
  -5  -3   6   49.60    4.80 
   5  -3  -6   32.90    6.50 
   5   3  -6   45.40    6.90 
  -5   3   6   35.30    4.80 
  -5   3   6   45.70    6.80 
   5   3  -6   48.70    6.60 
   5   3  -6   35.10    6.70 
   4  -3  -6   22.20    5.80 
  -4  -3   6   18.80    2.80 
   4  -3  -6   27.40    6.60 
   4  -3  -6   15.20    4.40 
   4   3  -6   33.20    7.10 
   4   3  -6   19.30    4.90 
   4   3  -6   18.30    4.60 
  -4   3   6   16.40    3.10 
  -4   3   6   18.00    4.80 
   4   3  -6   23.90    5.20 
  -3  -3   6  190.38   16.40 
  -3  -3   6  179.68   13.30 
  -3   3   6  221.98   20.20 
  -2  -3   6    6.30    2.30 
   2  -3  -6    2.10    1.40 
  -2  -3   6    4.30    1.10 
   2  -3  -6    3.00    1.20 
  -2   3   6    5.20    2.40 
   2   3  -6    4.60    1.80 
  -1  -3   6  215.28   16.70 
   1  -3  -6  248.28   17.10 
   1  -3  -6  245.58   16.20 
  -1  -3   6  225.98   15.70 
  -1   3   6  250.67   20.60 
   1   3  -6  232.28   18.70 
   0  -3   6  424.36   31.90 
   0  -3  -6  511.55   31.60 
   0  -3   6  487.25   31.60 
   0  -3  -6  511.15   33.10 
   0   3   6  519.65   38.20 
  -1  -3  -6   29.40    3.60 
   1  -3   6   29.00    4.10 
  -1  -3  -6   29.10    4.80 
  -1   3  -6   27.90    7.00 
   2  -3   6  368.16   29.30 
  -2  -3  -6  312.07   32.20 
  -2  -3  -6  360.16   24.60 
  -2   3  -6  349.77   28.30 
   2   3   6  375.76   26.10 
   2   3   6  437.66   30.40 
  -2   3  -6  391.06   34.30 
  -3  -3  -6   28.40    4.20 
   3  -3   6   34.00    5.50 
  -3  -3  -6   26.80    5.00 
   3  -3   6   36.70    5.50 
   3   3   6   34.80    8.60 
  -3   3  -6   32.60    5.80 
   3   3   6   31.70    5.60 
   3   3   6   27.20    4.90 
  -3   3  -6   45.60    5.90 
   3   3   6   34.70    4.80 
   4  -3   6   16.20    3.90 
  -4  -3  -6    7.80    2.10 
   4  -3   6    5.20    2.30 
   4  -3   6    4.40    3.20 
   4   3   6    6.80    2.40 
  -4   3  -6   12.90    3.30 
   4   3   6    2.70    3.50 
  -4   3  -6    7.50    2.90 
   4   3   6    7.70    2.40 
   4   3   6    3.50    2.30 
   4   3   6    2.50    2.50 
   5  -3   6  105.39   10.20 
   5  -3   6   83.59    9.40 
  -5  -3  -6  109.89    8.20 
  -5  -3  -6  103.89    9.80 
  -5   3  -6  107.99    9.00 
   5   3   6   96.09    9.20 
  -5   3  -6  100.99    9.30 
   5   3   6  103.99   10.30 
   5   3   6   89.99    9.20 
   5   3   6   96.29   10.80 
   6  -3   6    3.00    2.50 
  -6  -3  -6    0.60    1.00 
   6  -3   6   -0.20    1.30 
   6   3   6    0.30    0.70 
   6   3   6    1.60    0.90 
   6   3   6    1.10    1.20 
   6   3   6    2.90    1.70 
   7  -4  -6    7.80    2.60 
  -7  -4   6    7.50    2.10 
   7   4  -6    5.10    2.00 
  -7   4   6    7.50    2.40 
   7   4  -6    5.60    2.00 
  -7   4   6    8.30    2.80 
   6  -4  -6    3.40    3.20 
  -6  -4   6   13.30    2.80 
   6   4  -6    8.90    3.50 
  -6   4   6    7.10    3.20 
   6   4  -6    7.60    3.20 
   6   4  -6    9.70    3.20 
   6   4  -6    6.90    3.10 
  -6   4   6    5.90    3.00 
   5  -4  -6   29.90    6.20 
   5  -4  -6   43.90    7.70 
   5   4  -6   43.90    6.80 
   5   4  -6   34.90    6.80 
   5   4  -6   36.20    6.00 
   5   4  -6   47.30    6.90 
  -5   4   6   36.00    5.70 
  -5   4   6   49.60    7.20 
   4  -4  -6    7.60    4.10 
  -4  -4   6    9.80    2.00 
   4  -4  -6   11.20    3.60 
   4   4  -6    5.90    3.50 
  -4   4   6    6.90    3.50 
   4   4  -6   10.80    3.40 
   4   4  -6    9.80    3.40 
   4   4  -6   10.20    3.30 
   3  -4  -6    6.40    2.30 
  -3  -4   6    2.20    2.40 
  -3   4   6    4.40    2.70 
  -3   4   6    4.00    3.10 
   3   4  -6    5.40    2.80 
   3   4  -6   10.80    3.40 
   2  -4  -6   36.60    4.10 
  -2  -4   6   31.90    3.20 
  -2  -4   6   33.90    4.50 
   2  -4  -6   34.00    4.50 
   2   4  -6   24.70    5.30 
  -2   4   6   29.00    6.10 
   1  -4  -6  335.47   24.00 
   1  -4  -6  356.86   22.80 
  -1  -4   6  341.17   22.50 
   1   4  -6  328.17   26.30 
  -1   4   6  344.87   28.80 
   0  -4  -6  192.98   12.90 
   0  -4  -6  194.28   14.60 
   0  -4   6  182.38   13.10 
   0   4  -6  145.39   16.20 
   0   4   6  173.78   18.80 
  -1  -4  -6  511.75   31.70 
  -1  -4  -6  453.65   33.70 
   1  -4   6  485.45   32.80 
   2  -4   6   14.50    4.10 
   2  -4   6   18.10    3.90 
  -2  -4  -6   19.60    3.30 
   2  -4   6   20.30    3.30 
  -2   4  -6   21.30    4.70 
   2   4   6   12.70    3.80 
   2   4   6   14.30    3.60 
  -2   4  -6   18.10    5.20 
   2   4   6   13.50    4.60 
   2   4   6   28.40    5.70 
   2   4   6   13.20    3.20 
   3  -4   6  159.38   10.90 
   3  -4   6  178.58   14.40 
  -3  -4  -6  154.18   12.20 
   3  -4   6  155.98   14.40 
   3   4   6  130.59   15.80 
  -3   4  -6  159.88   14.40 
   3   4   6  173.88   14.80 
   3   4   6  141.09   12.80 
   3   4   6  166.58   13.50 
   3   4   6  167.48   15.90 
  -3   4  -6  170.08   13.90 
   4  -4   6   22.20    4.10 
   4  -4   6   13.40    3.50 
   4   4   6   14.30    3.80 
   4   4   6   15.70    4.00 
   4   4   6   14.70    3.40 
   4   4   6   19.30    6.50 
  -4   4  -6   19.90    4.30 
  -4   4  -6   16.40    4.20 
   4   4   6   15.70    4.20 
   5  -4   6    0.10    1.70 
  -5  -4  -6    4.40    1.40 
   5   4   6    3.40    1.90 
   5   4   6    2.50    1.50 
   5   4   6   -0.10    2.10 
  -5   4  -6   -1.70    1.80 
   5   4   6    5.30    2.50 
   6  -4   6    5.20    1.80 
  -6  -4  -6    8.20    1.70 
   6   4   6    1.70    1.90 
   6   4   6    8.90    1.80 
   6   4   6    5.90    1.40 
   7  -5  -6   -0.60    1.10 
  -7   5   6    0.50    1.60 
  -7   5   6    1.30    1.80 
   7   5  -6    1.90    1.30 
   7   5  -6    0.40    1.00 
   7   5  -6    2.50    1.50 
   6  -5  -6   10.40    3.70 
   6   5  -6   11.60    3.30 
   6   5  -6   10.70    3.10 
   6   5  -6    9.70    3.10 
  -6   5   6   11.20    3.10 
   6   5  -6   11.80    3.40 
   5  -5  -6   13.10    5.40 
   5   5  -6   15.60    4.50 
   5   5  -6   17.40    4.30 
   5   5  -6   29.60    6.90 
  -5   5   6   19.80    5.10 
   5   5  -6   18.50    5.10 
  -5   5   6   21.10    5.90 
   4  -5  -6    5.80    3.60 
   4   5  -6    3.00    2.60 
   4   5  -6    1.20    4.80 
   4   5  -6    3.90    3.10 
  -4   5   6    6.30    4.20 
   3  -5  -6   37.70    5.40 
  -3  -5   6   40.70    4.30 
  -3   5   6   35.30    6.50 
   3   5  -6   43.50    6.00 
   3   5  -6   37.30    6.80 
   3   5  -6   40.60    6.70 
  -3   5   6   43.80    6.80 
   2  -5  -6  169.58   14.20 
  -2  -5   6  179.78   12.00 
   2  -5  -6  189.68   13.10 
   2  -5  -6  170.08   14.10 
  -2   5   6  180.98   16.20 
  -2   5   6  133.19   15.50 
   2   5  -6  151.58   16.60 
   1  -5  -6   20.60    4.50 
  -1  -5   6   17.60    2.90 
   1  -5  -6   20.40    3.10 
   1   5  -6   13.50    4.60 
   1   5  -6   13.40    3.40 
  -1   5   6   19.80    4.80 
   1   5  -6   26.30    4.90 
  -1   5   6   16.50    6.20 
   0  -5  -6  640.24   40.10 
   0  -5   6  649.34   40.90 
   0   5   6  607.04   44.80 
   0   5   6  600.54   43.70 
   0   5   6  621.44   43.20 
   0   5  -6  635.84   42.90 
   0   5  -6  598.14   42.60 
   1  -5   6  186.48   14.80 
   1  -5   6  175.68   14.70 
  -1  -5  -6  188.78   13.40 
  -1   5  -6  195.08   15.50 
   1   5   6  196.48   16.40 
  -1   5  -6  187.78   15.90 
   1   5   6  176.28   16.70 
  -1   5  -6  176.78   15.90 
   1   5   6  198.58   14.50 
   1   5   6  145.69   17.00 
   2  -5   6   -0.50    2.90 
   2  -5   6    1.10    1.40 
  -2  -5  -6    3.70    1.70 
   2  -5   6    8.50    3.00 
   2   5   6    3.90    2.50 
  -2   5  -6    3.60    2.50 
   2   5   6    2.90    2.00 
   2   5   6   -0.20    2.60 
   2   5   6    3.70    3.10 
   2   5   6    1.90    2.50 
  -2   5  -6    0.60    1.40 
  -2   5  -6    2.80    2.70 
   3  -5   6   38.30    3.80 
  -3  -5  -6   42.70    4.60 
   3  -5   6   37.00    5.30 
   3  -5   6   36.80    6.20 
   3   5   6   39.50    5.00 
   3   5   6   38.00    4.60 
   3   5   6   40.40    7.00 
   3   5   6   41.90    6.80 
  -3   5  -6   38.70    6.40 
  -3   5  -6   39.90    8.10 
   3   5   6   25.40    6.40 
  -4  -5  -6   23.90    4.20 
   4  -5   6   29.20    4.70 
  -4  -5  -6   35.70    4.30 
   4  -5   6   31.00    5.50 
   4   5   6   27.20    5.80 
   4   5   6   19.80    5.90 
  -4   5  -6   32.40    5.00 
   4   5   6   22.00    5.50 
   4   5   6   27.90    4.50 
   4   5   6   27.20    4.20 
  -5  -5  -6    3.20    1.30 
   5  -5   6    0.00    2.30 
   5   5   6    0.40    1.20 
   5   5   6    2.10    1.10 
  -5   5  -6    0.20    1.50 
   5   5   6    6.60    2.40 
   5   5   6    0.50    1.70 
   6  -6  -6    5.40    2.80 
   6   6  -6    0.00    1.40 
   6   6  -6   -0.80    2.90 
  -6   6   6    5.80    2.30 
   6   6  -6    3.00    1.70 
  -6   6   6    4.90    2.70 
   5  -6  -6   20.30    5.90 
   5   6  -6   22.60    4.80 
   5   6  -6   19.00    5.40 
   5   6  -6   18.40    4.30 
  -5   6   6   21.90    4.40 
  -5   6   6   19.60    4.90 
   5   6  -6   26.10    5.50 
   4  -6  -6    2.80    3.70 
  -4  -6   6    4.70    1.30 
   4  -6  -6    4.00    1.80 
   4   6  -6    2.20    3.00 
  -4   6   6   -0.70    2.10 
   4   6  -6   -0.20    2.40 
   4   6  -6    1.50    4.50 
   4   6  -6    4.40    2.80 
  -3  -6   6    3.70    1.10 
   3  -6  -6   -0.80    2.10 
   3   6  -6    5.40    2.50 
   3   6  -6    2.30    2.70 
  -3   6   6    5.70    3.00 
  -3   6   6    0.30    2.90 
  -3   6   6   10.00    3.30 
   3   6  -6   -0.20    4.60 
  -2  -6   6    4.00    1.50 
  -2   6   6    3.30    3.60 
  -2   6   6    4.30    3.10 
  -2   6   6    7.40    2.90 
  -2   6   6    7.40    3.70 
   2   6  -6    4.10    2.30 
   2   6  -6    1.40    1.80 
   2   6  -6    6.10    2.80 
  -1  -6   6  370.36   25.00 
   1  -6  -6  378.86   28.00 
   1  -6  -6  343.47   25.90 
   1   6  -6  388.86   28.20 
  -1   6   6  361.76   28.10 
   1   6  -6  433.36   27.40 
  -1   6   6  338.07   27.70 
   1   6  -6  372.96   27.50 
  -1   6   6  331.97   28.60 
   0  -6  -6   73.59    7.40 
   0  -6   6   71.29    6.90 
   0  -6   6   70.29    7.40 
   0  -6  -6   70.49    6.60 
   0   6   6   71.19    8.70 
   0   6  -6   65.39    8.50 
   0   6  -6   70.29    8.60 
   0   6  -6   70.69    7.30 
   0   6  -6   78.19    8.30 
   0   6   6   72.59    9.70 
   0   6   6   66.39    9.80 
   0   6   6   58.99    7.20 
  -1  -6  -6   50.99    5.20 
   1  -6   6   41.10    5.10 
   1  -6   6   41.80    5.80 
   1  -6   6   43.60    6.10 
  -1   6  -6   37.30    6.60 
  -1   6  -6   46.10    6.70 
   1   6   6   47.70    7.10 
   1   6   6   51.29   10.30 
  -1   6  -6   48.00    6.60 
   1   6   6   50.79    5.50 
   1   6   6   40.70    7.40 
  -2  -6  -6   44.50    4.80 
   2  -6   6   46.70    7.00 
   2  -6   6   53.79    6.50 
   2  -6   6   41.70    4.90 
  -2   6  -6   41.80    6.20 
   2   6   6   51.39    5.60 
  -2   6  -6   50.79    6.80 
   2   6   6   30.80    6.60 
   2   6   6   36.90    8.50 
  -2   6  -6   36.10    5.80 
   2   6   6   61.59    7.40 
   3  -6   6   32.20    5.30 
  -3  -6  -6   29.90    3.90 
   3  -6   6   33.00    3.70 
   3  -6   6   39.70    5.80 
   3   6   6   34.30    6.60 
  -3   6  -6   26.40    6.70 
   3   6   6   37.70    5.00 
  -3   6  -6   29.00    5.00 
   3   6   6   36.60    8.10 
  -3   6  -6   39.30    6.50 
   3   6   6   33.00    6.30 
  -4  -6  -6    8.90    2.20 
   4  -6   6    8.00    2.60 
   4  -6   6    4.60    2.50 
   4   6   6    8.30    2.70 
   4   6   6    4.30    2.00 
   4   6   6   11.10    2.60 
   4   6   6    5.50    3.40 
  -4   6  -6    8.00    3.20 
   4   6   6    6.90    2.70 
  -5  -6  -6   10.40    2.00 
   5  -6   6    8.00    2.10 
   5   6   6    9.70    2.00 
  -5   6  -6   12.80    2.30 
   5   6   6    5.20    2.50 
   6  -7  -6   -0.90    1.40 
   6   7  -6    2.90    2.30 
  -6   7   6   -2.80    1.70 
   6   7  -6    0.00    1.90 
   5  -7  -6    2.60    2.10 
   5   7  -6    3.80    2.00 
  -5   7   6    0.30    1.90 
   5   7  -6   -1.20    2.20 
   5   7  -6    0.40    2.60 
   4  -7  -6   23.80    6.30 
   4  -7  -6   31.80    3.80 
   4   7  -6   37.60    6.40 
   4   7  -6   20.50    5.10 
   4   7  -6   28.90    5.70 
  -4   7   6   34.50    6.40 
  -3  -7   6   51.09    5.00 
  -3   7   6   70.09    9.10 
   3   7  -6   62.09    8.40 
   3   7  -6   73.79    8.30 
  -3   7   6   48.10    8.30 
   3   7  -6   49.40    8.30 
  -3   7   6   55.49    7.20 
   2  -7  -6   68.79    7.90 
   2  -7  -6   67.09    6.90 
  -2  -7   6   75.49    6.70 
  -2   7   6   61.89    8.10 
   2   7  -6   84.59    8.10 
   2   7  -6   83.29    8.80 
  -2   7   6   68.99    8.80 
   2   7  -6   68.39    9.20 
  -2   7   6   66.89    9.10 
  -2   7   6   61.89    8.70 
   1  -7  -6    0.80    1.50 
  -1  -7   6    2.50    1.90 
   1  -7  -6    1.30    2.40 
   1   7  -6    1.40    1.90 
   1   7  -6    4.10    3.00 
  -1   7   6    8.00    2.70 
   1   7  -6    6.10    2.60 
   0  -7  -6  223.28   16.00 
   0  -7   6  204.08   17.00 
   0  -7  -6  196.18   16.80 
   0  -7   6  212.48   15.70 
   0   7  -6  242.98   18.20 
   0   7   6  216.18   19.60 
   0   7   6  217.18   19.30 
   0   7  -6  234.08   18.90 
   0   7   6  204.48   20.20 
   0   7  -6  225.28   16.30 
   0   7  -6  218.78   18.90 
  -1  -7  -6    9.20    2.30 
   1  -7   6   10.50    2.90 
   1  -7   6    8.70    2.70 
   1  -7   6   10.20    2.30 
   1   7   6    9.70    4.20 
  -1   7  -6   11.00    4.00 
   1   7   6   11.50    3.40 
  -1   7  -6   16.20    4.30 
   1   7   6   14.40    3.70 
   1   7   6   17.70    5.00 
  -1   7  -6   10.30    3.70 
  -2  -7  -6   41.00    4.80 
   2  -7   6   51.19    5.40 
   2  -7   6   49.80    6.90 
   2   7   6   55.19    8.90 
   2   7   6   59.59    7.90 
   2   7   6   42.40    9.10 
  -2   7  -6   46.80    6.40 
  -2   7  -6   47.30    7.20 
  -2   7  -6   46.80    6.80 
   2   7   6   42.10    5.40 
   3  -7   6   25.90    4.60 
  -3  -7  -6   25.60    3.70 
   3  -7   6   21.20    4.90 
   3  -7   6   31.10    3.10 
   3   7   6   19.10    5.90 
  -3   7  -6   18.70    4.70 
   3   7   6   26.00    5.10 
   4  -7   6    1.90    1.70 
   4   7   6    3.10    1.20 
  -4   7  -6    2.10    1.50 
   4   7   6    2.90    1.60 
   4   7   6    4.20    2.00 
   4   7   6    6.10    2.40 
   5  -8  -6   -0.30    1.70 
   5   8  -6    2.40    1.80 
   5   8  -6    3.60    4.10 
  -5   8   6   -1.30    2.00 
   4  -8  -6    0.90    1.90 
   4   8  -6    3.20    2.90 
  -4   8   6    2.90    2.50 
  -3  -8   6   47.30    5.00 
   3  -8  -6   45.00    7.90 
   3  -8  -6   49.30    6.00 
  -3   8   6   32.40    6.70 
   3   8  -6   44.50    6.20 
   3   8  -6   46.70    7.00 
  -3   8   6   42.30    5.90 
  -2  -8   6   49.70    5.70 
   2  -8  -6   67.99    9.50 
   2  -8  -6   55.79    6.40 
  -2   8   6   49.00    8.60 
  -2   8   6   46.90    7.50 
  -2   8   6   60.79    8.10 
   2   8  -6   60.39    6.80 
   2   8  -6   52.89    7.80 
  -2   8   6   46.40    7.70 
   1  -8  -6    9.80    3.30 
   1  -8  -6   12.40    2.80 
  -1  -8   6   15.30    3.60 
  -1   8   6   13.70    3.70 
   1   8  -6   11.60    3.10 
  -1   8   6   23.20    6.00 
  -1   8   6   16.10    4.70 
   1   8  -6   18.80    4.70 
   1   8  -6    8.70    3.10 
   0  -8  -6   87.19   11.60 
   0  -8   6  112.39   11.20 
   0  -8   6   88.79    8.90 
   0  -8  -6   88.59    7.80 
   0  -8   6   78.69    8.40 
   0   8   6   79.19   10.30 
   0   8  -6   84.49    9.80 
   0   8   6   77.29   10.10 
   0   8  -6   87.79    9.90 
   0   8  -6   79.09    9.00 
   0   8   6   64.89   10.30 
  -1  -8  -6   12.50    3.30 
   1  -8   6   14.90    4.00 
  -1  -8  -6    8.10    2.40 
   1  -8   6   18.70    3.50 
   1  -8   6   11.30    3.10 
   1   8   6   16.60    5.30 
  -1   8  -6    9.00    3.30 
   1   8   6   15.10    5.60 
   1   8   6   11.50    3.60 
  -1   8  -6   11.00    3.70 
  -1   8  -6   11.00    3.30 
  -2  -8  -6   18.00    3.40 
   2  -8   6   18.90    4.10 
  -2   8  -6   11.00    3.10 
   2   8   6    8.00    3.10 
  -2   8  -6   16.20    3.90 
   2   8   6   15.50    4.50 
  -2   8  -6   10.90    3.40 
   2   8   6   10.20    3.40 
  -3  -8  -6    1.70    2.80 
   3  -8   6    1.10    1.30 
   3  -8   6   -0.20    0.90 
   3  -8   6    3.10    1.90 
  -3   8  -6    0.30    1.70 
   3   8   6   -1.30    2.20 
  -3   8  -6   -0.50    1.70 
   3   8   6   -1.10    2.10 
   3   8   6   -2.00    2.10 
   4  -8   6    6.10    2.10 
   4  -8   6    1.70    1.40 
   4   8   6   -0.70    1.50 
   4   8   6    0.60    1.60 
   4  -9  -6    1.20    1.70 
   4   9  -6    0.10    1.70 
  -4   9   6   -0.70    2.40 
   3  -9  -6    6.50    1.80 
  -3   9   6    6.20    3.00 
  -3   9   6    7.30    2.40 
   3   9  -6    5.10    2.00 
   3   9  -6    4.50    2.40 
  -2   9   6    3.70    2.60 
  -2   9   6   -0.80    1.70 
   2   9  -6    5.20    2.30 
  -2   9   6    1.60    2.70 
  -2   9   6    1.60    2.10 
   2   9  -6    1.80    1.80 
   2   9  -6    3.40    2.60 
   1  -9  -6    6.00    3.10 
   1   9  -6   13.90    3.30 
  -1   9   6    9.10    3.20 
  -1   9   6    5.90    2.90 
   1   9  -6    8.40    2.80 
   1   9  -6    8.10    2.80 
  -1   9   6    5.20    2.40 
   0  -9   6    6.80    1.80 
   0  -9  -6    4.10    2.50 
   0  -9   6    7.40    2.30 
   0   9   6    1.20    2.20 
   0   9   6    3.70    2.60 
   0   9   6    4.50    2.50 
   0   9  -6    6.50    2.30 
   0   9  -6    8.40    2.50 
   0   9  -6    6.70    2.80 
   1  -9   6    9.10    2.10 
   1  -9   6   10.70    2.70 
  -1  -9  -6   16.10    3.50 
   1   9   6   15.60    3.90 
  -1   9  -6    8.60    3.00 
   1   9   6    9.90    3.50 
  -1   9  -6    6.30    2.70 
   1   9   6    4.60    2.90 
  -1   9  -6   10.30    3.00 
  -2  -9  -6  -10.90    7.00 
   2  -9   6    4.00    1.60 
   2  -9   6    3.60    1.20 
   2   9   6   -0.20    1.50 
   2   9   6    1.60    1.90 
  -2   9  -6    4.50    2.00 
   2   9   6    3.50    2.00 
  -2   9  -6    2.90    1.80 
  -2   9  -6    3.60    2.10 
   3  -9   6    2.50    1.20 
   3  -9   6   -0.10    1.00 
   3   9   6    2.30    1.70 
   3   9   6    2.30    2.00 
  -3   9  -6    1.20    1.30 
  -3   9  -6    1.60    1.70 
   3   9   6    1.70    1.40 
   3 -10  -6    0.60    1.70 
   3  10  -6    1.20    1.80 
   2 -10  -6    4.30    1.50 
   2 -10  -6    5.10    2.10 
  -2 -10   6    2.00    1.60 
  -2  10   6    3.30    1.50 
   2  10  -6    1.70    1.80 
   2  10  -6   -1.70    2.60 
   2  10  -6    0.70    1.20 
  -1 -10   6    9.80    1.70 
  -1  10   6    5.80    2.40 
   1  10  -6   11.60    2.30 
  -1  10   6    5.00    2.10 
  -1  10   6   12.40    2.90 
   1  10  -6    9.40    2.30 
   0 -10   6    4.80    1.50 
   0  10  -6    4.60    1.80 
   0  10  -6    2.20    1.60 
   0  10   6    2.50    1.70 
   0  10  -6    3.80    2.10 
   0  10   6    2.30    1.90 
   0  10   6    5.40    2.30 
   1 -10   6    2.70    1.00 
   1 -10   6    8.90    3.40 
  -1 -10  -6   -2.00    1.90 
  -1  10  -6   -1.40    1.40 
  -1  10  -6   -0.30    1.20 
   1  10   6   -0.80    1.50 
   1  10   6    1.30    1.20 
  -1  10  -6    1.70    1.60 
   1  10   6   -0.80    1.10 
  -7   0   7    3.50    1.40 
  -7   0   7    0.80    1.60 
   7   0  -7   -2.70    1.60 
   7   0  -7    1.90    1.80 
   7   0  -7    1.40    1.70 
   6   0  -7   15.20    4.80 
  -6   0   7   16.00    3.20 
   6   0  -7    9.90    3.90 
  -6   0   7   11.40    3.60 
   6   0  -7   10.90    4.30 
   6   0  -7    7.80    4.00 
   5   0  -7   19.50    5.00 
   5   0  -7   26.10    5.50 
  -5   0   7   23.70    4.50 
  -5   0   7   23.10    3.90 
   5   0  -7   25.70    5.60 
   5   0  -7   18.50    5.20 
  -4   0   7   16.00    3.30 
  -4   0   7   24.40    3.30 
   4   0  -7   33.50   10.80 
   4   0  -7   19.80    4.50 
  -3   0   7   35.80    3.70 
  -3   0   7   36.00    6.10 
  -2   0   7    9.50    1.70 
  -2   0   7    6.90    2.70 
  -1   0   7  107.99    8.20 
  -1   0   7  102.79   10.50 
   1   0  -7  119.19    9.30 
   0   0   7  739.13   49.80 
   0   0  -7  720.63   47.30 
   0   0  -7  708.03   46.00 
   0   0   7  734.63   46.00 
  -1   0  -7   52.59    5.00 
   1   0   7   54.99    8.00 
  -1   0  -7   50.79    6.30 
  -2   0  -7   10.90    3.80 
   2   0   7   14.20    5.30 
   3   0   7    4.70    3.20 
   3   0   7    0.90    2.30 
   3   0   7    5.00    3.10 
   3   0   7    4.20    2.00 
   3   0   7    2.50    2.10 
  -3   0  -7    1.30    1.40 
  -3   0  -7    0.90    2.00 
   4   0   7   32.90    4.80 
   4   0   7   40.00    6.10 
   4   0   7   30.60    6.10 
  -4   0  -7   47.10    6.80 
   4   0   7   42.60    5.60 
  -4   0  -7   40.90    4.30 
   4   0   7   36.40    7.00 
  -5   0  -7    0.90    1.10 
   5   0   7   -0.80    1.30 
   5   0   7   -1.30    3.70 
   5   0   7    1.30    1.30 
   5   0   7   -0.90    1.70 
   5   0   7   -3.40    1.80 
   6   0   7    3.80    1.30 
   6   0   7    1.20    1.20 
  -6   0  -7    4.50    1.50 
  -7  -1   7    2.40    1.60 
   7  -1  -7    2.20    2.50 
   7  -1  -7    0.90    2.10 
   7  -1  -7    4.30    2.30 
  -7  -1   7    0.40    1.80 
  -7   1   7    7.00    2.80 
   7   1  -7    6.60    2.50 
   7   1  -7    2.50    2.00 
  -7   1   7    6.40    1.80 
   6  -1  -7   21.20    5.10 
  -6  -1   7   21.60    3.90 
  -6  -1   7   23.20    4.70 
   6  -1  -7   18.40    6.20 
  -6   1   7   28.40    5.30 
  -6   1   7   23.40    4.40 
   6   1  -7   15.50    4.60 
   6   1  -7   11.10    4.00 
   6   1  -7   11.20    4.20 
  -6   1   7   17.30    4.70 
  -5  -1   7   28.20    5.40 
   5  -1  -7   40.20    8.40 
   5  -1  -7   34.40    7.40 
  -5  -1   7   39.60    4.60 
   5  -1  -7   35.10    6.10 
   5  -1  -7   35.60    7.60 
  -5   1   7   31.70    4.70 
   5   1  -7   20.60    6.10 
   5   1  -7   30.90    7.60 
  -5   1   7   35.20    5.40 
   5   1  -7   31.70    7.40 
   4  -1  -7   -0.70    2.90 
  -4  -1   7    6.60    1.90 
   4  -1  -7    4.90    3.80 
   4  -1  -7    2.10    3.50 
   4  -1  -7   13.60    4.70 
  -4  -1   7   -0.20    3.60 
   4   1  -7   17.70    6.70 
  -4   1   7    9.70    2.30 
   4   1  -7    6.70    3.40 
  -3  -1   7   85.79    9.60 
  -3  -1   7   80.09    6.70 
  -3   1   7   89.09   11.10 
  -3   1   7   77.29    6.60 
  -2  -1   7  453.05   28.60 
   2  -1  -7  336.27   24.90 
  -2  -1   7  396.96   25.20 
  -2   1   7  409.76   28.80 
  -2   1   7  353.26   25.10 
   1  -1  -7  173.18   12.60 
   1  -1  -7  179.08   12.20 
  -1  -1   7  157.58   11.80 
  -1  -1   7  163.78   14.00 
  -1   1   7  166.38   11.90 
   1   1  -7  190.98   13.90 
  -1   1   7  162.78   14.80 
   0  -1   7  179.28   12.30 
   0  -1  -7  164.48   12.20 
   0  -1   7  167.78   14.70 
   0   1   7  173.08   16.10 
   0   1  -7  177.58   14.30 
  -1  -1  -7  196.48   15.60 
  -1  -1  -7  200.28   14.10 
   1  -1   7  188.98   17.60 
   1   1   7  196.58   19.30 
  -1   1  -7  210.78   16.70 
  -2  -1  -7  116.19   14.00 
   2  -1   7  119.69   14.50 
   2  -1   7  136.19   16.40 
  -2  -1  -7  136.79   10.60 
  -2   1  -7  143.79   11.60 
  -2   1  -7  151.88   16.60 
   2   1   7  127.19   15.80 
   2   1   7  145.69   14.50 
   3  -1   7   38.20    5.80 
   3  -1   7   37.20    6.50 
  -3  -1  -7   35.50    4.10 
   3  -1   7   37.20    5.20 
   3  -1   7   40.10    4.50 
   3  -1   7   34.10    5.70 
   3   1   7   30.90    4.60 
   3   1   7   42.40    5.80 
   3   1   7   25.90    4.70 
  -3   1  -7   33.70    3.80 
   3   1   7   41.20    7.10 
   3   1   7   31.10    5.90 
   4  -1   7  119.69   11.60 
   4  -1   7  118.99    9.10 
   4  -1   7  105.39   10.60 
  -4  -1  -7  109.99    8.50 
   4  -1   7  121.99   10.40 
   4  -1   7   99.09   10.50 
   4   1   7   86.29    9.00 
   4   1   7   91.09    9.50 
  -4   1  -7  118.39    8.20 
   4   1   7   95.49   11.90 
   4   1   7  102.69   10.80 
   4   1   7   96.09   10.90 
   5  -1   7   50.09    6.70 
   5  -1   7   63.19    6.60 
   5  -1   7   43.20    7.80 
  -5  -1  -7   66.19    5.30 
   5  -1   7   52.59    7.10 
   5   1   7   52.39    7.00 
   5   1   7   60.39    9.50 
   5   1   7   54.99    7.40 
   5   1   7   63.19    6.90 
  -5   1  -7   65.29    4.90 
   5   1   7   54.69    5.80 
   6  -1   7   -0.60    1.20 
  -6  -1  -7    3.90    0.90 
   6  -1   7    3.70    1.70 
  -6  -1  -7   -0.10    0.90 
   6   1   7    1.90    1.30 
   6   1   7    2.20    1.10 
   6   1   7    2.10    1.70 
   7  -2  -7    2.00    1.90 
   7  -2  -7    0.80    2.40 
  -7  -2   7    0.00    1.50 
   7   2  -7    1.80    2.70 
  -7   2   7    4.90    2.20 
   7   2  -7    1.00    1.70 
  -7   2   7   -0.50    2.00 
  -7   2   7    3.00    1.30 
   7   2  -7    1.10    1.90 
  -6  -2   7    2.70    1.50 
  -6  -2   7    0.90    2.20 
   6  -2  -7    0.20    2.00 
   6  -2  -7    1.30    3.40 
   6  -2  -7   -1.00    2.90 
   6   2  -7   -1.40    2.40 
  -6   2   7    0.70    2.30 
   6   2  -7    4.70    3.10 
   6   2  -7    1.80    2.40 
   6   2  -7    3.10    3.60 
  -6   2   7    2.10    2.10 
   5  -2  -7   28.90    5.30 
   5  -2  -7   42.50   11.90 
   5  -2  -7   25.60    5.60 
   5   2  -7   42.90    9.10 
   5   2  -7   21.90    4.60 
   5   2  -7   26.90    5.70 
  -5   2   7   20.60    4.40 
   4  -2  -7   15.00    4.50 
   4  -2  -7   -3.00    3.10 
   4  -2  -7   -0.20    3.20 
   4  -2  -7    4.60    4.30 
  -4  -2   7    3.20    1.40 
   4   2  -7    2.60    2.40 
   4   2  -7    8.20    2.90 
   4   2  -7    6.00    3.10 
   4   2  -7    5.60    3.30 
  -4   2   7    4.70    1.60 
  -3  -2   7   11.20    2.10 
  -3  -2   7   10.60    3.70 
  -3   2   7   10.00    2.00 
  -3   2   7   17.20    5.00 
  -2  -2   7  157.58   10.80 
   2  -2  -7  135.89   10.90 
  -2  -2   7  177.38   13.50 
  -2   2   7  134.39   13.60 
  -1  -2   7  472.55   33.10 
   1  -2  -7  459.45   32.00 
   1  -2  -7  473.75   31.40 
  -1  -2   7  491.85   31.10 
   1   2  -7  475.85   33.70 
  -1   2   7  528.75   35.90 
   0  -2  -7  564.04   38.60 
   0  -2  -7  571.64   39.80 
   0  -2   7  603.14   38.60 
   0  -2   7  573.14   40.80 
   0   2  -7  662.03   42.30 
   0   2   7  649.83   44.80 
   1  -2   7  266.47   23.40 
   1  -2   7  319.97   21.70 
  -1  -2  -7  318.47   22.90 
  -1  -2  -7  324.57   21.10 
  -1   2  -7  336.17   24.90 
   1   2   7  295.97   27.70 
  -2  -2  -7   81.69    7.30 
  -2  -2  -7   63.19    7.90 
   2  -2   7   91.99    9.10 
   2  -2   7   85.29    8.60 
   2   2   7   97.59    9.90 
   2   2   7   75.59   10.10 
   2   2   7   83.09    8.20 
   2   2   7   84.39    8.20 
   3  -2   7   64.39    6.80 
  -3  -2  -7   66.69    5.70 
   3  -2   7   65.89    7.80 
  -3  -2  -7   50.69    6.20 
   3  -2   7   53.39    7.00 
  -3   2  -7   57.39    5.00 
  -3   2  -7   69.39    7.70 
   3   2   7   50.89    6.40 
   3   2   7   54.69    8.50 
   3   2   7   71.39    7.60 
   3   2   7   63.69    7.90 
   3   2   7   54.69    6.50 
   4  -2   7   51.69    6.90 
   4  -2   7   34.60    6.70 
  -4  -2  -7   40.20    4.60 
   4  -2   7   40.00    6.60 
   4   2   7   47.10    6.70 
  -4   2  -7   39.90    5.90 
  -4   2  -7   43.30    3.90 
   4   2   7   34.40    5.10 
   4   2   7   40.00    5.80 
   4   2   7   46.80    6.70 
   4   2   7   43.80    8.20 
   5  -2   7   50.09    7.60 
  -5  -2  -7   61.89    5.10 
   5  -2   7   48.10    7.40 
   5  -2   7   46.30    6.60 
   5   2   7   51.89    6.40 
   5   2   7   57.39    6.40 
   5   2   7   39.90    8.00 
   5   2   7   52.09    6.90 
   5   2   7   51.39    5.60 
  -5   2  -7   65.49    6.30 
   6  -2   7   24.60    3.10 
  -6  -2  -7   25.80    2.40 
  -6  -2  -7   31.30    3.60 
   6   2   7   24.60    4.00 
   6   2   7   19.90    2.50 
  -7  -3   7   16.10    2.90 
   7  -3  -7    9.60    3.40 
  -7   3   7    8.40    2.10 
  -7   3   7   14.50    3.70 
   7   3  -7    8.30    2.30 
   6  -3  -7    4.00    2.80 
  -6  -3   7   11.50    2.70 
   6  -3  -7    1.70    2.80 
  -6  -3   7   11.20    2.90 
  -6   3   7    8.60    3.10 
  -6   3   7    5.40    3.00 
   6   3  -7   11.40    3.80 
   6   3  -7    7.10    3.50 
  -6   3   7    8.10    1.80 
   6   3  -7    7.40    3.10 
   6   3  -7    2.70    2.80 
   5  -3  -7   -1.50    2.80 
   5  -3  -7    5.60    3.00 
  -5  -3   7    1.80    1.40 
   5  -3  -7    8.40    2.80 
   5   3  -7    2.90    2.70 
  -5   3   7    2.80    1.60 
   5   3  -7    3.40    2.40 
   5   3  -7    4.80    2.70 
  -5   3   7    5.60    2.50 
   5   3  -7    9.20    3.50 
   4  -3  -7    3.50    2.90 
   4  -3  -7   10.60    4.30 
  -4  -3   7    5.00    1.60 
   4  -3  -7    7.90    3.70 
  -4   3   7    1.40    2.60 
   4   3  -7   11.20    3.80 
   4   3  -7    6.00    2.80 
   4   3  -7    2.30    2.90 
   4   3  -7    6.40    3.90 
  -4   3   7    4.90    1.80 
  -3  -3   7  266.37   16.90 
   3   3  -7  253.47   20.40 
   3   3  -7  277.57   19.70 
   3   3  -7  234.48   21.10 
  -3   3   7  198.78   19.80 
   2  -3  -7   61.49    6.30 
   2  -3  -7   55.09    6.20 
  -2  -3   7   68.99    5.60 
  -2  -3   7   79.29    7.70 
   1  -3  -7  254.97   17.60 
   1  -3  -7  253.47   18.50 
  -1  -3   7  277.47   17.30 
  -1  -3   7  248.38   18.50 
   1   3  -7  216.18   19.90 
  -1   3   7  259.47   22.40 
   0  -3  -7  261.27   18.30 
   0  -3  -7  265.57   19.70 
   0  -3   7  277.37   18.30 
   0   3  -7  239.88   21.60 
   0   3   7  270.97   24.50 
   1  -3   7  143.09   11.20 
  -1  -3  -7  116.49   11.80 
  -1  -3  -7  130.59   10.30 
  -1   3  -7  136.99   14.30 
   1   3   7  133.29   16.60 
   2  -3   7   74.49    8.60 
  -2  -3  -7   72.49    7.20 
   2  -3   7   71.19    6.20 
   2  -3   7   96.09    8.90 
  -2  -3  -7   76.39    6.60 
   2   3   7   80.19    9.90 
   2   3   7   78.79    8.10 
   2   3   7   75.09   10.20 
   2   3   7   80.89    8.60 
  -2   3  -7   74.89    9.00 
   3  -3   7   19.80    4.80 
  -3  -3  -7   27.60    3.60 
   3  -3   7   35.20    5.90 
  -3  -3  -7   30.70    4.20 
   3   3   7   25.10    4.40 
   3   3   7   22.00    6.10 
  -3   3  -7   25.70    5.50 
   3   3   7   30.50    7.80 
   3   3   7   27.40    7.00 
   3   3   7   24.50    4.90 
   4  -3   7   -2.00    2.00 
   4  -3   7    0.50    2.40 
  -4  -3  -7    3.30    1.70 
  -4  -3  -7    3.70    1.60 
   4   3   7    1.90    2.50 
   4   3   7    4.90    2.20 
   4   3   7    1.50    4.50 
  -4   3  -7    2.90    2.00 
   4   3   7    4.20    2.70 
   4   3   7    1.90    1.80 
  -4   3  -7   -2.40    2.40 
   5  -3   7   13.50    3.40 
   5  -3   7    9.10    4.20 
  -5  -3  -7   16.50    2.70 
   5   3   7   10.10    2.40 
   5   3   7    9.80    3.50 
  -5   3  -7   11.00    2.50 
   5   3   7    7.90    2.00 
   5   3   7   14.60    3.40 
  -5   3  -7   13.20    3.20 
  -6  -3  -7    1.20    0.80 
   6   3   7    2.10    0.80 
  -7  -4   7    0.50    3.20 
   7  -4  -7    0.90    1.60 
  -7  -4   7    2.70    1.40 
  -7   4   7    0.50    1.50 
   7   4  -7    1.30    1.20 
   7   4  -7    6.90    2.30 
  -7   4   7   -2.60    1.90 
   7   4  -7    4.70    1.60 
  -6  -4   7   28.00    5.80 
   6  -4  -7   26.80    5.50 
   6   4  -7   26.70    5.20 
  -6   4   7   32.30    5.90 
   6   4  -7   31.20    5.60 
   6   4  -7   35.00    6.10 
  -5  -4   7   23.50    3.10 
   5  -4  -7   14.80    4.40 
  -5   4   7   22.50    6.00 
   5   4  -7   32.70    7.10 
   5   4  -7   12.20    4.30 
   5   4  -7   21.40    5.00 
  -5   4   7   15.20    3.50 
   5   4  -7   18.50    5.10 
   4  -4  -7   51.49    7.30 
   4  -4  -7   60.49    9.10 
  -4  -4   7   70.09    5.70 
   4   4  -7   60.49    8.30 
   4   4  -7   46.10    8.00 
   4   4  -7   52.39    8.10 
   4   4  -7   60.39    7.60 
  -4   4   7   51.89    8.20 
   3  -4  -7   10.40    2.60 
  -3  -4   7    9.20    2.00 
   3  -4  -7    9.80    3.40 
   3   4  -7   12.70    3.20 
  -3   4   7    6.10    4.10 
   3   4  -7    9.20    3.90 
   3   4  -7   15.70    4.40 
  -3   4   7   10.80    3.80 
   2  -4  -7   95.89    8.90 
   2  -4  -7   95.39    8.30 
   2  -4  -7   87.49    8.60 
  -2  -4   7   94.49    7.60 
   2   4  -7  107.59   10.50 
   2   4  -7   75.59   13.80 
   2   4  -7  112.39    9.80 
   1  -4  -7  116.49   10.40 
  -1  -4   7  120.59    9.10 
   1  -4  -7  123.79    9.40 
  -1   4   7  125.09   14.70 
   1   4  -7   89.49   11.80 
   0  -4   7   61.89    6.00 
   0  -4  -7   62.49    5.90 
   0  -4  -7   51.69    6.90 
   0   4  -7   65.89   11.00 
   0   4   7   62.39   11.80 
   1  -4   7  249.28   19.80 
  -1  -4  -7  227.58   18.20 
   1  -4   7  253.97   19.30 
   1   4   7  261.77   22.80 
   1   4   7  275.07   20.60 
  -1   4  -7  303.97   21.60 
  -1   4  -7  284.67   24.40 
   1   4   7  266.77   26.90 
  -1   4  -7  257.07   20.50 
  -2  -4  -7  154.48   11.80 
   2  -4   7  152.28   14.10 
   2  -4   7  155.88   11.70 
  -2  -4  -7  158.68   12.40 
  -2   4  -7  172.58   14.50 
   2   4   7  166.68   14.40 
   2   4   7  181.18   13.60 
  -2   4  -7  172.78   14.30 
   2   4   7  165.28   15.70 
   2   4   7  121.99   15.70 
  -2   4  -7  171.38   14.20 
  -3  -4  -7   49.00    5.40 
   3  -4   7   51.29    6.80 
   3  -4   7   52.99    6.80 
  -3  -4  -7   51.49    5.10 
  -3   4  -7   49.00    6.60 
   3   4   7   49.80    7.50 
   3   4   7   48.10    6.00 
   3   4   7   45.60    5.60 
  -3   4  -7   50.59    7.20 
   3   4   7   55.89    7.20 
   3   4   7   40.20    8.00 
  -4  -4  -7    3.30    1.60 
   4  -4   7    7.10    2.90 
   4  -4   7    3.80    2.50 
  -4   4  -7   -0.10    2.10 
   4   4   7    4.20    2.20 
   4   4   7    4.20    1.90 
  -4   4  -7    0.90    2.30 
   4   4   7    2.50    1.80 
   4   4   7    0.00    3.80 
   4   4   7    1.40    2.70 
   5  -4   7    9.20    3.20 
  -5  -4  -7   14.40    2.50 
   5   4   7   14.30    2.80 
   5   4   7   12.20    3.00 
  -5   4  -7   10.50    2.70 
   5   4   7   10.00    3.10 
   6   5  -7    2.90    1.70 
  -6   5   7    1.70    2.10 
   6   5  -7    0.30    1.70 
   6   5  -7    2.30    1.80 
   6   5  -7    1.30    2.40 
  -6   5   7    3.60    2.10 
   5  -5  -7   54.39    8.80 
  -5  -5   7   63.19    5.40 
   5   5  -7   66.89   10.80 
   5   5  -7   44.40    7.70 
  -5   5   7   53.89    8.90 
   5   5  -7   62.69    9.60 
  -5   5   7   54.79    6.70 
   5   5  -7   53.39    7.20 
  -4  -5   7   15.50    2.50 
   4  -5  -7   11.80    4.80 
   4   5  -7   10.80    4.00 
  -4   5   7   16.90    4.90 
   4   5  -7   19.30    5.40 
   4   5  -7   15.90    4.10 
  -3  -5   7   23.90    3.00 
   3  -5  -7   20.00    4.20 
   3  -5  -7   18.90    4.80 
   3   5  -7   29.70    4.80 
  -3   5   7   15.30    4.00 
   3   5  -7   17.30    4.20 
  -3   5   7   16.50    5.00 
   3   5  -7   20.40    5.10 
   2  -5  -7  268.27   19.50 
  -2  -5   7  268.67   19.80 
   2  -5  -7  272.67   18.90 
  -2   5   7  236.08   20.90 
   2   5  -7  276.37   20.00 
   2   5  -7  224.08   21.90 
   2   5  -7  283.57   20.60 
  -2   5   7  261.67   21.80 
   2   5  -7  273.37   21.60 
   1  -5  -7   69.89    6.60 
   1  -5  -7   59.89    8.00 
  -1  -5   7   63.49    6.20 
   1  -5  -7   66.19    7.40 
   1   5  -7   70.99    8.10 
   1   5  -7   63.19   10.40 
   1   5  -7   84.79   10.60 
   1   5  -7   68.99    8.20 
  -1   5   7   63.39    9.40 
  -1   5   7   66.09    8.40 
   1   5  -7   58.19   11.60 
  -1   5   7   83.89   11.30 
   0  -5  -7   91.19    8.10 
   0  -5   7   89.79    8.40 
   0   5   7   85.39   11.10 
   0   5   7   89.39   10.50 
   0   5  -7   93.19    9.60 
   0   5   7  100.99    9.20 
   0   5  -7   96.19   10.10 
   0   5  -7  112.09    9.90 
   0   5  -7   68.39   11.80 
   0   5   7   90.79   10.20 
  -1  -5  -7   96.69    8.00 
   1  -5   7   82.59    7.90 
  -1  -5  -7   88.19    8.30 
   1  -5   7  100.39   12.50 
   1  -5   7  100.59    9.70 
   1   5   7   82.39   12.10 
  -1   5  -7   94.09   12.10 
  -1   5  -7   97.09    9.90 
  -1   5  -7   89.09    9.50 
   1   5   7   95.19   11.20 
   1   5   7  111.09   10.60 
   1   5   7  102.69    8.90 
  -1   5  -7  108.69   10.60 
  -2  -5  -7   39.80    6.60 
  -2  -5  -7   27.60    4.20 
   2  -5   7   32.80    6.00 
  -2  -5  -7   29.40    5.10 
   2  -5   7   30.90    4.10 
  -2   5  -7   38.20    6.20 
  -2   5  -7   42.20    5.60 
  -2   5  -7   35.20    6.80 
   2   5   7   44.00    6.80 
   2   5   7   30.80    4.60 
   2   5   7   33.60    5.90 
   3  -5   7   64.09    5.60 
  -3  -5  -7   79.89    6.60 
  -3  -5  -7   73.19    6.80 
   3  -5   7   70.89    8.20 
   3  -5   7   89.89    9.00 
   3   5   7   81.39    8.90 
   3   5   7   76.39    7.70 
   3   5   7   73.89   10.00 
  -3   5  -7   66.29    8.90 
   3   5   7   64.99    7.20 
   4  -5   7    9.80    2.80 
  -4  -5  -7   13.60    2.20 
   4  -5   7   16.50    3.90 
  -4   5  -7    9.00    2.90 
   4   5   7   10.60    5.20 
   4   5   7   12.60    3.50 
   4   5   7   11.90    2.60 
   4   5   7   13.10    3.00 
   4   5   7   13.60    3.40 
  -5  -5  -7    3.40    1.00 
   5  -5   7    2.50    1.40 
  -5  -5  -7    3.00    1.20 
   5   5   7    1.00    1.00 
   5   5   7    1.30    1.40 
   5   5   7   -1.30    1.50 
  -5   5  -7    3.20    1.50 
   6  -6  -7    2.40    1.80 
   6   6  -7    0.80    1.80 
   6   6  -7    0.60    1.40 
   6   6  -7   -0.90    1.70 
  -6   6   7    1.70    2.00 
   6   6  -7    0.70    1.90 
   5  -6  -7    1.80    2.40 
   5   6  -7   -1.10    1.90 
   5   6  -7    1.00    2.30 
   5   6  -7    1.10    2.00 
   5   6  -7    6.80    3.90 
  -5   6   7   -1.60    2.00 
  -4  -6   7   50.49    4.50 
   4  -6  -7   47.00    8.20 
   4   6  -7   46.70    7.70 
  -4   6   7   36.90    6.90 
   4   6  -7   35.80    7.10 
   4   6  -7   53.49    7.20 
  -3  -6   7   11.80    2.40 
   3  -6  -7   12.70    3.00 
   3   6  -7   14.70    4.00 
  -3   6   7   10.70    5.50 
   3   6  -7   14.50    3.30 
  -3   6   7    5.10    3.10 
   3   6  -7   15.80    4.30 
  -3   6   7   11.20    3.90 
  -2  -6   7   32.30    3.80 
   2  -6  -7   29.80    4.70 
  -2   6   7   34.50    6.50 
  -2   6   7   40.00   10.20 
   2   6  -7   23.60    6.00 
  -2   6   7   35.50    6.00 
   2   6  -7   27.90    6.40 
   2   6  -7   30.80    5.00 
  -2   6   7   30.90    6.30 
   1  -6  -7  175.28   15.90 
  -1  -6   7  176.38   13.50 
   1  -6  -7  187.28   13.70 
   1  -6  -7  176.08   14.20 
   1   6  -7  199.28   15.30 
   1   6  -7  180.48   15.50 
   1   6  -7  199.28   16.30 
  -1   6   7  160.38   15.90 
  -1   6   7  167.48   15.80 
  -1   6   7  145.79   16.30 
   0  -6   7   69.99   11.20 
   0  -6  -7   81.99    7.60 
   0  -6   7   82.39    8.00 
   0  -6  -7   79.49    7.30 
   0  -6   7   69.49    7.10 
   0  -6  -7   92.39    9.60 
   0   6  -7   86.09    8.70 
   0   6  -7   82.29    9.00 
   0   6  -7   86.99    9.30 
   0   6   7   66.39    9.60 
   0   6   7   57.29    9.70 
   0   6   7   78.09    9.10 
  -1  -6  -7    6.80    2.10 
   1  -6   7   10.30    2.30 
  -1  -6  -7   10.70    2.80 
   1  -6   7   11.80    3.00 
   1  -6   7    9.20    2.90 
  -1   6  -7   13.20    3.70 
   1   6   7   12.70    3.50 
  -1   6  -7   15.60    3.90 
   1   6   7   14.70    4.90 
   1   6   7   10.70    2.40 
  -1   6  -7    8.30    3.70 
   1   6   7    7.40    3.80 
   2  -6   7   11.90    3.70 
   2  -6   7    9.70    2.30 
  -2  -6  -7   11.50    2.30 
  -2   6  -7    7.50    3.60 
  -2   6  -7    7.80    3.10 
   2   6   7   12.80    3.80 
   2   6   7   14.10    3.90 
  -2   6  -7    8.50    3.20 
   2   6   7   16.50    6.10 
   2   6   7    7.10    2.20 
   3  -6   7    2.70    1.80 
   3  -6   7    4.50    1.30 
  -3  -6  -7    2.10    1.80 
  -3  -6  -7    7.60    2.10 
   3  -6   7    3.60    1.90 
  -3   6  -7    8.10    2.90 
   3   6   7    4.20    2.10 
   3   6   7    2.60    2.70 
   3   6   7    5.10    3.40 
  -4  -6  -7   18.80    2.90 
   4  -6   7   15.60    3.70 
   4  -6   7   16.50    3.30 
   4   6   7   13.40    3.10 
   4   6   7    8.90    2.70 
   4   6   7   13.20    3.20 
  -4   6  -7   13.20    3.90 
   5  -7  -7    5.20    3.00 
   5   7  -7    3.30    2.10 
  -5   7   7    4.00    2.40 
   5   7  -7    4.60    2.40 
   5   7  -7    3.70    2.40 
  -4  -7   7   27.60    3.50 
   4  -7  -7   24.70    6.50 
   4   7  -7   27.70    5.00 
  -4   7   7   24.00    6.00 
   4   7  -7   20.20    4.70 
   4   7  -7   29.10    5.90 
  -3  -7   7   56.49    5.40 
  -3   7   7   56.19    8.80 
  -3   7   7   47.10    6.90 
   3   7  -7   69.29    8.40 
   3   7  -7   63.09    7.40 
   3   7  -7   43.30    8.10 
   2  -7  -7  102.39    9.50 
   2  -7  -7   78.49    8.50 
  -2  -7   7   97.79    8.00 
  -2   7   7   84.99   11.10 
   2   7  -7   90.09   10.90 
   2   7  -7   97.09    9.50 
   2   7  -7  105.79   10.10 
  -2   7   7   85.39    9.90 
  -2   7   7   87.59   10.70 
   1  -7  -7    4.90    2.30 
  -1  -7   7    9.30    2.60 
  -1  -7   7    9.40    2.50 
   1  -7  -7    8.70    2.50 
   1   7  -7    4.30    2.50 
  -1   7   7   13.30    3.80 
  -1   7   7    1.50    3.40 
  -1   7   7    4.00    3.10 
   1   7  -7   12.40    3.80 
   0  -7   7  129.89   16.50 
   0  -7  -7  171.68   13.60 
   0  -7   7  164.98   13.40 
   0  -7   7  157.98   12.40 
   0   7   7  161.38   15.50 
   0   7  -7  175.38   15.10 
   0   7   7  172.48   16.40 
   0   7  -7  168.28   15.30 
   0   7   7  150.28   16.80 
   0   7  -7  173.48   14.40 
   1  -7   7   30.40    5.20 
  -1  -7  -7   23.80    4.00 
   1  -7   7   32.40    4.40 
  -1  -7  -7   42.60    5.10 
   1  -7   7   28.90    5.90 
   1   7   7   22.20    6.40 
  -1   7  -7   33.70    5.90 
   1   7   7   28.30    6.80 
   1   7   7   35.70    6.10 
  -1   7  -7   34.90    5.70 
   1   7   7   29.50    4.60 
  -2  -7  -7   68.29    6.10 
   2  -7   7   63.59    7.30 
  -2  -7  -7   65.29    6.30 
   2  -7   7   61.99    5.80 
  -2   7  -7   62.59    8.00 
  -2   7  -7   59.49    6.80 
   2   7   7   48.90    8.80 
   2   7   7   59.19    8.00 
  -2   7  -7   53.79    7.10 
   2   7   7   49.80    5.90 
   2   7   7   57.89    9.10 
  -3  -7  -7    9.30    2.20 
   3  -7   7   12.70    3.00 
   3  -7   7    8.80    2.80 
  -3   7  -7   13.80    2.90 
   3   7   7   12.20    3.50 
   3   7   7    7.90    3.90 
   3   7   7   12.80    3.80 
  -3   7  -7   11.70    3.50 
   3   7   7    8.70    2.30 
   4  -7   7    6.40    1.70 
  -4  -7  -7    4.90    1.60 
   4  -7   7    7.80    1.90 
   4   7   7    8.20    2.30 
   4   7   7   10.20    2.70 
  -4   7  -7    5.60    2.00 
   4   7   7    3.90    2.80 
   4   7   7    5.50    1.50 
   5  -8  -7    3.80    2.00 
   5   8  -7    2.30    1.30 
   5   8  -7    3.60    2.40 
  -5   8   7   -0.10    1.70 
   4  -8  -7   16.60    5.10 
   4   8  -7   11.00    2.50 
  -4   8   7   12.30    3.60 
   4   8  -7    9.20    3.20 
   3  -8  -7   -0.40    2.20 
   3  -8  -7    7.50    2.20 
   3   8  -7    4.20    2.10 
  -3   8   7    7.20    3.10 
   3   8  -7    4.30    2.20 
  -2  -8   7    7.70    3.10 
   2  -8  -7    4.90    2.50 
  -2   8   7    5.20    2.40 
  -2   8   7    4.10    3.30 
  -2   8   7    3.00    3.00 
   2   8  -7    7.00    2.40 
   2   8  -7    4.70    2.50 
  -2   8   7    5.70    3.30 
   2   8  -7    5.00    2.60 
  -1  -8   7   10.10    2.40 
   1  -8  -7   11.50    2.80 
  -1  -8   7    7.50    2.30 
   1  -8  -7    8.30    2.70 
   1   8  -7    5.80    2.80 
   1   8  -7   11.10    3.40 
  -1   8   7    5.00    3.10 
  -1   8   7    8.10    3.70 
  -1   8   7   10.40    3.90 
   1   8  -7    4.90    2.90 
   0  -8  -7   27.60    4.60 
   0  -8  -7   40.80    5.80 
   0  -8   7   30.30    4.30 
   0  -8   7   26.20    5.40 
   0   8  -7   29.30    5.10 
   0   8   7   24.00    5.30 
   0   8  -7   34.80    5.90 
   0   8  -7   33.50    5.60 
   0   8   7   36.30    6.30 
   0   8   7   18.20    5.10 
  -1  -8  -7   22.30    4.00 
   1  -8   7   21.90    3.50 
   1  -8   7   16.00    3.60 
   1   8   7   23.10    5.50 
  -1   8  -7   20.60    4.70 
  -1   8  -7   22.10    4.30 
   1   8   7   27.70    5.80 
  -1   8  -7   15.50    4.40 
   1   8   7   23.80    6.60 
   2  -8   7    3.90    2.70 
   2  -8   7    6.00    1.60 
  -2  -8  -7    7.00    2.20 
   2   8   7    2.40    2.20 
   2   8   7    5.20    2.60 
  -2   8  -7    2.00    2.40 
   2   8   7    2.50    1.90 
  -2   8  -7    5.00    2.50 
  -2   8  -7    6.70    2.40 
  -3  -8  -7   11.30    2.30 
   3  -8   7    7.40    1.80 
  -3  -8  -7    3.20    2.30 
   3  -8   7   12.20    2.80 
  -3   8  -7    7.20    3.20 
   3   8   7    5.60    1.90 
   3   8   7    3.90    1.90 
   3   8   7    1.90    2.30 
  -3   8  -7    6.70    2.20 
   4  -9  -7   -0.80    1.60 
   4   9  -7   -2.10    1.30 
  -4   9   7    1.50    2.70 
   4   9  -7   -0.80    1.50 
   3  -9  -7    8.50    1.60 
  -3   9   7    4.80    2.40 
  -3   9   7    9.20    2.20 
   3   9  -7    9.70    2.60 
   3   9  -7    4.90    2.00 
  -2  -9   7    0.70    1.90 
   2   9  -7    2.30    1.80 
  -2   9   7    3.30    2.00 
  -2   9   7    2.50    1.70 
   2   9  -7    1.10    1.80 
   2   9  -7    0.00    1.50 
  -2   9   7    4.00    2.70 
  -1  -9   7    6.50    1.60 
   1  -9  -7    3.90    2.20 
  -1   9   7    3.90    2.50 
   1   9  -7    3.60    1.90 
   1   9  -7    1.70    1.90 
   1   9  -7    2.50    2.30 
  -1   9   7    4.10    2.00 
  -1   9   7    0.20    2.10 
   0  -9  -7   16.00    5.90 
   0   9   7   15.00    3.90 
   0   9  -7    5.50    2.10 
   0   9   7    8.90    2.80 
   0   9  -7   10.10    2.70 
   0   9  -7   11.20    2.90 
   1  -9   7   10.10    2.10 
   1  -9   7    9.00    2.70 
  -1  -9  -7   14.70    3.10 
   1   9   7   12.20    3.40 
   1   9   7   10.00    3.50 
  -1   9  -7   13.30    3.40 
  -1   9  -7    8.80    2.50 
  -2  -9  -7    3.30    2.10 
   2  -9   7    5.50    1.10 
   2  -9   7    7.70    2.00 
   2  -9   7    6.10    1.90 
   2   9   7    3.10    1.60 
  -2   9  -7    7.10    1.90 
  -2   9  -7    4.90    1.60 
   2   9   7    6.40    2.60 
   2 -10  -7    2.40    2.30 
   2 -10  -7    2.10    1.30 
  -2  10   7    5.00    2.10 
   2  10  -7    2.80    1.20 
   1  10  -7    1.80    1.50 
  -1  10   7    0.40    1.40 
   1  10  -7    0.60    1.30 
  -1  10   7    5.20    1.70 
  -1  10   7    0.40    2.00 
   1  10  -7    2.80    1.30 
   0 -10  -7    8.70    3.30 
   0 -10   7   -1.90    1.60 
   0  10   7   -0.40    1.20 
   0  10  -7    0.90    1.20 
   0  10   7    1.40    1.60 
   0  10  -7    0.70    1.10 
   0  10   7   -0.70    1.50 
   0  10  -7    0.50    1.40 
   7   0  -8    4.50    2.10 
   7   0  -8    1.90    2.30 
  -7   0   8    1.40    1.70 
  -6   0   8   19.20    5.50 
   6   0  -8    8.50    5.10 
   6   0  -8   13.80    4.10 
   6   0  -8   11.00    4.30 
   6   0  -8   27.70    8.00 
  -6   0   8   18.00    3.80 
   5   0  -8   56.99    8.20 
   5   0  -8   68.49    8.90 
  -5   0   8   67.29    6.20 
   5   0  -8   63.29    8.20 
  -5   0   8   50.09    6.80 
   5   0  -8   50.49    8.80 
   4   0  -8  238.58   22.40 
  -4   0   8  280.37   18.40 
  -4   0   8  230.88   19.00 
   4   0  -8  234.48   21.30 
   4   0  -8  301.37   22.10 
   4   0  -8  271.97   21.10 
  -3   0   8  473.85   34.40 
  -3   0   8  436.56   29.60 
  -2   0   8  399.26   29.00 
  -2   0   8  364.36   25.00 
  -1   0   8   33.10    3.70 
   1   0  -8   36.20    4.50 
   0   0  -8    2.10    1.50 
  -1   0  -8  461.85   32.60 
   1   0   8  448.16   35.70 
   2   0   8   68.19    8.00 
  -2   0  -8   71.19    5.80 
   2   0   8   53.39    8.30 
   2   0   8   63.39    7.70 
  -3   0  -8   13.10    4.00 
   3   0   8   25.10    3.90 
   3   0   8   19.20    4.40 
   3   0   8   30.40    5.70 
   4   0   8  120.69   13.20 
  -4   0  -8  124.89    9.40 
   4   0   8  110.09   13.50 
   4   0   8  139.99   11.00 
   4   0   8  139.79   11.70 
   4   0   8  129.99   12.50 
   5   0   8    6.10    1.70 
   5   0   8    3.80    2.00 
   5   0   8    3.60    2.00 
   5   0   8    5.00    3.30 
  -5   0  -8    5.80    2.30 
  -5   0  -8    5.60    1.20 
   7  -1  -8    5.50    2.10 
   7  -1  -8    7.30    2.20 
  -7  -1   8    5.90    1.90 
  -7  -1   8    5.50    1.90 
   7   1  -8    3.00    1.80 
   7   1  -8    0.30    1.80 
  -7   1   8    3.20    1.40 
   7   1  -8    3.20    2.00 
  -7   1   8    3.10    2.00 
  -6  -1   8   18.80    3.50 
   6  -1  -8    9.10    3.40 
  -6  -1   8   13.60    3.40 
   6  -1  -8   11.70    3.70 
   6  -1  -8   11.20    3.20 
  -6   1   8   14.30    4.30 
   6   1  -8    6.70    3.00 
   6   1  -8   11.30    3.30 
   6   1  -8   11.00    3.80 
  -6   1   8   13.70    3.30 
   6   1  -8   17.30    4.30 
   5  -1  -8   63.39    8.50 
  -5  -1   8   70.09    6.30 
   5  -1  -8   62.29    9.10 
   5  -1  -8   57.49    8.40 
  -5  -1   8   48.50    7.10 
   5  -1  -8   63.79    9.00 
  -5   1   8   56.99    6.90 
   5   1  -8   73.59    9.00 
   5   1  -8   60.39    9.00 
   5   1  -8   66.49    8.70 
   5   1  -8   80.09    9.50 
  -5   1   8   76.69    6.70 
   4  -1  -8  127.19   14.40 
  -4  -1   8  172.78   13.30 
   4  -1  -8  154.58   15.90 
   4  -1  -8  167.28   15.00 
   4  -1  -8  181.18   16.00 
   4   1  -8  148.69   16.50 
  -4   1   8  179.88   12.60 
  -4   1   8  145.69   13.00 
   4   1  -8  196.68   16.10 
   4   1  -8  187.78   15.60 
   4   1  -8  141.89   15.50 
  -3  -1   8  265.17   16.10 
   3  -1  -8  203.68   19.30 
  -3   1   8  248.78   16.10 
  -3   1   8  213.78   16.60 
   3   1  -8  194.08   19.30 
   3   1  -8  208.58   20.00 
  -2  -1   8  306.17   19.80 
  -2  -1   8  320.67   23.30 
  -2   1   8  257.87   19.50 
  -2   1   8  286.77   23.60 
  -1  -1   8  311.07   24.50 
   1  -1  -8  309.27   22.40 
  -1  -1   8  318.47   21.60 
   1   1  -8  353.06   23.80 
  -1   1   8  328.47   25.90 
   0  -1   8   45.50    5.10 
   0  -1   8   48.00    6.90 
   0  -1  -8   49.40    5.20 
   0  -1  -8   57.79    6.10 
   0   1   8   48.50    8.10 
   0   1  -8   55.99    6.60 
  -1  -1  -8    5.10    2.00 
   1  -1   8    0.40    2.80 
  -1  -1  -8    9.60    3.00 
   1   1   8    8.80    4.00 
  -1   1  -8    6.50    2.70 
   2  -1   8   87.09    9.10 
   2  -1   8  100.69   10.30 
   2  -1   8   97.49    8.40 
  -2  -1  -8   99.49    7.60 
  -2  -1  -8   80.39    8.30 
   2   1   8   99.69    9.30 
   2   1   8  109.29    9.70 
  -2   1  -8   89.69    7.20 
   2   1   8   91.09   10.80 
   2   1   8  104.29    8.90 
   2   1   8   79.09    9.40 
   3  -1   8  103.29   12.30 
  -3  -1  -8   70.49    8.30 
  -3  -1  -8   94.39    7.60 
   3  -1   8   79.29    9.70 
   3  -1   8   93.09    8.00 
   3   1   8   77.99    9.60 
   3   1   8   88.49    9.10 
   3   1   8   95.69    9.40 
   3   1   8   70.59    9.00 
   3   1   8  109.49   13.60 
   4  -1   8   50.29    8.00 
  -4  -1  -8   41.50    8.00 
  -4  -1  -8   62.29    5.50 
   4  -1   8   64.49    5.70 
   4  -1   8   54.69    6.70 
   4  -1   8   55.69    7.40 
   4   1   8   52.89    8.30 
   4   1   8   53.99    7.40 
   4   1   8   65.89    6.40 
  -4   1  -8   61.59    5.10 
   4   1   8   64.29    8.90 
   4   1   8   57.69    6.90 
  -5  -1  -8   41.40    3.70 
   5  -1   8   41.50    5.50 
   5  -1   8   35.10    5.50 
   5  -1   8   32.00    4.50 
   5   1   8   34.30    4.50 
   5   1   8   43.50    4.30 
  -5   1  -8   45.00    5.10 
   5   1   8   36.00    5.60 
   5   1   8   29.80    6.10 
   7  -2  -8    9.20    2.40 
  -7  -2   8   11.20    2.80 
  -7   2   8    4.60    1.60 
  -7   2   8    6.30    2.80 
   7   2  -8    6.60    2.20 
   7   2  -8    2.00    1.90 
   7   2  -8    6.10    2.80 
   6  -2  -8   13.30    4.20 
  -6  -2   8   19.30    3.80 
   6  -2  -8   13.00    3.80 
   6  -2  -8   23.70    5.60 
  -6  -2   8   23.70    5.00 
   6   2  -8   16.40    5.20 
   6   2  -8    9.20    3.50 
  -6   2   8   20.20    3.60 
   6   2  -8    6.90    3.40 
   6   2  -8   12.80    4.10 
  -6   2   8   24.10    5.30 
   5  -2  -8  161.88   14.60 
   5  -2  -8  149.69   15.10 
   5  -2  -8  165.48   15.10 
   5   2  -8  155.98   16.50 
   5   2  -8  160.68   15.40 
   5   2  -8  130.99   14.90 
   5   2  -8  170.28   15.30 
  -5   2   8  151.68   15.40 
  -5   2   8  149.19   12.40 
   4  -2  -8  225.58   17.90 
   4  -2  -8  237.68   20.20 
   4  -2  -8  207.98   19.10 
   4  -2  -8  202.08   19.00 
  -4  -2   8  234.38   15.50 
   4  -2  -8  181.98   18.00 
  -4  -2   8  207.58   16.10 
   4   2  -8  232.78   18.70 
   4   2  -8  247.08   18.60 
   4   2  -8  205.78   19.90 
   4   2  -8  200.48   19.30 
  -4   2   8  192.98   15.80 
   3  -2  -8  347.87   25.90 
  -3  -2   8  392.16   27.20 
  -3  -2   8  360.66   22.70 
   3  -2  -8  292.67   26.50 
   3   2  -8  352.56   25.80 
   3   2  -8  284.67   26.80 
   3   2  -8  375.16   25.30 
   3   2  -8  309.57   26.80 
  -3   2   8  308.67   23.10 
  -2  -2   8   98.19    9.90 
  -2  -2   8   93.19    7.40 
  -2   2   8   79.59   10.50 
   1  -2  -8  293.17   19.90 
   1  -2  -8  285.37   20.50 
  -1  -2   8  284.07   22.00 
  -1  -2   8  290.97   19.60 
  -1   2   8  243.48   27.00 
   1   2  -8  326.07   22.80 
   0  -2   8    7.20    2.80 
   0  -2  -8    8.50    2.60 
   0  -2   8   10.70    2.30 
   0  -2  -8    7.20    2.00 
   0   2   8    4.40    3.20 
   0   2  -8    9.50    3.30 
  -1  -2  -8    5.30    2.60 
  -1  -2  -8    3.90    2.00 
   1  -2   8    5.90    2.40 
   1  -2   8    8.40    1.80 
  -1  -2  -8    8.30    1.70 
  -1   2  -8    4.50    3.50 
   1   2   8    6.10    2.70 
  -1   2  -8    7.50    3.10 
   1   2   8   12.20    2.90 
   2  -2   8  152.58   13.60 
  -2  -2  -8  139.49   10.80 
  -2  -2  -8  123.19   11.50 
   2  -2   8  139.89   12.90 
   2   2   8  172.38   12.70 
   2   2   8  153.68   14.00 
   2   2   8  154.48   15.50 
  -2   2  -8  167.08   13.70 
   2   2   8  142.49   12.90 
   2   2   8  166.18   13.00 
  -3  -2  -8   12.00    2.30 
   3  -2   8   19.50    4.70 
   3  -2   8    9.70    3.20 
   3   2   8   20.80    3.60 
   3   2   8    7.30    3.60 
   3   2   8   14.30    4.20 
   3   2   8   18.30    4.40 
   3   2   8   14.00    3.10 
  -3   2  -8   18.90    3.80 
  -3   2  -8   14.70    3.80 
  -4  -2  -8  132.29   12.60 
   4  -2   8  158.98   15.80 
   4  -2   8  138.79   13.90 
   4   2   8  140.69   15.70 
   4   2   8  144.69   13.60 
   4   2   8  152.48   15.90 
   4   2   8  173.08   13.60 
   4   2   8  170.88   17.10 
  -5  -2  -8   31.50    3.30 
  -5  -2  -8   31.80    4.40 
   5  -2   8   21.50    4.40 
   5  -2   8   33.70    4.80 
   5   2   8   21.20    6.20 
   5   2   8   29.10    4.80 
   5   2   8   29.40    3.50 
   5   2   8   28.20    4.20 
  -5   2  -8   29.80    4.10 
  -7  -3   8   10.30    2.00 
  -7   3   8   13.40    3.30 
   7   3  -8   12.80    3.40 
   7   3  -8    5.00    2.20 
  -7   3   8    9.10    3.20 
   7   3  -8    7.00    2.40 
  -6  -3   8   35.10    4.30 
   6  -3  -8   21.10    4.90 
   6  -3  -8   18.70    4.50 
  -6  -3   8   32.20    4.90 
  -6   3   8   29.20    4.70 
  -6   3   8   30.00    5.60 
   6   3  -8   24.90    5.70 
   6   3  -8   30.10    6.60 
   5  -3  -8   79.79    9.20 
   5  -3  -8   78.59    9.90 
  -5  -3   8   61.09    7.90 
  -5  -3   8   92.99    7.30 
   5  -3  -8   64.89    9.00 
   5   3  -8   83.79   10.80 
   5   3  -8   82.59    9.60 
   5   3  -8   74.59   10.40 
  -5   3   8   77.89   10.00 
  -5   3   8   76.39    6.80 
   5   3  -8   78.59   10.30 
   4  -3  -8  155.18   16.50 
   4  -3  -8  196.78   17.00 
  -4  -3   8  209.48   13.90 
  -4   3   8  180.88   13.40 
  -4   3   8  189.98   17.50 
   4   3  -8  203.68   17.40 
   4   3  -8  142.99   17.00 
   4   3  -8  224.18   16.80 
   4   3  -8  173.08   17.70 
  -3  -3   8   17.70    2.90 
   3   3  -8   20.20    8.80 
   3   3  -8   17.30    4.90 
   3   3  -8   19.50    4.10 
   3   3  -8   17.40    4.70 
  -3   3   8   22.90    4.70 
  -3   3   8   13.40    4.10 
   2  -3  -8  271.77   19.30 
  -2  -3   8  279.57   19.00 
   2  -3  -8  307.17   22.80 
   2   3  -8  285.57   20.60 
   2   3  -8  304.17   21.70 
   2   3  -8  217.88   22.20 
   1  -3  -8   29.70    5.00 
   1  -3  -8   25.60    4.50 
  -1  -3   8   41.20    4.20 
   1   3  -8   37.40    6.90 
  -1   3   8   33.70    7.30 
   0  -3  -8   13.80    3.50 
   0  -3   8   15.40    3.20 
   0  -3   8   12.50    2.80 
   0  -3  -8   16.90    3.20 
   0   3  -8    7.50    3.20 
   0   3   8   17.10    3.10 
   0   3   8   11.00    4.10 
   0   3  -8   10.90    3.40 
   1  -3   8  155.68   13.70 
   1  -3   8  176.18   12.50 
   1  -3   8  167.38   14.40 
  -1  -3  -8  154.78   13.00 
   1  -3   8  192.98   15.30 
  -1  -3  -8  193.28   14.20 
   1   3   8  156.78   16.50 
  -1   3  -8  167.08   14.40 
   1   3   8  197.88   14.20 
   1   3   8  173.58   14.30 
   2  -3   8   47.90    6.70 
   2  -3   8   43.60    6.30 
   2  -3   8   47.50    4.30 
  -2  -3  -8   45.30    4.80 
   2   3   8   54.49    6.20 
   2   3   8   58.29    6.40 
  -2   3  -8   56.59    6.70 
   2   3   8   53.69    6.00 
   2   3   8   45.20    6.70 
   2   3   8   47.30    7.80 
  -2   3  -8   37.50    6.20 
   3  -3   8   14.90    3.90 
  -3  -3  -8   25.70    3.40 
  -3  -3  -8   17.90    3.70 
   3  -3   8   18.50    4.00 
  -3   3  -8   23.90    4.50 
   3   3   8   22.70    3.90 
   3   3   8   21.80    6.20 
  -3   3  -8   25.50    4.70 
   3   3   8   21.70    4.00 
   3   3   8   15.40    3.70 
   3   3   8   25.40    4.70 
  -4  -3  -8   51.89    7.20 
  -4  -3  -8   67.29    5.70 
   4  -3   8   60.09    7.50 
   4  -3   8   54.59    7.40 
  -4   3  -8   62.09    6.80 
   4   3   8   77.59    7.40 
   4   3   8   54.79    9.30 
   4   3   8   65.29    6.70 
  -4   3  -8   59.79    7.10 
   4   3   8   61.29    7.40 
   5  -3   8   22.00    4.00 
  -5  -3  -8   27.80    4.10 
  -5  -3  -8   24.90    2.90 
   5  -3   8   18.90    4.00 
   5   3   8   26.70    3.30 
   5   3   8   22.40    3.90 
  -5   3  -8   19.80    3.80 
   5   3   8   23.20    3.50 
  -7  -4   8    9.50    2.60 
  -7  -4   8    4.80    1.50 
   7   4  -8    3.20    1.40 
   7   4  -8    6.30    1.80 
   7   4  -8    3.60    1.60 
  -7   4   8    9.30    3.00 
  -6  -4   8    5.30    2.30 
   6  -4  -8    5.90    3.20 
   6   4  -8    5.20    2.30 
   6   4  -8    6.20    3.20 
   6   4  -8    5.40    3.10 
   6   4  -8    8.80    3.10 
  -6   4   8   12.40    4.20 
  -6   4   8    9.20    2.40 
  -5  -4   8   32.70    6.00 
   5  -4  -8   50.69    9.70 
   5  -4  -8   27.20    6.50 
   5   4  -8   25.80    6.40 
  -5   4   8   33.70    6.40 
  -5   4   8   33.30    5.80 
   5   4  -8   39.80    7.70 
   5   4  -8   47.00    7.20 
   4  -4  -8   64.29    8.80 
  -4  -4   8   72.49    6.10 
   4  -4  -8   67.19    8.80 
  -4   4   8   59.49    8.40 
   4   4  -8   68.69    8.00 
   4   4  -8   63.09    8.80 
   4   4  -8   73.89    8.60 
   4   4  -8   44.30    8.20 
   3  -4  -8  155.88   16.50 
  -3  -4   8  210.08   13.70 
   3   4  -8  150.48   16.60 
   3   4  -8  215.28   16.00 
   3   4  -8  164.48   17.70 
  -3   4   8  170.28   15.60 
   3   4  -8  208.58   17.20 
  -3   4   8  189.88   16.90 
   2  -4  -8   86.49    7.80 
   2  -4  -8   84.89    9.60 
  -2  -4   8   75.49    6.90 
  -2   4   8   78.79    9.40 
   2   4  -8   76.79   10.20 
   2   4  -8   96.29    9.50 
  -2   4   8   63.19   10.20 
   2   4  -8   81.79    8.40 
  -2   4   8   69.99    9.30 
  -1  -4   8   11.10    2.50 
  -1  -4   8   13.80    2.70 
   1  -4  -8    9.20    2.40 
   1  -4  -8   10.20    2.70 
   1  -4  -8   24.20    8.70 
  -1   4   8   17.30    4.90 
  -1   4   8   17.10    3.80 
   1   4  -8   16.60    5.20 
   1   4  -8   16.60    4.70 
   1   4  -8   21.50    4.60 
   0  -4  -8    4.90    1.80 
   0  -4   8    7.50    2.30 
   0  -4   8    7.10    2.00 
   0  -4  -8    7.50    2.00 
   0   4  -8   10.10    3.40 
   0   4   8    2.50    3.20 
   0   4  -8    1.10    2.70 
   0   4   8   -2.70    4.90 
   0   4  -8    9.90    3.30 
   0   4   8   16.40    5.10 
   0   4   8    7.80    2.50 
   1  -4   8  126.49   11.50 
  -1  -4  -8  128.89    9.90 
  -1  -4  -8  122.09   11.30 
   1  -4   8  120.99   11.80 
  -1  -4  -8  120.09   10.70 
   1  -4   8  128.49   10.10 
  -1   4  -8  114.09   11.50 
   1   4   8  138.09   13.30 
   1   4   8  127.49   11.90 
  -1   4  -8  145.29   12.50 
  -1   4  -8  138.39   12.40 
   1   4   8  147.29   11.30 
  -1   4  -8  140.19   12.80 
  -2  -4  -8    8.20    2.90 
   2  -4   8    6.40    2.60 
  -2  -4  -8    9.50    2.40 
   2  -4   8    5.90    1.60 
   2  -4   8    5.50    2.50 
   2   4   8    5.10    3.30 
   2   4   8    3.60    2.80 
   2   4   8    7.40    3.40 
   2   4   8   10.60    2.70 
  -2   4  -8   10.50    3.70 
   3  -4   8   35.90    5.90 
   3  -4   8   43.10    6.20 
  -3  -4  -8   34.10    4.80 
  -3  -4  -8   38.80    4.30 
   3   4   8   43.40    5.60 
  -3   4  -8   43.70    6.20 
   3   4   8   41.90    5.70 
  -3   4  -8   28.40    5.80 
   3   4   8   41.40    7.70 
   3   4   8   41.00    6.70 
   3   4   8   37.50    5.50 
  -4  -4  -8   62.39    5.40 
   4  -4   8   49.60    6.60 
  -4  -4  -8   71.89    6.90 
   4  -4   8   59.79    7.10 
  -4   4  -8   53.69    6.30 
   4   4   8   55.29    7.40 
   4   4   8   72.29    6.80 
  -4   4  -8   45.40    6.80 
   4   4   8   54.59    6.00 
   4   4   8   47.00    7.80 
   4   4   8   59.19    6.60 
   5  -4   8   14.70    3.30 
  -5  -4  -8   20.60    2.50 
  -5  -4  -8   19.60    2.80 
   5   4   8   22.70    2.80 
   5   4   8   16.20    3.20 
   6  -5  -8   -0.40    1.80 
   6   5  -8    2.40    1.90 
   6   5  -8    0.90    1.40 
   6   5  -8    1.60    1.60 
  -6   5   8    4.10    2.50 
   6   5  -8   -0.20    2.10 
   5  -5  -8    1.90    2.50 
  -5  -5   8    5.90    2.70 
   5   5  -8    6.80    3.30 
   5   5  -8    1.60    2.50 
   5   5  -8    2.40    2.80 
   5   5  -8    5.10    2.80 
  -5   5   8    4.00    2.60 
  -4  -5   8   67.39    5.60 
   4  -5  -8   48.20    8.00 
   4  -5  -8   59.09    8.70 
   4   5  -8   62.09    8.70 
  -4   5   8   64.99    8.90 
   4   5  -8   61.89    9.30 
   4   5  -8   74.29    8.20 
   4   5  -8   44.50    8.10 
  -3  -5   8   10.40    2.20 
   3  -5  -8   17.90    6.00 
   3   5  -8   14.10    3.70 
   3   5  -8    8.40    3.20 
  -3   5   8   13.60    4.20 
  -3   5   8    7.20    3.70 
   2  -5  -8  114.79   11.40 
   2  -5  -8  139.39   11.40 
   2  -5  -8  143.29   13.20 
  -2  -5   8  135.69   10.30 
  -2   5   8  125.29   13.40 
   2   5  -8  147.09   12.20 
  -2   5   8  137.49   12.90 
   2   5  -8  103.09   13.20 
  -2   5   8  128.49   12.80 
   2   5  -8  141.49   11.90 
   2   5  -8  132.29   12.70 
   1  -5  -8   16.70    4.40 
   1  -5  -8   24.80    4.30 
   1  -5  -8   24.80    4.30 
  -1  -5   8   28.50    4.00 
  -1  -5   8   31.10    4.70 
   1   5  -8   23.70    5.50 
  -1   5   8   31.40    5.20 
   1   5  -8   31.80    5.00 
  -1   5   8   29.50    6.40 
   1   5  -8   37.30    4.90 
   1   5  -8   28.50    5.80 
   0  -5  -8    2.00    1.80 
   0  -5  -8    3.10    1.50 
   0  -5   8    1.40    1.70 
   0  -5   8    3.90    2.00 
   0   5   8    3.90    2.30 
   0   5   8    8.30    2.50 
   0   5   8    3.40    1.90 
   0   5  -8    5.20    2.80 
   0   5  -8    6.20    2.70 
   0   5  -8    1.60    2.10 
   0   5  -8    3.50    3.70 
   0   5   8    2.40    2.70 
  -1  -5  -8   17.60    3.80 
   1  -5   8   27.00    5.10 
  -1  -5  -8   15.50    3.10 
   1  -5   8   17.60    4.10 
   1   5   8   30.10    8.30 
  -1   5  -8   15.20    3.70 
   1   5   8   15.30    3.80 
  -1   5  -8   12.60    3.40 
  -1   5  -8   21.10    5.00 
  -1   5  -8   15.90    4.80 
   2  -5   8   51.99    4.90 
  -2  -5  -8   47.00    6.20 
  -2  -5  -8   44.00    8.10 
   2  -5   8   62.89    7.40 
   2  -5   8   41.90    6.30 
  -2  -5  -8   48.80    5.20 
   2   5   8   55.99    6.00 
  -2   5  -8   34.10    7.00 
   2   5   8   52.69    6.90 
  -2   5  -8   55.39    7.20 
   2   5   8   52.79    8.00 
   2   5   8   40.60    9.80 
  -3  -5  -8   58.09    6.30 
   3  -5   8   53.69    6.50 
   3  -5   8   51.69    7.00 
  -3  -5  -8   49.50    5.20 
  -3  -5  -8   51.89    6.00 
   3   5   8   60.49    6.40 
   3   5   8   57.39    6.80 
   3   5   8   36.90    8.60 
   3   5   8   48.60    7.60 
  -3   5  -8   51.49    6.70 
  -4  -5  -8    5.20    1.70 
  -4  -5  -8    5.40    2.00 
   4  -5   8    6.60    2.20 
   4  -5   8    4.00    2.10 
   4   5   8    2.40    1.90 
   4   5   8    4.80    2.10 
   4   5   8    1.40    2.30 
  -4   5  -8    5.90    2.00 
   4   5   8    5.30    1.90 
   6  -6  -8    2.10    1.50 
   6   6  -8    0.30    2.10 
  -6   6   8    0.60    1.80 
   6   6  -8   -0.80    1.30 
   5  -6  -8    3.90    2.30 
  -5   6   8    4.30    2.80 
   5   6  -8    0.20    1.90 
   5   6  -8    2.30    2.50 
   5   6  -8    3.30    1.90 
   4  -6  -8    8.30    3.40 
  -4  -6   8    5.50    1.50 
   4   6  -8    4.00    2.80 
   4   6  -8    5.50    2.60 
   4   6  -8    2.80    3.00 
  -4   6   8    5.50    2.70 
  -3  -6   8   12.30    2.50 
  -3   6   8   14.90    4.30 
   3   6  -8   10.80    3.80 
  -3   6   8   16.70    4.60 
   3   6  -8    7.50    2.90 
   3   6  -8    9.30    3.60 
   2  -6  -8   20.00    4.20 
   2  -6  -8   14.30    3.90 
   2  -6  -8   22.50    4.70 
  -2  -6   8   22.60    3.20 
  -2   6   8   29.70    6.10 
  -2   6   8   17.10    4.40 
  -2   6   8   15.00    5.40 
   2   6  -8   24.10    4.40 
   2   6  -8   21.90    5.10 
   2   6  -8   24.60    4.70 
   2   6  -8   15.70    4.70 
  -2   6   8   18.50    5.00 
   1  -6  -8   51.39    6.50 
   1  -6  -8   62.29    8.00 
  -1  -6   8   63.49    6.40 
   1  -6  -8   75.19    7.20 
  -1  -6   8   65.89    6.60 
   1   6  -8   76.89    8.60 
  -1   6   8   76.59    8.40 
   1   6  -8   64.19    7.80 
   1   6  -8   66.29    7.20 
  -1   6   8   57.59    9.10 
  -1   6   8   58.19    8.20 
   0  -6  -8   65.29    7.10 
   0  -6  -8   73.69    7.50 
   0  -6   8   69.49    6.80 
   0  -6  -8   87.59    9.60 
   0  -6   8   77.99    7.70 
   0   6  -8   83.49    8.70 
   0   6   8   75.89    9.80 
   0   6   8   81.79    9.20 
   0   6  -8   72.59    8.50 
   0   6  -8   79.69    8.50 
   0   6   8   71.49   11.00 
  -1  -6  -8   39.80    4.90 
  -1  -6  -8   33.00    5.00 
   1  -6   8   41.00    6.20 
   1  -6   8   38.60    4.60 
   1  -6   8   31.50    5.60 
   1   6   8   48.20    7.90 
   1   6   8   36.30    6.40 
  -1   6  -8   52.89    6.40 
  -1   6  -8   39.40    6.30 
   1   6   8   23.70    6.80 
  -1   6  -8   32.70    6.00 
   1   6   8   38.00    5.20 
  -2  -6  -8   29.80    4.00 
   2  -6   8   24.10    4.80 
   2  -6   8   32.80    5.90 
  -2   6  -8   21.90    4.40 
   2   6   8   29.00    6.70 
   2   6   8   19.10    7.70 
   2   6   8   29.20    7.70 
   2   6   8   17.60    4.20 
   3  -6   8    8.50    2.60 
   3  -6   8    4.40    2.10 
  -3  -6  -8    3.90    1.60 
   3   6   8    3.80    2.40 
   3   6   8    2.30    2.00 
   3   6   8   -0.50    2.70 
   3   6   8    3.70    1.70 
  -3   6  -8   -0.20    2.00 
  -4  -6  -8    4.30    1.40 
   4  -6   8    3.10    1.60 
   4  -6   8    4.80    1.80 
  -4   6  -8    4.70    1.60 
   4   6   8    5.10    2.00 
   4   6   8    5.00    1.90 
   4   6   8    4.10    1.60 
   5  -7  -8    0.40    1.60 
   5   7  -8    0.10    1.70 
   5   7  -8    1.10    1.50 
  -5   7   8    0.80    2.10 
   4  -7  -8   10.60    3.20 
   4   7  -8   13.20    3.50 
  -4   7   8   13.30    3.90 
   4   7  -8   12.40    4.80 
   4   7  -8   15.60    4.00 
   3  -7  -8    4.00    2.70 
  -3  -7   8    2.40    1.30 
   3   7  -8   -2.50    3.10 
   3   7  -8    4.20    2.30 
  -3   7   8   -1.60    2.50 
  -3   7   8    6.00    3.20 
   2  -7  -8   46.40    6.40 
   2  -7  -8   38.50    6.50 
  -2  -7   8   52.79    5.30 
  -2   7   8   45.40    6.80 
  -2   7   8   47.30   10.10 
  -2   7   8   49.10    7.20 
   2   7  -8   47.40    6.20 
   2   7  -8   49.70    6.80 
   2   7  -8   54.79    7.30 
  -1  -7   8   10.80    2.60 
   1  -7  -8   11.60    3.10 
  -1   7   8   16.00    4.80 
   1   7  -8   17.80    4.40 
  -1   7   8   22.20    5.10 
   1   7  -8   16.60    4.10 
  -1   7   8   20.20    4.90 
   0  -7  -8  133.89   11.90 
   0  -7  -8  142.49   14.30 
   0  -7   8  145.69   11.50 
   0  -7   8  156.78   12.80 
   0  -7  -8  162.38   12.60 
   0   7  -8  153.48   13.70 
   0   7   8  152.18   15.10 
   0   7  -8  150.08   13.90 
   0   7   8  161.68   14.40 
   0   7  -8  151.28   13.40 
   0   7   8  123.89   15.40 
  -1  -7  -8   -0.20    1.80 
  -1  -7  -8    1.10    2.50 
   1  -7   8   10.20    5.00 
   1  -7   8    3.70    1.70 
   1  -7   8    1.30    2.30 
  -1  -7  -8    4.50    2.00 
  -1   7  -8    3.50    2.50 
  -1   7  -8    1.30    2.30 
   1   7   8    4.60    2.50 
   1   7   8    2.30    3.10 
   1   7   8   -1.20    2.20 
  -1   7  -8    3.00    2.50 
  -2  -7  -8    2.60    1.70 
   2  -7   8    2.80    1.70 
   2  -7   8    4.70    1.30 
   2  -7   8    2.40    2.00 
   2   7   8    3.10    2.00 
   2   7   8    1.20    1.90 
   2   7   8    5.50    1.70 
  -2   7  -8    4.70    2.50 
   2   7   8    0.20    2.30 
  -2   7  -8    3.40    2.30 
   3  -7   8    8.30    2.50 
  -3  -7  -8    6.40    1.70 
   3  -7   8    4.20    1.60 
   3   7   8    4.70    1.40 
  -3   7  -8    0.50    1.70 
   3   7   8    2.50    1.90 
   3   7   8    2.60    1.50 
   3   7   8    5.40    2.60 
   4  -8  -8    2.20    1.70 
  -4   8   8    6.90    2.40 
   4   8  -8    4.90    2.10 
   4   8  -8    7.10    2.40 
   3  -8  -8    6.80    3.20 
   3   8  -8    7.60    2.80 
   3   8  -8    6.80    2.50 
  -3   8   8    6.10    2.60 
   2  -8  -8    8.60    2.60 
  -2  -8   8    9.70    2.50 
   2   8  -8   11.60    3.50 
   2   8  -8    8.20    2.90 
  -2   8   8    9.00    2.40 
  -2   8   8    3.70    2.90 
   2   8  -8    8.30    3.30 
  -2   8   8   10.50    4.00 
   1  -8  -8   31.50    5.10 
  -1  -8   8   28.70    4.80 
  -1  -8   8   30.40    3.90 
  -1   8   8   29.30    5.50 
   1   8  -8   27.20    4.30 
   1   8  -8   28.10    4.90 
  -1   8   8   17.90    4.80 
  -1   8   8   19.40    3.90 
   1   8  -8   31.10    4.80 
   0  -8  -8   -0.10    1.80 
   0   8  -8    1.70    2.40 
   0   8   8    0.60    2.20 
   0   8  -8    3.10    1.70 
   0   8   8    5.20    2.50 
   0   8  -8    3.20    1.90 
  -1  -8  -8    9.60    2.70 
   1  -8   8   14.20    2.90 
   1  -8   8    7.30    1.80 
   1   8   8    6.10    2.50 
  -1   8  -8    7.60    2.60 
  -1   8  -8    5.60    2.70 
  -1   8  -8    8.30    2.70 
   1   8   8   12.60    3.60 
   1   8   8    6.80    3.00 
  -2  -8  -8   28.60    3.60 
   2  -8   8   21.70    2.50 
   2  -8   8   17.60    3.20 
   2  -8   8   19.50    3.40 
  -2   8  -8   21.90    3.20 
   2   8   8   18.70    3.60 
  -2   8  -8   15.30    3.30 
   3  -8   8    2.60    1.20 
  -3  -8  -8    5.80    1.60 
   3  -8   8    3.90    1.50 
  -3   8  -8    2.50    1.50 
   3   8   8    5.00    2.10 
   3   8   8    2.90    1.30 
   3   8   8    3.40    1.50 
   3  -9  -8    1.90    1.80 
   3   9  -8    4.60    1.90 
   3   9  -8    4.30    1.50 
  -2  -9   8    3.20    1.60 
   2  -9  -8    4.40    2.00 
   2  -9  -8    3.80    1.50 
   2   9  -8    3.70    2.00 
  -2   9   8    7.80    2.20 
  -2   9   8    1.90    2.30 
   2   9  -8    1.90    1.60 
  -2   9   8    3.90    1.70 
  -1  -9   8    0.90    1.20 
   1  -9  -8   -0.70    1.30 
  -1   9   8   -0.70    1.50 
  -1   9   8    1.20    1.40 
   1   9  -8    1.40    1.40 
   1   9  -8   -2.30    1.50 
   1   9  -8    2.70    1.70 
  -1   9   8    1.80    1.70 
   0  -9   8    4.50    1.30 
   0  -9  -8    3.70    1.80 
   0   9  -8    4.10    1.90 
   0   9   8    3.50    2.50 
   0   9   8    2.20    1.70 
   0   9  -8    3.10    1.80 
   0   9  -8    5.30    2.00 
   0   9   8    3.10    2.10 
   1  -9   8    6.10    1.30 
   1  -9   8    2.30    1.30 
  -1  -9  -8    5.20    1.90 
   1   9   8    4.10    1.90 
  -1   9  -8    2.70    1.70 
   1   9   8    4.50    1.70 
  -1   9  -8    5.40    1.60 
   7   0  -9   14.00    2.60 
  -7   0   9   17.20    2.70 
   7   0  -9    9.70    3.00 
  -7   0   9   14.70    3.60 
   7   0  -9   17.70    3.20 
  -6   0   9   31.10    4.70 
   6   0  -9   18.60    5.10 
   6   0  -9   34.80    6.40 
   6   0  -9   28.20    6.80 
   6   0  -9   21.40    4.80 
   5   0  -9   10.90    4.30 
   5   0  -9   21.10    4.90 
   5   0  -9   16.70    4.40 
  -5   0   9   25.40    4.60 
   5   0  -9   16.50    4.90 
  -4   0   9   18.80    3.50 
   4   0  -9   17.30    4.30 
   4   0  -9    7.80    3.00 
   4   0  -9   13.40    4.10 
   4   0  -9   13.70    4.60 
  -4   0   9   14.80    3.10 
  -3   0   9    0.20    1.20 
   3   0  -9   -0.40    2.90 
   3   0  -9   -3.50    2.70 
   3   0  -9    0.70    3.40 
  -3   0   9    3.50    1.80 
   2   0  -9  210.68   19.70 
  -2   0   9  227.18   20.40 
  -2   0   9  217.58   16.40 
  -2   0   9  253.07   16.90 
   2   0  -9  279.57   20.90 
   1   0  -9   49.99    5.90 
  -1   0   9   44.80    5.30 
  -1   0   9   43.90    7.40 
   0   0  -9  340.57   23.60 
   0   0   9  283.67   25.80 
   0   0  -9  313.57   26.10 
   0   0  -9  295.27   24.50 
   0   0   9  330.27   25.70 
   1   0   9   75.29    8.70 
   1   0   9   72.69    8.10 
  -1   0  -9   88.99    8.30 
  -1   0  -9   69.99    6.20 
   1   0   9   66.39    8.40 
   2   0   9  315.87   27.00 
   2   0   9  359.16   26.50 
   2   0   9  388.86   25.30 
  -2   0  -9  369.46   23.70 
   3   0   9    5.20    1.80 
  -3   0  -9    3.80    2.20 
   3   0   9    1.80    2.10 
   3   0   9    5.30    3.00 
   4   0   9    4.90    1.90 
   4   0   9    4.20    2.40 
  -4   0  -9    7.30    1.60 
  -4   0  -9    8.30    2.60 
   4   0   9    6.10    2.70 
   4   0   9    7.10    2.60 
   5   0   9   23.40    4.60 
  -5   0  -9   30.60    4.10 
   5   0   9   31.50    4.30 
  -7  -1   9    5.30    1.90 
   7  -1  -9    4.30    1.70 
  -7  -1   9    2.20    1.70 
   7  -1  -9    2.60    1.70 
  -7   1   9    4.10    2.40 
   7   1  -9    4.30    2.10 
   7   1  -9    3.60    2.10 
   7   1  -9    4.40    2.10 
  -7   1   9    6.00    1.40 
   6  -1  -9   14.60    4.20 
  -6  -1   9   25.00    4.40 
   6  -1  -9   26.30    5.00 
   6  -1  -9   20.90    5.50 
   6   1  -9   12.70    4.20 
   6   1  -9   17.10    4.00 
   6   1  -9   19.70    4.30 
  -5  -1   9   48.90    5.30 
   5  -1  -9   39.50    7.70 
   5  -1  -9   57.89    7.00 
   5  -1  -9   41.40    7.80 
  -5  -1   9   39.30    5.90 
   5   1  -9   41.90    7.40 
  -5   1   9   48.60    5.70 
   5   1  -9   41.50    7.60 
   5   1  -9   49.60    7.70 
   4  -1  -9   38.30    6.50 
   4  -1  -9   28.00    5.90 
  -4  -1   9   40.20    5.10 
   4  -1  -9   25.90    5.20 
   4  -1  -9   32.50    7.50 
  -4  -1   9   38.90    4.30 
  -4   1   9   36.10    5.10 
   4   1  -9   40.20    6.20 
   4   1  -9   21.60    6.50 
  -4   1   9   26.70    5.00 
   4   1  -9   38.50    6.20 
   4   1  -9   28.90    5.50 
   3  -1  -9   70.89   15.60 
  -3  -1   9   73.69    7.20 
   3  -1  -9   67.69    9.50 
   3  -1  -9   92.39    9.20 
  -3  -1   9   80.79    6.90 
   3   1  -9   75.69   10.70 
   3   1  -9   78.09    8.70 
  -3   1   9   61.79    6.80 
  -3   1   9   90.49    7.80 
   3   1  -9   62.99    9.90 
  -2  -1   9  167.28   16.40 
   2  -1  -9  211.88   17.30 
  -2  -1   9  173.28   13.30 
  -2  -1   9  179.58   13.50 
   2   1  -9  227.58   17.90 
   2   1  -9  166.88   16.70 
  -2   1   9  186.28   13.50 
  -1  -1   9  138.69   10.30 
   1  -1  -9  118.29   11.20 
  -1  -1   9  131.09   10.40 
   1  -1  -9  170.08   13.60 
  -1  -1   9  135.09   13.60 
   1   1  -9  142.99   13.00 
   1   1  -9  140.19   12.40 
  -1   1   9  120.79   14.10 
   0  -1   9   25.50    3.40 
   0  -1   9   29.20    6.00 
   0  -1  -9   24.50    5.00 
   0  -1  -9   27.40    3.50 
   0  -1  -9   33.30    4.90 
   0   1  -9   27.70    5.40 
   0   1   9   33.50    6.10 
   0   1   9   27.30    4.30 
  -1  -1  -9   81.59    6.50 
   1  -1   9   57.89    6.70 
   1  -1   9   70.29    8.20 
   1  -1   9   82.39    8.90 
   1  -1   9   62.99    6.00 
  -1  -1  -9   94.79    8.90 
  -1  -1  -9   63.59    7.60 
  -1   1  -9   77.69    6.20 
   1   1   9   86.19    9.40 
   1   1   9   79.89    9.50 
   1   1   9   76.39    7.70 
  -1   1  -9   88.89    8.90 
   2  -1   9    2.80    2.40 
   2  -1   9   12.50    2.60 
  -2  -1  -9    6.30    2.30 
   2  -1   9    8.80    3.30 
   2   1   9    5.90    2.10 
   2   1   9    1.80    2.70 
  -2   1  -9    9.40    2.80 
  -2   1  -9    7.00    1.80 
   2   1   9    6.20    2.30 
   3  -1   9  349.17   28.70 
   3  -1   9  348.07   25.80 
   3  -1   9  392.86   28.40 
  -3  -1  -9  408.56   25.40 
   3   1   9  378.76   27.20 
  -3   1  -9  399.46   24.70 
   3   1   9  412.66   26.90 
   3   1   9  371.26   30.00 
   3   1   9  382.16   28.60 
  -4  -1  -9    5.60    1.50 
  -4  -1  -9    2.50    2.00 
   4  -1   9    7.00    2.90 
   4  -1   9    1.40    2.10 
  -4   1  -9    5.40    2.10 
   4   1   9    1.80    1.60 
   4   1   9    3.90    3.00 
   4   1   9    2.40    1.70 
   4   1   9    5.10    1.70 
  -5  -1  -9    2.70    1.00 
  -5  -1  -9    1.60    1.20 
   5  -1   9   -3.00    3.00 
   5  -1   9    1.90    1.50 
   5   1   9    1.90    1.60 
   5   1   9    6.40    3.70 
  -5   1  -9    2.30    1.10 
   5   1   9    0.10    1.30 
  -7  -2   9    8.70    2.00 
  -7  -2   9   10.40    2.10 
   7  -2  -9    6.20    1.90 
  -7   2   9   13.10    2.70 
   7   2  -9    7.20    1.70 
   7   2  -9    5.00    2.10 
  -7   2   9   11.00    3.40 
  -6  -2   9   31.40    4.60 
   6  -2  -9   23.40    4.60 
   6  -2  -9   22.20    5.00 
  -6   2   9   29.90    5.50 
   6   2  -9   29.50    5.40 
   6   2  -9   18.40    4.80 
   6   2  -9   33.50    5.70 
  -6   2   9   28.70    3.70 
  -5  -2   9  104.19    8.30 
  -5  -2   9  100.79    9.40 
   5  -2  -9  101.69    9.90 
  -5   2   9   98.89   11.50 
   5   2  -9   75.89   11.10 
   5   2  -9   82.89   11.50 
  -5   2   9   98.49    8.60 
   5   2  -9   86.99   10.40 
   5   2  -9  102.39   10.80 
  -4  -2   9   23.60    3.30 
  -4  -2   9   17.60    3.50 
   4   2  -9   17.90    5.60 
   4   2  -9   14.20    7.50 
   4   2  -9    9.50    4.60 
   3  -2  -9   35.20    8.10 
   3  -2  -9   30.60    8.90 
  -3  -2   9   36.20    4.50 
   3  -2  -9   36.20    6.10 
   3   2  -9   37.60    5.80 
   3   2  -9   33.00    7.10 
  -3   2   9   36.30    4.50 
   3   2  -9   31.90    6.90 
   3   2  -9   32.10    6.00 
  -2  -2   9  116.39    9.80 
  -2  -2   9  129.29    9.90 
   2  -2  -9  151.58   16.30 
   2   2  -9  125.99   11.60 
   2   2  -9  119.79   10.90 
   2   2  -9  128.69   13.70 
   2   2  -9  120.89   14.60 
  -1  -2   9  117.79    8.40 
   1  -2  -9   87.49    9.30 
  -1  -2   9   83.59   13.40 
   1  -2  -9   96.39    8.10 
  -1  -2   9  105.99    8.30 
   1   2  -9   94.39   10.50 
   0  -2  -9  191.38   14.90 
   0  -2   9  194.08   14.90 
   0  -2  -9  211.68   16.30 
   0   2   9  198.18   18.80 
   0   2   9  211.58   17.50 
   0   2  -9  206.08   18.40 
  -1  -2  -9   26.80    4.50 
   1  -2   9   23.10    4.80 
  -1  -2  -9   24.00    3.60 
   1  -2   9   35.10    5.20 
   1  -2   9   28.80    3.40 
  -1  -2  -9   31.20    5.00 
   1   2   9   27.40    6.60 
   1   2   9   29.40    5.70 
   1   2   9   28.80    4.30 
   1   2   9   23.00    5.30 
  -1   2  -9   28.70    5.40 
  -1   2  -9   33.20    6.90 
   2  -2   9  163.08   13.50 
  -2  -2  -9  125.89   12.20 
  -2   2  -9  199.28   19.00 
   2   2   9  150.98   12.90 
   2   2   9  169.48   16.00 
  -3  -2  -9   27.00    5.00 
   3  -2   9   29.80    5.00 
  -3  -2  -9   35.90    5.30 
   3  -2   9   24.10    4.90 
  -3  -2  -9   23.90    3.70 
  -3   2  -9   31.60    5.30 
   3   2   9   24.40    5.00 
   3   2   9   31.30    7.40 
   3   2   9   24.40    4.10 
   3   2   9   23.30    5.40 
  -4  -2  -9    6.70    1.60 
  -4  -2  -9    5.80    2.40 
   4  -2   9    1.70    2.10 
   4  -2   9    8.00    2.90 
   4   2   9    7.20    2.00 
  -4   2  -9    6.80    1.90 
   4   2   9    3.00    2.00 
   4   2   9    3.00    2.50 
  -5  -2  -9    2.40    1.00 
   5  -2   9    3.30    1.40 
  -5  -2  -9    1.30    1.10 
   5   2   9    1.00    1.20 
   5   2   9    0.20    0.80 
   5   2   9    1.80    1.20 
  -5   2  -9   -1.50    1.30 
  -7  -3   9    3.90    1.70 
   7   3  -9    7.20    2.40 
   7   3  -9    3.80    1.70 
  -7   3   9    6.60    2.10 
   7   3  -9    4.30    2.00 
  -6  -3   9   13.80    2.90 
   6  -3  -9   15.20    5.20 
   6   3  -9   19.20    4.20 
  -6   3   9   12.40    2.80 
  -6   3   9   20.60    5.10 
   6   3  -9   11.10    3.90 
   6   3  -9   17.30    4.50 
   6   3  -9   17.90    4.80 
   5  -3  -9   14.30    5.40 
   5  -3  -9    3.10    3.70 
   5  -3  -9    7.10    3.80 
   5   3  -9   10.50    4.80 
   5   3  -9   12.20    4.60 
  -5   3   9   20.50    5.70 
   5   3  -9   17.90    4.40 
   5   3  -9   12.40    4.80 
   4  -3  -9   75.59    9.20 
  -4  -3   9   81.99    7.50 
   4  -3  -9   58.89    9.60 
  -4  -3   9   90.69    7.20 
   4   3  -9   85.29    9.10 
   4   3  -9   70.59    9.90 
  -4   3   9   80.39    9.70 
   4   3  -9   90.39   10.20 
   3  -3  -9   58.59    9.50 
   3  -3  -9   90.69   10.00 
  -3  -3   9   93.49    7.50 
  -3  -3   9   78.89    7.50 
   3   3  -9   89.49    9.30 
  -3   3   9   94.89    9.90 
   3   3  -9   59.29    9.60 
   3   3  -9   88.69    8.70 
   3   3  -9   66.89   10.10 
   2  -3  -9    1.60    2.00 
   2  -3  -9    7.80    2.80 
  -2  -3   9    2.00    2.00 
  -2  -3   9    5.90    2.00 
   2   3  -9    5.50    2.50 
   2   3  -9    4.40    3.20 
  -2   3   9    7.80    3.60 
   2   3  -9   14.90    3.50 
   2   3  -9    3.60    5.20 
  -2   3   9    6.80    4.70 
  -1  -3   9   50.49    5.20 
   1  -3  -9   58.59    7.20 
   1  -3  -9   44.50    6.10 
   1  -3  -9   67.19   10.90 
  -1  -3   9   47.50    6.30 
   1  -3  -9   48.00    5.40 
  -1  -3   9   49.80    5.20 
  -1   3   9   38.40   11.60 
  -1   3   9   45.00    6.50 
   1   3  -9   42.30    7.30 
   1   3  -9   48.90    7.40 
   0  -3   9   15.50    3.30 
   0  -3   9   19.10    3.30 
   0  -3  -9   19.60    3.60 
   0  -3   9   12.60    3.30 
   0  -3  -9   18.90    3.30 
   0   3   9   16.30    5.70 
   0   3   9    8.10    4.70 
   0   3   9   22.40    4.00 
   0   3  -9   15.20    3.80 
   0   3  -9   20.10    5.20 
   0   3  -9   15.70    4.00 
  -1  -3  -9  195.38   14.60 
   1  -3   9  200.88   14.50 
  -1  -3  -9  208.18   16.40 
   1  -3   9  213.38   16.50 
   1  -3   9  231.88   17.90 
  -1  -3  -9  187.18   15.40 
   1   3   9  207.28   16.50 
  -1   3  -9  196.98   16.70 
   1   3   9  226.38   17.90 
  -1   3  -9  209.28   17.30 
   1   3   9  221.98   16.30 
   1   3   9  205.78   19.80 
  -2  -3  -9   28.90    4.20 
  -2  -3  -9   30.60    3.90 
   2  -3   9   30.20    5.20 
  -2  -3  -9   25.60    5.00 
   2  -3   9   30.70    4.50 
   2   3   9   32.40    8.10 
   2   3   9   35.30    4.80 
   2   3   9   30.70    5.30 
  -2   3  -9   38.00    5.80 
  -2   3  -9   35.00    5.30 
   2   3   9   33.20    5.80 
  -3  -3  -9   45.00    4.90 
   3  -3   9   49.50    7.20 
   3  -3   9   42.30    6.40 
   3   3   9   52.29    7.00 
  -3   3  -9   51.69    6.60 
   3   3   9   47.80    8.10 
  -3   3  -9   33.70    5.80 
   3   3   9   58.49    6.00 
   3   3   9   59.09    7.30 
   4  -3   9   80.79    8.80 
  -4  -3  -9   92.79    7.00 
  -4  -3  -9  103.09    8.70 
   4  -3   9   85.89    8.70 
   4   3   9   68.89    9.40 
   4   3   9   93.99    7.90 
   4   3   9   74.79    8.60 
   4   3   9   74.19    7.90 
   5  -3   9    6.70    1.80 
  -5  -3  -9   12.90    2.40 
  -5  -3  -9   11.20    1.90 
   5   3   9    6.40    2.10 
   5   3   9    9.00    1.80 
   6  -4  -9   -0.30    2.10 
   6  -4  -9    7.20    4.90 
  -6  -4   9    2.70    1.80 
   6   4  -9    2.00    1.70 
  -6   4   9    4.10    3.20 
   6   4  -9    2.40    2.00 
   6   4  -9    3.50    2.60 
   6   4  -9    4.90    2.70 
   5  -4  -9   14.20    4.20 
   5  -4  -9   14.00    4.40 
  -5  -4   9   24.20    4.40 
  -5   4   9   19.50    5.00 
   5   4  -9   25.20    6.30 
   5   4  -9   21.40    4.90 
   5   4  -9   11.80    4.60 
   5   4  -9   31.50    5.10 
   4  -4  -9   53.59    7.90 
  -4  -4   9   64.79    6.00 
  -4  -4   9   44.50    5.80 
   4  -4  -9   39.10    7.20 
   4   4  -9   59.19    8.00 
   4   4  -9   56.49    7.10 
  -4   4   9   49.40    7.60 
   4   4  -9   52.09    8.10 
  -3  -4   9   53.89    5.50 
  -3  -4   9   54.79    7.00 
   3  -4  -9   56.29    9.60 
   3   4  -9   54.59    6.90 
  -3   4   9   61.39   11.90 
   3   4  -9   57.19    7.60 
   3   4  -9   38.60    7.70 
   3   4  -9   44.40    9.80 
  -2  -4   9   28.00    4.00 
   2  -4  -9   30.90    4.40 
   2  -4  -9   23.30    5.70 
  -2  -4   9   28.80    4.30 
   2   4  -9   35.10    5.30 
  -2   4   9   19.30    5.50 
   2   4  -9   29.10    4.80 
  -2   4   9   28.70    5.10 
   2   4  -9   27.20    7.00 
   1  -4  -9  105.29    9.30 
   1  -4  -9  131.29   11.70 
  -1  -4   9  123.79   11.10 
   1  -4  -9   94.69    9.70 
  -1  -4   9  115.09    9.20 
  -1  -4   9  117.99    9.50 
  -1   4   9  116.49   10.90 
   1   4  -9  103.19   10.60 
   1   4  -9  105.39   10.20 
  -1   4   9  105.29   12.70 
   1   4  -9  108.79   12.00 
   0  -4   9   95.29    9.30 
   0  -4  -9   80.69    7.20 
   0  -4   9   71.09    7.60 
   0  -4  -9   72.89    7.70 
   0  -4   9   87.89    7.30 
   0   4  -9   79.39    8.80 
   0   4   9   80.49    7.70 
   0   4   9   87.49    8.40 
   0   4  -9   82.39    9.50 
   0   4   9   81.29    9.90 
   0   4  -9   75.89    7.80 
   0   4   9   75.09   10.50 
   1  -4   9   57.99    6.90 
   1  -4   9   67.09    5.90 
  -1  -4  -9   52.09    6.50 
   1  -4   9   68.69    7.90 
  -1  -4  -9   57.09    8.30 
  -1  -4  -9   60.69    5.70 
   1   4   9   57.09    9.30 
   1   4   9   68.39    9.10 
  -1   4  -9   77.49   11.40 
   1   4   9   66.09    7.00 
  -2  -4  -9   37.60    5.60 
  -2  -4  -9   45.50    5.00 
  -2  -4  -9   52.09    6.30 
   2  -4   9   48.50    6.50 
   2  -4   9   45.40    4.30 
   2  -4   9   58.99    7.40 
  -2   4  -9   45.80    6.60 
  -2   4  -9   47.60    7.00 
   2   4   9   54.19    6.30 
   2   4   9   51.99    7.60 
   2   4   9   55.49    6.60 
   2   4   9   51.49    8.90 
   3  -4   9   48.10    6.40 
  -3  -4  -9   40.80    5.90 
   3  -4   9   53.49    6.90 
  -3  -4  -9   50.59    5.00 
  -3   4  -9   40.90    6.40 
   3   4   9   34.40    5.80 
   3   4   9   49.99    7.00 
   3   4   9   40.90    7.70 
  -3   4  -9   42.60    5.80 
   3   4   9   49.40    5.70 
  -4  -4  -9    5.80    1.70 
  -4  -4  -9    6.30    2.20 
   4  -4   9    5.60    2.30 
   4  -4   9    8.80    3.00 
   4   4   9    3.40    1.90 
   4   4   9    6.60    1.90 
  -4   4  -9    0.90    2.60 
   4   4   9    3.60    2.40 
   4   4   9    5.20    1.80 
   6  -5  -9    4.40    1.90 
   6   5  -9    1.00    1.50 
   6   5  -9    1.80    1.30 
  -6   5   9    1.40    1.80 
   6   5  -9    3.20    1.70 
   6   5  -9   -0.40    1.30 
  -5  -5   9    4.30    1.90 
   5   5  -9    1.80    1.90 
   5   5  -9    3.50    2.40 
  -5   5   9   -0.90    1.60 
   5   5  -9    5.50    2.20 
   5   5  -9    1.80    2.70 
   4  -5  -9    9.90    4.20 
  -4  -5   9   15.10    2.90 
   4  -5  -9    7.90    4.20 
   4   5  -9    7.90    2.80 
   4   5  -9    9.90    3.90 
   4   5  -9   12.20    5.20 
   4   5  -9    6.00    3.20 
  -3  -5   9    5.40    2.70 
  -3   5   9    2.80    2.80 
   3   5  -9    4.60    2.50 
   3   5  -9    8.90    3.50 
  -3   5   9    8.50    2.90 
   3   5  -9    5.30    2.60 
  -2  -5   9   16.20    2.80 
   2  -5  -9   22.00    5.60 
  -2  -5   9   18.20    3.10 
   2  -5  -9   19.00    3.70 
  -2  -5   9   14.50    4.00 
   2   5  -9   22.20    4.00 
  -2   5   9   18.10    4.20 
   2   5  -9   21.30    5.10 
  -2   5   9   14.00    4.20 
   2   5  -9   15.00    5.10 
   1  -5  -9   33.50    6.90 
   1  -5  -9   21.50    3.90 
  -1  -5   9   23.70    4.10 
  -1  -5   9   27.40    4.00 
   1  -5  -9   16.00    3.30 
   1   5  -9   24.90    4.20 
   1   5  -9   27.10    5.00 
   1   5  -9   30.40    5.50 
  -1   5   9   13.50    4.30 
  -1   5   9   25.40    4.50 
   1   5  -9   17.80    5.50 
   0  -5   9   10.70    2.60 
   0  -5  -9    8.50    3.10 
   0  -5  -9   17.50    3.30 
   0  -5  -9    8.70    2.70 
   0  -5   9   17.70    3.10 
   0   5   9   13.80    5.00 
   0   5  -9   15.80    3.70 
   0   5   9   12.80    3.70 
   0   5  -9   13.70    3.00 
   0   5  -9   12.60    3.80 
   0   5   9   20.00    4.30 
   0   5  -9   12.20    3.90 
  -1  -5  -9    8.80    4.50 
   1  -5   9   15.50    3.10 
  -1  -5  -9   15.80    2.90 
   1  -5   9   11.10    3.60 
   1  -5   9   10.90    3.20 
   1   5   9   11.10    3.60 
   1   5   9   11.70    2.80 
  -1   5  -9   11.00    3.20 
  -1   5  -9    7.60    3.20 
   1   5   9   15.00    3.40 
   1   5   9   13.10    5.30 
  -1   5  -9    8.00    3.20 
   2  -5   9   17.70    3.70 
   2  -5   9   11.00    3.10 
  -2  -5  -9   14.50    2.90 
  -2  -5  -9   14.90    3.80 
   2   5   9   19.70    5.60 
  -2   5  -9   18.20    6.60 
   2   5   9   15.40    4.10 
   2   5   9   15.70    4.60 
   2   5   9   23.30    3.70 
  -2   5  -9    9.70    3.40 
  -3  -5  -9   30.70    5.70 
   3  -5   9   29.30    5.00 
  -3  -5  -9   32.00    4.00 
   3  -5   9   37.00    4.70 
   3   5   9   34.20    5.10 
   3   5   9   41.00    4.70 
  -3   5  -9   32.60    4.90 
   3   5   9   31.50    6.30 
   3   5   9   31.80    4.60 
   4  -5   9    4.40    1.70 
  -4  -5  -9    4.10    1.30 
   4  -5   9    5.30    1.80 
   4   5   9   -0.70    2.00 
   4   5   9    1.80    1.20 
   4   5   9    4.30    1.40 
  -4   5  -9    5.80    1.70 
   4   5   9    1.70    1.00 
  -6   6   9    0.90    1.60 
  -5  -6   9    2.60    2.30 
   5  -6  -9   -0.30    1.50 
   5   6  -9    2.40    1.50 
  -5   6   9    1.50    2.10 
   5   6  -9    1.60    2.40 
   5   6  -9   -2.00    1.80 
  -4  -6   9    0.20    1.40 
   4  -6  -9    3.70    2.20 
   4   6  -9   -0.90    2.00 
  -4   6   9    0.60    2.20 
   4   6  -9    1.30    2.40 
   4   6  -9    0.10    1.70 
  -3  -6   9   10.10    2.00 
   3  -6  -9   10.50    2.80 
   3   6  -9    8.80    2.80 
  -3   6   9   17.60    6.30 
  -3   6   9    5.00    3.20 
   3   6  -9   11.50    4.10 
   3   6  -9   14.60    4.50 
  -2  -6   9   11.60    2.50 
   2  -6  -9   14.70    3.10 
  -2  -6   9   13.30    2.60 
   2  -6  -9   11.30    4.30 
   2   6  -9    5.00    3.80 
   2   6  -9    8.40    3.10 
  -2   6   9    8.80    4.00 
   2   6  -9    9.50    3.40 
   1  -6  -9   42.30    7.30 
  -1  -6   9   52.39    5.70 
   1  -6  -9   61.69    6.40 
  -1  -6   9   57.39    6.00 
   1  -6  -9   40.20    6.00 
  -1   6   9   63.79    7.80 
   1   6  -9   40.80    8.10 
   1   6  -9   51.59    6.90 
  -1   6   9   39.00    8.00 
  -1   6   9   53.59    7.70 
   1   6  -9   59.19    7.10 
   1   6  -9   59.19    7.50 
   0  -6  -9   20.10    3.90 
   0  -6   9   24.10    4.40 
   0  -6  -9   22.90    4.90 
   0  -6   9   21.10    3.50 
   0  -6  -9   21.80    4.10 
   0   6  -9   15.70    4.40 
   0   6  -9   12.70    3.40 
   0   6  -9   22.70    4.90 
   0   6   9   17.20    4.50 
   0   6   9   13.10    4.30 
   0   6   9   11.40    5.30 
   1  -6   9   52.99    6.00 
   1  -6   9   49.10    7.20 
  -1  -6  -9   56.69    6.20 
   1  -6   9   64.39    5.60 
   1   6   9   45.10    8.80 
  -1   6  -9   37.10    8.60 
   1   6   9   54.09    9.60 
  -1   6  -9   46.80    5.90 
  -2  -6  -9    5.50    1.60 
   2  -6   9    3.70    1.10 
   2  -6   9    0.30    1.70 
   2  -6   9    4.70    2.10 
  -2  -6  -9   -1.40    2.30 
   2   6   9    1.80    2.90 
  -2   6  -9    3.50    2.30 
   2   6   9    3.30    2.70 
   2   6   9    0.90    1.40 
   2   6   9    5.20    2.60 
   3  -6   9   -1.50    1.20 
   3  -6   9    1.80    1.70 
   3   6   9    0.50    1.20 
   3   6   9   -1.00    1.80 
  -3   6  -9   -1.70    1.40 
   3   6   9    2.40    1.60 
   3   6   9    3.40    1.70 
  -4  -6  -9    5.50    1.20 
   4  -6   9    2.20    2.00 
   4  -6   9    4.40    1.50 
   4   6   9    4.50    3.00 
   4   6   9    5.70    1.80 
  -5  -7   9   -0.80    2.40 
   5  -7  -9    2.80    1.60 
  -5   7   9    3.50    1.90 
   5   7  -9    3.00    2.20 
   5   7  -9    2.60    1.90 
  -4  -7   9    4.60    1.90 
   4  -7  -9    2.50    1.80 
   4   7  -9    1.40    2.40 
  -4   7   9    6.10    2.60 
   4   7  -9    2.60    2.10 
   4   7  -9    4.60    2.30 
   3  -7  -9   -0.60    1.20 
   3  -7  -9    0.00    2.20 
   3   7  -9    1.10    4.20 
  -3   7   9   -2.00    2.40 
   3   7  -9    0.70    1.60 
   3   7  -9    2.40    2.20 
  -2  -7   9   33.20    4.30 
   2  -7  -9   35.70    5.00 
  -2  -7   9   32.30    4.70 
  -2   7   9   29.10    5.30 
  -2   7   9   28.70    5.00 
   2   7  -9   27.90    5.20 
   2   7  -9   27.10    4.90 
   1  -7  -9   15.90    3.50 
   1  -7  -9   10.50    2.40 
  -1  -7   9    7.70    2.80 
   1  -7  -9    3.10    4.20 
  -1  -7   9    7.40    2.00 
  -1   7   9    5.30    2.60 
  -1   7   9    7.00    3.20 
   1   7  -9   11.10    3.20 
   1   7  -9    6.50    2.90 
   1   7  -9    8.30    2.90 
  -1   7   9   11.40    3.90 
   0  -7  -9    4.60    2.70 
   0  -7  -9    8.60    2.30 
   0  -7   9   10.40    3.00 
   0  -7   9    9.20    1.90 
   0   7   9    8.60    3.70 
   0   7   9    5.10    3.50 
   0   7  -9    6.10    2.50 
   0   7  -9    8.80    3.00 
   0   7  -9   13.00    3.80 
   0   7   9   10.10    2.60 
   1  -7   9    4.60    2.20 
  -1  -7  -9    1.70    1.80 
   1  -7   9    4.20    1.40 
  -1  -7  -9    2.90    1.60 
   1   7   9    2.50    2.70 
  -1   7  -9    1.70    1.70 
  -1   7  -9   -1.60    2.00 
   1   7   9    5.40    2.20 
   1   7   9    1.50    1.80 
   2  -7   9    0.30    0.90 
   2  -7   9    0.70    1.40 
  -2  -7  -9    2.80    1.50 
   2  -7   9    2.10    1.50 
  -2   7  -9   -0.70    1.90 
   2   7   9    2.20    1.90 
   2   7   9    3.10    2.80 
   2   7   9    0.00    2.00 
   3  -7   9    7.80    1.80 
  -3  -7  -9   11.90    2.00 
   3  -7   9   10.30    2.40 
   3   7   9   11.00    2.90 
  -3   7  -9    7.30    2.20 
   3   7   9    7.60    2.50 
   4  -8  -9   -1.70    1.00 
  -4  -8   9   -0.70    1.90 
   4   8  -9   -1.00    1.10 
   4   8  -9    0.30    1.30 
   3  -8  -9    2.80    2.20 
   3   8  -9    5.80    2.10 
   3   8  -9    7.10    2.00 
  -2  -8   9    3.30    1.60 
  -2   8   9    5.60    2.10 
  -2   8   9   -2.80    1.70 
   2   8  -9    3.00    1.90 
   2   8  -9   -0.30    1.40 
  -2   8   9   -0.70    1.80 
  -1  -8   9   21.40    3.50 
  -1  -8   9   21.20    3.80 
   1  -8  -9   23.60    3.90 
  -1   8   9   13.10    3.30 
  -1   8   9   13.20    3.30 
   1   8  -9   19.20    3.80 
   1   8  -9   16.10    3.90 
   0  -8   9   17.50    2.80 
   0  -8  -9   13.40    2.70 
   0   8   9   12.50    3.80 
   0   8   9    8.50    3.30 
   0   8  -9    8.10    2.70 
   0   8   9   19.50    3.70 
   0   8  -9   11.70    3.20 
   1  -8   9   11.20    2.10 
   1  -8   9   10.80    3.00 
  -1   8  -9    7.60    2.50 
   1   8   9   10.20    2.90 
   1   8   9    8.80    2.60 
   1   8   9    8.00    3.30 
  -1   8  -9    9.00    2.00 
  -2  -8  -9    5.00    1.80 
   2  -8   9    2.00    1.20 
  -2   8  -9    1.80    1.30 
   2   8   9    4.00    1.30 
   2   8   9    1.00    1.60 
   2   8   9    0.30    1.60 
   2  -9  -9    0.10    1.00 
   2  -9  -9    2.60    1.60 
   2   9  -9    0.10    1.00 
   2   9  -9   -0.50    1.00 
  -1  -9   9    5.40    1.30 
  -1  -9   9    3.20    1.20 
   1   9  -9    3.90    1.90 
  -1   9   9    4.00    1.70 
  -1   9   9    4.10    1.90 
   1   9  -9    5.30    1.60 
  -1   9   9    5.20    1.50 
   0  -9   9    4.30    1.20 
   0  -9  -9    4.90    1.70 
   0   9   9    3.50    1.70 
   0   9  -9    1.20    1.30 
   0   9   9    3.50    1.70 
   0   9   9    3.70    1.70 
   0   9  -9    5.30    1.80 
   7   0 -10   21.20    4.10 
   7   0 -10   18.60    2.90 
   7   0 -10   19.10    3.50 
   6   0 -10    6.00    2.50 
  -6   0  10    1.30    1.90 
   6   0 -10    2.40    2.30 
  -6   0  10    2.30    1.40 
   6   0 -10    1.00    1.30 
   6   0 -10   -0.40    1.70 
   5   0 -10    4.00    2.70 
   5   0 -10   -0.60    3.20 
   5   0 -10   -2.20    2.00 
  -5   0  10    2.60    1.50 
   5   0 -10   -0.20    2.30 
  -5   0  10    0.10    2.80 
   4   0 -10   54.59    7.70 
  -4   0  10   55.19    6.20 
  -4   0  10   51.69    6.20 
   4   0 -10   46.40    7.90 
   4   0 -10   62.79    7.10 
  -3   0  10   85.49   11.20 
   3   0 -10   93.79   11.40 
  -3   0  10  110.29    8.80 
   3   0 -10  114.79   13.70 
   3   0 -10   95.69   12.00 
   3   0 -10   95.59   10.00 
  -2   0  10    4.30    2.20 
   2   0 -10    2.80    2.60 
   2   0 -10   -2.60    2.50 
   1   0 -10  183.68   15.30 
   1   0 -10  159.68   14.80 
  -1   0  10  193.08   19.50 
  -1   0  10  156.08   12.00 
   0   0 -10  299.47   22.10 
   0   0  10  266.77   22.10 
   0   0 -10  268.97   21.50 
  -1   0 -10  108.19    7.80 
  -1   0 -10  105.19   10.80 
   1   0  10   97.99   10.70 
   1   0  10   92.79    8.80 
   1   0  10   93.99    9.80 
   2   0  10  359.46   26.60 
   2   0  10  336.87   24.70 
  -2   0 -10  350.76   23.30 
  -2   0 -10  410.96   27.20 
   2   0  10  330.47   27.40 
   3   0  10  158.88   14.00 
  -3   0 -10  141.89   10.30 
  -3   0 -10  142.79   15.90 
   3   0  10  124.29   10.90 
   4   0  10    0.00    1.30 
  -4   0 -10    0.50    1.40 
   4   0  10    3.40    1.80 
   4   0  10    6.70    3.00 
  -5   0 -10    2.30    1.10 
   5   0  10   -0.50    1.10 
  -7  -1  10    1.90    1.70 
  -7  -1  10    3.90    1.10 
   7  -1 -10   -0.10    1.30 
  -7   1  10    0.30    1.00 
  -7   1  10    2.10    1.60 
   7   1 -10    0.50    1.30 
   7   1 -10    2.90    1.50 
   6  -1 -10   25.80    5.20 
  -6  -1  10   41.90    4.80 
   6  -1 -10   39.10    6.30 
   6  -1 -10   29.70    5.60 
   6   1 -10   33.60    5.40 
  -6   1  10   45.00    4.30 
  -6   1  10   41.00    6.20 
   6   1 -10   31.60    7.10 
   6   1 -10   38.20    5.90 
   5  -1 -10   10.50    4.00 
   5  -1 -10    6.60    4.40 
  -5  -1  10   12.70    3.20 
   5  -1 -10   10.10    5.30 
   5  -1 -10   12.80    3.90 
   5   1 -10    9.90    3.60 
  -5   1  10   16.20    3.00 
   5   1 -10   15.90    4.40 
  -4  -1  10   15.10    2.90 
   4  -1 -10   13.10    4.20 
   4  -1 -10   18.20    4.70 
   4  -1 -10   16.60    3.90 
   4  -1 -10   20.60    5.50 
  -4  -1  10   24.40    3.80 
   4   1 -10   15.90    4.50 
  -4   1  10   19.10    3.30 
   4   1 -10   20.50    5.70 
   4   1 -10   18.70    4.70 
   4   1 -10   14.90    3.70 
  -3  -1  10   18.60    3.50 
   3  -1 -10   21.40    5.70 
  -3  -1  10   27.50    3.90 
   3  -1 -10   24.30    4.70 
   3   1 -10   19.80    4.40 
  -3   1  10   27.00    3.80 
   3   1 -10   21.60    5.10 
   3   1 -10   18.70    4.90 
   3   1 -10   18.70    3.90 
   2  -1 -10   67.49    8.60 
   2  -1 -10   66.79    9.10 
  -2  -1  10   67.09    6.60 
  -2  -1  10   71.99    6.60 
   2   1 -10   61.29    7.30 
  -2   1  10   70.59    6.30 
   2   1 -10   53.09    8.60 
   2   1 -10   85.59    9.80 
   1  -1 -10   34.60    6.10 
  -1  -1  10   28.00    3.90 
  -1  -1  10   20.20    3.70 
   1  -1 -10   32.20    5.50 
  -1  -1  10   33.20    6.10 
   1  -1 -10   33.90    5.70 
   1   1 -10   26.80    5.20 
  -1   1  10   25.00    5.50 
   1   1 -10   33.40    5.80 
   0  -1 -10  569.44   36.20 
   0  -1 -10  477.35   34.70 
   0  -1  10  514.85   35.80 
   0  -1 -10  475.95   32.00 
   0  -1  10  449.16   31.80 
   0   1 -10  482.05   35.20 
   0   1  10  512.35   36.80 
   0   1 -10  520.85   35.40 
  -1  -1 -10 1124.89   68.89 
   1  -1  10 1058.49   69.59 
   1  -1  10  979.80   67.59 
  -1  -1 -10 1028.30   65.49 
   1   1  10  986.50   70.09 
  -1   1 -10 1183.78   69.09 
   1   1  10  943.61   67.89 
   1   1  10 1006.90   67.09 
  -1   1 -10 1090.39   69.09 
   2  -1  10    4.10    2.30 
   2  -1  10   -0.20    1.70 
  -2  -1 -10    2.60    2.10 
  -2  -1 -10    0.00    1.10 
   2   1  10   -1.90    1.80 
   2   1  10   -1.50    1.50 
  -2   1 -10    0.50    2.00 
  -2   1 -10   -0.90    1.80 
  -3  -1 -10   62.49    6.60 
   3  -1  10   58.89    8.60 
   3  -1  10   55.19    7.30 
  -3  -1 -10   67.69    8.70 
   3   1  10   46.40    8.20 
   3   1  10   50.19    7.00 
   3   1  10   57.09    5.90 
  -3   1 -10   53.69    6.50 
  -3   1 -10   58.19    9.20 
  -4  -1 -10   28.10    4.20 
   4  -1  10   25.60    4.60 
   4  -1  10   23.90    5.90 
  -4  -1 -10   40.40    5.00 
   4   1  10   31.00    4.70 
  -4   1 -10   32.30    4.60 
   4   1  10   20.20    4.90 
   4   1  10   32.70    3.60 
   7  -2 -10    8.60    2.40 
  -7  -2  10    6.30    2.10 
   7   2 -10    7.10    1.70 
   7   2 -10   10.30    2.30 
   7   2 -10    5.70    2.20 
  -7   2  10   13.40    3.00 
   6  -2 -10    4.70    1.90 
  -6  -2  10    3.00    1.60 
   6   2 -10    3.30    2.20 
  -6   2  10    3.30    2.10 
  -6   2  10    0.60    2.00 
   6   2 -10    4.30    2.40 
   6   2 -10    2.30    2.30 
   6   2 -10    2.30    1.90 
  -5  -2  10    9.70    2.50 
  -5  -2  10   15.40    3.30 
   5  -2 -10   17.30    3.60 
   5  -2 -10   17.60    5.50 
  -5   2  10   21.20    5.70 
   5   2 -10   14.20    5.10 
  -5   2  10   18.50    3.20 
   5   2 -10   12.90    3.30 
   5   2 -10   14.10    6.70 
   4  -2 -10   52.99    9.40 
  -4  -2  10   76.29    7.10 
   4  -2 -10   62.39    9.40 
   4  -2 -10   76.29    9.10 
  -4  -2  10   75.79    6.80 
  -4   2  10   75.79    6.50 
   4   2 -10   61.89    9.60 
   4   2 -10   65.99    8.20 
  -4   2  10   86.19    9.40 
   4   2 -10   75.39    8.20 
   4   2 -10   74.09    9.80 
   3  -2 -10   64.19    9.30 
   3  -2 -10   50.29    8.00 
  -3  -2  10   75.39    6.40 
  -3  -2  10   57.49    6.20 
   3  -2 -10   60.49    7.80 
  -3   2  10   64.09    5.70 
   3   2 -10   50.69    9.10 
   3   2 -10   63.79    8.90 
   3   2 -10   72.99    7.90 
   3   2 -10   64.79    7.40 
  -2  -2  10   17.10    3.40 
  -2  -2  10   14.20    3.00 
   2  -2 -10   13.60    3.60 
   2  -2 -10   12.70    4.40 
   2   2 -10   20.40    5.30 
   2   2 -10   14.30    4.60 
   2   2 -10   14.70    3.30 
   1  -2 -10   35.90    6.00 
   1  -2 -10   36.10    5.80 
  -1  -2  10   30.30    4.60 
  -1  -2  10   32.80    4.00 
  -1  -2  10   32.60    5.30 
   1  -2 -10   31.90    3.80 
   1   2 -10   34.10    6.80 
   1   2 -10   31.50    6.00 
   1   2 -10   29.20    5.40 
   1   2 -10   22.40    4.80 
  -1   2  10   19.90    5.60 
   0  -2  10  239.78   17.80 
   0  -2  10  196.28   14.40 
   0  -2 -10  244.18   18.40 
   0  -2 -10  194.18   16.50 
   0  -2 -10  194.58   14.60 
   0   2  10  180.18   18.00 
   0   2 -10  197.58   17.20 
   0   2 -10  212.98   17.30 
   1  -2  10  111.39    8.00 
   1  -2  10  100.39   14.00 
   1  -2  10  122.09   10.60 
  -1  -2 -10   89.89   11.10 
   1   2  10  101.79   11.80 
   1   2  10  110.89   11.30 
  -1   2 -10  109.79   10.80 
   1   2  10  151.98   18.40 
  -2  -2 -10   67.69    6.20 
  -2  -2 -10   82.19    8.40 
   2  -2  10   72.89    7.80 
   2  -2  10   70.49    8.70 
  -2   2 -10   66.19    8.30 
   2   2  10   67.69    9.10 
   2   2  10   60.49    7.20 
   2   2  10   59.39    7.80 
   2   2  10   70.49    7.30 
  -3  -2 -10   17.60    2.90 
   3  -2  10   19.00    4.30 
  -3  -2 -10   11.10    3.00 
   3  -2  10    9.60    3.20 
  -3   2 -10   18.70    4.50 
   3   2  10   16.70    4.20 
   3   2  10   18.70    3.20 
   3   2  10   17.30    3.70 
  -4  -2 -10   11.70    3.50 
   4  -2  10   11.80    3.40 
   4  -2  10    7.00    2.50 
   4   2  10    7.80    3.00 
   4   2  10    8.50    2.00 
   4   2  10    7.90    2.10 
   4   2  10    5.40    2.60 
  -4   2 -10   13.80    2.90 
   6  -3 -10    6.40    2.50 
  -6  -3  10   11.60    2.60 
  -6   3  10   16.50    5.90 
   6   3 -10   13.60    4.00 
   6   3 -10   18.90    4.70 
   6   3 -10   10.70    3.90 
  -5  -3  10   35.30    5.10 
  -5  -3  10   36.70    5.80 
   5   3 -10   27.30    5.80 
   5   3 -10   20.40    5.80 
   5   3 -10   33.00    5.50 
   5   3 -10   34.90    6.60 
   4  -3 -10    2.10    3.30 
  -4  -3  10    4.20    1.30 
   4   3 -10    1.90    1.90 
   4   3 -10   -3.40    2.70 
  -4   3  10    3.70    2.80 
   4   3 -10   -2.50    1.90 
   4   3 -10    4.20    3.20 
  -3  -3  10   46.50    5.10 
  -3  -3  10   44.10    5.00 
   3  -3 -10   52.69    7.90 
  -3   3  10   44.70    6.40 
   3   3 -10   40.40    6.10 
   3   3 -10   45.10    7.70 
   3   3 -10   44.80    7.50 
   3   3 -10   40.80    6.10 
   2  -3 -10   10.90    3.30 
  -2  -3  10   19.20    3.20 
   2  -3 -10   19.10    3.60 
  -2  -3  10   18.40    3.30 
   2   3 -10   16.10    4.30 
   2   3 -10   16.10    4.30 
   2   3 -10   14.70    4.90 
   2   3 -10   10.90    3.20 
   1  -3 -10    0.50    2.80 
  -1  -3  10    0.20    1.90 
   1  -3 -10    1.30    1.50 
   1  -3 -10    3.50    2.40 
  -1  -3  10    2.30    1.40 
  -1  -3  10    0.70    1.70 
   1   3 -10    0.60    2.00 
   1   3 -10   -2.30    4.40 
   1   3 -10   -1.60    2.30 
   1   3 -10    5.00    2.40 
  -1   3  10   -2.90    2.70 
   0  -3 -10   31.80    4.30 
   0  -3 -10   28.60    5.50 
   0  -3  10   46.40    6.20 
   0  -3 -10   43.70    6.60 
   0  -3  10   28.60    5.10 
   0  -3  10   39.60    4.30 
   0   3 -10   33.70    6.70 
   0   3  10   38.30    8.70 
   0   3  10   39.60    5.30 
   0   3  10   31.00    5.60 
   0   3 -10   27.10    5.20 
   1  -3  10  228.28   18.50 
   1  -3  10  215.68   14.70 
  -1  -3 -10  204.78   17.00 
   1  -3  10  229.18   16.80 
  -1  -3 -10  197.68   16.10 
  -1  -3 -10  218.18   15.40 
   1   3  10  219.38   16.80 
   1   3  10  210.78   19.90 
   1   3  10  215.88   17.90 
   1   3  10  226.88   16.80 
  -1   3 -10  206.08   16.80 
  -1   3 -10  203.88   17.70 
  -2  -3 -10   32.80    6.10 
  -2  -3 -10   43.70    4.80 
   2  -3  10   43.00    5.90 
  -2  -3 -10   48.70    6.40 
   2  -3  10   47.10    7.00 
   2   3  10   44.90    7.80 
   2   3  10   42.90    6.70 
  -2   3 -10   40.00    6.40 
   2   3  10   53.19    5.80 
   2   3  10   42.40    5.90 
  -3  -3 -10    2.70    1.60 
   3  -3  10    1.20    1.80 
   3  -3  10    0.00    1.40 
  -3  -3 -10    0.70    1.20 
   3   3  10    2.00    2.60 
   3   3  10    2.30    1.70 
   3   3  10   -0.80    1.60 
   3   3  10   -0.30    1.70 
  -3   3 -10    0.40    1.60 
   4  -3  10   14.90    3.10 
  -4  -3 -10   16.70    2.50 
  -4  -3 -10   18.40    3.20 
   4  -3  10   10.10    2.60 
   4   3  10   16.70    3.60 
  -4   3 -10   11.60    2.60 
   4   3  10   16.20    2.60 
   4   3  10   11.30    3.10 
   4   3  10   15.30    3.50 
  -6  -4  10   10.80    2.10 
   6  -4 -10    4.50    3.30 
  -6   4  10    7.80    2.60 
   6   4 -10    7.60    2.40 
   6   4 -10   13.20    3.20 
   6   4 -10    8.00    2.40 
   6   4 -10    4.80    2.20 
  -5  -4  10   -1.50    1.40 
   5  -4 -10    6.30    3.00 
   5  -4 -10    1.70    2.30 
   5   4 -10   -1.90    1.90 
   5   4 -10   -1.50    1.80 
  -5   4  10    3.30    1.90 
   5   4 -10    1.70    2.40 
   5   4 -10   -0.50    2.00 
  -4  -4  10   47.60    4.90 
  -4  -4  10   37.30    5.40 
   4   4 -10   36.80    5.90 
   4   4 -10   33.70    5.60 
  -4   4  10   34.50   10.00 
   4   4 -10   31.30    7.50 
   4   4 -10   46.50    8.80 
  -3  -4  10   25.80    5.70 
   3  -4 -10   40.90    6.80 
  -3  -4  10   27.40    4.10 
   3  -4 -10   20.80    5.30 
   3   4 -10   36.60    5.10 
  -3   4  10   28.40    5.50 
   3   4 -10   25.70    5.90 
   3   4 -10   15.40    4.90 
   3   4 -10   33.30    5.00 
   2  -4 -10  136.79   14.00 
  -2  -4  10  142.29   10.80 
  -2  -4  10  141.49   11.00 
   2  -4 -10  134.19   10.40 
   2   4 -10  139.59   12.10 
  -2   4  10  143.19   12.40 
   2   4 -10  124.39   12.60 
  -2   4  10  112.99   13.60 
   2   4 -10  142.79   14.80 
  -1  -4  10    1.70    1.30 
   1  -4 -10    1.10    1.50 
  -1  -4  10    0.70    1.60 
  -1  -4  10    1.90    1.40 
   1  -4 -10    2.60    2.40 
  -1   4  10   -1.40    2.80 
   1   4 -10    0.30    2.20 
   1   4 -10    3.70    2.70 
  -1   4  10    6.60    2.90 
   1   4 -10    0.70    1.90 
   0  -4  10   39.70    5.90 
   0  -4  10   25.70    5.40 
   0  -4 -10   34.10    5.20 
   0  -4 -10   33.80    4.40 
   0  -4 -10   26.10    6.00 
   0  -4  10   34.10    4.10 
   0   4  10   24.70    4.70 
   0   4 -10   34.60    4.70 
   0   4  10   31.80    6.40 
   0   4 -10   29.70    5.20 
   0   4  10   26.30    4.80 
   0   4 -10   30.50    6.30 
  -1  -4 -10    6.00    1.80 
  -1  -4 -10    2.50    2.40 
   1  -4  10    7.00    1.70 
   1  -4  10    5.90    4.70 
   1  -4  10   10.50    3.80 
  -1  -4 -10    2.30    2.30 
   1   4  10    4.50    2.30 
   1   4  10   17.60    4.70 
   1   4  10    5.80    3.10 
  -1   4 -10    6.80    2.70 
  -1   4 -10    7.70    3.00 
   1   4  10    5.80    3.40 
   2  -4  10   41.70    5.40 
  -2  -4 -10   38.40    5.80 
   2  -4  10   32.40    6.60 
  -2  -4 -10   35.50    5.60 
   2   4  10   42.90    8.60 
  -2   4 -10   40.10    5.50 
  -2   4 -10   27.90    5.70 
   2   4  10   35.40    5.10 
   2   4  10   32.90    5.90 
   2   4  10   30.00    5.50 
   3  -4  10    5.00    2.30 
   3  -4  10    9.40    3.10 
  -3  -4 -10    8.50    2.80 
  -3  -4 -10    9.30    1.90 
   3   4  10    9.10    2.50 
   3   4  10    5.00    1.90 
  -3   4 -10    7.00    2.80 
   3   4  10   10.70    2.40 
   3   4  10    7.00    3.30 
  -4  -4 -10    0.70    1.00 
   4  -4  10    0.70    1.60 
   4  -4  10   -0.50    1.00 
   4   4  10   -0.40    0.90 
   4   4  10    2.60    0.90 
   4   4  10    0.90    2.10 
   4   4  10    3.00    1.10 
  -6  -5  10    3.70    1.30 
   6   5 -10    3.20    1.80 
   6   5 -10    1.50    1.30 
   6   5 -10    1.30    1.80 
  -6   5  10    0.90    1.80 
  -5  -5  10    8.80    2.10 
   5  -5 -10    5.60    2.30 
   5   5 -10    5.40    2.50 
   5   5 -10    3.70    2.30 
   5   5 -10    9.50    2.90 
   5   5 -10    7.80    2.80 
  -5   5  10   11.00    3.50 
   4  -5 -10   10.80    3.30 
  -4  -5  10   13.10    2.70 
   4  -5 -10   11.10    3.90 
   4   5 -10   12.40    4.20 
   4   5 -10   19.10    4.10 
  -4   5  10    7.60    2.90 
   4   5 -10   11.60    3.70 
  -3  -5  10   48.30    5.00 
   3   5 -10   48.10    8.10 
   3   5 -10   41.90    6.30 
   3   5 -10   43.10    6.40 
   2  -5 -10   27.00    6.40 
   2  -5 -10   29.70    4.50 
  -2  -5  10   34.50    4.40 
  -2  -5  10   29.80    4.10 
   2   5 -10   28.40    6.30 
   2   5 -10   28.70    5.20 
  -2   5  10   24.80    5.80 
  -2   5  10   22.40    4.80 
   2   5 -10   23.20    4.80 
   1  -5 -10   28.70    4.20 
  -1  -5  10   22.00    3.80 
   1  -5 -10   15.40    4.40 
  -1  -5  10   21.30    4.10 
  -1  -5  10   31.40    4.80 
   1   5 -10   20.10    4.60 
  -1   5  10   16.80    5.00 
   1   5 -10   23.20    6.20 
   1   5 -10   25.70    4.60 
  -1   5  10   30.60    5.20 
  -1   5  10   17.90    5.60 
   0  -5  10   77.09    6.70 
   0  -5  10   68.19    7.60 
   0  -5 -10   85.79    9.00 
   0  -5 -10   64.99    6.80 
   0  -5  10   76.89    8.40 
   0  -5 -10   64.49    7.10 
   0   5 -10   61.69    7.20 
   0   5  10   63.79    9.70 
   0   5 -10   68.99    8.00 
   0   5  10   70.19    7.80 
   0   5 -10   53.49    8.50 
   0   5  10   67.19    8.70 
  -1  -5 -10   91.19    8.30 
   1  -5  10  102.19    8.10 
  -1  -5 -10   97.49    8.80 
   1  -5  10  114.59   10.80 
   1   5  10   88.99    9.00 
   1   5  10  128.79   13.40 
  -1   5 -10   80.79    9.60 
   1   5  10   80.69   11.70 
   1   5  10   90.49   10.10 
  -1   5 -10   93.69   11.80 
   2  -5  10   32.20    4.60 
  -2  -5 -10   40.20    4.40 
   2  -5  10   43.30    5.80 
   2   5  10   28.00    4.70 
   2   5  10   38.70    5.90 
   2   5  10   39.20    4.80 
  -2   5 -10   24.40    4.60 
  -2   5 -10   37.70    5.10 
   3  -5  10   -1.00    1.60 
   3  -5  10    1.80    1.50 
  -3  -5 -10    3.20    1.40 
  -3  -5 -10    0.80    2.20 
  -3   5 -10   -1.50    1.60 
   3   5  10    0.60    1.30 
   3   5  10   -1.50    1.30 
   3   5  10   -0.60    1.80 
   3   5  10    1.40    1.50 
   5  -6 -10   -0.40    1.50 
  -5  -6  10    4.70    1.40 
   5   6 -10    0.80    1.50 
   5   6 -10    0.50    1.30 
   5   6 -10    2.60    1.40 
  -5   6  10    2.90    2.10 
  -4  -6  10    8.10    1.70 
   4  -6 -10    4.10    2.50 
   4   6 -10    8.80    2.60 
  -4   6  10    4.10    2.20 
   4   6 -10    8.00    2.60 
   4   6 -10    6.90    2.80 
   3  -6 -10   11.50    3.20 
   3  -6 -10   13.00    4.50 
  -3  -6  10   14.90    2.70 
   3   6 -10   16.10    4.50 
   3   6 -10   16.00    4.00 
   3   6 -10   17.80    4.00 
   2  -6 -10   35.70    4.50 
   2  -6 -10   26.20    5.50 
  -2  -6  10   39.00    4.50 
  -2  -6  10   31.00    4.20 
   2   6 -10   34.40    4.90 
   2   6 -10   33.70    5.60 
  -2   6  10   24.20    5.70 
  -2   6  10   37.10    5.80 
   2   6 -10   25.90    6.30 
  -1  -6  10    6.30    2.70 
  -1  -6  10    7.20    2.30 
   1  -6 -10    5.60    3.20 
  -1  -6  10    3.50    1.80 
   1   6 -10    6.80    3.00 
  -1   6  10    8.40    4.30 
  -1   6  10    2.50    2.80 
   1   6 -10    5.10    2.60 
  -1   6  10    5.60    2.90 
   1   6 -10    2.50    3.40 
   0  -6 -10   40.90    5.50 
   0  -6  10   30.00    4.80 
   0  -6  10   38.90    6.70 
   0  -6  10   32.60    4.00 
   0  -6 -10   33.30    4.20 
   0   6 -10   20.80    5.10 
   0   6  10   29.90    4.90 
   0   6  10   39.00    5.70 
   0   6 -10   22.40    4.40 
   0   6  10   34.40    6.60 
  -1  -6 -10    8.80    2.20 
   1  -6  10    5.60    2.30 
   1  -6  10   11.00    2.00 
  -1  -6 -10    9.30    3.10 
   1   6  10    4.70    2.60 
   1   6  10    7.50    2.50 
   1   6  10   11.00    4.50 
  -1   6 -10    6.80    2.70 
  -2  -6 -10   -0.10    1.20 
   2  -6  10    0.80    1.70 
   2  -6  10    2.70    1.90 
  -2  -6 -10    3.40    1.40 
   2   6  10   -1.00    2.00 
   2   6  10   -2.90    1.50 
   2   6  10   -0.30    1.90 
  -2   6 -10    0.30    1.70 
  -3  -6 -10    0.30    1.10 
   3  -6  10    1.60    1.30 
   3  -6  10    3.70    1.50 
  -3  -6 -10    0.70    1.10 
   3   6  10    2.00    1.60 
  -3   6 -10   -0.40    1.20 
   3   6  10   -1.50    1.20 
   3   6  10    0.10    1.00 
  -4  -7  10    3.30    1.20 
   4  -7 -10    2.40    1.50 
   4   7 -10    1.60    1.80 
  -4   7  10    0.30    2.90 
   4   7 -10    1.80    1.50 
   4   7 -10    0.40    1.20 
  -3  -7  10    0.30    1.40 
   3  -7 -10   -2.60    1.60 
   3   7 -10    0.00    1.60 
   3   7 -10    2.90    2.40 
   3   7 -10   -2.30    1.40 
   2  -7 -10    4.70    1.80 
   2   7 -10    2.90    1.90 
  -2   7  10    3.30    1.90 
   2   7 -10   -0.80    3.30 
   2   7 -10    2.40    1.90 
  -2   7  10    4.70    3.10 
  -1  -7  10    2.40    1.50 
   1  -7 -10    0.80    2.70 
   1  -7 -10    5.90    2.00 
  -1  -7  10    4.60    1.40 
  -1   7  10    5.50    2.50 
   1   7 -10    0.30    1.40 
  -1   7  10    5.50    2.30 
   1   7 -10    0.40    1.90 
  -1   7  10   -0.40    2.80 
   0  -7 -10    6.70    1.90 
   0  -7  10    2.40    1.70 
   0  -7 -10    7.20    2.60 
   0   7 -10    5.80    2.10 
   0   7  10    3.90    2.70 
   0   7  10    5.20    2.10 
   0   7  10    9.00    2.50 
   1  -7  10    1.20    1.30 
  -1  -7 -10    2.90    1.50 
  -1  -7 -10    3.40    2.40 
   1  -7  10    1.60    1.40 
  -1   7 -10    2.80    1.90 
   1   7  10    1.10    2.00 
  -1   7 -10    0.00    1.70 
   1   7  10    0.60    1.60 
   1   7  10    1.10    2.10 
  -2  -7 -10    0.90    1.30 
   2  -7  10    3.20    1.50 
   2   7  10    2.60    1.20 
   2   7  10    2.40    1.80 
   2   7  10    2.50    1.60 
  -2   7 -10    3.60    1.40 
   3  -8 -10    4.00    2.40 
  -3  -8  10    0.50    1.10 
   3   8 -10    2.50    1.20 
   3   8 -10    2.40    1.30 
   2  -8 -10    6.50    1.20 
  -2  -8  10    7.00    1.50 
   2  -8 -10    6.20    2.20 
  -2   8  10    5.50    1.90 
   2   8 -10    3.50    1.70 
   2   8 -10    5.00    2.00 
  -1  -8  10    3.30    1.50 
  -1  -8  10    4.60    1.40 
   1  -8 -10    6.70    1.70 
   1   8 -10    3.10    1.80 
   1   8 -10    3.70    2.00 
  -1   8  10    3.80    2.20 
  -1   8  10    3.90    2.00 
   0  -8  10    4.40    1.30 
   0  -8  10    4.40    1.50 
   0  -8 -10    1.90    1.40 
   0   8  10    3.00    2.00 
   0   8 -10    5.80    1.40 
   0   8  10    5.90    2.00 
   0   8 -10    4.00    1.70 
   0   8  10    1.80    1.30 
  -1  -8 -10    0.20    1.20 
   1  -8  10   -0.20    0.70 
   1  -8  10    3.10    1.10 
  -1   8 -10    1.00    1.10 
   1   8  10   -1.10    1.30 
   1   8  10    2.00    1.10 
   1   8  10    1.20    1.30 
   6   0 -11    5.90    2.00 
  -6   0  11    7.20    2.40 
  -6   0  11    8.30    2.90 
   6   0 -11    4.10    1.70 
   6   0 -11    4.40    2.80 
   5   0 -11    3.10    2.70 
   5   0 -11    3.50    2.20 
  -5   0  11    1.20    1.40 
   5   0 -11    8.00    2.50 
   4   0 -11    8.70    3.10 
   4   0 -11    4.30    3.30 
  -4   0  11    8.10    2.20 
   4   0 -11    9.50    3.90 
   4   0 -11    9.90    3.30 
  -3   0  11   58.79    5.60 
   3   0 -11   44.00    7.60 
   3   0 -11   51.89    6.70 
   3   0 -11   47.30    7.70 
  -2   0  11    7.70    2.00 
   2   0 -11   10.80    3.30 
   2   0 -11    7.50    3.60 
   2   0 -11    4.70    2.80 
  -1   0  11  150.38   14.00 
  -1   0  11  136.39   10.20 
   1   0 -11  135.99   13.70 
   1   0 -11  162.08   13.90 
   0   0 -11  251.97   26.10 
   0   0  11  270.07   26.10 
   0   0 -11  219.28   19.60 
  -1   0 -11    2.10    1.90 
   1   0  11    2.70    2.40 
   1   0  11    4.60    2.30 
  -1   0 -11    0.30    1.60 
   2   0  11    5.60    3.30 
   2   0  11   -2.00    1.40 
  -2   0 -11   -1.20    2.10 
  -2   0 -11    0.20    1.70 
   3   0  11   42.70    5.70 
   3   0  11   40.50    5.90 
  -3   0 -11   43.70    5.40 
  -3   0 -11   41.00    6.00 
   4   0  11   16.90    3.30 
   4   0  11   17.90    3.30 
   6  -1 -11    5.40    2.10 
   6  -1 -11   10.70    3.70 
   6  -1 -11    9.60    4.00 
  -6   1  11   13.00    3.90 
  -6   1  11    9.90    1.50 
   6   1 -11    8.50    3.10 
   6   1 -11   14.30    4.00 
   5  -1 -11    2.00    2.20 
   5  -1 -11    6.40    3.10 
  -5  -1  11    2.90    1.50 
   5  -1 -11    3.90    2.40 
   5  -1 -11    2.70    2.80 
  -5   1  11    5.60    1.70 
   5   1 -11    6.50    2.50 
   5   1 -11    1.60    2.60 
  -5   1  11    1.80    2.10 
   5   1 -11    2.60    2.40 
   5   1 -11   -2.80    2.20 
  -4  -1  11    7.00    2.50 
   4  -1 -11    9.10    3.60 
   4  -1 -11   13.30    4.80 
  -4  -1  11   11.10    2.70 
   4   1 -11   11.00    3.30 
   4   1 -11    6.10    3.10 
  -4   1  11   16.70    3.20 
   4   1 -11   18.80    5.30 
   4   1 -11   10.70    4.10 
   3  -1 -11   58.19    8.10 
   3  -1 -11   60.49    8.60 
  -3  -1  11   67.09    6.50 
  -3  -1  11   63.39    6.80 
   3  -1 -11   54.39    7.30 
   3   1 -11   61.39    7.20 
   3   1 -11   62.69    8.50 
   3   1 -11   67.69    9.10 
  -3   1  11   71.99    5.70 
   3   1 -11   55.59    7.00 
   2  -1 -11    5.50    3.70 
  -2  -1  11    8.30    5.00 
   2   1 -11    3.30    2.80 
  -2   1  11    4.10    1.40 
   2   1 -11    5.00    3.40 
  -1  -1  11  156.48   11.10 
   1  -1 -11  159.28   14.50 
  -1  -1  11  149.59   13.60 
   1  -1 -11  145.59   13.60 
   1   1 -11  130.49   14.70 
   1   1 -11  154.28   13.70 
  -1   1  11  143.19   13.90 
   0  -1 -11   48.70    5.60 
   0  -1 -11   55.99    7.20 
   0  -1 -11   47.90    6.70 
   0  -1  11   43.30    6.90 
   0  -1  11   48.40    4.50 
   0   1 -11   50.99    9.20 
   0   1 -11   46.10    6.90 
   0   1  11   45.50    7.20 
   1  -1  11   10.30    3.40 
  -1  -1 -11   15.20    3.60 
  -1  -1 -11   17.30    4.40 
  -1  -1 -11   16.60    3.40 
  -1   1 -11   18.30    4.40 
   1   1  11   15.10    3.50 
   1   1  11   17.30    4.80 
  -1   1 -11   12.40    3.50 
  -2  -1 -11   55.29    7.20 
   2  -1  11   68.29    8.20 
   2  -1  11   53.59    7.70 
  -2   1 -11   60.69    7.70 
   2   1  11   43.90    7.60 
   2   1  11   58.99    6.80 
   2   1  11   55.09   11.80 
  -2   1 -11   54.49    6.90 
  -3  -1 -11   13.90    2.70 
   3  -1  11   14.60    3.70 
  -3  -1 -11   21.60    3.90 
   3  -1  11   17.10    4.30 
  -3  -1 -11   13.80    3.50 
   3   1  11   10.60    3.10 
   3   1  11   16.10    3.80 
  -3   1 -11   17.20    4.00 
   3   1  11   15.80    2.60 
  -4  -1 -11    6.20    1.90 
  -4  -1 -11    2.50    1.60 
   4  -1  11    7.60    1.90 
   4  -1  11    6.70    1.80 
  -4   1 -11    5.20    1.90 
   4   1  11    7.10    2.20 
   4   1  11    4.30    1.50 
   6  -2 -11   -0.80    1.30 
  -6  -2  11   -0.50    1.30 
   6   2 -11    0.80    1.50 
   6   2 -11   -1.70    1.50 
   6   2 -11   -0.30    1.20 
   6   2 -11   -1.40    1.30 
  -6   2  11   -2.00    1.30 
   5  -2 -11   -0.30    1.80 
  -5  -2  11    0.80    1.50 
  -5   2  11    0.90    1.90 
   5   2 -11   -0.80    2.40 
   5   2 -11    1.40    2.10 
   5   2 -11    0.90    2.00 
   4  -2 -11    4.60    3.90 
  -4  -2  11    2.90    1.90 
  -4  -2  11    0.40    1.70 
   4  -2 -11    3.00    4.60 
   4   2 -11    3.80    3.10 
   4   2 -11    4.30    2.80 
  -4   2  11    0.80    2.10 
   4   2 -11    5.80    2.20 
   4   2 -11    0.90    2.20 
   3  -2 -11    6.30    2.50 
   3  -2 -11    1.10    3.50 
  -3  -2  11    6.50    1.90 
  -3  -2  11    4.30    1.80 
   3   2 -11    8.30    2.90 
   3   2 -11    5.30    2.20 
   3   2 -11    5.50    3.10 
  -3   2  11    4.60    2.60 
   3   2 -11    0.40    2.20 
  -2  -2  11    8.30    2.00 
   2  -2 -11   10.60    3.30 
  -2  -2  11    5.70    2.20 
   2   2 -11   15.50    4.00 
   2   2 -11    9.80    3.50 
   2   2 -11    7.30    3.40 
   1  -2 -11   77.79    7.00 
   1  -2 -11   83.19    9.00 
  -1  -2  11   71.49    6.60 
   1  -2 -11   63.69    8.90 
  -1  -2  11   55.99   10.20 
   1   2 -11   74.19    8.90 
  -1   2  11   78.49   11.20 
   0  -2 -11  263.27   17.90 
   0  -2  11  258.97   17.70 
   0  -2 -11  238.08   20.10 
   0  -2  11  278.57   21.50 
   0  -2 -11  317.17   22.30 
   0   2  11  249.58   22.20 
   0   2 -11  257.07   20.20 
   0   2 -11  244.88   21.00 
  -1  -2 -11    4.90    1.40 
  -1  -2 -11    2.50    1.80 
  -1  -2 -11    0.90    2.00 
   1  -2  11    2.00    2.50 
   1   2  11   -0.40    2.40 
   1   2  11    2.90    2.30 
  -1   2 -11    3.70    2.70 
  -1   2 -11   -5.10    2.80 
   2  -2  11   28.50    5.30 
  -2  -2 -11   30.30    5.60 
  -2  -2 -11   31.80    4.30 
   2  -2  11   30.00    5.80 
   2   2  11   21.30    5.70 
   2   2  11   28.30    4.40 
  -2   2 -11   31.10    5.50 
   2   2  11   30.30    4.60 
   3  -2  11    3.40    2.30 
   3  -2  11    6.60    2.30 
  -3  -2 -11    9.50    2.70 
  -3  -2 -11   11.50    2.40 
   3   2  11    6.70    2.50 
   3   2  11    5.90    2.60 
  -3   2 -11    8.70    2.50 
   3   2  11    9.30    2.20 
  -4  -2 -11   -1.20    1.10 
   4  -2  11    0.20    1.70 
  -4   2 -11    0.50    1.20 
   4   2  11   -0.30    1.70 
   4   2  11   -0.40    0.90 
   6  -3 -11   -1.10    1.60 
  -6  -3  11    0.70    1.20 
   6   3 -11    1.30    1.50 
   6   3 -11    0.50    1.50 
   6   3 -11    0.20    1.30 
  -6   3  11    1.80    1.60 
   6   3 -11    0.70    1.70 
   5  -3 -11   -1.50    1.60 
  -5  -3  11    0.80    1.20 
  -5   3  11    2.40    2.00 
   5   3 -11   -2.00    1.40 
   5   3 -11    0.90    2.10 
   5   3 -11   -1.10    1.80 
   5   3 -11    5.80    2.10 
   4  -3 -11   -1.60    2.10 
  -4  -3  11    1.90    1.70 
   4   3 -11    3.40    3.60 
   4   3 -11   -1.40    1.90 
   4   3 -11    0.10    1.70 
  -4   3  11   -1.10    2.00 
   4   3 -11   -1.90    2.40 
  -3  -3  11    3.90    1.80 
  -3  -3  11    5.20    1.90 
   3  -3 -11    6.90    3.40 
  -3   3  11    6.60    3.00 
   3   3 -11    5.30    3.40 
   3   3 -11    7.00    3.20 
   3   3 -11    6.30    2.70 
   3   3 -11   10.10    2.60 
  -2  -3  11   34.40    4.40 
  -2  -3  11   31.50    4.10 
   2  -3 -11   20.70    5.40 
   2   3 -11   41.90    6.30 
   2   3 -11   29.60    5.80 
   2   3 -11   26.10    4.70 
   2   3 -11   23.30    4.40 
   1  -3 -11   68.39    6.20 
   1  -3 -11   81.09    9.00 
  -1  -3  11   74.19    8.10 
  -1  -3  11   79.79    6.60 
  -1  -3  11   59.59    7.20 
   1   3 -11   58.89    7.00 
   1   3 -11   61.79    8.60 
   1   3 -11   66.69    7.40 
  -1   3  11   66.09    9.00 
   0  -3 -11   -0.80    2.50 
   0  -3 -11    1.70    2.30 
   0  -3  11    6.50    2.60 
   0  -3  11    2.80    1.30 
   0   3 -11    3.20    2.90 
   0   3  11    3.80    3.00 
   0   3  11    0.60    3.40 
   0   3 -11    1.50    2.30 
   1  -3  11    1.20    2.80 
  -1  -3 -11    1.10    2.20 
  -1  -3 -11    1.40    1.70 
  -1   3 -11    8.00    3.00 
   1   3  11    7.60    4.60 
   1   3  11   -2.00    2.30 
  -2  -3 -11   -0.30    2.00 
  -2  -3 -11    0.50    1.30 
   2  -3  11    1.50    1.90 
   2  -3  11   -0.70    1.60 
   2   3  11    0.50    1.90 
   2   3  11    0.00    1.40 
   2   3  11   -0.80    1.70 
  -2   3 -11   -0.40    1.70 
   2   3  11    1.10    2.10 
   3  -3  11   -0.80    1.50 
   3  -3  11    3.10    1.70 
  -3  -3 -11    0.10    1.00 
  -3  -3 -11   -0.50    1.30 
   3   3  11    1.10    1.90 
  -3   3 -11    0.20    1.30 
   3   3  11    0.60    1.00 
   3   3  11   -1.10    1.40 
   4  -3  11    3.70    1.40 
  -4  -3 -11    1.00    1.00 
   4  -3  11    2.60    1.30 
  -4  -3 -11    5.40    1.40 
   4   3  11    4.10    1.70 
   4   3  11    3.60    1.30 
  -4   3 -11    4.10    1.60 
   6   4 -11    1.70    1.40 
   6   4 -11    3.30    1.40 
   6   4 -11    3.20    1.30 
   6   4 -11    0.60    1.20 
  -6   4  11    2.50    1.90 
   5  -4 -11    1.50    1.80 
   5   4 -11   -0.70    1.20 
   5   4 -11    0.00    1.70 
  -5   4  11    1.20    1.50 
   5   4 -11   -0.20    1.50 
   5   4 -11   -0.90    1.40 
  -4  -4  11   19.70    3.50 
   4  -4 -11    8.70    3.60 
  -4  -4  11   19.90    3.50 
   4   4 -11    7.60    3.10 
   4   4 -11   13.40    3.80 
  -4   4  11   13.30    3.40 
   4   4 -11   10.70    3.40 
   4   4 -11   12.90    3.50 
   3  -4 -11    9.00    4.20 
  -3  -4  11    5.70    2.20 
  -3  -4  11    7.90    2.20 
   3   4 -11    4.60    2.70 
  -3   4  11    6.50    3.10 
   3   4 -11   10.70    2.90 
   3   4 -11   11.20    3.50 
   3   4 -11    2.30    2.10 
  -2  -4  11   53.59    5.30 
   2  -4 -11   42.20    6.80 
   2  -4 -11   41.30    5.10 
  -2  -4  11   51.09    5.50 
   2   4 -11   48.30    6.40 
   2   4 -11   43.80    6.00 
   2   4 -11   43.80    7.50 
  -2   4  11   28.60    8.90 
  -1  -4  11   81.39    8.50 
  -1  -4  11   82.69    7.00 
   1  -4 -11   60.59    8.30 
   1  -4 -11   73.49    6.80 
  -1  -4  11   62.79    7.60 
  -1   4  11   68.79    9.90 
   1   4 -11   71.79    7.50 
   1   4 -11   61.89    8.80 
  -1   4  11   76.99    8.00 
   1   4 -11   69.89    8.00 
   0  -4 -11  103.39   11.00 
   0  -4  11  124.49   11.50 
   0  -4 -11  120.79    9.20 
   0  -4  11  115.29    8.80 
   0   4 -11   93.99   10.10 
   0   4  11  104.39   12.60 
   0   4  11  103.89   10.80 
   0   4 -11   97.99   10.90 
   0   4  11   98.49   10.50 
  -1  -4 -11   12.60    3.40 
   1  -4  11   10.90    1.80 
  -1  -4 -11   11.60    2.70 
  -1  -4 -11   12.40    3.90 
   1   4  11   12.60    3.30 
   1   4  11    7.70    3.40 
  -1   4 -11   10.50    3.10 
  -1   4 -11    8.20    2.60 
   1   4  11   12.30    3.20 
  -2  -4 -11   -0.40    1.10 
   2  -4  11    3.70    2.40 
   2  -4  11    0.60    1.80 
  -2  -4 -11   -3.40    1.80 
  -2   4 -11    1.20    1.50 
   2   4  11   -2.00    2.00 
   2   4  11    0.70    1.30 
   2   4  11   -0.80    1.60 
  -3  -4 -11    2.70    1.60 
  -3  -4 -11    2.60    1.10 
   3  -4  11    0.60    1.50 
  -3  -4 -11    4.20    1.80 
   3  -4  11   -0.70    1.20 
  -3   4 -11    2.30    2.10 
   3   4  11    1.30    1.80 
   3   4  11    1.20    1.50 
   3   4  11    2.40    1.30 
   3   4  11    0.80    1.40 
  -5  -5  11    5.80    1.80 
   5   5 -11    2.30    1.50 
   5   5 -11    3.70    1.80 
  -5   5  11    4.20    2.00 
   5   5 -11    3.50    1.70 
   4  -5 -11    2.40    2.20 
  -4  -5  11   -0.10    1.20 
   4  -5 -11    1.20    2.50 
  -4   5  11    2.30    2.20 
   4   5 -11    1.30    1.70 
   4   5 -11    0.20    1.70 
   3  -5 -11   23.10    5.00 
  -3  -5  11   32.20    3.90 
  -3  -5  11   28.90    4.20 
   3   5 -11   24.60    4.70 
   3   5 -11   18.90    5.30 
   3   5 -11   26.60    4.80 
  -2  -5  11   41.20    4.80 
   2  -5 -11   40.30    4.60 
  -2  -5  11   43.50    5.20 
   2  -5 -11   32.50    5.60 
   2   5 -11   29.50    5.30 
  -2   5  11   32.40    6.30 
   2   5 -11   34.90    5.50 
  -2   5  11   37.30    5.80 
  -1  -5  11   65.99    7.40 
  -1  -5  11   57.69    7.60 
   1  -5 -11   64.69    8.00 
  -1  -5  11   74.39    8.80 
   1   5 -11   57.89    7.20 
  -1   5  11   63.09    9.20 
   1   5 -11   64.79    6.70 
   1   5 -11   56.39    8.40 
  -1   5  11   61.89    7.10 
   0  -5  11    4.70    1.70 
   0  -5 -11    6.00    2.80 
   0  -5  11    1.30    1.50 
   0  -5 -11    3.70    1.70 
   0   5 -11   11.10    2.50 
   0   5  11    8.00    2.90 
   0   5 -11    5.60    2.90 
   0   5  11    1.10    2.50 
   0   5 -11    5.90    2.90 
   0   5  11    1.40    3.00 
   1  -5  11    2.70    2.00 
  -1  -5 -11    1.70    1.50 
  -1  -5 -11    3.60    1.60 
   1  -5  11    1.60    1.00 
  -1   5 -11   -1.00    1.80 
   1   5  11    1.30    2.50 
   1   5  11    3.20    1.90 
   1   5  11   -0.30    1.90 
   2  -5  11    0.80    1.50 
  -2  -5 -11    0.40    1.30 
  -2  -5 -11   -2.00    1.10 
   2   5  11    1.20    1.70 
   2   5  11    1.00    2.00 
  -2   5 -11    0.80    1.80 
   2   5  11   -0.50    1.40 
  -2   5 -11    1.30    2.00 
   3  -5  11    8.70    2.20 
  -3  -5 -11    6.60    2.00 
  -3  -5 -11    5.00    1.30 
   3  -5  11    4.70    2.10 
   3   5  11    4.60    1.60 
   3   5  11    3.30    1.70 
   3   5  11    4.00    1.70 
  -5  -6  11    1.50    1.10 
   5   6 -11    1.80    1.30 
   5   6 -11    3.10    1.50 
   5   6 -11   -0.60    1.20 
   4   6 -11    9.60    2.40 
   4   6 -11   13.70    3.40 
   4   6 -11   13.50    3.10 
   3  -6 -11   -0.70    2.40 
   3  -6 -11    2.40    2.20 
  -3  -6  11    5.10    1.60 
   3   6 -11    3.90    2.10 
   3   6 -11    0.60    2.30 
   3   6 -11    4.10    2.10 
   2  -6 -11   12.70    3.80 
  -2  -6  11   10.30    2.20 
   2   6 -11    4.80    2.80 
   2   6 -11    5.40    2.20 
   2   6 -11    7.40    2.20 
  -2   6  11    6.40    3.70 
  -2   6  11   10.60    3.20 
   1  -6 -11   17.20    3.50 
  -1  -6  11   17.70    3.40 
  -1  -6  11   24.30    3.40 
   1  -6 -11    8.90    3.20 
  -1   6  11   26.00    3.40 
   1   6 -11   16.20    3.60 
   1   6 -11    9.90    2.90 
   1   6 -11   18.10    3.80 
   0  -6  11    8.60    1.80 
   0  -6 -11    6.90    2.10 
   0  -6 -11   14.90    2.90 
   0  -6  11    9.30    2.60 
   0   6  11    4.30    2.90 
   0   6 -11    8.10    2.60 
   0   6 -11    7.50    2.20 
   0   6  11    8.50    2.40 
   0   6 -11    2.90    2.70 
   0   6  11    8.10    2.90 
   1  -6  11   -1.00    0.90 
  -1  -6 -11    1.90    1.80 
   1  -6  11    1.00    1.20 
   1   6  11    0.20    1.30 
   1   6  11    1.60    1.80 
  -1   6 -11    2.10    1.40 
   1   6  11   -2.50    1.30 
  -2  -6 -11    3.00    1.40 
   2  -6  11    6.10    2.00 
   2   6  11    2.20    1.80 
   2   6  11    4.00    1.50 
  -2   6 -11    2.60    1.50 
   2   6  11    5.50    1.90 
   4   7 -11    1.00    1.10 
   4   7 -11    1.90    1.10 
   3  -7 -11    1.40    1.60 
   3   7 -11   -1.30    2.10 
   3   7 -11    3.30    1.70 
   3   7 -11    2.90    1.70 
   2  -7 -11    0.60    1.50 
  -2  -7  11    4.20    1.30 
   2   7 -11    0.60    1.50 
   2   7 -11    2.80    1.40 
  -2   7  11    2.30    1.60 
   1  -7 -11    4.80    1.70 
  -1  -7  11    3.40    1.40 
   1  -7 -11    6.40    2.40 
  -1  -7  11    4.30    1.50 
   1   7 -11    0.40    1.70 
   1   7 -11    4.50    1.60 
  -1   7  11    6.40    2.00 
  -1   7  11    4.50    2.00 
   0  -7 -11    1.50    1.60 
   0  -7  11    0.10    1.00 
   0  -7 -11   -0.50    1.20 
   0  -7  11    0.20    0.80 
   0   7 -11   -0.50    1.40 
   0   7 -11   -1.30    1.70 
   0   7  11    1.90    1.50 
   1  -7  11    2.30    1.30 
  -1  -7 -11    0.10    1.30 
  -1  -7 -11    5.10    1.40 
  -1   7 -11    4.00    1.70 
   1   7  11   -0.20    1.30 
   1   7  11    5.50    1.60 
   1   7  11    3.50    1.80 
   2  -8 -11    6.80    1.90 
  -2  -8  11   10.40    1.80 
   2   8 -11   12.40    2.20 
   2   8 -11   10.40    2.20 
  -1  -8  11    2.70    0.80 
  -1   8  11    0.30    1.30 
  -1   8  11    2.90    1.60 
   1   8 -11    3.20    1.50 
   0  -8 -11    6.30    1.10 
   0   8  11    6.90    1.90 
   0   8 -11    4.00    1.40 
  -6   0  12    4.80    2.10 
   6   0 -12    4.90    1.80 
   6   0 -12    6.00    2.80 
   6   0 -12    2.90    2.00 
  -5   0  12    4.40    1.50 
   5   0 -12    3.70    2.00 
   5   0 -12    9.20    2.40 
   5   0 -12    2.10    2.30 
   5   0 -12    3.80    2.70 
   4   0 -12   -0.90    1.50 
   4   0 -12   -1.90    2.10 
  -4   0  12   -0.10    1.10 
   4   0 -12    2.50    2.30 
   3   0 -12    9.50    3.90 
   3   0 -12    6.00    3.20 
  -3   0  12    8.00    1.90 
   3   0 -12    0.60    2.90 
   2   0 -12  151.58   14.40 
  -2   0  12  148.19   10.70 
   2   0 -12  149.69   14.10 
   1   0 -12    2.20    2.00 
  -1   0  12   -0.30    2.00 
   1   0 -12   -1.10    1.80 
   0   0 -12   18.50    4.60 
   0   0  12   16.40    4.50 
   1   0  12   99.69   11.60 
  -1   0 -12  127.39   11.90 
  -1   0 -12  100.39   14.80 
  -2   0 -12    9.60    3.10 
  -2   0 -12    2.90    2.80 
   2   0  12    9.80    2.40 
   2   0  12   13.70    4.30 
   3   0  12   -2.30    1.40 
   3   0  12    1.10    1.20 
  -3   0 -12    1.10    2.10 
  -3   0 -12    1.30    1.30 
   6  -1 -12    2.30    1.40 
  -6  -1  12    2.80    1.70 
   6   1 -12    0.00    1.70 
  -6   1  12    2.10    1.80 
   6   1 -12    1.60    1.10 
   6   1 -12    4.20    1.30 
  -5  -1  12    0.80    1.10 
   5  -1 -12    2.10    1.90 
   5  -1 -12   -3.10    2.30 
   5   1 -12    1.80    1.90 
   5   1 -12    4.00    1.90 
   5   1 -12    3.50    1.90 
  -5   1  12   -1.50    1.40 
   5   1 -12    2.10    1.90 
   4  -1 -12    2.90    3.00 
   4  -1 -12    1.30    2.50 
   4  -1 -12    3.50    2.50 
  -4  -1  12    5.60    1.80 
   4   1 -12    1.20    2.20 
   4   1 -12    5.10    2.70 
  -4   1  12    5.90    1.60 
   4   1 -12    6.20    2.90 
   4   1 -12    6.60    3.60 
   3  -1 -12   27.90    6.00 
   3  -1 -12   19.40    4.60 
   3  -1 -12   17.90    5.10 
   3   1 -12   18.80    4.80 
  -3   1  12   20.90    3.20 
   3   1 -12   31.90    5.00 
   3   1 -12   30.10    5.80 
   2  -1 -12   18.80    4.80 
  -2  -1  12   24.00    3.40 
   2  -1 -12   29.00    5.00 
   2   1 -12   18.80    4.40 
   2   1 -12   15.00    4.30 
   2   1 -12   16.30    4.40 
  -1  -1  12   38.80    3.90 
   1  -1 -12   41.00    6.10 
   1  -1 -12   33.40    5.80 
  -1  -1  12   33.00    5.70 
  -1   1  12   30.00    6.20 
   0  -1 -12   -3.00    1.90 
   0  -1  12    4.00    2.60 
   0  -1 -12    1.00    2.20 
   0   1 -12    6.00    2.70 
   0   1 -12    1.30    2.50 
   0   1  12    2.80    2.30 
   1  -1  12    7.80    3.60 
  -1   1 -12   15.50    4.00 
  -1   1 -12   12.00    4.40 
   1   1  12   12.10    5.70 
  -2  -1 -12    2.90    2.00 
   2  -1  12    0.70    1.50 
   2  -1  12    1.40    2.20 
  -2  -1 -12    3.30    1.50 
  -2   1 -12    3.70    2.40 
   2   1  12    8.00    2.60 
   2   1  12    3.50    2.10 
  -2   1 -12   10.30    4.90 
   3  -1  12    3.30    1.60 
   3  -1  12    3.70    1.80 
  -3  -1 -12    5.00    1.80 
  -3  -1 -12    6.60    2.00 
   3   1  12    2.70    1.60 
  -3   1 -12    2.40    1.50 
   3   1  12    3.60    1.90 
  -6  -2  12    0.10    1.00 
   6  -2 -12    2.70    1.30 
   6   2 -12    0.20    1.20 
   6   2 -12    0.90    1.40 
   6   2 -12   -0.10    0.90 
  -6   2  12    1.60    1.70 
   6   2 -12    0.90    1.40 
  -5  -2  12    7.70    2.00 
   5  -2 -12    8.20    3.00 
  -5   2  12    5.50    2.40 
   5   2 -12    4.00    1.80 
   5   2 -12    6.30    2.50 
   5   2 -12    4.70    1.90 
   5   2 -12    4.90    2.00 
   4  -2 -12    1.00    2.30 
   4  -2 -12   -0.50    2.80 
  -4  -2  12   -0.10    1.30 
  -4   2  12    1.70    2.20 
   4   2 -12    0.20    1.90 
   4   2 -12    0.50    1.70 
   4   2 -12    0.80    1.90 
  -3  -2  12   48.70    5.40 
   3  -2 -12   47.20    7.30 
  -3  -2  12   38.20    6.50 
   3   2 -12   44.50    7.40 
   3   2 -12   35.00    5.40 
   3   2 -12   46.40    6.90 
   2  -2 -12   27.60    5.20 
   2  -2 -12   14.50    3.40 
   2   2 -12   17.20    4.00 
   2   2 -12   13.60    3.40 
   2   2 -12   13.80    4.30 
   1  -2 -12    9.20    2.90 
   1  -2 -12    8.30    3.30 
  -1  -2  12   15.20    2.90 
  -1  -2  12   10.10    3.50 
   1   2 -12   10.80    3.90 
   1   2 -12    8.00    3.10 
  -1   2  12   16.80    4.60 
   0  -2  12    5.80    3.10 
   0  -2 -12    1.70    1.90 
   0  -2 -12    3.00    2.50 
   0   2 -12    3.70    2.40 
   0   2  12    3.00    2.50 
   0   2 -12    1.40    3.20 
  -1  -2 -12   28.50    3.80 
   1  -2  12   26.50    5.30 
  -1  -2 -12   22.00    4.80 
  -1  -2 -12   28.40    5.10 
   1   2  12   27.60    6.40 
  -1   2 -12   24.30    5.30 
   1   2  12   28.30    5.10 
  -2  -2 -12   -2.60    1.40 
  -2  -2 -12    1.40    1.60 
  -2  -2 -12   -1.30    2.10 
   2  -2  12    0.70    1.80 
   2  -2  12    3.10    2.20 
  -2   2 -12    1.00    1.60 
   2   2  12    0.60    1.70 
   2   2  12   -1.10    1.80 
  -3  -2 -12    1.50    1.30 
  -3  -2 -12    0.90    1.50 
   3  -2  12    1.50    1.20 
   3  -2  12    0.00    1.60 
  -3   2 -12    0.80    1.20 
   3   2  12    2.20    1.40 
   3   2  12    1.80    1.60 
   6  -3 -12    2.90    1.50 
  -6  -3  12    4.10    1.70 
  -6   3  12    5.10    1.60 
   6   3 -12    4.50    1.30 
   6   3 -12    3.40    1.40 
   6   3 -12    4.60    1.60 
   6   3 -12    5.90    1.60 
   5  -3 -12    3.80    2.20 
  -5  -3  12    1.20    1.30 
   5   3 -12    1.40    1.40 
   5   3 -12    0.80    1.70 
   5   3 -12   -1.00    1.50 
   5   3 -12   -0.90    1.40 
   4   3 -12   13.90    4.50 
   4   3 -12   11.60    3.50 
   4   3 -12    7.40    2.60 
  -4   3  12   13.50    2.80 
   4   3 -12    5.20    2.70 
   3  -3 -12   13.30    3.60 
   3   3 -12   15.40    3.40 
   3   3 -12   10.90    3.40 
   3   3 -12   13.20    3.90 
   3   3 -12   15.80    4.80 
   2  -3 -12   32.60    6.00 
  -2  -3  12   21.30    4.70 
   2   3 -12   19.90    4.80 
   2   3 -12   25.40    5.60 
   2   3 -12   21.60    4.80 
   2   3 -12   26.30    5.10 
  -1  -3  12   29.40    7.00 
  -1  -3  12   19.80    3.50 
   1  -3 -12   19.00    5.80 
   1   3 -12   14.60    4.20 
  -1   3  12   20.70    5.60 
   1   3 -12   25.00    4.70 
   0  -3 -12   13.00    3.50 
   0  -3  12   17.00    4.40 
   0  -3 -12   14.40    2.60 
   0  -3  12   16.20    3.10 
   0   3  12   14.20    4.70 
  -1  -3 -12    2.00    1.80 
  -1  -3 -12    1.70    1.50 
  -1  -3 -12    3.80    1.80 
   1  -3  12   -0.10    1.40 
  -1   3 -12    0.90    1.80 
   1   3  12    1.80    2.30 
   1   3  12    5.90    2.30 
  -2  -3 -12    6.00    2.50 
  -2  -3 -12    4.00    2.00 
   2  -3  12    4.10    2.00 
  -2  -3 -12    3.80    2.10 
  -2   3 -12    3.70    2.10 
   2   3  12    5.00    2.20 
   3  -3  12    4.90    1.80 
  -3  -3 -12    6.80    1.90 
   3  -3  12    6.80    2.20 
  -3  -3 -12    4.30    1.60 
  -3   3 -12    3.20    1.50 
   3   3  12    8.50    2.40 
  -5  -4  12    1.60    1.20 
   5  -4 -12    5.00    2.00 
   5   4 -12    4.50    1.90 
   5   4 -12   -0.60    1.20 
   5   4 -12    1.40    1.70 
  -5   4  12    2.50    2.40 
   4  -4 -12    0.30    1.60 
  -4  -4  12    3.40    1.50 
  -4   4  12    3.50    2.30 
   4   4 -12    6.00    2.90 
   4   4 -12   -0.30    1.80 
   4   4 -12    2.40    1.90 
   4   4 -12    1.30    1.70 
  -3  -4  12   45.60    4.70 
   3  -4 -12   35.50    5.30 
   3   4 -12   32.90    6.30 
   3   4 -12   38.10    5.30 
   3   4 -12   26.60    4.80 
  -2  -4  12   53.29    7.60 
   2  -4 -12   42.40    7.00 
  -2  -4  12   64.49    5.90 
   2   4 -12   50.59    6.20 
   2   4 -12   57.69    7.80 
   2   4 -12   60.69    6.60 
   1  -4 -12   28.10    4.70 
  -1  -4  12   30.30    3.90 
  -1  -4  12   24.20    4.50 
   1  -4 -12   28.00    4.20 
   1   4 -12   18.40    4.20 
   1   4 -12   25.60    4.60 
  -1   4  12   16.10    4.80 
   1   4 -12   19.40    4.60 
   0  -4  12    4.50    2.60 
   0  -4 -12    6.30    1.90 
   0  -4 -12    9.10    3.50 
   0  -4  12    7.30    1.50 
   0   4 -12    6.90    2.50 
   0   4 -12    4.90    2.50 
   0   4  12    4.20    3.00 
  -1  -4 -12    3.60    2.10 
  -1  -4 -12    5.30    2.00 
   1  -4  12    8.10    2.60 
   1   4  12    4.20    2.40 
   1   4  12    3.50    2.50 
  -1   4 -12    2.30    1.90 
  -2  -4 -12    6.00    2.20 
  -2  -4 -12   11.80    3.10 
   2  -4  12    6.50    2.20 
   2   4  12    9.80    2.20 
  -2   4 -12    7.10    2.10 
   2   4  12   11.60    3.20 
  -3  -4 -12    0.20    0.90 
   3  -4  12    1.80    1.10 
   3   4  12    0.60    1.00 
   3   4  12    2.60    1.20 
   5   5 -12    2.20    1.40 
   5   5 -12    3.30    1.70 
   5   5 -12    1.20    1.40 
  -4  -5  12    5.20    1.50 
   4  -5 -12    2.40    2.00 
   4   5 -12    0.40    1.50 
   4   5 -12    3.10    2.00 
   4   5 -12    1.70    1.50 
  -3  -5  12    6.90    1.90 
   3  -5 -12    4.50    4.10 
   3   5 -12    2.30    2.10 
   3   5 -12    5.50    2.10 
   3   5 -12    3.90    2.80 
   2  -5 -12   23.40    4.20 
   2   5 -12   20.60    4.40 
   2   5 -12   17.00    3.40 
  -1  -5  12   11.70    3.40 
   1  -5 -12    9.80    2.20 
  -1  -5  12   14.80    2.70 
  -1   5  12    8.80    2.80 
   1   5 -12   10.20    3.80 
   1   5 -12    5.20    2.50 
   0  -5  12    0.30    1.00 
   0  -5  12    1.60    1.70 
   0  -5 -12    1.00    1.40 
   0  -5 -12    0.80    1.30 
   0   5 -12    1.30    2.30 
   0   5  12    0.40    1.80 
   0   5  12   -1.70    2.20 
   0   5 -12    1.30    1.90 
  -1  -5 -12    1.10    1.40 
  -1  -5 -12    0.40    1.30 
   1  -5  12   -0.50    1.40 
   1   5  12   -0.90    2.00 
  -1   5 -12    1.30    2.10 
   1   5  12   -0.20    2.50 
  -2  -5 -12    3.90    1.50 
   2  -5  12    1.10    1.30 
   2   5  12    2.40    1.40 
   4   6 -12    3.00    1.30 
   4   6 -12    0.80    1.40 
   3  -6 -12    8.90    2.40 
   3   6 -12   13.30    2.60 
   3   6 -12    9.80    2.40 
   3   6 -12    7.90    2.20 
  -2  -6  12    2.00    1.30 
   2  -6 -12    3.90    2.30 
   2  -6 -12    0.40    1.70 
   2   6 -12   -1.00    1.40 
   2   6 -12   -0.70    1.20 
   2   6 -12    2.80    2.10 
  -1  -6  12    6.10    2.10 
  -1  -6  12    3.00    1.80 
   1  -6 -12    0.70    1.80 
   1  -6 -12    4.30    1.30 
   1   6 -12    4.20    1.90 
   1   6 -12   -0.20    1.90 
   1   6 -12    2.70    1.60 
  -1   6  12    7.30    2.40 
  -1   6  12    2.50    2.00 
   0  -6  12    9.40    1.50 
   0  -6 -12   11.50    2.00 
   0  -6 -12    7.50    2.10 
   0  -6  12    4.90    2.10 
   0   6  12    4.10    2.10 
   0   6 -12    8.00    2.80 
   0   6  12   12.20    2.90 
  -1  -6 -12    7.40    1.60 
   1  -6  12    4.80    1.90 
  -1  -6 -12    5.40    1.80 
   1   6  12    3.20    2.00 
  -1   6 -12    5.00    1.80 
   1   6  12    1.70    1.90 
   1   6  12    3.30    1.50 
  -3  -7  12    9.10    1.60 
   3   7 -12    5.70    1.50 
   3   7 -12    8.20    1.70 
  -2  -7  12    0.80    1.00 
   2   7 -12    3.50    1.30 
   2   7 -12    1.10    1.10 
   1  -7 -12    3.40    2.10 
  -1   7  12    8.30    2.10 
   1   7 -12    2.60    1.70 
   1   7 -12    5.10    1.60 
   0  -7 -12    3.30    3.30 
   0  -7  12    0.80    1.10 
   0   7  12    0.60    1.00 
   0   7  12   -1.10    1.70 
   0   7 -12    0.30    1.00 
   5   0 -13    3.40    1.50 
  -5   0  13    4.30    1.70 
   5   0 -13    1.50    1.20 
   4   0 -13   20.60    4.10 
   4   0 -13   28.10    5.00 
   4   0 -13   24.50    4.70 
   3   0 -13    6.80    3.10 
   3   0 -13    6.50    2.60 
   2   0 -13   17.00    4.60 
   2   0 -13   20.70    5.90 
   1   0 -13   22.10    5.10 
  -1   0  13   12.80    3.20 
   0   0  13   -0.40    2.20 
   0   0 -13    1.20    1.90 
   0   0 -13    1.30    1.80 
  -1   0 -13    1.70    1.70 
   1   0  13    3.00    2.00 
  -1   0 -13    1.30    1.70 
  -2   0 -13    2.00    1.50 
  -2   0 -13    2.10    1.90 
   3   0  13    2.50    1.80 
  -3   0 -13    0.20    1.00 
   5  -1 -13    1.50    1.60 
   5  -1 -13   -2.40    2.00 
  -5  -1  13   -0.40    1.10 
   5   1 -13    1.20    1.50 
   5   1 -13    1.10    1.50 
  -5   1  13   -0.60    1.40 
   5   1 -13    3.20    1.50 
   4  -1 -13    9.70    3.80 
   4  -1 -13   10.70    3.20 
   4   1 -13   11.50    2.90 
   4   1 -13   13.80    3.50 
   3  -1 -13   16.90    4.30 
   3  -1 -13   22.20    4.50 
   3   1 -13   17.10    4.00 
   3   1 -13   22.60    4.00 
  -2  -1  13    2.30    1.40 
   2  -1 -13    4.80    2.80 
   2  -1 -13    0.00    1.80 
   2   1 -13    4.80    2.60 
   2   1 -13    3.50    2.60 
  -1  -1  13    5.40    2.60 
   1  -1 -13    9.40    3.40 
   1  -1 -13    8.10    3.00 
   1   1 -13    1.60    1.60 
   1   1 -13    3.60    2.60 
   0  -1 -13   26.70    5.10 
   0  -1  13   22.80    5.40 
   0  -1 -13   29.40    4.80 
   0   1 -13   24.60    5.30 
   0   1  13   29.00    5.40 
   1  -1  13    0.40    1.70 
  -1  -1 -13    1.90    1.50 
  -1  -1 -13    2.80    1.80 
  -1   1 -13    3.50    2.70 
  -1   1 -13    2.30    1.80 
   1   1  13    3.20    1.80 
   2  -1  13    0.90    1.40 
  -2  -1 -13    3.40    1.30 
  -2  -1 -13    3.90    2.00 
  -2   1 -13    2.70    2.00 
   2   1  13    3.00    1.80 
   2   1  13    3.00    2.00 
   3  -1  13    6.10    1.70 
  -3   1 -13    5.80    1.40 
   3   1  13    3.80    1.80 
   5  -2 -13    2.80    1.60 
  -5  -2  13    4.00    1.30 
   5   2 -13    2.20    1.70 
  -5   2  13    1.80    1.70 
   5   2 -13    4.50    1.70 
   5   2 -13    1.20    1.00 
   5   2 -13   -1.40    1.40 
  -4  -2  13    5.80    1.70 
   4  -2 -13   -0.90    1.40 
   4   2 -13    2.20    2.20 
   4   2 -13    1.00    1.90 
   4   2 -13    5.20    2.10 
  -4   2  13    3.00    2.10 
   4   2 -13    2.70    1.80 
   3  -2 -13   18.70    4.20 
  -3  -2  13   27.50    3.60 
   3  -2 -13   31.70    5.30 
   3   2 -13   19.60    3.90 
   3   2 -13   23.20    4.90 
   3   2 -13   19.60    4.90 
   2  -2 -13    0.60    1.70 
   2  -2 -13    3.00    2.50 
  -2  -2  13    0.50    1.30 
   2   2 -13   -3.80    1.90 
   2   2 -13    2.80    2.50 
   1  -2 -13   29.00    5.20 
   1  -2 -13   17.60    3.90 
  -1  -2  13   18.10    4.10 
  -1   2  13   20.50    4.90 
   1   2 -13   16.40    4.00 
   1   2 -13   10.30    3.50 
   0  -2 -13    6.60    2.40 
   0  -2 -13    7.50    2.80 
   0  -2  13   10.70    3.10 
   0   2 -13    8.30    3.30 
   0   2  13    3.50    2.30 
   0   2 -13    3.00    2.90 
  -1  -2 -13    3.30    1.90 
  -1  -2 -13    2.80    1.70 
  -1   2 -13    3.20    1.80 
   1   2  13    3.30    1.90 
   2  -2  13    6.40    2.10 
  -2  -2 -13    7.60    2.20 
  -2  -2 -13    5.30    2.00 
   2   2  13    9.40    3.00 
  -2   2 -13    8.00    2.60 
   5  -3 -13    2.20    1.70 
  -5  -3  13    3.90    1.30 
   5   3 -13   -1.20    1.30 
   5   3 -13    3.30    1.20 
   5   3 -13    0.10    1.10 
   5   3 -13    1.30    1.30 
  -5   3  13    4.10    1.80 
   4  -3 -13    8.60    2.80 
   4   3 -13    5.10    2.10 
   4   3 -13   10.20    2.70 
   4   3 -13    9.80    2.70 
   4   3 -13   18.40    3.60 
   3  -3 -13    3.30    2.30 
  -3  -3  13    7.80    1.80 
   3   3 -13    4.20    2.20 
   3   3 -13    4.80    2.50 
   3   3 -13   12.80    4.40 
   3   3 -13    2.30    2.00 
   2  -3 -13   10.70    3.30 
   2   3 -13   10.20    3.60 
   2   3 -13    6.40    4.20 
   2   3 -13   15.20    4.10 
  -1  -3  13    3.30    1.80 
   1  -3 -13    1.00    1.80 
   1  -3 -13    5.30    2.40 
  -1  -3  13    6.10    1.50 
   1   3 -13    3.80    2.60 
  -1   3  13    7.50    2.70 
   0  -3 -13    4.90    2.40 
   0  -3  13    8.10    2.30 
   0  -3 -13    8.80    2.80 
   0   3 -13   11.80    3.00 
  -1  -3 -13   -1.50    1.00 
  -1  -3 -13   -1.00    1.50 
   1  -3  13    0.10    1.30 
  -1   3 -13   -1.50    1.40 
   1   3  13    0.40    1.80 
  -2  -3 -13    0.60    1.20 
   2  -3  13    2.50    1.30 
  -2  -3 -13    2.30    1.50 
   2   3  13    0.70    1.40 
   2   3  13    0.90    2.50 
  -2   3 -13    2.80    1.10 
   5  -4 -13   -0.50    1.70 
  -5  -4  13    2.00    1.00 
   5   4 -13    2.00    1.10 
   5   4 -13    1.80    1.20 
   5   4 -13   -0.60    1.10 
   4  -4 -13    3.90    2.10 
   4   4 -13    2.20    1.30 
   4   4 -13    4.30    1.90 
   4   4 -13    5.50    2.20 
   3  -4 -13    4.40    2.20 
  -3  -4  13    2.80    1.40 
   3   4 -13    4.40    1.80 
   3   4 -13    4.30    1.80 
   3   4 -13    3.50    2.20 
   2  -4 -13    0.50    1.50 
   2   4 -13    5.70    2.60 
   2   4 -13    2.00    2.30 
   2   4 -13    1.10    2.30 
  -1  -4  13    1.40    1.70 
  -1  -4  13    4.40    1.20 
   1  -4 -13    3.40    2.20 
   1   4 -13    3.90    2.00 
  -1   4  13    3.50    2.20 
   1   4 -13   -0.60    2.30 
   0  -4  13    0.10    1.30 
   0  -4 -13    3.30    1.70 
   0   4 -13    0.80    2.00 
   0   4  13    0.30    2.00 
   1  -4  13   -0.80    1.10 
  -1  -4 -13    1.70    1.20 
   1   4  13    2.00    1.70 
  -1   4 -13    0.70    1.50 
  -2  -4 -13   -0.30    1.00 
   2  -4  13    1.80    1.70 
  -2   4 -13    1.20    1.40 
   2   4  13    0.80    1.40 
   4  -5 -13    0.70    1.70 
  -4  -5  13    3.00    1.20 
   4   5 -13    1.00    1.00 
   4   5 -13    2.30    1.70 
   4   5 -13    0.90    1.90 
   3  -5 -13    2.80    1.60 
   3   5 -13    5.40    1.90 
   3   5 -13    2.50    1.50 
   3   5 -13    6.60    2.30 
  -2  -5  13   -0.60    1.10 
   2  -5 -13   -1.10    1.30 
   2   5 -13    1.10    1.50 
   2   5 -13    0.10    1.40 
   2   5 -13    1.30    1.40 
  -1  -5  13   -0.20    2.00 
  -1  -5  13    0.60    1.00 
   1  -5 -13    0.50    1.30 
   1   5 -13    1.10    1.80 
   1   5 -13   -0.50    1.50 
  -1   5  13   -1.60    1.60 
   0  -5 -13    1.60    1.10 
   0  -5  13    2.50    1.10 
   0   5 -13   -0.40    1.40 
   0   5  13   -0.50    1.30 
  -1  -5 -13    2.30    1.30 
   1  -5  13    0.80    1.20 
   1   5  13    2.10    1.20 
  -1   5 -13    4.80    2.30 
   3   6 -13   -1.00    1.30 
   3   6 -13    0.50    1.20 
   3   6 -13    0.50    1.00 
   2  -6 -13    1.00    1.40 
  -2  -6  13    1.60    1.00 
   2   6 -13    1.10    1.20 
   2   6 -13    3.40    1.70 
   2   6 -13    3.10    1.80 
  -1  -6  13    0.10    1.40 
   1  -6 -13    1.90    1.20 
  -1   6  13    3.60    2.40 
   1   6 -13    1.90    2.40 
   1   6 -13    1.40    1.40 
   0  -6  13    0.80    1.10 
   0  -6 -13    0.20    1.10 
   0   6  13   -0.20    1.10 
   5   0 -14   -0.20    1.70 
  -5   0  14    0.40    1.70 
   5   0 -14    0.60    1.00 
   4   0 -14   -0.70    1.00 
  -4   0  14    0.80    1.80 
   3   0 -14    0.70    1.70 
   3   0 -14    2.40    2.00 
   2   0 -14    5.00    2.40 
   2   0 -14    5.10    2.20 
   1   0 -14    0.70    1.50 
   1   0 -14   -0.20    1.30 
   0   0  14   -0.10    1.90 
   0   0 -14    0.60    1.80 
   0   0 -14   -1.10    1.40 
  -1   0 -14   10.40    2.90 
   1   0  14    6.80    2.30 
  -1   0 -14   10.30    2.40 
  -2   0 -14    1.40    0.90 
   2   0  14    2.20    1.20 
   5  -1 -14    0.20    1.20 
  -5   1  14   -0.60    3.10 
   5   1 -14   -0.60    0.80 
   5   1 -14    0.00    1.30 
  -4  -1  14    0.00    1.70 
   4  -1 -14   -0.70    1.20 
   4  -1 -14   -1.80    2.00 
   4   1 -14   -0.60    1.20 
   4   1 -14    0.10    1.20 
   3  -1 -14    3.90    2.00 
   3  -1 -14    0.30    1.20 
   3   1 -14    0.80    1.60 
   3   1 -14    0.40    1.50 
   2  -1 -14   -1.80    1.30 
   2  -1 -14    0.10    2.00 
   2   1 -14    1.70    1.90 
   2   1 -14    0.60    2.00 
   1  -1 -14    6.90    2.40 
   1  -1 -14    5.90    2.30 
   1   1 -14    7.50    2.70 
  -1   1  14    7.20    2.50 
   1   1 -14    6.10    2.50 
   0  -1  14    5.80    2.10 
   0  -1 -14   13.50    3.20 
   0  -1 -14    7.90    2.90 
   0   1 -14    6.90    2.80 
   0   1 -14   12.10    3.40 
   0   1  14    9.80    2.70 
   1  -1  14    0.90    1.30 
  -1  -1 -14    7.50    2.30 
  -1  -1 -14    4.40    1.80 
   1   1  14    4.60    1.80 
  -1   1 -14    3.30    1.60 
   2  -1  14    4.00    1.90 
  -2  -1 -14    2.40    1.10 
  -2  -1 -14    1.60    1.40 
   2   1  14    4.80    2.30 
   5  -2 -14    5.00    1.60 
  -5  -2  14    3.30    1.60 
   5   2 -14    2.90    1.30 
   5   2 -14    2.80    1.20 
   4  -2 -14   -0.30    1.00 
  -4  -2  14   -1.00    0.90 
   4   2 -14    0.80    1.70 
   4   2 -14    0.90    1.30 
   4   2 -14   -0.70    1.20 
   3  -2 -14    2.50    1.40 
   3  -2 -14    5.60    3.00 
   3   2 -14    1.60    1.90 
   3   2 -14    2.30    1.60 
   3   2 -14    2.10    2.80 
   2  -2 -14    3.70    2.00 
   2  -2 -14    2.10    1.80 
   2   2 -14    4.00    2.30 
   2   2 -14    4.30    2.20 
  -1  -2  14   -0.30    2.00 
   1  -2 -14   -0.90    1.70 
   1  -2 -14    0.80    1.40 
  -1   2  14    1.50    2.40 
   1   2 -14    3.80    2.40 
   1   2 -14    0.50    1.50 
   0  -2  14    1.10    1.40 
   0  -2 -14    6.10    2.00 
   0   2 -14    3.30    2.50 
   0   2  14    3.30    1.90 
  -1  -2 -14    0.50    1.50 
   1  -2  14    2.30    1.70 
  -1  -2 -14    2.20    1.50 
  -1   2 -14    1.20    1.50 
   1   2  14    2.90    1.60 
   4  -3 -14   10.40    2.40 
   4   3 -14    5.60    2.90 
   4   3 -14    4.10    1.60 
   4   3 -14    5.00    1.80 
  -3  -3  14    1.90    1.20 
   3  -3 -14    1.70    1.90 
   3   3 -14    0.40    1.60 
   3   3 -14   -1.50    2.30 
   3   3 -14    3.10    2.10 
   2  -3 -14    2.60    2.40 
   2   3 -14    3.60    1.70 
   1  -3 -14    0.50    1.50 
  -1  -3  14    2.70    1.90 
   1   3 -14   -2.60    2.60 
  -1   3  14    1.60    2.20 
   0  -3 -14    2.30    2.00 
   0  -3 -14    3.60    2.10 
   0  -3  14    0.80    1.20 
   0   3 -14    2.10    1.50 
   0   3  14    1.90    1.50 
  -1  -3 -14    8.70    2.30 
  -1  -3 -14    9.40    2.60 
   1  -3  14    5.60    1.90 
   1   3  14   11.20    2.70 
  -1   3 -14    8.90    2.10 
   4  -4 -14    1.40    1.30 
   4   4 -14   -2.30    1.50 
   4   4 -14    0.70    0.90 
   3  -4 -14    4.50    1.50 
   3   4 -14    6.00    1.80 
   3   4 -14    2.80    1.20 
   2  -4 -14    2.10    1.80 
  -2  -4  14    3.00    1.10 
   2   4 -14    0.40    1.30 
   1  -4 -14    0.10    1.20 
  -1   4  14    3.50    1.90 
   1   4 -14    5.70    2.10 
   0  -4  14    4.20    1.30 
   0  -4 -14    3.20    1.90 
   0   4  14    2.60    1.60 
   0   4 -14    3.10    1.30 
  -2  -5  14    3.40    1.00 
   2  -5 -14    4.00    1.40 
   2   5 -14    4.50    1.20 
   1  -5 -14    0.90    1.10 
   4   0 -15   -1.60    0.90 
   4   0 -15    1.90    1.60 
   3   0 -15    3.80    1.40 
   3   0 -15    2.70    1.70 
   2   0 -15   -0.10    1.30 
   2   0 -15    1.50    1.40 
   1   0 -15   -1.10    1.30 
   0   0 -15   -1.00    1.00 
   0   0  15    3.30    1.40 
   0   0 -15   -0.30    1.40 
   4  -1 -15    1.50    1.00 
   4   1 -15    4.40    1.70 
   4   1 -15    2.20    1.20 
   3  -1 -15   -0.90    0.70 
   3  -1 -15    0.40    1.50 
   3   1 -15    1.40    1.40 
   3   1 -15    1.00    1.30 
   2  -1 -15    2.70    1.80 
   2  -1 -15    2.50    1.40 
   2   1 -15    4.00    1.70 
   2   1 -15    4.40    1.30 
   1  -1 -15    2.30    1.60 
   1  -1 -15    3.50    1.60 
   1   1 -15    1.00    1.90 
   1   1 -15    3.30    1.60 
   0  -1 -15   -0.20    1.00 
   0  -1 -15   -0.10    1.50 
   0  -1  15   -0.90    1.30 
   0   1 -15    1.10    1.10 
   0   1  15    1.40    1.10 
   3  -2 -15    2.60    1.30 
   3   2 -15    1.00    1.70 
   3   2 -15    3.30    1.50 
   2  -2 -15    1.90    1.40 
   2   2 -15    4.30    3.10 
   2   2 -15    9.30    2.30 
   1  -2 -15    1.70    1.60 
   1  -2 -15    5.10    1.80 
   1   2 -15    7.10    1.90 
   0  -2  15    5.40    1.70 
   0  -2 -15    6.70    1.80 
   0  -2 -15    3.10    1.50 
   0   2 -15    3.70    1.60 
   0   2  15    4.40    1.80 
   3  -3 -15    0.60    1.10 
   3   3 -15    0.10    1.00 
   2  -3 -15    0.20    1.00 
   2   3 -15   -0.50    1.30 
   1  -3 -15    4.10    1.50 
   1   3 -15    2.80    1.50 
   0   0   0    0.00    0.00 
  
_computing_structure_solution     'SHELXT 2014/5 (Sheldrick, 2014)' 
;
_shelx_hkl_checksum              3626
loop_
_space_group_symop_operation_xyz
'x, y, z'
'-x, y+1/2, -z'
loop_
_atom_site_label
_atom_site_type_symbol
_atom_site_fract_x
_atom_site_fract_y
_atom_site_fract_z
_atom_site_U_iso_or_equiv
_atom_site_adp_type
_atom_site_occupancy
_atom_site_site_symmetry_order
_atom_site_calc_flag
_atom_site_refinement_flags_posn
_atom_site_refinement_flags_adp
F1 F 0.4709(7) 0.8683(4) 0.8318(3) 0.1283(13) Uani 1 1 d . .
F2 F 0.2305(6) 0.7205(6) 0.8372(3) 0.1345(15) Uani 1 1 d . .
F3 F 0.5407(8) 0.6740(6) 0.9175(3) 0.1559(18) Uani 1 1 d . .
O1 O 0.0486(4) 0.4559(3) 0.5067(2) 0.0719(8) Uani 1 1 d . .
O2 O 0.3658(4) 0.3915(3) 0.5863(3) 0.0866(10) Uani 1 1 d . .
H2 H 0.3117 0.3125 0.5847 0.130 Uiso 1 1 calc R U
O3 O 0.3169(4) 0.5691(3) 0.3279(2) 0.0707(8) Uani 1 1 d . .
O4 O 0.0973(4) 0.7566(3) 0.2773(2) 0.0680(7) Uani 1 1 d . .
N1 N 0.2083(4) 0.7113(3) 0.4463(2) 0.0569(7) Uani 1 1 d . .
C1 C 0.3212(5) 0.6314(4) 0.5346(3) 0.0536(8) Uani 1 1 d . .
H1A H 0.4643 0.6206 0.5269 0.064 Uiso 1 1 calc R U
C2 C 0.2295(5) 0.4843(4) 0.5398(3) 0.0574(8) Uani 1 1 d . .
C3 C 0.3220(6) 0.7164(4) 0.6352(3) 0.0645(9) Uani 1 1 d . .
H3A H 0.3601 0.8146 0.6245 0.077 Uiso 1 1 calc R U
H3B H 0.1830 0.7172 0.6478 0.077 Uiso 1 1 calc R U
C4 C 0.4684(7) 0.6580(5) 0.7322(3) 0.0727(10) Uani 1 1 d . .
H4 H 0.4404 0.5555 0.7367 0.087 Uiso 1 1 calc R U
C5 C 0.6947(8) 0.6751(8) 0.7270(5) 0.112(2) Uani 1 1 d . .
H5A H 0.7279 0.6083 0.6772 0.169 Uiso 1 1 calc R U
H5B H 0.7808 0.6571 0.7951 0.169 Uiso 1 1 calc R U
H5C H 0.7180 0.7707 0.7054 0.169 Uiso 1 1 calc R U
C6 C 0.4256(9) 0.7289(7) 0.8298(4) 0.0957(15) Uani 1 1 d . .
C7 C 0.2151(5) 0.6700(4) 0.3472(3) 0.0573(8) Uani 1 1 d . .
C8 C 0.0629(7) 0.7299(6) 0.1635(3) 0.0785(11) Uani 1 1 d . .
C9 C -0.0898(11) 0.8454(7) 0.1193(4) 0.1073(18) Uani 1 1 d . .
H9A H -0.2102 0.8365 0.1486 0.161 Uiso 1 1 calc R U
H9B H -0.1289 0.8359 0.0442 0.161 Uiso 1 1 calc R U
H9C H -0.0276 0.9374 0.1369 0.161 Uiso 1 1 calc R U
C10 C -0.0312(12) 0.5844(7) 0.1381(5) 0.115(2) Uani 1 1 d . .
H10A H 0.0723 0.5124 0.1605 0.172 Uiso 1 1 calc R U
H10B H -0.0839 0.5766 0.0637 0.172 Uiso 1 1 calc R U
H10C H -0.1420 0.5712 0.1740 0.172 Uiso 1 1 calc R U
C11 C 0.2665(11) 0.7494(11) 0.1289(5) 0.128(2) Uani 1 1 d . .
H11A H 0.3328 0.8354 0.1593 0.192 Uiso 1 1 calc R U
H11B H 0.2402 0.7559 0.0536 0.192 Uiso 1 1 calc R U
H11C H 0.3549 0.6690 0.1520 0.192 Uiso 1 1 calc R U
O5 O 0.2676(5) 0.1319(3) 0.6087(3) 0.0907(11) Uani 1 1 d G .
H5D H 0.3791 0.0856 0.6302 0.136 Uiso 1 1 d G U
H5E H 0.1725 0.0748 0.5795 0.136 Uiso 1 1 d G U
H1 H 0.117(8) 0.788(6) 0.453(4) 0.079(13) Uiso 1 1 d . .
loop_
_atom_site_aniso_label
_atom_site_aniso_U_11
_atom_site_aniso_U_22
_atom_site_aniso_U_33
_atom_site_aniso_U_23
_atom_site_aniso_U_13
_atom_site_aniso_U_12
F1 0.162(3) 0.097(2) 0.120(3) -0.037(2) 0.018(2) -0.017(2)
F2 0.129(3) 0.190(4) 0.090(2) -0.022(2) 0.0365(18) -0.028(3)
F3 0.191(4) 0.178(4) 0.0741(19) 0.000(2) -0.025(2) 0.018(3)
O1 0.0509(14) 0.0656(15) 0.0930(18) 0.0150(14) 0.0018(12) -0.0059(12)
O2 0.0606(15) 0.0540(15) 0.130(3) 0.0046(16) -0.0137(15) 0.0070(12)
O3 0.0563(14) 0.0737(17) 0.0814(18) -0.0152(13) 0.0136(12) 0.0057(13)
O4 0.0673(14) 0.0740(17) 0.0609(14) 0.0001(12) 0.0097(11) 0.0057(12)
N1 0.0510(14) 0.0579(16) 0.0603(16) -0.0004(13) 0.0089(11) 0.0011(13)
C1 0.0413(14) 0.058(2) 0.0600(19) -0.0009(14) 0.0075(13) 0.0022(13)
C2 0.0505(17) 0.0543(19) 0.064(2) -0.0018(15) 0.0046(14) 0.0035(15)
C3 0.0634(19) 0.0559(18) 0.069(2) -0.0065(16) 0.0029(15) 0.0053(17)
C4 0.081(2) 0.060(2) 0.067(2) 0.0002(17) -0.0060(17) 0.0015(19)
C5 0.070(3) 0.129(5) 0.122(4) -0.010(4) -0.015(3) 0.015(3)
C6 0.101(3) 0.102(4) 0.072(3) -0.008(3) -0.007(2) -0.002(3)
C7 0.0435(15) 0.061(2) 0.066(2) -0.0022(16) 0.0080(14) -0.0054(15)
C8 0.086(3) 0.088(3) 0.057(2) -0.003(2) 0.0041(18) -0.006(2)
C9 0.127(4) 0.099(4) 0.080(3) 0.010(3) -0.012(3) 0.002(3)
C10 0.135(5) 0.092(4) 0.098(4) -0.018(3) -0.019(3) -0.023(3)
C11 0.129(5) 0.178(7) 0.089(4) 0.006(4) 0.052(3) -0.013(5)
O5 0.0533(14) 0.0592(16) 0.150(3) 0.0004(18) 0.0016(16) 0.0023(12)
loop_
_atom_type_symbol
_atom_type_description
_atom_type_scat_dispersion_real
_atom_type_scat_dispersion_imag
_atom_type_scat_source
C C 0.0181 0.0091 'International Tables Vol C Tables 4.2.6.8 and 6.1.1.4'
H H 0.0000 0.0000 'International Tables Vol C Tables 4.2.6.8 and 6.1.1.4'
F F 0.0727 0.0534 'International Tables Vol C Tables 4.2.6.8 and 6.1.1.4'
N N 0.0311 0.0180 'International Tables Vol C Tables 4.2.6.8 and 6.1.1.4'
O O 0.0492 0.0322 'International Tables Vol C Tables 4.2.6.8 and 6.1.1.4'
loop_
_geom_angle_atom_site_label_1
_geom_angle_atom_site_label_2
_geom_angle_atom_site_label_3
_geom_angle
C2 O2 H2 109.5
C7 O4 C8 121.6(3)
C7 N1 C1 119.6(3)
C7 N1 H1 117(3)
C1 N1 H1 123(3)
N1 C1 C2 111.4(3)
N1 C1 C3 108.6(3)
C2 C1 C3 111.2(3)
N1 C1 H1A 108.5
C2 C1 H1A 108.5
C3 C1 H1A 108.5
O1 C2 O2 123.5(3)
O1 C2 C1 124.1(3)
O2 C2 C1 112.5(3)
C4 C3 C1 114.1(3)
C4 C3 H3A 108.7
C1 C3 H3A 108.7
C4 C3 H3B 108.7
C1 C3 H3B 108.7
H3A C3 H3B 107.6
C6 C4 C3 109.8(4)
C6 C4 C5 110.9(4)
C3 C4 C5 112.5(4)
C6 C4 H4 107.8
C3 C4 H4 107.8
C5 C4 H4 107.8
C4 C5 H5A 109.5
C4 C5 H5B 109.5
H5A C5 H5B 109.5
C4 C5 H5C 109.5
H5A C5 H5C 109.5
H5B C5 H5C 109.5
F2 C6 F3 107.6(5)
F2 C6 F1 106.0(6)
F3 C6 F1 105.9(5)
F2 C6 C4 113.6(4)
F3 C6 C4 112.0(5)
F1 C6 C4 111.2(5)
O3 C7 O4 126.7(3)
O3 C7 N1 123.5(3)
O4 C7 N1 109.8(3)
O4 C8 C10 109.9(4)
O4 C8 C9 102.0(4)
C10 C8 C9 110.7(4)
O4 C8 C11 108.9(4)
C10 C8 C11 113.2(6)
C9 C8 C11 111.5(6)
C8 C9 H9A 109.5
C8 C9 H9B 109.5
H9A C9 H9B 109.5
C8 C9 H9C 109.5
H9A C9 H9C 109.5
H9B C9 H9C 109.5
C8 C10 H10A 109.5
C8 C10 H10B 109.5
H10A C10 H10B 109.5
C8 C10 H10C 109.5
H10A C10 H10C 109.5
H10B C10 H10C 109.5
C8 C11 H11A 109.5
C8 C11 H11B 109.5
H11A C11 H11B 109.5
C8 C11 H11C 109.5
H11A C11 H11C 109.5
H11B C11 H11C 109.5
H5D O5 H5E 109.5
loop_
_geom_bond_atom_site_label_1
_geom_bond_atom_site_label_2
_geom_bond_distance
F1 C6 1.337(8)
F2 C6 1.319(7)
F3 C6 1.332(7)
O1 C2 1.212(4)
O2 C2 1.303(4)
O2 H2 0.8200
O3 C7 1.217(4)
O4 C7 1.336(4)
O4 C8 1.471(5)
N1 C7 1.357(5)
N1 C1 1.439(4)
N1 H1 0.95(5)
C1 C2 1.511(5)
C1 C3 1.531(5)
C1 H1A 0.9800
C3 C4 1.518(5)
C3 H3A 0.9700
C3 H3B 0.9700
C4 C6 1.514(7)
C4 C5 1.524(7)
C4 H4 0.9800
C5 H5A 0.9600
C5 H5B 0.9600
C5 H5C 0.9600
C8 C10 1.504(8)
C8 C9 1.506(8)
C8 C11 1.523(7)
C9 H9A 0.9600
C9 H9B 0.9600
C9 H9C 0.9600
C10 H10A 0.9600
C10 H10B 0.9600
C10 H10C 0.9600
C11 H11A 0.9600
C11 H11B 0.9600
C11 H11C 0.9600
O5 H5D 0.8500
O5 H5E 0.8501
loop_
_geom_torsion_atom_site_label_1
_geom_torsion_atom_site_label_2
_geom_torsion_atom_site_label_3
_geom_torsion_atom_site_label_4
_geom_torsion
C7 N1 C1 C2 -68.2(4)
C7 N1 C1 C3 169.0(3)
N1 C1 C2 O1 -28.6(5)
C3 C1 C2 O1 92.6(4)
N1 C1 C2 O2 152.9(3)
C3 C1 C2 O2 -85.8(4)
N1 C1 C3 C4 -169.3(3)
C2 C1 C3 C4 67.8(4)
C1 C3 C4 C6 -168.2(4)
C1 C3 C4 C5 67.8(5)
C3 C4 C6 F2 53.5(6)
C5 C4 C6 F2 178.4(6)
C3 C4 C6 F3 175.7(5)
C5 C4 C6 F3 -59.4(6)
C3 C4 C6 F1 -66.0(5)
C5 C4 C6 F1 58.9(6)
C8 O4 C7 O3 5.6(5)
C8 O4 C7 N1 -175.1(3)
C1 N1 C7 O3 -1.8(5)
C1 N1 C7 O4 178.9(3)
C7 O4 C8 C10 58.0(5)
C7 O4 C8 C9 175.5(4)
C7 O4 C8 C11 -66.6(6)
