#------------------------------------------------------------------------------
#$Date: 2019-01-16 01:03:25 +0200 (Wed, 16 Jan 2019) $
#$Revision: 213084 $
#$URL: file:///home/coder/svn-repositories/cod/cif/7/12/28/7122841.cif $
#------------------------------------------------------------------------------
#
# This file is available in the Crystallography Open Database (COD),
# http://www.crystallography.net/
#
# All data on this site have been placed in the public domain by the
# contributors.
#
data_7122841
loop_
_publ_author_name
'Gauld, Richard M.'
'Kennedy, Alan R.'
'McLellan, Ross'
'Barker, Jim'
'Reid, Jacqueline'
'Mulvey, Robert E.'
_publ_section_title
;
 Diverse outcomes of CO2 fixation using alkali metal amides including
 formation of a heterobimetallic lithium--sodium carbamato-anhydride via
 lithium--sodium bis-hexamethyldisilazide
;
_journal_name_full               'Chemical Communications'
_journal_paper_doi               10.1039/C8CC08308H
_journal_year                    2019
_chemical_formula_moiety         'C9 H12 Li N O3'
_chemical_formula_sum            'C9 H12 Li N O3'
_chemical_formula_weight         189.14
_chemical_properties_physical
Air-sensitive,Moisture-sensitive,Oxygen-sensitive
_space_group_crystal_system      triclinic
_space_group_IT_number           2
_space_group_name_Hall           '-P 1'
_space_group_name_H-M_alt        'P -1'
_symmetry_Int_Tables_number      2
_symmetry_space_group_name_Hall  '-P 1'
_symmetry_space_group_name_H-M   'P -1'
_atom_sites_solution_primary     direct
_audit_creation_date             2018-06-04
_audit_creation_method
;
Olex2 1.2
(compiled 2018.05.29 svn.r3508 for OlexSys, GUI svn.r5506)
;
_audit_update_record
;
2018-10-12 deposited with the CCDC.
2018-12-26 downloaded from the CCDC.
;
_cell_angle_alpha                84.577(15)
_cell_angle_beta                 87.445(14)
_cell_angle_gamma                76.369(17)
_cell_formula_units_Z            2
_cell_length_a                   5.4312(10)
_cell_length_b                   7.6252(16)
_cell_length_c                   12.092(2)
_cell_measurement_reflns_used    809
_cell_measurement_temperature    153
_cell_measurement_theta_max      29.2934
_cell_measurement_theta_min      3.3532
_cell_volume                     484.37(16)
_computing_cell_refinement
;
CrysAlisPro, Oxford Diffraction Ltd.,
Version 1.171.34.40 (release 27-08-2010 CrysAlis171 .NET)
(compiled Aug 27 2010,11:50:40)
;
_computing_data_collection
;
CrysAlisPro, Oxford Diffraction Ltd.,
Version 1.171.34.40 (release 27-08-2010 CrysAlis171 .NET)
(compiled Aug 27 2010,11:50:40)
;
_computing_data_reduction
;
CrysAlisPro, Oxford Diffraction Ltd.,
Version 1.171.34.40 (release 27-08-2010 CrysAlis171 .NET)
(compiled Aug 27 2010,11:50:40)
;
_computing_molecular_graphics    'Olex2 (Dolomanov et al., 2009)'
_computing_publication_material  'Olex2 (Dolomanov et al., 2009)'
_computing_structure_refinement  'olex2.refine (Bourhis et al., 2015)'
_computing_structure_solution    'SIR2004 (Burla et al.,  2007)'
_diffrn_ambient_temperature      153
_diffrn_detector_area_resol_mean 16.0727
_diffrn_measured_fraction_theta_full 0.9179
_diffrn_measured_fraction_theta_max 0.8932
_diffrn_measurement_details
;
#__ type_ start__ end____ width___ exp.time_
  1 omega  -46.00   49.00   1.0000   80.0000
omega____ theta____ kappa____ phi______ frames
    -      -20.4381   37.0000  120.0000 95

#__ type_ start__ end____ width___ exp.time_
  2 omega  -89.00  -48.00   1.0000   80.0000
omega____ theta____ kappa____ phi______ frames
    -      -20.4381  142.0000   40.0000 41

#__ type_ start__ end____ width___ exp.time_
  3 omega  -72.00  -32.00   1.0000   80.0000
omega____ theta____ kappa____ phi______ frames
    -      -20.4381  179.0000   90.0000 40

#__ type_ start__ end____ width___ exp.time_
  4 omega  -90.00    5.00   1.0000   80.0000
omega____ theta____ kappa____ phi______ frames
    -      -20.4381  -37.0000  -60.0000 95
;
_diffrn_measurement_device_type  'Xcalibur, Eos'
_diffrn_measurement_method       '\w scans'
_diffrn_orient_matrix_UB_11      0.0021963000
_diffrn_orient_matrix_UB_12      0.0306183000
_diffrn_orient_matrix_UB_13      -0.0572018000
_diffrn_orient_matrix_UB_21      0.0379054000
_diffrn_orient_matrix_UB_22      0.0781244000
_diffrn_orient_matrix_UB_23      0.0135042000
_diffrn_orient_matrix_UB_31      0.1289443000
_diffrn_orient_matrix_UB_32      -0.0467956000
_diffrn_orient_matrix_UB_33      -0.0044125000
_diffrn_radiation_monochromator  graphite
_diffrn_radiation_type           'Mo K\a'
_diffrn_radiation_wavelength     0.71073
_diffrn_reflns_av_R_equivalents  0.0239
_diffrn_reflns_av_unetI/netI     0.0749
_diffrn_reflns_limit_h_max       7
_diffrn_reflns_limit_h_min       -7
_diffrn_reflns_limit_k_max       10
_diffrn_reflns_limit_k_min       -8
_diffrn_reflns_limit_l_max       16
_diffrn_reflns_limit_l_min       -8
_diffrn_reflns_number            2777
_diffrn_reflns_theta_full        25.0000
_diffrn_reflns_theta_max         27.00
_diffrn_reflns_theta_min         3.36
_diffrn_source                   'sealed tube'
_exptl_absorpt_coefficient_mu    0.095
_exptl_absorpt_correction_T_max  1.00000
_exptl_absorpt_correction_T_min  0.47084
_exptl_absorpt_correction_type   multi-scan
_exptl_absorpt_process_details
;
CrysAlisPro, Oxford Diffraction Ltd.,
Version 1.171.34.40 (release 27-08-2010 CrysAlis171 .NET)
(compiled Aug 27 2010,11:50:40)
Empirical absorption correction using spherical harmonics,
 implemented in SCALE3 ABSPACK scaling algorithm.
;
_exptl_crystal_colour            colourless
_exptl_crystal_colour_primary    colourless
_exptl_crystal_density_diffrn    1.2968
_exptl_crystal_description       block
_exptl_crystal_F_000             200.1140
_exptl_crystal_size_max          0.4
_exptl_crystal_size_mid          0.3
_exptl_crystal_size_min          0.2
_refine_diff_density_max         0.3836
_refine_diff_density_min         -0.4085
_refine_diff_density_rms         0.0958
_refine_ls_d_res_high            0.7829
_refine_ls_d_res_low             6.0634
_refine_ls_goodness_of_fit_ref   1.0978
_refine_ls_hydrogen_treatment    constr
_refine_ls_matrix_type           full
_refine_ls_number_constraints    20
_refine_ls_number_parameters     127
_refine_ls_number_reflns         1891
_refine_ls_number_restraints     0
_refine_ls_restrained_S_all      1.0978
_refine_ls_R_factor_all          0.1196
_refine_ls_R_factor_gt           0.0641
_refine_ls_shift/su_max          0.0008
_refine_ls_shift/su_mean         0.0002
_refine_ls_structure_factor_coef Fsqd
_refine_ls_weighting_details
'w=1/[\s^2^(Fo^2^)+(0.0795P)^2^+0.0363P] where P=(Fo^2^+2Fc^2^)/3'
_refine_ls_weighting_scheme      calc
_refine_ls_wR_factor_gt          0.1507
_refine_ls_wR_factor_ref         0.1939
_reflns_Friedel_coverage         0.0
_reflns_limit_h_max              6
_reflns_limit_h_min              -6
_reflns_limit_k_max              9
_reflns_limit_k_min              -9
_reflns_limit_l_max              15
_reflns_limit_l_min              0
_reflns_number_gt                1145
_reflns_number_total             1891
_reflns_threshold_expression     I>=2u(I)
_iucr_refine_instructions_details
;
TITL 
CELL 0.71073 5.4312 7.6252 12.092 84.577 87.445 76.369
ZERR 2 0.001 0.0016 0.002 0.015 0.014 0.017
LATT 1
SFAC C H Li N O
UNIT 18 24 2 2 6

L.S. 4
PLAN  20
SIZE 0.2 0.4 0.3
TEMP -120
FMAP 2
ACTA 50.00
BOND $H
CONF 
MERG 2
OMIT -3 54
WGHT 0.079531 0.036256
FVAR 8.637278
REM <olex2.extras>
REM <HklSrc "%.\\RMG164.hkl">
REM </olex2.extras>

Li1   3     0.33799  0.95824  0.42541  11.00000  0.01958  0.05713  0.02784 =
 0.00152 -0.00084 -0.01179 
O1    5    -0.02639  0.94145  0.64140  11.00000  0.01766  0.06896  0.03537 =
 0.00485 -0.00339 -0.01142 
O2    5     0.37934  0.90955  0.58495  11.00000  0.02307  0.05397  0.02655 =
 0.00166  0.00208 -0.01403 
O3    5     0.50340  0.73650  0.35680  11.00000  0.04248  0.05642  0.04442 =
 -0.00902  0.00252  0.00276 
N1    4     0.28289  0.84450  0.76719  11.00000  0.01786  0.03903  0.02642 =
 0.00100 -0.00061 -0.00870 
C1    1     0.52704  0.77304  0.79995  11.00000  0.02065  0.04885  0.03673 =
 0.00512 -0.00133 -0.00578 
AFIX 43
H1    2     0.67410  0.75595  0.75294  11.00000 -1.20000 
AFIX 0
C2    1     0.52140  0.73111  0.91131  11.00000  0.03465  0.07017  0.03912 =
 0.01424 -0.01101 -0.01678 
AFIX 43
H2    2     0.66383  0.67800  0.95598  11.00000 -1.20000 
AFIX 0
C3    1     0.26690  0.78009  0.94941  11.00000  0.04388  0.08899  0.02948 =
 0.00572  0.00049 -0.03180 
AFIX 43
H3    2     0.20708  0.76740  1.02409  11.00000 -1.20000 
AFIX 0
C4    1     0.12462  0.84837  0.85970  11.00000  0.02357  0.06175  0.03233 =
 -0.00261  0.00629 -0.01438 
AFIX 43
H4    2    -0.05435  0.89175  0.86026  11.00000 -1.20000 
AFIX 0
C5    1     0.20419  0.90332  0.65630  11.00000  0.02081  0.03316  0.03329 =
 0.00084 -0.00147 -0.01024 
C6    1     0.71004  0.61089  0.40790  11.00000  0.09952  0.08460  0.05397 =
 0.00763  0.00113  0.04643 
AFIX 23
H6a   2     0.75888  0.65915  0.47473  11.00000 -1.20000 
H6b   2     0.66153  0.49539  0.43115  11.00000 -1.20000 
AFIX 0
C7    1     0.91949  0.58052  0.32956  11.00000  0.04071  0.10188  0.09524 =
 -0.02671 -0.00434 -0.00279 
AFIX 23
H7a   2     1.04665  0.64733  0.34700  11.00000 -1.20000 
H7b   2     1.00225  0.44989  0.33160  11.00000 -1.20000 
AFIX 0
C8    1     0.81177  0.64768  0.21851  11.00000  0.07079  0.06523  0.06530 =
 -0.00741  0.02631 -0.00786 
AFIX 23
H8a   2     0.88844  0.74571  0.18381  11.00000 -1.20000 
H8b   2     0.84218  0.54845  0.16875  11.00000 -1.20000 
AFIX 0
C9    1     0.53490  0.71702  0.24005  11.00000  0.06098  0.06969  0.04905 =
 -0.02169 -0.00505 -0.01010 
AFIX 23
H9a   2     0.43923  0.63059  0.21827  11.00000 -1.20000 
H9b   2     0.47262  0.83520  0.19706  11.00000 -1.20000 
AFIX 0
HKLF 4

END
Q1 1 0.944444 0.56 0.35 11 0.05 0.38
Q2 1 0.666667 0.6 0.475 11 0.05 0.33
Q3 1 0.333333 0.96 0.525 11 0.05 0.32
Q4 1 0 1.04 0.775 11 0.05 0.29
Q5 1 0.944444 0.76 0.275 11 0.05 0.28
Q6 1 0.888889 0.76 0.725 11 0.05 0.28
Q7 1 0.833333 0.72 1.025 11 0.05 0.27
Q8 1 -0.055556 1.12 0.675 11 0.05 0.27
Q9 1 1.277778 0.48 0.275 11 0.05 0.27
Q10 1 0.666667 0.4 0.375 11 0.05 0.27
Q11 1 0.777778 0.84 0.075 11 0.05 0.26
Q12 1 0.611111 0.52 0.875 11 0.05 0.25
Q13 1 0.833333 0.76 0.45 11 0.05 0.25
Q14 1 0.944444 0.88 0.15 11 0.05 0.25
Q15 1 0.5 0.72 0.425 11 0.05 0.25
Q16 1 0.277778 0.92 0.75 11 0.05 0.25
Q17 1 -0.055556 0.8 0.625 11 0.05 0.24
Q18 1 0.388889 0.76 0.15 11 0.05 0.24
Q19 1 0.5 0.68 0.325 11 0.05 0.24
Q20 1 0.277778 0.76 0.725 11 0.05 0.24

  REM The information below was added by Olex2.
  REM
  REM R1 = 0.0641 for 1145 Fo > 4sig(Fo) and 0.1196 for all 1891 data
  REM 127 parameters refined using 0 restraints
  REM Highest difference peak 0.3836, deepest hole -0.4085
  REM Mean Shift 0.0002, Max Shift 0.0008.

  REM +++ Tabular Listing of Refinement Information +++
  REM R1_all = 0.1196
  REM R1_gt = 0.0641
  REM wR_ref = 0.1939
  REM GOOF = 1.0978
  REM Shift_max = 0.0008
  REM Shift_mean = 0.0002
  REM Reflections_all = 1891
  REM Reflections_gt = 1145
  REM Parameters = 127
  REM Hole = -0.4085
  REM Peak = 0.3836
  REM Flack = n/a

  
;
_cod_data_source_file            c8cc08308h2.cif
_cod_data_source_block           RMG164
_cod_database_code               7122841
_reflns_odcompleteness_completeness 89.34
_reflns_odcompleteness_iscentric 1
_reflns_odcompleteness_theta     27.01
_olex2_refinement_description
;
1. Fixed Uiso
 At 1.2 times of:
  All C(H) groups, All C(H,H) groups
2.a Secondary CH2 refined with riding coordinates:
 C6(H6a,H6b), C7(H7a,H7b), C8(H8a,H8b), C9(H9a,H9b)
2.b Aromatic/amide H refined with riding coordinates:
 C1(H1), C2(H2), C3(H3), C4(H4)
;
_iucr_refine_fcf_details
;
data_RMG164_CCDC1
_computing_structure_refinement   'olex2.refine (Bourhis et al., 2015)'
_shelx_refln_list_code            4
loop_
  _space_group_symop_id
  _space_group_symop_operation_xyz
  1  x,y,z
  2  -x,-y,-z

_space_group_crystal_system       triclinic
_space_group_IT_number            2
_space_group_name_H-M_alt         'P -1'
_space_group_name_Hall            '-P 1'
_symmetry_space_group_name_H-M    'P -1'
_symmetry_space_group_name_Hall   '-P 1'
_symmetry_Int_Tables_number       2
_cell_length_a                    5.4312(10)
_cell_length_b                    7.6252(16)
_cell_length_c                    12.092(2)
_cell_angle_alpha                 84.577(15)
_cell_angle_beta                  87.445(14)
_cell_angle_gamma                 76.369(17)
_cell_volume                      484.37(16)
loop_
  _refln_index_h
  _refln_index_k
  _refln_index_l
  _refln_F_squared_calc
  _refln_F_squared_meas
  _refln_F_squared_sigma
  _refln_F_squared_weight
  _refln_observed_status
-6 -6 1 37.452 40.832 7.118 11.133 o
-6 -6 2 0.976 3.529 2.959 77.381 o
-6 -5 1 20.511 19.384 4.540 28.629 o
-6 -5 2 21.879 17.330 5.069 23.558 o
-6 -5 3 16.962 14.695 2.898 64.281 o
-6 -5 4 5.986 9.306 2.703 86.853 o
-6 -4 1 3.050 5.722 2.897 79.274 o
-6 -4 2 29.293 35.619 4.378 25.788 o
-6 -4 3 2.776 6.427 2.472 107.680 o
-6 -4 4 7.336 2.502 7.324 12.660 o
-6 -4 5 0.225 -0.844 2.597 101.374 o
-6 -4 6 1.170 7.534 2.835 83.213 o
-6 -3 1 17.848 20.387 3.569 43.795 o
-6 -3 2 14.259 14.163 2.757 72.844 o
-6 -3 3 21.973 25.346 3.587 40.081 o
-6 -3 4 11.376 11.281 3.165 60.879 o
-6 -3 5 7.472 7.141 1.777 181.731 o
-6 -3 6 0.007 -1.466 2.524 107.431 o
-6 -2 1 21.218 24.776 3.789 37.306 o
-6 -2 2 17.679 20.265 3.144 53.754 o
-6 -2 3 4.154 7.504 2.095 143.952 o
-6 -2 4 0.077 -3.712 1.654 250.073 o
-6 -2 5 2.623 3.933 1.635 240.796 o
-6 -2 6 0.857 0.429 1.583 269.857 o
-6 -2 7 6.463 7.109 3.419 56.041 o
-6 -1 1 10.130 10.927 2.341 104.651 o
-6 -1 2 20.920 17.655 2.363 77.869 o
-6 -1 3 0.660 -1.306 1.377 357.615 o
-6 -1 4 5.713 4.370 1.754 198.808 o
-6 -1 5 1.578 4.309 2.605 98.987 o
-6 -1 6 0.002 1.085 3.276 63.706 o
-6 -1 7 0.745 0.601 2.318 126.700 o
-6 0 1 0.302 3.540 2.849 83.648 o
-6 0 2 1.636 2.120 2.209 137.858 o
-6 0 3 2.244 0.639 2.453 112.246 o
-6 0 4 2.198 5.403 3.172 66.795 o
-6 0 5 1.042 3.380 1.731 221.903 o
-6 0 6 0.010 -0.332 1.676 243.634 o
-6 1 1 1.036 3.870 2.317 125.278 o
-6 1 2 0.142 -0.546 2.308 128.447 o
-6 1 3 0.112 1.444 2.193 141.674 o
-6 1 4 0.176 -4.131 2.427 116.147 o
-6 2 1 5.012 4.951 3.292 61.229 o
-6 2 2 0.177 0.614 2.743 90.793 o
-5 -8 1 9.179 8.108 3.729 46.502 o
-5 -7 1 4.949 4.352 3.080 69.815 o
-5 -7 2 30.669 20.900 4.890 23.075 o
-5 -7 3 0.135 2.391 2.486 110.063 o
-5 -7 4 20.190 17.015 5.230 22.542 o
-5 -6 1 9.677 8.940 3.359 56.164 o
-5 -6 2 19.367 14.622 4.404 31.049 o
-5 -6 3 0.404 6.809 3.543 53.944 o
-5 -6 4 10.443 10.357 3.734 45.614 o
-5 -6 5 20.509 31.119 6.408 15.013 o
-5 -6 6 12.786 15.782 5.099 24.709 o
-5 -5 1 110.050 108.668 9.630 3.964 o
-5 -5 2 0.355 0.802 2.584 102.225 o
-5 -5 3 53.658 38.243 6.354 12.001 o
-5 -5 4 0.668 4.487 2.977 76.392 o
-5 -5 5 68.762 66.387 8.961 6.111 o
-5 -5 6 6.267 10.745 5.145 25.220 o
-5 -5 7 4.128 0.376 2.958 76.836 o
-5 -5 8 1.114 4.163 2.092 152.740 o
-5 -4 1 122.594 124.552 10.243 3.331 o
-5 -4 2 32.370 39.712 6.120 14.757 o
-5 -4 3 40.983 36.888 5.957 14.608 o
-5 -4 4 5.470 10.699 2.713 86.086 o
-5 -4 5 27.187 38.689 4.358 26.117 o
-5 -4 6 60.109 57.823 8.803 6.715 o
-5 -4 7 12.600 11.886 3.166 59.827 o
-5 -4 8 1.172 4.020 2.552 103.404 o
-5 -4 9 0.125 2.108 2.375 120.633 o
-5 -3 1 142.405 134.955 10.019 2.985 o
-5 -3 2 169.224 156.539 8.174 2.794 o
-5 -3 3 4.877 5.442 2.204 131.574 o
-5 -3 4 91.532 97.407 7.551 5.915 o
-5 -3 5 2.256 1.652 1.843 195.645 o
-5 -3 6 32.444 26.595 3.126 40.835 o
-5 -3 7 9.829 9.308 5.788 19.869 o
-5 -3 8 0.558 -0.575 1.853 198.567 o
-5 -3 9 0.488 3.897 2.575 102.080 o
-5 -2 1 8.454 6.060 1.648 203.341 o
-5 -2 2 168.182 184.964 8.625 2.519 o
-5 -2 3 66.627 74.880 5.474 10.877 o
-5 -2 4 19.307 18.642 2.992 57.280 o
-5 -2 5 1.613 2.650 1.350 356.860 o
-5 -2 6 15.017 18.011 2.702 72.023 o
-5 -2 7 53.116 54.564 4.812 15.816 o
-5 -2 8 0.089 4.217 2.522 106.491 o
-5 -2 9 3.098 6.087 2.818 83.527 o
-5 -2 10 5.402 5.798 2.445 107.369 o
-5 -1 1 7.701 5.798 3.754 46.669 o
-5 -1 2 129.114 142.509 7.263 4.015 o
-5 -1 3 222.725 249.216 8.065 1.659 o
-5 -1 4 1.860 3.413 1.627 247.253 o
-5 -1 5 91.659 102.813 5.649 7.367 o
-5 -1 6 3.196 3.821 1.699 221.914 o
-5 -1 7 4.913 2.490 2.795 84.857 o
-5 -1 8 0.039 -1.718 2.986 76.774 o
-5 -1 9 0.953 0.897 2.301 128.297 o
-5 -1 10 10.531 10.814 3.849 42.999 o
-5 0 1 11.960 11.380 1.618 174.576 o
-5 0 2 15.257 19.063 2.190 96.069 o
-5 0 3 46.128 49.266 3.343 25.381 o
-5 0 4 21.540 28.453 3.309 44.411 o
-5 0 5 15.896 15.914 2.760 69.883 o
-5 0 6 1.283 2.301 1.445 316.161 o
-5 0 7 0.034 -0.563 2.045 163.549 o
-5 0 8 0.938 2.347 2.538 105.236 o
-5 0 9 0.675 -0.540 2.409 117.623 o
-5 0 10 0.003 -8.109 4.319 36.680 o
-5 1 1 12.843 21.706 4.518 30.335 o
-5 1 2 61.123 53.067 3.957 17.380 o
-5 1 3 8.302 11.741 3.729 46.200 o
-5 1 4 105.626 105.556 6.313 5.992 o
-5 1 5 4.192 2.586 1.759 206.729 o
-5 1 6 5.194 6.627 2.585 96.513 o
-5 1 7 0.385 5.278 2.373 119.401 o
-5 1 8 0.139 -2.771 2.383 120.456 o
-5 1 9 0.515 0.218 2.231 137.109 o
-5 2 1 1.345 5.389 3.086 70.815 o
-5 2 2 1.565 5.578 2.550 102.713 o
-5 2 3 6.008 7.242 2.381 111.084 o
-5 2 6 1.061 -0.837 1.934 181.521 o
-5 2 7 10.394 13.696 4.422 32.894 o
-5 2 8 4.803 8.286 3.615 50.660 o
-4 -8 1 3.777 1.583 2.342 121.072 o
-4 -8 2 4.353 1.973 3.498 54.978 o
-4 -8 3 0.845 5.491 3.680 50.075 o
-4 -8 4 2.599 -3.197 3.673 50.433 o
-4 -8 5 4.615 6.543 3.527 53.437 o
-4 -7 1 24.944 26.291 5.363 20.273 o
-4 -7 2 7.023 6.791 3.088 67.803 o
-4 -7 3 3.114 4.789 2.989 74.762 o
-4 -7 4 1.014 0.313 2.054 160.934 o
-4 -7 5 6.281 5.673 3.080 68.854 o
-4 -7 6 12.093 11.700 4.331 34.055 o
-4 -7 7 0.097 -1.624 2.806 86.916 o
-4 -6 1 4.750 5.660 3.030 71.839 o
-4 -6 2 9.742 8.875 2.823 77.096 o
-4 -6 3 1.617 4.124 2.818 84.809 o
-4 -6 4 2.326 6.897 3.824 46.067 o
-4 -6 5 18.878 14.163 4.495 30.117 o
-4 -6 6 5.169 11.529 4.288 36.050 o
-4 -6 7 22.746 24.193 5.720 18.510 o
-4 -6 8 0.008 4.923 4.432 34.704 o
-4 -5 1 1.873 -5.352 3.341 60.996 o
-4 -5 2 146.357 143.651 10.760 2.685 o
-4 -5 3 1.792 2.088 2.865 82.468 o
-4 -5 4 0.160 -3.715 2.503 109.128 o
-4 -5 5 3.338 -4.385 3.003 74.971 o
-4 -5 6 51.183 53.291 7.839 8.517 o
-4 -5 7 25.843 24.169 5.814 17.654 o
-4 -5 8 11.068 9.281 2.811 76.234 o
-4 -5 9 19.853 21.141 4.742 26.500 o
-4 -5 10 1.169 4.570 2.812 85.295 o
-4 -4 1 0.081 0.724 1.912 186.667 o
-4 -4 2 5.006 6.467 2.868 79.424 o
-4 -4 3 6.289 4.875 2.589 95.990 o
-4 -4 4 6.592 5.474 2.709 87.632 o
-4 -4 5 24.762 27.861 5.615 18.661 o
-4 -4 6 56.030 62.115 4.880 14.486 o
-4 -4 7 1.607 -1.709 2.601 100.469 o
-4 -4 8 5.336 4.125 2.294 122.312 o
-4 -4 9 4.845 6.367 2.634 93.568 o
-4 -4 10 0.857 1.777 1.839 199.315 o
-4 -4 11 3.148 -0.742 2.119 149.020 o
-4 -3 1 80.479 74.176 6.851 7.721 o
-4 -3 2 25.002 21.731 4.174 31.242 o
-4 -3 3 197.512 188.254 11.711 1.786 o
-4 -3 4 0.097 1.817 1.327 382.849 o
-4 -3 5 33.820 32.027 3.683 31.464 o
-4 -3 6 24.229 21.281 2.980 52.083 o
-4 -3 7 51.168 48.480 5.023 15.902 o
-4 -3 8 20.270 17.020 4.154 33.752 o
-4 -3 9 37.675 44.369 6.747 11.999 o
-4 -3 10 2.333 5.004 2.313 123.690 o
-4 -3 11 3.951 8.084 3.398 57.434 o
-4 -2 1 48.461 45.096 5.209 15.908 o
-4 -2 2 9.093 10.205 2.096 129.099 o
-4 -2 3 17.519 21.915 2.896 60.279 o
-4 -2 4 38.054 45.943 4.255 22.774 o
-4 -2 5 3.249 5.458 1.930 172.441 o
-4 -2 6 129.977 142.310 6.018 4.421 o
-4 -2 7 64.584 69.603 4.894 12.645 o
-4 -2 8 25.022 24.613 4.967 23.204 o
-4 -2 9 0.426 -1.572 2.032 165.285 o
-4 -2 10 2.827 4.607 2.890 80.026 o
-4 -2 11 2.358 2.844 2.718 91.041 o
-4 -2 12 4.970 2.978 2.842 81.943 o
-4 -1 1 144.798 150.695 10.853 2.639 o
-4 -1 2 175.511 176.451 7.168 2.702 o
-4 -1 3 13.458 13.443 2.313 98.028 o
-4 -1 4 227.728 258.956 7.601 1.610 o
-4 -1 5 0.086 0.165 1.162 505.060 o
-4 -1 6 18.111 14.245 3.168 55.033 o
-4 -1 7 58.433 52.078 4.127 17.489 o
-4 -1 8 9.498 6.129 2.663 87.305 o
-4 -1 9 0.329 -3.258 1.992 172.150 o
-4 -1 10 9.201 14.032 4.153 37.233 o
-4 -1 11 0.047 0.023 2.491 110.276 o
-4 -1 12 0.012 -0.050 2.385 120.355 o
-4 0 1 15.002 16.826 2.255 95.132 o
-4 0 2 198.235 222.404 6.412 2.154 o
-4 0 3 95.472 103.013 7.485 5.689 o
-4 0 4 2.549 2.864 1.425 315.052 o
-4 0 5 11.776 13.290 2.319 100.962 o
-4 0 6 10.379 13.767 2.393 98.017 o
-4 0 7 254.600 272.143 15.038 1.030 o
-4 0 8 0.281 -6.292 2.955 78.314 o
-4 0 9 22.143 28.868 5.409 20.185 o
-4 0 10 6.433 8.166 3.687 48.339 o
-4 0 11 6.628 3.445 2.671 90.893 o
-4 0 12 0.006 2.919 3.562 53.771 o
-4 1 1 0.176 -1.039 0.900 839.914 o
-4 1 2 234.620 260.153 8.031 1.530 o
-4 1 3 404.429 413.771 15.204 0.528 o
-4 1 4 16.620 13.531 2.225 97.018 o
-4 1 5 220.002 241.272 12.551 1.391 o
-4 1 6 33.719 40.237 5.950 15.260 o
-4 1 7 26.617 21.599 4.858 24.061 o
-4 1 8 28.389 26.523 5.537 18.729 o
-4 1 9 5.750 2.696 2.857 80.731 o
-4 1 10 4.363 5.630 3.275 61.975 o
-4 1 11 1.449 -4.868 3.858 45.850 o
-4 2 1 0.008 0.688 0.921 799.195 o
-4 2 2 5.118 4.701 1.349 317.143 o
-4 2 3 64.255 54.783 4.139 15.933 o
-4 2 4 29.208 24.347 4.085 30.413 o
-4 2 5 22.587 19.501 4.039 34.161 o
-4 2 6 7.487 6.819 3.056 68.885 o
-4 2 7 0.275 -2.331 3.006 75.657 o
-4 2 8 45.668 39.715 6.860 11.271 o
-4 2 9 7.442 10.890 4.371 34.419 o
-4 2 10 0.380 6.362 4.250 37.642 o
-4 2 11 3.622 4.398 3.366 59.185 o
-4 3 3 16.013 18.447 3.329 50.755 o
-4 3 4 228.633 226.016 12.185 1.412 o
-4 3 5 46.203 40.960 5.591 15.084 o
-4 3 6 26.241 22.123 5.136 21.939 o
-4 3 7 10.597 10.947 3.482 51.698 o
-4 3 8 16.134 14.123 3.855 40.420 o
-4 3 9 20.012 5.749 3.543 46.954 o
-4 3 10 1.217 0.552 2.658 96.287 o
-4 4 8 6.055 5.709 3.132 66.781 o
-4 4 9 1.169 -0.293 2.064 159.485 o
-3 -9 1 3.574 -3.683 3.603 52.228 o
-3 -9 2 1.197 6.613 4.112 40.075 o
-3 -9 3 0.784 5.597 3.656 50.736 o
-3 -8 1 15.698 14.804 4.855 26.705 o
-3 -8 2 0.049 -3.289 2.768 89.312 o
-3 -8 3 11.751 9.717 3.808 43.648 o
-3 -8 4 0.531 4.728 3.001 75.193 o
-3 -8 5 6.904 8.132 3.769 46.209 o
-3 -8 6 23.993 32.756 6.970 12.641 o
-3 -7 1 4.591 3.079 2.415 112.464 o
-3 -7 2 7.095 9.824 3.724 47.003 o
-3 -7 3 12.428 10.710 3.671 46.255 o
-3 -7 4 9.980 7.926 3.792 44.833 o
-3 -7 5 0.762 -3.849 3.074 72.262 o
-3 -7 6 13.408 11.848 4.554 30.752 o
-3 -7 7 19.327 16.171 5.330 21.946 o
-3 -7 8 18.367 11.605 4.898 26.106 o
-3 -6 1 0.283 -0.193 1.810 208.545 o
-3 -6 2 35.376 34.473 5.629 16.801 o
-3 -6 3 0.998 -2.997 1.991 171.567 o
-3 -6 4 11.605 13.454 3.043 64.291 o
-3 -6 5 0.346 4.833 2.807 85.874 o
-3 -6 6 0.192 1.888 3.419 58.376 o
-3 -6 7 48.322 54.555 8.684 7.334 o
-3 -6 8 0.155 -5.394 3.520 55.211 o
-3 -6 9 18.340 17.723 4.525 29.485 o
-3 -6 10 0.809 0.226 2.229 137.082 o
-3 -5 1 0.052 0.459 1.896 189.995 o
-3 -5 2 42.372 33.447 5.167 18.037 o
-3 -5 3 67.299 68.325 7.361 7.997 o
-3 -5 4 9.195 9.648 2.941 71.748 o
-3 -5 5 16.360 13.397 3.456 48.903 o
-3 -5 6 0.448 1.858 2.330 125.217 o
-3 -5 7 3.646 1.805 2.957 76.781 o
-3 -5 8 56.946 53.432 5.753 12.489 o
-3 -5 9 26.549 28.457 5.034 22.078 o
-3 -5 10 3.675 7.500 2.895 78.519 o
-3 -5 11 0.705 0.983 1.841 199.928 o
-3 -4 1 22.771 37.972 4.769 23.883 o
-3 -4 2 0.583 0.854 1.992 171.305 o
-3 -4 3 51.759 57.401 6.097 11.940 o
-3 -4 4 7.390 11.376 3.382 55.926 o
-3 -4 5 7.871 12.863 3.247 59.691 o
-3 -4 6 0.457 -1.436 2.726 91.985 o
-3 -4 7 14.678 19.275 5.038 24.766 o
-3 -4 8 1.854 4.982 2.603 98.699 o
-3 -4 9 2.571 0.302 1.896 185.925 o
-3 -4 10 5.909 10.140 3.314 59.081 o
-3 -4 11 10.052 5.401 2.567 93.076 o
-3 -4 12 0.410 4.681 3.046 73.074 o
-3 -3 1 4.171 -0.465 1.737 216.058 o
-3 -3 2 166.562 167.008 9.503 2.515 o
-3 -3 3 2.992 0.069 1.904 183.819 o
-3 -3 4 124.079 118.247 8.656 3.940 o
-3 -3 5 1.068 1.942 1.407 335.461 o
-3 -3 6 32.928 37.301 3.142 36.800 o
-3 -3 7 26.448 19.974 2.348 67.583 o
-3 -3 8 10.769 8.808 3.314 57.052 o
-3 -3 9 98.882 99.965 8.690 4.840 o
-3 -3 10 0.080 0.470 1.748 223.408 o
-3 -3 11 0.738 2.380 2.163 144.551 o
-3 -3 12 0.591 -0.394 1.976 174.618 o
-3 -2 1 134.915 126.767 7.417 4.018 o
-3 -2 2 73.614 85.076 6.436 8.331 o
-3 -2 3 4.724 1.874 2.352 118.878 o
-3 -2 4 230.722 268.617 8.421 1.506 o
-3 -2 5 0.017 -1.819 1.226 455.508 o
-3 -2 6 8.010 7.873 1.419 253.105 o
-3 -2 7 0.661 -0.541 1.660 246.677 o
-3 -2 8 0.038 -0.384 1.968 176.750 o
-3 -2 9 6.693 10.934 3.065 67.716 o
-3 -2 10 0.908 5.302 2.643 96.267 o
-3 -2 11 0.787 -1.755 2.691 94.272 o
-3 -2 12 9.444 8.757 3.559 50.565 o
-3 -2 13 0.134 6.928 3.932 43.908 o
-3 -1 1 0.216 -0.431 1.157 509.502 o
-3 -1 2 93.229 104.726 7.897 5.455 o
-3 -1 3 221.863 263.044 7.971 1.617 o
-3 -1 4 5.971 5.913 1.563 237.323 o
-3 -1 5 48.959 57.811 3.362 22.641 o
-3 -1 6 31.456 32.681 2.929 42.363 o
-3 -1 7 70.214 78.902 7.094 7.887 o
-3 -1 8 61.268 59.229 6.607 9.910 o
-3 -1 9 95.520 98.292 9.196 4.659 o
-3 -1 10 12.319 9.069 3.230 58.800 o
-3 -1 11 15.962 13.923 4.220 34.495 o
-3 -1 12 4.168 3.976 3.321 60.635 o
-3 -1 13 4.017 1.573 2.816 84.360 o
-3 0 1 42.753 41.530 3.157 29.962 o
-3 0 2 206.389 241.736 7.306 1.889 o
-3 0 3 7.248 7.349 1.238 320.959 o
-3 0 4 12.214 12.137 1.832 144.443 o
-3 0 5 74.873 79.626 4.620 11.202 o
-3 0 6 4.031 2.515 1.774 204.049 o
-3 0 7 92.996 104.045 8.519 5.062 o
-3 0 8 80.766 70.894 7.732 6.805 o
-3 0 9 2.917 6.815 2.973 75.168 o
-3 0 10 1.071 3.190 2.886 81.350 o
-3 0 11 6.901 6.976 3.868 44.100 o
-3 0 12 8.990 9.650 3.767 45.453 o
-3 0 13 6.309 6.777 3.945 42.603 o
-3 1 1 6.238 6.663 0.841 571.841 o
-3 1 2 0.444 0.720 0.881 858.950 o
-3 1 3 21.300 24.609 2.476 67.631 o
-3 1 4 146.765 156.591 6.323 3.644 o
-3 1 5 1.737 2.947 1.571 265.756 o
-3 1 6 83.094 85.555 7.843 6.273 o
-3 1 7 21.671 18.755 3.886 36.868 o
-3 1 8 17.190 15.037 4.375 31.903 o
-3 1 9 3.766 2.242 2.734 89.318 o
-3 1 10 24.808 29.994 6.062 16.232 o
-3 1 11 0.683 -0.186 2.372 121.237 o
-3 1 12 4.579 -1.235 3.462 56.317 o
-3 1 13 0.077 4.909 4.098 40.552 o
-3 2 1 35.430 34.873 1.986 52.334 o
-3 2 2 12.222 11.918 1.386 208.010 o
-3 2 3 3.409 6.701 1.993 160.447 o
-3 2 4 9.374 11.579 3.211 60.450 o
-3 2 5 0.347 1.163 1.851 198.337 o
-3 2 6 16.909 24.046 4.647 27.771 o
-3 2 7 91.029 78.804 8.645 5.444 o
-3 2 8 0.142 3.529 2.126 149.613 o
-3 2 9 84.282 87.413 10.148 4.499 o
-3 2 10 1.906 0.265 2.854 83.369 o
-3 2 11 4.975 -0.977 3.271 62.850 o
-3 2 12 0.087 2.350 3.854 45.977 o
-3 2 13 9.362 9.860 4.351 34.482 o
-3 3 1 17.807 18.014 1.323 154.852 o
-3 3 2 43.611 37.214 3.859 25.093 o
-3 3 3 115.715 100.653 7.358 5.045 o
-3 3 4 22.200 26.394 4.516 27.622 o
-3 3 5 141.461 133.860 10.321 2.929 o
-3 3 6 56.389 58.234 7.444 8.771 o
-3 3 7 2.934 3.240 2.043 157.615 o
-3 3 8 7.083 6.676 3.386 56.921 o
-3 3 9 17.463 16.648 4.908 25.747 o
-3 3 10 5.689 0.481 2.918 78.129 o
-3 3 11 1.463 4.200 4.829 29.200 o
-3 3 12 0.055 -11.353 4.969 27.721 o
-3 4 2 29.168 21.361 3.270 42.456 o
-3 4 3 4.149 2.762 1.277 369.926 o
-3 4 4 0.850 0.599 1.563 276.724 o
-3 4 5 10.978 10.828 3.551 49.734 o
-3 4 6 0.052 1.624 2.196 141.276 o
-3 4 7 25.772 18.319 4.558 27.316 o
-3 4 8 17.069 15.513 4.569 29.488 o
-3 4 9 8.266 8.047 3.344 57.486 o
-3 4 10 8.850 7.970 3.483 53.042 o
-3 4 11 0.408 -0.954 2.224 138.132 o
-3 5 5 55.482 52.405 6.170 11.639 o
-3 5 6 13.746 9.945 3.352 54.001 o
-3 5 7 18.712 12.344 3.778 41.196 o
-3 5 8 5.566 6.021 2.896 77.750 o
-3 5 9 19.939 15.302 4.930 25.244 o
-3 5 10 0.005 4.042 2.893 81.177 o
-2 -9 1 0.029 2.199 2.761 89.422 o
-2 -9 2 0.155 0.847 2.102 154.380 o
-2 -9 3 0.920 0.623 2.333 124.912 o
-2 -8 1 2.595 3.063 2.318 123.947 o
-2 -8 2 0.003 1.716 2.081 157.181 o
-2 -8 3 3.528 3.879 3.071 70.952 o
-2 -8 4 5.901 11.092 4.320 35.452 o
-2 -8 5 0.946 -6.001 3.662 50.928 o
-2 -8 6 11.919 20.159 6.055 17.750 o
-2 -8 7 11.124 16.889 5.996 18.251 o
-2 -7 1 6.367 10.517 3.486 53.405 o
-2 -7 2 0.339 -1.677 2.263 133.399 o
-2 -7 3 2.124 -0.710 2.146 146.531 o
-2 -7 4 0.277 -3.252 1.936 182.180 o
-2 -7 5 15.982 13.642 3.396 50.527 o
-2 -7 6 1.572 -2.684 1.885 190.108 o
-2 -7 7 17.130 14.851 3.451 48.206 o
-2 -7 8 16.394 11.528 3.824 41.375 o
-2 -7 9 0.077 1.815 1.813 206.619 o
-2 -6 1 35.352 37.865 2.996 36.849 o
-2 -6 2 0.012 -3.694 1.404 347.151 o
-2 -6 3 38.272 40.515 3.490 29.469 o
-2 -6 4 1.023 0.703 1.364 360.556 o
-2 -6 5 19.221 24.027 3.118 51.769 o
-2 -6 6 35.261 38.423 4.231 24.835 o
-2 -6 7 24.311 30.813 4.326 28.384 o
-2 -6 8 76.109 84.027 8.849 5.685 o
-2 -6 9 0.143 -3.333 2.521 107.595 o
-2 -6 10 0.680 -0.010 1.381 355.640 o
-2 -5 1 2.416 3.268 1.167 454.515 o
-2 -5 2 4.893 5.380 1.503 262.863 o
-2 -5 3 21.343 15.870 3.921 37.005 o
-2 -5 4 86.918 75.406 7.331 6.816 o
-2 -5 5 0.552 1.609 2.155 146.224 o
-2 -5 6 23.927 19.933 4.885 24.517 o
-2 -5 7 27.159 24.094 6.084 16.185 o
-2 -5 8 42.945 42.355 5.695 15.029 o
-2 -5 9 23.318 22.872 4.294 30.180 o
-2 -5 10 0.897 0.012 1.471 312.874 o
-2 -5 11 3.867 4.991 2.443 109.732 o
-2 -5 12 0.530 -2.826 2.446 114.129 o
-2 -4 1 41.641 44.423 4.755 19.215 o
-2 -4 2 109.017 109.528 7.462 5.067 o
-2 -4 3 17.897 15.551 3.339 50.239 o
-2 -4 4 103.249 117.972 8.644 4.484 o
-2 -4 5 19.964 21.306 4.623 27.659 o
-2 -4 6 20.617 20.046 4.915 24.853 o
-2 -4 7 150.334 156.428 12.933 2.141 o
-2 -4 8 0.029 -0.538 1.820 206.619 o
-2 -4 9 152.617 150.078 10.216 2.678 o
-2 -4 10 1.068 0.827 1.379 352.235 o
-2 -4 11 5.611 4.794 2.684 90.336 o
-2 -4 12 0.492 -2.155 1.853 198.620 o
-2 -4 13 1.360 2.318 2.375 119.637 o
-2 -3 1 228.136 185.531 8.586 1.845 o
-2 -3 2 178.901 157.028 8.372 2.606 o
-2 -3 3 240.848 227.579 10.502 1.449 o
-2 -3 4 28.641 24.279 3.868 33.187 o
-2 -3 5 367.153 378.030 16.164 0.598 o
-2 -3 6 62.962 49.107 7.802 8.098 o
-2 -3 7 64.185 64.916 6.512 9.640 o
-2 -3 8 125.274 102.611 8.326 4.244 o
-2 -3 9 83.998 82.869 7.363 6.744 o
-2 -3 10 97.516 92.136 8.244 5.289 o
-2 -3 11 0.574 -1.892 1.600 265.908 o
-2 -3 12 4.566 7.753 3.390 57.544 o
-2 -3 13 1.446 3.101 2.661 95.313 o
-2 -2 1 123.142 155.882 7.315 3.978 o
-2 -2 2 49.208 62.815 5.006 15.115 o
-2 -2 3 128.218 170.965 8.623 3.292 o
-2 -2 4 7.836 1.424 1.975 158.688 o
-2 -2 5 418.607 503.930 9.333 0.501 o
-2 -2 6 151.007 146.316 4.522 4.095 o
-2 -2 7 1.751 -0.310 1.574 270.616 o
-2 -2 8 28.228 30.088 4.487 25.886 o
-2 -2 9 4.949 1.601 2.041 155.675 o
-2 -2 10 129.453 149.090 10.797 2.870 o
-2 -2 11 0.066 -0.005 1.727 229.254 o
-2 -2 12 5.410 4.090 2.702 89.601 o
-2 -2 13 0.614 -0.302 2.729 91.690 o
-2 -2 14 0.576 3.655 2.844 83.847 o
-2 -1 1 6.524 9.771 1.188 333.480 o
-2 -1 2 52.656 55.061 4.325 17.675 o
-2 -1 3 4.601 7.476 1.382 296.672 o
-2 -1 4 488.712 596.956 9.120 0.371 o
-2 -1 5 0.722 0.268 0.836 949.323 o
-2 -1 6 33.907 42.618 4.604 22.003 o
-2 -1 7 5.620 1.699 1.769 201.136 o
-2 -1 8 28.916 28.350 4.615 24.831 o
-2 -1 9 273.563 292.856 14.505 0.955 o
-2 -1 10 1.366 -2.032 2.358 122.292 o
-2 -1 11 96.945 82.382 9.308 4.766 o
-2 -1 12 1.526 -3.333 3.450 57.282 o
-2 -1 13 5.128 5.082 3.238 63.159 o
-2 -1 14 1.457 7.600 4.031 41.595 o
-2 0 1 196.344 217.853 5.716 2.266 o
-2 0 2 700.698 776.814 8.769 0.199 o
-2 0 3 271.543 291.467 9.783 1.150 o
-2 0 4 529.616 597.069 13.227 0.322 o
-2 0 5 41.964 46.551 4.600 19.724 o
-2 0 6 211.749 235.988 11.109 1.566 o
-2 0 7 266.791 271.910 12.846 1.085 o
-2 0 8 86.147 86.329 8.126 5.892 o
-2 0 9 0.979 0.773 2.609 100.018 o
-2 0 10 0.125 1.472 2.848 84.137 o
-2 0 11 92.404 99.092 10.370 4.083 o
-2 0 12 1.381 0.879 2.889 81.505 o
-2 0 13 2.768 8.143 3.912 43.866 o
-2 0 14 2.314 2.270 2.423 114.298 o
-2 1 1 16.892 12.629 0.871 241.545 o
-2 1 2 168.890 195.038 4.247 3.055 o
-2 1 3 37.817 40.469 2.706 37.604 o
-2 1 4 47.526 53.435 4.602 17.793 o
-2 1 5 186.877 225.275 10.684 1.832 o
-2 1 6 39.372 40.382 4.974 18.931 o
-2 1 7 5.387 6.301 2.652 91.957 o
-2 1 8 23.641 23.997 4.476 27.974 o
-2 1 9 38.148 41.558 6.709 12.177 o
-2 1 10 44.076 52.175 7.615 9.307 o
-2 1 11 18.005 18.947 4.766 26.835 o
-2 1 12 11.938 13.392 4.665 29.514 o
-2 1 13 0.301 0.412 2.495 109.732 o
-2 1 14 1.312 -1.948 2.419 116.268 o
-2 2 1 0.706 0.094 0.514 2407.610 o
-2 2 2 392.639 434.949 6.218 0.622 o
-2 2 3 40.586 39.470 2.892 34.137 o
-2 2 4 10.730 10.707 2.575 88.349 o
-2 2 5 148.953 154.367 9.548 2.847 o
-2 2 6 60.753 59.910 6.534 10.062 o
-2 2 7 5.088 5.906 3.096 68.701 o
-2 2 8 3.005 4.046 3.212 65.134 o
-2 2 9 55.732 51.829 7.306 9.238 o
-2 2 10 10.894 10.359 3.875 42.431 o
-2 2 11 8.615 9.467 4.005 40.593 o
-2 2 12 3.074 7.243 4.422 34.498 o
-2 2 13 0.024 10.029 4.679 30.984 o
-2 2 14 4.392 4.274 3.960 42.882 o
-2 3 1 88.017 83.595 4.893 9.192 o
-2 3 2 64.764 65.166 2.585 19.185 o
-2 3 3 4.511 2.542 1.764 204.507 o
-2 3 4 3.123 1.108 1.726 220.303 o
-2 3 5 7.571 7.416 2.984 71.802 o
-2 3 6 198.164 211.325 12.990 1.571 o
-2 3 7 0.071 2.109 2.326 125.791 o
-2 3 8 3.983 -0.815 2.357 120.165 o
-2 3 9 0.111 1.235 2.430 115.556 o
-2 3 10 11.460 18.018 5.285 23.120 o
-2 3 11 0.001 1.752 2.613 99.864 o
-2 3 12 6.826 4.438 3.729 47.683 o
-2 3 13 1.963 1.480 2.974 76.625 o
-2 4 1 69.493 43.209 6.549 10.003 o
-2 4 2 1.433 2.050 1.364 353.307 o
-2 4 3 47.270 43.030 5.084 16.771 o
-2 4 4 10.286 8.735 2.947 70.954 o
-2 4 5 13.218 13.024 3.394 52.283 o
-2 4 6 32.917 32.462 5.641 17.195 o
-2 4 7 0.085 2.991 3.105 70.672 o
-2 4 8 0.410 -5.330 3.026 74.670 o
-2 4 9 45.471 48.910 7.966 8.675 o
-2 4 10 0.085 1.046 3.375 60.007 o
-2 4 11 0.539 7.805 4.136 39.624 o
-2 4 12 1.114 0.552 2.403 117.734 o
-2 4 13 2.986 0.331 3.001 75.123 o
-2 5 3 0.685 1.089 0.826 955.047 o
-2 5 4 0.346 2.666 1.993 170.151 o
-2 5 5 26.316 19.694 4.335 29.315 o
-2 5 6 38.316 36.500 5.926 15.047 o
-2 5 7 31.048 31.739 5.854 16.456 o
-2 5 8 8.701 10.753 4.077 39.065 o
-2 5 9 7.542 14.702 4.758 28.967 o
-2 5 10 2.871 3.813 2.902 79.546 o
-2 5 11 0.005 4.816 3.843 46.096 o
-2 5 12 0.366 2.054 2.527 106.495 o
-2 6 4 17.110 14.151 3.233 53.977 o
-2 6 5 4.384 5.158 2.663 92.548 o
-2 6 6 3.470 2.146 2.165 140.996 o
-2 6 7 35.740 41.481 6.600 12.699 o
-2 6 8 1.440 -2.183 2.921 79.851 o
-2 6 9 3.084 -0.359 2.126 148.067 o
-2 6 10 7.525 7.247 4.000 41.186 o
-2 7 7 9.889 7.409 2.819 77.835 o
-2 7 8 0.010 7.245 4.053 41.340 o
-1 -8 1 16.040 18.849 3.911 38.597 o
-1 -8 2 3.677 10.699 3.512 53.557 o
-1 -8 3 22.658 28.391 5.059 22.589 o
-1 -7 1 2.729 1.318 1.813 201.231 o
-1 -7 2 0.122 1.153 1.698 236.010 o
-1 -7 3 1.318 2.175 1.504 293.050 o
-1 -7 4 2.334 2.809 1.712 223.693 o
-1 -7 5 11.308 12.713 2.548 87.809 o
-1 -7 6 0.903 1.430 1.952 177.420 o
-1 -7 7 22.918 28.254 4.985 23.118 o
-1 -7 8 0.045 0.915 1.629 256.726 o
-1 -7 9 18.680 15.141 4.468 30.369 o
-1 -6 1 1.471 2.026 1.631 249.849 o
-1 -6 2 18.973 24.201 2.840 59.351 o
-1 -6 3 66.971 69.081 4.762 12.651 o
-1 -6 4 7.851 11.615 2.115 128.439 o
-1 -6 5 1.700 3.587 2.216 136.129 o
-1 -6 6 18.974 21.800 4.698 27.052 o
-1 -6 7 4.415 3.092 3.335 60.210 o
-1 -6 8 0.666 -0.810 1.333 381.515 o
-1 -6 9 19.916 12.226 2.842 64.510 o
-1 -6 10 0.393 -0.598 3.686 50.324 o
-1 -6 11 4.359 5.155 1.871 179.997 o
-1 -5 1 0.131 -1.065 1.380 358.805 o
-1 -5 2 77.892 73.308 4.169 11.999 o
-1 -5 3 18.587 12.422 2.116 100.536 o
-1 -5 4 1.583 4.232 1.750 214.465 o
-1 -5 5 20.606 20.472 3.280 48.263 o
-1 -5 6 3.725 7.851 3.866 44.736 o
-1 -5 7 4.906 2.695 3.255 63.051 o
-1 -5 8 52.412 51.191 7.768 8.626 o
-1 -5 9 7.124 8.058 2.265 119.052 o
-1 -5 10 8.171 12.357 2.752 80.530 o
-1 -5 11 14.283 12.603 2.859 69.395 o
-1 -5 12 27.459 31.208 5.869 16.818 o
-1 -4 1 68.734 71.171 3.463 15.173 o
-1 -4 2 11.957 9.203 1.619 180.496 o
-1 -4 3 1.609 0.975 1.104 533.829 o
-1 -4 4 50.335 47.475 5.420 14.689 o
-1 -4 5 3.030 7.977 3.252 62.873 o
-1 -4 6 30.868 17.893 1.727 81.468 o
-1 -4 7 79.830 70.003 6.299 8.607 o
-1 -4 8 127.793 113.990 8.085 4.127 o
-1 -4 9 2.740 4.787 2.103 148.128 o
-1 -4 10 52.181 51.532 5.820 12.954 o
-1 -4 11 10.857 12.883 3.286 56.776 o
-1 -4 12 29.314 26.170 4.868 22.983 o
-1 -4 13 12.915 22.692 5.318 22.423 o
-1 -3 1 16.361 14.671 1.506 154.896 o
-1 -3 2 95.357 78.303 5.370 8.251 o
-1 -3 3 28.096 28.386 3.727 34.321 o
-1 -3 4 11.157 9.517 2.459 95.794 o
-1 -3 5 37.678 44.176 6.096 14.067 o
-1 -3 6 1.139 -0.175 1.398 344.661 o
-1 -3 7 0.259 -2.743 1.623 259.206 o
-1 -3 8 22.338 19.160 3.721 39.150 o
-1 -3 9 47.240 44.087 5.312 15.773 o
-1 -3 10 0.950 1.475 1.409 336.405 o
-1 -3 11 0.189 0.669 1.648 250.794 o
-1 -3 12 8.654 11.284 3.778 45.034 o
-1 -3 13 21.795 24.518 5.409 20.526 o
-1 -3 14 4.181 1.785 3.213 65.049 o
-1 -2 1 7.501 4.405 1.311 308.431 o
-1 -2 2 181.252 180.608 7.128 2.586 o
-1 -2 3 195.206 192.224 8.207 2.187 o
-1 -2 4 2.424 2.984 2.128 146.665 o
-1 -2 5 14.625 11.953 2.495 86.478 o
-1 -2 6 1.469 0.387 1.269 412.657 o
-1 -2 7 206.531 215.194 10.173 1.762 o
-1 -2 8 0.416 1.286 1.401 343.842 o
-1 -2 9 271.356 287.502 13.146 1.026 o
-1 -2 10 26.718 24.734 4.331 28.525 o
-1 -2 11 14.666 18.025 4.628 29.035 o
-1 -2 12 1.284 4.564 2.227 134.646 o
-1 -2 13 39.199 48.804 7.548 9.794 o
-1 -2 14 17.299 24.928 5.092 23.488 o
-1 -1 1 222.813 224.276 4.553 1.988 o
-1 -1 2 296.865 333.419 10.211 0.951 o
-1 -1 3 78.232 71.164 2.177 15.587 o
-1 -1 4 88.492 74.057 2.402 12.889 o
-1 -1 5 352.698 399.006 11.812 0.678 o
-1 -1 6 46.235 48.923 4.537 18.832 o
-1 -1 7 52.358 47.083 5.164 15.313 o
-1 -1 8 63.858 59.615 6.038 10.798 o
-1 -1 9 86.773 85.462 7.661 6.281 o
-1 -1 10 191.401 189.343 12.390 1.753 o
-1 -1 11 3.310 6.400 3.146 67.286 o
-1 -1 12 0.237 4.583 3.380 59.487 o
-1 -1 13 8.076 3.458 2.877 77.897 o
-1 -1 14 10.687 7.796 3.821 44.014 o
-1 0 1 2267.580 2228.970 8.896 0.021 o
-1 0 2 30.317 24.332 0.933 98.168 o
-1 0 3 29.100 21.695 1.094 102.946 o
-1 0 4 4.168 2.576 0.524 1397.170 o
-1 0 5 431.880 417.530 9.251 0.545 o
-1 0 6 168.357 148.606 4.641 3.547 o
-1 0 7 31.910 43.986 2.531 43.111 o
-1 0 8 25.525 30.483 2.120 67.423 o
-1 0 9 8.879 8.695 3.304 58.356 o
-1 0 10 199.224 227.116 14.169 1.416 o
-1 0 11 16.326 18.727 4.816 26.658 o
-1 0 12 5.732 5.458 3.585 51.628 o
-1 0 13 2.282 0.568 2.610 99.319 o
-1 0 14 9.666 11.604 4.840 27.970 o
-1 0 15 0.455 -0.879 2.696 93.975 o
-1 1 1 132.568 125.685 3.411 5.533 o
-1 1 2 69.107 67.547 2.063 18.752 o
-1 1 3 0.085 1.273 0.598 1818.980 o
-1 1 4 261.154 277.298 6.492 1.366 o
-1 1 5 156.724 153.125 8.352 2.997 o
-1 1 6 43.534 50.949 5.450 15.290 o
-1 1 7 20.507 14.954 3.268 50.479 o
-1 1 8 90.399 91.553 8.344 5.473 o
-1 1 9 310.573 325.680 16.576 0.747 o
-1 1 10 0.030 4.950 3.109 70.234 o
-1 1 11 209.338 223.566 15.304 1.287 o
-1 1 12 4.426 9.164 4.056 40.511 o
-1 1 13 10.079 18.048 5.407 22.276 o
-1 1 14 0.116 4.760 3.520 54.892 o
-1 1 15 0.725 1.601 3.689 50.139 o
-1 2 1 9.660 11.893 1.136 290.910 o
-1 2 2 8.106 12.892 1.386 238.639 o
-1 2 3 80.269 94.615 3.977 10.585 o
-1 2 4 230.581 252.285 10.610 1.429 o
-1 2 5 78.553 94.899 7.084 6.994 o
-1 2 6 323.759 321.031 14.183 0.785 o
-1 2 7 498.881 498.507 18.733 0.352 o
-1 2 8 78.046 69.763 7.936 6.739 o
-1 2 9 9.903 11.697 3.329 56.282 o
-1 2 10 0.085 -2.005 2.882 82.392 o
-1 2 11 163.691 193.721 14.888 1.634 o
-1 2 12 39.982 34.569 6.946 11.630 o
-1 2 13 0.001 -0.952 3.128 69.967 o
-1 2 14 0.576 0.851 2.519 107.377 o
-1 3 1 107.134 117.515 3.842 7.119 o
-1 3 2 79.632 70.196 3.569 13.033 o
-1 3 3 10.316 7.564 2.187 120.439 o
-1 3 4 52.731 54.046 5.262 14.410 o
-1 3 5 23.129 24.782 4.050 32.885 o
-1 3 6 3.620 1.196 1.916 179.085 o
-1 3 7 68.682 74.662 7.820 7.181 o
-1 3 8 0.133 2.927 2.924 79.608 o
-1 3 9 4.972 -1.127 2.653 94.716 o
-1 3 10 62.113 77.650 8.886 6.219 o
-1 3 11 19.071 21.024 4.788 26.218 o
-1 3 12 54.837 58.020 9.065 6.583 o
-1 3 13 2.321 0.957 2.466 110.879 o
-1 3 14 0.992 -5.633 3.897 44.995 o
-1 4 1 120.975 116.573 12.292 2.785 o
-1 4 2 17.683 16.460 3.296 51.155 o
-1 4 3 0.501 2.137 1.870 193.155 o
-1 4 4 0.272 1.588 2.337 124.644 o
-1 4 5 26.402 24.057 4.345 28.560 o
-1 4 6 64.618 77.298 7.745 7.402 o
-1 4 7 5.922 6.580 2.845 80.012 o
-1 4 8 32.454 36.553 6.298 14.221 o
-1 4 9 62.209 62.051 8.573 6.831 o
-1 4 10 33.254 29.521 6.615 13.315 o
-1 4 11 8.420 0.568 2.433 107.935 o
-1 4 12 24.752 19.344 5.568 19.464 o
-1 4 13 20.418 24.868 5.685 18.933 o
-1 4 14 5.887 4.872 2.601 95.558 o
-1 5 1 0.919 1.791 1.222 442.521 o
-1 5 2 2.281 0.833 1.213 439.864 o
-1 5 3 1.625 0.461 1.400 339.940 o
-1 5 4 13.098 12.416 3.413 52.005 o
-1 5 5 5.032 2.476 2.562 100.271 o
-1 5 6 44.536 41.017 6.058 13.644 o
-1 5 7 1.708 1.227 2.420 115.415 o
-1 5 8 44.705 42.994 6.909 11.101 o
-1 5 9 8.618 9.825 3.645 48.442 o
-1 5 10 1.334 -4.437 3.109 70.539 o
-1 5 11 1.322 2.389 3.088 71.184 o
-1 5 12 3.928 7.807 4.508 33.094 o
-1 5 13 14.337 14.944 4.679 28.810 o
-1 6 1 0.234 -0.243 1.198 474.803 o
-1 6 2 35.594 39.904 3.847 27.575 o
-1 6 3 0.949 -1.242 1.430 330.584 o
-1 6 4 2.410 3.359 2.045 158.144 o
-1 6 5 2.881 4.478 2.058 154.331 o
-1 6 6 0.722 -0.156 1.861 196.506 o
-1 6 7 1.116 -2.672 2.225 137.340 o
-1 6 8 3.173 5.753 3.225 64.257 o
-1 6 9 1.042 2.240 2.866 82.676 o
-1 6 10 0.834 0.483 2.691 94.126 o
-1 6 11 4.413 0.818 2.429 112.515 o
-1 6 12 1.954 5.434 3.675 50.016 o
-1 7 7 8.441 9.582 3.892 42.881 o
-1 7 8 12.940 10.685 2.483 90.690 o
-1 7 9 0.015 3.331 2.702 93.108 o
-1 7 10 0.236 5.956 3.566 53.378 o
0 -8 6 2.764 -1.025 3.516 54.961 o
0 -8 7 5.944 -1.967 4.140 39.378 o
0 -7 1 3.923 6.579 2.271 124.922 o
0 -7 2 3.824 4.865 2.366 116.774 o
0 -7 4 2.613 -5.412 3.232 64.998 o
0 -7 5 16.443 18.273 4.276 32.992 o
0 -7 6 0.270 2.058 2.687 94.318 o
0 -7 7 0.099 -6.423 3.658 51.134 o
0 -7 8 8.289 12.058 3.878 42.873 o
0 -7 9 12.412 18.421 5.792 19.342 o
0 -6 1 34.140 51.174 4.991 18.809 o
0 -6 2 6.902 12.847 2.842 76.914 o
0 -6 3 100.014 129.265 8.558 4.461 o
0 -6 4 97.898 121.888 21.334 1.292 o
0 -6 5 8.746 5.544 2.569 94.356 o
0 -6 6 5.300 8.319 4.051 40.523 o
0 -6 7 26.605 27.185 2.993 47.287 o
0 -6 8 1.761 -0.160 3.623 51.923 o
0 -6 9 4.706 5.323 3.131 67.545 o
0 -6 10 9.973 6.322 2.820 78.149 o
0 -6 11 1.264 -4.386 4.140 39.852 o
0 -5 1 20.985 22.131 2.954 55.231 o
0 -5 2 0.115 3.041 1.390 345.837 o
0 -5 3 1.198 3.167 1.400 333.980 o
0 -5 4 45.111 57.262 8.937 7.060 o
0 -5 5 3.459 4.247 2.662 93.668 o
0 -5 6 17.848 20.079 4.213 33.209 o
0 -5 7 5.495 4.398 1.430 285.543 o
0 -5 8 15.999 12.701 3.823 41.329 o
0 -5 9 45.708 42.819 9.436 6.624 o
0 -5 10 2.358 5.522 4.345 35.874 o
0 -5 11 0.256 0.884 3.388 59.540 o
0 -5 12 0.690 15.033 6.062 18.429 o
0 -4 1 27.469 23.074 1.657 85.933 o
0 -4 2 132.768 154.780 4.233 4.651 o
0 -4 3 260.874 299.517 8.125 1.244 o
0 -4 4 44.942 51.908 3.882 22.141 o
0 -4 5 172.959 178.811 6.738 2.791 o
0 -4 6 0.967 -0.113 0.707 1301.680 o
0 -4 7 41.970 34.363 3.140 32.392 o
0 -4 8 7.045 9.206 1.938 154.897 o
0 -4 9 14.232 9.655 3.259 56.554 o
0 -4 10 4.106 3.645 2.864 81.033 o
0 -4 11 25.685 14.703 3.070 51.487 o
0 -4 12 1.377 2.449 1.635 248.304 o
0 -4 13 1.422 5.725 2.813 84.820 o
0 -3 1 0.042 1.551 0.547 2133.090 o
0 -3 2 530.089 559.568 6.993 0.358 o
0 -3 3 122.924 113.191 3.532 6.372 o
0 -3 4 5.060 8.700 1.314 310.485 o
0 -3 5 183.434 171.585 4.121 3.012 o
0 -3 6 1.579 -0.358 1.089 555.923 o
0 -3 7 35.379 31.567 3.837 29.346 o
0 -3 8 9.220 5.849 2.019 142.982 o
0 -3 9 118.429 117.650 8.328 4.225 o
0 -3 10 15.201 17.205 3.598 45.273 o
0 -3 11 0.294 -0.050 1.803 209.946 o
0 -3 12 13.142 14.179 3.975 39.239 o
0 -3 13 2.740 3.634 2.762 87.746 o
0 -3 14 0.008 2.124 2.073 158.250 o
0 -2 1 729.795 678.977 5.573 0.209 o
0 -2 2 84.179 85.002 2.477 12.601 o
0 -2 3 247.944 246.355 3.997 1.661 o
0 -2 4 546.982 557.212 8.347 0.341 o
0 -2 5 19.194 16.836 2.314 83.799 o
0 -2 6 286.268 323.411 10.536 0.998 o
0 -2 7 61.888 50.105 4.814 14.710 o
0 -2 8 19.560 17.276 3.168 52.828 o
0 -2 9 17.010 18.002 3.759 41.071 o
0 -2 10 77.769 78.451 7.843 6.656 o
0 -2 11 17.387 11.076 2.966 63.192 o
0 -2 12 0.021 -3.910 2.796 87.549 o
0 -2 13 9.031 15.978 4.621 30.305 o
0 -2 14 2.736 0.056 2.884 81.439 o
0 -1 1 0.280 2.339 0.820 958.710 o
0 -1 2 1190.300 1143.560 12.681 0.077 o
0 -1 3 447.141 411.222 6.356 0.546 o
0 -1 4 109.599 101.287 4.816 6.896 o
0 -1 5 226.582 228.850 8.157 1.704 o
0 -1 6 1.458 2.143 0.482 2196.240 o
0 -1 7 1.281 0.286 1.403 340.555 o
0 -1 8 15.127 11.076 3.292 54.592 o
0 -1 9 0.759 -2.280 2.191 141.974 o
0 -1 10 19.206 22.517 4.329 30.992 o
0 -1 11 4.595 4.265 2.703 90.108 o
0 -1 12 0.022 -2.504 2.589 102.123 o
0 -1 13 22.416 19.670 4.539 28.155 o
0 -1 14 4.159 1.631 2.618 97.145 o
0 -1 15 0.006 3.332 2.675 94.996 o
0 0 2 1167.070 1088.600 11.306 0.081 o
0 0 3 334.028 352.896 6.381 0.871 o
0 0 4 662.580 649.511 9.219 0.240 o
0 0 5 836.173 810.217 17.079 0.147 o
0 0 6 81.903 99.251 6.938 6.848 o
0 0 7 417.883 449.739 15.423 0.484 o
0 0 8 4.562 8.672 2.693 89.026 o
0 0 9 98.616 91.781 8.183 5.299 o
0 0 10 63.891 68.364 7.443 8.070 o
0 0 11 44.449 43.590 6.735 11.541 o
0 0 12 16.316 14.640 4.720 28.026 o
0 0 13 18.063 20.576 5.147 23.246 o
0 0 14 31.354 42.376 7.343 10.872 o
0 0 15 1.302 3.087 3.529 54.563 o
0 1 2 836.608 772.554 8.888 0.159 o
0 1 3 193.614 194.962 8.948 2.104 o
0 1 4 379.050 365.436 8.849 0.699 o
0 1 5 1.452 0.166 1.682 238.265 o
0 1 6 0.472 1.334 1.751 220.977 o
0 1 7 0.082 -2.084 2.181 143.872 o
0 1 8 0.197 -1.903 2.232 137.265 o
0 1 9 29.165 32.256 5.120 20.691 o
0 1 10 45.648 46.855 6.724 11.351 o
0 1 11 0.419 1.875 2.284 130.277 o
0 1 12 13.702 9.398 3.075 63.065 o
0 1 13 4.597 3.316 3.276 62.247 o
0 1 14 34.218 33.529 6.950 12.041 o
0 1 15 2.892 2.960 3.277 62.788 o
0 2 0 852.231 746.534 6.121 0.160 o
0 2 1 8616.140 8610.580 46.887 0.001 o
0 2 2 1228.850 1242.560 13.347 0.070 o
0 2 3 23.983 24.033 2.577 61.370 o
0 2 4 15.919 12.244 2.643 77.027 o
0 2 5 14.364 9.955 2.671 79.084 o
0 2 6 70.442 53.788 5.691 11.152 o
0 2 7 375.204 360.488 15.511 0.610 o
0 2 8 2.237 -0.337 2.233 135.356 o
0 2 9 25.896 37.992 5.631 17.796 o
0 2 10 41.006 32.289 6.330 13.518 o
0 2 11 19.907 20.721 5.225 22.358 o
0 2 12 39.834 48.019 7.282 10.364 o
0 2 13 3.103 1.350 2.211 136.295 o
0 2 14 8.703 4.858 3.609 50.170 o
0 2 15 7.993 13.596 5.501 21.915 o
0 3 0 0.222 0.475 0.543 2235.840 o
0 3 1 492.378 490.609 6.754 0.430 o
0 3 2 890.549 965.966 13.639 0.124 o
0 3 3 16.370 9.456 2.234 101.379 o
0 3 4 7.108 5.761 2.075 141.750 o
0 3 5 268.124 270.141 12.593 1.094 o
0 3 6 56.533 64.011 6.558 10.188 o
0 3 7 2.964 3.254 2.067 154.019 o
0 3 8 11.131 9.087 3.526 50.676 o
0 3 9 109.934 132.890 10.804 3.283 o
0 3 10 0.935 4.473 2.999 75.203 o
0 3 11 82.901 94.129 10.051 4.513 o
0 3 12 1.363 -2.456 3.008 75.302 o
0 3 13 0.846 1.849 3.126 69.672 o
0 3 14 0.003 -5.918 3.822 46.841 o
0 3 15 16.103 14.920 5.126 24.092 o
0 4 0 8.051 4.931 1.515 239.288 o
0 4 1 79.163 73.878 4.637 11.002 o
0 4 2 364.816 398.872 11.854 0.652 o
0 4 3 80.085 76.588 4.162 11.487 o
0 4 4 38.830 47.249 5.422 16.344 o
0 4 5 52.641 60.343 6.508 10.755 o
0 4 6 8.592 11.611 3.497 52.010 o
0 4 7 75.099 84.140 7.883 6.608 o
0 4 8 2.633 2.790 2.641 96.154 o
0 4 9 0.363 -2.071 2.553 104.880 o
0 4 10 1.563 5.202 2.868 81.708 o
0 4 11 47.562 60.827 8.567 7.408 o
0 4 12 29.579 43.789 7.573 10.362 o
0 4 13 9.336 8.392 4.135 38.151 o
0 4 14 1.748 7.754 4.879 28.483 o
0 5 0 32.667 35.517 3.699 31.034 o
0 5 1 47.813 51.280 4.461 18.577 o
0 5 2 0.320 1.588 1.504 298.422 o
0 5 3 44.651 59.303 5.230 15.322 o
0 5 4 20.174 19.050 2.533 71.179 o
0 5 5 1.935 3.537 2.311 125.102 o
0 5 6 4.536 4.602 3.147 67.078 o
0 5 7 0.577 3.183 2.422 115.370 o
0 5 8 6.167 6.252 2.476 103.759 o
0 5 9 10.302 7.831 3.221 60.639 o
0 5 10 27.556 31.074 5.817 17.069 o
0 5 11 14.804 21.685 5.316 22.275 o
0 5 12 25.095 38.333 7.047 12.170 o
0 5 13 0.952 -0.111 3.086 71.683 o
0 6 0 78.566 104.007 6.714 7.117 o
0 6 1 44.941 52.699 4.972 16.802 o
0 6 2 3.469 7.019 2.173 136.164 o
0 6 3 32.125 35.200 4.438 24.578 o
0 6 4 26.321 29.711 4.286 28.359 o
0 6 5 0.036 1.553 1.819 205.583 o
0 6 6 29.891 33.228 3.633 33.550 o
0 6 7 2.125 -0.694 2.035 162.711 o
0 6 8 13.004 11.120 3.699 45.316 o
0 6 9 8.046 11.203 4.177 37.400 o
0 6 10 7.854 6.765 3.624 49.737 o
0 6 11 6.886 2.931 2.164 134.689 o
0 6 12 8.814 9.845 4.221 36.644 o
0 7 0 0.561 -1.939 1.313 393.519 o
0 7 1 4.228 3.764 1.531 263.617 o
0 7 2 3.177 5.142 2.501 105.533 o
0 7 3 0.450 -1.752 1.707 234.069 o
0 7 4 0.006 1.035 1.660 247.279 o
0 7 5 2.224 -1.496 2.329 124.670 o
0 7 6 2.320 1.846 1.963 172.755 o
0 7 7 1.639 -2.010 2.581 102.031 o
0 7 8 14.978 14.728 2.838 68.454 o
0 7 9 3.878 3.704 3.667 50.036 o
0 7 10 1.690 4.822 3.108 69.811 o
0 7 11 1.244 1.514 3.545 54.216 o
0 8 6 2.545 6.142 2.459 109.103 o
0 8 7 0.109 -1.177 1.787 214.163 o
0 8 8 0.062 -1.269 2.636 98.448 o
0 8 9 0.334 4.421 2.375 119.650 o
1 -7 6 2.483 11.576 4.369 35.139 o
1 -7 7 0.041 2.400 3.181 67.389 o
1 -7 8 5.780 10.429 4.188 37.719 o
1 -6 0 63.571 82.011 4.918 11.911 o
1 -6 5 30.270 27.344 6.109 15.623 o
1 -6 6 8.512 11.341 3.851 43.493 o
1 -6 7 9.954 10.300 3.726 45.965 o
1 -6 8 0.520 1.607 2.882 82.031 o
1 -6 9 4.260 0.363 2.510 105.885 o
1 -6 10 2.793 11.422 5.033 26.592 o
1 -5 0 20.898 26.125 2.509 66.073 o
1 -5 1 2.570 3.789 1.032 556.976 o
1 -5 2 99.734 137.576 7.027 5.135 o
1 -5 3 0.291 -3.752 3.710 49.683 o
1 -5 4 8.642 5.194 3.056 68.671 o
1 -5 5 7.001 3.987 3.514 53.489 o
1 -5 6 4.087 2.465 2.626 96.328 o
1 -5 7 2.198 -1.148 2.880 81.833 o
1 -5 8 11.952 19.183 5.215 23.586 o
1 -5 9 37.940 45.198 7.464 10.142 o
1 -5 10 5.399 2.548 3.014 73.035 o
1 -5 11 0.948 -6.494 4.285 37.225 o
1 -4 0 167.257 172.729 13.687 1.828 o
1 -4 1 5.467 3.037 0.671 904.870 o
1 -4 2 0.164 -1.040 0.624 1741.550 o
1 -4 3 88.302 86.970 3.694 10.424 o
1 -4 4 348.160 378.980 10.024 0.739 o
1 -4 5 17.316 17.622 1.996 104.714 o
1 -4 6 0.946 1.198 2.761 89.289 o
1 -4 7 62.014 59.328 11.676 4.220 o
1 -4 8 2.094 0.838 1.054 575.522 o
1 -4 9 5.101 6.459 2.063 147.050 o
1 -4 10 40.929 36.848 6.674 12.248 o
1 -4 11 6.315 -3.776 3.083 70.054 o
1 -4 12 1.178 1.707 3.664 50.753 o
1 -3 0 42.471 39.200 1.732 44.644 o
1 -3 1 10.465 7.507 1.309 260.610 o
1 -3 2 120.314 108.492 7.287 4.786 o
1 -3 3 13.364 9.997 1.162 249.603 o
1 -3 4 20.902 21.447 1.360 126.147 o
1 -3 5 0.427 -0.155 0.722 1286.250 o
1 -3 6 12.467 10.242 1.709 162.295 o
1 -3 7 9.711 10.310 2.006 136.698 o
1 -3 8 25.427 26.696 2.951 49.343 o
1 -3 9 77.591 73.885 5.306 10.094 o
1 -3 10 17.091 19.399 3.404 48.029 o
1 -3 11 24.313 25.867 3.870 34.611 o
1 -3 12 0.313 -3.568 2.582 102.548 o
1 -3 13 0.019 3.736 5.493 22.642 o
1 -2 0 83.452 78.391 2.000 13.896 o
1 -2 1 152.973 135.603 9.558 2.928 o
1 -2 2 201.595 201.841 5.938 2.283 o
1 -2 3 254.314 260.911 3.159 1.572 o
1 -2 4 21.850 16.506 1.044 156.771 o
1 -2 5 854.085 903.969 11.413 0.138 o
1 -2 6 68.975 78.228 2.894 15.613 o
1 -2 7 185.681 191.736 4.753 2.713 o
1 -2 8 1.585 2.159 0.906 756.421 o
1 -2 9 5.193 6.856 1.043 454.934 o
1 -2 10 10.686 10.833 3.247 58.703 o
1 -2 11 179.705 180.759 9.636 2.248 o
1 -2 12 0.584 2.296 2.055 160.146 o
1 -2 13 0.037 -1.677 1.790 213.528 o
1 -2 14 0.123 2.646 4.336 36.318 o
1 -1 0 85.990 74.395 1.695 14.108 o
1 -1 1 11.844 9.737 1.476 203.154 o
1 -1 2 446.495 424.784 6.465 0.535 o
1 -1 3 6.428 5.684 0.561 877.578 o
1 -1 4 0.483 0.111 0.432 3415.350 o
1 -1 5 318.562 316.228 4.775 1.017 o
1 -1 6 110.253 108.652 3.923 7.165 o
1 -1 7 99.097 85.671 6.582 6.620 o
1 -1 8 40.599 41.545 2.693 35.415 o
1 -1 9 257.564 257.168 6.844 1.440 o
1 -1 10 4.392 2.763 2.134 142.989 o
1 -1 11 9.405 9.764 3.399 54.858 o
1 -1 12 12.246 11.547 4.224 35.664 o
1 -1 13 0.972 -0.350 1.940 180.657 o
1 -1 14 0.063 -0.703 2.406 118.177 o
1 0 0 580.246 570.303 5.993 0.317 o
1 0 1 2033.770 1914.590 9.521 0.027 o
1 0 2 128.437 126.403 4.073 5.499 o
1 0 3 340.208 324.910 8.634 0.859 o
1 0 4 331.787 329.336 6.607 0.914 o
1 0 5 63.583 54.624 3.115 19.485 o
1 0 6 1133.590 1186.010 21.837 0.077 o
1 0 7 0.161 -1.149 2.037 164.716 o
1 0 8 21.596 13.395 3.218 51.508 o
1 0 9 1.061 -0.273 1.974 174.354 o
1 0 10 1.866 -0.778 1.937 179.731 o
1 0 11 10.358 5.745 2.520 95.554 o
1 0 12 97.043 94.868 10.163 4.136 o
1 0 13 2.453 2.313 2.271 129.538 o
1 0 14 3.237 0.063 2.288 128.047 o
1 0 15 4.066 5.258 3.660 50.017 o
1 1 0 197.250 197.418 3.930 2.546 o
1 1 1 155.045 141.711 2.421 4.422 o
1 1 2 840.816 843.420 7.448 0.150 o
1 1 3 147.341 157.340 4.983 3.936 o
1 1 4 114.342 108.327 5.110 6.222 o
1 1 5 105.541 118.907 6.905 5.338 o
1 1 6 24.347 25.240 3.692 37.261 o
1 1 7 27.954 30.046 4.262 28.058 o
1 1 8 76.683 74.461 6.991 7.768 o
1 1 9 156.683 168.678 11.025 2.354 o
1 1 10 81.376 73.521 8.430 6.048 o
1 1 11 2.589 -1.372 2.845 83.723 o
1 1 12 15.892 16.189 4.536 30.057 o
1 1 13 8.059 6.903 2.699 86.229 o
1 1 14 0.204 -1.410 3.364 60.437 o
1 1 15 0.001 0.465 2.380 120.713 o
1 2 0 8604.680 8068.670 29.942 0.002 o
1 2 1 463.183 455.544 7.397 0.484 o
1 2 2 1561.630 1521.620 14.959 0.044 o
1 2 3 184.120 173.805 5.630 2.796 o
1 2 4 548.592 572.864 14.939 0.311 o
1 2 5 439.695 458.181 14.441 0.462 o
1 2 6 15.577 13.316 2.580 79.744 o
1 2 7 708.317 795.034 21.682 0.174 o
1 2 8 86.524 86.603 7.784 6.160 o
1 2 9 0.407 6.009 3.284 62.804 o
1 2 10 33.871 42.781 6.273 13.892 o
1 2 11 0.000 4.018 3.219 65.688 o
1 2 12 12.675 8.626 3.559 49.286 o
1 2 13 12.474 15.808 4.739 28.375 o
1 2 14 2.181 5.562 2.972 75.834 o
1 2 15 0.353 -0.197 2.847 84.345 o
1 3 0 13.070 9.485 1.496 192.197 o
1 3 1 501.014 422.625 11.345 0.435 o
1 3 2 663.030 641.306 15.097 0.230 o
1 3 3 54.475 45.604 4.549 17.393 o
1 3 4 10.658 13.121 3.149 61.294 o
1 3 5 76.917 76.191 6.453 8.386 o
1 3 6 5.639 7.833 2.684 88.975 o
1 3 7 14.639 14.516 3.344 52.415 o
1 3 8 0.565 1.268 2.020 166.425 o
1 3 9 7.693 7.023 2.848 78.331 o
1 3 10 8.082 11.889 3.685 47.288 o
1 3 11 2.534 2.833 2.371 118.805 o
1 3 12 3.031 0.950 2.144 145.155 o
1 3 13 0.232 4.064 2.728 91.135 o
1 3 14 1.026 -2.109 3.577 53.363 o
1 3 15 0.347 -2.685 3.205 66.571 o
1 4 0 331.365 289.717 10.794 0.894 o
1 4 1 1578.960 1736.120 25.449 0.039 o
1 4 2 716.289 789.148 12.809 0.187 o
1 4 3 76.716 80.469 6.200 8.585 o
1 4 4 0.719 1.961 1.315 384.930 o
1 4 5 69.308 70.262 6.781 8.645 o
1 4 6 114.486 132.469 9.432 3.697 o
1 4 7 187.107 196.555 11.841 1.820 o
1 4 8 8.551 8.130 3.465 53.651 o
1 4 9 49.802 55.691 6.847 10.415 o
1 4 10 0.820 1.904 2.364 121.314 o
1 4 11 7.869 5.273 2.897 76.399 o
1 4 12 5.225 3.465 2.940 76.498 o
1 4 13 7.204 0.122 2.097 144.986 o
1 4 14 1.220 -5.351 3.794 47.443 o
1 5 0 10.279 10.507 2.349 104.169 o
1 5 1 102.832 90.640 6.766 6.163 o
1 5 2 642.096 590.581 9.440 0.265 o
1 5 3 19.141 19.867 2.005 96.424 o
1 5 4 4.741 5.072 2.606 96.206 o
1 5 5 37.694 34.222 4.891 20.312 o
1 5 6 107.573 112.109 6.472 5.651 o
1 5 7 19.674 23.650 4.682 26.871 o
1 5 8 3.021 -1.210 2.405 116.303 o
1 5 9 29.475 27.154 5.102 21.203 o
1 5 10 0.140 -1.288 2.627 99.099 o
1 5 11 6.527 6.144 2.572 96.289 o
1 5 12 0.754 2.223 2.507 107.958 o
1 5 13 2.631 -2.479 2.894 80.908 o
1 6 0 7.062 9.889 2.928 73.818 o
1 6 1 32.065 37.849 4.793 21.718 o
1 6 2 172.112 192.327 10.691 2.118 o
1 6 3 148.688 178.348 10.175 2.551 o
1 6 4 25.608 23.429 4.164 30.888 o
1 6 5 12.927 15.624 3.625 46.074 o
1 6 6 5.137 3.830 2.432 109.908 o
1 6 7 0.059 -4.103 2.997 76.171 o
1 6 8 15.381 20.714 3.443 47.735 o
1 6 9 3.330 4.373 2.818 83.878 o
1 6 10 3.066 -0.367 2.768 88.159 o
1 6 11 1.625 6.065 4.235 37.793 o
1 6 12 7.415 7.643 3.541 51.995 o
1 6 13 4.322 12.616 4.735 29.759 o
1 7 0 2.951 5.337 2.396 114.730 o
1 7 1 2.417 4.938 2.354 119.521 o
1 7 2 1.333 2.402 2.107 151.477 o
1 7 3 89.864 93.933 7.897 5.785 o
1 7 4 4.822 5.088 2.479 105.699 o
1 7 5 0.133 4.357 3.231 65.124 o
1 7 6 1.590 -0.723 1.965 175.111 o
1 7 7 12.527 13.657 4.157 36.398 o
1 7 8 15.439 17.509 4.066 36.475 o
1 7 9 7.667 9.686 3.541 51.524 o
1 7 10 6.315 2.747 1.904 172.152 o
1 7 11 5.497 4.235 3.696 48.860 o
1 8 0 5.714 8.697 2.818 80.822 o
1 8 1 0.249 1.291 2.054 161.323 o
1 8 2 1.739 4.079 2.632 96.925 o
1 8 3 24.570 29.247 4.837 23.878 o
1 8 4 41.030 45.569 6.224 13.229 o
1 8 5 0.043 -1.685 2.233 137.258 o
1 8 6 10.998 11.391 3.537 49.974 o
1 8 7 8.532 10.177 3.589 49.827 o
1 8 8 0.004 -2.722 3.187 67.388 o
1 8 9 0.019 0.905 2.674 95.588 o
1 9 5 1.107 3.679 2.181 141.019 o
1 9 6 0.507 -1.164 2.179 143.772 o
1 9 7 0.797 2.517 1.918 182.903 o
2 -6 7 1.159 -0.919 3.443 57.575 o
2 -6 8 0.304 3.029 3.791 47.453 o
2 -6 9 0.483 -4.217 3.305 62.575 o
2 -5 5 2.494 -0.486 3.545 54.119 o
2 -5 6 36.921 47.030 7.921 9.189 o
2 -5 7 0.718 -3.810 3.884 45.309 o
2 -5 8 7.113 2.929 3.987 41.957 o
2 -5 9 3.975 7.567 4.128 39.341 o
2 -5 10 0.049 2.831 3.790 47.515 o
2 -4 0 352.090 352.194 7.982 0.795 o
2 -4 1 23.772 19.117 1.348 119.106 o
2 -4 4 75.965 84.179 9.365 5.275 o
2 -4 5 189.348 196.346 13.953 1.577 o
2 -4 6 4.281 5.570 3.986 42.249 o
2 -4 7 41.030 44.221 7.171 10.668 o
2 -4 8 2.925 3.932 3.609 51.820 o
2 -4 9 0.001 -1.061 3.192 67.185 o
2 -4 10 6.232 0.935 3.977 42.505 o
2 -4 11 0.348 -0.359 4.014 42.450 o
2 -4 12 2.324 3.758 4.167 39.083 o
2 -3 0 344.781 329.938 6.324 0.874 o
2 -3 4 2.522 1.718 0.598 1450.160 o
2 -3 5 57.455 57.297 4.196 16.887 o
2 -3 6 0.532 0.974 0.781 1072.350 o
2 -3 7 57.971 64.844 3.170 19.440 o
2 -3 8 19.139 21.637 2.622 67.607 o
2 -3 9 38.590 40.478 7.005 11.366 o
2 -3 10 2.879 6.721 3.520 54.093 o
2 -3 11 6.861 14.797 5.145 24.988 o
2 -3 12 3.335 9.886 4.727 30.102 o
2 -3 13 0.947 -10.452 5.100 26.289 o
2 -2 0 32.597 26.753 4.315 26.658 o
2 -2 1 186.747 200.133 8.540 2.200 o
2 -2 2 50.357 61.768 4.726 15.969 o
2 -2 3 16.852 11.995 1.079 214.933 o
2 -2 4 108.205 127.951 5.515 5.804 o
2 -2 5 2.494 1.367 0.693 1167.940 o
2 -2 6 138.694 144.433 4.379 4.583 o
2 -2 7 83.284 93.381 3.834 10.476 o
2 -2 8 0.382 -1.265 0.962 732.038 o
2 -2 9 3.471 4.817 1.306 351.861 o
2 -2 10 9.468 4.321 1.966 151.158 o
2 -2 11 28.084 30.556 6.150 15.501 o
2 -2 12 8.919 8.413 3.964 41.435 o
2 -2 13 4.258 15.519 5.253 24.190 o
2 -1 0 3.732 5.385 0.530 1238.100 o
2 -1 1 742.837 826.131 8.400 0.178 o
2 -1 2 437.417 433.400 8.393 0.531 o
2 -1 3 77.463 82.444 2.329 14.291 o
2 -1 4 161.633 184.902 3.443 3.431 o
2 -1 5 46.229 38.076 2.742 32.479 o
2 -1 6 155.104 156.915 5.624 3.590 o
2 -1 7 0.000 1.128 0.951 744.198 o
2 -1 8 2.806 5.461 1.276 370.441 o
2 -1 9 132.024 128.537 5.071 4.932 o
2 -1 10 0.512 0.200 0.889 848.405 o
2 -1 11 29.241 27.118 3.756 33.725 o
2 -1 12 3.658 -3.324 2.379 118.304 o
2 -1 13 1.278 -4.547 2.226 137.078 o
2 -1 14 0.356 9.793 5.279 24.378 o
2 0 0 170.084 167.286 3.570 3.424 o
2 0 1 0.891 -0.680 0.704 1317.020 o
2 0 2 25.759 23.809 1.584 92.393 o
2 0 3 0.479 0.819 0.671 1442.360 o
2 0 4 158.493 174.258 4.443 3.505 o
2 0 5 204.972 204.277 5.258 2.280 o
2 0 6 19.955 15.395 2.079 95.855 o
2 0 7 4.542 3.575 1.344 330.280 o
2 0 8 0.217 2.437 1.619 256.991 o
2 0 9 12.004 16.156 2.790 72.774 o
2 0 10 1.502 1.196 1.518 288.918 o
2 0 11 108.333 113.559 7.477 5.013 o
2 0 12 0.237 4.752 2.548 104.131 o
2 0 13 8.302 3.826 5.550 21.833 o
2 0 14 4.053 5.965 3.602 51.508 o
2 1 0 4.159 2.234 1.598 248.158 o
2 1 1 49.233 42.866 2.454 31.437 o
2 1 2 0.504 -0.103 0.747 1197.350 o
2 1 3 172.834 180.324 3.796 3.180 o
2 1 4 0.516 2.655 1.208 452.172 o
2 1 5 1.245 0.608 1.093 551.983 o
2 1 6 60.256 75.503 4.433 13.961 o
2 1 7 4.362 2.153 1.478 285.314 o
2 1 8 16.545 16.401 2.735 69.825 o
2 1 9 94.585 89.678 8.139 5.508 o
2 1 10 6.799 6.322 2.466 103.684 o
2 1 11 2.164 -2.068 2.231 135.697 o
2 1 12 30.912 33.008 6.406 14.112 o
2 1 13 4.342 5.485 3.236 63.447 o
2 1 14 1.990 -1.200 2.126 149.476 o
2 2 0 135.977 129.575 6.428 4.291 o
2 2 1 251.450 236.521 8.704 1.459 o
2 2 2 0.311 1.118 1.490 305.078 o
2 2 3 20.013 18.825 1.740 110.854 o
2 2 4 35.586 30.495 2.383 48.288 o
2 2 5 0.044 -0.678 1.056 613.585 o
2 2 6 311.372 327.152 8.843 0.946 o
2 2 7 0.330 1.296 1.783 213.554 o
2 2 8 1.359 1.333 1.803 206.781 o
2 2 9 2.457 -0.697 2.060 158.376 o
2 2 10 3.113 3.083 2.141 143.845 o
2 2 11 25.424 21.425 5.122 22.239 o
2 2 12 73.859 70.308 8.615 6.207 o
2 2 13 10.638 7.783 3.714 46.435 o
2 2 14 0.201 2.489 3.165 68.059 o
2 3 0 33.845 25.128 3.551 34.594 o
2 3 1 14.742 18.172 2.974 62.106 o
2 3 2 53.048 58.771 5.110 14.498 o
2 3 3 2.288 4.797 2.120 146.562 o
2 3 4 0.731 -0.230 0.968 716.450 o
2 3 5 5.338 2.381 1.347 327.160 o
2 3 6 1.254 -0.060 1.735 224.801 o
2 3 7 41.521 35.795 4.857 19.584 o
2 3 8 9.619 6.169 2.878 75.665 o
2 3 9 128.339 142.797 10.733 2.948 o
2 3 10 29.326 22.697 4.508 26.366 o
2 3 11 11.743 8.710 3.316 56.504 o
2 3 12 1.379 -0.295 2.010 167.834 o
2 3 13 36.804 29.534 6.411 13.736 o
2 3 14 0.122 -1.451 1.990 172.616 o
2 4 0 146.406 134.136 6.053 4.028 o
2 4 1 18.780 21.792 3.921 36.866 o
2 4 2 372.599 384.353 13.694 0.623 o
2 4 3 27.833 34.964 4.675 23.829 o
2 4 4 19.717 21.865 4.222 32.267 o
2 4 5 1.720 0.536 2.236 135.266 o
2 4 6 1.797 -2.062 2.282 130.145 o
2 4 7 300.291 322.053 15.832 0.796 o
2 4 8 62.848 63.037 7.483 8.215 o
2 4 9 1.004 4.206 3.162 67.746 o
2 4 10 6.166 3.342 2.734 87.328 o
2 4 11 14.538 19.027 4.839 26.705 o
2 4 12 8.637 10.409 3.968 41.187 o
2 4 13 20.026 13.126 4.555 29.279 o
2 4 14 4.237 -0.177 3.407 58.179 o
2 5 0 50.374 52.988 5.494 14.066 o
2 5 1 0.044 2.420 2.470 111.498 o
2 5 2 155.820 168.813 9.941 2.565 o
2 5 3 1.856 1.795 2.205 138.243 o
2 5 4 16.434 21.987 4.217 33.280 o
2 5 5 0.815 1.675 2.737 90.749 o
2 5 6 5.961 6.119 3.087 68.609 o
2 5 7 21.218 17.793 3.841 37.960 o
2 5 8 7.758 6.396 1.990 150.023 o
2 5 9 4.612 4.055 2.822 82.960 o
2 5 10 19.857 18.614 4.626 27.943 o
2 5 11 1.001 2.522 2.721 91.596 o
2 5 12 1.685 1.030 2.120 150.104 o
2 5 13 0.112 -0.379 2.481 111.131 o
2 6 0 113.418 126.274 9.043 3.941 o
2 6 1 39.521 46.477 5.724 15.091 o
2 6 2 98.361 108.377 8.594 4.787 o
2 6 3 64.350 67.926 6.948 8.794 o
2 6 4 0.180 3.395 2.693 93.634 o
2 6 5 0.667 2.684 2.116 150.812 o
2 6 6 9.388 4.491 2.889 75.963 o
2 6 7 13.728 10.143 3.574 48.112 o
2 6 8 23.140 32.563 6.024 16.446 o
2 6 9 33.858 36.776 6.231 14.330 o
2 6 10 1.792 1.434 1.688 233.697 o
2 6 11 1.473 1.086 2.152 145.906 o
2 6 12 2.488 1.739 1.740 217.938 o
2 7 0 0.032 2.315 2.096 154.695 o
2 7 1 0.131 -0.950 1.784 214.886 o
2 7 2 54.632 61.243 7.057 9.466 o
2 7 3 12.550 17.106 4.162 35.856 o
2 7 4 13.133 11.067 3.491 50.264 o
2 7 5 0.012 -2.282 2.555 104.839 o
2 7 6 14.124 10.768 3.302 54.996 o
2 7 7 0.409 2.422 3.248 64.600 o
2 7 8 9.960 11.689 4.102 38.216 o
2 7 9 14.297 10.117 2.916 68.275 o
2 7 10 0.059 -1.683 2.590 101.974 o
2 7 11 0.057 10.043 4.860 28.741 o
2 8 0 0.723 1.131 2.204 139.870 o
2 8 1 16.564 9.842 3.152 58.244 o
2 8 2 7.903 4.501 1.804 180.580 o
2 8 3 41.549 44.411 6.440 12.572 o
2 8 4 17.701 10.736 3.681 43.856 o
2 8 5 4.274 1.107 2.115 147.068 o
2 8 6 0.013 -2.235 2.629 99.036 o
2 8 7 0.001 0.177 2.158 146.833 o
2 8 8 1.490 -0.485 2.339 124.186 o
2 8 9 0.033 2.064 3.482 56.318 o
2 9 0 0.835 1.447 2.028 164.615 o
2 9 1 0.775 1.955 2.184 141.967 o
2 9 2 0.081 -1.477 1.768 218.858 o
2 9 3 21.739 24.680 4.674 26.388 o
2 9 4 0.553 -3.393 2.785 88.067 o
2 9 5 2.063 -8.001 3.769 47.966 o
2 9 6 0.028 2.230 2.589 101.647 o
2 9 7 3.269 4.966 2.546 101.903 o
3 -5 8 0.790 1.335 4.141 39.809 o
3 -5 9 28.555 31.038 6.413 14.360 o
3 -4 7 0.008 4.448 4.208 38.511 o
3 -4 8 0.856 -0.392 3.292 63.023 o
3 -4 9 5.371 9.963 5.098 25.785 o
3 -4 10 10.886 3.505 3.515 52.214 o
3 -3 0 14.900 6.393 1.324 219.962 o
3 -3 1 6.451 4.558 2.085 143.376 o
3 -3 2 29.822 30.500 4.384 26.299 o
3 -3 3 0.134 0.077 1.684 241.090 o
3 -3 4 66.040 70.306 6.389 9.498 o
3 -3 5 3.447 2.210 1.343 347.123 o
3 -3 6 186.415 237.082 9.389 1.917 o
3 -3 7 1.346 4.316 1.476 297.951 o
3 -3 8 5.073 5.169 1.833 184.425 o
3 -3 9 3.097 6.167 3.754 47.697 o
3 -3 10 13.635 22.614 5.922 18.291 o
3 -3 11 20.648 32.813 6.534 14.422 o
3 -2 0 458.686 471.358 6.168 0.485 o
3 -2 1 11.158 12.773 2.653 82.195 o
3 -2 2 70.460 38.225 13.593 3.267 o
3 -2 3 91.624 72.722 9.293 5.051 o
3 -2 4 27.506 22.495 1.730 83.966 o
3 -2 5 202.750 198.803 9.757 1.906 o
3 -2 6 5.883 5.221 1.210 365.389 o
3 -2 7 188.294 189.672 7.997 2.311 o
3 -2 8 12.909 17.209 2.745 73.137 o
3 -2 9 2.163 2.039 3.750 48.316 o
3 -2 10 0.688 5.571 4.425 34.742 o
3 -2 11 19.335 29.230 6.834 13.482 o
3 -2 12 2.277 13.083 4.853 28.537 o
3 -1 0 365.026 430.838 5.421 0.691 o
3 -1 1 0.393 -0.220 0.664 1519.470 o
3 -1 2 183.030 224.024 4.145 2.544 o
3 -1 3 60.697 71.755 2.380 20.000 o
3 -1 4 10.374 6.693 1.328 260.686 o
3 -1 5 107.065 112.041 5.202 6.470 o
3 -1 6 4.841 3.210 0.823 720.255 o
3 -1 7 259.426 293.849 9.948 1.194 o
3 -1 8 37.701 41.514 4.173 24.072 o
3 -1 9 29.848 32.139 3.386 36.988 o
3 -1 10 2.562 2.080 2.885 81.015 o
3 -1 11 0.003 5.443 2.771 88.114 o
3 -1 12 3.525 1.319 3.125 69.018 o
3 -1 13 0.078 -7.925 3.727 49.275 o
3 0 0 26.250 29.629 2.377 60.121 o
3 0 1 366.461 389.490 8.309 0.707 o
3 0 2 53.951 49.113 3.084 23.815 o
3 0 3 60.662 54.498 3.237 19.936 o
3 0 4 13.514 9.982 1.587 174.258 o
3 0 5 8.092 7.478 2.006 145.520 o
3 0 6 312.899 320.346 9.859 0.928 o
3 0 7 43.659 52.141 6.758 11.214 o
3 0 8 34.661 35.648 3.595 31.199 o
3 0 9 22.305 20.687 3.037 52.604 o
3 0 10 2.117 0.766 1.500 293.944 o
3 0 11 15.504 16.258 3.002 61.357 o
3 0 12 0.001 3.238 3.613 52.233 o
3 0 13 0.555 0.082 2.756 89.895 o
3 1 0 0.005 1.765 1.342 374.828 o
3 1 1 771.249 722.317 15.589 0.177 o
3 1 2 467.370 453.258 12.851 0.446 o
3 1 3 54.934 57.689 4.952 14.789 o
3 1 4 288.416 307.117 11.950 0.974 o
3 1 5 90.006 79.147 4.588 9.588 o
3 1 6 319.699 336.943 19.762 0.638 o
3 1 7 65.667 76.200 7.451 7.751 o
3 1 8 96.635 98.535 5.975 6.908 o
3 1 9 159.507 172.850 8.016 2.849 o
3 1 10 3.275 1.726 2.954 77.140 o
3 1 11 13.474 8.016 3.303 56.137 o
3 1 12 1.899 -0.630 1.898 187.074 o
3 1 13 0.158 1.155 1.776 215.760 o
3 1 14 0.133 0.779 3.566 53.758 o
3 2 0 425.512 379.232 12.437 0.555 o
3 2 1 22.831 18.409 2.761 60.645 o
3 2 2 166.026 194.911 5.893 2.897 o
3 2 3 3.356 7.387 1.520 261.181 o
3 2 4 195.479 203.705 10.610 1.858 o
3 2 5 35.643 36.707 3.181 34.884 o
3 2 6 6.729 4.424 3.959 42.463 o
3 2 7 91.145 93.089 5.479 7.899 o
3 2 8 2.135 1.205 1.577 265.942 o
3 2 9 2.281 1.223 1.725 223.055 o
3 2 10 18.649 19.318 4.933 25.093 o
3 2 11 5.048 4.141 2.781 85.048 o
3 2 12 2.709 0.326 5.343 23.896 o
3 2 13 8.698 9.404 3.129 64.433 o
3 2 14 0.411 0.296 2.126 150.979 o
3 3 0 34.238 35.248 4.303 25.044 o
3 3 1 7.362 6.212 2.159 131.069 o
3 3 2 49.537 47.696 2.649 28.596 o
3 3 3 237.681 222.644 11.088 1.445 o
3 3 4 0.199 1.953 2.291 129.601 o
3 3 5 112.642 109.648 8.453 4.434 o
3 3 6 1.326 3.339 1.370 346.649 o
3 3 7 83.353 92.265 5.237 8.809 o
3 3 8 41.299 40.077 3.742 26.264 o
3 3 9 2.902 3.002 1.616 246.734 o
3 3 10 28.141 29.805 4.362 27.076 o
3 3 11 32.499 33.257 4.084 27.759 o
3 3 12 6.293 5.801 3.067 69.355 o
3 3 13 5.179 3.137 1.865 181.523 o
3 3 14 2.620 2.497 3.086 70.842 o
3 4 0 7.059 7.976 2.456 103.044 o
3 4 1 13.848 8.811 2.943 68.156 o
3 4 2 16.177 15.069 3.405 49.786 o
3 4 3 96.481 100.681 8.054 5.304 o
3 4 4 39.563 44.100 5.546 15.947 o
3 4 5 24.884 31.478 5.129 21.434 o
3 4 6 2.421 2.196 1.185 449.166 o
3 4 7 14.543 13.789 1.989 118.689 o
3 4 8 75.551 80.995 4.900 10.582 o
3 4 9 0.021 -0.115 1.575 275.839 o
3 4 10 1.263 0.355 2.215 138.408 o
3 4 11 33.726 31.565 4.552 23.755 o
3 4 12 1.470 2.561 3.102 70.472 o
3 4 13 1.711 1.345 2.667 95.263 o
3 5 0 10.936 13.711 3.462 51.429 o
3 5 1 9.509 8.546 2.966 70.826 o
3 5 2 8.224 7.929 3.222 61.709 o
3 5 3 9.942 7.439 2.824 77.490 o
3 5 4 22.249 18.340 4.323 30.799 o
3 5 5 0.544 0.642 2.363 122.104 o
3 5 6 30.269 26.348 5.188 20.572 o
3 5 7 0.013 3.977 2.863 82.896 o
3 5 8 5.711 5.201 3.152 66.236 o
3 5 9 2.054 4.721 2.973 76.036 o
3 5 10 1.804 -0.947 2.140 147.754 o
3 5 11 0.394 -4.195 2.885 82.139 o
3 5 12 9.762 12.188 4.664 29.960 o
3 5 13 7.561 3.971 2.295 118.955 o
3 6 0 1.890 1.579 2.660 95.569 o
3 6 1 0.163 0.180 2.186 143.043 o
3 6 2 15.428 17.726 4.110 35.766 o
3 6 3 2.897 0.602 2.399 116.802 o
3 6 4 2.559 2.973 2.571 101.303 o
3 6 5 4.927 6.734 2.740 86.596 o
3 6 6 0.036 -0.649 2.373 121.469 o
3 6 7 18.741 22.323 4.559 28.495 o
3 6 8 5.116 3.588 2.799 84.116 o
3 6 9 18.566 15.359 4.739 27.344 o
3 6 10 2.705 4.716 3.057 71.724 o
3 6 11 2.682 3.329 2.566 101.466 o
3 6 12 8.418 13.238 5.419 22.540 o
3 7 0 3.073 3.657 2.408 114.385 o
3 7 1 6.036 0.879 2.002 159.788 o
3 7 2 11.887 17.309 4.628 29.621 o
3 7 3 2.290 6.709 2.454 109.515 o
3 7 4 6.116 9.655 3.236 61.794 o
3 7 5 4.616 7.440 3.235 63.018 o
3 7 6 7.368 8.292 3.531 52.179 o
3 7 7 0.674 2.342 2.580 101.970 o
3 7 8 0.232 -2.330 2.086 157.055 o
3 7 9 5.696 6.213 3.540 52.792 o
3 7 10 0.561 5.042 3.236 64.733 o
3 8 0 13.828 18.870 4.308 33.150 o
3 8 1 0.000 3.589 2.354 122.375 o
3 8 2 5.636 3.595 1.899 173.666 o
3 8 3 9.688 14.406 4.525 31.557 o
3 8 4 0.885 5.147 2.749 89.172 o
3 8 5 1.695 4.073 2.867 81.946 o
3 8 6 0.043 -1.471 2.474 111.823 o
3 8 7 0.446 7.428 3.269 63.164 o
3 8 8 4.833 5.983 3.718 48.236 o
3 8 9 7.100 9.440 3.776 45.824 o
3 9 0 1.472 -3.523 3.465 56.791 o
3 9 1 0.193 -2.056 2.541 105.900 o
3 9 2 1.453 2.337 2.488 109.140 o
3 9 3 2.256 0.501 2.081 155.210 o
3 9 4 7.270 7.207 3.301 59.562 o
3 9 5 0.226 -4.428 3.339 61.370 o
3 9 6 0.018 5.730 3.885 45.061 o
4 -3 0 87.548 90.919 8.433 5.516 o
4 -3 1 27.856 23.804 4.337 28.262 o
4 -3 2 55.746 50.575 6.094 11.890 o
4 -3 3 20.355 17.968 3.852 38.088 o
4 -3 4 5.355 3.443 2.262 126.056 o
4 -3 5 77.421 74.491 7.284 7.375 o
4 -3 6 5.517 3.053 2.163 137.147 o
4 -3 7 0.725 0.985 1.540 284.670 o
4 -3 8 0.459 1.743 1.385 350.043 o
4 -3 10 8.761 11.432 4.773 28.848 o
4 -2 0 80.977 77.897 3.774 11.887 o
4 -2 1 2.176 -0.947 1.613 256.666 o
4 -2 2 5.806 7.049 2.445 106.113 o
4 -2 3 17.786 20.510 3.934 37.260 o
4 -2 4 0.987 5.736 2.430 113.345 o
4 -2 5 7.528 7.588 2.695 86.679 o
4 -2 6 100.041 89.780 7.743 5.587 o
4 -2 7 0.131 2.133 1.655 246.855 o
4 -2 8 1.207 -0.532 1.287 405.270 o
4 -2 9 10.129 12.170 2.613 85.997 o
4 -2 10 12.171 14.812 5.280 23.254 o
4 -2 11 7.315 7.282 3.057 68.795 o
4 -1 0 20.532 21.415 2.022 90.196 o
4 -1 1 44.522 41.742 3.145 29.131 o
4 -1 2 180.926 183.781 5.968 2.722 o
4 -1 3 2.083 2.754 1.079 533.818 o
4 -1 4 15.232 12.907 1.922 123.535 o
4 -1 5 30.458 24.107 2.493 55.540 o
4 -1 6 171.565 180.344 6.842 2.785 o
4 -1 7 18.286 19.476 3.948 37.055 o
4 -1 8 1.790 0.293 1.416 331.753 o
4 -1 9 5.868 3.942 1.548 248.036 o
4 -1 10 27.414 34.789 4.161 28.469 o
4 -1 11 40.267 63.408 9.785 6.108 o
4 -1 12 9.147 9.787 4.097 38.703 o
4 0 0 121.460 136.941 5.786 4.907 o
4 0 1 2.520 1.852 1.317 369.893 o
4 0 2 0.990 3.875 1.755 215.466 o
4 0 3 26.426 32.641 3.177 42.076 o
4 0 4 0.857 1.044 1.281 407.272 o
4 0 5 23.921 21.920 2.622 61.451 o
4 0 6 3.133 1.872 2.923 78.777 o
4 0 7 252.850 267.290 8.368 1.371 o
4 0 8 9.212 7.956 1.689 186.906 o
4 0 9 2.447 2.479 1.410 323.387 o
4 0 10 10.083 11.534 2.702 81.554 o
4 0 11 54.955 76.520 6.380 10.157 o
4 0 12 19.162 21.543 5.839 18.328 o
4 1 0 26.218 31.460 3.092 44.094 o
4 1 1 1.220 -0.746 1.416 335.665 o
4 1 2 32.827 39.998 4.156 25.934 o
4 1 3 25.336 21.417 3.429 42.035 o
4 1 4 0.354 -0.092 1.647 251.408 o
4 1 5 3.278 7.025 2.801 84.100 o
4 1 6 19.274 21.443 4.065 34.606 o
4 1 7 250.473 287.613 10.857 1.213 o
4 1 8 64.459 76.903 5.761 10.457 o
4 1 9 27.272 32.348 4.040 30.174 o
4 1 10 1.164 1.868 2.172 143.185 o
4 1 11 9.628 8.659 5.931 18.978 o
4 1 12 29.254 38.928 4.942 21.208 o
4 2 0 183.589 170.777 9.541 2.274 o
4 2 1 47.329 59.672 5.459 14.138 o
4 2 2 4.480 5.150 2.308 121.442 o
4 2 3 2.275 1.126 2.003 166.846 o
4 2 4 0.022 -1.510 2.675 95.635 o
4 2 5 6.802 7.407 2.628 91.583 o
4 2 6 49.858 47.205 6.179 12.416 o
4 2 7 14.122 14.274 4.007 38.359 o
4 2 8 92.047 107.109 6.560 6.447 o
4 2 9 11.539 10.060 2.733 79.193 o
4 2 10 3.556 3.748 1.869 184.560 o
4 2 11 0.354 3.912 2.112 151.035 o
4 2 12 19.793 17.345 5.025 24.256 o
4 2 13 19.418 18.182 4.969 24.741 o
4 3 0 84.644 82.395 6.931 7.159 o
4 3 1 59.936 54.736 5.687 12.248 o
4 3 2 170.981 152.692 9.628 2.529 o
4 3 3 6.551 9.620 2.779 81.852 o
4 3 4 15.624 14.593 3.798 41.593 o
4 3 5 6.571 4.672 2.716 87.548 o
4 3 6 42.079 42.716 6.042 13.868 o
4 3 7 75.505 80.781 8.582 5.992 o
4 3 8 104.825 109.512 6.436 5.856 o
4 3 9 132.118 132.079 7.371 4.038 o
4 3 10 0.009 8.010 3.452 56.768 o
4 3 11 7.961 3.758 3.616 50.389 o
4 3 12 2.477 3.328 3.524 54.451 o
4 4 0 38.708 39.960 5.143 18.225 o
4 4 1 18.910 14.036 3.794 40.472 o
4 4 2 24.767 24.719 4.592 26.470 o
4 4 3 2.187 -1.614 2.483 109.817 o
4 4 4 19.675 27.413 4.857 24.861 o
4 4 5 11.575 12.129 3.044 64.764 o
4 4 6 0.519 0.932 1.984 172.626 o
4 4 7 26.571 24.416 4.930 23.227 o
4 4 8 2.878 0.257 2.049 159.308 o
4 4 9 25.032 24.105 5.314 20.736 o
4 4 10 6.715 7.272 3.713 47.737 o
4 4 11 0.000 0.058 2.362 122.651 o
4 4 12 0.175 -2.955 3.500 55.833 o
4 5 0 0.105 2.146 1.842 199.809 o
4 5 1 19.502 29.346 4.787 25.320 o
4 5 2 0.029 -0.857 2.130 150.828 o
4 5 3 91.020 96.059 9.107 4.866 o
4 5 4 1.041 1.607 2.515 107.275 o
4 5 5 22.388 16.601 4.146 33.252 o
4 5 6 0.672 1.293 1.971 174.453 o
4 5 7 17.006 15.201 3.798 40.937 o
4 5 8 66.162 65.250 8.456 6.755 o
4 5 9 1.224 3.882 3.109 70.062 o
4 5 10 35.723 35.247 6.620 12.884 o
4 5 11 14.082 18.699 6.609 14.946 o
4 6 0 3.148 5.321 2.578 99.469 o
4 6 1 15.723 21.813 4.516 29.720 o
4 6 2 0.069 1.854 2.356 122.694 o
4 6 3 18.038 18.153 4.364 31.446 o
4 6 4 17.294 14.269 4.774 27.306 o
4 6 5 6.960 9.708 3.184 63.267 o
4 6 6 13.435 13.555 3.968 39.373 o
4 6 7 3.589 5.871 3.164 66.524 o
4 6 8 36.001 38.473 6.716 12.441 o
4 6 9 2.199 3.365 2.176 140.555 o
4 6 10 9.460 13.551 4.320 34.575 o
4 6 11 12.914 12.726 4.895 26.871 o
4 7 0 2.985 4.622 2.595 98.583 o
4 7 1 4.383 0.966 2.425 112.867 o
4 7 2 0.478 -2.548 2.046 163.082 o
4 7 3 0.018 -0.327 2.878 82.631 o
4 7 4 14.134 12.837 4.203 35.376 o
4 7 5 0.614 2.888 3.154 68.383 o
4 7 6 16.134 12.547 4.569 29.983 o
4 7 7 1.827 -1.543 2.275 130.833 o
4 7 8 2.866 6.508 2.843 82.084 o
4 7 9 8.308 7.981 2.898 75.036 o
4 8 0 9.530 8.381 3.453 53.544 o
4 8 1 0.061 -3.585 3.113 70.612 o
4 8 2 0.471 4.696 3.621 51.828 o
4 8 3 0.781 -2.398 2.957 78.097 o
4 8 4 0.804 5.943 3.020 73.954 o
4 8 5 4.002 6.147 2.996 73.695 o
4 8 6 0.295 -5.150 3.891 45.183 o
4 8 7 0.336 -2.943 2.830 85.358 o
4 9 0 2.998 6.795 3.667 49.882 o
4 9 1 0.340 6.358 3.112 69.811 o
4 9 2 0.000 0.098 2.254 134.671 o
4 9 3 0.058 -0.324 2.370 121.830 o
5 -3 0 16.809 13.415 3.906 39.382 o
5 -3 1 5.559 2.873 2.436 109.657 o
5 -3 2 7.595 4.610 2.655 90.489 o
5 -3 3 24.936 30.918 5.405 19.681 o
5 -3 4 7.150 7.671 3.245 61.478 o
5 -3 5 0.331 2.269 1.877 192.033 o
5 -3 6 0.042 0.181 1.873 194.982 o
5 -3 7 2.307 7.331 3.134 68.006 o
5 -2 0 96.788 83.663 8.363 5.376 o
5 -2 1 5.487 4.200 2.405 111.640 o
5 -2 2 5.509 5.677 2.472 105.134 o
5 -2 3 16.598 18.219 4.086 35.696 o
5 -2 4 41.892 45.392 6.208 13.206 o
5 -2 5 0.873 -0.458 1.995 171.002 o
5 -2 6 0.144 1.262 1.571 275.177 o
5 -2 7 1.344 0.709 1.496 299.296 o
5 -2 8 0.103 4.928 2.571 102.292 o
5 -1 0 84.046 89.001 8.372 5.720 o
5 -1 1 87.737 82.026 8.083 5.949 o
5 -1 2 59.536 57.320 6.842 9.665 o
5 -1 3 34.967 31.894 5.164 19.452 o
5 -1 4 52.697 50.518 6.345 11.554 o
5 -1 5 0.041 1.383 1.563 277.844 o
5 -1 6 1.742 0.301 1.831 200.750 o
5 -1 7 0.444 5.839 2.675 94.163 o
5 -1 8 0.040 -2.365 2.192 142.384 o
5 -1 9 3.614 0.246 1.744 215.739 o
5 0 0 26.265 26.444 5.954 16.777 o
5 0 1 62.584 57.069 4.186 15.892 o
5 0 2 5.038 4.869 1.656 222.116 o
5 0 3 0.517 -1.489 2.292 129.909 o
5 0 4 0.682 1.056 1.435 327.119 o
5 0 5 41.449 46.453 6.541 12.197 o
5 0 6 4.841 2.800 2.208 133.208 o
5 0 7 5.176 6.166 3.048 70.692 o
5 0 8 0.312 -0.234 1.864 196.495 o
5 0 9 0.305 5.765 3.166 67.558 o
5 0 10 2.572 4.849 3.112 69.297 o
5 1 0 0.292 1.525 2.513 107.878 o
5 1 1 44.147 42.165 3.847 24.154 o
5 1 2 285.614 283.759 11.795 1.032 o
5 1 3 13.066 14.290 2.381 93.651 o
5 1 4 23.219 16.503 2.631 65.388 o
5 1 5 80.451 77.636 5.687 9.099 o
5 1 6 1.428 2.620 1.335 365.830 o
5 1 7 9.944 14.173 2.857 72.891 o
5 1 8 1.010 -1.029 1.355 367.110 o
5 1 9 12.510 14.085 4.049 38.147 o
5 1 10 3.070 6.911 4.332 35.932 o
5 1 11 3.182 -2.791 3.103 70.328 o
5 2 0 57.291 53.894 4.581 15.927 o
5 2 1 4.129 2.987 2.088 149.242 o
5 2 2 34.656 31.922 4.676 22.591 o
5 2 3 3.177 2.049 1.594 254.360 o
5 2 4 2.852 2.072 2.078 153.686 o
5 2 5 0.399 1.511 2.648 97.183 o
5 2 6 25.612 24.960 4.642 25.780 o
5 2 7 59.069 59.258 7.196 8.999 o
5 2 8 0.775 1.667 2.147 146.995 o
5 2 9 0.235 -3.329 3.314 62.268 o
5 2 10 0.801 -0.761 2.460 112.739 o
5 2 11 10.141 4.853 2.896 74.938 o
5 3 0 0.404 1.629 2.133 149.348 o
5 3 1 0.470 3.343 2.603 100.014 o
5 3 2 5.184 7.805 2.830 80.865 o
5 3 3 130.549 118.274 9.674 3.434 o
5 3 4 1.029 0.977 2.332 124.891 o
5 3 5 0.149 0.205 2.462 112.758 o
5 3 6 25.030 23.368 5.077 22.470 o
5 3 7 23.040 26.302 5.367 20.517 o
5 3 8 35.764 34.033 6.326 13.932 o
5 3 9 16.572 13.618 4.389 32.032 o
5 3 10 0.399 6.069 3.340 60.729 o
5 3 11 1.495 -5.295 3.880 45.332 o
5 4 0 117.561 126.611 10.012 3.482 o
5 4 1 4.412 2.130 2.650 94.561 o
5 4 2 0.057 1.343 2.015 167.698 o
5 4 3 18.344 20.361 4.451 30.034 o
5 4 4 20.473 22.311 4.870 25.076 o
5 4 5 2.757 -3.757 3.190 66.697 o
5 4 6 0.043 -3.767 2.535 106.487 o
5 4 7 22.136 18.353 4.294 31.171 o
5 4 8 34.545 43.064 6.813 12.088 o
5 4 9 3.112 -3.501 2.847 83.401 o
5 4 10 0.067 -8.417 3.206 66.590 o
5 5 0 110.544 113.559 9.997 3.746 o
5 5 1 1.464 2.942 2.450 112.224 o
5 5 2 23.042 18.218 3.883 36.485 o
5 5 3 1.860 -3.130 3.026 74.276 o
5 5 4 16.398 19.290 4.747 27.295 o
5 5 5 3.039 -1.283 2.309 126.058 o
5 5 6 0.105 -0.145 2.949 78.698 o
5 5 7 22.544 22.899 5.804 18.126 o
5 5 8 16.555 14.640 4.896 26.171 o
5 5 9 60.343 49.695 7.685 8.395 o
5 5 10 2.166 -4.521 3.534 54.498 o
5 6 0 13.316 12.949 3.950 39.825 o
5 6 1 47.677 52.311 7.248 9.827 o
5 6 2 0.012 2.277 2.640 97.770 o
5 6 3 1.053 -4.390 2.799 87.009 o
5 6 4 0.073 -1.710 2.195 141.942 o
5 6 5 3.218 6.827 3.216 64.410 o
5 6 6 4.939 1.377 2.751 87.841 o
5 6 7 0.030 -0.481 2.408 117.978 o
5 6 8 3.898 3.588 3.556 53.166 o
5 6 9 14.919 16.646 5.094 24.420 o
5 7 0 19.396 25.969 5.949 17.493 o
5 7 1 35.439 31.318 5.820 16.124 o
5 7 2 11.915 16.017 5.141 24.422 o
5 7 3 13.375 18.290 5.230 23.337 o
5 7 4 0.613 2.575 2.894 81.167 o
5 7 5 0.335 1.026 3.080 71.978 o
5 7 6 3.232 -0.879 2.661 95.191 o
5 7 7 0.212 -1.319 3.039 74.057 o
5 8 0 3.495 7.302 3.738 47.901 o
5 8 1 1.401 -0.195 2.246 134.600 o
5 8 2 8.000 1.696 2.190 130.896 o
5 8 3 0.001 -6.845 3.481 56.495 o
5 8 4 4.845 3.851 3.035 72.035 o
6 -2 0 0.026 -0.642 2.077 158.611 o
6 -2 1 1.408 4.414 2.608 98.813 o
6 -2 2 0.792 4.935 3.193 66.403 o
6 -2 3 3.672 6.001 3.457 55.924 o
6 -2 4 1.895 2.165 1.893 186.032 o
6 -1 0 1.328 5.203 2.866 81.964 o
6 -1 1 3.215 5.810 2.600 97.598 o
6 -1 2 2.326 -1.012 1.818 202.587 o
6 -1 3 7.182 7.656 3.285 60.029 o
6 -1 4 1.889 5.429 3.023 73.531 o
6 -1 5 0.540 1.692 2.662 96.019 o
6 -1 6 0.464 1.016 2.339 124.540 o
6 0 0 12.650 9.410 3.697 45.821 o
6 0 1 8.288 7.318 2.992 70.996 o
6 0 2 3.995 4.910 2.156 139.015 o
6 0 3 5.696 7.235 3.451 55.289 o
6 0 4 13.847 11.045 3.767 43.553 o
6 0 5 1.824 -1.813 3.138 69.133 o
6 0 6 0.080 0.940 2.294 129.728 o
6 0 7 0.152 -1.082 2.199 141.452 o
6 1 0 10.138 12.060 2.448 96.148 o
6 1 1 32.663 27.571 3.591 34.077 o
6 1 2 8.936 2.993 2.524 98.798 o
6 1 3 18.832 18.816 4.572 28.727 o
6 1 4 18.059 17.260 4.641 28.294 o
6 1 5 10.609 13.126 4.667 29.724 o
6 1 6 0.688 -3.482 3.225 65.686 o
6 1 7 0.528 -1.685 2.717 92.571 o
6 1 8 0.007 0.753 2.992 76.379 o
6 2 0 3.664 3.813 1.722 214.758 o
6 2 1 16.929 14.580 3.635 44.297 o
6 2 2 16.108 14.255 2.469 83.725 o
6 2 3 8.359 8.372 2.270 115.991 o
6 2 4 0.719 1.218 1.485 305.134 o
6 2 5 36.218 39.208 4.440 22.947 o
6 2 6 4.507 0.985 1.787 202.263 o
6 2 7 3.850 6.782 4.918 27.929 o
6 2 8 0.465 -5.574 4.373 35.771 o
6 3 0 6.222 7.303 2.371 111.572 o
6 3 1 8.270 7.608 2.616 90.720 o
6 3 2 123.808 116.671 10.023 3.454 o
6 3 3 3.752 7.737 2.789 84.230 o
6 3 4 30.712 29.170 5.426 18.849 o
6 3 5 32.487 23.099 4.992 21.768 o
6 3 6 25.133 26.979 5.234 21.043 o
6 3 7 0.363 -2.621 3.600 52.770 o
6 3 8 0.317 9.238 4.197 38.442 o
6 4 0 53.218 50.644 7.202 9.624 o
6 4 1 0.004 1.041 2.519 107.634 o
6 4 2 11.357 16.977 4.553 30.665 o
6 4 3 14.279 10.165 3.845 41.966 o
6 4 4 20.165 18.892 4.875 25.397 o
6 4 5 1.686 3.910 2.578 101.107 o
6 4 6 33.101 31.511 6.091 15.211 o
6 4 7 0.012 4.158 3.565 53.593 o
6 5 0 8.306 8.792 3.802 44.983 o
6 5 1 4.641 -2.212 2.279 127.518 o
6 5 2 1.663 -3.160 2.187 141.730 o
6 5 3 63.509 63.828 8.336 7.027 o
6 5 4 0.351 -1.945 2.908 80.820 o
6 5 5 10.081 8.122 4.090 38.815 o
6 5 6 12.296 15.507 4.612 29.900 o
6 6 0 9.369 11.338 3.438 53.378 o
6 6 1 12.245 7.174 4.241 35.885 o
6 6 2 0.619 -1.370 2.634 98.429 o
6 6 3 4.913 8.742 3.562 52.040 o
6 6 4 18.644 19.647 4.795 26.368 o
6 6 5 2.992 0.227 2.892 80.849 o
;
_olex2_submission_original_sample_id RMG164
_olex2_submission_special_instructions 'No special instructions were received'
loop_
_space_group_symop_id
_space_group_symop_operation_xyz
1 x,y,z
2 -x,-y,-z
loop_
_atom_site_label
_atom_site_type_symbol
_atom_site_fract_x
_atom_site_fract_y
_atom_site_fract_z
_atom_site_U_iso_or_equiv
_atom_site_adp_type
_atom_site_occupancy
_atom_site_refinement_flags_posn
Li1 Li 0.3380(8) 0.9582(8) 0.4254(4) 0.0347(13) Uani 1.000000 .
O1 O -0.0264(3) 0.9414(3) 0.64140(17) 0.0410(7) Uani 1.000000 .
O2 O 0.3793(3) 0.9095(3) 0.58495(16) 0.0341(6) Uani 1.000000 .
O3 O 0.5034(4) 0.7365(3) 0.35680(19) 0.0500(7) Uani 1.000000 .
N1 N 0.2829(4) 0.8445(3) 0.76719(18) 0.0277(6) Uani 1.000000 .
C1 C 0.5270(5) 0.7730(4) 0.7999(3) 0.0364(8) Uani 1.000000 .
H1 H 0.6741(5) 0.7559(4) 0.7529(3) 0.0436(10) Uiso 1.000000 R
C2 C 0.5214(6) 0.7311(5) 0.9113(3) 0.0481(10) Uani 1.000000 .
H2 H 0.6638(6) 0.6780(5) 0.9560(3) 0.0578(12) Uiso 1.000000 R
C3 C 0.2669(6) 0.7801(5) 0.9494(3) 0.0521(10) Uani 1.000000 .
H3 H 0.2071(6) 0.7674(5) 1.0241(3) 0.0626(12) Uiso 1.000000 R
C4 C 0.1246(5) 0.8484(5) 0.8597(3) 0.0388(8) Uani 1.000000 .
H4 H -0.0543(5) 0.8917(5) 0.8603(3) 0.0465(10) Uiso 1.000000 R
C5 C 0.2042(5) 0.9033(4) 0.6563(2) 0.0286(7) Uani 1.000000 .
C6 C 0.7100(9) 0.6109(7) 0.4079(4) 0.0917(19) Uani 1.000000 .
H6a H 0.7589(9) 0.6591(7) 0.4747(4) 0.110(2) Uiso 1.000000 R
H6b H 0.6615(9) 0.4954(7) 0.4311(4) 0.110(2) Uiso 1.000000 R
C7 C 0.9195(7) 0.5805(7) 0.3296(4) 0.0803(15) Uani 1.000000 .
H7a H 1.0466(7) 0.6473(7) 0.3470(4) 0.0964(18) Uiso 1.000000 R
H7b H 1.0023(7) 0.4499(7) 0.3316(4) 0.0964(18) Uiso 1.000000 R
C8 C 0.8118(8) 0.6477(6) 0.2185(4) 0.0692(13) Uani 1.000000 .
H8a H 0.8884(8) 0.7457(6) 0.1838(4) 0.0830(15) Uiso 1.000000 R
H8b H 0.8422(8) 0.5484(6) 0.1688(4) 0.0830(15) Uiso 1.000000 R
C9 C 0.5349(7) 0.7170(6) 0.2400(3) 0.0596(11) Uani 1.000000 .
H9a H 0.4392(7) 0.6306(6) 0.2183(3) 0.0715(13) Uiso 1.000000 R
H9b H 0.4726(7) 0.8352(6) 0.1971(3) 0.0715(13) Uiso 1.000000 R
loop_
_atom_site_aniso_label
_atom_site_aniso_U_11
_atom_site_aniso_U_22
_atom_site_aniso_U_33
_atom_site_aniso_U_12
_atom_site_aniso_U_13
_atom_site_aniso_U_23
Li1 0.020(2) 0.057(4) 0.028(3) -0.012(2) -0.0008(19) 0.002(2)
O1 0.0177(9) 0.0690(18) 0.0354(13) -0.0114(10) -0.0034(8) 0.0048(11)
O2 0.0231(10) 0.0540(15) 0.0265(11) -0.0140(10) 0.0021(8) 0.0017(9)
O3 0.0425(13) 0.0564(18) 0.0444(15) 0.0028(12) 0.0025(11) -0.0090(12)
N1 0.0179(11) 0.0390(16) 0.0264(13) -0.0087(11) -0.0006(9) 0.0010(11)
C1 0.0207(14) 0.049(2) 0.0367(18) -0.0058(14) -0.0013(12) 0.0051(15)
C2 0.0346(17) 0.070(3) 0.039(2) -0.0168(17) -0.0110(14) 0.0142(17)
C3 0.0439(18) 0.089(3) 0.0295(18) -0.0318(19) 0.0005(14) 0.0057(18)
C4 0.0236(14) 0.062(2) 0.0323(18) -0.0144(15) 0.0063(12) -0.0026(15)
C5 0.0208(13) 0.0332(18) 0.0333(16) -0.0102(13) -0.0015(11) 0.0008(13)
C6 0.100(3) 0.085(4) 0.054(3) 0.046(3) 0.001(3) 0.008(3)
C7 0.041(2) 0.102(4) 0.095(4) -0.003(2) -0.004(2) -0.027(3)
C8 0.071(3) 0.065(3) 0.065(3) -0.008(2) 0.026(2) -0.007(2)
C9 0.061(2) 0.070(3) 0.049(2) -0.010(2) -0.0051(18) -0.022(2)
loop_
_atom_type_symbol
_atom_type_scat_dispersion_real
_atom_type_scat_dispersion_imag
_atom_type_scat_Cromer_Mann_a1
_atom_type_scat_Cromer_Mann_a2
_atom_type_scat_Cromer_Mann_a3
_atom_type_scat_Cromer_Mann_a4
_atom_type_scat_Cromer_Mann_b1
_atom_type_scat_Cromer_Mann_b2
_atom_type_scat_Cromer_Mann_b3
_atom_type_scat_Cromer_Mann_b4
_atom_type_scat_Cromer_Mann_c
_atom_type_scat_source
_atom_type_scat_dispersion_source
H 0.00000 0.00000 0.49300 0.32291 0.14019 0.04081 10.51090 26.12570 3.14236
57.79970 0.0030380000826
'International Tables Volume C Table 6.1.1.4 (pp. 500-502)'
'Henke, Gullikson and Davis, At. Data and Nucl. Data Tables, 1993, 54, 2'
C 0.00347 0.00161 2.31000 1.02000 1.58860 0.86500 20.84390 10.20750 0.56870
51.65120 0.215599998832
'International Tables Volume C Table 6.1.1.4 (pp. 500-502)'
'Henke, Gullikson and Davis, At. Data and Nucl. Data Tables, 1993, 54, 2'
Li -0.00003 0.00005 1.12820 0.75080 0.61750 0.46530 3.95460 1.05240 85.39050
168.26100 0.0377000011504
'International Tables Volume C Table 6.1.1.4 (pp. 500-502)'
'Henke, Gullikson and Davis, At. Data and Nucl. Data Tables, 1993, 54, 2'
O 0.01158 0.00611 3.04850 2.28680 1.54630 0.86700 13.27710 5.70110 0.32390
32.90890 0.250800013542
'International Tables Volume C Table 6.1.1.4 (pp. 500-502)'
'Henke, Gullikson and Davis, At. Data and Nucl. Data Tables, 1993, 54, 2'
N 0.00653 0.00323 12.21260 3.13220 2.01250 1.16630 0.00570 9.89330 28.99750
0.58260 -11.5290002823
'International Tables Volume C Table 6.1.1.4 (pp. 500-502)'
'Henke, Gullikson and Davis, At. Data and Nucl. Data Tables, 1993, 54, 2'
loop_
_geom_angle_atom_site_label_1
_geom_angle_atom_site_label_2
_geom_angle_atom_site_label_3
_geom_angle
_geom_angle_site_symmetry_1
_geom_angle_site_symmetry_3
O2 Li1 O1 121.7(3) 2_676 2_576
O2 Li1 O1 123.8(3) . 2_576
O3 Li1 O1 109.3(3) . 2_576
O3 Li1 O2 100.8(2) . 2_676
O3 Li1 O2 107.6(2) . .
C5 O1 Li1 160.0(2) . 2_576
C5 O2 Li1 132.2(2) . 2_676
C5 O2 Li1 125.9(2) . .
C6 O3 Li1 120.9(3) . .
C9 O3 Li1 126.1(3) . .
C9 O3 C6 106.1(3) . .
C4 N1 C1 108.5(2) . .
C5 N1 C1 126.0(2) . .
C5 N1 C4 125.5(2) . .
H1 C1 N1 126.08(16) . .
C2 C1 N1 107.8(3) . .
C2 C1 H1 126.08(18) . .
H2 C2 C1 125.95(18) . .
C3 C2 C1 108.1(3) . .
C3 C2 H2 125.95(18) . .
H3 C3 C2 126.45(18) . .
C4 C3 C2 107.1(3) . .
C4 C3 H3 126.45(19) . .
C3 C4 N1 108.5(3) . .
H4 C4 N1 125.76(15) . .
H4 C4 C3 125.76(19) . .
O2 C5 O1 127.8(3) . .
N1 C5 O1 116.3(2) . .
N1 C5 O2 115.9(2) . .
H6a C6 O3 110.0(2) . .
H6b C6 O3 110.0(3) . .
H6b C6 H6a 108.3 . .
C7 C6 O3 108.7(4) . .
C7 C6 H6a 110.0(3) . .
C7 C6 H6b 110.0(3) . .
H7a C7 C6 110.5(3) . .
H7b C7 C6 110.5(3) . .
H7b C7 H7a 108.7 . .
C8 C7 C6 106.2(3) . .
C8 C7 H7a 110.5(3) . .
C8 C7 H7b 110.5(3) . .
H8a C8 C7 110.7(3) . .
H8b C8 C7 110.7(3) . .
H8b C8 H8a 108.8 . .
C9 C8 C7 105.0(3) . .
C9 C8 H8a 110.7(2) . .
C9 C8 H8b 110.7(2) . .
C8 C9 O3 106.5(3) . .
H9a C9 O3 110.4(2) . .
H9a C9 C8 110.4(2) . .
H9b C9 O3 110.42(19) . .
H9b C9 C8 110.4(2) . .
H9b C9 H9a 108.6 . .
loop_
_geom_bond_atom_site_label_1
_geom_bond_atom_site_label_2
_geom_bond_distance
_geom_bond_site_symmetry_2
Li1 Li1 2.790(9) 2_676
Li1 O1 1.870(5) 2_576
Li1 O2 1.943(5) .
Li1 O2 2.019(5) 2_676
Li1 O3 1.959(6) .
O1 C5 1.234(3) .
O2 C5 1.262(3) .
O3 C6 1.415(4) .
O3 C9 1.432(4) .
N1 C1 1.370(3) .
N1 C4 1.378(4) .
N1 C5 1.424(4) .
C1 H1 0.9500 .
C1 C2 1.355(4) .
C2 H2 0.9500 .
C2 C3 1.412(4) .
C3 H3 0.9500 .
C3 C4 1.350(4) .
C4 H4 0.9500 .
C6 H6a 0.9900 .
C6 H6b 0.9900 .
C6 C7 1.437(6) .
C7 H7a 0.9900 .
C7 H7b 0.9900 .
C7 C8 1.485(6) .
C8 H8a 0.9900 .
C8 H8b 0.9900 .
C8 C9 1.492(5) .
C9 H9a 0.9900 .
C9 H9b 0.9900 .
loop_
_refln_index_h
_refln_index_k
_refln_index_l
_refln_F_squared_meas
_refln_F_squared_sigma
_refln_scale_group_code
0 0 -2 81212.1 843.423 5
0 0 -3 26765.9 600.728 5
0 0 3 25813.8 637.897 5
0 0 -4 48429.7 942.104 5
0 0 4 48484.2 1006.41 5
0 0 5 60444.3 1274.15 5
0 0 6 7404.42 517.569 5
0 0 7 33551.7 1150.59 5
0 0 8 646.919 200.871 5
0 0 9 6847.12 610.479 5
0 0 10 5100.13 555.236 5
0 0 11 3251.91 502.462 5
0 0 12 1092.19 352.123 5
0 0 13 1535 384.012 5
0 0 14 3161.38 547.813 5
0 0 15 230.263 263.248 5
0 0 16 1285.43 439.206 5
0 -1 16 -27.9787 199.797 5
0 -1 15 248.601 199.568 5
0 -1 14 121.694 195.327 5
0 -1 13 1467.41 338.638 5
0 -1 12 -186.824 193.119 5
0 -1 11 318.17 201.639 5
0 -1 10 1679.86 322.928 5
0 -1 9 -170.077 163.455 5
0 -1 8 1253.69 247.996 5
0 -1 8 762.527 74.7204 3
0 -1 7 21.3514 104.696 5
0 -1 6 162.535 38.3755 3
0 -1 6 149.6 103.248 5
0 -1 5 17072.8 608.553 5
0 -1 4 7556.3 359.251 5
0 -1 3 30822.5 635.886 5
0 -1 3 30495.6 711.551 1
0 -1 2 85312.4 946.059 1
0 1 -1 174.473 61.1976 1
0 -1 -2 57195.5 961.731 5
0 1 2 58026.5 915.43 5
0 1 3 15225.3 572.666 5
0 -1 -3 13890.2 536.363 5
0 1 4 26589.5 829.601 5
0 -1 -4 27909.8 833.576 5
0 1 5 12.3749 125.471 5
0 1 6 99.5521 130.627 5
0 1 7 -155.502 162.676 5
0 1 8 -141.996 166.499 5
0 1 9 2406.36 381.969 5
0 1 10 3495.51 501.614 5
0 1 11 139.844 170.371 5
0 1 12 701.093 229.402 5
0 1 13 247.394 244.413 5
0 1 14 2501.35 518.456 5
0 1 15 220.82 244.494 5
0 -2 16 -223.319 321.052 5
0 -2 15 592.749 266.809 5
0 -2 14 4.14425 215.127 5
0 -2 13 1192.01 344.773 5
0 -2 12 -291.707 208.576 5
0 -2 11 826.281 221.291 5
0 -2 10 5852.64 585.113 5
0 -2 9 1342.96 280.458 5
0 -2 8 1288.84 236.363 5
0 -2 7 3737.96 359.145 5
0 -2 6 24127.3 786.04 5
0 -2 5 1255.99 172.659 5
0 2 -4 40981 616.482 3
0 -2 4 43154.2 881.223 1
0 -2 4 41100.7 884.726 5
0 2 -3 18393.3 653.535 1
0 -2 3 19059.4 533.851 1
0 2 -3 17901.2 430.358 3
0 -2 2 6439.42 292.252 1
0 2 -2 6137.4 306.531 1
0 -2 2 6473.53 379.865 4
0 -2 1 50504.4 760.071 1
0 2 -1 51879.8 971.292 4
0 2 -1 50290.3 735.925 1
0 -2 1 50294.7 933.768 4
0 -2 0 55091.8 779.214 1
0 2 0 55662 869.251 4
0 2 0 56247.3 740.044 1
0 2 1 636484 3267.33 5
0 -2 -1 650044 3324.34 5
0 2 1 641091 2860.77 1
0 2 2 92791.6 1363.17 5
0 -2 -2 92591.6 1457.98 5
0 -2 -3 1980.97 249.753 5
0 2 3 1596.54 229.169 5
0 2 4 913.422 197.19 5
0 2 5 742.664 199.272 5
0 2 6 4012.72 424.543 5
0 2 7 26893.3 1157.2 5
0 2 8 -25.1683 166.617 5
0 2 9 2834.28 420.074 5
0 2 10 2408.82 472.216 5
0 2 11 1545.86 389.815 5
0 2 12 3582.33 543.282 5
0 2 13 100.691 164.97 5
0 2 14 362.437 269.23 5
0 2 15 1014.29 410.359 5
0 -3 15 -15.5919 208.633 5
0 -3 14 158.423 154.621 5
0 -3 13 271.076 206.086 5
0 -3 12 1057.77 296.557 5
0 -3 11 -3.75799 134.543 5
0 -3 10 1283.52 268.452 5
0 -3 9 8777.02 621.325 5
0 -3 8 436.373 150.659 5
0 -3 7 2355 286.283 5
0 -3 6 -26.7297 81.2417 5
0 -3 5 13307.3 749.611 4
0 3 -5 12658.5 420.369 3
0 -3 5 12755.5 564.393 5
0 3 -4 673.643 112.885 3
0 -3 4 563.388 197.978 4
0 3 -3 8205.55 459.684 1
0 -3 3 8380.67 525.155 4
0 -3 3 8658.54 406.807 1
0 -3 2 41478.4 1059.96 4
0 -3 2 42268.3 838.304 1
0 3 -2 41361.4 857.15 1
0 3 -1 89.9972 65.5603 1
0 -3 1 108.426 65.3129 1
0 3 -1 129.742 117.171 4
0 -3 1 165.219 128.434 4
0 3 0 6.89109 71.0768 4
0 -3 0 92.0678 77.0264 5
0 -3 0 121.892 74.2895 1
0 3 0 -73.3693 72.7598 1
0 -3 -1 36349.5 954.823 5
0 3 1 37448.5 805.79 1
0 3 1 35765.4 876.543 4
0 -3 -2 72161.5 1477.17 5
0 3 2 71974.9 1403.56 5
0 3 3 705.413 166.641 5
0 3 4 429.772 154.811 5
0 3 5 20153.2 939.441 5
0 3 6 4775.42 489.207 5
0 3 7 242.737 154.218 5
0 3 8 677.899 263.079 5
0 3 9 9913.91 805.975 5
0 3 10 333.66 223.753 5
0 3 11 7022.27 749.836 5
0 3 12 -183.19 224.433 5
0 3 13 137.921 233.201 5
0 3 14 -441.507 285.161 5
0 3 15 1113.1 382.419 5
0 -4 13 296.624 188.043 5
0 -4 13 716.351 417.002 4
0 -4 12 200.171 135.881 5
0 -4 12 147.089 277.084 4
0 -4 11 1107.78 277.271 5
0 -4 11 1075.49 406.382 4
0 -4 10 436.095 195.302 5
0 -4 10 8.7408 313.053 4
0 -4 9 559.984 172.011 5
0 -4 9 1046.21 335.226 4
0 -4 8 594.624 272.252 4
0 -4 8 727.393 170.612 5
0 -4 7 2780.73 423.694 4
0 -4 7 2455.26 281.185 5
0 -4 6 40.8285 209.796 4
0 -4 6 4.83848 77.1245 5
0 4 -6 -39.7049 76.9957 3
0 -4 5 14028.7 814.239 4
0 4 -5 13023.4 531.648 3
0 4 -4 4106.34 412.755 1
0 -4 4 3614.91 406.378 4
0 -4 3 21872.3 919.574 4
0 4 -3 22694.5 805.96 1
0 -4 2 11373.2 643.08 4
0 -4 2 11125.2 499.698 1
0 4 -2 12088.1 526.758 1
0 4 -1 1723.79 190.941 1
0 -4 1 1892.93 266.286 4
0 -4 1 1598.66 204.368 1
0 -4 0 246.076 107.953 1
0 4 0 472.112 120.615 1
0 4 1 5511.48 345.945 1
0 4 2 29756.9 884.346 1
0 4 3 5728.99 413.75 1
0 4 3 5693.75 469.822 5
0 4 4 3524.87 404.504 5
0 4 5 4501.72 485.531 5
0 4 6 866.236 260.875 5
0 4 7 6277.07 588.076 5
0 4 8 208.114 197.022 5
0 4 9 -154.476 190.438 5
0 4 10 388.056 213.976 5
0 4 11 4537.85 639.156 5
0 4 12 3266.8 564.998 5
0 4 13 626.065 308.47 5
0 4 14 578.498 363.973 5
0 -5 12 1121.53 452.251 4
0 -5 11 65.9366 252.729 4
0 -5 10 239.779 130.774 5
0 -5 10 888.097 361.743 4
0 -5 9 4130.59 581.439 4
0 -5 9 2722.76 335.059 5
0 -5 8 797.194 171.194 5
0 -5 8 1367.6 374.774 4
0 -5 7 272.71 208.312 4
0 -5 7 361.099 124.186 5
0 -5 6 1497.95 314.292 4
0 -5 5 316.821 198.56 4
0 5 -4 4900.64 480.546 1
0 -5 4 3567.24 434.053 4
0 5 -3 165.052 128.158 1
0 -5 3 336.444 180.255 4
0 5 -2 194.407 118.471 1
0 -5 2 285.568 214.383 4
0 5 -1 1651.01 220.412 1
0 5 0 2649.7 275.987 1
0 5 1 3825.64 332.774 1
0 5 2 118.472 112.225 1
0 5 3 4424.17 390.152 1
0 5 4 1484.88 251.361 1
0 5 4 1328.63 286.649 5
0 5 5 263.842 172.436 5
0 5 6 343.343 234.805 5
0 5 7 237.428 180.693 5
0 5 8 466.418 184.684 5
0 5 9 584.224 240.289 5
0 5 10 2318.23 433.936 5
0 5 11 1617.73 396.557 5
0 5 12 2859.75 525.724 5
0 5 13 -8.28305 230.205 5
0 -6 11 -327.203 308.843 4
0 -6 10 471.669 210.414 4
0 -6 9 397.145 233.561 4
0 -6 8 -11.9016 270.32 4
0 -6 7 2040.22 371.464 4
0 -6 7 2021.17 279.418 5
0 -6 6 620.61 302.197 4
0 -6 5 413.611 191.684 4
0 6 -4 10708.6 799.922 1
0 -6 4 7525.44 660.595 4
0 -6 3 8908.95 724.363 4
0 6 -3 10185.8 665.508 1
0 6 -2 958.448 212.018 1
0 6 -1 3817.68 372.368 1
0 6 0 7759.19 500.911 1
0 6 1 3931.48 370.926 1
0 6 2 523.651 162.089 1
0 6 3 2625.98 331.059 1
0 6 4 2216.54 319.756 1
0 6 5 115.828 135.676 1
0 6 6 2541.33 442.295 5
0 6 6 2439.85 342.9 1
0 6 7 -51.7494 151.832 5
0 6 8 829.6 275.98 5
0 6 9 835.75 311.598 5
0 6 10 504.723 270.362 5
0 6 11 218.655 161.446 5
0 6 12 734.452 314.873 5
0 -7 10 372.703 286.705 4
0 -7 9 1374.28 432.088 4
0 -7 8 899.554 289.325 4
0 -7 7 -479.179 272.903 4
0 -7 6 153.528 200.458 4
0 -7 5 1363.22 319.022 4
0 -7 4 -403.749 241.129 4
0 7 -2 362.96 176.534 1
0 7 -1 490.785 169.431 1
0 7 0 -144.678 97.9735 1
0 7 1 280.839 114.205 1
0 7 2 383.614 186.555 1
0 7 3 -130.719 127.315 1
0 7 4 77.2098 123.81 1
0 7 5 -111.594 173.712 1
0 7 6 137.706 146.45 1
0 7 7 -149.938 192.533 1
0 7 8 1116.15 351.177 5
0 7 8 1088.58 265.381 1
0 7 9 645.044 293.883 5
0 7 9 97.9071 142.25 1
0 7 10 359.738 231.833 5
0 7 11 112.969 264.431 5
0 -8 9 501.203 324.463 4
0 -8 8 258.946 286.825 4
0 -8 7 -146.707 308.83 4
0 -8 6 -76.4576 262.32 4
0 8 6 458.204 183.474 1
0 8 7 -87.8394 133.306 1
0 8 8 -94.6931 196.677 1
0 8 9 329.811 177.174 1
0 8 10 -862.083 304.151 1
0 8 11 31.3195 215.248 1
-1 8 10 407.652 259.845 5
-1 7 11 -452.083 312.894 5
-1 7 10 444.355 266.017 5
-1 7 9 248.51 201.591 5
-1 7 8 969.215 254.652 1
-1 7 8 598.749 231.467 5
-1 7 7 714.823 290.357 5
1 -7 6 863.639 325.906 4
1 -7 7 179.059 237.341 4
1 -7 8 778.016 312.429 4
1 -7 9 263.723 224.506 4
-1 6 12 405.384 274.199 5
-1 6 11 61.0047 181.22 5
-1 6 10 36.0358 200.758 5
-1 6 9 167.109 213.792 5
-1 6 8 429.194 240.605 5
-1 6 7 -199.305 166.025 5
-1 6 6 -11.6172 138.846 5
-1 6 5 167.399 168.964 5
-1 6 5 474.525 150.076 1
-1 6 4 250.623 152.557 1
-1 6 3 -92.6576 106.678 1
-1 6 2 2976.92 287.029 1
-1 6 1 -18.131 89.3859 1
-1 6 0 6118.25 366.906 1
1 -6 5 2039.9 455.715 4
1 -6 6 846.037 287.265 4
1 -6 7 768.442 277.968 4
1 -6 8 119.874 215.007 4
1 -6 9 27.1017 187.261 4
1 -6 10 852.129 375.449 4
-1 5 13 1114.86 349.05 5
-1 5 12 582.438 336.277 5
-1 5 11 178.227 230.372 5
-1 5 10 -330.995 231.928 5
-1 5 9 732.962 271.929 5
-1 5 8 3207.49 515.407 5
-1 5 7 91.5337 180.571 5
-1 5 6 3059.98 451.909 5
-1 5 5 184.715 191.124 5
-1 5 4 926.239 254.585 5
-1 5 3 156.375 148.875 5
-1 5 3 -52.4447 105.978 1
-1 5 2 62.1407 90.4579 1
-1 5 1 133.65 91.1687 1
-1 5 0 1949.01 187.175 1
1 -5 1 206.845 124.786 5
-1 5 -1 334.729 97.8149 1
-1 5 -2 10263.5 524.217 1
1 -5 3 -279.889 276.812 4
1 -5 4 387.49 227.989 4
1 -5 5 694.138 274.678 4
1 -5 5 169.79 88.4153 5
1 -5 6 -86.9193 207.158 4
1 -5 6 304.914 97.0125 5
1 -5 7 -85.6127 214.882 4
1 -5 8 1431.06 389.017 4
1 -5 9 3371.91 556.843 4
1 -5 10 190.073 224.852 4
1 -5 11 -484.486 319.659 4
1 -5 12 960.881 422.958 4
-1 4 14 363.46 194.054 5
-1 4 13 1855.24 424.123 5
-1 4 12 1443.12 415.357 5
-1 4 11 42.3971 181.475 5
-1 4 10 2202.37 493.497 5
-1 4 9 4629.18 639.566 5
-1 4 8 2726.92 469.846 5
-1 4 7 490.888 212.222 5
-1 4 6 5766.66 577.766 5
-1 4 5 1794.74 324.177 5
-1 4 4 118.45 174.349 5
-1 4 3 159.45 139.535 5
-1 4 2 884.277 214.153 5
-1 4 2 1376.08 175.372 1
1 -4 -1 7394.7 519.45 5
-1 4 1 9228.68 370.948 1
1 -4 0 11388.5 607.961 5
-1 4 0 13430.7 398.176 1
1 -4 1 196.349 86.0337 5
-1 4 -1 242.979 61.5552 1
1 -4 2 -70.1588 71.2172 5
1 -4 2 -83.9559 61.4507 1
1 -4 3 6926.93 614.225 4
1 -4 3 6375.74 298.328 1
1 -4 4 27137.3 1197.32 4
1 -4 4 28633 692.598 1
1 -4 5 1260.23 167.552 5
1 -4 5 1488.13 325.063 4
1 -4 6 11.1525 65.9287 5
1 -4 6 423.044 281.263 4
1 -4 7 3819.19 364.388 5
1 -4 7 5561.33 601.468 4
1 -4 8 0.11504 195.199 4
1 -4 8 89.962 85.8974 5
1 -4 9 422.691 280.311 4
1 -4 9 520.771 184.195 5
1 -4 10 2748.97 497.894 4
1 -4 11 -281.702 229.996 4
1 -4 12 127.354 273.333 4
1 -4 13 101.097 262.989 4
-1 3 14 -420.256 290.695 5
-1 3 13 71.4138 183.993 5
-1 3 12 4328.48 676.25 5
-1 3 11 1568.44 357.22 5
-1 3 10 5792.85 662.953 5
-1 3 9 -84.0699 197.887 5
-1 3 8 218.329 218.156 5
-1 3 7 5569.95 583.392 5
-1 3 6 89.2345 142.91 5
-1 3 5 1848.83 302.173 5
-1 3 4 4031.96 392.542 5
-1 3 3 564.308 163.154 5
1 -3 -2 4991.13 369.322 5
-1 3 2 5478.98 384.165 5
-1 3 1 8971.56 325.774 1
-1 3 1 8055.95 431.121 5
1 -3 -1 9067.53 448.974 5
-1 3 0 2872.56 152.402 1
1 -3 0 3049.02 243.501 5
-1 3 -1 492.464 67.9479 1
1 -3 1 687.812 110.43 5
1 -3 2 7918.38 253.143 1
1 -3 2 9005.7 615.494 4
1 -3 3 759.99 94.6645 1
1 -3 3 660.945 215.777 4
1 -3 4 1589.86 148.275 5
1 -3 4 1886.52 333.839 4
1 -3 4 1537.36 153.015 1
1 -3 5 141.879 205.877 4
1 -3 5 -78.8669 78.287 1
1 -3 5 -3.82661 68.2465 5
1 -3 6 765.86 146.701 5
1 -3 6 758.496 258.019 4
1 -3 7 627.637 263.737 4
1 -3 7 833.035 181.81 5
1 -3 8 2223.55 397.444 4
1 -3 8 1869.46 264.379 5
1 -3 9 5335.47 490.255 5
1 -3 9 5815.41 670.993 4
1 -3 10 1238.29 422.29 4
1 -3 10 1544.25 317.774 5
1 -3 11 2213.38 498.964 4
1 -3 11 1749.14 353.932 5
1 -3 12 -163.678 307.506 4
1 -3 12 -348.526 247.091 5
1 -3 13 278.7 409.779 4
-1 2 15 540.076 306.804 5
-1 2 14 63.5004 187.943 5
-1 2 13 -70.9939 233.322 5
-1 2 12 2578.91 518.159 5
-1 2 11 14452.1 1110.71 5
-1 2 10 -149.561 214.985 5
-1 2 9 872.625 248.345 5
-1 2 8 5204.48 592.046 5
-1 2 7 37189.9 1397.52 5
-1 2 6 23949.7 1058.12 5
-1 2 5 7079.71 528.448 5
-1 2 4 18821.1 791.538 5
-1 2 3 7022.59 447.236 5
1 -2 -3 7086.56 396.583 5
-1 2 2 844.96 145.395 5
1 -2 -2 1051.75 142.414 5
1 -2 -1 846.842 111.336 5
-1 2 1 937.592 130.699 5
-1 2 0 6278.85 382.109 3
-1 2 0 5510.2 406.731 4
-1 2 0 5673.7 245.538 5
1 -2 0 5938.73 242.238 5
-1 2 -1 11189.8 499.31 3
1 -2 1 9763.7 267.31 5
1 -2 2 15938.5 711.287 4
1 -2 2 14317.7 307.94 1
-1 2 -2 15486.7 565.816 3
1 -2 2 16077.3 508.974 3
-1 2 -3 19673.9 671.269 3
1 -2 3 19413 458.856 1
1 -2 3 19451.1 827.447 4
1 -2 3 19907.6 559.829 3
1 -2 3 19202.5 395.88 5
1 -2 4 1204.24 147.631 1
1 -2 4 1194.78 129.365 5
1 -2 4 1277.74 261.597 4
1 -2 4 1287.9 149.873 3
1 -2 5 66471.3 1166.38 5
1 -2 5 65415.5 1227.09 1
1 -2 5 68803 1711.11 4
1 -2 5 68982.8 1016.69 3
1 -2 6 5967.03 555.866 4
1 -2 6 5725.02 379.236 5
1 -2 6 5864.65 298.044 3
1 -2 7 14733.9 465.96 3
1 -2 7 14374.9 892.599 4
1 -2 7 13300.5 662.022 5
1 -2 8 7.85755 217.079 4
1 -2 8 96.2729 147.013 5
1 -2 8 229.762 67.7518 3
1 -2 9 714.951 328.23 4
1 -2 9 490.062 155.91 5
1 -2 9 485.911 93.3021 3
1 -2 10 614.009 211.48 5
1 -2 10 1098.42 340.246 4
1 -2 11 12994.8 1124.24 4
1 -2 11 13804.3 934.92 5
1 -2 12 70.7088 187.909 5
1 -2 12 313.125 265.145 4
1 -2 13 -311.29 316.967 4
1 -2 13 -44.208 137.691 5
1 -2 14 637.816 439.778 4
1 -2 14 -9.17837 206.297 5
-1 1 15 119.442 275.185 5
-1 1 14 355.097 262.597 5
-1 1 13 1346.41 403.373 5
-1 1 12 683.68 302.56 5
-1 1 11 16678.6 1141.74 5
-1 1 10 369.247 231.943 5
-1 1 9 24296.6 1236.61 5
-1 1 8 6830.06 622.506 5
-1 1 7 1115.6 243.805 5
-1 1 6 3800.9 406.603 5
-1 1 5 11423.5 623.117 5
-1 1 4 20100.3 750.962 5
-1 1 4 21068.9 620.073 3
-1 1 3 80.562 67.8055 3
-1 1 3 88.0151 105.526 5
1 -1 -3 114.786 71.5193 5
1 -1 -2 5233.8 247.9 5
-1 1 2 5057.76 277.222 5
-1 1 2 4749.32 278.085 3
-1 1 1 8506.61 292.058 1
-1 1 1 10275.1 331.483 5
-1 1 1 9789.18 382.339 3
1 -1 -1 9344.88 278.635 5
1 -1 -1 9044.73 376.788 3
1 -1 0 5313.74 273.73 3
-1 1 0 5923.16 177.33 5
1 -1 0 5319.14 155.061 5
-1 1 0 5514.22 286.165 3
-1 1 -1 421.953 110.264 3
1 -1 1 740.541 134.408 3
-1 1 -1 778.819 153.329 4
1 -1 1 1118.53 230.516 4
1 -1 2 30906.8 661.429 3
1 -1 2 32504.1 877.411 4
-1 1 -2 32138.9 829.762 4
1 -1 3 421.07 73.4324 5
1 -1 3 330.891 150.115 4
1 -1 3 346.317 83.9535 3
-1 1 -3 484.925 70.6924 5
1 -1 4 47.2223 62.711 3
1 -1 4 -126.011 157.277 4
1 -1 4 12.6519 61.2654 5
-1 1 -4 16.397 49.8704 5
1 -1 5 23749.9 616.064 3
1 -1 5 24431.9 967.002 4
-1 1 -5 23269.6 669.498 5
1 -1 5 23256 716.998 5
1 -1 6 8143.23 369.157 3
1 -1 6 8041.34 480.272 5
1 -1 7 6391.27 491.039 5
1 -1 8 3288.91 384.738 5
1 -1 8 3021.97 235.598 3
1 -1 9 19003.6 998.707 5
1 -1 9 19248.9 594.12 3
1 -1 10 206.127 159.186 5
1 -1 11 728.415 253.609 5
1 -1 12 861.452 315.113 5
1 -1 13 -26.0968 144.701 5
1 -1 14 -52.4682 179.506 5
1 -1 15 66.3232 156.82 5
1 -1 16 -163.319 201.657 5
-1 0 15 -65.5499 201.165 5
-1 0 14 865.653 361.051 5
-1 0 13 42.3796 194.686 5
-1 0 12 407.192 267.43 5
-1 0 11 1397.09 359.308 5
-1 0 10 16943.4 1057.07 5
-1 0 9 648.683 246.484 5
-1 0 8 2238.74 176.625 3
-1 0 8 2407.15 355.05 5
-1 0 7 3440.33 415.581 5
-1 0 7 3237.6 211.924 3
-1 0 6 10902.5 369.334 3
-1 0 6 11594.9 633.389 5
-1 0 5 32129.6 950.397 5
-1 0 5 30749.3 593.362 3
-1 0 4 197.663 44.1793 3
-1 0 4 176.611 83.6938 5
-1 0 3 1518.56 182.745 1
-1 0 3 1682.25 180.033 5
1 0 -3 1385.35 173.32 5
-1 0 3 1741.24 133.527 3
-1 0 2 1745.02 170.948 5
1 0 -2 2028.22 178.81 1
-1 0 2 1679.05 167.176 1
1 0 -2 1813.96 146.106 3
-1 0 2 1805.49 131.121 3
1 0 -1 166531 1291.24 1
-1 0 1 166255 1310.8 1
1 0 -1 166534 1320.49 3
-1 0 1 165762 1393.09 3
1 0 0 42654.4 719.797 3
-1 0 0 42477.7 570.565 1
-1 0 -1 143054 1291.06 4
1 0 1 142408 1384.35 4
1 0 1 142937 1078.11 1
-1 0 -2 8164.65 390.946 4
1 0 2 9729.36 311.341 5
-1 0 -2 9900.03 334.124 5
1 0 2 9359.56 399.632 4
1 0 3 25355.5 591.071 5
-1 0 -3 23563.3 625.751 5
1 0 3 23298.5 736.902 4
-1 0 -4 24274.6 713.859 5
1 0 4 24831.7 681.344 5
1 0 5 3978.6 328.158 5
-1 0 -5 4167.74 329.072 5
1 0 6 88479.2 1629.1 5
1 0 7 -85.6807 151.995 5
1 0 8 999.306 240.038 5
1 0 9 -20.3366 147.261 5
1 0 10 -58.0597 144.524 5
1 0 11 428.557 187.998 5
1 0 12 7077.38 758.191 5
1 0 13 172.545 169.455 5
1 0 14 4.69313 170.704 5
1 0 15 392.295 273.042 5
1 0 16 399.615 243.554 5
-1 -1 15 -294.249 281.517 5
-1 -1 14 581.578 285.043 5
-1 -1 13 257.939 214.65 5
-1 -1 12 341.879 252.171 5
-1 -1 11 477.438 234.67 5
-1 -1 10 14125.5 924.318 5
-1 -1 9 6375.65 571.53 5
-1 -1 8 4447.46 450.439 5
-1 -1 7 3512.48 385.225 5
-1 -1 6 3649.75 338.461 5
-1 -1 5 29766.9 881.168 5
-1 -1 4 5743.09 374.567 5
1 1 -4 5456.65 204.104 3
-1 -1 3 5357.06 317.011 1
1 1 -3 5366.81 370.904 1
1 1 -3 5264.76 219.883 3
-1 -1 2 25597.9 644.442 1
1 1 -2 24074.4 656.766 1
1 1 -1 16745.4 483.769 1
-1 -1 1 16718.1 476.981 1
1 1 0 15009.2 408.103 1
-1 -1 0 14422.8 416.644 1
1 1 1 10344.3 368.349 1
-1 -1 -1 10672.7 245.231 4
-1 -1 -1 10564.8 387.917 1
1 1 2 62357.9 815.314 4
-1 -1 -2 62428 1037.31 5
1 1 2 64222 1012.57 5
1 1 3 11396.3 474.349 5
-1 -1 -3 12139.8 530.976 5
1 1 4 7724.59 443.193 5
-1 -1 -4 8486.96 495.221 5
1 1 5 8870.78 515.155 5
1 1 6 1882.98 275.446 5
1 1 7 2241.47 317.926 5
1 1 8 5554.99 521.511 5
1 1 9 12583.8 822.516 5
1 1 10 5484.83 628.906 5
1 1 11 -102.37 212.23 5
1 1 12 1207.7 338.373 5
1 1 13 514.953 201.374 5
1 1 14 -105.217 250.989 5
1 1 15 34.658 177.544 5
1 1 16 258.939 255.786 5
-1 -2 15 402.94 250.011 5
-1 -2 14 1859.73 379.875 5
-1 -2 13 3640.88 563.073 5
-1 -2 12 340.474 166.163 5
-1 -2 11 1344.71 345.292 5
-1 -2 10 1845.19 323.067 5
-1 -2 9 21448.4 980.731 5
-1 -2 8 95.9058 104.488 5
-1 -2 7 16054 758.952 5
-1 -2 6 28.9001 94.6756 5
-1 -2 5 891.741 186.101 5
1 2 -4 222.642 158.757 1
1 2 -3 14340.4 612.252 1
1 2 -2 12917.8 536.525 1
-1 -2 2 13981.3 533.225 1
1 2 -1 233.684 76.9086 1
-1 -2 1 429.348 107.387 1
-1 -2 0 602941 3128.23 1
1 2 0 600902 3190.61 1
-1 -2 -1 34464.9 805.734 1
1 2 1 33549.1 757.265 1
-1 -2 -2 113565 1619.84 5
1 2 2 113473 1539.6 1
1 2 3 12667.9 576.045 5
-1 -2 -3 13289.1 613.632 5
1 2 4 42737.1 1114.48 5
1 2 5 34181.5 1077.35 5
1 2 6 993.385 192.454 5
1 2 7 59311.6 1617.5 5
1 2 8 6460.79 580.702 5
1 2 9 448.323 244.965 5
1 2 10 3191.59 467.95 5
1 2 11 299.777 240.109 5
1 2 12 643.544 265.484 5
1 2 13 1179.31 353.552 5
1 2 14 414.941 221.754 5
1 2 15 -14.6868 212.391 5
-1 -3 15 -134.813 174.085 5
-1 -3 14 133.152 239.73 5
-1 -3 13 1829.08 403.537 5
-1 -3 12 841.821 281.885 5
-1 -3 11 49.8943 122.935 5
-1 -3 10 110.006 105.124 5
-1 -3 9 3289 396.32 5
-1 -3 8 1429.35 277.596 5
-1 -3 7 -204.635 121.074 5
-1 -3 6 -13.0298 104.297 5
1 3 -5 3295.67 454.8 1
1 3 -4 710.027 183.46 1
1 3 -3 2117.7 278.048 1
1 3 -2 5841.6 400.592 1
-1 -3 1 1170.56 152.082 4
1 3 -1 986.119 166.623 1
1 3 0 866.258 167.887 1
-1 -3 0 643.031 92.2517 4
1 3 1 31528.9 846.366 1
1 3 2 47843.1 1126.27 1
1 3 3 3402.17 339.365 1
1 3 4 978.852 234.921 5
1 3 5 5684.04 481.443 5
1 3 6 584.33 200.239 5
1 3 7 1082.91 249.445 5
1 3 8 94.5792 150.676 5
1 3 9 523.967 212.497 5
1 3 10 886.936 274.923 5
1 3 11 211.346 176.876 5
1 3 12 70.8638 159.927 5
1 3 13 303.17 203.495 5
1 3 14 -157.311 266.878 5
1 3 15 -200.303 239.098 5
-1 -4 14 545.041 296.459 5
-1 -4 13 1692.89 396.736 5
-1 -4 12 1952.32 363.183 5
-1 -4 11 961.133 245.109 5
-1 -4 10 3844.41 434.165 5
-1 -4 9 357.147 156.879 5
-1 -4 8 8503.95 603.197 5
-1 -4 7 5222.41 469.908 5
1 4 -6 1334.84 128.833 3
1 4 -5 595.081 242.625 1
1 4 -4 3541.74 404.354 1
-1 -4 3 42.1782 136.36 4
1 4 -3 95.8907 103.354 1
-1 -4 2 783.808 188.187 4
1 4 -2 597.143 157.477 1
-1 -4 1 5501.73 342.112 4
1 4 -1 5030.79 394.012 1
1 4 0 21613.6 805.246 1
1 4 1 129519 1898.59 1
1 4 2 60256.9 1345.97 1
1 4 2 58345.7 816.962 4
1 4 3 6003.23 462.526 1
1 4 4 94.1094 147.167 5
1 4 4 192.93 131.576 1
1 4 5 5241.73 505.848 5
1 4 6 9882.54 703.622 5
1 4 7 14663.5 883.347 5
1 4 8 606.487 258.473 5
1 4 9 4154.67 510.818 5
1 4 10 142.012 176.381 5
1 4 11 393.38 216.14 5
1 4 12 258.515 219.314 5
1 4 13 9.06428 156.424 5
1 4 14 -399.211 283.017 5
-1 -5 13 289.933 171.382 5
-1 -5 12 2912.83 644.354 4
-1 -5 12 2037.21 380.179 5
-1 -5 11 1071.31 452.239 4
-1 -5 11 882.587 241.87 5
-1 -5 10 1063.81 401.022 4
-1 -5 10 850.493 238.99 5
-1 -5 9 440.794 316.825 4
-1 -5 9 689.037 199.735 5
-1 -5 8 4535.49 580.182 4
-1 -5 8 3376.42 393.44 5
-1 -5 7 201.038 242.812 4
-1 -5 6 912.492 336.991 4
1 5 -6 335.612 257.874 1
1 5 -5 1613.92 368.294 1
-1 -5 5 1451.13 327.469 4
-1 -5 4 380.394 195.606 4
1 5 -4 257.682 175.359 1
1 5 -3 939.831 220.707 1
-1 -5 3 912.58 225.971 4
-1 -5 2 5577.53 425.847 4
1 5 -2 5339.35 455.402 1
1 5 -1 -40.8952 135.089 1
-1 -5 1 -124.757 158.987 4
1 5 0 783.876 175.217 1
1 5 1 6762 504.73 1
1 5 2 43771.7 851.299 4
1 5 2 44668.8 1253.47 1
1 5 3 1486.42 173.383 4
1 5 3 1469.51 295.578 1
1 5 4 378.377 194.383 1
1 5 5 2553.04 364.905 1
1 5 6 8084.53 649.327 1
1 5 6 8685.02 722.2 5
1 5 7 1764.38 349.271 5
1 5 8 -90.233 179.447 5
1 5 9 2025.77 380.59 5
1 5 10 -96.0601 196.002 5
1 5 11 458.365 191.898 5
1 5 12 165.845 187.02 5
1 5 13 -184.945 215.907 5
1 5 14 596.192 341.129 5
-1 -6 12 616.197 367.578 4
-1 -6 11 330.278 302.864 4
-1 -6 11 412.816 157.241 5
-1 -6 10 -404.637 283.652 4
-1 -6 10 145.396 149.681 5
-1 -6 9 657.992 242.428 4
-1 -6 9 1081.99 241.817 5
-1 -6 8 -46.414 193.3 4
-1 -6 8 -68.7958 115.952 5
-1 -6 7 230.664 248.805 4
-1 -6 6 1332.88 305.338 4
1 6 -6 2033.79 444.471 1
-1 -6 5 131.234 169.571 4
1 6 -5 461.808 241.515 1
-1 -6 4 995.25 237.067 4
1 6 -4 726.132 211.442 1
-1 -6 3 5124.83 484.148 4
1 6 -3 5186.84 522.89 1
-1 -6 2 1866.94 301.379 4
1 6 -2 1741.07 297.917 1
1 6 -1 151.177 121.714 1
1 6 0 737.754 218.47 1
1 6 1 2823.67 357.55 1
1 6 2 14348.1 797.598 1
1 6 3 13305.2 759.053 1
1 6 4 1747.85 310.646 1
1 6 5 1165.61 270.464 1
1 6 6 285.734 181.464 1
1 6 7 -306.127 223.601 1
1 6 8 1517.16 345.294 1
1 6 8 1578.79 384.284 5
1 6 9 326.257 210.22 5
1 6 10 -27.4004 206.509 5
1 6 11 452.45 315.942 5
1 6 12 570.191 264.14 5
1 6 13 941.15 353.263 5
-1 -7 11 388.616 247.59 4
-1 -7 10 315.211 283.497 4
-1 -7 9 1129.57 333.335 4
-1 -7 8 -10.0031 92.3272 5
-1 -7 8 233.021 194.387 4
-1 -7 7 2107.85 371.896 4
-1 -7 6 36.5473 193.224 4
1 7 -6 187.109 221.604 1
1 7 -5 1100.95 335.99 1
-1 -7 5 856.196 230.464 4
1 7 -4 277.465 177.142 1
-1 -7 4 138.96 184.244 4
1 7 -3 205.886 158.238 1
-1 -7 3 118.416 159.048 4
1 7 -2 86.0508 126.639 1
1 7 -1 98.3534 135.251 1
1 7 0 398.124 178.745 1
1 7 1 368.413 175.607 1
1 7 2 179.162 157.176 1
1 7 3 7007.61 589.103 1
1 7 4 379.541 184.922 1
1 7 5 325.039 241.026 1
1 7 6 -53.9395 146.623 1
1 7 7 1018.84 310.134 1
1 7 8 1306.25 303.337 1
1 7 9 722.582 264.188 1
1 7 10 96.787 171.571 1
1 7 10 364.402 253.055 5
1 7 11 98.2888 184.511 5
1 7 11 649.744 282.974 1
1 7 12 448.135 218.774 1
1 8 -3 2118.05 377.379 1
1 8 -2 798.151 261.974 1
1 8 -1 1406.17 291.744 1
1 8 0 648.792 210.215 1
1 8 1 96.2853 153.225 1
1 8 2 304.317 196.384 1
1 8 3 2181.93 360.852 1
1 8 4 3399.58 464.358 1
1 8 5 -125.729 166.567 1
1 8 6 849.827 263.842 1
1 8 7 759.259 267.785 1
1 8 8 -203.066 237.744 1
1 8 9 67.5176 199.451 1
1 8 10 -180.192 159.742 1
1 8 11 397.133 271.577 1
1 9 5 274.465 162.721 1
1 9 6 -86.85 162.545 1
1 9 7 187.785 143.117 1
1 9 8 101.067 184.283 1
1 9 9 89.112 186.334 1
-2 7 10 -22.8495 162.732 5
-2 7 9 133.592 207.23 5
-2 7 8 540.46 302.395 5
-2 7 7 552.705 210.279 5
-2 6 11 -102.719 185.126 5
-2 6 10 540.653 298.391 5
-2 6 9 -26.7566 158.622 5
-2 6 8 -162.842 217.888 5
-2 6 7 3094.58 492.371 5
-2 6 6 160.127 161.495 5
-2 6 5 384.783 198.65 5
-2 6 4 1055.71 241.167 5
2 -6 7 -68.54 256.865 4
2 -6 8 225.976 282.792 4
2 -6 9 -314.623 246.58 4
-2 5 12 153.196 188.544 5
-2 5 11 359.319 286.733 5
-2 5 10 284.468 216.528 5
-2 5 9 1096.79 354.995 5
-2 5 8 802.226 304.154 5
-2 5 7 2367.83 436.7 5
-2 5 6 2722.97 442.107 5
-2 5 5 1469.21 323.432 5
-2 5 4 198.921 148.714 5
-2 5 3 26.2268 100.104 5
-2 5 3 124.297 78.2232 1
2 -5 5 -36.2706 264.479 4
2 -5 6 3508.54 590.95 4
2 -5 7 -284.26 289.763 4
2 -5 8 218.498 297.454 4
2 -5 9 564.485 307.95 4
2 -5 10 211.232 282.723 4
2 -5 11 125.38 221.696 4
-2 4 13 24.6911 223.884 5
-2 4 12 41.1715 179.263 5
-2 4 11 582.292 308.58 5
-2 4 10 78.0265 251.77 5
-2 4 9 3648.79 594.286 5
-2 4 8 -397.636 225.728 5
-2 4 7 223.114 231.613 5
-2 4 6 2421.76 420.843 5
-2 4 5 971.635 253.196 5
-2 4 4 651.657 219.89 5
-2 4 3 3210.18 379.249 5
-2 4 2 152.935 101.763 5
-2 4 1 3108.17 152.853 1
-2 4 1 2648.66 161.155 1
2 -4 -1 4606.16 293.449 5
2 -4 0 26274.6 595.506 5
2 -4 1 1426.2 100.574 5
2 -4 4 6279.98 698.644 4
2 -4 5 14647.9 1040.95 4
2 -4 6 415.507 297.362 4
2 -4 7 3299.03 534.969 4
2 -4 8 293.333 269.205 4
2 -4 9 -79.1737 238.104 4
2 -4 10 69.7451 296.664 4
2 -4 11 -26.753 299.464 4
2 -4 12 280.353 310.833 4
-2 3 13 110.414 221.881 5
-2 3 12 331.063 278.181 5
-2 3 11 130.677 194.966 5
-2 3 10 1344.23 394.261 5
-2 3 9 92.159 181.262 5
-2 3 8 -60.8108 175.823 5
-2 3 7 157.369 173.519 5
-2 3 6 15765.4 969.056 5
-2 3 5 553.249 222.578 5
-2 3 4 82.6762 128.777 5
-2 3 3 189.647 131.622 5
2 -3 -2 5131.17 306.919 5
-2 3 2 4845.01 323.746 1
-2 3 2 4390.93 385.266 5
-2 3 1 5586.1 242.683 1
-2 3 1 6205.04 367.266 5
2 -3 -1 7103.42 312.35 5
2 -3 0 24614.2 471.782 5
2 -3 4 170.738 94.3296 3
2 -3 4 -11.4416 218.345 4
2 -3 4 135.414 41.5532 1
2 -3 5 3972.64 230.505 1
2 -3 5 4858.2 562.38 4
2 -3 5 4716.9 391.697 3
2 -3 6 132.983 112.57 3
2 -3 6 135.073 242.682 4
2 -3 6 16.287 71.0061 5
2 -3 7 4739.72 586.725 4
2 -3 7 4911.13 343.548 5
2 -3 7 4782.29 392.259 3
2 -3 8 1717.17 239.754 3
2 -3 8 1354.05 338.371 4
2 -3 9 3019.8 522.559 4
2 -3 10 501.42 262.615 4
2 -3 11 1103.93 383.842 4
2 -3 12 737.533 352.631 4
2 -3 13 -779.73 380.455 4
-2 2 14 318.843 295.43 5
-2 2 13 748.21 349.081 5
-2 2 12 540.338 329.862 5
-2 2 11 706.272 298.746 5
-2 2 10 772.809 289.076 5
-2 2 9 3866.56 545.022 5
-2 2 8 301.837 239.598 5
-2 2 7 440.571 230.975 5
-2 2 6 4469.46 487.456 5
-2 2 5 11516.2 712.341 5
-2 2 4 798.755 192.099 5
-2 2 3 3013.1 322.184 5
-2 2 3 2886.47 290.429 1
2 -2 -2 32995.5 762.161 5
-2 2 2 32330.1 775.182 1
-2 2 2 31833 890.191 5
2 -2 -1 -94.8021 126.197 3
-2 2 1 24.6338 49.1201 1
-2 2 1 38.4152 70.332 5
-2 2 0 1650.44 100.532 1
2 -2 0 2483.51 275.445 3
-2 2 0 2528.52 182.51 5
2 -2 1 14930.4 637.113 3
2 -2 2 4608.07 352.608 3
2 -2 3 886.534 254.393 4
2 -2 3 837.6 93.3313 1
2 -2 3 1105.9 203.779 3
2 -2 4 9785.87 724.975 4
2 -2 4 9426.96 499.685 3
2 -2 5 28.2118 59.8876 5
2 -2 5 138.03 211.14 4
2 -2 5 211.591 103.412 3
2 -2 6 10282.9 770.566 4
2 -2 6 10660.6 534.854 3
2 -2 6 11051.3 488.493 5
2 -2 7 6965.05 684.426 4
2 -2 7 6680.94 432.137 3
2 -2 7 7264.04 459.498 5
2 -2 8 0.85656 233.054 4
2 -2 8 -219.901 132.92 5
2 -2 8 -45.3456 91.6015 3
2 -2 9 100.207 273.049 4
2 -2 9 458.276 142.539 3
2 -2 9 390.842 153.024 5
2 -2 10 283.141 250.357 4
2 -2 10 350.775 181.021 5
2 -2 11 2279.55 458.78 4
2 -2 12 627.634 295.745 4
2 -2 13 1157.79 391.895 4
2 -2 14 128.178 289.315 4
-2 1 14 -145.322 180.435 5
-2 1 13 30.7293 186.117 5
-2 1 12 999.077 348.016 5
-2 1 11 1413.5 355.571 5
-2 1 10 3892.38 568.134 5
-2 1 9 3100.33 500.541 5
-2 1 8 1790.22 333.904 5
-2 1 7 470.07 197.82 5
-2 1 6 3012.59 371.062 5
-2 1 5 16806.1 797.084 5
-2 1 4 3986.42 343.285 5
2 -1 -3 2900.87 295.029 3
-2 1 3 3115.96 276.854 5
-2 1 2 14735 523.822 5
-2 1 2 14541.2 529.404 1
2 -1 -2 14310.1 603.276 3
-2 1 1 807.189 119.413 1
2 -1 -1 878.354 114.137 1
2 -1 -1 988.037 175.151 3
-2 1 1 1106.95 131.999 5
2 -1 0 440.378 77.4957 1
-2 1 0 405.722 72.3216 5
2 -1 0 476.167 136.635 3
-2 1 0 335.71 66.343 1
2 -1 1 61677.8 730.46 1
2 -1 1 61501.9 1219.87 3
2 -1 2 32078.6 562.641 1
2 -1 2 34324.7 901.89 3
-2 1 -2 31922.5 473.974 5
2 -1 3 6573.97 329.372 1
2 -1 3 6319.87 511.208 4
2 -1 3 6393.71 394.591 3
-2 1 -3 5782.93 231.289 5
2 -1 4 14744.8 788.335 4
-2 1 -4 13478 412.112 5
2 -1 4 13814.2 617.81 3
2 -1 4 13820.1 445.547 5
-2 1 -5 2652.48 210.431 5
2 -1 5 2589.25 275.479 3
2 -1 5 3755.68 453.74 4
2 -1 5 2903.3 240.357 5
2 -1 6 12839.4 787.36 4
2 -1 6 11429.4 577.49 3
-2 1 -6 10887 475.018 5
2 -1 6 12383.8 573.016 5
2 -1 7 100.502 101.362 5
2 -1 7 24.0031 233.593 4
2 -1 7 94.6656 109.857 3
2 -1 8 502.604 169.583 5
2 -1 8 465.356 140.227 3
2 -1 8 202.855 200.918 4
2 -1 9 10038.8 846.188 4
2 -1 9 9803.11 548.841 3
2 -1 9 8935.72 663.403 5
2 -1 10 -88.1332 157.02 5
2 -1 10 -80.8125 274.991 4
2 -1 10 91.2183 75.9374 3
2 -1 11 2062.77 356.991 5
2 -1 11 1955.95 452.294 4
2 -1 12 -126.408 172.654 5
2 -1 12 -481.344 331.544 4
2 -1 13 -306.355 195.872 5
2 -1 13 -391.866 313.406 4
2 -1 14 730.576 393.835 4
-2 0 14 169.363 180.762 5
-2 0 13 607.518 291.855 5
-2 0 12 65.5626 215.491 5
-2 0 11 7392.5 773.599 5
-2 0 10 109.803 212.47 5
-2 0 9 57.6658 194.602 5
-2 0 8 6440.38 606.202 5
-2 0 7 20285.2 958.352 5
-2 0 6 17605.3 828.775 5
-2 0 5 3472.82 343.149 5
-2 0 4 45607.1 1111.69 5
2 0 -4 43633.6 1005.08 3
2 0 -3 22842.1 817.532 1
2 0 -3 20289.8 696.848 3
-2 0 3 22288.2 722.254 5
-2 0 2 58638.6 1092.51 1
2 0 -2 56740.2 1160.31 1
2 0 -2 58345.9 1149.97 3
-2 0 1 16043.9 522.824 1
2 0 -1 15452.6 608.673 3
2 0 -1 17053.4 547.309 1
2 0 0 12422.9 425.336 1
2 0 0 12442.5 552.126 3
-2 0 0 12562 434.892 1
-2 0 -1 73.5077 96.9187 4
-2 0 -1 -89.2507 81.4114 1
2 0 1 -110.841 74.3732 1
2 0 2 1634.45 166.317 1
-2 0 -2 2081.69 232.574 4
-2 0 -2 1722.04 166.008 5
-2 0 -3 68.4988 71.2703 5
2 0 3 110.194 135.181 4
2 0 3 22.4969 82.4845 1
2 0 4 13578.9 688.42 4
-2 0 -4 13202.1 551.041 5
2 0 4 12449 520.077 5
2 0 5 16113 791.257 4
2 0 5 14686.1 622.192 5
-2 0 -5 15197.5 656.805 5
2 0 6 1068.6 201.797 5
2 0 6 1247.3 242.408 4
2 0 7 372.626 233.463 4
2 0 7 216.379 111.033 5
2 0 8 171.421 142.995 5
2 0 8 198.187 225.84 4
2 0 9 1267.39 272.132 5
2 0 9 1104.82 323.154 4
2 0 10 199.123 267.85 4
2 0 10 37.9075 125.009 5
2 0 11 8081.81 844.952 4
2 0 11 8749.98 742.621 5
2 0 12 467.636 345.138 4
2 0 12 279.852 227.683 5
2 0 13 13.6915 174.859 5
2 0 13 841.82 358.017 4
2 0 14 184.108 265.577 4
2 0 14 721.614 281.548 5
2 0 15 -488.02 281.018 5
2 0 15 -67.444 275.325 4
-2 -1 14 566.978 300.72 5
-2 -1 13 379.125 241.569 5
-2 -1 12 -248.688 257.397 5
-2 -1 11 6145.92 694.372 5
-2 -1 10 -151.556 175.88 5
-2 -1 9 21847.8 1082.09 5
-2 -1 8 2114.98 344.31 5
-2 -1 7 126.728 131.956 5
-2 -1 6 3179.38 343.491 5
-2 -1 5 62.0539 103.127 5
2 1 -5 -11.9504 78.2475 3
2 1 -4 45905 1354.53 1
2 1 -4 44717.2 938.488 3
-2 -1 4 43201 1149.91 5
2 1 -3 549.483 161.411 1
2 1 -3 563.318 133.993 3
2 1 -2 4107.7 322.664 1
-2 -1 1 776.26 129.37 1
2 1 -1 681.355 121.594 1
2 1 0 48.5232 88.6134 1
-2 -1 0 286.881 92.8414 1
-2 -1 -1 3328.56 272.631 1
2 1 1 3081.97 247.129 1
-2 -1 -2 -26.6253 72.7858 4
2 1 2 14.9503 86.7598 1
2 1 3 13616.4 594.967 1
-2 -1 -3 13075 547.969 4
-2 -1 -3 14130.6 584.584 5
2 1 3 13047.5 543.507 4
2 1 4 128.379 96.2618 5
2 1 4 308.63 152.838 4
2 1 5 38.6265 132.186 4
2 1 5 50.6543 103.673 5
2 1 6 5646.78 486.042 4
2 1 6 5620.53 451.223 5
2 1 7 144.985 135.003 5
2 1 7 182.734 191.046 4
2 1 8 1192.73 270.22 5
2 1 8 1262.17 311.293 4
2 1 9 6690.24 607.166 5
2 1 10 471.608 183.968 5
2 1 11 -154.295 166.449 5
2 1 12 2462.48 477.872 5
2 1 13 409.206 241.444 5
2 1 14 -12.4143 206.062 5
2 1 14 -182.422 248.401 4
2 1 15 -45.7067 165.411 5
2 1 15 -109.089 405.559 4
2 1 16 248.878 273.468 5
-2 -2 14 272.687 212.165 5
-2 -2 13 -22.5137 203.601 5
-2 -2 12 305.124 201.588 5
-2 -2 11 -0.3375 128.863 5
-2 -2 10 11122.5 805.504 5
-2 -2 9 119.416 152.239 5
-2 -2 8 2244.61 334.709 5
-2 -2 7 -23.1015 117.438 5
2 2 -6 10870.6 389.255 3
-2 -2 6 11049.1 676.431 5
2 2 -5 38128.4 1382.59 1
2 2 -5 37409.6 805.903 3
2 2 -4 106.255 147.343 1
2 2 -3 12754.4 643.273 1
2 2 -2 4686.14 373.475 1
2 2 -1 11629.2 545.743 1
2 2 0 9666.62 479.541 1
2 2 1 17645.1 649.349 1
-2 -2 -2 8.77184 66.6388 4
2 2 2 231.091 131.931 1
2 2 3 1451.52 161.295 4
2 2 3 1308.2 218.775 1
2 2 4 2196.28 223.462 4
2 2 4 2399.27 293.529 1
2 2 5 -9.8199 107.503 5
2 2 5 -94.4823 115.691 4
2 2 6 24278.2 876.654 4
2 2 6 24571.7 1001.67 5
2 2 7 96.6965 133.002 5
2 2 8 99.4078 134.476 5
2 2 9 -51.9747 153.705 5
2 2 10 230.017 159.733 5
2 2 11 1598.4 382.08 5
2 2 12 5245.13 642.714 5
2 2 13 580.655 277.073 5
2 2 14 185.67 236.09 5
2 2 15 119.721 164.37 5
2 2 16 -351.936 294.785 5
2 2 16 -317.98 234.273 4
-2 -3 14 1038.6 391.452 5
-2 -3 13 231.37 198.543 5
-2 -3 12 578.39 252.867 5
-2 -3 11 -141.157 119.34 5
-2 -3 10 6873.57 615.054 5
-2 -3 9 6182.25 549.333 5
-2 -3 8 7655.04 621.138 5
-2 -3 7 4842.91 485.79 5
2 3 -6 4597.89 538.23 1
2 3 -6 3433.82 230.615 3
2 3 -5 28202 1205.9 1
2 3 -4 1811.27 288.56 1
2 3 -3 16978 783.472 1
2 3 -2 11714.7 624.602 1
2 3 -1 13841.1 640.526 1
2 3 0 1874.62 264.886 1
2 3 1 1355.67 221.905 1
2 3 2 4384.45 381.196 1
2 3 3 357.845 158.161 1
2 3 4 28.443 62.5739 4
2 3 4 -115.915 135.546 1
2 3 5 273.719 138.028 4
2 3 5 75.5418 146.577 1
2 3 6 -4.45937 129.424 5
2 3 7 2670.41 362.309 5
2 3 8 460.25 214.723 5
2 3 9 10653 800.684 5
2 3 10 1693.24 336.315 5
2 3 11 649.805 247.367 5
2 3 12 -22.0164 149.932 5
2 3 13 2203.31 478.273 5
2 3 14 -108.228 148.491 5
2 3 15 -411.718 273.666 5
-2 -4 13 172.894 177.2 5
-2 -4 12 -160.799 138.229 5
-2 -4 11 357.655 200.21 5
-2 -4 10 61.6633 102.86 5
-2 -4 9 11196.2 762.138 5
-2 -4 8 -40.1473 135.76 5
2 4 -7 11669.9 964.834 1
2 4 -6 1495.45 366.676 1
2 4 -5 1589.48 344.861 1
2 4 -4 8800.99 644.837 1
2 4 -3 1160.14 249.102 1
2 4 -2 8171.1 556.714 1
2 4 -1 3314.1 354.759 1
-2 -4 0 10197.6 310.005 4
2 4 0 9294.42 572.004 1
2 4 1 1625.71 292.488 1
2 4 2 28673.7 1021.62 1
2 4 3 2608.43 348.745 1
2 4 4 1631.21 315.001 1
2 4 5 39.9535 166.823 1
2 4 6 -153.839 170.22 1
2 4 7 24026 1181.14 5
2 4 8 4702.7 558.246 5
2 4 9 313.812 235.913 5
2 4 10 249.339 203.965 5
2 4 11 1419.43 361.033 5
2 4 12 776.55 296.006 5
2 4 13 979.266 339.784 5
2 4 14 -13.2338 254.202 5
-2 -5 13 -289.938 193.826 5
-2 -5 12 -210.826 182.479 5
-2 -5 11 372.368 182.27 5
-2 -5 10 0.86691 109.727 5
-2 -5 9 1706.32 320.368 5
-2 -5 8 3159.81 424.831 5
2 5 -7 1797.5 453.888 1
2 5 -6 1487.04 364.459 1
2 5 -5 120.052 160.741 1
2 5 -4 5625.51 546.9 1
2 5 -3 1183.91 292.542 1
-2 -5 2 410.465 138.375 4
2 5 -2 388.793 191.305 1
-2 -5 1 200.561 100.615 4
2 5 -1 318.43 173.64 1
2 5 0 3953.02 409.892 1
2 5 1 180.514 184.306 1
2 5 2 12593.9 741.59 1
2 5 3 133.938 164.51 1
2 5 4 1640.32 314.633 1
2 5 5 124.951 204.224 1
2 5 6 456.462 230.285 1
2 5 7 1327.42 286.535 1
2 5 8 407.998 190.992 5
2 5 8 562.523 235.939 1
2 5 9 302.535 210.548 5
2 5 10 1388.67 345.081 5
2 5 11 188.121 202.979 5
2 5 12 76.8599 158.126 5
2 5 13 -28.2858 185.093 5
2 5 14 142.521 209.271 5
-2 -6 12 -1.24439 297.734 4
-2 -6 12 461.047 214.555 5
-2 -6 11 529.971 424.791 4
-2 -6 11 -51.133 162.117 5
-2 -6 10 -0.72206 103.012 5
-2 -6 9 -248.683 188.1 5
-2 -6 8 6268.65 660.177 4
-2 -6 7 2206.2 410.79 4
2 6 -7 2434.05 521.754 1
-2 -6 6 2819.36 401.124 4
2 6 -6 2939.93 511.419 1
2 6 -5 1524.46 369.698 1
-2 -6 5 1931.15 299.289 4
-2 -6 4 29.3726 149.761 4
2 6 -4 73.8674 138.629 1
2 6 -3 2927.14 406.333 1
-2 -6 3 3085.52 339.111 4
-2 -6 2 -321.839 125.969 4
2 6 -2 -206.359 188.529 1
-2 -6 1 2848.92 272.48 4
2 6 -1 2773.96 390.794 1
2 6 0 9420.39 674.622 1
2 6 1 3467.31 427.009 1
2 6 2 8085.17 641.165 1
2 6 3 5067.48 518.337 1
2 6 4 253.309 200.927 1
2 6 5 200.254 157.87 1
2 6 6 335.057 215.545 1
2 6 7 756.689 266.664 1
2 6 8 2429.29 449.436 1
2 6 9 2743.57 464.826 1
2 6 10 26.7057 150.659 5
2 6 10 229.256 229.512 1
2 6 11 233.239 163.313 1
2 6 11 -87.8275 181.134 5
2 6 12 43.2597 179.213 1
2 6 12 220.525 188.265 5
-2 -7 11 291.448 346.334 4
-2 -7 11 -124.077 137.12 5
-2 -7 10 -358.227 304.755 4
-2 -7 10 115.176 171.093 5
-2 -7 9 1.50432 201.075 4
-2 -7 9 257.094 182.728 5
-2 -7 8 859.988 285.303 4
-2 -7 7 1084.01 326.445 4
2 7 -7 1141.86 418.701 1
2 7 -6 -230.146 200.453 1
-2 -7 6 -170.74 197.433 4
2 7 -5 1310.19 335.327 1
-2 -7 5 803.508 224.764 4
-2 -7 4 -172.259 180.238 4
2 7 -4 -336.825 241.58 1
2 7 -3 -52.9741 160.119 1
2 7 -2 -125.119 168.837 1
2 7 -1 784.628 260.085 1
2 7 0 172.67 156.334 1
2 7 1 -70.8767 133.07 1
2 7 2 4568.89 526.486 1
2 7 3 1276.14 310.519 1
2 7 4 825.607 260.417 1
2 7 5 -170.264 190.604 1
2 7 6 803.296 246.335 1
2 7 7 180.684 242.288 1
2 7 8 872.031 305.998 1
2 7 9 754.785 217.539 1
2 7 10 -125.551 193.247 1
2 7 11 749.221 362.545 1
2 8 -7 1259.99 447.294 1
2 8 -6 1503.88 451.729 1
2 8 -5 -447.68 273.223 1
2 8 -4 827.507 322.258 1
2 8 -3 289.405 229.086 1
2 8 -2 128.013 155.26 1
2 8 -1 228.537 172.943 1
2 8 0 84.3629 164.417 1
2 8 1 734.266 235.126 1
2 8 2 335.802 134.588 1
2 8 3 3313.17 480.419 1
2 8 4 800.952 274.631 1
2 8 5 82.5812 157.751 1
2 8 6 -166.756 196.109 1
2 8 7 13.1863 161.024 1
2 8 8 -36.1696 174.46 1
2 8 9 153.969 259.755 1
2 8 10 -266.732 231.94 1
2 9 -3 46.4719 174.08 1
2 9 -2 63.1631 156.811 1
2 9 -1 164.044 205.97 1
2 9 0 107.971 151.298 1
2 9 1 145.851 162.93 1
2 9 2 -110.187 131.882 1
2 9 3 1841.17 348.697 1
2 9 4 -253.102 207.778 1
2 9 5 -596.921 281.187 1
2 9 6 166.335 193.128 1
2 9 7 370.449 189.966 1
2 9 8 -14.2349 156.409 1
2 10 5 109.356 190.242 1
2 10 6 883.718 336.762 1
-3 5 11 353.252 292.446 5
-3 5 10 301.526 215.835 5
-3 5 9 1141.56 367.782 5
-3 5 8 449.155 216.068 5
-3 5 7 920.878 281.825 5
-3 5 6 741.926 250.072 5
-3 5 5 3909.54 460.295 5
3 -5 8 99.559 308.951 4
3 -5 9 2315.49 478.46 4
-3 4 12 559.558 312.696 5
-3 4 11 -71.1927 165.884 5
-3 4 10 594.61 259.819 5
-3 4 9 600.358 249.485 5
-3 4 8 1157.28 340.863 5
-3 4 7 1366.63 340.073 5
-3 4 6 121.122 163.809 5
-3 4 5 807.826 264.911 5
-3 4 4 44.6565 116.573 5
-3 4 3 206.045 95.259 5
-3 4 2 1593.61 243.947 5
3 -4 7 331.851 313.893 4
3 -4 8 -29.2148 245.583 4
3 -4 9 743.244 380.328 4
3 -4 10 261.511 262.201 4
-3 3 13 140.188 210.465 5
-3 3 12 -846.936 370.668 5
-3 3 11 313.331 360.229 5
-3 3 10 35.9082 217.725 5
-3 3 9 1241.96 366.147 5
-3 3 8 498.019 252.618 5
-3 3 7 241.706 152.411 5
-3 3 6 4344.41 555.335 5
-3 3 5 9986.33 769.956 5
-3 3 4 1969.09 336.941 5
-3 3 3 7509 548.914 5
-3 3 2 2971.77 238.484 1
-3 3 2 2396.06 298.609 5
-3 3 1 1340.01 114.482 1
-3 3 1 1354.91 194.787 5
-3 3 0 476.911 98.7841 5
3 -3 1 340.011 155.562 3
3 -3 2 2275.34 327.089 3
3 -3 3 5.70847 125.6 3
3 -3 4 5245.01 476.647 3
3 -3 5 164.866 100.182 3
3 -3 6 17461.1 844.647 3
3 -3 6 18165 1253.43 4
3 -3 7 417.385 263.31 4
3 -3 7 278.078 121.195 3
3 -3 8 529.668 300.211 4
3 -3 8 311.948 153.639 3
3 -3 9 460.101 280.052 4
3 -3 10 1687.03 441.761 4
3 -3 11 2447.96 487.49 4
3 -3 12 187.476 287.452 4
-3 2 13 735.593 324.57 5
-3 2 12 175.337 287.489 5
-3 2 11 -72.8968 244.024 5
-3 2 10 19.7828 212.953 5
-3 2 9 6521.21 757.031 5
-3 2 8 263.275 158.573 5
-3 2 7 5879.01 644.941 5
-3 2 6 1793.89 346.654 5
-3 2 5 86.7925 138.08 5
-3 2 4 863.829 239.527 5
-3 2 3 499.883 148.714 5
3 -2 -2 971.216 235.569 3
-3 2 2 873.864 144.66 1
-3 2 2 855.313 189.993 5
3 -2 -1 2408.27 330.78 3
-3 2 1 2786.25 225.322 1
-3 2 1 2458.77 244.432 5
-3 2 0 34303.6 678.53 1
-3 2 0 36165.3 743.151 5
3 -2 0 35110.8 1162.54 3
3 -2 1 952.902 197.901 3
3 -2 2 2524.53 138.148 1
3 -2 2 4552.69 423.006 3
3 -2 3 5175.54 210.34 1
3 -2 3 6562.04 505.377 3
3 -2 4 1627.93 144.959 1
3 -2 4 1847.34 283.254 3
3 -2 5 14278.7 524.027 1
3 -2 5 17225.5 1126.48 4
3 -2 5 14689.7 742.215 3
3 -2 6 256.973 109.431 1
3 -2 6 544.451 247.884 4
3 -2 6 485.12 163.141 3
3 -2 7 14259.1 1038.48 4
3 -2 7 14095.6 728.896 3
3 -2 8 1517.02 392.6 4
3 -2 8 1170.82 240.056 3
3 -2 9 -165.249 198.375 4
3 -2 9 394.207 151.299 3
3 -2 10 415.577 330.122 4
3 -2 11 2180.67 509.819 4
3 -2 12 976.034 362.038 4
3 -2 13 48.5616 254.529 4
-3 1 13 366.221 305.757 5
-3 1 12 -92.1254 258.246 5
-3 1 11 -13.8965 176.97 5
-3 1 10 2237.67 452.238 5
-3 1 9 167.294 203.995 5
-3 1 8 1121.82 326.37 5
-3 1 7 1399.2 289.921 5
-3 1 6 6382.65 585.124 5
-3 1 5 219.836 117.216 5
-3 1 4 11934.6 658.514 5
3 -1 -4 11403.5 676.07 3
-3 1 3 1691.79 229.942 5
3 -1 -3 2052.21 310.308 3
-3 1 2 87.095 75.0306 5
3 -1 -2 -6.8459 136.019 3
-3 1 1 469.736 111.221 1
-3 1 1 446.584 107.508 5
3 -1 -1 654.635 188.794 3
3 -1 -1 500.471 130.906 1
-3 1 0 31925.9 777.279 1
3 -1 0 32550.8 768.977 1
3 -1 0 32198.5 1066.48 3
-3 1 0 31930.2 727.873 5
3 -1 1 -130.073 83.7209 1
-3 1 -1 73.8515 69.0931 1
3 -1 1 -10.2705 119.877 3
3 -1 2 16609.8 501.459 1
3 -1 2 16893.9 779.939 3
-3 1 -2 16734.7 454.577 5
3 -1 3 5199.38 304.716 1
3 -1 3 5142.36 433.031 3
-3 1 -3 5520.06 253.115 5
3 -1 4 501.882 119.908 1
3 -1 4 833.37 226.065 3
-3 1 -4 415.512 79.2883 5
3 -1 5 9166.96 518.338 1
3 -1 5 8800.93 739.145 4
-3 1 -5 7546.82 346.632 5
3 -1 5 8984.8 587.968 3
3 -1 6 313.766 140.135 1
3 -1 6 171.146 130.104 3
3 -1 6 359.879 268.962 4
-3 1 -6 201.468 84.1101 5
3 -1 7 21526.1 1209.96 4
3 -1 7 22153.8 939.658 3
3 -1 8 2613.22 291.996 5
3 -1 8 3571.29 534.649 4
3 -1 8 3459.69 375.319 3
3 -1 9 2117.15 409.206 4
3 -1 9 2541.59 321.105 3
3 -1 10 470.102 253.082 4
3 -1 10 39.6229 92.8823 3
3 -1 11 406.041 206.749 4
3 -1 12 98.3928 233.134 4
3 -1 13 -591.215 278.01 4
-3 0 13 505.6 294.329 5
-3 0 12 719.929 280.992 5
-3 0 11 520.438 288.592 5
-3 0 10 238.017 215.296 5
-3 0 9 508.433 221.802 5
-3 0 8 5288.85 576.853 5
-3 0 7 7761.99 635.575 5
-3 0 6 187.655 132.355 5
-3 0 5 5948.65 495.535 5
3 0 -5 5932.51 479.757 3
-3 0 4 941.354 187.578 5
3 0 -4 861.01 199.561 3
3 0 -3 516.032 174.997 1
3 0 -3 446.551 135.135 3
-3 0 3 695.091 183.191 5
3 0 -2 18199.2 759.04 1
3 0 -2 17855 783.078 3
3 0 -1 3303.29 294.163 1
3 0 -1 2832.29 310.215 3
3 0 0 2267.62 286.591 3
3 0 0 2173.4 225.74 1
3 0 1 28848 770.608 1
3 0 1 29432.4 1043.44 3
3 0 2 3633.52 287.896 1
3 0 2 3716.64 382.902 3
3 0 3 3816.05 309.902 1
-3 0 -3 4299.03 318.005 5
-3 0 -4 756.924 155.062 5
3 0 4 726.846 183.25 1
3 0 5 500.041 193.619 1
3 0 5 628.359 235.828 4
3 0 6 23700.3 955.251 1
3 0 6 24181.6 1152.63 4
3 0 7 3889.87 504.182 4
3 0 8 2544.46 329.659 5
3 0 8 2859.73 461.183 4
3 0 9 1590.05 297.439 5
3 0 9 1473.5 349.757 4
3 0 10 52.9994 135.958 5
3 0 10 63.2363 197.075 4
3 0 11 1121.67 268.77 5
3 0 11 1381.17 405.14 4
3 0 12 241.531 269.562 4
3 0 13 6.11439 205.634 4
3 0 14 -176.211 276.346 4
-3 -1 13 117.33 210.105 5
-3 -1 12 296.633 247.784 5
-3 -1 11 1038.66 314.827 5
-3 -1 10 676.582 240.973 5
-3 -1 9 7332.82 686.019 5
-3 -1 8 4418.66 492.868 5
-3 -1 7 5886.31 529.202 5
-3 -1 6 2407.56 354.534 5
3 1 -6 2456.46 277.449 3
3 1 -5 4401.79 556.084 1
-3 -1 5 4043.01 418.942 5
3 1 -5 4471.66 378.846 3
3 1 -4 301.648 190.509 1
3 1 -4 531.102 147.494 3
3 1 -3 19649.2 864.688 1
3 1 -3 19600.8 819.175 3
3 1 -2 7241.81 496.149 1
3 1 -2 8420.04 551.677 3
3 1 -1 -18.4392 109.404 1
3 1 -1 -49.8104 140.371 3
3 1 0 131.648 100.151 1
3 1 1 53886.7 1163.02 1
3 1 2 33814.2 958.715 1
3 1 3 4303.74 369.433 1
3 1 4 22911.7 891.462 1
3 1 5 6193.56 476.662 1
3 1 5 5561.97 491.768 4
3 1 6 23653.2 1026.27 1
3 1 6 26601.8 1081.48 4
3 1 7 5684.71 555.862 4
3 1 8 7716.21 686.441 4
3 1 8 7059.98 586.126 5
3 1 9 13311.2 897.926 4
3 1 9 12543 801.655 5
3 1 10 335.364 179.222 5
3 1 10 -105.33 203.125 4
3 1 11 400.009 197.615 5
3 1 11 892.831 295.928 4
3 1 12 50.6808 161.577 5
3 1 12 -224.74 293.935 4
3 1 13 49.1652 175.311 5
3 1 13 128.778 202.218 4
3 1 14 58.0884 266.044 4
3 1 15 1122.07 442.81 4
-3 -2 13 516.858 293.363 5
-3 -2 12 653.284 265.481 5
-3 -2 11 -130.916 200.72 5
-3 -2 10 395.541 197.205 5
-3 -2 9 815.695 228.691 5
-3 -2 8 -28.6759 146.782 5
-3 -2 7 107.934 149.378 5
3 2 -7 -139.819 100.15 3
3 2 -6 747.233 319.334 1
-3 -2 6 552.806 209.422 5
3 2 -6 555.349 132.91 3
3 2 -5 -255.282 187.561 1
3 2 -5 -72.4181 99.3155 3
3 2 -4 20120.2 950.125 1
3 2 -4 19976.4 837.333 3
3 2 -3 139.819 175.437 1
3 2 -2 6346.88 480.131 1
3 2 -1 9457.11 553.337 1
3 2 0 28291.7 927.841 1
3 2 1 1373.37 206.015 1
3 2 2 14309.5 690.517 1
-3 -2 -2 14694.4 570.146 4
-3 -2 -3 642.567 155.127 4
3 2 3 415.85 166.161 1
3 2 4 15196.9 791.516 1
3 2 5 2909.23 322.338 4
3 2 5 2503.56 350.617 1
3 2 6 115.344 138.466 4
3 2 6 706.1 242.589 1
3 2 7 6669.25 595.761 1
3 2 7 7172.4 561.804 4
3 2 8 190.624 164.865 5
3 2 8 -12.6292 167.886 4
3 2 9 39.714 164.833 5
3 2 9 155.526 205.873 4
3 2 10 1068.23 298.448 5
3 2 10 1804.3 382.76 4
3 2 11 163.489 147.539 5
3 2 11 578.39 273.267 4
3 2 12 407.087 230.702 5
3 2 12 -390.12 249.817 4
3 2 13 499.784 252.843 5
3 2 13 966.702 332.231 4
3 2 14 126.882 190.78 5
3 2 14 -134.541 285.257 4
3 2 15 210.714 228.047 5
3 2 15 12.9632 236.237 4
-3 -3 13 741.358 253.048 5
-3 -3 12 -29.3594 147.405 5
-3 -3 11 177.568 161.347 5
-3 -3 10 35.0423 130.405 5
-3 -3 9 7457.64 648.3 5
-3 -3 8 657.114 247.226 5
3 3 -7 2078.91 478.596 1
-3 -3 7 1446.69 281.069 5
3 3 -7 1379.12 183.479 3
3 3 -6 2966.92 447.961 1
3 3 -6 2706.65 275.057 3
3 3 -5 98.9439 186.233 1
3 3 -5 176.213 127.05 3
3 3 -4 8821.52 645.778 1
3 3 -3 5.15656 142.024 1
3 3 -2 12459.2 708.935 1
3 3 -1 -34.6597 129.6 1
3 3 0 2629.6 320.986 1
3 3 1 463.448 161.053 1
3 3 2 3570.29 386.409 1
-3 -3 -2 3554 230.029 4
3 3 3 16609.8 827.159 1
3 3 4 145.682 170.91 1
3 3 5 8180.01 630.59 1
3 3 6 329.893 131.214 4
3 3 6 148.707 162.951 1
3 3 7 6479.3 617.821 1
3 3 7 7127.89 504.32 4
3 3 8 3106.33 372.351 4
3 3 8 2825.52 421.737 1
3 3 9 136.224 144.471 5
3 3 9 357.023 218.972 4
3 3 10 1853.15 405.18 5
3 3 10 2503.99 409.893 4
3 3 11 2366.07 435.36 5
3 3 11 2582.24 426.621 4
3 3 12 291.757 145.363 5
3 3 12 749.408 326.353 4
3 3 13 310.417 208.229 5
3 3 13 165.432 187.053 4
3 3 14 186.263 230.245 5
3 3 15 -128.379 167.356 5
-3 -4 12 349.236 227.236 5
-3 -4 11 402.948 191.476 5
-3 -4 10 756.457 247.199 5
-3 -4 9 22.5225 141.437 5
-3 -4 8 371.645 194.196 5
3 4 -7 1437.96 375.866 1
3 4 -6 -107.156 203.332 1
3 4 -5 959.575 242.255 1
3 4 -4 848.652 252.334 1
3 4 -3 4282.25 454.852 1
3 4 -2 63.694 148.604 1
3 4 -1 2832.84 355.794 1
3 4 0 595.052 183.219 1
-3 -4 -1 597.56 76.4549 4
3 4 1 1036.73 253.655 1
3 4 2 1124.17 254.009 1
3 4 3 7511.09 600.875 1
3 4 4 3290.01 413.723 1
3 4 5 2348.31 382.648 1
3 4 6 193.574 102.664 4
3 4 6 113.502 173.77 1
3 4 7 1080.1 179.649 4
3 4 7 895.502 263.225 1
3 4 8 5772.03 635.312 1
3 4 8 6167.66 446.967 4
3 4 9 13.2786 160.196 4
3 4 9 -32.1647 172.862 1
3 4 10 26.4601 165.208 1
3 4 11 2370.93 471.811 1
3 4 11 2337.21 489.239 5
3 4 12 191.094 231.432 5
3 4 13 100.306 198.933 5
3 4 14 181.399 216.115 5
-3 -5 11 73.3346 137.362 5
-3 -5 10 559.542 215.983 5
-3 -5 9 2122.98 375.528 5
3 5 -8 4329.38 726.937 1
-3 -5 8 3775.51 531.816 5
3 5 -7 134.68 220.619 1
3 5 -6 138.598 173.793 1
3 5 -5 999.44 257.815 1
3 5 -4 719.744 219.38 1
3 5 -3 5097.22 549.162 1
3 5 -2 2495.26 385.465 1
3 5 -1 34.2492 141.452 1
-3 -5 0 1079.44 105.809 4
3 5 0 562.844 252.927 1
3 5 1 637.567 221.254 1
3 5 2 591.541 240.336 1
3 5 3 554.982 210.705 1
3 5 4 1368.21 322.49 1
3 5 5 47.9223 176.257 1
3 5 6 1965.59 387.02 1
3 5 7 296.672 213.581 1
3 5 8 388.006 235.176 1
3 5 9 352.191 221.801 1
3 5 10 -70.6686 159.642 1
3 5 11 -312.963 215.214 1
3 5 12 909.224 347.951 1
3 5 13 157.276 185.689 1
3 5 13 499.681 271.901 5
-3 -6 11 271.015 188.378 5
-3 -6 10 16.8257 166.279 5
-3 -6 9 1322.2 337.563 5
3 6 -8 -402.389 262.617 1
3 6 -7 4069.95 647.877 1
3 6 -6 140.885 255.099 1
3 6 -5 360.572 209.438 1
3 6 -4 1003.72 226.983 1
3 6 -3 -223.581 148.497 1
3 6 -2 2571.78 419.913 1
3 6 -1 -14.4115 135.001 1
3 6 0 117.784 198.452 1
3 6 1 13.4443 163.074 1
3 6 2 1322.37 306.593 1
3 6 3 44.8868 178.942 1
3 6 4 221.825 191.832 1
3 6 5 502.373 204.435 1
3 6 6 -48.3993 177.067 1
3 6 7 1665.32 340.087 1
3 6 8 267.685 208.82 1
3 6 9 1145.83 353.54 1
3 6 10 351.851 228.088 1
3 6 11 248.34 191.466 1
3 6 12 987.578 404.261 1
-3 -7 9 -99.5276 186.674 5
3 7 -8 865.756 365.394 1
3 7 -7 1206.4 397.643 1
3 7 -6 883.878 339.727 1
3 7 -5 -287.141 229.345 1
3 7 -4 591.331 282.917 1
3 7 -3 798.974 273.875 1
3 7 -2 732.911 277.786 1
3 7 -1 229.677 180.155 1
3 7 0 272.799 179.623 1
3 7 1 65.6073 149.367 1
3 7 2 1291.31 345.292 1
3 7 3 500.535 183.091 1
3 7 4 720.279 241.441 1
3 7 5 555.031 241.318 1
3 7 6 618.64 263.39 1
3 7 7 174.696 192.49 1
3 7 8 -173.82 155.629 1
3 7 9 463.507 264.111 1
3 7 10 376.18 241.409 1
3 7 11 -338.367 236.708 1
3 8 -8 1074.55 447.443 1
3 8 -7 192.01 203.201 1
3 8 -6 2443.7 519.99 1
3 8 -5 606.678 281.196 1
3 8 -4 352.728 223.909 1
3 8 -3 724.906 284.105 1
3 8 -2 -245.37 206.498 1
3 8 -1 1104.39 362.18 1
3 8 0 1407.76 321.409 1
3 8 1 267.768 175.595 1
3 8 2 268.207 141.663 1
3 8 3 1074.72 337.587 1
3 8 4 383.975 205.092 1
3 8 5 303.82 213.92 1
3 8 6 -109.751 184.545 1
3 8 7 554.129 243.87 1
3 8 8 446.32 277.407 1
3 8 9 704.265 281.683 1
3 9 -6 100.836 204.314 1
3 9 -5 788.717 306.7 1
3 9 -4 -227.397 264.347 1
3 9 -3 417.583 272.749 1
3 9 -2 493.352 306.793 1
3 9 -1 -274.789 268.793 1
3 9 0 -262.851 258.53 1
3 9 1 -153.349 189.581 1
3 9 2 174.358 185.579 1
3 9 3 37.3547 155.259 1
3 9 4 537.624 246.246 1
3 9 5 -330.353 249.067 1
3 9 6 427.453 289.848 1
3 9 7 132.895 163.08 1
3 10 -2 909.289 376.274 1
3 10 -1 233.254 208.791 1
3 10 0 367.372 254.874 1
3 10 1 544.756 232.788 1
3 10 2 1.17893 211.97 1
3 10 3 387.57 260.886 1
3 10 4 447.994 264.016 1
-4 4 11 -291.455 247.238 5
-4 4 10 -174.775 173.859 5
-4 4 9 -21.8421 153.962 5
-4 4 8 425.92 233.658 5
-4 3 11 86.095 273.619 5
-4 3 10 41.1831 198.3 5
-4 3 9 428.894 264.287 5
-4 3 8 1053.61 287.569 5
-4 3 7 816.651 259.76 5
-4 3 6 1650.4 383.186 5
-4 3 5 3055.71 417.109 5
-4 3 4 16861.4 909.061 5
-4 3 3 1376.21 248.37 5
4 -3 0 6782.78 629.13 3
4 -3 1 1775.87 323.565 3
4 -3 2 3773.04 454.661 3
4 -3 3 1340.49 287.385 3
4 -3 4 256.827 168.764 3
4 -3 5 5557.21 543.425 3
4 -3 6 227.785 161.397 3
4 -3 7 73.4477 114.862 3
4 -3 8 130.015 103.319 3
4 -3 10 852.889 356.102 4
-4 2 12 46.7372 244.233 5
-4 2 11 328.138 251.086 5
-4 2 10 474.632 317.037 5
-4 2 9 812.449 326.087 5
-4 2 8 2962.81 511.799 5
-4 2 7 -173.93 224.292 5
-4 2 6 508.704 227.972 5
-4 2 5 1454.83 301.314 5
-4 2 4 1816.35 304.77 5
-4 2 3 4322.39 408.061 5
4 -2 -3 3720.73 472.217 3
4 -2 -2 502.668 241.809 3
-4 2 2 301.343 88.8113 5
-4 2 1 13.103 73.8 5
4 -2 -1 148.637 187.631 3
-4 2 0 5740.79 326.185 5
4 -2 0 6008.37 557.708 3
4 -2 1 -70.681 120.305 3
4 -2 2 525.877 182.423 3
4 -2 3 1530.1 293.518 3
4 -2 4 427.9 181.257 3
4 -2 5 566.049 201.035 3
4 -2 6 6697.81 577.647 3
4 -2 7 159.094 123.477 3
4 -2 8 -120.814 261.206 4
4 -2 8 -7.60058 103.208 3
4 -2 9 1061.64 376.727 4
4 -2 9 831.53 227.794 3
4 -2 10 1104.98 393.915 4
4 -2 11 543.269 228.069 4
-4 1 12 314.168 305.914 5
-4 1 11 -363.169 287.832 5
-4 1 10 420.037 244.312 5
-4 1 9 201.137 213.161 5
-4 1 8 1978.72 413.069 5
-4 1 7 1611.3 362.45 5
-4 1 6 3001.82 443.861 5
-4 1 5 17999.5 936.329 5
4 -1 -4 1179.69 264.421 3
-4 1 4 856.976 213.274 5
-4 1 3 31780.8 1057.19 5
4 -1 -3 29512.3 1242.02 3
-4 1 2 19457.9 760.519 5
4 -1 -2 19326.1 972.583 3
4 -1 -1 -75.6389 133.088 1
-4 1 1 -138.739 92.402 5
4 -1 -1 16.0959 144.173 3
4 -1 0 1893.66 232.001 1
-4 1 0 1475.54 182.228 5
4 -1 0 1375.66 247.28 3
4 -1 1 3600.92 292.594 1
-4 1 -1 2823.58 225.139 5
4 -1 1 2895.99 383.586 3
4 -1 2 13727.1 538.609 1
4 -1 2 13674.7 791.333 3
4 -1 3 171.882 94.8469 1
4 -1 3 259.379 152.324 3
4 -1 4 948.282 175.156 1
4 -1 4 991.336 249.641 3
4 -1 5 1761.33 309.849 3
4 -1 5 1818.64 232.513 1
4 -1 6 13358.8 645.534 1
4 -1 6 13610.1 833.67 3
4 -1 7 1452.93 294.508 3
4 -1 8 -59.876 224.489 4
4 -1 8 65.503 119.74 3
4 -1 9 305.352 219.507 4
4 -1 9 287.081 135.824 3
4 -1 10 2373.76 525.999 4
4 -1 10 2699.43 384.498 3
4 -1 11 4730.4 729.994 4
4 -1 12 730.151 305.682 4
-4 0 12 217.798 265.718 5
-4 0 11 257.021 199.228 5
-4 0 10 609.211 275.051 5
-4 0 9 2153.6 403.551 5
-4 0 8 -469.404 220.45 5
-4 0 7 20302.6 1121.85 5
4 0 -6 1213.86 278.834 3
-4 0 6 856.787 223.67 5
-4 0 5 1088.99 242.288 5
4 0 -5 863.474 247.187 3
-4 0 4 226.641 160.092 5
4 0 -4 202.07 142.239 3
4 0 -3 8813.66 623.79 1
-4 0 3 7484.75 547.706 5
4 0 -3 6644.76 579.706 3
4 0 -2 17160.4 814.831 1
-4 0 2 16926.6 787.021 5
4 0 -2 15465.7 854.783 3
4 0 -1 1248.5 250.227 3
4 0 -1 1260.82 227.322 1
4 0 0 10356.8 562.033 1
4 0 0 10006.8 673.872 3
4 0 1 40.9142 131.222 3
4 0 1 237.364 133.771 1
4 0 2 409.778 163.988 1
4 0 2 147.862 191.92 3
4 0 3 2266.15 271.72 1
4 0 3 2740.23 401.485 3
4 0 4 125.782 132.766 1
4 0 4 28.1964 137.735 3
4 0 5 1405.67 293.579 3
4 0 5 1779.98 262.274 1
4 0 6 -109.577 188.167 3
4 0 6 326.519 141.089 1
4 0 7 19049.4 954.916 1
4 0 7 21311.1 1259.87 4
4 0 7 19953.2 1091.49 3
4 0 8 419.24 208.948 4
4 0 8 760.058 248.718 1
4 0 8 624.106 204.592 3
4 0 9 263.999 153.264 1
4 0 9 192.67 252.853 4
4 0 9 88.5174 176.438 3
4 0 10 1337.4 364.455 4
4 0 10 504.931 209.554 1
4 0 10 883.313 264.774 3
4 0 11 5661.73 727.56 4
4 0 11 5743.13 629.243 3
4 0 12 1607.18 435.641 4
4 0 13 -139.486 248.573 4
-4 -1 12 -3.73647 177.894 5
-4 -1 11 1.75109 185.829 5
-4 -1 10 1046.85 309.845 5
-4 -1 9 -243.079 148.593 5
-4 -1 8 457.237 198.669 5
-4 -1 7 3839.92 473.056 5
4 1 -7 3917.72 405.535 3
-4 -1 6 791.294 226.998 5
4 1 -6 1263.97 247.012 3
-4 -1 5 139.988 153.318 5
4 1 -5 -120.478 128.725 3
4 1 -5 48.6626 182.224 1
4 1 -4 20549.9 1072.35 1
-4 -1 4 18989.8 962.805 5
4 1 -4 18613 927.85 3
4 1 -3 848.551 237.726 1
4 1 -3 1131.65 250.822 3
4 1 -2 13174.4 727.965 1
4 1 -2 13151.1 788.05 3
4 1 -1 10529.1 641.158 1
4 1 -1 12148.4 776.319 3
4 1 0 2378.38 364.552 3
4 1 0 2325.58 297.883 1
4 1 1 -183.041 184.245 3
4 1 1 28.242 121.356 1
4 1 2 2983.95 310.012 1
4 1 3 1597.73 255.809 1
4 1 4 -6.89207 122.886 1
4 1 5 524.112 208.941 1
4 1 6 1599.71 303.239 1
4 1 7 20831.6 1082.77 1
4 1 7 22201.8 1220.43 4
4 1 8 5595.25 567.525 1
4 1 8 5917.57 658.148 4
4 1 9 2688.19 472.728 4
4 1 9 2181.09 391.286 1
4 1 10 340.869 274.273 4
4 1 10 16.8276 166.739 1
4 1 11 1123.21 301.721 4
4 1 11 238.28 207.758 1
4 1 12 2783.16 538.974 1
4 1 12 3002.66 505.389 4
4 1 13 310.303 163.897 1
4 1 13 -132.935 229.656 4
4 1 14 374.178 227.146 1
4 1 14 13.2056 238.797 4
-4 -2 12 222.142 212.041 5
-4 -2 11 212.169 202.746 5
-4 -2 10 343.661 215.627 5
-4 -2 9 -117.273 151.607 5
-4 -2 8 1836.17 370.574 5
-4 -2 7 5418.39 592.207 5
4 2 -7 5043.73 463.763 3
4 2 -6 11196 960.504 1
4 2 -6 10109.6 659.753 3
-4 -2 6 10892.6 795.766 5
4 2 -5 483.253 246.377 1
4 2 -5 352.439 177.398 3
4 2 -4 3572.71 480.141 1
4 2 -4 3305.5 423.136 3
4 2 -3 1666.02 324.953 3
4 2 -3 1609.37 289.2 1
4 2 -2 837.459 236.074 1
4 2 -2 688.983 208.653 3
4 2 -1 3364.24 388.585 1
4 2 0 12740.4 711.761 1
4 2 1 4451.66 407.276 1
4 2 2 384.186 172.154 1
4 2 3 84.0096 149.404 1
4 2 4 -112.667 199.563 1
4 2 5 552.567 196.087 1
4 2 6 3521.58 460.937 1
4 2 7 1064.84 298.944 1
4 2 8 7606.11 715.827 1
4 2 8 8299.91 670.608 4
4 2 9 580.513 199.378 4
4 2 9 988.305 303.176 1
4 2 10 266.626 191.338 4
4 2 10 293.355 203.663 1
4 2 11 401.504 236.902 4
4 2 11 194.199 210.988 1
4 2 12 1609.2 361.042 4
4 2 12 859.457 334.988 1
4 2 13 1356.43 370.677 1
4 2 14 241.282 264.843 1
-4 -3 11 603.107 253.465 5
-4 -3 10 373.303 172.564 5
-4 -3 9 3310.06 503.31 5
-4 -3 8 1269.73 309.872 5
4 3 -7 3587.42 593.412 1
-4 -3 7 3635.89 483.262 5
4 3 -6 1709.75 389.127 1
4 3 -6 1521.05 270.858 3
4 3 -5 2670.86 469.748 1
4 3 -5 2212.56 338.778 3
4 3 -4 59.5988 127.589 3
4 3 -4 228.992 156.875 1
4 3 -3 14044.2 873.653 1
4 3 -2 1621.19 311.394 1
4 3 -1 5533.75 511.113 1
4 3 0 6146.88 517.042 1
4 3 1 4083.46 424.267 1
4 3 2 11391.2 718.279 1
4 3 3 717.712 207.334 1
4 3 4 1088.67 283.327 1
4 3 5 348.572 202.652 1
4 3 6 3186.74 450.745 1
4 3 7 6026.48 640.276 1
4 3 8 8380.76 758.6 1
4 3 8 8022.57 620.231 4
4 3 9 9442.25 845.97 1
4 3 9 10133.8 723.627 4
4 3 10 597.596 257.498 1
4 3 11 280.329 269.726 1
4 3 12 248.288 262.921 1
4 3 13 670.931 283.054 1
-4 -4 11 -55.3513 158.056 5
-4 -4 10 132.594 137.214 5
-4 -4 9 474.983 196.519 5
-4 -4 8 307.721 171.142 5
4 4 -7 -127.46 194.05 1
4 4 -6 4634.59 448.98 3
4 4 -6 4632.61 622.188 1
4 4 -5 2078.52 418.914 1
4 4 -4 408.388 202.111 1
4 4 -3 363.679 193.173 1
4 4 -2 482.461 213.979 1
4 4 -1 54.0172 142.627 1
4 4 0 2981.11 383.682 1
4 4 1 1047.14 283.034 1
4 4 2 1844.12 342.548 1
4 4 3 -120.443 185.245 1
4 4 4 2045.1 362.337 1
4 4 5 904.819 227.094 1
4 4 6 69.4988 148.045 1
4 4 7 1821.48 367.76 1
4 4 8 19.1829 152.852 1
4 4 9 1798.32 396.459 1
4 4 10 542.526 276.986 1
4 4 11 4.29424 176.214 1
4 4 12 -220.428 261.145 1
4 4 13 391.65 304.283 1
-4 -5 10 340.932 209.774 5
-4 -5 9 1577.2 353.781 5
-4 -5 8 777.559 276.099 5
4 5 -8 592.936 322.514 1
4 5 -7 1803.04 433.754 1
4 5 -6 3975.61 584.801 1
4 5 -5 -327.108 224.014 1
4 5 -4 -277.168 186.767 1
4 5 -3 155.758 213.729 1
4 5 -2 10716.7 802.719 1
4 5 -1 -399.3 249.277 1
4 5 0 160.121 137.415 1
4 5 1 2189.32 357.159 1
4 5 2 -63.9062 158.902 1
4 5 3 7166.27 679.396 1
4 5 4 119.853 187.631 1
4 5 5 1238.51 309.333 1
4 5 6 96.4722 147.069 1
4 5 7 1134.01 283.306 1
4 5 8 4867.81 630.813 1
4 5 9 289.619 231.913 1
4 5 10 2629.55 493.902 1
4 5 11 1395.02 493.055 1
4 5 12 201.949 190.096 1
-4 -6 9 324.34 211.334 5
4 6 -8 367.27 330.648 1
4 6 -7 1804.87 426.735 1
4 6 -6 860.085 319.868 1
4 6 -5 1056.6 335.317 1
4 6 -4 514.525 285.281 1
4 6 -3 307.656 210.251 1
4 6 -2 662.12 210.599 1
4 6 -1 422.229 226.058 1
4 6 0 396.928 192.312 1
4 6 1 1627.3 336.873 1
4 6 2 138.322 175.77 1
4 6 3 1354.28 325.543 1
4 6 4 1064.53 356.185 1
4 6 5 724.225 237.553 1
4 6 6 1011.22 296.024 1
4 6 7 437.958 236.038 1
4 6 8 2870.18 501.005 1
4 6 9 251.053 162.301 1
4 6 10 1010.97 322.269 1
4 6 11 949.366 365.163 1
4 7 -7 -121.169 209.309 1
4 7 -6 872.815 323.104 1
4 7 -5 423.221 229.766 1
4 7 -4 23.3238 153.261 1
4 7 -3 357.236 223.007 1
4 7 -2 506.628 230.385 1
4 7 -1 1961.38 400.078 1
4 7 0 344.778 193.613 1
4 7 1 72.079 180.894 1
4 7 2 -190.084 152.605 1
4 7 3 -24.4228 214.694 1
4 7 4 957.704 313.522 1
4 7 5 215.474 235.281 1
4 7 6 936.033 340.831 1
4 7 7 -115.143 169.75 1
4 7 8 485.515 212.118 1
4 7 9 595.411 216.197 1
4 8 -6 781.677 391.942 1
4 8 -5 488.125 263.147 1
4 8 -4 -238.491 273.99 1
4 8 -3 409.626 274.557 1
4 8 -2 147.185 260.993 1
4 8 -1 118.083 174.698 1
4 8 0 625.236 257.577 1
4 8 1 -267.45 232.237 1
4 8 2 350.334 270.164 1
4 8 3 -178.866 220.585 1
4 8 4 443.34 225.33 1
4 8 5 458.557 223.496 1
4 8 6 -384.229 290.275 1
4 8 7 -219.559 211.131 1
4 9 -3 360.277 261.007 1
4 9 -2 -273.713 283.452 1
4 9 -1 -274.243 253.162 1
4 9 0 506.955 273.604 1
4 9 1 474.343 232.151 1
4 9 2 7.31133 168.157 1
4 9 3 -24.173 176.796 1
4 9 4 212.408 180.745 1
5 -3 0 1000.77 291.381 3
5 -3 1 214.324 181.738 3
5 -3 2 343.906 198.061 3
5 -3 3 2306.57 403.2 3
5 -3 4 572.295 242.054 3
5 -3 5 169.285 140.015 3
5 -3 6 13.4972 139.703 3
5 -3 7 546.922 233.769 3
5 -3 8 39.2779 117.332 3
-5 2 10 -202.727 230.124 5
-5 2 9 762.868 321.663 5
-5 2 8 618.179 269.689 5
-5 2 7 1021.75 329.884 5
-5 2 6 -62.4523 144.303 5
5 -2 -3 540.256 177.604 3
5 -2 -2 416.131 190.266 3
5 -2 -1 402.05 230.194 3
5 -2 0 6241.46 623.907 3
5 -2 1 313.314 179.436 3
5 -2 2 423.502 184.436 3
5 -2 3 1359.16 304.806 3
5 -2 4 3386.37 463.12 3
5 -2 5 -34.1971 148.812 3
5 -2 6 94.1112 117.168 3
5 -2 7 52.9246 111.592 3
5 -2 8 367.663 191.802 3
5 -2 9 1806.59 350.418 3
-5 1 10 282.72 233.092 5
-5 1 9 16.2542 166.405 5
-5 1 8 -206.733 177.77 5
-5 1 7 393.722 177.062 5
-5 1 6 494.374 192.845 5
5 -1 -5 58.792 171.009 3
-5 1 5 321.215 163.568 5
-5 1 4 8005.53 617.554 5
5 -1 -4 7685.42 728.112 3
-5 1 3 1087.71 214.885 5
5 -1 -3 531.305 207.263 3
-5 1 2 3823.91 359.616 5
5 -1 -2 4212.17 516.982 3
5 -1 -1 1619.33 337.031 3
5 -1 0 6639.71 624.604 3
5 -1 1 6119.39 603.017 3
5 -1 2 4276.24 510.429 3
5 -1 3 2379.39 385.237 3
5 -1 4 3768.79 473.38 3
5 -1 5 103.151 116.628 3
5 -1 6 22.4877 136.613 3
5 -1 7 435.598 199.553 3
5 -1 8 -176.456 163.542 3
5 -1 9 18.3294 130.132 3
5 -1 10 -13.6663 150.807 3
-5 0 10 -604.963 322.245 5
-5 0 9 -40.2542 179.68 5
-5 0 8 175.095 189.316 5
-5 0 7 -42.0382 152.594 5
5 0 -6 85.9589 149.425 3
-5 0 6 260.986 155.764 5
-5 0 5 1291.77 286.021 5
5 0 -5 1048.79 296.635 3
-5 0 4 2213.52 340.171 5
5 0 -4 2011.46 358.795 3
5 0 -3 4051.3 469.038 1
-5 0 3 3401.92 373.091 5
5 0 -3 3660.26 479.837 3
-5 0 2 1363.64 253.645 5
5 0 -2 1479.83 327.52 3
5 0 -2 1446.46 281.865 1
5 0 -1 760.924 187.464 1
-5 0 1 890.71 202.011 5
5 0 -1 918.088 252.585 3
5 0 0 2318.94 302.014 1
5 0 0 1430.52 296.875 3
5 0 1 4311.5 405.081 1
5 0 1 4175.9 490.305 3
5 0 2 436.306 211.783 3
5 0 2 310.691 152.158 1
5 0 3 -245.503 115.304 1
5 0 3 96.5301 178.107 3
5 0 4 114.97 137.444 1
5 0 4 33.8227 170.655 3
5 0 5 3465.54 488.001 3
5 0 6 208.888 164.758 3
5 0 7 460.007 227.382 3
5 0 8 -17.4796 139.072 3
5 0 9 430.063 236.205 3
5 0 10 361.723 232.171 3
5 0 11 150.666 200.996 3
5 0 12 -145.647 312.19 4
-5 -1 10 806.783 287.166 5
-5 -1 9 66.9472 171.667 5
-5 -1 8 -128.143 222.727 5
5 1 -7 -4.65544 161.662 3
-5 -1 7 412.309 192.288 5
-5 -1 6 227.613 172.403 5
5 1 -6 347.404 187.034 3
5 1 -5 7591.8 783.849 1
-5 -1 5 8554.14 705.955 5
5 1 -5 6844.56 630.648 3
-5 -1 4 331.038 181.745 5
5 1 -4 -46.2807 236.252 1
5 1 -4 392.165 161.183 3
5 1 -3 18998.8 1070.61 1
-5 -1 3 19163.4 1040.11 5
5 1 -3 17600.2 1017.6 3
5 1 -2 10503.7 721.936 1
5 1 -2 10792.1 820.066 3
5 1 -1 756.425 214.004 1
5 1 -1 196.309 132.456 3
5 1 0 -20.8091 125.545 1
5 1 0 354.151 224.222 3
5 1 1 3226.11 378.245 1
5 1 1 3029.28 440.517 3
5 1 2 21846.8 960.99 1
5 1 2 20086.9 1164.5 3
5 1 3 1200.29 246.551 1
5 1 3 864.989 256.216 3
5 1 4 1276.83 246.048 1
5 1 4 1141.91 325.466 3
5 1 5 5834.04 557.391 1
5 1 5 5732.75 654.276 3
5 1 6 200.027 125.263 1
5 1 6 189.465 164.372 3
5 1 7 1222.11 374.005 3
5 1 7 956.041 259.373 1
5 1 8 -68.2958 177.777 3
5 1 8 -82.6348 122.933 1
5 1 9 1427.1 410.757 3
5 1 9 822.988 242.701 1
5 1 10 515.563 323.204 3
5 1 11 -208.252 231.459 3
5 1 12 377.226 332.57 4
-5 -2 10 432.511 182.431 5
-5 -2 9 454.103 210.203 5
-5 -2 8 314.58 188.141 5
5 2 -7 4184.06 492.351 3
-5 -2 7 3933.54 524.632 5
5 2 -6 1855.29 438.924 1
-5 -2 6 1257.89 302.344 5
5 2 -6 1085.95 273.335 3
5 2 -5 367.023 264.82 1
-5 -2 5 193.663 186.342 5
5 2 -5 114.835 134.197 3
5 2 -4 1423.85 327.433 1
5 2 -4 1360.67 305.093 3
5 2 -3 5540.97 572.919 1
5 2 -3 5632.19 582.216 3
5 2 -2 13954.8 873.376 1
5 2 -2 13608.9 951.601 3
5 2 -1 396.338 170.515 1
5 2 -1 510.091 177.531 3
5 2 0 4283.57 461.494 1
5 2 0 3645.35 508.567 3
5 2 1 222.832 155.792 1
5 2 2 2381.43 348.87 1
5 2 3 152.833 118.884 1
5 2 4 154.565 154.999 1
5 2 5 112.691 197.529 1
5 2 6 1862.05 346.297 1
5 2 7 4420.8 536.873 1
5 2 8 124.382 160.173 1
5 2 9 -248.383 247.261 1
5 2 10 -56.7674 183.488 1
5 2 11 362.01 216.025 1
5 2 12 -305.087 252.186 1
-5 -3 10 -133.089 144.714 5
-5 -3 9 290.759 192.075 5
-5 -3 8 -42.8865 138.211 5
-5 -3 7 366.254 218.988 5
5 3 -7 1229.9 382.734 1
5 3 -6 2052.26 377.285 3
-5 -3 6 1953.49 404.014 5
5 3 -6 1922.73 437.085 1
5 3 -5 -11.1507 218.83 1
5 3 -5 231.747 176.744 3
5 3 -4 7825.72 731.526 1
5 3 -4 6699.04 682.154 3
5 3 -3 274.651 201.053 3
5 3 -3 592.468 285.538 1
5 3 -2 11754.6 821.68 1
5 3 -2 11583.2 909.73 3
5 3 -1 10068 747.452 1
5 3 0 121.496 159.113 1
5 3 1 249.429 194.228 1
5 3 2 582.309 211.16 1
5 3 3 8823.53 721.676 1
5 3 4 72.8805 173.949 1
5 3 5 15.2577 183.699 1
5 3 6 1743.32 378.794 1
5 3 7 1962.16 400.36 1
5 3 8 2538.99 471.93 1
5 3 9 1015.91 327.432 1
5 3 10 452.797 249.147 1
5 3 11 -394.984 289.46 1
5 3 12 -15.9916 189.625 1
-5 -4 9 157.257 177.185 5
-5 -4 8 299.882 190.393 5
5 4 -7 630.784 363.724 1
-5 -4 7 1076.05 310.617 5
5 4 -6 4313.75 656.724 1
5 4 -5 2623.39 450.668 1
5 4 -5 3125.78 469.497 3
5 4 -4 820.829 280.542 3
5 4 -4 774.623 292.242 1
5 4 -3 2751.95 444.403 1
5 4 -2 2962.62 456.532 1
5 4 -1 9291.92 764.136 1
5 4 0 9445.5 746.917 1
5 4 1 158.881 197.672 1
5 4 2 100.175 150.356 1
5 4 3 1519 332.05 1
5 4 4 1664.44 363.303 1
5 4 5 -280.251 237.948 1
5 4 6 -281.026 189.113 1
5 4 7 1369.18 320.379 1
5 4 8 3212.69 508.277 1
5 4 9 -261.217 212.368 1
5 4 10 -627.903 239.147 1
5 4 11 203.952 166.19 1
-5 -5 8 233.231 177.374 5
5 5 -8 453.569 328.153 1
5 5 -7 28.0769 220.683 1
5 5 -6 801.571 383.859 1
5 5 -5 4952.66 668.547 1
5 5 -4 334.777 222.118 1
5 5 -3 2853.02 474.049 1
5 5 -2 59.8128 192.743 1
5 5 -1 8106.94 718.409 1
5 5 0 8471.78 745.804 1
5 5 1 219.508 182.787 1
5 5 2 1359.08 289.654 1
5 5 3 -233.476 225.781 1
5 5 4 1439.07 354.165 1
5 5 5 -95.7418 172.229 1
5 5 6 -10.8458 219.967 1
5 5 7 1708.3 433.003 1
5 5 8 1092.16 365.255 1
5 5 9 3707.39 573.317 1
5 5 10 -337.287 263.681 1
5 6 -6 1177.36 380.376 1
5 6 -5 2321.52 478.02 1
5 6 -4 772.625 278.54 1
5 6 -3 507.971 264.331 1
5 6 -2 1090.87 328.563 1
5 6 -1 666.957 250.568 1
5 6 0 966.055 294.708 1
5 6 1 3902.51 540.717 1
5 6 2 169.835 196.934 1
5 6 3 -327.495 208.849 1
5 6 4 -127.578 163.783 1
5 6 5 509.329 239.909 1
5 6 6 102.714 205.206 1
5 6 7 -35.9007 179.67 1
5 6 8 267.673 265.274 1
5 6 9 1241.85 379.997 1
5 7 -5 1.94778 200.723 1
5 7 -4 1269.39 390.161 1
5 7 -3 178.38 185.474 1
5 7 -2 1559.18 364.81 1
5 7 -1 324.651 229.795 1
5 7 0 1937.38 443.823 1
5 7 1 2336.37 434.171 1
5 7 2 1194.93 383.506 1
5 7 3 1364.44 390.197 1
5 7 4 192.134 215.906 1
5 7 5 76.5437 229.768 1
5 7 6 -65.5765 198.534 1
5 7 7 -98.3698 226.724 1
5 8 -1 604.882 278.192 1
5 8 0 544.734 278.85 1
5 8 1 -14.5554 167.569 1
5 8 2 126.525 163.353 1
5 8 3 -510.646 259.655 1
5 8 4 287.266 226.382 1
6 -2 -2 45.7989 204.654 3
6 -2 -1 369.337 245.61 3
6 -2 0 -47.8609 154.955 3
6 -2 1 329.285 194.568 3
6 -2 2 368.144 238.237 3
6 -2 3 447.657 257.907 3
6 -2 4 161.487 141.194 3
6 -2 5 364.194 235.758 3
6 -2 6 189.047 169.288 3
6 -1 -4 -308.213 181.026 3
6 -1 -3 107.713 163.592 3
6 -1 -2 -40.7312 172.147 3
6 -1 -1 288.689 172.819 3
6 -1 0 388.177 213.778 3
6 -1 1 433.461 193.954 3
6 -1 2 -75.5124 135.662 3
6 -1 3 571.136 245.101 3
6 -1 4 405.017 225.5 3
6 -1 5 126.19 198.626 3
6 -1 6 75.8 174.467 3
6 -1 7 76.1722 137.831 3
6 -1 8 149.977 202.763 3
-6 0 9 3912.94 684.373 5
-6 0 8 204.548 212.687 5
-6 0 7 805.406 302.458 5
6 0 -6 53.6201 215.543 3
-6 0 6 -80.5687 153.494 5
6 0 -5 181.561 188.275 3
-6 0 5 318.727 177.503 5
6 0 -4 403.087 236.623 3
6 0 -3 47.6448 182.993 3
6 0 -2 158.185 164.782 3
6 0 -1 264.085 212.579 3
6 0 0 702.023 275.826 3
6 0 1 545.965 223.183 3
6 0 2 366.276 160.876 3
6 0 3 539.756 257.454 3
6 0 4 823.998 281.037 3
6 0 5 -135.24 234.091 3
6 0 6 70.1278 171.121 3
6 0 7 -80.7452 164.033 3
6 0 8 -53.7684 149.049 3
6 0 9 2958.49 540.46 3
-6 -1 8 2209.24 477.569 5
6 1 -7 -60.385 246.38 3
-6 -1 7 148.56 242.783 5
-6 -1 6 -145.06 134.886 5
6 1 -6 343.662 156.766 3
-6 -1 5 157.009 188.083 5
6 1 -5 545.644 256.461 3
6 1 -4 485.741 223.6 1
-6 -1 4 454.587 138.227 5
6 1 -4 59.2204 153.796 3
6 1 -3 -89.8267 198.59 1
-6 -1 3 -132.359 195.626 5
6 1 -3 -76.0273 152.054 3
6 1 -2 1506.22 326.295 1
-6 -1 2 1229.48 280.245 5
6 1 -2 1210 315.254 3
6 1 -1 724.248 221.566 1
6 1 -1 931.219 283.725 3
6 1 0 1018.82 262.1 1
6 1 0 749.717 254.601 3
6 1 1 2266.37 331.445 1
6 1 1 1730.57 361.444 3
6 1 2 223.274 188.274 3
6 1 3 1403.72 341.053 3
6 1 4 1287.64 346.249 3
6 1 5 979.207 348.168 3
6 1 6 -259.781 240.598 3
6 1 7 -125.714 202.66 3
6 1 8 56.1992 223.194 3
6 1 9 250.504 298.604 3
-6 -2 8 5358.68 713.31 5
-6 -2 7 530.351 255.048 5
-6 -2 6 -22.8488 142.454 5
6 2 -6 113.376 211.323 3
6 2 -5 307.52 222.773 1
-6 -2 5 350.408 239.776 5
6 2 -5 238.186 183.495 3
-6 -2 4 -192.986 138.968 5
6 2 -4 -438.747 268.048 3
6 2 -3 648.313 235.832 1
6 2 -3 481.543 208.64 3
6 2 -2 1447.7 335.342 3
6 2 -2 1568.47 328.203 1
6 2 -1 1826.15 371.293 1
6 2 -1 1878.2 436.016 3
6 2 0 190.773 146.162 1
6 2 0 447.688 254.667 3
6 2 1 1366.22 282.989 1
6 2 1 823.813 213.916 3
6 2 2 1214.1 308.925 3
6 2 2 958.272 229.402 1
6 2 3 612.616 288.233 3
6 2 3 633.168 209.335 1
6 2 4 110.274 136.639 1
6 2 4 64.0471 189.339 3
6 2 5 2766.62 412.09 1
6 2 5 3176.82 556.874 3
6 2 6 20.6176 183.232 1
6 2 6 129.534 194.273 3
6 2 7 505.97 366.861 3
6 2 8 -415.827 326.216 3
6 2 9 -275.841 337.628 3
-6 -3 7 1334 320.446 5
6 3 -6 -179.95 293.451 1
-6 -3 6 -50.277 245.494 5
6 3 -5 527.311 259.005 1
-6 -3 5 485.027 221.766 5
6 3 -5 583.452 214.733 3
6 3 -4 1109.54 325.513 1
6 3 -4 637.323 218.414 3
6 3 -3 2038.1 388.98 1
6 3 -3 1735.58 368.626 3
6 3 -2 1131.8 365.814 3
6 3 -2 1018.01 248.668 1
6 3 -1 1476.23 357.811 1
6 3 -1 1573.04 398.59 3
6 3 0 590.501 223.708 1
6 3 0 485.795 288.897 3
6 3 1 782.822 247.774 3
6 3 1 392.536 191.314 1
6 3 2 8703.97 747.767 1
6 3 3 577.215 208.057 1
6 3 4 2176.16 404.828 1
6 3 5 1723.28 372.448 1
6 3 6 2012.72 390.481 1
6 3 7 -195.564 268.571 1
6 3 8 689.21 313.112 1
6 3 9 304.668 169.232 1
6 3 10 -359.821 290.262 1
-6 -4 6 563.933 314.057 5
6 4 -6 560.292 286.084 1
6 4 -5 -62.9941 193.759 1
6 4 -4 -406.546 290.302 1
6 4 -4 686.251 244.483 3
6 4 -3 688.974 292.769 3
6 4 -3 320.16 222.588 1
6 4 -2 2660.26 442.232 1
6 4 -2 2653.69 484.336 3
6 4 -1 426.844 216.117 1
6 4 0 3778.16 537.317 1
6 4 1 77.658 187.918 1
6 4 2 1266.49 339.68 1
6 4 3 758.357 286.87 1
6 4 4 1409.38 363.699 1
6 4 5 291.718 192.29 1
6 4 6 2350.82 454.407 1
6 4 7 310.212 265.937 1
6 4 8 549.046 325.991 1
6 4 9 -71.8387 207.598 1
6 4 10 326.155 232.661 1
6 5 -5 24.118 203.321 1
6 5 -4 763.745 293.789 1
6 5 -4 628.658 277.217 3
6 5 -3 1010.34 291.025 3
6 5 -3 1186.42 322.944 1
6 5 -2 1292.87 378.123 1
6 5 -1 1446.1 338.687 1
6 5 0 655.932 283.623 1
6 5 1 -165.036 170.026 1
6 5 2 -235.725 163.119 1
6 5 3 4761.76 621.92 1
6 5 4 -145.097 216.979 1
6 5 5 605.919 305.121 1
6 5 6 1156.89 344.097 1
6 5 7 1363.23 400.286 1
6 5 8 508.994 263.501 1
6 6 -3 821.568 319.551 1
6 6 -2 263.273 220.766 1
6 6 -1 3046.19 531.009 1
6 6 0 845.824 256.511 1
6 6 1 535.186 316.374 1
6 6 2 -102.229 196.49 1
6 6 3 652.173 265.698 1
6 6 4 1465.73 357.697 1
6 6 5 16.9654 215.74 1
6 6 6 227.742 212.168 1
7 2 -5 -115.938 151.311 3
7 2 -4 -159.484 257.061 3
7 2 -3 20.5375 205.82 3
7 2 -2 391.585 239.692 3
7 2 -1 286.61 202.566 3
7 2 0 1511.36 389.326 3
7 3 -4 3.63084 211.728 1
-7 -3 4 88.5234 169.657 5
7 3 -4 413.888 231.668 3
7 3 -3 126.499 206.761 1
7 3 -3 245.87 220.95 3
7 3 -2 133.062 221.404 1
7 3 -2 141.326 151.959 3
7 3 -1 -377.302 288.611 3
7 3 -1 -348.26 255.575 1
7 3 0 521.247 176.358 1
7 3 0 858.743 334.282 3
7 3 1 916.062 302.268 1
7 3 1 723.686 261.098 3
7 3 2 16.3866 144.521 1
7 4 -3 -21.5642 212.373 3
7 4 -2 176.077 201.168 3
7 4 -2 -109.286 278.507 1
7 4 -1 312.636 274.278 1
7 4 -1 46.1441 211.27 3
7 4 0 -648.631 324.897 1
7 4 0 273.538 187.019 3
7 4 1 522.95 288.185 1
7 4 2 301.289 227.435 1
7 4 3 207.592 213.895 1
7 4 4 -46.225 191.123 1
7 4 5 -299.25 221.534 1
7 4 6 62.678 181.824 1
7 5 -2 -815.203 343.892 3
7 5 2 182.743 217.149 1
