#------------------------------------------------------------------------------
#$Date: 2019-03-21 01:09:38 +0200 (Thu, 21 Mar 2019) $
#$Revision: 214226 $
#$URL: file:///home/coder/svn-repositories/cod/cif/7/12/31/7123156.cif $
#------------------------------------------------------------------------------
#
# This file is available in the Crystallography Open Database (COD),
# http://www.crystallography.net/
#
# All data on this site have been placed in the public domain by the
# contributors.
#
data_7123156
loop_
_publ_author_name
'Deck, Eva'
'Wagner, Hanna E.'
'Paradies, Jan'
'Breher, Frank'
_publ_section_title
;
 Redox-Responsive Phosphonite Gold Complexes in Hydroamination Catalysis
;
_journal_name_full               'Chemical Communications'
_journal_paper_doi               10.1039/C9CC01492F
_journal_year                    2019
_chemical_formula_moiety         'C16 H13 Au Cl Fe O2 P'
_chemical_formula_sum            'C16 H13 Au Cl Fe O2 P'
_chemical_formula_weight         556.50
_space_group_crystal_system      triclinic
_space_group_IT_number           2
_space_group_name_Hall           '-P 1'
_space_group_name_H-M_alt        'P -1'
_symmetry_space_group_name_Hall  '-P 1'
_symmetry_space_group_name_H-M   'P -1'
_atom_sites_solution_hydrogens   geom
_atom_sites_solution_primary     dual
_audit_creation_date             2019-02-19
_audit_creation_method
;
Olex2 1.2
(compiled 2018.05.29 svn.r3508 for OlexSys, GUI svn.r5506)
;
_audit_update_record
;
2019-02-19 deposited with the CCDC.    2019-03-20 downloaded from the CCDC.
;
_cell_angle_alpha                98.89(3)
_cell_angle_beta                 95.82(3)
_cell_angle_gamma                106.42(3)
_cell_formula_units_Z            2
_cell_length_a                   7.3360(15)
_cell_length_b                   9.0530(18)
_cell_length_c                   14.901(3)
_cell_measurement_reflns_used    23981
_cell_measurement_temperature    200
_cell_measurement_theta_max      29.7
_cell_measurement_theta_min      2.39
_cell_volume                     926.8(4)
_computing_molecular_graphics    'Olex2 (Dolomanov et al., 2009)'
_computing_publication_material  'Olex2 (Dolomanov et al., 2009)'
_computing_structure_refinement  'ShelXL (Sheldrick, 2015)'
_computing_structure_solution    'ShelXT (Sheldrick, 2015)'
_diffrn_ambient_temperature      200
_diffrn_measured_fraction_theta_full 0.996
_diffrn_measured_fraction_theta_max 0.997
_diffrn_measurement_device_type  'Stoe IPDS II'
_diffrn_measurement_method       '\w scans'
_diffrn_radiation_monochromator  graphite
_diffrn_radiation_type           MoK\a
_diffrn_radiation_wavelength     0.71073
_diffrn_reflns_av_R_equivalents  0.0449
_diffrn_reflns_av_unetI/netI     0.0278
_diffrn_reflns_Laue_measured_fraction_full 0.996
_diffrn_reflns_Laue_measured_fraction_max 0.997
_diffrn_reflns_limit_h_max       9
_diffrn_reflns_limit_h_min       -9
_diffrn_reflns_limit_k_max       11
_diffrn_reflns_limit_k_min       -12
_diffrn_reflns_limit_l_max       19
_diffrn_reflns_limit_l_min       -19
_diffrn_reflns_number            16741
_diffrn_reflns_point_group_measured_fraction_full 0.996
_diffrn_reflns_point_group_measured_fraction_max 0.997
_diffrn_reflns_theta_full        25.242
_diffrn_reflns_theta_max         28.282
_diffrn_reflns_theta_min         2.390
_exptl_absorpt_coefficient_mu    8.920
_exptl_absorpt_correction_T_max  0.4338
_exptl_absorpt_correction_T_min  0.0994
_exptl_absorpt_correction_type   numerical
_exptl_crystal_colour            'clear yellow'
_exptl_crystal_colour_lustre     clear
_exptl_crystal_colour_primary    yellow
_exptl_crystal_density_diffrn    1.994
_exptl_crystal_description       irregular
_exptl_crystal_F_000             524
_exptl_crystal_size_max          0.4
_exptl_crystal_size_mid          0.2
_exptl_crystal_size_min          0.1
_refine_diff_density_max         0.899
_refine_diff_density_min         -0.822
_refine_diff_density_rms         0.118
_refine_ls_extinction_coef       0.0102(5)
_refine_ls_extinction_expression Fc^*^=kFc[1+0.001xFc^2^\l^3^/sin(2\q)]^-1/4^
_refine_ls_extinction_method     'SHELXL-2017/1 (Sheldrick 2017)'
_refine_ls_goodness_of_fit_ref   1.044
_refine_ls_hydrogen_treatment    constr
_refine_ls_matrix_type           full
_refine_ls_number_parameters     200
_refine_ls_number_reflns         4590
_refine_ls_number_restraints     0
_refine_ls_restrained_S_all      1.044
_refine_ls_R_factor_all          0.0275
_refine_ls_R_factor_gt           0.0250
_refine_ls_shift/su_max          0.002
_refine_ls_shift/su_mean         0.000
_refine_ls_structure_factor_coef Fsqd
_refine_ls_weighting_details
'w=1/[\s^2^(Fo^2^)+(0.0386P)^2^+0.7315P] where P=(Fo^2^+2Fc^2^)/3'
_refine_ls_weighting_scheme      calc
_refine_ls_wR_factor_gt          0.0625
_refine_ls_wR_factor_ref         0.0658
_reflns_Friedel_coverage         0.000
_reflns_number_gt                4244
_reflns_number_total             4590
_reflns_threshold_expression     'I > 2\s(I)'
_cod_data_source_file            c9cc01492f2.cif
_cod_data_source_block           ed_a
_cod_database_code               7123156
_shelx_shelxl_version_number     2017/1
_shelx_space_group_comment
;
The symmetry employed for this shelxl refinement is uniquely defined
by the following loop, which should always be used as a source of
symmetry information in preference to the above space-group names.
They are only intended as comments.
;
_olex2_refinement_description
;
1. Fixed Uiso
 At 1.2 times of:
  All C(H) groups
2.a Aromatic/amide H refined with riding coordinates:
 C10(H10), C7(H7), C12(H12), C9(H9), C16(H16), C5(H5), C2(H2), C8(H8), C3(H3),
 C15(H15), C4(H4), C14(H14), C13(H13)
;
_shelx_res_file
;
TITL ed_a.res in P-1
    ed_a.res
    created by SHELXL-2017/1 at 14:49:31 on 19-Feb-2019
REM Old TITL ed in P1
REM SHELXT solution in P-1
REM R1 0.092, Rweak 0.010, Alpha 0.028, Orientation as input
REM Formula found by SHELXT: C16 O1 P Cl Fe Au
CELL 0.71073 7.336 9.053 14.901 98.894 95.816 106.424
ZERR 2 0.0015 0.0018 0.003 0.03 0.03 0.03
LATT 1
SFAC C H Au Cl Fe O P
UNIT 32 26 2 2 2 4 2

L.S. 20
PLAN  20
TEMP -73.15
BIND Fe1 Au1
BOND $H
LIST 6
ABIN
fmap 2
acta
OMIT 0 2 0
OMIT -1 1 0
OMIT -1 2 2
OMIT 3 -10 13
OMIT -1 4 0
OMIT 0 2 2
OMIT 0 3 1
OMIT -1 3 1
OMIT 1 -2 1
OMIT 0 -1 1
OMIT 7 -8 5
OMIT -1 2 1
REM <olex2.extras>
REM <HklSrc "%.\\ed_a.hkl">
REM </olex2.extras>

WGHT    0.038600    0.731500
EXTI    0.010213
FVAR       0.48840
AU1   3    0.537220    0.318407    0.318630    11.00000    0.04111    0.03876 =
         0.03807    0.00604   -0.00115    0.01262
FE1   5    0.180169    0.517441    0.167530    11.00000    0.02929    0.03866 =
         0.03128    0.00594    0.00486    0.01128
P1    7    0.526946    0.561864    0.345950    11.00000    0.03552    0.03872 =
         0.03082    0.00579    0.00244    0.01227
CL1   4    0.555763    0.068919    0.289068    11.00000    0.06104    0.03982 =
         0.06379    0.00068   -0.00370    0.01842
O2    6    0.581786    0.655787    0.264064    11.00000    0.03003    0.03998 =
         0.03195    0.00572    0.00116    0.00821
O1    6    0.325231    0.585323    0.368865    11.00000    0.03762    0.05527 =
         0.02998    0.00591    0.00482    0.01480
C11   1    0.690532    0.690278    0.441924    11.00000    0.04297    0.04435 =
         0.03365    0.00904    0.00260    0.01019
C10   1    0.377324    0.701972    0.135521    11.00000    0.04043    0.03649 =
         0.03514    0.01041    0.00227    0.00926
AFIX  43
H10   2    0.394941    0.810042    0.157605    11.00000   -1.20000
AFIX   0
C7    1    0.403224    0.450065    0.122686    11.00000    0.03370    0.04086 =
         0.03504    0.00409    0.00583    0.01548
AFIX  43
H7    2    0.441847    0.362532    0.134903    11.00000   -1.20000
AFIX   0
C6    1    0.464419    0.603862    0.177653    11.00000    0.02942    0.04135 =
         0.02863    0.00634    0.00466    0.01015
C1    1    0.162548    0.526484    0.300660    11.00000    0.03374    0.05878 =
         0.03392    0.01070    0.01088    0.01557
C12   1    0.656494    0.823272    0.486239    11.00000    0.04909    0.05297 =
         0.04730    0.00032    0.00572    0.01279
AFIX  43
H12   2    0.542428    0.847199    0.466985    11.00000   -1.20000
AFIX   0
C9    1    0.257963    0.606963    0.053453    11.00000    0.04202    0.04562 =
         0.03250    0.01091    0.00351    0.01256
AFIX  43
H9    2    0.181088    0.641048    0.010860    11.00000   -1.20000
AFIX   0
C16   1    0.856749    0.654664    0.469965    11.00000    0.04830    0.05052 =
         0.04314    0.01216   -0.00395    0.01514
AFIX  43
H16   2    0.878066    0.561646    0.440286    11.00000   -1.20000
AFIX   0
C5    1    0.062930    0.624935    0.265133    11.00000    0.04359    0.06652 =
         0.04014    0.00456    0.00931    0.02975
AFIX  43
H5    2    0.090391    0.735011    0.284447    11.00000   -1.20000
AFIX   0
C2    1    0.077094    0.370128    0.253810    11.00000    0.03933    0.05288 =
         0.04488    0.01610    0.00993    0.00389
AFIX  43
H2    2    0.114826    0.281460    0.264489    11.00000   -1.20000
AFIX   0
C8    1    0.273354    0.453114    0.046143    11.00000    0.03580    0.04772 =
         0.03292    0.00284    0.00658    0.01047
AFIX  43
H8    2    0.207724    0.366543   -0.001943    11.00000   -1.20000
AFIX   0
C3    1   -0.075895    0.370575    0.187724    11.00000    0.03091    0.06893 =
         0.04645    0.01002    0.00788    0.00072
AFIX  43
H3    2   -0.158407    0.281587    0.145432    11.00000   -1.20000
AFIX   0
C15   1    0.991888    0.755745    0.541684    11.00000    0.05450    0.06732 =
         0.04805    0.01871   -0.01343    0.01021
AFIX  43
H15   2    1.108003    0.734004    0.559904    11.00000   -1.20000
AFIX   0
C4    1   -0.084836    0.525000    0.195368    11.00000    0.03369    0.09252 =
         0.04317    0.00981    0.00896    0.02693
AFIX  43
H4    2   -0.175730    0.557151    0.159377    11.00000   -1.20000
AFIX   0
C14   1    0.956375    0.888158    0.586379    11.00000    0.06381    0.05951 =
         0.03698    0.01035   -0.00613   -0.00759
AFIX  43
H14   2    1.047203    0.956437    0.636221    11.00000   -1.20000
AFIX   0
C13   1    0.789544    0.921346    0.558809    11.00000    0.06648    0.05282 =
         0.04882   -0.00060    0.00995    0.00652
AFIX  43
H13   2    0.765891    1.012317    0.589937    11.00000   -1.20000
AFIX   0
HKLF 4




REM  ed_a.res in P-1
REM R1 =  0.0250 for    4244 Fo > 4sig(Fo)  and  0.0275 for all    4590 data
REM    200 parameters refined using      0 restraints

END

WGHT      0.0385      0.7324

REM Highest difference peak  0.899,  deepest hole -0.822,  1-sigma level  0.118
Q1    1   0.6671  0.4078  0.3808  11.00000  0.05    0.90
Q2    1   0.4051  0.2281  0.2564  11.00000  0.05    0.78
Q3    1   0.4070  0.4087  0.3317  11.00000  0.05    0.78
Q4    1   0.5014  0.4631  0.3159  11.00000  0.05    0.69
Q5    1   0.5499  0.4817  0.3286  11.00000  0.05    0.68
Q6    1   0.7562  0.8453  0.2005  11.00000  0.05    0.64
Q7    1   0.4676  0.3016  0.3964  11.00000  0.05    0.59
Q8    1   0.7270  0.3700  0.3380  11.00000  0.05    0.59
Q9    1   0.6452  0.2212  0.3278  11.00000  0.05    0.58
Q10   1   0.6746  0.3031  0.3779  11.00000  0.05    0.57
Q11   1   0.4633  0.1576  0.3100  11.00000  0.05    0.56
Q12   1   0.6733  0.2428  0.3131  11.00000  0.05    0.56
Q13   1   0.6577  0.4643  0.3205  11.00000  0.05    0.53
Q14   1   0.6505  0.6578  0.4150  11.00000  0.05    0.52
Q15   1   0.6272  0.3608  0.2480  11.00000  0.05    0.51
Q16   1   0.5406  0.4387  0.3776  11.00000  0.05    0.50
Q17   1   0.5729  0.1731  0.3187  11.00000  0.05    0.50
Q18   1   0.3858  1.0368  0.0503  11.00000  0.05    0.50
Q19   1   0.3577  0.3160  0.2884  11.00000  0.05    0.49
Q20   1   0.6400  0.3000  0.2535  11.00000  0.05    0.48
;
_shelx_res_checksum              69489
_shelx_fab_file
;
-9 -1 1 0.2998 0.5595
-9 -1 2 0.2172 0.1640
-9 -1 3 -0.1845 -0.0060
-9 -1 4 -0.4615 0.1852
-9 -1 5 -0.4445 0.5002
-9 -1 6 -0.3646 0.5248
-9 0 1 0.0890 0.0373
-9 0 2 0.0951 -0.2177
-9 0 3 -0.1749 -0.1469
-9 0 4 -0.3331 -0.0365
-9 0 5 -0.2275 0.0037
-9 0 6 -0.1250 0.0164
-9 0 7 0.0193 0.0851
-9 0 8 0.3908 0.2700
-9 1 1 -0.0917 -0.4234
-9 1 2 -0.0688 -0.2831
-9 1 3 -0.1672 -0.0251
-9 1 4 -0.1548 -0.0558
-9 1 5 0.0771 -0.2058
-9 1 6 0.2692 -0.1691
-9 1 7 0.3790 0.0689
-9 1 8 0.5816 0.3599
-9 1 9 0.6568 0.4968
-9 2 1 -0.0556 -0.1199
-9 2 2 -0.0677 0.1629
-9 2 3 -0.1016 0.2665
-9 2 4 -0.1201 0.1320
-9 2 5 0.0288 0.0766
-9 2 6 0.2445 0.1712
-9 2 7 0.3940 0.2307
-9 2 8 0.5146 0.2213
-9 2 9 0.4937 0.2241
-9 3 1 0.0466 0.2635
-9 3 2 0.1679 0.3088
-9 3 3 0.2405 0.0601
-9 3 4 0.0503 -0.0896
-9 3 5 -0.0800 0.0658
-9 3 6 -0.0031 0.1954
-9 3 7 0.0809 0.0427
-9 3 8 0.1266 -0.1993
-9 3 9 0.1609 -0.2719
-9 4 1 0.1821 0.0494
-9 4 2 0.5130 -0.0829
-9 4 3 0.7482 -0.3526
-9 4 4 0.3981 -0.3327
-9 4 5 0.0579 -0.1210
-9 4 6 0.0721 -0.1237
-9 4 7 0.0532 -0.3309
-9 4 8 -0.1131 -0.4399
-9 4 9 -0.1372 -0.3799
-9 5 1 0.5014 -0.1221
-9 5 2 0.7425 -0.2378
-9 5 3 0.9601 -0.1484
-9 5 4 0.5020 0.1428
-9 5 5 0.1276 0.1663
-9 5 6 0.2673 -0.2018
-9 5 7 0.3463 -0.4635
-9 5 8 0.0945 -0.3373
-9 6 1 0.8191 0.1978
-9 6 2 0.6728 -0.0268
-9 6 3 0.6956 0.3154
-9 6 4 0.3024 0.7730
-9 6 5 -0.0044 0.5597
-9 6 6 0.1300 -0.1611
-9 7 1 0.6978 0.3042
-9 7 2 0.2799 -0.1142
-9 7 3 0.2451 0.2296
-9 7 4 0.2119 0.7388
-8 -3 1 -0.0023 0.8082
-8 -3 2 0.2313 0.6377
-8 -3 3 0.2369 0.1474
-8 -3 4 0.2192 0.0986
-8 -3 5 0.3010 0.2906
-8 -3 6 0.2870 0.0926
-8 -3 7 0.2279 -0.2095
-8 -3 8 0.2986 0.0526
-8 -3 9 0.2794 0.5043
-8 -2 1 0.3128 0.4986
-8 -2 2 0.4691 0.1280
-8 -2 3 0.3245 -0.1915
-8 -2 4 0.2154 -0.1094
-8 -2 5 0.3273 0.0888
-8 -2 6 0.3301 -0.0342
-8 -2 7 0.2259 -0.2217
-8 -2 8 0.2605 -0.0336
-8 -2 9 0.1870 0.1425
-8 -2 10 -0.1815 -0.1907
-8 -1 1 0.4294 -0.2701
-8 -1 2 0.4466 -0.4469
-8 -1 3 0.2903 -0.3343
-8 -1 4 0.2426 -0.1595
-8 -1 5 0.3974 -0.0714
-8 -1 6 0.3280 -0.0719
-8 -1 7 0.0178 -0.0089
-8 -1 8 -0.1409 0.1531
-8 -1 9 -0.2162 0.0760
-8 -1 10 -0.4280 -0.3468
-8 -1 11 -0.5195 -0.5553
-8 -1 12 -0.3206 -0.2326
-8 0 1 0.1460 -0.2957
-8 0 2 0.0699 -0.1222
-8 0 3 0.1095 0.1662
-8 0 4 0.2789 0.1812
-8 0 5 0.5012 0.0494
-8 0 6 0.4316 0.0266
-8 0 7 0.0457 0.1352
-8 0 8 -0.2995 0.2298
-8 0 9 -0.4839 0.1415
-8 0 10 -0.5751 -0.0665
-8 0 11 -0.4812 -0.0750
-8 0 12 -0.2268 0.1726
-8 1 1 0.0666 0.0545
-8 1 2 -0.1733 0.2752
-8 1 3 0.0251 0.3271
-8 1 4 0.2957 0.1381
-8 1 5 0.4110 -0.0233
-8 1 6 0.3370 -0.0496
-8 1 7 0.1487 -0.0459
-8 1 8 -0.0493 -0.0526
-8 1 9 -0.2562 -0.0274
-8 1 10 -0.4516 0.0364
-8 1 11 -0.4791 0.1018
-8 1 12 -0.2825 0.1230
-8 2 1 0.5544 -0.0158
-8 2 2 0.1789 0.0384
-8 2 3 0.3278 -0.1342
-8 2 4 0.4320 -0.2509
-8 2 5 0.2606 -0.1574
-8 2 6 0.0350 -0.0577
-8 2 7 -0.0575 -0.1033
-8 2 8 -0.0128 -0.1795
-8 2 9 0.0266 -0.1343
-8 2 10 -0.1106 -0.0130
-8 2 11 -0.3790 -0.0114
-8 2 12 -0.4829 -0.1697
-8 3 1 0.8488 -0.0653
-8 3 2 0.7021 -0.0527
-8 3 3 0.7466 -0.1937
-8 3 4 0.5957 -0.1407
-8 3 5 0.3261 0.0788
-8 3 6 0.0930 0.1839
-8 3 7 -0.1484 0.1152
-8 3 8 -0.2812 -0.0014
-8 3 9 -0.1372 -0.0447
-8 3 10 0.0406 0.0329
-8 3 11 -0.1082 0.0892
-8 3 12 -0.3986 -0.0334
-8 4 1 0.4186 0.1908
-8 4 2 0.7058 0.1832
-8 4 3 0.6800 0.1370
-8 4 4 0.3671 0.2048
-8 4 5 0.3230 0.2323
-8 4 6 0.4918 0.1377
-8 4 7 0.3163 0.0627
-8 4 8 -0.1481 0.0220
-8 4 9 -0.3095 -0.0255
-8 4 10 -0.0876 0.0754
-8 4 11 0.0241 0.3183
-8 4 12 -0.1216 0.3677
-8 5 1 -0.0324 0.1322
-8 5 2 0.3153 -0.0806
-8 5 3 0.1618 -0.0534
-8 5 4 -0.1799 0.0946
-8 5 5 -0.0377 -0.0064
-8 5 6 0.4773 -0.2582
-8 5 7 0.6881 -0.2521
-8 5 8 0.3962 -0.0246
-8 5 9 0.0353 0.1015
-8 5 10 -0.0715 0.1705
-8 5 11 -0.0554 0.3354
-8 6 1 -0.0397 -0.1574
-8 6 2 -0.0098 -0.5297
-8 6 3 -0.1999 -0.3595
-8 6 4 -0.3453 0.0344
-8 6 5 -0.2766 -0.0076
-8 6 6 -0.0026 -0.3486
-8 6 7 0.3635 -0.2936
-8 6 8 0.5603 0.2075
-8 6 9 0.4268 0.5252
-8 6 10 0.1377 0.3983
-8 7 1 -0.2412 -0.0465
-8 7 2 -0.3020 -0.2657
-8 7 3 -0.1613 0.0552
-8 7 4 0.0970 0.4756
-8 7 5 0.0115 0.2880
-8 7 6 -0.2400 -0.2483
-8 7 7 -0.0903 -0.2487
-8 7 8 0.2743 0.3698
-8 8 1 -0.8462 0.0232
-8 8 2 -0.6044 0.1308
-8 8 3 0.0349 0.5813
-8 8 4 0.5752 0.7522
-8 8 5 0.3623 0.1972
-8 8 6 -0.1394 -0.5134
-8 9 1 -1.0102 -0.4993
-8 9 2 -0.5872 -0.1596
-8 9 3 0.1741 0.4965
-7 -5 1 0.4741 0.3979
-7 -5 2 0.5683 0.5447
-7 -5 3 0.3454 0.2910
-7 -5 4 0.0191 0.1908
-7 -5 5 -0.0069 0.1831
-7 -5 6 0.0733 -0.0006
-7 -5 7 0.0762 -0.0727
-7 -5 8 0.1846 0.2820
-7 -5 9 0.2695 0.6683
-7 -4 1 0.6753 0.6392
-7 -4 2 0.9003 0.2884
-7 -4 3 0.4696 -0.1617
-7 -4 4 -0.0041 -0.0809
-7 -4 5 0.0546 0.1314
-7 -4 6 0.2340 -0.0791
-7 -4 7 0.2136 -0.3088
-7 -4 8 0.1845 -0.0156
-7 -4 9 0.0453 0.3872
-7 -4 10 -0.2946 0.3710
-7 -4 11 -0.3420 0.2357
-7 -3 1 0.3076 0.0789
-7 -3 2 0.6796 -0.2758
-7 -3 3 0.3126 -0.5156
-7 -3 4 -0.1628 -0.3118
-7 -3 5 -0.1210 -0.0109
-7 -3 6 0.0142 -0.0595
-7 -3 7 -0.0436 -0.2025
-7 -3 8 -0.0769 -0.0620
-7 -3 9 -0.1975 0.0704
-7 -3 10 -0.4857 -0.0491
-7 -3 11 -0.4733 -0.0237
-7 -3 12 -0.0627 0.2620
-7 -3 13 0.1642 0.2881
-7 -2 1 -0.0303 -0.1684
-7 -2 2 0.3515 -0.1069
-7 -2 3 0.2635 0.0356
-7 -2 4 0.0023 0.1422
-7 -2 5 -0.0445 0.1837
-7 -2 6 -0.1661 0.1259
-7 -2 7 -0.3908 0.0658
-7 -2 8 -0.3649 0.0806
-7 -2 9 -0.1838 0.0057
-7 -2 10 -0.1325 -0.1431
-7 -2 11 -0.1294 -0.0407
-7 -2 12 -0.1303 0.2174
-7 -2 13 -0.2450 0.1226
-7 -2 14 -0.2725 -0.2464
-7 -1 1 -0.0309 0.0839
-7 -1 2 0.2926 0.2685
-7 -1 3 0.5642 0.4215
-7 -1 4 0.6382 0.3109
-7 -1 5 0.5276 0.1094
-7 -1 6 0.1580 -0.0130
-7 -1 7 -0.2541 -0.0459
-7 -1 8 -0.3269 -0.0348
-7 -1 9 -0.0564 -0.0471
-7 -1 10 0.2487 -0.0487
-7 -1 11 0.2986 0.0587
-7 -1 12 -0.0348 0.1162
-7 -1 13 -0.5039 -0.1477
-7 -1 14 -0.6002 -0.5385
-7 0 1 -0.0436 0.0240
-7 0 2 0.1051 0.0094
-7 0 3 0.7009 -0.0447
-7 0 4 1.1437 -0.1549
-7 0 5 1.0605 -0.2256
-7 0 6 0.6223 -0.2228
-7 0 7 0.2002 -0.1666
-7 0 8 -0.0136 -0.0758
-7 0 9 -0.0052 0.0082
-7 0 10 0.1324 0.0449
-7 0 11 0.1605 0.0344
-7 0 12 -0.0548 -0.0285
-7 0 13 -0.2774 -0.1744
-7 0 14 -0.2598 -0.3661
-7 0 15 -0.1077 -0.4456
-7 1 1 -0.1104 -0.1450
-7 1 2 -0.2615 -0.2228
-7 1 3 0.4210 -0.2801
-7 1 4 1.1030 -0.1935
-7 1 5 1.1043 -0.0600
-7 1 6 0.6611 0.0284
-7 1 7 0.2552 0.1102
-7 1 8 0.0200 0.1812
-7 1 9 -0.0709 0.1689
-7 1 10 -0.0930 0.0526
-7 1 11 -0.1982 -0.1007
-7 1 12 -0.2607 -0.1343
-7 1 13 0.0415 0.0533
-7 1 14 0.4742 0.2670
-7 1 15 0.4466 0.2250
-7 2 1 0.0892 0.1123
-7 2 2 -0.1662 0.0924
-7 2 3 0.2514 0.0901
-7 2 4 0.8276 0.1803
-7 2 5 0.9094 0.2246
-7 2 6 0.4758 0.2059
-7 2 7 -0.0951 0.2013
-7 2 8 -0.4336 0.1406
-7 2 9 -0.3373 -0.0024
-7 2 10 -0.0499 -0.0962
-7 2 11 -0.0653 -0.1104
-7 2 12 -0.2350 -0.0546
-7 2 13 0.0780 0.2040
-7 2 14 0.6830 0.5884
-7 2 15 0.7224 0.6872
-7 3 1 0.4810 0.2100
-7 3 2 0.3953 0.1889
-7 3 3 0.3884 0.1229
-7 3 4 0.6019 0.0382
-7 3 5 0.7458 -0.0635
-7 3 6 0.4977 -0.0936
-7 3 7 -0.1125 -0.0802
-7 3 8 -0.6466 -0.1958
-7 3 9 -0.5871 -0.3228
-7 3 10 -0.0437 -0.1599
-7 3 11 0.2367 0.1404
-7 3 12 0.0345 0.1938
-7 3 13 -0.0180 0.1172
-7 3 14 0.2832 0.2359
-7 4 1 0.6752 -0.1273
-7 4 2 0.6050 -0.1211
-7 4 3 0.3869 -0.1568
-7 4 4 0.4481 -0.2089
-7 4 5 0.6131 -0.2226
-7 4 6 0.5849 -0.1363
-7 4 7 0.3254 -0.0513
-7 4 8 -0.0791 -0.1213
-7 4 9 -0.3463 -0.1738
-7 4 10 -0.2169 0.0544
-7 4 11 0.0311 0.3150
-7 4 12 0.0069 0.1705
-7 4 13 -0.1076 -0.2126
-7 4 14 -0.0514 -0.3329
-7 5 1 0.5423 -0.0923
-7 5 2 0.2183 -0.0954
-7 5 3 0.1828 -0.0549
-7 5 4 0.5711 0.0717
-7 5 5 0.7056 0.1769
-7 5 6 0.5512 0.2030
-7 5 7 0.5989 0.1873
-7 5 8 0.6071 0.1672
-7 5 9 0.1495 0.1776
-7 5 10 -0.3685 0.1839
-7 5 11 -0.4764 0.0213
-7 5 12 -0.3629 -0.3445
-7 5 13 -0.2412 -0.6229
-7 6 1 0.2992 0.2843
-7 6 2 -0.0967 0.1405
-7 6 3 0.1765 0.0629
-7 6 4 0.9333 0.1492
-7 6 5 0.9995 0.1773
-7 6 6 0.5356 0.0501
-7 6 7 0.5485 -0.0223
-7 6 8 0.7160 0.1032
-7 6 9 0.1960 0.2272
-7 6 10 -0.5613 0.0466
-7 6 11 -0.7526 -0.4173
-7 6 12 -0.5458 -0.7682
-7 7 1 0.1615 0.0869
-7 7 2 0.0490 -0.0071
-7 7 3 0.3644 -0.1047
-7 7 4 0.9576 -0.1638
-7 7 5 0.8779 -0.3043
-7 7 6 0.4208 -0.4465
-7 7 7 0.4937 -0.3164
-7 7 8 0.6084 0.0846
-7 7 9 -0.0220 0.3358
-7 7 10 -0.7320 0.0959
-7 7 11 -0.7015 -0.4098
-7 8 1 0.0599 -0.4010
-7 8 2 0.1902 -0.1966
-7 8 3 0.3336 0.0609
-7 8 4 0.4798 0.1099
-7 8 5 0.2500 -0.1388
-7 8 6 0.0471 -0.3646
-7 8 7 0.4080 -0.1716
-7 8 8 0.6763 0.3515
-7 8 9 0.1634 0.6630
-7 9 1 -0.1060 -0.2566
-7 9 2 -0.0576 -0.1095
-7 9 3 -0.0059 0.3675
-7 9 4 0.0471 0.6734
-7 9 5 -0.0939 0.4731
-7 9 6 -0.1763 0.0373
-7 9 7 0.1652 -0.0758
-7 10 1 -0.1373 0.1426
-7 10 2 -0.2711 -0.1988
-7 10 3 -0.2388 -0.0179
-6 -7 3 0.4388 0.4979
-6 -7 4 -0.0993 -0.2231
-6 -7 5 -0.3091 -0.5177
-6 -6 1 0.3898 1.0562
-6 -6 2 0.7114 0.8100
-6 -6 3 0.4266 0.2929
-6 -6 4 -0.0625 -0.1446
-6 -6 5 -0.0880 -0.3996
-6 -6 6 -0.0357 -0.4494
-6 -6 7 -0.1446 -0.2820
-6 -6 8 -0.0012 -0.0248
-6 -6 9 0.2435 0.0873
-6 -6 10 0.1038 0.0463
-6 -6 11 -0.1135 0.0791
-6 -5 1 0.7451 0.0838
-6 -5 2 0.9529 -0.2789
-6 -5 3 0.3819 -0.3860
-6 -5 4 -0.0854 -0.1819
-6 -5 5 0.1660 -0.0709
-6 -5 6 0.3699 -0.1835
-6 -5 7 0.1540 -0.2037
-6 -5 8 0.0640 -0.0407
-6 -5 9 0.1604 -0.0132
-6 -5 10 0.1204 -0.1405
-6 -5 11 0.1365 -0.0731
-6 -5 12 0.2774 0.1162
-6 -5 13 0.1077 0.0253
-6 -4 1 0.3624 -0.2430
-6 -4 2 0.9172 -0.3851
-6 -4 3 0.4972 -0.2457
-6 -4 4 0.0746 0.0858
-6 -4 5 0.2919 0.2880
-6 -4 6 0.4485 0.2259
-6 -4 7 0.2016 0.1473
-6 -4 8 -0.0064 0.1695
-6 -4 9 -0.0606 0.0629
-6 -4 10 -0.0536 -0.1307
-6 -4 11 0.1687 -0.0708
-6 -4 12 0.3949 0.1023
-6 -4 13 0.1392 -0.0333
-6 -4 14 -0.3426 -0.2805
-6 -3 1 -0.0991 0.0738
-6 -3 2 0.6723 0.2079
-6 -3 3 0.6542 0.2618
-6 -3 4 0.3609 0.1914
-6 -3 5 0.2465 0.1472
-6 -3 6 0.0856 0.1236
-6 -3 7 -0.0906 0.1079
-6 -3 8 -0.0738 0.1143
-6 -3 9 -0.0349 0.0450
-6 -3 10 -0.0693 -0.0673
-6 -3 11 -0.0065 -0.0364
-6 -3 12 0.0332 0.0372
-6 -3 13 -0.1592 -0.0621
-6 -3 14 -0.2960 -0.1114
-6 -3 15 -0.0817 0.1388
-6 -2 1 0.0402 -0.0704
-6 -2 2 0.5298 0.0943
-6 -2 3 0.7706 0.0297
-6 -2 4 0.6882 -0.1876
-6 -2 5 0.2918 -0.2355
-6 -2 6 -0.2107 -0.1601
-6 -2 7 -0.3609 -0.1380
-6 -2 8 -0.1145 -0.1349
-6 -2 9 0.1097 -0.0960
-6 -2 10 0.1184 -0.0499
-6 -2 11 -0.0120 -0.0044
-6 -2 12 -0.2498 0.0012
-6 -2 13 -0.4146 -0.0492
-6 -2 14 -0.1841 0.0171
-6 -2 15 0.3588 0.2857
-6 -2 16 0.6873 0.4411
-6 -1 1 0.3258 -0.2769
-6 -1 2 0.4118 -0.2174
-6 -1 3 0.8037 -0.2491
-6 -1 4 1.0263 -0.2234
-6 -1 5 0.6250 -0.0746
-6 -1 6 -0.0544 0.0248
-6 -1 7 -0.3629 -0.0160
-6 -1 8 -0.2661 -0.0653
-6 -1 9 -0.0864 -0.0265
-6 -1 10 0.0409 0.0405
-6 -1 11 0.0387 0.0778
-6 -1 12 -0.1003 0.0850
-6 -1 13 -0.1282 0.0500
-6 -1 14 0.1043 0.0060
-6 -1 15 0.3841 0.0501
-6 -1 16 0.4805 0.1549
-6 0 1 0.2694 0.0982
-6 0 2 0.1723 0.0691
-6 0 3 0.6172 0.0915
-6 0 4 1.0734 0.2310
-6 0 5 0.8486 0.2814
-6 0 6 0.1420 0.1767
-6 0 7 -0.4408 0.0799
-6 0 8 -0.6912 0.0794
-6 0 9 -0.6217 0.1011
-6 0 10 -0.3402 0.0786
-6 0 11 -0.1261 0.0449
-6 0 12 -0.0049 0.0528
-6 0 13 0.2316 0.0499
-6 0 14 0.3660 -0.0555
-6 0 15 0.0602 -0.1859
-6 0 16 -0.3628 -0.1758
-6 1 1 0.1074 0.2350
-6 1 2 0.0161 0.1366
-6 1 3 0.2423 0.1627
-6 1 4 0.6439 0.2117
-6 1 5 0.6159 0.0492
-6 1 6 0.0015 -0.1608
-6 1 7 -0.8159 -0.1514
-6 1 8 -1.3224 -0.0181
-6 1 9 -1.1547 0.0274
-6 1 10 -0.5643 -0.0222
-6 1 11 -0.2089 -0.0903
-6 1 12 -0.1174 -0.1286
-6 1 13 0.1220 -0.1011
-6 1 14 0.2346 -0.0386
-6 1 15 -0.2380 -0.0130
-6 1 16 -0.8047 -0.0469
-6 2 1 0.0490 -0.1691
-6 2 2 0.0587 -0.2339
-6 2 3 0.0233 -0.1866
-6 2 4 0.2579 -0.1714
-6 2 5 0.3842 -0.2605
-6 2 6 -0.0458 -0.2510
-6 2 7 -0.9233 -0.0800
-6 2 8 -1.6045 0.0247
-6 2 9 -1.4281 -0.0108
-6 2 10 -0.5933 -0.0372
-6 2 11 -0.0121 -0.0526
-6 2 12 0.0328 -0.1354
-6 2 13 0.0061 -0.1529
-6 2 14 -0.0431 0.0456
-6 2 15 -0.3438 0.3096
-6 2 16 -0.5542 0.3397
-6 3 1 0.0655 -0.1536
-6 3 2 0.1868 -0.0857
-6 3 3 0.3431 -0.0351
-6 3 4 0.6652 -0.0492
-6 3 5 0.7059 -0.0243
-6 3 6 0.2337 0.1323
-6 3 7 -0.5086 0.2612
-6 3 8 -1.1612 0.1827
-6 3 9 -1.2803 0.0400
-6 3 10 -0.7161 0.0437
-6 3 11 0.0015 0.0984
-6 3 12 0.3285 0.0387
-6 3 13 0.2728 -0.0314
-6 3 14 0.0079 0.0694
-6 3 15 -0.2625 0.2764
-6 3 16 -0.2110 0.3462
-6 4 1 0.2469 0.2082
-6 4 2 0.3710 0.2836
-6 4 3 1.1139 0.2718
-6 4 4 1.7811 0.1882
-6 4 5 1.3734 0.1502
-6 4 6 0.3316 0.1620
-6 4 7 -0.3162 0.0899
-6 4 8 -0.6053 -0.0582
-6 4 9 -0.9090 -0.0967
-6 4 10 -0.9272 0.0117
-6 4 11 -0.4337 0.1064
-6 4 12 0.1545 0.1178
-6 4 13 0.3757 0.0972
-6 4 14 0.1881 0.0544
-6 4 15 -0.0872 0.0072
-6 5 1 0.5750 0.0789
-6 5 2 0.5413 0.0156
-6 5 3 1.5800 -0.0473
-6 5 4 2.4876 -0.0679
-6 5 5 1.7206 -0.0497
-6 5 6 0.1288 -0.0900
-6 5 7 -0.5663 -0.2458
-6 5 8 -0.5367 -0.3554
-6 5 9 -0.7896 -0.2464
-6 5 10 -1.1306 -0.0472
-6 5 11 -0.9284 0.0440
-6 5 12 -0.3782 0.0877
-6 5 13 0.0017 0.1537
-6 5 14 0.0902 0.1026
-6 6 1 0.8107 -0.0711
-6 6 2 0.5851 -0.1835
-6 6 3 1.2125 -0.2741
-6 6 4 1.9196 -0.2044
-6 6 5 1.3124 -0.0157
-6 6 6 0.0170 0.0933
-6 6 7 -0.5040 -0.0002
-6 6 8 -0.4708 -0.1269
-6 6 9 -0.8002 -0.0646
-6 6 10 -1.2130 0.0831
-6 6 11 -1.0633 0.1051
-6 6 12 -0.5908 0.0771
-6 6 13 -0.2788 0.1258
-6 7 1 0.8022 0.2444
-6 7 2 0.5786 0.1799
-6 7 3 0.5391 0.0549
-6 7 4 0.7023 0.0667
-6 7 5 0.4188 0.2049
-6 7 6 -0.1016 0.2763
-6 7 7 -0.1940 0.1844
-6 7 8 -0.1187 0.1136
-6 7 9 -0.4382 0.2485
-6 7 10 -0.8292 0.4164
-6 7 11 -0.7119 0.3532
-6 7 12 -0.2843 0.1540
-6 8 1 0.5757 0.1948
-6 8 2 0.4926 0.0936
-6 8 3 0.1419 0.0075
-6 8 4 -0.0563 0.0557
-6 8 5 -0.1627 0.1053
-6 8 6 -0.3339 -0.0455
-6 8 7 -0.3960 -0.2600
-6 8 8 -0.2057 -0.1386
-6 8 9 -0.0097 0.3740
-6 8 10 -0.0368 0.7797
-6 9 1 0.3670 -0.1456
-6 9 2 0.1960 -0.3117
-6 9 3 -0.2834 -0.3806
-6 9 4 -0.4722 -0.2042
-6 9 5 -0.1762 -0.0159
-6 9 6 -0.1340 -0.1720
-6 9 7 -0.6349 -0.4828
-6 9 8 -0.7792 -0.3464
-6 9 9 -0.1324 0.3059
-6 10 1 0.4355 0.4474
-6 10 2 0.0052 0.3474
-6 10 3 -0.7750 0.0169
-6 10 4 -1.0324 -0.1089
-6 10 5 -0.1699 0.0637
-6 10 6 0.5491 0.1188
-6 11 1 0.5305 1.3426
-5 -8 1 -0.2814 0.7399
-5 -8 2 0.3232 0.4673
-5 -8 3 0.4746 0.1278
-5 -8 4 0.3897 -0.0856
-5 -8 5 0.2845 -0.0096
-5 -8 6 -0.0125 -0.0413
-5 -8 7 -0.2626 -0.4450
-5 -7 1 -0.3132 0.1506
-5 -7 2 0.3072 -0.1380
-5 -7 3 0.4071 -0.2422
-5 -7 4 0.3363 -0.2583
-5 -7 5 0.3175 -0.1901
-5 -7 6 0.0379 -0.1849
-5 -7 7 -0.2568 -0.3912
-5 -7 8 -0.0660 -0.5362
-5 -7 9 0.2751 -0.3136
-5 -7 10 0.2219 0.1254
-5 -7 11 -0.0445 0.4405
-5 -6 1 0.1986 -0.3398
-5 -6 2 0.5394 -0.3753
-5 -6 3 0.2404 -0.1006
-5 -6 4 -0.0342 0.1113
-5 -6 5 -0.0364 0.1487
-5 -6 6 -0.2740 0.1413
-5 -6 7 -0.6322 0.1062
-5 -6 8 -0.5116 -0.0168
-5 -6 9 0.0001 -0.1406
-5 -6 10 0.3366 -0.0291
-5 -6 11 0.2286 0.3163
-5 -6 12 -0.2920 0.4440
-5 -6 13 -0.9279 0.1010
-5 -6 14 -1.1164 -0.2263
-5 -5 1 0.5985 -0.0211
-5 -5 2 0.8199 0.1118
-5 -5 3 0.3042 0.3451
-5 -5 4 -0.2297 0.3501
-5 -5 5 -0.5044 0.1741
-5 -5 6 -0.8711 0.0946
-5 -5 7 -1.2225 0.1962
-5 -5 8 -1.1217 0.2351
-5 -5 9 -0.5389 0.0416
-5 -5 10 0.1531 -0.0987
-5 -5 11 0.4344 0.0678
-5 -5 12 -0.0119 0.1977
-5 -5 13 -0.7826 -0.0080
-5 -5 14 -1.0673 -0.1340
-5 -5 15 -0.6842 0.1415
-5 -4 1 0.3511 0.0441
-5 -4 2 0.6350 0.2096
-5 -4 3 0.4327 0.1878
-5 -4 4 -0.0271 -0.0574
-5 -4 5 -0.6699 -0.2793
-5 -4 6 -1.3247 -0.3304
-5 -4 7 -1.5716 -0.1846
-5 -4 8 -1.3164 0.0233
-5 -4 9 -0.7616 0.0649
-5 -4 10 -0.0786 -0.0281
-5 -4 11 0.3571 -0.0498
-5 -4 12 0.1793 -0.0526
-5 -4 13 -0.2778 -0.1285
-5 -4 14 -0.3817 -0.0695
-5 -4 15 -0.1390 0.1410
-5 -4 16 0.0632 0.1118
-5 -3 1 -0.0124 -0.2114
-5 -3 2 0.2894 -0.0527
-5 -3 3 0.5982 -0.1560
-5 -3 4 0.4835 -0.2745
-5 -3 5 -0.4026 -0.2047
-5 -3 6 -1.4270 -0.1297
-5 -3 7 -1.7303 -0.1303
-5 -3 8 -1.3781 -0.0673
-5 -3 9 -0.8248 0.0391
-5 -3 10 -0.2372 0.0537
-5 -3 11 0.1366 -0.0105
-5 -3 12 0.0815 -0.0731
-5 -3 13 -0.0448 -0.0759
-5 -3 14 0.1415 0.0206
-5 -3 15 0.3788 0.0676
-5 -3 16 0.3414 -0.1519
-5 -3 17 0.2029 -0.4245
-5 -2 1 0.1479 0.1078
-5 -2 2 0.3695 0.1423
-5 -2 3 0.8668 0.0118
-5 -2 4 0.9476 0.0508
-5 -2 5 0.0016 0.2741
-5 -2 6 -1.2843 0.3534
-5 -2 7 -1.9358 0.1996
-5 -2 8 -1.8662 0.0439
-5 -2 9 -1.3517 0.0067
-5 -2 10 -0.6134 0.0040
-5 -2 11 -0.0863 -0.0109
-5 -2 12 0.0006 -0.0074
-5 -2 13 0.0227 0.0280
-5 -2 14 0.2526 0.0848
-5 -2 15 0.4046 0.0900
-5 -2 16 0.2470 -0.0576
-5 -2 17 -0.0183 -0.2512
-5 -1 1 0.6897 0.4105
-5 -1 2 0.7727 0.2483
-5 -1 3 0.9277 0.0811
-5 -1 4 0.7845 0.0799
-5 -1 5 -0.0589 0.1297
-5 -1 6 -1.2115 0.1019
-5 -1 7 -2.1126 0.0321
-5 -1 8 -2.4945 -0.0177
-5 -1 9 -2.1415 -0.0533
-5 -1 10 -1.2194 -0.0704
-5 -1 11 -0.4022 -0.0380
-5 -1 12 -0.0195 0.0116
-5 -1 13 0.1736 0.0141
-5 -1 14 0.2769 0.0095
-5 -1 15 0.1551 0.0591
-5 -1 16 -0.1415 0.0474
-5 -1 17 -0.4282 -0.1450
-5 0 1 0.9874 -0.0159
-5 0 2 1.0876 -0.1838
-5 0 3 0.7471 -0.2118
-5 0 4 0.1702 -0.1764
-5 0 5 -0.5314 -0.2288
-5 0 6 -1.3028 -0.2757
-5 0 7 -2.1679 -0.1917
-5 0 8 -2.7948 -0.0690
-5 0 9 -2.5864 -0.0271
-5 0 10 -1.6629 -0.0138
-5 0 11 -0.7640 0.0455
-5 0 12 -0.1611 0.0790
-5 0 13 0.2440 0.0112
-5 0 14 0.2997 -0.0516
-5 0 15 0.0014 -0.0170
-5 0 16 -0.3191 -0.0742
-5 0 17 -0.5408 -0.3860
-5 0 18 -0.6539 -0.6591
-5 1 1 0.6084 -0.2251
-5 1 2 1.0501 -0.2343
-5 1 3 0.7517 -0.1015
-5 1 4 0.1185 0.0280
-5 1 5 -0.4640 0.0452
-5 1 6 -1.1013 0.0290
-5 1 7 -2.0466 0.0516
-5 1 8 -2.8653 0.0601
-5 1 9 -2.8000 0.0237
-5 1 10 -1.9770 0.0194
-5 1 11 -1.0866 0.0894
-5 1 12 -0.3358 0.1278
-5 1 13 0.2005 0.0445
-5 1 14 0.2298 -0.0428
-5 1 15 -0.0390 -0.0392
-5 1 16 -0.1052 -0.1536
-5 1 17 -0.1044 -0.5034
-5 2 1 -0.1250 0.1475
-5 2 2 0.5508 0.1670
-5 2 3 0.8711 0.2095
-5 2 4 0.7598 0.2419
-5 2 5 0.3107 0.2523
-5 2 6 -0.4970 0.2152
-5 2 7 -1.6706 0.1261
-5 2 8 -2.7023 0.0335
-5 2 9 -2.9265 -0.0328
-5 2 10 -2.3923 -0.0659
-5 2 11 -1.5267 -0.0314
-5 2 12 -0.5272 0.0234
-5 2 13 0.1881 -0.0261
-5 2 14 0.1666 -0.1054
-5 2 15 -0.0990 -0.0290
-5 2 16 0.1184 0.0651
-5 2 17 0.4373 -0.0628
-5 3 1 -0.4605 0.0793
-5 3 2 -0.0911 0.0574
-5 3 3 0.7228 -0.0065
-5 3 4 1.1692 -0.0969
-5 3 5 0.7629 -0.1434
-5 3 6 -0.2197 -0.1575
-5 3 7 -1.3048 -0.1482
-5 3 8 -2.1471 -0.0681
-5 3 9 -2.5478 0.0117
-5 3 10 -2.5176 -0.0302
-5 3 11 -1.9842 -0.1001
-5 3 12 -0.8887 -0.0822
-5 3 13 0.1048 -0.0933
-5 3 14 0.1962 -0.1254
-5 3 15 -0.1557 0.0934
-5 3 16 0.0275 0.4991
-5 3 17 0.5073 0.6298
-5 4 1 -0.2880 -0.3268
-5 4 2 -0.3148 -0.2302
-5 4 3 0.5032 -0.1598
-5 4 4 1.0936 -0.1997
-5 4 5 0.6182 -0.2358
-5 4 6 -0.4106 -0.1762
-5 4 7 -1.1773 -0.0506
-5 4 8 -1.5491 0.0977
-5 4 9 -1.8094 0.1709
-5 4 10 -2.0857 0.0707
-5 4 11 -2.0076 -0.0705
-5 4 12 -1.1532 -0.0645
-5 4 13 -0.0389 0.0110
-5 4 14 0.3076 0.0980
-5 4 15 -0.0592 0.3861
-5 4 16 -0.1738 0.8006
-5 5 1 -0.0240 -0.1418
-5 5 2 -0.0285 0.0232
-5 5 3 0.4868 0.1787
-5 5 4 0.8928 0.1668
-5 5 5 0.4903 0.1251
-5 5 6 -0.3269 0.1964
-5 5 7 -0.9074 0.2570
-5 5 8 -1.1897 0.1878
-5 5 9 -1.4099 0.0491
-5 5 10 -1.6467 -0.0788
-5 5 11 -1.6075 -0.1243
-5 5 12 -0.9241 -0.0139
-5 5 13 0.0732 0.2051
-5 5 14 0.5151 0.4373
-5 5 15 0.2177 0.6541
-5 6 1 0.2821 0.1407
-5 6 2 0.3877 0.1312
-5 6 3 0.4236 0.1437
-5 6 4 0.4284 0.0788
-5 6 5 0.2331 0.0321
-5 6 6 -0.0675 0.0820
-5 6 7 -0.3889 0.0709
-5 6 8 -0.7724 -0.0844
-5 6 9 -1.1727 -0.2139
-5 6 10 -1.4129 -0.1982
-5 6 11 -1.2088 -0.0863
-5 6 12 -0.4511 0.1002
-5 6 13 0.3880 0.3750
-5 6 14 0.6732 0.6443
-5 7 1 0.5115 -0.1195
-5 7 2 0.4853 -0.2049
-5 7 3 0.1026 -0.2506
-5 7 4 -0.2546 -0.2365
-5 7 5 -0.2583 -0.1817
-5 7 6 -0.0858 -0.1581
-5 7 7 -0.0911 -0.2200
-5 7 8 -0.2794 -0.2572
-5 7 9 -0.5618 -0.1359
-5 7 10 -0.8911 0.0561
-5 7 11 -0.8726 0.1735
-5 7 12 -0.2264 0.2691
-5 7 13 0.4642 0.4421
-5 8 1 0.1486 -0.1357
-5 8 2 0.0244 -0.0592
-5 8 3 -0.3835 -0.0601
-5 8 4 -0.5198 0.0312
-5 8 5 0.0944 0.1983
-5 8 6 0.6298 0.2037
-5 8 7 0.3806 -0.0035
-5 8 8 -0.0042 -0.1243
-5 8 9 -0.0441 0.0143
-5 8 10 -0.2218 0.1864
-5 8 11 -0.4936 0.2111
-5 9 1 -0.5234 0.2925
-5 9 2 -0.5392 0.4082
-5 9 3 -0.8500 0.2270
-5 9 4 -0.3904 0.0861
-5 9 5 1.4303 0.2659
-5 9 6 2.6574 0.4747
-5 9 7 1.7703 0.3356
-5 9 8 0.2760 0.0275
-5 9 9 -0.1370 -0.0978
-5 9 10 -0.0490 -0.0833
-5 10 1 -0.5540 0.0724
-5 10 2 -0.4182 0.1473
-5 10 3 -0.9247 -0.1975
-5 10 4 -0.4664 -0.6424
-5 10 5 1.9548 -0.5156
-5 10 6 3.8696 0.0851
-5 10 7 2.9170 0.4064
-5 11 1 -0.1148 -0.6754
-5 11 2 0.1319 -0.3653
-5 11 3 -0.4609 -0.4050
-5 11 4 -0.5958 -0.8139
-4 -9 2 0.1185 -0.3140
-4 -9 3 0.3843 -0.1981
-4 -9 4 0.5236 -0.1149
-4 -9 5 0.0773 0.0453
-4 -9 6 -0.5283 -0.2376
-4 -9 7 -0.5486 -0.7960
-4 -8 1 0.3756 -0.8723
-4 -8 2 0.3459 -0.5441
-4 -8 3 0.3809 -0.1619
-4 -8 4 0.2250 -0.0005
-4 -8 5 -0.3829 0.1393
-4 -8 6 -1.0141 -0.0028
-4 -8 7 -1.0432 -0.4277
-4 -8 8 -0.5825 -0.4045
-4 -8 9 -0.1911 0.1467
-4 -8 10 -0.0665 0.3396
-4 -8 11 -0.1021 -0.1297
-4 -8 12 -0.2460 -0.6591
-4 -7 1 0.4935 -0.1729
-4 -7 2 0.3385 0.0187
-4 -7 3 -0.0490 0.2059
-4 -7 4 -0.5915 0.1746
-4 -7 5 -1.2228 0.2512
-4 -7 6 -1.5713 0.3676
-4 -7 7 -1.4144 0.2287
-4 -7 8 -0.9966 0.0114
-4 -7 9 -0.5017 -0.0004
-4 -7 10 0.0048 0.0934
-4 -7 11 0.1506 0.0577
-4 -7 12 -0.2402 -0.2081
-4 -7 13 -0.5826 -0.5492
-4 -7 14 -0.3788 -0.5484
-4 -6 1 0.2527 0.2232
-4 -6 2 0.1069 0.2640
-4 -6 3 -0.2941 0.1461
-4 -6 4 -0.9537 -0.1323
-4 -6 5 -1.6809 -0.1953
-4 -6 6 -1.9270 0.0214
-4 -6 7 -1.6380 0.1937
-4 -6 8 -1.2760 0.0960
-4 -6 9 -0.8186 -0.1406
-4 -6 10 -0.1237 -0.1886
-4 -6 11 0.2075 0.0112
-4 -6 12 -0.1408 0.1002
-4 -6 13 -0.3402 -0.0517
-4 -6 14 0.0977 -0.0231
-4 -6 15 0.4100 0.3336
-4 -5 1 -0.0329 -0.2181
-4 -5 2 -0.0598 -0.0897
-4 -5 3 -0.0718 -0.1418
-4 -5 4 -0.5678 -0.2647
-4 -5 5 -1.5492 -0.3065
-4 -5 6 -2.1117 -0.2503
-4 -5 7 -1.9408 -0.1158
-4 -5 8 -1.5950 -0.0063
-4 -5 9 -1.1437 -0.0337
-4 -5 10 -0.4254 -0.0772
-4 -5 11 -0.0384 -0.0010
-4 -5 12 -0.2477 0.0415
-4 -5 13 -0.1878 -0.0184
-4 -5 14 0.4324 0.0673
-4 -5 15 0.6343 0.3018
-4 -5 16 0.1025 0.3382
-4 -5 17 -0.2351 0.1725
-4 -4 1 0.2705 -0.1608
-4 -4 2 0.2047 -0.0810
-4 -4 3 0.3445 -0.0581
-4 -4 4 -0.1053 0.1040
-4 -4 5 -1.3875 0.2421
-4 -4 6 -2.4602 0.1470
-4 -4 7 -2.6645 -0.0085
-4 -4 8 -2.3201 -0.0074
-4 -4 9 -1.5990 0.0750
-4 -4 10 -0.6703 0.1187
-4 -4 11 -0.2699 0.1077
-4 -4 12 -0.5300 0.0180
-4 -4 13 -0.5178 -0.0823
-4 -4 14 0.0123 -0.0439
-4 -4 15 0.1604 0.0547
-4 -4 16 -0.2518 0.0467
-4 -4 17 -0.3285 0.0860
-4 -3 1 0.6339 0.3335
-4 -3 2 0.5330 0.1534
-4 -3 3 0.5220 0.0213
-4 -3 4 0.0205 0.1420
-4 -3 5 -1.2270 0.2881
-4 -3 6 -2.5533 0.2274
-4 -3 7 -3.3478 0.0629
-4 -3 8 -3.3281 -0.0358
-4 -3 9 -2.3133 -0.0523
-4 -3 10 -0.8848 -0.0098
-4 -3 11 -0.2286 0.0518
-4 -3 12 -0.5197 0.0449
-4 -3 13 -0.7640 -0.0098
-4 -3 14 -0.5419 -0.0046
-4 -3 15 -0.4222 0.0011
-4 -3 16 -0.5815 -0.0962
-4 -3 17 -0.4649 -0.1368
-4 -3 18 0.0572 0.0243
-4 -2 1 0.2434 0.0116
-4 -2 2 0.3481 -0.1370
-4 -2 3 0.2876 -0.1817
-4 -2 4 -0.0960 -0.1597
-4 -2 5 -0.7699 -0.1829
-4 -2 6 -1.7420 -0.1914
-4 -2 7 -2.9937 -0.1123
-4 -2 8 -3.6932 -0.0512
-4 -2 9 -2.8989 -0.0871
-4 -2 10 -1.2165 -0.1084
-4 -2 11 -0.1696 -0.0488
-4 -2 12 -0.1584 -0.0189
-4 -2 13 -0.4198 -0.0459
-4 -2 14 -0.4441 -0.0027
-4 -2 15 -0.3547 0.0738
-4 -2 16 -0.3439 -0.0185
-4 -2 17 -0.3319 -0.2390
-4 -2 18 -0.1203 -0.3195
-4 -1 1 -0.2611 -0.4358
-4 -1 2 0.1371 -0.2927
-4 -1 3 0.1112 -0.0672
-4 -1 4 -0.2647 0.0048
-4 -1 5 -0.4469 -0.0941
-4 -1 6 -0.8029 -0.1381
-4 -1 7 -2.0075 -0.0196
-4 -1 8 -3.1837 0.1039
-4 -1 9 -2.9233 0.0981
-4 -1 10 -1.5419 0.0443
-4 -1 11 -0.3705 0.0243
-4 -1 12 0.0969 -0.0373
-4 -1 13 0.1044 -0.1361
-4 -1 14 -0.0210 -0.0872
-4 -1 15 0.0310 0.1050
-4 -1 16 0.1711 0.1432
-4 -1 17 0.0377 -0.0512
-4 -1 18 -0.1703 -0.1694
-4 0 1 -0.3309 0.0213
-4 0 2 0.2655 0.1997
-4 0 3 0.3397 0.2888
-4 0 4 -0.2274 0.2526
-4 0 5 -0.5497 0.1827
-4 0 6 -0.8055 0.1350
-4 0 7 -1.8145 0.1233
-4 0 8 -2.9039 0.1287
-4 0 9 -2.8355 0.0956
-4 0 10 -1.8241 0.0395
-4 0 11 -0.7400 0.0345
-4 0 12 0.0682 0.0316
-4 0 13 0.3438 -0.0371
-4 0 14 0.1207 -0.0353
-4 0 15 0.0802 0.1150
-4 0 16 0.3553 0.1883
-4 0 17 0.2673 0.0861
-4 0 18 -0.1224 0.0653
-4 1 1 -0.9207 0.2950
-4 1 2 -0.3250 0.3022
-4 1 3 0.1956 0.0934
-4 1 4 -0.0574 -0.0824
-4 1 5 -0.4761 -0.0820
-4 1 6 -1.0337 -0.0647
-4 1 7 -2.1712 -0.0924
-4 1 8 -3.1373 -0.0727
-4 1 9 -3.0098 -0.0662
-4 1 10 -2.1627 -0.1265
-4 1 11 -1.1507 -0.0841
-4 1 12 -0.1032 0.0807
-4 1 13 0.4025 0.1296
-4 1 14 0.0914 0.0588
-4 1 15 -0.1252 0.0628
-4 1 16 0.2115 0.0552
-4 1 17 0.3080 -0.0819
-4 1 18 -0.0433 -0.1258
-4 2 1 -2.0967 -0.1393
-4 2 2 -1.8173 -0.1675
-4 2 3 -0.8169 -0.2859
-4 2 4 -0.2265 -0.2792
-4 2 5 -0.0585 -0.1460
-4 2 6 -0.4855 -0.1125
-4 2 7 -1.6949 -0.1467
-4 2 8 -2.7043 -0.0613
-4 2 9 -2.6833 0.0167
-4 2 10 -2.1445 -0.0581
-4 2 11 -1.4472 -0.0638
-4 2 12 -0.3912 0.0830
-4 2 13 0.3697 0.0845
-4 2 14 0.1237 -0.0827
-4 2 15 -0.3189 -0.1202
-4 2 16 -0.0704 -0.1071
-4 2 17 0.2925 -0.3018
-4 2 18 0.1722 -0.4782
-4 3 1 -2.1622 -0.0560
-4 3 2 -2.2669 -0.0719
-4 3 3 -1.4788 -0.0310
-4 3 4 -0.6450 0.1109
-4 3 5 0.0504 0.2559
-4 3 6 0.1467 0.2262
-4 3 7 -0.6963 0.0936
-4 3 8 -1.5258 0.0752
-4 3 9 -1.5540 0.1170
-4 3 10 -1.3982 0.0731
-4 3 11 -1.3254 0.0404
-4 3 12 -0.6749 0.0382
-4 3 13 0.1872 -0.1152
-4 3 14 0.1322 -0.2888
-4 3 15 -0.4989 -0.1784
-4 3 16 -0.4799 -0.0075
-4 3 17 0.1316 -0.1792
-4 4 1 -0.8995 0.3710
-4 4 2 -1.0185 0.3133
-4 4 3 -0.9603 0.2647
-4 4 4 -0.7825 0.1885
-4 4 5 -0.2620 0.1389
-4 4 6 0.0978 0.0939
-4 4 7 -0.3450 0.0019
-4 4 8 -0.8928 -0.0672
-4 4 9 -0.7811 -0.0487
-4 4 10 -0.6521 0.0177
-4 4 11 -0.9004 0.0660
-4 4 12 -0.6906 0.0055
-4 4 13 0.0555 -0.1571
-4 4 14 0.1939 -0.1449
-4 4 15 -0.4204 0.1972
-4 4 16 -0.6250 0.4778
-4 4 17 -0.0466 0.3239
-4 5 1 -0.2627 -0.0024
-4 5 2 -0.1247 0.0076
-4 5 3 -0.4577 -0.0088
-4 5 4 -0.8153 -0.1753
-4 5 5 -0.5662 -0.3232
-4 5 6 -0.0999 -0.2984
-4 5 7 -0.2962 -0.1929
-4 5 8 -0.8063 -0.1131
-4 5 9 -0.8244 -0.0352
-4 5 10 -0.6616 0.0579
-4 5 11 -0.7378 0.0912
-4 5 12 -0.5310 0.0017
-4 5 13 0.1202 -0.0694
-4 5 14 0.4242 0.1605
-4 5 15 0.1180 0.6509
-4 5 16 -0.0951 0.9269
-4 6 1 -0.9229 -0.3610
-4 6 2 -0.5923 -0.2484
-4 6 3 -0.7388 -0.0793
-4 6 4 -1.0545 -0.0516
-4 6 5 -0.7903 -0.1231
-4 6 6 -0.1219 -0.1101
-4 6 7 0.0679 0.0276
-4 6 8 -0.2830 0.1778
-4 6 9 -0.6161 0.2222
-4 6 10 -0.8123 0.1354
-4 6 11 -0.8537 -0.0265
-4 6 12 -0.4788 -0.1980
-4 6 13 0.1518 -0.2480
-4 6 14 0.5249 0.0153
-4 6 15 0.5773 0.5078
-4 7 1 -1.4683 0.1210
-4 7 2 -0.9368 0.1747
-4 7 3 -0.7838 0.2748
-4 7 4 -0.9901 0.2954
-4 7 5 -0.8235 0.2108
-4 7 6 -0.2656 0.1293
-4 7 7 0.1531 0.1440
-4 7 8 0.2882 0.2028
-4 7 9 0.1329 0.1307
-4 7 10 -0.3391 -0.1249
-4 7 11 -0.6709 -0.3946
-4 7 12 -0.4238 -0.5584
-4 7 13 0.0452 -0.6163
-4 8 1 -1.1567 0.2150
-4 8 2 -0.3969 0.2432
-4 8 3 -0.2565 0.1788
-4 8 4 -0.4879 -0.0165
-4 8 5 -0.3979 -0.1621
-4 8 6 -0.2256 -0.1366
-4 8 7 -0.1767 -0.0212
-4 8 8 0.1281 0.0460
-4 8 9 0.4914 -0.0488
-4 8 10 0.3055 -0.2898
-4 8 11 -0.1318 -0.4899
-4 8 12 -0.1703 -0.5637
-4 9 1 -0.6432 -0.3435
-4 9 2 0.0484 -0.1502
-4 9 3 -0.1645 -0.1305
-4 9 4 -0.3850 -0.3963
-4 9 5 0.0459 -0.5145
-4 9 6 0.2582 -0.2123
-4 9 7 -0.0932 0.2131
-4 9 8 -0.1138 0.4120
-4 9 9 0.3541 0.3372
-4 9 10 0.4965 0.1146
-4 10 1 -0.3673 -0.0660
-4 10 2 -0.0024 0.1077
-4 10 3 -0.5232 0.1753
-4 10 4 -0.7695 -0.1083
-4 10 5 -0.1107 -0.3016
-4 10 6 0.4233 0.0162
-4 10 7 0.2713 0.5279
-4 10 8 0.1522 0.7572
-4 11 1 -0.1930 0.7583
-4 11 2 0.0032 0.5188
-4 11 3 -0.4084 0.3923
-4 11 4 -0.7278 0.0893
-4 11 5 -0.4589 -0.2170
-3 -9 1 -0.3257 -0.6360
-3 -9 2 -0.2225 0.2982
-3 -9 3 0.0986 0.4809
-3 -9 4 -0.1032 0.2727
-3 -9 5 -0.7928 0.3147
-3 -9 6 -1.0460 0.1709
-3 -9 7 -0.5990 -0.1784
-3 -9 8 -0.0689 0.0169
-3 -9 9 0.1802 0.4517
-3 -9 10 0.2538 0.1293
-3 -9 11 0.2054 -0.6045
-3 -8 1 -0.1147 -0.0457
-3 -8 2 -0.2194 0.3130
-3 -8 3 -0.1553 0.1698
-3 -8 4 -0.6009 -0.1377
-3 -8 5 -1.3288 -0.0286
-3 -8 6 -1.3395 0.0889
-3 -8 7 -0.7262 -0.0927
-3 -8 8 -0.3135 -0.0952
-3 -8 9 -0.0422 0.1668
-3 -8 10 0.4547 0.1702
-3 -8 11 0.7379 -0.0966
-3 -8 12 0.4750 -0.1988
-3 -8 13 0.2075 -0.1213
-3 -8 14 0.2827 -0.0881
-3 -7 1 -0.1907 -0.0066
-3 -7 2 -0.2354 0.0283
-3 -7 3 -0.0706 -0.2408
-3 -7 4 -0.6447 -0.4844
-3 -7 5 -1.6514 -0.3608
-3 -7 6 -1.7902 -0.1405
-3 -7 7 -1.2174 -0.0974
-3 -7 8 -0.9652 -0.1024
-3 -7 9 -0.7912 -0.0702
-3 -7 10 -0.1125 -0.0562
-3 -7 11 0.4310 0.0017
-3 -7 12 0.3352 0.0997
-3 -7 13 0.2780 0.0547
-3 -7 14 0.5223 -0.1619
-3 -7 15 0.3227 -0.3650
-3 -6 1 -0.4442 -0.0246
-3 -6 2 -0.3096 0.1141
-3 -6 3 0.1505 0.1135
-3 -6 4 -0.3144 0.1361
-3 -6 5 -1.5297 0.1310
-3 -6 6 -2.0220 0.0225
-3 -6 7 -1.7216 -0.0313
-3 -6 8 -1.5809 0.0443
-3 -6 9 -1.4116 0.0536
-3 -6 10 -0.7315 -0.0651
-3 -6 11 -0.1891 -0.1081
-3 -6 12 -0.1580 -0.0126
-3 -6 13 0.0859 0.0485
-3 -6 14 0.5776 -0.0306
-3 -6 15 0.3184 -0.1843
-3 -6 16 -0.6671 -0.2628
-3 -6 17 -1.1434 -0.1602
-3 -5 1 -0.2088 0.2254
-3 -5 2 -0.2198 0.1324
-3 -5 3 0.0931 0.1735
-3 -5 4 -0.1992 0.4058
-3 -5 5 -1.1013 0.4534
-3 -5 6 -1.6588 0.2073
-3 -5 7 -1.7411 0.0047
-3 -5 8 -1.7253 0.0264
-3 -5 9 -1.3297 0.0883
-3 -5 10 -0.5028 0.0539
-3 -5 11 -0.0292 -0.0088
-3 -5 12 -0.0961 -0.0271
-3 -5 13 0.0290 0.0055
-3 -5 14 0.3661 0.0473
-3 -5 15 0.1323 0.0373
-3 -5 16 -0.5648 0.0406
-3 -5 17 -0.7369 0.1793
-3 -5 18 -0.2147 0.3311
-3 -4 1 0.2416 0.1898
-3 -4 2 0.1670 -0.1987
-3 -4 3 0.0685 -0.3504
-3 -4 4 -0.1348 -0.2469
-3 -4 5 -0.4118 -0.1435
-3 -4 6 -0.8420 -0.0983
-3 -4 7 -1.5229 -0.0514
-3 -4 8 -1.8738 -0.0468
-3 -4 9 -1.2189 -0.0757
-3 -4 10 -0.0531 -0.0217
-3 -4 11 0.5835 0.0839
-3 -4 12 0.5934 0.0921
-3 -4 13 0.5059 0.0229
-3 -4 14 0.3654 -0.0138
-3 -4 15 -0.0117 -0.0334
-3 -4 16 -0.2912 -0.0250
-3 -4 17 0.0082 0.1179
-3 -4 18 0.6818 0.3234
-3 -3 1 -0.3616 -0.0925
-3 -3 2 0.2251 -0.1411
-3 -3 3 0.3021 -0.1140
-3 -3 4 0.2804 -0.2220
-3 -3 5 0.4841 -0.3832
-3 -3 6 0.0792 -0.2900
-3 -3 7 -1.2823 -0.0064
-3 -3 8 -2.2045 0.0959
-3 -3 9 -1.6428 -0.0237
-3 -3 10 -0.4383 -0.0701
-3 -3 11 0.4026 0.0206
-3 -3 12 0.9079 0.0488
-3 -3 13 1.1042 -0.0143
-3 -3 14 0.7575 -0.0420
-3 -3 15 0.2039 -0.0490
-3 -3 16 0.0584 -0.0793
-3 -3 17 0.4257 -0.0267
-3 -3 18 0.9735 0.1494
-3 -3 19 1.2172 0.2990
-3 -2 1 -2.1034 -0.0331
-3 -2 2 -0.7312 0.2566
-3 -2 3 0.1202 0.5261
-3 -2 4 0.4964 0.4549
-3 -2 5 0.9795 0.1635
-3 -2 6 0.6894 0.0189
-3 -2 7 -0.7825 0.0965
-3 -2 8 -1.8836 0.1606
-3 -2 9 -1.6806 0.0905
-3 -2 10 -1.0554 0.0008
-3 -2 11 -0.4573 -0.0330
-3 -2 12 0.4541 -0.0611
-3 -2 13 1.1496 -0.0682
-3 -2 14 0.9459 0.0047
-3 -2 15 0.4072 0.0729
-3 -2 16 0.2541 0.0324
-3 -2 17 0.3606 -0.0269
-3 -2 18 0.5307 -0.0027
-3 -2 19 0.6864 0.0172
-3 -1 1 -3.5366 0.1374
-3 -1 2 -2.3029 0.1208
-3 -1 3 -0.8695 0.0833
-3 -1 4 0.0604 0.1075
-3 -1 5 0.8723 0.1769
-3 -1 6 0.8908 0.1444
-3 -1 7 -0.1272 0.0178
-3 -1 8 -0.8398 -0.0553
-3 -1 9 -0.7621 -0.0541
-3 -1 10 -0.7551 -0.0473
-3 -1 11 -0.6787 -0.0315
-3 -1 12 0.1146 0.0008
-3 -1 13 0.8499 0.0222
-3 -1 14 0.6934 0.0414
-3 -1 15 0.2740 0.0453
-3 -1 16 0.1569 -0.0041
-3 -1 17 0.0380 -0.0438
-3 -1 18 -0.0480 -0.0288
-3 -1 19 0.1249 -0.0855
-3 0 1 -3.8845 0.0115
-3 0 2 -3.4685 -0.2212
-3 0 3 -1.9952 -0.5595
-3 0 4 -0.4374 -0.5557
-3 0 5 0.9780 -0.2244
-3 0 6 1.2900 -0.0304
-3 0 7 0.3954 -0.0874
-3 0 8 -0.2093 -0.1303
-3 0 9 -0.0624 -0.1011
-3 0 10 -0.0559 -0.0843
-3 0 11 -0.0794 -0.0049
-3 0 12 0.4440 0.1274
-3 0 13 0.8522 0.1275
-3 0 14 0.5932 -0.0064
-3 0 15 0.3051 -0.1029
-3 0 16 0.2358 -0.1065
-3 0 17 -0.0535 -0.0157
-3 0 18 -0.2974 0.1580
-3 0 19 -0.0657 0.2401
-3 1 1 -3.5796 -0.0523
-3 1 2 -3.6529 -0.0027
-3 1 3 -2.6297 -0.0625
-3 1 4 -0.8418 -0.0252
-3 1 5 1.2723 0.0840
-3 1 6 2.0182 0.0520
-3 1 7 0.9069 -0.0228
-3 1 8 -0.2281 0.0521
-3 1 9 -0.2953 0.1196
-3 1 10 -0.0183 0.0468
-3 1 11 0.2688 0.0218
-3 1 12 0.7862 0.0770
-3 1 13 1.0688 -0.0002
-3 1 14 0.8504 -0.1451
-3 1 15 0.6977 -0.1239
-3 1 16 0.6832 0.0009
-3 1 17 0.3237 0.1054
-3 1 18 -0.1124 0.2728
-3 1 19 -0.0779 0.4542
-3 2 1 -2.8439 0.0122
-3 2 2 -2.8578 0.1676
-3 2 3 -2.7959 0.3561
-3 2 4 -1.8231 0.4573
-3 2 5 0.4427 0.3703
-3 2 6 1.9739 0.1174
-3 2 7 1.3354 -0.0337
-3 2 8 0.0055 0.0582
-3 2 9 -0.4201 0.1481
-3 2 10 -0.2431 0.0702
-3 2 11 0.0630 -0.0163
-3 2 12 0.6134 -0.0596
-3 2 13 1.0638 -0.1483
-3 2 14 1.0025 -0.1390
-3 2 15 0.7851 0.0691
-3 2 16 0.7389 0.1855
-3 2 17 0.5850 0.0467
-3 2 18 0.2094 -0.0453
-3 3 1 -1.7324 -0.1787
-3 3 2 -1.5609 -0.1920
-3 3 3 -2.4908 -0.1870
-3 3 4 -2.9179 -0.1625
-3 3 5 -1.2914 -0.1228
-3 3 6 0.8448 -0.1221
-3 3 7 1.3092 -0.1256
-3 3 8 0.5915 -0.0812
-3 3 9 0.1377 -0.0567
-3 3 10 -0.0074 -0.0750
-3 3 11 -0.0824 -0.0539
-3 3 12 0.2950 -0.0084
-3 3 13 0.9251 0.0277
-3 3 14 0.9782 0.1497
-3 3 15 0.4501 0.2815
-3 3 16 0.1287 0.1127
-3 3 17 0.2179 -0.3282
-3 3 18 0.2063 -0.5790
-3 4 1 -0.9123 -0.2286
-3 4 2 -0.5818 -0.2012
-3 4 3 -1.6503 -0.3129
-3 4 4 -2.7050 -0.3688
-3 4 5 -1.8682 -0.2359
-3 4 6 0.0904 -0.0430
-3 4 7 1.0645 0.0404
-3 4 8 0.8541 -0.0069
-3 4 9 0.5189 -0.1037
-3 4 10 0.2414 -0.1248
-3 4 11 -0.0762 -0.0096
-3 4 12 0.0983 0.1404
-3 4 13 0.7725 0.2194
-3 4 14 0.9769 0.2238
-3 4 15 0.3534 0.0651
-3 4 16 -0.2372 -0.3539
-3 4 17 -0.2179 -0.7889
-3 5 1 -0.7599 0.1799
-3 5 2 -0.2706 0.2475
-3 5 3 -0.7031 0.2216
-3 5 4 -1.3881 0.2319
-3 5 5 -0.9870 0.2927
-3 5 6 0.2849 0.2970
-3 5 7 0.9891 0.2055
-3 5 8 0.7781 0.0639
-3 5 9 0.3851 -0.0689
-3 5 10 0.0709 -0.0877
-3 5 11 -0.2372 0.0449
-3 5 12 -0.1881 0.1397
-3 5 13 0.3425 0.0042
-3 5 14 0.7091 -0.3010
-3 5 15 0.4557 -0.6321
-3 5 16 0.0112 -0.9005
-3 6 1 -0.6206 0.2195
-3 6 2 -0.1150 0.0718
-3 6 3 -0.1927 0.0328
-3 6 4 -0.6246 0.1332
-3 6 5 -0.5935 0.2050
-3 6 6 0.0619 0.1228
-3 6 7 0.6484 -0.0224
-3 6 8 0.7099 -0.1096
-3 6 9 0.3984 -0.1281
-3 6 10 -0.0297 -0.0331
-3 6 11 -0.3912 0.1649
-3 6 12 -0.4858 0.1761
-3 6 13 -0.2614 -0.2276
-3 6 14 0.0525 -0.7819
-3 6 15 0.1899 -1.0517
-3 7 1 -0.0343 -0.2553
-3 7 2 0.3160 -0.4408
-3 7 3 -0.0413 -0.4595
-3 7 4 -0.7320 -0.3405
-3 7 5 -1.1762 -0.2107
-3 7 6 -0.9986 -0.1738
-3 7 7 -0.2393 -0.1917
-3 7 8 0.5173 -0.1730
-3 7 9 0.6162 -0.0806
-3 7 10 0.1370 0.1396
-3 7 11 -0.3037 0.4277
-3 7 12 -0.4522 0.4393
-3 7 13 -0.4604 -0.0237
-3 7 14 -0.3724 -0.5786
-3 8 1 0.4768 -0.2088
-3 8 2 0.7071 -0.1640
-3 8 3 0.1830 0.0109
-3 8 4 -0.4947 0.1076
-3 8 5 -1.1427 0.1022
-3 8 6 -1.4621 0.0398
-3 8 7 -0.9077 -0.0447
-3 8 8 0.1081 -0.0832
-3 8 9 0.4568 -0.0004
-3 8 10 0.0588 0.2485
-3 8 11 -0.2167 0.5478
-3 8 12 -0.1560 0.5848
-3 9 1 0.4691 0.1297
-3 9 2 0.6747 0.2060
-3 9 3 0.5114 0.5074
-3 9 4 0.4017 0.6114
-3 9 5 -0.0787 0.4205
-3 9 6 -0.8094 0.1112
-3 9 7 -0.8112 -0.1485
-3 9 8 -0.1677 -0.2573
-3 9 9 0.0121 -0.1786
-3 9 10 -0.3044 0.0643
-3 10 1 0.2367 -0.2586
-3 10 2 0.3721 -0.3188
-3 10 3 0.5694 0.0117
-3 10 4 0.9046 0.2507
-3 10 5 0.6368 0.1346
-3 10 6 -0.1523 -0.1816
-3 10 7 -0.4070 -0.4243
-3 10 8 -0.1063 -0.4589
-3 11 1 0.1074 -0.5953
-3 11 2 0.1213 -0.6046
-3 11 3 0.2192 -0.2508
-3 11 4 0.4900 0.1080
-3 11 5 0.4108 0.1778
-2 -10 1 0.4688 0.5391
-2 -10 2 0.2605 0.8388
-2 -10 3 0.0256 0.3158
-2 -10 4 -0.2190 0.0012
-2 -10 5 -0.3171 0.3218
-2 -10 6 -0.1614 0.3166
-2 -10 7 0.0665 -0.1567
-2 -10 8 0.1581 -0.1736
-2 -10 9 0.0615 0.1843
-2 -10 10 -0.2045 0.0339
-2 -9 1 -0.0321 -0.1541
-2 -9 2 -0.2757 -0.1349
-2 -9 3 -0.2956 -0.5417
-2 -9 4 -0.4500 -0.6174
-2 -9 5 -0.6014 -0.1040
-2 -9 6 -0.3513 0.1052
-2 -9 7 0.0511 -0.2354
-2 -9 8 0.1924 -0.3149
-2 -9 9 0.2102 0.0272
-2 -9 10 0.2475 0.0914
-2 -9 11 0.0486 -0.2767
-2 -9 12 -0.3636 -0.5763
-2 -9 13 -0.5005 -0.6176
-2 -8 1 -0.5345 -0.1569
-2 -8 2 -0.6057 -0.1787
-2 -8 3 -0.0833 -0.3956
-2 -8 4 -0.1002 -0.3670
-2 -8 5 -0.6222 -0.0263
-2 -8 6 -0.6561 0.1373
-2 -8 7 -0.2158 0.0132
-2 -8 8 0.0300 -0.0308
-2 -8 9 0.1551 0.0466
-2 -8 10 0.4126 -0.0001
-2 -8 11 0.4084 -0.1261
-2 -8 12 -0.0133 -0.1785
-2 -8 13 -0.2512 -0.2806
-2 -8 14 -0.0559 -0.5366
-2 -8 15 0.0631 -0.6836
-2 -7 1 -0.6882 0.4221
-2 -7 2 -0.4283 0.4497
-2 -7 3 0.5980 0.4537
-2 -7 4 0.7511 0.4874
-2 -7 5 -0.1019 0.3808
-2 -7 6 -0.6505 0.1410
-2 -7 7 -0.5330 0.0683
-2 -7 8 -0.3150 0.2157
-2 -7 9 -0.0543 0.2321
-2 -7 10 0.3453 0.0087
-2 -7 11 0.4452 -0.0898
-2 -7 12 0.1171 0.1224
-2 -7 13 -0.0393 0.2970
-2 -7 14 0.1942 0.1109
-2 -7 15 0.2675 -0.1853
-2 -7 16 -0.0272 -0.1330
-2 -6 1 -0.9865 0.1093
-2 -6 2 -0.4485 -0.0969
-2 -6 3 0.6727 -0.0113
-2 -6 4 1.0930 0.1871
-2 -6 5 0.5282 0.1141
-2 -6 6 -0.2274 -0.1576
-2 -6 7 -0.6340 -0.2238
-2 -6 8 -0.5436 -0.0164
-2 -6 9 0.0850 0.1268
-2 -6 10 0.8262 0.0338
-2 -6 11 0.9889 -0.0698
-2 -6 12 0.5236 0.0406
-2 -6 13 0.0690 0.2357
-2 -6 14 0.0325 0.2413
-2 -6 15 0.1633 0.0966
-2 -6 16 0.1007 0.0855
-2 -6 17 -0.1010 0.1769
-2 -5 1 -1.4493 -0.5151
-2 -5 2 -0.7466 -0.6936
-2 -5 3 0.0562 -0.6365
-2 -5 4 0.6778 -0.4833
-2 -5 5 0.8312 -0.3519
-2 -5 6 0.2489 -0.2247
-2 -5 7 -0.5967 -0.1313
-2 -5 8 -0.5954 -0.1132
-2 -5 9 0.4637 -0.0980
-2 -5 10 1.5352 -0.0391
-2 -5 11 1.7974 -0.0217
-2 -5 12 1.3237 -0.0749
-2 -5 13 0.5035 -0.1048
-2 -5 14 -0.1452 -0.0804
-2 -5 15 -0.1689 -0.0282
-2 -5 16 0.1783 0.0654
-2 -5 17 0.2428 0.1074
-2 -5 18 -0.0191 -0.0409
-2 -4 1 -1.5538 -0.1483
-2 -4 2 -0.5227 0.1625
-2 -4 3 -0.0478 0.3007
-2 -4 4 0.4450 0.1044
-2 -4 5 0.9556 -0.0541
-2 -4 6 0.5342 0.0979
-2 -4 7 -0.4518 0.2631
-2 -4 8 -0.4681 0.1432
-2 -4 9 0.4557 -0.0590
-2 -4 10 1.0249 -0.0693
-2 -4 11 1.1218 0.0071
-2 -4 12 1.2459 -0.0206
-2 -4 13 0.9588 -0.0940
-2 -4 14 0.1290 -0.0936
-2 -4 15 -0.2327 -0.0304
-2 -4 16 0.1692 0.0309
-2 -4 17 0.3767 0.0070
-2 -4 18 0.0464 -0.1392
-2 -4 19 -0.2028 -0.2495
-2 -3 1 -1.8428 0.2783
-2 -3 2 -0.2962 0.6004
-2 -3 3 0.4108 0.7563
-2 -3 4 0.8153 0.5536
-2 -3 5 1.1571 0.2665
-2 -3 6 0.6887 0.1512
-2 -3 7 -0.0420 0.1310
-2 -3 8 0.1083 0.0726
-2 -3 9 0.2791 0.0077
-2 -3 10 -0.6100 -0.0059
-2 -3 11 -1.1962 0.0065
-2 -3 12 -0.2459 0.0221
-2 -3 13 0.7790 0.0514
-2 -3 14 0.5338 0.0692
-2 -3 15 0.0209 0.0382
-2 -3 16 0.1414 -0.0273
-2 -3 17 0.2149 -0.1133
-2 -3 18 -0.1201 -0.2202
-2 -3 19 -0.2839 -0.2715
-2 -2 1 -3.1044 -0.1755
-2 -2 2 -1.7876 -0.3926
-2 -2 3 -0.3204 -0.4854
-2 -2 4 0.9675 -0.3142
-2 -2 5 1.5304 -0.0679
-2 -2 6 0.9473 -0.0693
-2 -2 7 0.4672 -0.2358
-2 -2 8 0.9187 -0.2205
-2 -2 9 0.6077 -0.0181
-2 -2 10 -1.3630 0.0875
-2 -2 11 -2.5893 0.0396
-2 -2 12 -1.3485 0.0121
-2 -2 13 0.4519 0.0463
-2 -2 14 0.7834 0.0352
-2 -2 15 0.3043 -0.0407
-2 -2 16 0.0977 -0.0856
-2 -2 17 -0.0331 -0.0540
-2 -2 18 -0.2407 -0.0048
-2 -2 19 -0.1976 0.0297
-2 -1 1 -3.8767 -0.3323
-2 -1 2 -4.4492 -0.5391
-2 -1 3 -2.9045 -0.7472
-2 -1 4 0.0798 -0.5383
-2 -1 5 1.9871 -0.0990
-2 -1 6 1.5514 0.0374
-2 -1 7 0.7437 -0.1052
-2 -1 8 1.0890 -0.0955
-2 -1 9 1.0100 0.0832
-2 -1 10 -0.5276 0.1273
-2 -1 11 -1.5496 0.0294
-2 -1 12 -0.6351 -0.0150
-2 -1 13 0.7533 0.0009
-2 -1 14 1.0776 -0.0124
-2 -1 15 0.6676 -0.0313
-2 -1 16 0.2085 0.0130
-2 -1 17 -0.1648 0.1215
-2 -1 18 -0.2626 0.2144
-2 -1 19 -0.0225 0.2120
-2 0 1 -1.8637 0.2977
-2 0 2 -4.9921 0.5488
-2 0 3 -5.2097 0.5520
-2 0 4 -1.6624 0.4270
-2 0 5 1.8254 0.3059
-2 0 6 2.1241 0.1692
-2 0 7 0.8393 0.0852
-2 0 8 0.4776 0.1215
-2 0 9 0.6329 0.1246
-2 0 10 0.3026 -0.0108
-2 0 11 0.1135 -0.1267
-2 0 12 0.5662 -0.1060
-2 0 13 1.0437 -0.0293
-2 0 14 1.1470 0.0464
-2 0 15 0.9898 0.1146
-2 0 16 0.5531 0.1134
-2 0 17 -0.0043 0.0356
-2 0 18 -0.2093 -0.0474
-2 0 19 -0.0205 -0.1414
-2 1 1 2.2162 0.3913
-2 1 2 -1.8893 0.5530
-2 1 3 -4.8691 0.5962
-2 1 4 -3.2522 0.3540
-2 1 5 0.3235 0.0092
-2 1 6 1.7205 -0.1589
-2 1 7 0.9010 -0.0805
-2 1 8 0.0508 0.0331
-2 1 9 -0.1025 -0.0272
-2 1 10 0.1068 -0.1655
-2 1 11 0.4662 -0.1721
-2 1 12 0.6541 -0.0738
-2 1 13 0.5518 0.0017
-2 1 14 0.5381 0.0650
-2 1 15 0.6761 0.0991
-2 1 16 0.5848 -0.0174
-2 1 17 0.2621 -0.2398
-2 1 18 0.0257 -0.3633
-2 1 19 -0.0490 -0.3562
-2 2 1 5.3535 -0.1634
-2 2 2 2.3833 -0.3337
-2 2 3 -2.2066 -0.4925
-2 2 4 -3.6193 -0.5615
-2 2 5 -1.7404 -0.4887
-2 2 6 0.2813 -0.2738
-2 2 7 0.7980 -0.0309
-2 2 8 0.3359 0.0552
-2 2 9 -0.1996 -0.0264
-2 2 10 -0.2689 -0.0565
-2 2 11 0.0507 0.0665
-2 2 12 0.2116 0.1650
-2 2 13 0.0655 0.1102
-2 2 14 -0.0636 -0.0033
-2 2 15 -0.0758 -0.0971
-2 2 16 -0.0082 -0.1826
-2 2 17 0.1765 -0.1935
-2 2 18 0.2580 -0.0609
-2 3 1 6.3337 -0.0975
-2 3 2 4.9369 -0.1631
-2 3 3 0.6820 -0.2749
-2 3 4 -2.5054 -0.2003
-2 3 5 -2.6583 0.0027
-2 3 6 -0.9997 0.1673
-2 3 7 0.4248 0.2249
-2 3 8 0.7142 0.1707
-2 3 9 0.2807 0.0756
-2 3 10 -0.0533 0.0747
-2 3 11 -0.0185 0.1601
-2 3 12 0.1595 0.1602
-2 3 13 0.3082 0.0176
-2 3 14 0.2342 -0.1354
-2 3 15 -0.1631 -0.1637
-2 3 16 -0.4084 -0.0016
-2 3 17 -0.1117 0.3194
-2 3 18 0.2100 0.5969
-2 4 1 6.2052 0.3609
-2 4 2 5.6143 0.3878
-2 4 3 2.5481 0.4744
-2 4 4 -0.7283 0.5672
-2 4 5 -2.0690 0.4655
-2 4 6 -1.3812 0.1847
-2 4 7 -0.1254 -0.0172
-2 4 8 0.5394 -0.0403
-2 4 9 0.5808 -0.0111
-2 4 10 0.3796 -0.0191
-2 4 11 0.1190 -0.0776
-2 4 12 0.0791 -0.1862
-2 4 13 0.4812 -0.2587
-2 4 14 0.8149 -0.1667
-2 4 15 0.4944 0.1255
-2 4 16 -0.0179 0.5492
-2 4 17 -0.0539 0.9111
-2 5 1 5.7739 0.1313
-2 5 2 5.5553 0.0145
-2 5 3 3.4107 0.0624
-2 5 4 0.6348 0.0866
-2 5 5 -1.0995 -0.1033
-2 5 6 -1.2834 -0.3580
-2 5 7 -0.6552 -0.3647
-2 5 8 0.0112 -0.1393
-2 5 9 0.4649 0.0263
-2 5 10 0.5164 -0.0032
-2 5 11 0.0673 -0.1447
-2 5 12 -0.3122 -0.2547
-2 5 13 0.0340 -0.1702
-2 5 14 0.6822 0.1749
-2 5 15 0.7595 0.6407
-2 5 16 0.3802 1.0036
-2 6 1 5.1413 -0.2609
-2 6 2 5.1956 -0.2465
-2 6 3 3.5241 -0.2882
-2 6 4 1.2312 -0.3708
-2 6 5 -0.4713 -0.4139
-2 6 6 -1.0901 -0.3078
-2 6 7 -0.8538 -0.0324
-2 6 8 -0.2608 0.2225
-2 6 9 0.2567 0.2590
-2 6 10 0.3731 0.1192
-2 6 11 0.0109 -0.0246
-2 6 12 -0.3855 -0.0184
-2 6 13 -0.2691 0.2456
-2 6 14 0.1672 0.6661
-2 6 15 0.3019 0.9353
-2 7 1 4.4526 0.0186
-2 7 2 4.5241 0.2365
-2 7 3 3.1959 0.2051
-2 7 4 1.5108 0.0717
-2 7 5 0.0761 0.0773
-2 7 6 -0.6958 0.2283
-2 7 7 -0.5790 0.3596
-2 7 8 -0.0490 0.3197
-2 7 9 0.2210 0.1120
-2 7 10 0.1913 -0.1187
-2 7 11 0.1244 -0.2373
-2 7 12 0.0536 -0.1239
-2 7 13 -0.0133 0.2850
-2 7 14 -0.0314 0.7248
-2 8 1 3.6106 0.2529
-2 8 2 3.6030 0.2785
-2 8 3 2.8343 0.1432
-2 8 4 1.9383 0.0438
-2 8 5 0.7798 0.1000
-2 8 6 -0.1550 0.1680
-2 8 7 -0.1205 0.1171
-2 8 8 0.3489 -0.0446
-2 8 9 0.3310 -0.2461
-2 8 10 0.1110 -0.4153
-2 8 11 0.2589 -0.5077
-2 8 12 0.4186 -0.4171
-2 9 1 2.5040 -0.0384
-2 9 2 2.5518 -0.1737
-2 9 3 2.4641 -0.4145
-2 9 4 2.2664 -0.4225
-2 9 5 1.3193 -0.2094
-2 9 6 0.2727 -0.0531
-2 9 7 0.2114 -0.0186
-2 9 8 0.5868 -0.0342
-2 9 9 0.4004 -0.1078
-2 9 10 0.0765 -0.2221
-2 10 1 1.6034 0.0156
-2 10 2 1.6615 0.0102
-2 10 3 1.8066 -0.1546
-2 10 4 1.8778 -0.0626
-2 10 5 1.2389 0.2313
-2 10 6 0.4411 0.3789
-2 10 7 0.3678 0.3790
-2 10 8 0.5597 0.3451
-2 11 1 1.1332 0.4657
-2 11 2 1.0902 0.4393
-2 11 3 0.9169 0.2834
-2 11 4 0.8278 0.3721
-1 -11 1 0.6768 0.1044
-1 -11 2 0.2317 0.3116
-1 -11 3 -0.1427 -0.0261
-1 -11 4 -0.1443 -0.1885
-1 -11 5 -0.1128 -0.0094
-1 -11 6 -0.2765 -0.2020
-1 -11 7 -0.3565 -0.6812
-1 -10 1 0.1607 -0.4949
-1 -10 2 -0.1611 -0.3520
-1 -10 3 -0.2215 -0.4509
-1 -10 4 -0.0368 -0.3385
-1 -10 5 -0.0255 0.0299
-1 -10 6 -0.1621 -0.0137
-1 -10 7 -0.0932 -0.4773
-1 -10 8 0.1838 -0.5762
-1 -10 9 0.4196 -0.1012
-1 -10 10 0.4414 0.2668
-1 -10 11 0.0653 0.0182
-1 -10 12 -0.5697 -0.5368
-1 -9 1 -0.9433 0.0925
-1 -9 2 -0.7017 0.1194
-1 -9 3 0.0783 -0.0045
-1 -9 4 0.5302 0.0022
-1 -9 5 0.2367 0.2063
-1 -9 6 -0.1129 0.2673
-1 -9 7 0.0870 0.0649
-1 -9 8 0.5326 -0.1174
-1 -9 9 0.7990 -0.0487
-1 -9 10 0.8676 0.1733
-1 -9 11 0.6352 0.2439
-1 -9 12 0.0987 -0.0103
-1 -9 13 -0.1068 -0.4205
-1 -9 14 0.3666 -0.6950
-1 -8 1 -1.3545 0.3155
-1 -8 2 -0.7528 0.3782
-1 -8 3 0.5090 0.3714
-1 -8 4 1.0712 0.2656
-1 -8 5 0.5445 0.0992
-1 -8 6 -0.0805 0.0106
-1 -8 7 -0.0612 0.0621
-1 -8 8 0.2672 0.0893
-1 -8 9 0.4546 -0.0065
-1 -8 10 0.5850 -0.0313
-1 -8 11 0.7106 0.1289
-1 -8 12 0.7126 0.2323
-1 -8 13 0.8233 0.0281
-1 -8 14 1.2286 -0.3747
-1 -8 15 1.4249 -0.5923
-1 -8 16 1.0136 -0.3854
-1 -7 1 -0.9211 -0.2462
-1 -7 2 -0.3079 -0.3321
-1 -7 3 0.6666 -0.1894
-1 -7 4 1.0763 -0.0695
-1 -7 5 0.6794 -0.1413
-1 -7 6 0.0456 -0.2413
-1 -7 7 -0.2347 -0.1783
-1 -7 8 -0.1135 -0.0604
-1 -7 9 0.1092 -0.0677
-1 -7 10 0.3060 -0.1379
-1 -7 11 0.5370 -0.1198
-1 -7 12 0.7576 -0.0269
-1 -7 13 0.9604 0.0065
-1 -7 14 1.2558 -0.0731
-1 -7 15 1.4691 -0.1098
-1 -7 16 1.2471 0.0572
-1 -7 17 0.7191 0.2408
-1 -6 1 -0.8364 -0.0315
-1 -6 2 -0.3416 -0.2083
-1 -6 3 0.3179 -0.2686
-1 -6 4 0.8158 -0.2322
-1 -6 5 0.8653 -0.0893
-1 -6 6 0.3188 0.0698
-1 -6 7 -0.2269 0.0937
-1 -6 8 -0.0317 -0.0003
-1 -6 9 0.5906 -0.0429
-1 -6 10 0.8822 0.0021
-1 -6 11 0.8279 0.0008
-1 -6 12 0.6887 -0.0663
-1 -6 13 0.4399 -0.0665
-1 -6 14 0.3117 0.0362
-1 -6 15 0.6059 0.1739
-1 -6 16 0.8859 0.2881
-1 -6 17 0.5938 0.2510
-1 -6 18 0.0648 -0.0046
-1 -5 1 -1.1885 0.3784
-1 -5 2 -1.2163 0.5946
-1 -5 3 -0.5976 0.4731
-1 -5 4 0.4643 0.1531
-1 -5 5 1.1421 0.0814
-1 -5 6 0.6361 0.2578
-1 -5 7 -0.1515 0.2882
-1 -5 8 0.1725 0.0914
-1 -5 9 1.0819 -0.0170
-1 -5 10 1.2839 0.0938
-1 -5 11 0.9513 0.1930
-1 -5 12 0.6856 0.1251
-1 -5 13 0.2189 0.0156
-1 -5 14 -0.3202 -0.0037
-1 -5 15 -0.1435 0.0376
-1 -5 16 0.4462 0.0409
-1 -5 17 0.3547 -0.0840
-1 -5 18 -0.2882 -0.3105
-1 -5 19 -0.4942 -0.4339
-1 -4 1 -0.6606 -0.2102
-1 -4 2 -1.7863 0.0869
-1 -4 3 -1.5491 0.2017
-1 -4 4 -0.1434 0.1008
-1 -4 5 0.9604 0.0126
-1 -4 6 0.5989 -0.0227
-1 -4 7 -0.1428 -0.0897
-1 -4 8 0.1486 -0.1433
-1 -4 9 0.6974 -0.1030
-1 -4 10 0.4036 -0.0067
-1 -4 11 0.0531 0.0579
-1 -4 12 0.3642 0.0480
-1 -4 13 0.4635 -0.0237
-1 -4 14 0.0207 -0.0960
-1 -4 15 0.0294 -0.1096
-1 -4 16 0.5295 -0.0952
-1 -4 17 0.4154 -0.1379
-1 -4 18 -0.2865 -0.2165
-1 -4 19 -0.5211 -0.2024
-1 -3 1 1.3016 -0.2054
-1 -3 2 -1.3900 -0.5452
-1 -3 3 -1.9119 -0.6749
-1 -3 4 -0.4846 -0.4267
-1 -3 5 0.5958 -0.0928
-1 -3 6 0.2209 -0.0715
-1 -3 7 -0.2453 -0.2258
-1 -3 8 0.0832 -0.1806
-1 -3 9 0.1005 -0.0071
-1 -3 10 -0.6614 0.0038
-1 -3 11 -0.8646 -0.1005
-1 -3 12 -0.0110 -0.1231
-1 -3 13 0.6140 -0.0862
-1 -3 14 0.4536 -0.0571
-1 -3 15 0.4184 0.0245
-1 -3 16 0.7463 0.1503
-1 -3 17 0.6374 0.2010
-1 -3 18 0.0630 0.1651
-1 -3 19 -0.1898 0.1465
-1 -2 1 4.8899 0.7460
-1 -2 2 -0.6267 0.4007
-1 -2 3 -2.2170 -0.1112
-1 -2 4 -0.2275 -0.2324
-1 -2 5 1.0381 0.0183
-1 -2 6 0.2571 0.1484
-1 -2 7 -0.3322 0.0834
-1 -2 8 0.0283 0.1217
-1 -2 9 -0.0524 0.2128
-1 -2 10 -0.6963 0.1097
-1 -2 11 -0.6694 -0.0646
-1 -2 12 0.0481 -0.0685
-1 -2 13 0.4124 0.0238
-1 -2 14 0.2706 0.0675
-1 -2 15 0.2746 0.1113
-1 -2 16 0.5283 0.1813
-1 -2 17 0.5859 0.1841
-1 -2 18 0.3456 0.1028
-1 -2 19 0.1192 0.0082
-1 -1 1 11.2934 0.1607
-1 -1 2 1.2551 0.7324
-1 -1 3 -2.8838 0.7482
-1 -1 4 -0.5124 0.3505
-1 -1 5 1.4981 0.0789
-1 -1 6 0.6131 0.0452
-1 -1 7 -0.2694 0.0725
-1 -1 8 -0.0758 0.0960
-1 -1 9 -0.1596 0.0828
-1 -1 10 -0.4820 0.0015
-1 -1 11 -0.2814 -0.0403
-1 -1 12 -0.0123 0.0370
-1 -1 13 -0.1010 0.1048
-1 -1 14 -0.1122 0.0466
-1 -1 15 0.1191 -0.0673
-1 -1 16 0.3242 -0.1502
-1 -1 17 0.4396 -0.2015
-1 -1 18 0.4145 -0.2125
-1 -1 19 0.1655 -0.1798
-1 0 1 19.9463 -1.2322
-1 0 2 6.1514 -0.5806
-1 0 3 -2.2249 0.0264
-1 0 4 -1.8036 0.0946
-1 0 5 0.1533 -0.0664
-1 0 6 -0.0670 -0.1095
-1 0 7 -0.3083 -0.0977
-1 0 8 0.0037 -0.1475
-1 0 9 -0.3347 -0.1811
-1 0 10 -0.7662 -0.1157
-1 0 11 -0.6265 -0.0001
-1 0 12 -0.6138 0.0664
-1 0 13 -0.7249 0.0287
-1 0 14 -0.2752 -0.0850
-1 0 15 0.3440 -0.1807
-1 0 16 0.5323 -0.1913
-1 0 17 0.5561 -0.1262
-1 0 18 0.4927 -0.0091
-1 0 19 0.1015 0.1453
-1 1 1 26.3850 -0.3715
-1 1 2 12.6120 -0.6820
-1 1 3 1.0617 -0.6086
-1 1 4 -2.3212 -0.3300
-1 1 5 -2.1747 -0.0655
-1 1 6 -1.7884 0.0874
-1 1 7 -0.6415 0.0681
-1 1 8 0.3014 -0.0603
-1 1 9 -0.1840 -0.0922
-1 1 10 -0.8488 0.0336
-1 1 11 -0.8115 0.1332
-1 1 12 -0.8541 0.0758
-1 1 13 -0.9023 -0.0539
-1 1 14 -0.3073 -0.1170
-1 1 15 0.3365 -0.0417
-1 1 16 0.4587 0.1539
-1 1 17 0.4957 0.3336
-1 1 18 0.4732 0.3755
-1 1 19 0.0600 0.3456
-1 2 3 4.7368 0.0907
-1 2 4 -1.0811 0.0634
-1 2 5 -2.9302 0.1562
-1 2 6 -2.6245 0.1491
-1 2 7 -0.8311 0.0734
-1 2 8 0.4206 0.0187
-1 2 9 0.0751 0.0471
-1 2 10 -0.4061 0.1170
-1 2 11 -0.2800 0.1019
-1 2 12 -0.3338 0.0001
-1 2 13 -0.4877 -0.0531
-1 2 14 -0.2337 -0.0015
-1 2 15 -0.0661 0.1214
-1 2 16 -0.2105 0.2642
-1 2 17 -0.1250 0.2845
-1 2 18 0.0644 0.0780
-1 3 2 14.9453 0.1334
-1 3 3 6.1171 0.2590
-1 3 4 0.4091 0.3449
-1 3 5 -1.9694 0.1629
-1 3 6 -1.9334 -0.1142
-1 3 7 -0.6394 -0.1932
-1 3 8 0.1707 -0.1042
-1 3 9 0.0416 -0.0250
-1 3 10 -0.0492 -0.0247
-1 3 11 0.0537 -0.0807
-1 3 12 -0.1298 -0.0947
-1 3 13 -0.2431 0.0099
-1 3 14 -0.0578 0.1240
-1 3 15 -0.1691 0.0928
-1 3 16 -0.5657 -0.0834
-1 3 17 -0.5956 -0.3530
-1 3 18 -0.3574 -0.6371
-1 4 1 16.8235 -1.0919
-1 4 2 12.4861 -0.8794
-1 4 3 6.1128 -0.3539
-1 4 4 1.2292 -0.0292
-1 4 5 -0.9564 -0.0722
-1 4 6 -1.1183 -0.1432
-1 4 7 -0.5667 -0.0384
-1 4 8 -0.2006 0.0480
-1 4 9 -0.0032 0.0011
-1 4 10 0.1333 -0.0575
-1 4 11 -0.1397 -0.0593
-1 4 12 -0.6230 -0.0052
-1 4 13 -0.5186 0.0891
-1 4 14 0.0317 0.0659
-1 4 15 0.1300 -0.2177
-1 4 16 -0.2067 -0.6229
-1 4 17 -0.3312 -0.8966
-1 5 1 12.4096 -0.0596
-1 5 2 10.9965 -0.0264
-1 5 3 6.5788 0.0023
-1 5 4 2.1858 -0.0823
-1 5 5 -0.1612 -0.1131
-1 5 6 -0.7698 0.0827
-1 5 7 -0.7205 0.2850
-1 5 8 -0.3703 0.2004
-1 5 9 0.2106 -0.0070
-1 5 10 0.4142 -0.0290
-1 5 11 -0.1834 0.0846
-1 5 12 -0.8400 0.1634
-1 5 13 -0.6539 0.1461
-1 5 14 -0.0138 -0.1087
-1 5 15 0.2074 -0.6302
-1 5 16 0.0798 -1.0397
-1 6 1 9.1909 0.6867
-1 6 2 9.5116 0.7870
-1 6 3 6.7281 0.5107
-1 6 4 3.1756 0.1470
-1 6 5 0.7989 0.0205
-1 6 6 -0.2980 0.1089
-1 6 7 -0.5908 0.0879
-1 6 8 -0.2368 -0.1442
-1 6 9 0.3714 -0.2666
-1 6 10 0.4934 -0.1123
-1 6 11 -0.0265 0.0767
-1 6 12 -0.4869 0.1702
-1 6 13 -0.3972 0.1985
-1 6 14 -0.1220 -0.0569
-1 6 15 -0.0725 -0.6443
-1 7 1 6.6195 -0.1266
-1 7 2 6.9870 -0.1354
-1 7 3 5.3641 -0.2068
-1 7 4 3.1392 -0.1202
-1 7 5 1.2852 0.0475
-1 7 6 0.0832 0.0435
-1 7 7 -0.3126 -0.1726
-1 7 8 -0.0644 -0.3295
-1 7 9 0.2265 -0.1802
-1 7 10 0.1711 0.0800
-1 7 11 -0.0628 0.1076
-1 7 12 -0.2044 0.0517
-1 7 13 -0.2489 0.1784
-1 8 1 4.2376 -0.1744
-1 8 2 4.2866 -0.4822
-1 8 3 3.4983 -0.5708
-1 8 4 2.3672 -0.2297
-1 8 5 0.9981 0.1114
-1 8 6 -0.1220 0.0764
-1 8 7 -0.4115 -0.1008
-1 8 8 -0.1601 -0.0025
-1 8 9 -0.0530 0.3711
-1 8 10 -0.1316 0.5689
-1 8 11 -0.1162 0.3013
-1 8 12 -0.1108 -0.0464
-1 9 1 2.4720 0.5639
-1 9 2 2.6112 0.3674
-1 9 3 2.4299 0.1810
-1 9 4 1.8329 0.2745
-1 9 5 0.6604 0.2470
-1 9 6 -0.3820 -0.0992
-1 9 7 -0.5985 -0.2971
-1 9 8 -0.3432 -0.0106
-1 9 9 -0.2126 0.4738
-1 9 10 -0.1475 0.6512
-1 10 1 1.8203 0.1181
-1 10 2 1.9359 0.1412
-1 10 3 1.8454 0.1644
-1 10 4 1.3972 0.3147
-1 10 5 0.5141 0.1311
-1 10 6 -0.2317 -0.4403
-1 10 7 -0.4129 -0.7249
-1 11 1 1.4395 -0.5258
-1 11 2 1.3302 -0.7181
-1 11 3 1.0526 -0.6579
-1 11 4 0.6765 -0.2256
0 -11 1 0.5780 -0.7201
0 -11 2 0.1947 -0.2488
0 -11 3 0.1621 0.0353
0 -11 4 0.2516 0.1666
0 -11 5 0.0325 0.1925
0 -11 6 -0.1719 0.0776
0 -11 7 -0.1062 -0.0480
0 -11 8 -0.1012 -0.0581
0 -11 9 -0.0823 0.0514
0 -10 1 0.2586 0.2300
0 -10 2 0.0510 0.2951
0 -10 3 0.1830 0.2208
0 -10 4 0.0921 0.1163
0 -10 5 -0.4313 0.1013
0 -10 6 -0.5988 0.1754
0 -10 7 -0.1478 0.2263
0 -10 8 0.1886 0.1175
0 -10 9 0.2585 -0.0011
0 -10 10 0.4166 0.1121
0 -10 11 0.1029 0.2504
0 -10 12 -1.0836 0.0724
0 -10 13 -1.8830 -0.2707
0 -9 1 -0.4547 0.0809
0 -9 2 -0.4345 0.2391
0 -9 3 0.0507 0.1283
0 -9 4 0.1496 -0.1778
0 -9 5 -0.3551 -0.4106
0 -9 6 -0.5936 -0.3048
0 -9 7 -0.2187 0.0110
0 -9 8 0.1142 0.0964
0 -9 9 0.2153 -0.0736
0 -9 10 0.4179 -0.1070
0 -9 11 0.3110 0.0189
0 -9 12 -0.5095 -0.0187
0 -9 13 -1.1161 -0.2209
0 -9 14 -0.6659 -0.3162
0 -9 15 0.0494 -0.2086
0 -8 1 0.1219 -0.5318
0 -8 2 -0.1355 -0.2618
0 -8 3 0.0661 -0.0168
0 -8 4 0.2281 0.0168
0 -8 5 0.1067 -0.1361
0 -8 6 -0.0176 -0.2026
0 -8 7 -0.0114 -0.0636
0 -8 8 -0.0811 0.0501
0 -8 9 -0.1497 0.0025
0 -8 10 0.0670 -0.0686
0 -8 11 0.3398 -0.0951
0 -8 12 0.2842 -0.1018
0 -8 13 0.1913 -0.0254
0 -8 14 0.4659 0.1316
0 -8 15 0.7560 0.2349
0 -8 16 0.5708 0.2177
0 -7 1 1.5188 0.0796
0 -7 2 0.9240 -0.0553
0 -7 3 0.5338 -0.0292
0 -7 4 0.2310 0.1374
0 -7 5 0.0488 0.3069
0 -7 6 -0.0563 0.3405
0 -7 7 -0.1084 0.2322
0 -7 8 -0.0992 0.0953
0 -7 9 -0.1137 0.0598
0 -7 10 -0.1485 0.0969
0 -7 11 -0.0403 0.0589
0 -7 12 0.2248 -0.0073
0 -7 13 0.4814 0.0837
0 -7 14 0.6875 0.2480
0 -7 15 0.8805 0.2259
0 -7 16 0.9199 0.0184
0 -7 17 0.6399 -0.1635
0 -6 1 1.7348 0.3333
0 -6 2 0.8602 0.2932
0 -6 3 0.4835 0.0277
0 -6 4 0.0356 -0.1862
0 -6 5 -0.4950 -0.1428
0 -6 6 -0.9595 0.0203
0 -6 7 -0.9650 0.0619
0 -6 8 -0.3448 -0.0303
0 -6 9 0.1861 -0.0658
0 -6 10 -0.0129 0.0157
0 -6 11 -0.4330 0.0550
0 -6 12 -0.3867 -0.0054
0 -6 13 -0.0971 -0.0324
0 -6 14 0.0707 -0.0223
0 -6 15 0.3134 -0.1186
0 -6 16 0.6667 -0.2653
0 -6 17 0.6958 -0.2278
0 -6 18 0.3187 0.0169
0 -5 1 2.2475 -0.6588
0 -5 2 0.0014 -0.1882
0 -5 3 -0.7314 0.0219
0 -5 4 -0.7814 -0.0763
0 -5 5 -0.8662 -0.3076
0 -5 6 -1.2561 -0.4287
0 -5 7 -1.3983 -0.3225
0 -5 8 -0.7358 -0.1323
0 -5 9 0.0622 -0.0516
0 -5 10 0.0235 -0.0647
0 -5 11 -0.5056 -0.0727
0 -5 12 -0.6173 -0.0737
0 -5 13 -0.3501 -0.0753
0 -5 14 -0.1802 -0.0629
0 -5 15 -0.0602 -0.0867
0 -5 16 0.1148 -0.1336
0 -5 17 0.1231 -0.0136
0 -5 18 -0.0186 0.3276
0 -5 19 -0.0203 0.5661
0 -4 1 6.7917 -0.2535
0 -4 2 1.4873 -0.2959
0 -4 3 -1.3974 -0.0124
0 -4 4 -1.6834 0.3514
0 -4 5 -0.8541 0.3832
0 -4 6 -0.3702 0.1043
0 -4 7 -0.5296 -0.0332
0 -4 8 -0.6817 0.0986
0 -4 9 -0.4468 0.1617
0 -4 10 -0.1988 0.0344
0 -4 11 -0.2447 -0.0445
0 -4 12 -0.3262 0.0126
0 -4 13 -0.1823 0.0847
0 -4 14 0.0470 0.1369
0 -4 15 0.1151 0.1453
0 -4 16 -0.0331 0.0441
0 -4 17 -0.2150 -0.0216
0 -4 18 -0.1493 0.1389
0 -4 19 0.1522 0.3070
0 -3 1 15.1156 1.0443
0 -3 2 5.4970 0.4906
0 -3 3 -0.4279 0.0459
0 -3 4 -1.5541 0.0509
0 -3 5 -0.5154 0.3039
0 -3 6 0.4825 0.3726
0 -3 7 0.4516 0.2565
0 -3 8 -0.4885 0.1688
0 -3 9 -1.0695 0.0818
0 -3 10 -0.5648 -0.0300
0 -3 11 0.0799 -0.0146
0 -3 12 0.0073 0.1056
0 -3 13 -0.2229 0.1328
0 -3 14 -0.0162 0.0673
0 -3 15 0.2399 0.0049
0 -3 16 0.1942 -0.1044
0 -3 17 0.1645 -0.2186
0 -3 18 0.3898 -0.1644
0 -3 19 0.5889 -0.0530
0 -2 1 23.7848 -0.4846
0 -2 2 8.8225 0.2466
0 -2 3 0.2725 0.1103
0 -2 4 -1.0987 -0.3975
0 -2 5 -0.3356 -0.4840
0 -2 6 0.3590 -0.2279
0 -2 7 0.5359 -0.0965
0 -2 8 -0.5255 -0.1526
0 -2 9 -1.7105 -0.2062
0 -2 10 -1.2793 -0.1610
0 -2 11 -0.1530 -0.0269
0 -2 12 -0.0509 0.0740
0 -2 13 -0.4454 0.0021
0 -2 14 -0.2796 -0.1540
0 -2 15 0.0587 -0.1877
0 -2 16 0.1898 -0.1073
0 -2 17 0.5073 -0.0389
0 -2 18 0.8941 0.0236
0 -2 19 0.7817 0.0833
0 -1 2 11.3468 -0.8426
0 -1 3 0.1642 0.0928
0 -1 4 -1.5646 0.0140
0 -1 5 -1.1485 -0.2172
0 -1 6 -0.6032 -0.1888
0 -1 7 0.3784 -0.1437
0 -1 8 -0.0710 -0.1618
0 -1 9 -1.7615 -0.0899
0 -1 10 -2.0652 0.0346
0 -1 11 -1.0106 0.0718
0 -1 12 -0.5323 0.0184
0 -1 13 -0.5383 -0.0678
0 -1 14 -0.2150 -0.1084
0 -1 15 -0.0711 0.0078
0 -1 16 -0.1942 0.2240
0 -1 17 0.1702 0.2876
0 -1 18 0.6868 0.1320
0 -1 19 0.4890 0.0131
0 0 2 15.3941 -0.2162
0 0 3 1.9971 0.1298
0 0 4 -1.5856 0.3665
0 0 5 -2.3666 0.4269
0 0 6 -1.8232 0.3709
0 0 7 0.2916 0.2369
0 0 8 0.8328 0.1630
0 0 9 -0.9541 0.2184
0 0 10 -1.9619 0.2168
0 0 11 -1.3397 0.0497
0 0 12 -0.8051 -0.0880
0 0 13 -0.5432 -0.0545
0 0 14 -0.0846 0.0593
0 0 15 -0.1215 0.1912
0 0 16 -0.5805 0.2813
0 0 17 -0.3852 0.0942
0 0 18 0.2086 -0.4005
0 0 19 0.1974 -0.7139
0 1 0 43.9064 3.4930
0 1 1 36.8134 2.7261
0 1 2 18.9204 1.1471
0 1 3 5.8284 0.1031
0 1 4 0.3243 -0.1256
0 1 5 -2.2073 -0.0427
0 1 6 -2.3711 0.0028
0 1 7 -0.2840 0.0173
0 1 8 0.6846 0.0755
0 1 9 -0.4035 0.1141
0 1 10 -0.9354 0.0023
0 1 11 -0.3816 -0.1810
0 1 12 -0.2957 -0.1779
0 1 13 -0.5091 0.0137
0 1 14 -0.2856 0.1148
0 1 15 -0.2796 0.0422
0 1 16 -0.6502 -0.0836
0 1 17 -0.5023 -0.3345
0 1 18 0.0627 -0.7656
0 2 1 30.0502 1.1476
0 2 3 7.5118 -0.2015
0 2 4 2.0653 -0.3797
0 2 5 -0.8903 -0.4370
0 2 6 -1.7694 -0.4286
0 2 7 -0.9934 -0.2994
0 2 8 -0.6011 -0.1507
0 2 9 -0.7332 -0.1034
0 2 10 -0.0018 -0.1545
0 2 11 0.8680 -0.1798
0 2 12 0.4469 -0.0476
0 2 13 -0.4294 0.1460
0 2 14 -0.5338 0.1343
0 2 15 -0.3356 -0.0970
0 2 16 -0.3517 -0.2802
0 2 17 -0.1947 -0.3114
0 2 18 0.1326 -0.3037
0 3 0 21.9191 -1.3570
0 3 2 13.2208 -0.9070
0 3 3 5.8469 -0.3063
0 3 4 1.4044 0.0848
0 3 5 -0.5359 0.1678
0 3 6 -0.9891 0.1722
0 3 7 -1.0043 0.1600
0 3 8 -1.1628 0.0604
0 3 9 -0.7704 -0.0114
0 3 10 0.4791 0.0391
0 3 11 1.1969 0.0935
0 3 12 0.5137 0.0915
0 3 13 -0.4165 0.0920
0 3 14 -0.5013 0.0534
0 3 15 -0.1442 -0.0589
0 3 16 0.0606 -0.0967
0 3 17 0.1426 0.0578
0 4 0 11.8631 0.0081
0 4 1 13.2302 -0.1577
0 4 2 9.8451 -0.0785
0 4 3 4.2404 0.1090
0 4 4 0.0161 0.2050
0 4 5 -1.3711 0.2830
0 4 6 -1.0707 0.4088
0 4 7 -0.6884 0.3603
0 4 8 -0.4683 0.1109
0 4 9 0.1097 0.0241
0 4 10 0.7800 0.1705
0 4 11 0.7349 0.1811
0 4 12 0.0543 -0.0326
0 4 13 -0.3977 -0.1754
0 4 14 -0.2851 -0.1415
0 4 15 0.0232 -0.0416
0 4 16 0.2231 0.1148
0 5 0 5.9426 1.0647
0 5 1 8.8372 1.0926
0 5 2 8.1389 0.7490
0 5 3 4.1283 0.2419
0 5 4 0.0979 -0.1928
0 5 5 -1.6332 -0.3406
0 5 6 -1.5409 -0.2511
0 5 7 -0.8409 -0.2210
0 5 8 0.0295 -0.2564
0 5 9 0.7150 -0.0993
0 5 10 0.7053 0.1132
0 5 11 0.1616 0.0361
0 5 12 -0.2151 -0.1730
0 5 13 -0.1891 -0.1802
0 5 14 -0.0552 -0.0866
0 5 15 0.0426 -0.0294
0 6 0 3.7230 -0.2158
0 6 1 5.8019 -0.1800
0 6 2 5.8666 -0.2175
0 6 3 3.5996 -0.1995
0 6 4 0.8578 -0.1597
0 6 5 -0.9018 -0.1718
0 6 6 -1.5818 -0.2334
0 6 7 -1.3072 -0.2884
0 6 8 -0.3658 -0.1876
0 6 9 0.3079 0.0624
0 6 10 0.1595 0.1010
0 6 11 -0.2016 -0.1645
0 6 12 -0.1484 -0.2228
0 6 13 0.0626 0.0980
0 6 14 0.0825 0.2491
0 7 0 2.4386 -0.3478
0 7 1 3.2015 -0.6241
0 7 2 3.1007 -0.6093
0 7 3 2.2055 -0.1929
0 7 4 1.0496 0.2796
0 7 5 -0.2024 0.4430
0 7 6 -1.2906 0.3325
0 7 7 -1.5258 0.2171
0 7 8 -0.8928 0.2693
0 7 9 -0.3315 0.3218
0 7 10 -0.2848 0.0170
0 7 11 -0.2484 -0.4754
0 7 12 0.0092 -0.4547
0 7 13 0.1354 0.1041
0 8 0 0.7723 0.6089
0 8 1 1.2605 0.4463
0 8 2 1.3667 0.2919
0 8 3 1.2997 0.3170
0 8 4 0.9835 0.3057
0 8 5 0.1220 0.1056
0 8 6 -0.9173 -0.0447
0 8 7 -1.3044 0.0532
0 8 8 -0.9580 0.2518
0 8 9 -0.5423 0.2416
0 8 10 -0.3314 -0.1642
0 8 11 -0.1063 -0.6744
0 9 0 0.0255 0.1355
0 9 1 0.4588 0.1668
0 9 2 0.7184 0.1318
0 9 3 0.9201 0.1504
0 9 4 0.8365 -0.0634
0 9 5 0.2629 -0.5576
0 9 6 -0.4382 -0.7755
0 9 7 -0.7489 -0.4355
0 9 8 -0.6495 0.0279
0 9 9 -0.4372 0.1596
0 10 0 0.5400 -0.2712
0 10 1 0.4859 -0.6346
0 10 2 0.3329 -0.8496
0 10 3 0.3422 -0.5201
0 10 4 0.3324 -0.2227
0 10 5 0.1571 -0.4557
0 10 6 -0.0525 -0.6609
0 11 0 0.7311 0.8350
0 11 1 0.3704 0.1250
0 11 2 -0.0274 -0.6578
1 -11 0 1.0474 0.4337
1 -11 1 0.2431 0.2178
1 -11 2 -0.2825 -0.1531
1 -11 3 -0.3596 -0.2045
1 -11 4 -0.4222 0.0654
1 -11 5 -0.3094 0.2075
1 -11 6 0.2711 0.1943
1 -11 7 0.5192 0.1757
1 -11 8 -0.1649 -0.0041
1 -11 9 -0.7724 -0.3346
1 -11 10 -0.5155 -0.4802
1 -10 0 1.2233 0.0964
1 -10 1 0.3306 0.0951
1 -10 2 -0.0917 -0.2784
1 -10 3 -0.0495 -0.5310
1 -10 4 -0.2090 -0.4476
1 -10 5 -0.4022 -0.2800
1 -10 6 -0.1338 -0.1131
1 -10 7 0.0378 0.0262
1 -10 8 -0.3906 -0.0649
1 -10 9 -0.6455 -0.3406
1 -10 10 -0.2740 -0.4689
1 -10 11 -0.0962 -0.3288
1 -10 12 -0.3830 -0.0552
1 -10 13 -0.2953 0.2201
1 -9 0 1.6317 -0.3786
1 -9 1 0.4176 -0.0597
1 -9 2 -0.1483 0.0839
1 -9 3 0.0295 0.1586
1 -9 4 0.1219 0.1867
1 -9 5 -0.0885 0.0437
1 -9 6 -0.2656 -0.1168
1 -9 7 -0.4800 -0.0887
1 -9 8 -0.7108 0.0270
1 -9 9 -0.4947 0.0547
1 -9 10 0.0027 -0.0135
1 -9 11 0.0777 -0.0545
1 -9 12 -0.0861 0.0731
1 -9 13 0.1883 0.3064
1 -9 14 0.6515 0.3865
1 -9 15 0.6765 0.2383
1 -8 0 2.8865 0.0450
1 -8 1 0.9905 0.0518
1 -8 2 -0.1372 0.0856
1 -8 3 -0.2908 0.2655
1 -8 4 -0.1810 0.5052
1 -8 5 -0.1849 0.4876
1 -8 6 -0.3161 0.1893
1 -8 7 -0.6048 -0.0732
1 -8 8 -0.7899 -0.0592
1 -8 9 -0.5804 0.1465
1 -8 10 -0.3466 0.2489
1 -8 11 -0.4534 0.1466
1 -8 12 -0.4132 0.0673
1 -8 13 0.1567 0.1052
1 -8 14 0.7518 0.0394
1 -8 15 1.0115 -0.1759
1 -8 16 1.1170 -0.3026
1 -7 0 4.2426 0.2385
1 -7 1 1.6399 0.1770
1 -7 2 0.2496 -0.1397
1 -7 3 -0.2166 -0.3607
1 -7 4 -0.5191 -0.2680
1 -7 5 -0.7170 -0.0536
1 -7 6 -0.7135 0.0304
1 -7 7 -0.6755 -0.0520
1 -7 8 -0.6423 -0.1443
1 -7 9 -0.6282 -0.0974
1 -7 10 -0.8553 0.0125
1 -7 11 -1.1772 0.0164
1 -7 12 -1.0072 -0.0567
1 -7 13 -0.3239 -0.1022
1 -7 14 0.3297 -0.1484
1 -7 15 0.9456 -0.1832
1 -7 16 1.7071 -0.0833
1 -7 17 1.9304 0.1393
1 -6 0 6.0234 -0.3118
1 -6 1 2.6472 -0.0298
1 -6 2 0.7870 -0.0008
1 -6 3 0.0039 -0.1089
1 -6 4 -0.4520 -0.2573
1 -6 5 -0.5967 -0.3541
1 -6 6 -0.4917 -0.2435
1 -6 7 -0.4370 0.0062
1 -6 8 -0.4674 0.0955
1 -6 9 -0.5782 -0.0369
1 -6 10 -0.9209 -0.1513
1 -6 11 -1.2562 -0.1339
1 -6 12 -1.0833 -0.0821
1 -6 13 -0.5518 -0.0362
1 -6 14 -0.1945 0.0467
1 -6 15 0.1456 0.1385
1 -6 16 0.8628 0.2005
1 -6 17 1.4257 0.2975
1 -6 18 1.0803 0.4395
1 -5 0 9.9499 -0.0447
1 -5 1 5.5993 -0.1660
1 -5 2 1.7167 -0.0210
1 -5 3 -0.6258 0.3595
1 -5 4 -1.1599 0.5142
1 -5 5 -0.3002 0.2355
1 -5 6 0.5759 -0.0297
1 -5 7 0.3985 0.0840
1 -5 8 -0.3356 0.2683
1 -5 9 -0.6860 0.1652
1 -5 10 -0.7328 -0.0350
1 -5 11 -0.8882 -0.0599
1 -5 12 -0.9128 0.0019
1 -5 13 -0.6094 0.0413
1 -5 14 -0.4129 0.1164
1 -5 15 -0.5176 0.1424
1 -5 16 -0.4265 0.0023
1 -5 17 0.0836 -0.0503
1 -5 18 0.4832 0.2305
1 -4 1 10.0047 0.1701
1 -4 2 2.9608 -0.2503
1 -4 3 -1.8181 -0.2072
1 -4 4 -2.9554 0.0898
1 -4 5 -1.2542 0.2049
1 -4 6 0.7209 0.0833
1 -4 7 0.7878 0.0042
1 -4 8 -0.4592 0.0307
1 -4 9 -1.0006 0.0221
1 -4 10 -0.6302 0.0109
1 -4 11 -0.6325 0.0667
1 -4 12 -1.0926 0.0617
1 -4 13 -1.0432 -0.0435
1 -4 14 -0.5575 -0.0864
1 -4 15 -0.4583 -0.0904
1 -4 16 -0.5977 -0.1904
1 -4 17 -0.2489 -0.1489
1 -4 18 0.4017 0.2868
1 -4 19 0.5734 0.6864
1 -3 0 21.7677 0.1149
1 -3 1 13.2064 0.3480
1 -3 2 3.2628 0.1731
1 -3 3 -2.6434 -0.3563
1 -3 4 -4.1118 -0.6229
1 -3 5 -2.7535 -0.4022
1 -3 6 -0.5580 -0.1192
1 -3 7 0.2160 -0.0905
1 -3 8 -0.6803 -0.1661
1 -3 9 -1.1943 -0.1346
1 -3 10 -0.6430 -0.0058
1 -3 11 -0.5826 0.0870
1 -3 12 -1.3740 0.0424
1 -3 13 -1.5435 -0.0809
1 -3 14 -0.7813 -0.1074
1 -3 15 -0.2445 -0.0149
1 -3 16 -0.1363 0.0625
1 -3 17 0.2599 0.1593
1 -3 18 0.7635 0.3929
1 -3 19 0.6644 0.5600
1 -2 0 26.5446 -0.9441
1 -2 2 2.7519 0.6530
1 -2 3 -2.9076 0.4964
1 -2 4 -3.9324 0.0098
1 -2 5 -3.3615 -0.1077
1 -2 6 -1.6001 0.0302
1 -2 7 -0.0110 0.0385
1 -2 8 -0.1593 -0.0258
1 -2 9 -0.8484 0.0128
1 -2 10 -0.7003 0.0546
1 -2 11 -0.6783 -0.0008
1 -2 12 -1.3360 -0.0519
1 -2 13 -1.4481 -0.0165
1 -2 14 -0.7494 0.0693
1 -2 15 -0.3539 0.1588
1 -2 16 -0.3110 0.1850
1 -2 17 0.1325 0.0628
1 -2 18 0.6060 -0.1540
1 -2 19 0.3987 -0.2703
1 -1 1 16.9235 -0.2173
1 -1 2 3.5767 0.0434
1 -1 3 -2.4657 0.3290
1 -1 4 -3.7455 0.4091
1 -1 5 -3.8024 0.3553
1 -1 6 -2.0730 0.2431
1 -1 7 0.4266 0.1156
1 -1 8 0.9392 0.0748
1 -1 9 -0.1031 0.0968
1 -1 10 -0.6245 0.0230
1 -1 11 -0.7513 -0.1055
1 -1 12 -1.1028 -0.0835
1 -1 13 -0.9669 0.0474
1 -1 14 -0.3784 0.0647
1 -1 15 -0.4047 -0.0270
1 -1 16 -0.8194 -0.1155
1 -1 17 -0.5875 -0.3233
1 -1 18 -0.0049 -0.7164
1 -1 19 0.0870 -0.9118
1 0 0 25.4221 1.0680
1 0 1 17.4752 0.1217
1 0 2 5.6959 -0.6509
1 0 3 -1.2370 -0.6714
1 0 4 -4.1027 -0.3036
1 0 5 -4.9555 -0.0797
1 0 6 -3.0974 -0.0595
1 0 7 -0.0662 -0.0567
1 0 8 0.9525 -0.0209
1 0 9 0.1846 -0.0306
1 0 10 -0.2818 -0.0843
1 0 11 -0.4309 -0.0519
1 0 12 -0.8145 0.0926
1 0 13 -0.7027 0.1262
1 0 14 -0.0621 -0.0898
1 0 15 -0.0274 -0.2866
1 0 16 -0.5956 -0.1745
1 0 17 -0.6810 0.0194
1 0 18 -0.2015 -0.0975
1 1 0 17.4463 0.2958
1 1 1 14.1889 0.1423
1 1 2 6.3244 -0.2267
1 1 3 -0.1664 -0.3095
1 1 4 -4.1606 -0.2158
1 1 5 -5.5954 -0.1953
1 1 6 -4.0867 -0.1799
1 1 7 -1.5899 -0.0953
1 1 8 -0.5186 -0.0570
1 1 9 -0.3893 -0.0889
1 1 10 0.0481 -0.0445
1 1 11 0.1855 0.1202
1 1 12 -0.4213 0.2333
1 1 13 -0.6413 0.1191
1 1 14 -0.0057 -0.1410
1 1 15 0.4380 -0.1979
1 1 16 0.1899 0.2045
1 1 17 -0.0558 0.8163
1 1 18 0.0798 1.0470
1 2 0 9.3276 -0.6196
1 2 1 8.9525 -0.1976
1 2 2 4.8868 0.2725
1 2 3 -0.0131 0.5788
1 2 4 -3.6961 0.5664
1 2 5 -4.8387 0.3495
1 2 6 -3.6885 0.1716
1 2 7 -2.2349 0.0603
1 2 8 -1.6201 -0.0438
1 2 9 -1.0227 -0.0471
1 2 10 -0.0163 0.0769
1 2 11 0.4127 0.1328
1 2 12 -0.0802 0.0204
1 2 13 -0.4427 -0.0948
1 2 14 -0.0617 -0.0725
1 2 15 0.4308 0.0642
1 2 16 0.4605 0.3411
1 2 17 0.2712 0.7767
1 3 0 4.1928 -0.0741
1 3 1 5.2220 -0.1591
1 3 2 3.5024 -0.0439
1 3 3 -0.0993 0.1153
1 3 4 -3.1540 0.1637
1 3 5 -3.7969 0.1439
1 3 6 -2.6693 0.1058
1 3 7 -1.6396 -0.0045
1 3 8 -1.2924 -0.0899
1 3 9 -0.9527 0.0092
1 3 10 -0.3549 0.1175
1 3 11 0.0593 -0.0435
1 3 12 0.0572 -0.2935
1 3 13 -0.0970 -0.2357
1 3 14 -0.1289 0.0530
1 3 15 -0.0650 0.1400
1 3 16 -0.0402 -0.0306
1 3 17 -0.0336 -0.0863
1 4 0 1.3188 0.3037
1 4 1 2.9785 0.0487
1 4 2 2.6463 -0.2696
1 4 3 0.1515 -0.4309
1 4 4 -2.4202 -0.4545
1 4 5 -3.1992 -0.3747
1 4 6 -2.4272 -0.2487
1 4 7 -1.3448 -0.1503
1 4 8 -0.6889 -0.0194
1 4 9 -0.5373 0.1334
1 4 10 -0.5182 0.0731
1 4 11 -0.2144 -0.1913
1 4 12 0.1932 -0.2409
1 4 13 0.1841 0.0527
1 4 14 -0.2109 0.2303
1 4 15 -0.5058 -0.0357
1 4 16 -0.4974 -0.4590
1 5 0 -0.3272 -0.1623
1 5 1 0.9324 -0.0977
1 5 2 1.3127 -0.0005
1 5 3 0.2913 0.1402
1 5 4 -1.2689 0.1464
1 5 5 -2.3709 0.0268
1 5 6 -2.5541 -0.0642
1 5 7 -1.8063 -0.0231
1 5 8 -0.8123 0.1375
1 5 9 -0.3984 0.1817
1 5 10 -0.3439 -0.0671
1 5 11 0.0471 -0.2135
1 5 12 0.4923 0.1935
1 5 13 0.3027 0.6910
1 5 14 -0.2556 0.4871
1 5 15 -0.4918 -0.2165
1 6 0 -0.7897 -0.2032
1 6 1 -0.3335 -0.2316
1 6 2 0.0524 0.0667
1 6 3 0.1729 0.3877
1 6 4 -0.1681 0.4365
1 6 5 -1.1803 0.3025
1 6 6 -2.1786 0.1688
1 6 7 -2.1112 0.0955
1 6 8 -1.2243 0.0818
1 6 9 -0.5409 -0.0213
1 6 10 -0.1088 -0.2527
1 6 11 0.4695 -0.1153
1 6 12 0.7411 0.6786
1 6 13 0.3036 1.2771
1 7 0 -0.7882 0.0067
1 7 1 -0.4743 -0.0850
1 7 2 -0.2943 -0.0180
1 7 3 0.0472 -0.0988
1 7 4 0.2466 -0.3204
1 7 5 -0.4296 -0.3028
1 7 6 -1.5263 -0.0254
1 7 7 -1.8410 0.1144
1 7 8 -1.3138 -0.0173
1 7 9 -0.6990 -0.2425
1 7 10 -0.1061 -0.3573
1 7 11 0.5294 -0.0285
1 7 12 0.6883 0.7969
1 8 0 -0.9723 -0.1899
1 8 1 -0.5522 0.0280
1 8 2 -0.5104 0.1960
1 8 3 -0.3332 -0.0034
1 8 4 -0.0471 -0.4538
1 8 5 -0.2995 -0.4941
1 8 6 -0.9459 0.0388
1 8 7 -1.2118 0.4371
1 8 8 -0.9976 0.2391
1 8 9 -0.6654 -0.2003
1 8 10 -0.2160 -0.3964
1 9 0 -0.7266 0.0125
1 9 1 -0.7546 0.0910
1 9 2 -1.0106 0.2641
1 9 3 -0.8940 0.3366
1 9 4 -0.4364 0.0342
1 9 5 -0.2270 -0.1687
1 9 6 -0.3583 0.2481
1 9 7 -0.4615 0.7451
1 10 0 0.1664 0.5477
1 10 1 -0.3785 0.1428
1 10 2 -0.9020 -0.1758
1 10 3 -0.8327 -0.1161
1 10 4 -0.3593 -0.2151
2 -12 2 -0.3591 -1.1238
2 -12 3 0.0495 -0.4489
2 -12 4 0.2891 0.4918
2 -11 0 0.6014 -0.4238
2 -11 1 -0.0821 -0.6377
2 -11 2 -0.2825 -0.7883
2 -11 3 -0.3112 -0.3791
2 -11 4 -0.5332 0.3122
2 -11 5 -0.5706 0.6142
2 -11 6 -0.3921 0.3342
2 -11 7 -0.4686 -0.1207
2 -11 8 -0.5644 -0.2108
2 -11 9 -0.2649 0.1194
2 -11 10 -0.0586 0.3705
2 -10 0 1.0464 0.2419
2 -10 1 0.2468 0.4295
2 -10 2 -0.0898 0.4235
2 -10 3 -0.2529 0.3569
2 -10 4 -0.6932 0.2794
2 -10 5 -0.9921 0.1788
2 -10 6 -0.8700 0.0617
2 -10 7 -0.5814 -0.0008
2 -10 8 -0.1585 0.1355
2 -10 9 0.0899 0.3638
2 -10 10 -0.4907 0.3195
2 -10 11 -1.1905 0.0179
2 -10 12 -0.6019 -0.1919
2 -10 13 0.4909 -0.3579
2 -9 0 1.5497 0.1296
2 -9 1 0.1635 0.2473
2 -9 2 -0.4661 0.2559
2 -9 3 -0.4125 0.1419
2 -9 4 -0.4149 -0.0529
2 -9 5 -0.5176 -0.2048
2 -9 6 -0.5432 -0.2443
2 -9 7 -0.4288 -0.1681
2 -9 8 -0.0202 0.0478
2 -9 9 0.1107 0.2160
2 -9 10 -0.8933 0.0456
2 -9 11 -1.9241 -0.2531
2 -9 12 -1.0087 -0.2847
2 -9 13 0.9418 -0.2924
2 -9 14 1.3587 -0.5750
2 -9 15 0.4547 -0.6522
2 -8 0 2.1076 -0.1911
2 -8 1 0.0422 -0.3064
2 -8 2 -1.0004 -0.4966
2 -8 3 -0.9393 -0.5415
2 -8 4 -0.6171 -0.3932
2 -8 5 -0.3836 -0.1532
2 -8 6 -0.3205 -0.0115
2 -8 7 -0.4062 -0.0490
2 -8 8 -0.2883 -0.0880
2 -8 9 -0.1701 -0.0415
2 -8 10 -0.8282 -0.0642
2 -8 11 -1.7080 -0.1080
2 -8 12 -1.2550 -0.0111
2 -8 13 0.2193 0.0095
2 -8 14 0.9788 -0.1757
2 -8 15 0.9983 -0.1236
2 -8 16 1.3058 0.3120
2 -7 0 2.6230 0.2163
2 -7 1 0.2731 0.2112
2 -7 2 -1.1351 0.0573
2 -7 3 -1.4574 -0.0458
2 -7 4 -1.2588 -0.0294
2 -7 5 -0.8410 0.1129
2 -7 6 -0.4882 0.2658
2 -7 7 -0.4715 0.2258
2 -7 8 -0.5432 0.0251
2 -7 9 -0.4341 -0.0861
2 -7 10 -0.4679 -0.0005
2 -7 11 -0.7891 0.1849
2 -7 12 -0.9070 0.2972
2 -7 13 -0.6515 0.2011
2 -7 14 -0.2870 0.0421
2 -7 15 0.3909 0.1216
2 -7 16 1.4271 0.2992
2 -7 17 1.7670 0.1100
2 -6 0 3.3423 0.2857
2 -6 1 0.8076 0.3417
2 -6 2 -1.3437 0.4820
2 -6 3 -2.4424 0.5552
2 -6 4 -2.3088 0.3683
2 -6 5 -1.3455 0.0829
2 -6 6 -0.4173 -0.0068
2 -6 7 -0.1413 0.0376
2 -6 8 -0.3394 -0.0146
2 -6 9 -0.4486 -0.1065
2 -6 10 -0.2989 -0.0299
2 -6 11 -0.1850 0.1570
2 -6 12 -0.3339 0.1819
2 -6 13 -0.6121 -0.0001
2 -6 14 -0.6414 -0.1086
2 -6 15 -0.1087 -0.0268
2 -6 16 0.7531 -0.0449
2 -6 17 1.1443 -0.3228
2 -6 18 0.6761 -0.5406
2 -5 0 4.0538 -0.3623
2 -5 1 1.1111 -0.4924
2 -5 2 -2.0506 -0.3668
2 -5 3 -4.0483 -0.1074
2 -5 4 -3.9053 0.0018
2 -5 5 -2.1979 -0.0995
2 -5 6 -0.5234 -0.2035
2 -5 7 0.1560 -0.1912
2 -5 8 0.0425 -0.1459
2 -5 9 -0.2404 -0.1121
2 -5 10 -0.3332 -0.0361
2 -5 11 -0.2743 0.0269
2 -5 12 -0.2458 -0.0647
2 -5 13 -0.2572 -0.2287
2 -5 14 -0.1770 -0.2069
2 -5 15 0.0295 -0.0354
2 -5 16 0.2602 -0.0250
2 -5 17 0.3520 -0.1588
2 -5 18 0.1953 -0.0977
2 -4 0 4.0267 -0.3348
2 -4 1 0.4587 -0.3694
2 -4 2 -2.9624 -0.4898
2 -4 3 -5.0478 -0.4993
2 -4 4 -5.0886 -0.2539
2 -4 5 -3.4993 0.0506
2 -4 6 -1.6308 0.1314
2 -4 7 -0.4678 0.0198
2 -4 8 -0.0480 -0.0375
2 -4 9 -0.0478 0.0323
2 -4 10 -0.2367 0.0861
2 -4 11 -0.4156 0.0299
2 -4 12 -0.4038 -0.0742
2 -4 13 -0.1950 -0.1001
2 -4 14 0.0162 0.0139
2 -4 15 0.0906 0.1606
2 -4 16 0.1355 0.1725
2 -4 17 0.2251 0.0970
2 -4 18 0.1752 0.1270
2 -3 0 3.5287 0.2692
2 -3 1 -0.8456 0.4664
2 -3 2 -3.8911 0.3927
2 -3 3 -5.1573 0.1722
2 -3 4 -5.2828 0.1404
2 -3 5 -4.4809 0.2699
2 -3 6 -3.0282 0.2549
2 -3 7 -1.5742 0.0835
2 -3 8 -0.5503 0.0296
2 -3 9 -0.0228 0.1126
2 -3 10 0.0506 0.0860
2 -3 11 -0.1078 -0.0519
2 -3 12 -0.1403 -0.0451
2 -3 13 -0.0068 0.1327
2 -3 14 -0.0057 0.2305
2 -3 15 -0.1323 0.1408
2 -3 16 0.0220 -0.0019
2 -3 17 0.4526 -0.1031
2 -3 18 0.5692 -0.1828
2 -2 0 3.3173 0.0616
2 -2 1 -1.3599 0.0732
2 -2 2 -4.6968 0.1709
2 -2 3 -5.9049 0.2507
2 -2 4 -6.0017 0.2102
2 -2 5 -5.2127 0.0449
2 -2 6 -3.6449 -0.1360
2 -2 7 -2.0661 -0.1836
2 -2 8 -0.9464 -0.0629
2 -2 9 -0.1764 0.0507
2 -2 10 0.2432 -0.0203
2 -2 11 0.2995 -0.1481
2 -2 12 0.3061 -0.0693
2 -2 13 0.3754 0.1376
2 -2 14 0.1849 0.1302
2 -2 15 -0.2144 -0.1114
2 -2 16 -0.2013 -0.2485
2 -2 17 0.3255 -0.1938
2 -2 18 0.6212 -0.2032
2 -1 0 2.6321 -0.4171
2 -1 1 -0.7086 -0.5735
2 -1 2 -4.7771 -0.5172
2 -1 3 -7.5237 -0.2453
2 -1 4 -8.0937 -0.1238
2 -1 5 -6.3775 -0.2365
2 -1 6 -3.7743 -0.2743
2 -1 7 -2.0383 -0.1126
2 -1 8 -1.2392 0.0332
2 -1 9 -0.5143 0.0338
2 -1 10 0.1319 -0.0090
2 -1 11 0.2889 -0.0103
2 -1 12 0.2382 0.0078
2 -1 13 0.3435 -0.0105
2 -1 14 0.3101 -0.1103
2 -1 15 -0.0809 -0.1970
2 -1 16 -0.3539 -0.0480
2 -1 17 -0.1360 0.2879
2 -1 18 0.1743 0.4052
2 0 0 0.4319 -0.0116
2 0 1 -0.3243 0.0797
2 0 2 -3.8764 0.0794
2 0 3 -7.9821 0.0909
2 0 4 -9.4290 0.0126
2 0 5 -7.2014 -0.0855
2 0 6 -3.9022 0.0227
2 0 7 -2.1568 0.2118
2 0 8 -1.5823 0.1616
2 0 9 -0.8357 -0.0203
2 0 10 -0.1013 -0.0085
2 0 11 -0.0117 0.0995
2 0 12 -0.1781 0.0231
2 0 13 -0.0251 -0.1300
2 0 14 0.2132 -0.1186
2 0 15 0.0868 0.0281
2 0 16 -0.2486 0.2566
2 0 17 -0.3351 0.5741
2 0 18 -0.1501 0.7213
2 1 0 -2.1180 0.3920
2 1 1 -1.0632 0.5284
2 1 2 -2.7011 0.5346
2 1 3 -6.2666 0.3911
2 1 4 -8.0797 0.1718
2 1 5 -6.4187 0.0452
2 1 6 -3.6986 0.1108
2 1 7 -2.2814 0.1673
2 1 8 -1.6382 0.0210
2 1 9 -0.7858 -0.1234
2 1 10 -0.1509 -0.0552
2 1 11 -0.1246 -0.0005
2 1 12 -0.2048 -0.1199
2 1 13 -0.0197 -0.0985
2 1 14 0.1940 0.1771
2 1 15 0.1596 0.2592
2 1 16 -0.0451 0.0066
2 1 17 -0.1373 -0.0915
2 2 0 -3.1889 -0.0204
2 2 1 -2.0782 -0.1646
2 2 2 -2.0025 -0.2308
2 2 3 -3.8281 -0.2246
2 2 4 -5.2573 -0.1944
2 2 5 -4.6298 -0.1391
2 2 6 -3.1459 -0.0582
2 2 7 -2.0967 -0.0294
2 2 8 -1.2463 -0.0591
2 2 9 -0.4524 -0.0268
2 2 10 -0.1046 0.0468
2 2 11 -0.0467 -0.0130
2 2 12 0.1198 -0.0992
2 2 13 0.2590 0.1049
2 2 14 0.1588 0.3803
2 2 15 -0.0265 0.0706
2 2 16 -0.0981 -0.7374
2 2 17 -0.0108 -1.1029
2 3 0 -2.9704 -0.1815
2 3 1 -2.5398 -0.3036
2 3 2 -1.7945 -0.3590
2 3 3 -2.1620 -0.2807
2 3 4 -3.0238 -0.1952
2 3 5 -3.2647 -0.1303
2 3 6 -2.7906 -0.0473
2 3 7 -1.8754 0.0288
2 3 8 -0.8567 0.0657
2 3 9 -0.2891 0.0689
2 3 10 -0.2289 0.0461
2 3 11 -0.1442 0.0343
2 3 12 0.0491 0.1127
2 3 13 -0.0223 0.2273
2 3 14 -0.2941 0.0607
2 3 15 -0.4034 -0.5958
2 3 16 -0.2968 -1.3050
2 4 0 -2.5109 0.3018
2 4 1 -2.4327 0.3465
2 4 2 -1.6686 0.4204
2 4 3 -1.2730 0.4074
2 4 4 -1.6817 0.2374
2 4 5 -2.4297 0.0785
2 4 6 -2.5878 0.0518
2 4 7 -1.7646 0.0862
2 4 8 -0.7392 0.0522
2 4 9 -0.3622 -0.0997
2 4 10 -0.3943 -0.2161
2 4 11 -0.3668 -0.0685
2 4 12 -0.5040 0.1990
2 4 13 -0.8762 0.0836
2 4 14 -0.9455 -0.5608
2 4 15 -0.5717 -1.1995
2 5 0 -1.7869 0.2697
2 5 1 -1.7232 0.2259
2 5 2 -1.2857 0.2722
2 5 3 -0.7266 0.1569
2 5 4 -0.7669 -0.0045
2 5 5 -1.5672 -0.0028
2 5 6 -2.0338 0.0450
2 5 7 -1.4498 0.0004
2 5 8 -0.6466 -0.0604
2 5 9 -0.4055 -0.1168
2 5 10 -0.3712 -0.1498
2 5 11 -0.3679 0.0136
2 5 12 -0.7959 0.2276
2 5 13 -1.3111 -0.0481
2 5 14 -1.0906 -0.7898
2 6 0 -0.7075 -0.2940
2 6 1 -0.5707 -0.2669
2 6 2 -0.6900 -0.3073
2 6 3 -0.4573 -0.5113
2 6 4 -0.2735 -0.4628
2 6 5 -0.7511 -0.0605
2 6 6 -1.1812 0.1468
2 6 7 -0.8638 -0.0440
2 6 8 -0.4283 -0.1313
2 6 9 -0.3894 0.1028
2 6 10 -0.3261 0.3154
2 6 11 -0.2172 0.3702
2 6 12 -0.5205 0.3394
2 7 0 -0.0006 -0.2153
2 7 1 0.1717 0.0521
2 7 2 -0.3516 0.0743
2 7 3 -0.4285 -0.1102
2 7 4 -0.0890 -0.0665
2 7 5 -0.1806 0.2573
2 7 6 -0.4569 0.2831
2 7 7 -0.3420 -0.1663
2 7 8 -0.2112 -0.4165
2 7 9 -0.3684 -0.0829
2 7 10 -0.3837 0.3334
2 7 11 -0.1790 0.4069
2 8 0 0.0950 0.2982
2 8 1 0.0722 0.3271
2 8 2 -0.5093 0.2864
2 8 3 -0.4638 0.3019
2 8 4 0.1188 0.3399
2 8 5 0.2435 0.3206
2 8 6 -0.0346 0.0865
2 8 7 -0.0911 -0.4018
2 8 8 -0.0573 -0.7334
2 9 0 0.2045 0.2481
2 9 1 -0.1592 -0.1193
2 9 2 -0.6702 -0.4379
2 9 3 -0.4095 -0.2562
2 9 4 0.2827 -0.0192
2 9 5 0.4173 -0.0628
2 9 6 0.0710 -0.1974
2 10 0 0.4618 0.0231
2 10 1 0.0453 -0.1517
2 10 2 -0.3639 -0.5626
3 -12 1 -0.3579 0.0939
3 -12 2 -0.3179 0.2559
3 -12 3 -0.3095 0.1975
3 -12 4 -0.1844 0.0950
3 -12 5 0.1370 0.2151
3 -11 0 -0.0870 0.3515
3 -11 1 -0.2119 0.3199
3 -11 2 -0.2391 0.3791
3 -11 3 -0.4373 0.0907
3 -11 4 -0.5238 -0.2230
3 -11 5 -0.2330 -0.0268
3 -11 6 0.0179 0.2583
3 -11 7 0.1625 0.0945
3 -11 8 0.4728 -0.1290
3 -11 9 0.3370 -0.0710
3 -11 10 -0.3504 -0.0517
3 -10 0 -0.1962 -0.1172
3 -10 1 -0.5547 -0.2209
3 -10 2 -0.6284 -0.0495
3 -10 3 -0.7081 -0.1392
3 -10 4 -0.6576 -0.3573
3 -10 5 -0.3104 -0.1884
3 -10 6 -0.0606 0.0923
3 -10 7 0.1442 0.0010
3 -10 8 0.5559 -0.2070
3 -10 9 0.3167 -0.2560
3 -10 10 -0.6090 -0.2668
3 -10 11 0.3179 -0.0500
3 -10 12 3.9486 0.5099
3 -9 0 -0.4407 -0.3678
3 -9 1 -1.3060 -0.4362
3 -9 2 -1.5486 -0.1579
3 -9 3 -1.3832 0.0541
3 -9 4 -0.8896 0.0752
3 -9 5 -0.2149 0.1410
3 -9 6 0.0268 0.1506
3 -9 7 -0.0486 -0.0264
3 -9 8 0.2539 -0.1277
3 -9 9 0.3830 -0.1083
3 -9 10 -0.2653 -0.1683
3 -9 11 -0.0059 -0.0658
3 -9 12 2.3952 0.3406
3 -9 13 4.3297 0.4346
3 -9 14 3.0725 -0.0367
3 -8 0 -0.5968 0.0516
3 -8 1 -1.6555 -0.0173
3 -8 2 -2.1070 0.1394
3 -8 3 -2.0370 0.2571
3 -8 4 -1.4424 0.2218
3 -8 5 -0.4992 0.1779
3 -8 6 0.0014 0.1087
3 -8 7 -0.1651 0.0065
3 -8 8 -0.1748 0.0476
3 -8 9 0.2094 0.1422
3 -8 10 0.2742 0.0401
3 -8 11 0.0823 -0.0922
3 -8 12 0.3374 -0.0636
3 -8 13 0.6083 -0.1362
3 -8 14 0.0879 -0.3406
3 -8 15 -0.5564 -0.2372
3 -7 0 -0.8907 0.0503
3 -7 1 -1.7688 0.0360
3 -7 2 -2.3824 0.1350
3 -7 3 -2.5684 0.0577
3 -7 4 -2.1252 -0.1690
3 -7 5 -1.1390 -0.2522
3 -7 6 -0.2021 -0.1528
3 -7 7 0.1252 -0.0227
3 -7 8 -0.0131 0.0963
3 -7 9 -0.0167 0.1407
3 -7 10 0.2695 0.0320
3 -7 11 0.3519 -0.1091
3 -7 12 -0.1304 -0.1796
3 -7 13 -0.8280 -0.2400
3 -7 14 -1.0578 -0.1958
3 -7 15 -0.5902 0.0690
3 -7 16 0.0664 0.2579
3 -6 0 -1.3873 -0.2742
3 -6 1 -2.3289 -0.1287
3 -6 2 -3.2286 0.0249
3 -6 3 -3.4529 -0.0514
3 -6 4 -2.8430 -0.2374
3 -6 5 -1.8377 -0.2483
3 -6 6 -0.6518 -0.0914
3 -6 7 0.4332 0.0386
3 -6 8 0.6948 0.0740
3 -6 9 0.1558 0.0315
3 -6 10 -0.1097 -0.0436
3 -6 11 0.2210 -0.0547
3 -6 12 0.2729 -0.0008
3 -6 13 -0.1683 0.0603
3 -6 14 -0.2275 0.2072
3 -6 15 0.3453 0.4062
3 -6 16 0.7287 0.3316
3 -6 17 0.4553 -0.0588
3 -5 0 -1.7739 0.0162
3 -5 1 -3.1074 0.2060
3 -5 2 -4.3370 0.2282
3 -5 3 -4.4850 0.1066
3 -5 4 -3.5778 0.0428
3 -5 5 -2.6088 0.1087
3 -5 6 -1.5788 0.1465
3 -5 7 -0.0835 0.0880
3 -5 8 0.8702 0.0431
3 -5 9 0.4086 0.0264
3 -5 10 -0.2873 -0.0160
3 -5 11 -0.0090 -0.0086
3 -5 12 0.5033 0.0817
3 -5 13 0.3888 0.1405
3 -5 14 0.2545 0.1561
3 -5 15 0.6834 0.1776
3 -5 16 1.0933 0.0561
3 -5 17 0.8743 -0.2836
3 -4 0 -2.0942 0.3424
3 -4 1 -3.4819 0.3437
3 -4 2 -4.7158 0.1820
3 -4 3 -4.9612 0.0108
3 -4 4 -4.1531 -0.0166
3 -4 5 -3.3636 0.0406
3 -4 6 -2.6931 0.0172
3 -4 7 -1.3616 -0.0547
3 -4 8 -0.0153 -0.0260
3 -4 9 0.1264 0.0332
3 -4 10 -0.2773 -0.0244
3 -4 11 0.0426 -0.0778
3 -4 12 0.5927 0.0062
3 -4 13 0.3661 0.0272
3 -4 14 -0.1327 -0.1757
3 -4 15 0.1058 -0.3568
3 -4 16 0.8829 -0.2991
3 -4 17 1.2492 -0.2058
3 -4 18 0.8667 -0.2787
3 -3 0 -2.4609 0.0738
3 -3 1 -3.2321 -0.1035
3 -3 2 -4.3128 -0.2091
3 -3 3 -5.0240 -0.2002
3 -3 4 -4.5578 -0.1622
3 -3 5 -3.6708 -0.1348
3 -3 6 -3.1247 -0.1034
3 -3 7 -2.3586 -0.0644
3 -3 8 -1.2143 -0.0197
3 -3 9 -0.5117 -0.0083
3 -3 10 -0.2883 -0.0680
3 -3 11 0.1372 -0.0957
3 -3 12 0.5323 0.0128
3 -3 13 0.2207 0.0676
3 -3 14 -0.3985 -0.1534
3 -3 15 -0.3369 -0.3696
3 -3 16 0.4868 -0.1221
3 -3 17 1.1795 0.3952
3 -3 18 1.0662 0.5470
3 -2 0 -2.4115 -0.0246
3 -2 1 -2.1831 -0.1407
3 -2 2 -3.4572 -0.1323
3 -2 3 -5.0966 -0.0039
3 -2 4 -4.8751 0.0484
3 -2 5 -3.3372 0.0464
3 -2 6 -2.5126 0.1143
3 -2 7 -2.3921 0.1386
3 -2 8 -1.8163 0.0171
3 -2 9 -0.8810 -0.0631
3 -2 10 -0.2608 0.0195
3 -2 11 0.0488 0.1008
3 -2 12 0.1791 0.0946
3 -2 13 0.0119 0.0872
3 -2 14 -0.2724 0.0551
3 -2 15 -0.2253 0.0300
3 -2 16 0.2409 0.2937
3 -2 17 0.7046 0.8246
3 -2 18 0.7135 1.0391
3 -1 0 -1.9459 0.1754
3 -1 1 -0.6360 0.1980
3 -1 2 -2.0809 0.1727
3 -1 3 -4.6255 0.1773
3 -1 4 -4.6965 0.1372
3 -1 5 -2.6507 0.0919
3 -1 6 -1.5110 0.1298
3 -1 7 -1.7187 0.0896
3 -1 8 -1.5544 -0.1032
3 -1 9 -0.7323 -0.1238
3 -1 10 -0.2167 0.1360
3 -1 11 -0.1868 0.2340
3 -1 12 -0.2022 0.0072
3 -1 13 -0.1344 -0.0949
3 -1 14 -0.0519 0.0815
3 -1 15 0.0396 0.1595
3 -1 16 0.1352 0.1100
3 -1 17 0.2152 0.2673
3 0 0 -2.0533 -0.0119
3 0 1 0.0615 -0.0216
3 0 2 -0.6705 -0.0820
3 0 3 -3.0739 -0.0768
3 0 4 -3.4911 -0.0626
3 0 5 -1.8858 -0.0977
3 0 6 -0.9143 -0.1081
3 0 7 -0.9762 -0.1156
3 0 8 -0.7358 -0.1553
3 0 9 -0.2647 -0.0730
3 0 10 -0.3147 0.1007
3 0 11 -0.5440 0.0218
3 0 12 -0.4009 -0.2458
3 0 13 -0.0911 -0.1727
3 0 14 0.0825 0.1625
3 0 15 0.1332 0.0415
3 0 16 0.0995 -0.5468
3 0 17 0.0255 -0.7941
3 1 0 -2.7484 -0.1806
3 1 1 -0.7218 -0.2855
3 1 2 -0.2108 -0.2934
3 1 3 -1.2479 -0.1268
3 1 4 -1.6203 0.0138
3 1 5 -1.0585 -0.0101
3 1 6 -0.7572 -0.0596
3 1 7 -0.5802 -0.0180
3 1 8 -0.0687 0.0498
3 1 9 0.0359 0.0808
3 1 10 -0.5761 0.0176
3 1 11 -0.9370 -0.1854
3 1 12 -0.5859 -0.2830
3 1 13 -0.1559 0.0209
3 1 14 -0.0313 0.3470
3 1 15 0.0024 0.0008
3 1 16 0.0491 -0.7978
3 2 0 -2.4950 0.0734
3 2 1 -1.5172 0.0089
3 2 2 -0.5378 0.0760
3 2 3 -0.2032 0.2087
3 2 4 -0.1041 0.2096
3 2 5 -0.2442 0.1095
3 2 6 -0.5804 0.0826
3 2 7 -0.4807 0.1233
3 2 8 -0.0431 0.0970
3 2 9 -0.1816 0.0265
3 2 10 -0.8796 0.0206
3 2 11 -1.2019 0.0467
3 2 12 -0.9229 0.0665
3 2 13 -0.5676 0.1423
3 2 14 -0.3379 0.1666
3 2 15 -0.1274 -0.0711
3 2 16 0.0072 -0.3923
3 3 0 -0.9629 -0.0191
3 3 1 -1.0492 0.0256
3 3 2 -0.6022 0.1679
3 3 3 0.1279 0.1432
3 3 4 0.5794 -0.0325
3 3 5 0.3161 -0.0987
3 3 6 -0.2201 -0.0089
3 3 7 -0.3715 0.0059
3 3 8 -0.3383 -0.1441
3 3 9 -0.5934 -0.1961
3 3 10 -0.9890 0.0607
3 3 11 -1.2205 0.3508
3 3 12 -1.2731 0.2426
3 3 13 -1.0581 -0.1805
3 3 14 -0.5086 -0.4092
3 3 15 0.0060 -0.2016
3 4 0 0.1439 -0.3975
3 4 1 -0.2231 -0.2641
3 4 2 -0.3046 -0.1429
3 4 3 0.2432 -0.2308
3 4 4 0.7091 -0.2579
3 4 5 0.5068 -0.0788
3 4 6 0.0862 0.0462
3 4 7 -0.1466 -0.0540
3 4 8 -0.3927 -0.1811
3 4 9 -0.6420 -0.1005
3 4 10 -0.7242 0.1119
3 4 11 -0.9061 0.1074
3 4 12 -1.2382 -0.3227
3 4 13 -1.1159 -0.8295
3 4 14 -0.3834 -0.7821
3 5 0 0.0442 -0.1181
3 5 1 -0.1138 0.0777
3 5 2 -0.2377 0.0094
3 5 3 0.2287 -0.1483
3 5 4 0.6351 0.0175
3 5 5 0.4490 0.2990
3 5 6 0.1626 0.2103
3 5 7 0.0447 -0.0630
3 5 8 -0.1667 0.0162
3 5 9 -0.3313 0.3224
3 5 10 -0.2717 0.2247
3 5 11 -0.3635 -0.4317
3 5 12 -0.6507 -1.1050
3 6 0 -0.1604 0.2966
3 6 1 -0.2369 0.3866
3 6 2 -0.3144 0.1957
3 6 3 0.1828 0.0771
3 6 4 0.5929 0.2208
3 6 5 0.3702 0.2466
3 6 6 0.0812 -0.1091
3 6 7 0.0978 -0.3445
3 6 8 0.1055 0.0602
3 6 9 0.0377 0.6153
3 6 10 0.0508 0.4052
3 6 11 0.0368 -0.5127
3 7 0 0.0573 0.0228
3 7 1 -0.1323 -0.2108
3 7 2 -0.2652 -0.2900
3 7 3 0.2731 -0.0045
3 7 4 0.7481 0.1624
3 7 5 0.4601 -0.1663
3 7 6 0.0074 -0.6290
3 7 7 0.0462 -0.5953
3 7 8 0.3023 0.0375
3 7 9 0.3395 0.6488
3 8 0 0.0543 0.0887
3 8 1 -0.2119 -0.4433
3 8 2 -0.3500 -0.5240
3 8 3 0.2668 0.1427
3 8 4 0.8836 0.4611
3 8 5 0.6243 -0.0701
3 8 6 0.0136 -0.6111
3 9 0 -0.2212 1.0859
3 9 1 -0.4106 0.4205
3 9 2 -0.5379 -0.0521
3 9 3 -0.0156 0.4385
4 -11 0 -0.5543 -0.9249
4 -11 1 -0.4679 -0.5119
4 -11 2 -0.3288 0.0918
4 -11 3 -0.4319 0.1372
4 -11 4 -0.3665 -0.1231
4 -11 5 -0.2004 -0.1271
4 -11 6 -0.2588 -0.0646
4 -11 7 -0.0831 -0.0733
4 -11 8 0.2721 0.2028
4 -11 9 -0.3982 0.6194
4 -10 0 -1.0705 0.1127
4 -10 1 -1.1318 0.2520
4 -10 2 -0.9648 0.4411
4 -10 3 -1.0006 0.3636
4 -10 4 -0.7528 0.1383
4 -10 5 -0.3707 0.0120
4 -10 6 -0.4838 -0.1042
4 -10 7 -0.5424 -0.1223
4 -10 8 -0.1242 0.1999
4 -10 9 -0.4745 0.5406
4 -10 10 -1.8851 0.4664
4 -10 11 -2.1773 0.2573
4 -10 12 -0.4897 0.2782
4 -9 0 -1.3770 0.3782
4 -9 1 -1.2559 0.2597
4 -9 2 -1.0538 0.1092
4 -9 3 -1.2721 -0.0257
4 -9 4 -1.0758 -0.0537
4 -9 5 -0.4312 -0.0292
4 -9 6 -0.3732 -0.1153
4 -9 7 -0.6712 -0.1572
4 -9 8 -0.2663 0.0315
4 -9 9 0.3146 0.1569
4 -9 10 -0.0611 0.0051
4 -9 11 -0.7718 -0.0749
4 -9 12 -0.6727 0.1102
4 -9 13 -0.1864 0.2417
4 -8 0 -1.4512 -0.2224
4 -8 1 -0.8755 -0.2786
4 -8 2 -0.6236 -0.3536
4 -8 3 -1.2121 -0.3601
4 -8 4 -1.5105 -0.1842
4 -8 5 -0.9249 0.0324
4 -8 6 -0.3561 0.0411
4 -8 7 -0.3500 -0.0593
4 -8 8 -0.2410 -0.0699
4 -8 9 0.3785 -0.0988
4 -8 10 0.8724 -0.1826
4 -8 11 0.6194 -0.0950
4 -8 12 -0.1305 0.1214
4 -8 13 -0.6824 0.1630
4 -8 14 -0.6845 0.0289
4 -8 15 -0.3925 -0.1017
4 -7 0 -1.5449 -0.1228
4 -7 1 -1.0594 -0.1016
4 -7 2 -0.8518 -0.0742
4 -7 3 -1.3207 -0.0301
4 -7 4 -1.9089 0.1213
4 -7 5 -1.8637 0.2658
4 -7 6 -1.0820 0.1894
4 -7 7 -0.3111 -0.0049
4 -7 8 -0.2556 -0.0936
4 -7 9 -0.5282 -0.1006
4 -7 10 -0.3308 -0.0608
4 -7 11 0.1061 0.0867
4 -7 12 0.0304 0.1896
4 -7 13 -0.3381 0.0782
4 -7 14 -0.2641 -0.0813
4 -7 15 0.0859 -0.1671
4 -7 16 0.0581 -0.3270
4 -6 0 -1.4534 0.3111
4 -6 1 -1.9406 0.2167
4 -6 2 -2.0591 0.1648
4 -6 3 -1.7883 0.1590
4 -6 4 -1.8410 0.2007
4 -6 5 -2.2988 0.1860
4 -6 6 -2.0186 0.0233
4 -6 7 -0.8677 -0.1174
4 -6 8 -0.4215 -0.0713
4 -6 9 -1.1513 0.0235
4 -6 10 -1.5355 0.0479
4 -6 11 -0.8420 0.0716
4 -6 12 -0.0913 0.0402
4 -6 13 0.1432 -0.1142
4 -6 14 0.4089 -0.1592
4 -6 15 0.8106 0.0207
4 -6 16 0.7916 0.0854
4 -5 0 -0.9838 -0.1074
4 -5 1 -2.1158 -0.2156
4 -5 2 -2.6328 -0.1909
4 -5 3 -1.9161 -0.1048
4 -5 4 -1.2471 -0.0653
4 -5 5 -1.7002 -0.1056
4 -5 6 -2.0772 -0.1746
4 -5 7 -1.3599 -0.1304
4 -5 8 -0.7669 0.0439
4 -5 9 -1.2024 0.1303
4 -5 10 -1.4947 0.0426
4 -5 11 -0.7863 -0.0287
4 -5 12 0.0360 -0.0417
4 -5 13 0.2407 -0.1433
4 -5 14 0.2940 -0.1883
4 -5 15 0.5720 0.1061
4 -5 16 0.7203 0.5137
4 -4 0 -0.6831 -0.4554
4 -4 1 -0.9548 -0.4120
4 -4 2 -1.4102 -0.1918
4 -4 3 -1.1129 -0.0148
4 -4 4 -0.5206 -0.0159
4 -4 5 -0.7234 -0.0619
4 -4 6 -1.2792 -0.0294
4 -4 7 -1.2787 0.0454
4 -4 8 -1.1363 0.0875
4 -4 9 -1.3459 0.0520
4 -4 10 -1.3074 -0.0277
4 -4 11 -0.6847 -0.0240
4 -4 12 -0.1375 0.0722
4 -4 13 -0.0951 0.0660
4 -4 14 -0.2142 -0.0497
4 -4 15 -0.1638 0.0719
4 -4 16 -0.0302 0.5320
4 -4 17 -0.0028 0.8288
4 -3 0 -0.8295 0.0513
4 -3 1 0.3479 0.1356
4 -3 2 0.3378 0.2744
4 -3 3 -0.0574 0.2816
4 -3 4 -0.0840 0.1383
4 -3 5 -0.1389 0.0741
4 -3 6 -0.4790 0.1357
4 -3 7 -0.8628 0.0982
4 -3 8 -1.2646 -0.0635
4 -3 9 -1.6128 -0.1184
4 -3 10 -1.5706 -0.0412
4 -3 11 -1.1570 -0.0090
4 -3 12 -0.7226 -0.0106
4 -3 13 -0.3918 0.0529
4 -3 14 -0.1802 0.1015
4 -3 15 -0.1788 0.1221
4 -3 16 -0.2856 0.2824
4 -3 17 -0.2816 0.4897
4 -2 0 -0.7939 0.2116
4 -2 1 0.7475 0.2338
4 -2 2 0.9397 0.1586
4 -2 3 0.2856 0.0190
4 -2 4 -0.0452 -0.1049
4 -2 5 -0.0149 -0.0880
4 -2 6 -0.0736 0.0190
4 -2 7 -0.4052 -0.0041
4 -2 8 -1.0319 -0.1154
4 -2 9 -1.6556 -0.0473
4 -2 10 -1.7959 0.1021
4 -2 11 -1.4083 -0.0116
4 -2 12 -0.7758 -0.2411
4 -2 13 -0.0866 -0.1549
4 -2 14 0.3846 0.1122
4 -2 15 0.3382 0.1016
4 -2 16 -0.0282 -0.1156
4 -2 17 -0.2094 -0.1684
4 -1 0 -0.4570 -0.1758
4 -1 1 0.4547 -0.1830
4 -1 2 0.6191 -0.2645
4 -1 3 0.2307 -0.2594
4 -1 4 -0.0058 -0.1949
4 -1 5 -0.0262 -0.1395
4 -1 6 0.0491 -0.0712
4 -1 7 0.0024 0.0038
4 -1 8 -0.6028 0.0711
4 -1 9 -1.5513 0.1506
4 -1 10 -1.8807 0.1461
4 -1 11 -1.2343 -0.0298
4 -1 12 -0.2585 -0.1406
4 -1 13 0.4066 0.0293
4 -1 14 0.6023 0.1384
4 -1 15 0.3876 -0.2058
4 -1 16 -0.0003 -0.6682
4 0 0 -0.4698 0.0579
4 0 1 -0.0934 -0.0130
4 0 2 0.2776 -0.0406
4 0 3 0.5208 0.0718
4 0 4 0.5121 0.1475
4 0 5 0.2093 0.0706
4 0 6 0.0997 -0.0034
4 0 7 0.2107 0.0543
4 0 8 -0.2880 0.1208
4 0 9 -1.3968 0.0437
4 0 10 -1.8331 -0.1046
4 0 11 -1.0590 -0.0871
4 0 12 -0.0795 0.1875
4 0 13 0.2062 0.3935
4 0 14 0.0074 0.0695
4 0 15 -0.1677 -0.6495
4 0 16 -0.2133 -1.0150
4 1 0 -0.5844 0.3923
4 1 1 -0.5551 0.2906
4 1 2 -0.0257 0.2513
4 1 3 0.8353 0.2315
4 1 4 1.2127 0.1504
4 1 5 0.7765 0.0449
4 1 6 0.3323 0.0059
4 1 7 0.2578 0.0071
4 1 8 -0.1560 -0.0624
4 1 9 -1.0094 -0.1891
4 1 10 -1.3317 -0.1972
4 1 11 -0.8373 0.0165
4 1 12 -0.3941 0.2551
4 1 13 -0.5042 0.1320
4 1 14 -0.7098 -0.4344
4 1 15 -0.5771 -0.9246
4 2 0 -0.0514 -0.0966
4 2 1 -0.4414 -0.0487
4 2 2 -0.2572 -0.0346
4 2 3 0.6707 -0.1444
4 2 4 1.3543 -0.2211
4 2 5 1.1666 -0.1316
4 2 6 0.6888 0.0080
4 2 7 0.3866 0.0101
4 2 8 0.0256 -0.0872
4 2 9 -0.3912 -0.0593
4 2 10 -0.5698 0.1442
4 2 11 -0.6334 0.2420
4 2 12 -0.8189 -0.0470
4 2 13 -0.9287 -0.6077
4 2 14 -0.7292 -0.9730
4 3 0 0.5658 -0.2750
4 3 1 0.1000 -0.1161
4 3 2 -0.0607 -0.1203
4 3 3 0.4497 -0.1934
4 3 4 0.9425 -0.1257
4 3 5 0.9666 0.0063
4 3 6 0.7981 0.0274
4 3 7 0.5897 -0.0159
4 3 8 0.3248 0.0434
4 3 9 0.1173 0.2171
4 3 10 -0.1837 0.2877
4 3 11 -0.7761 0.0106
4 3 12 -1.1926 -0.5453
4 3 13 -0.9065 -0.9321
4 4 0 0.3985 0.3505
4 4 1 0.2890 0.3587
4 4 2 0.2991 0.1651
4 4 3 0.5084 0.1271
4 4 4 0.5582 0.2623
4 4 5 0.5518 0.1864
4 4 6 0.7100 -0.1101
4 4 7 0.7570 -0.1863
4 4 8 0.5608 0.0557
4 4 9 0.2862 0.1587
4 4 10 -0.2320 -0.1990
4 4 11 -0.9686 -0.7419
4 4 12 -1.1759 -0.9403
4 5 0 0.0046 0.3066
4 5 1 0.0519 0.1478
4 5 2 0.3012 -0.0190
4 5 3 0.4853 0.0600
4 5 4 0.3753 0.1445
4 5 5 0.4094 -0.0240
4 5 6 0.7619 -0.1736
4 5 7 0.9124 0.0111
4 5 8 0.6627 0.2390
4 5 9 0.2583 -0.0206
4 5 10 -0.2752 -0.7163
4 5 11 -0.7306 -1.1638
4 6 0 0.0992 -0.3487
4 6 1 -0.0394 -0.4952
4 6 2 0.1408 -0.2866
4 6 3 0.3383 -0.0295
4 6 4 0.3367 -0.2175
4 6 5 0.4701 -0.4324
4 6 6 0.7802 0.0064
4 6 7 0.8459 0.7222
4 6 8 0.5904 0.7786
4 6 9 0.2265 0.0661
4 7 0 0.3133 -0.0971
4 7 1 0.0935 -0.3265
4 7 2 0.1694 0.1086
4 7 3 0.3861 0.4310
4 7 4 0.4954 -0.1783
4 7 5 0.5131 -0.7313
4 7 6 0.4579 -0.0694
4 7 7 0.3432 0.9717
4 8 0 0.3513 0.4966
4 8 1 0.2414 -0.0409
4 8 2 0.2437 0.2334
4 8 3 0.4254 0.6408
4 8 4 0.5779 0.0499
5 -11 0 -0.5444 0.7369
5 -11 1 -0.5469 0.3715
5 -11 2 -0.5886 -0.0515
5 -11 3 -0.6693 -0.1864
5 -11 4 -0.4065 -0.0883
5 -11 5 -0.2374 -0.0488
5 -11 6 -0.4299 -0.0992
5 -11 7 -0.2907 0.0281
5 -11 8 0.2112 0.3488
5 -10 0 -0.7810 0.0295
5 -10 1 -0.5258 -0.1525
5 -10 2 -0.4507 -0.3671
5 -10 3 -0.5246 -0.2774
5 -10 4 -0.1341 -0.0277
5 -10 5 0.0744 0.0164
5 -10 6 -0.6074 -0.0963
5 -10 7 -1.1196 -0.0477
5 -10 8 -0.4383 0.1492
5 -10 9 0.5713 0.3097
5 -10 10 0.8231 0.4986
5 -9 0 -0.3251 -0.0282
5 -9 1 0.2264 0.0460
5 -9 2 0.2627 -0.0381
5 -9 3 -0.0900 0.0097
5 -9 4 0.0955 0.1764
5 -9 5 0.3516 0.1925
5 -9 6 -0.4117 0.0824
5 -9 7 -1.5397 0.0653
5 -9 8 -1.4553 0.0854
5 -9 9 -0.1202 0.0821
5 -9 10 1.0722 0.2814
5 -9 11 1.1843 0.6247
5 -9 12 0.4973 0.6241
5 -8 0 0.3368 0.3025
5 -8 1 0.6944 0.3492
5 -8 2 0.6804 0.1993
5 -8 3 0.2827 0.0666
5 -8 4 0.1017 0.0668
5 -8 5 0.1630 0.0538
5 -8 6 -0.1582 0.0020
5 -8 7 -0.9934 0.0266
5 -8 8 -1.5699 0.0328
5 -8 9 -1.1383 -0.0571
5 -8 10 -0.0005 -0.0216
5 -8 11 0.7322 0.1576
5 -8 12 0.5007 0.1144
5 -8 13 -0.0805 -0.1707
5 -7 0 0.1903 0.0490
5 -7 1 -0.0493 -0.0062
5 -7 2 0.1824 -0.0882
5 -7 3 0.5941 -0.1490
5 -7 4 0.5668 -0.1488
5 -7 5 0.2020 -0.1646
5 -7 6 0.0256 -0.1784
5 -7 7 -0.1507 -0.0823
5 -7 8 -0.7343 0.0076
5 -7 9 -1.1762 -0.0768
5 -7 10 -0.7556 -0.1807
5 -7 11 0.0565 -0.1487
5 -7 12 0.3382 -0.1448
5 -7 13 0.1151 -0.1933
5 -7 14 -0.0338 -0.0137
5 -6 0 -0.2746 -0.2096
5 -6 1 -0.8761 -0.2131
5 -6 2 -0.4268 -0.1192
5 -6 3 0.8371 -0.0298
5 -6 4 1.3683 -0.0136
5 -6 5 0.8174 -0.0542
5 -6 6 0.2613 -0.0549
5 -6 7 0.0060 0.0532
5 -6 8 -0.4763 0.1331
5 -6 9 -0.9189 0.0301
5 -6 10 -0.6701 -0.0938
5 -6 11 -0.0479 -0.0245
5 -6 12 0.2170 0.0818
5 -6 13 0.1128 0.0331
5 -6 14 0.0276 0.0418
5 -6 15 0.0525 0.2910
5 -5 0 0.0001 0.1725
5 -5 1 -0.1947 0.1755
5 -5 2 0.1801 0.2181
5 -5 3 1.1702 0.1995
5 -5 4 1.6431 0.1029
5 -5 5 1.2085 0.0504
5 -5 6 0.4675 0.0955
5 -5 7 -0.3631 0.1588
5 -5 8 -1.1776 0.1365
5 -5 9 -1.3296 0.0315
5 -5 10 -0.6873 -0.0016
5 -5 11 -0.0670 0.1374
5 -5 12 0.0695 0.2452
5 -5 13 0.0456 0.0516
5 -5 14 0.0784 -0.2848
5 -5 15 0.0732 -0.3274
5 -4 0 0.4004 0.3113
5 -4 1 1.0981 0.2146
5 -4 2 1.6681 0.1065
5 -4 3 1.9065 -0.0212
5 -4 4 1.5872 -0.1145
5 -4 5 1.1129 -0.0809
5 -4 6 0.6586 0.0037
5 -4 7 -0.2954 -0.0133
5 -4 8 -1.4671 -0.0970
5 -4 9 -1.6958 -0.1058
5 -4 10 -0.9650 -0.0396
5 -4 11 -0.3700 0.0116
5 -4 12 -0.1882 0.0174
5 -4 13 0.0514 -0.0484
5 -4 14 0.2905 -0.2015
5 -4 15 0.2508 -0.3083
5 -3 0 -0.0414 -0.1309
5 -3 1 1.1008 -0.2119
5 -3 2 2.4056 -0.2441
5 -3 3 2.7621 -0.2018
5 -3 4 1.9382 -0.1166
5 -3 5 1.1858 -0.0328
5 -3 6 1.0607 -0.0205
5 -3 7 0.5227 -0.0970
5 -3 8 -0.6919 -0.1356
5 -3 9 -1.3582 -0.0525
5 -3 10 -1.0499 -0.0001
5 -3 11 -0.5789 -0.1027
5 -3 12 -0.2606 -0.1593
5 -3 13 0.1131 0.0479
5 -3 14 0.3171 0.3362
5 -3 15 0.1855 0.3725
5 -2 0 -0.5518 -0.1714
5 -2 1 0.2257 -0.1751
5 -2 2 2.0486 -0.0732
5 -2 3 3.0930 0.0991
5 -2 4 2.3881 0.1958
5 -2 5 1.4272 0.1438
5 -2 6 1.4484 0.0417
5 -2 7 1.3755 0.0251
5 -2 8 0.2460 0.0936
5 -2 9 -0.9289 0.1320
5 -2 10 -1.0946 0.0784
5 -2 11 -0.5902 0.0138
5 -2 12 -0.0827 0.0506
5 -2 13 0.1571 0.1684
5 -2 14 0.0473 0.2374
5 -2 15 -0.1870 0.1820
5 -1 0 -0.1730 0.1392
5 -1 1 0.0136 0.1284
5 -1 2 1.5743 0.1916
5 -1 3 2.8032 0.2166
5 -1 4 2.3226 0.1375
5 -1 5 1.3643 -0.0058
5 -1 6 1.4056 -0.0776
5 -1 7 1.5522 0.0067
5 -1 8 0.5479 0.1039
5 -1 9 -0.8077 0.0306
5 -1 10 -1.1465 -0.0710
5 -1 11 -0.5676 0.0622
5 -1 12 -0.0251 0.2318
5 -1 13 0.0117 -0.0418
5 -1 14 -0.2297 -0.6653
5 -1 15 -0.3145 -0.9553
5 0 0 0.4518 -0.0870
5 0 1 0.3001 -0.0256
5 0 2 1.1722 -0.0019
5 0 3 2.0845 -0.1138
5 0 4 1.8624 -0.1857
5 0 5 1.2016 -0.1315
5 0 6 1.1924 -0.0711
5 0 7 1.2243 -0.0690
5 0 8 0.3979 -0.1067
5 0 9 -0.6309 -0.1887
5 0 10 -0.8417 -0.2066
5 0 11 -0.4240 -0.0235
5 0 12 -0.1493 0.0873
5 0 13 -0.2141 -0.3354
5 0 14 -0.2603 -1.0435
5 1 0 0.4482 -0.3339
5 1 1 0.2060 -0.1452
5 1 2 0.5269 -0.1307
5 1 3 1.1107 -0.2138
5 1 4 1.2422 -0.1028
5 1 5 1.1219 0.1460
5 1 6 1.1562 0.2095
5 1 7 0.9518 0.0557
5 1 8 0.2727 -0.0519
5 1 9 -0.3029 -0.0231
5 1 10 -0.3974 0.0192
5 1 11 -0.2941 0.0373
5 1 12 -0.2235 0.0313
5 1 13 -0.1133 -0.0698
5 1 14 0.0683 -0.1588
5 2 0 0.0447 0.0997
5 2 1 -0.0235 0.1487
5 2 2 0.1894 0.0145
5 2 3 0.4889 0.0060
5 2 4 0.6187 0.1584
5 2 5 0.8118 0.1954
5 2 6 1.0286 0.0757
5 2 7 0.8126 0.0580
5 2 8 0.2716 0.2113
5 2 9 -0.1034 0.2800
5 2 10 -0.3163 0.1347
5 2 11 -0.4593 0.0377
5 2 12 -0.2516 0.2632
5 2 13 0.2527 0.6860
5 3 0 -0.1691 0.3226
5 3 1 0.0631 0.0871
5 3 2 0.5420 -0.1028
5 3 3 0.6243 0.0825
5 3 4 0.3724 0.1809
5 3 5 0.4812 -0.1730
5 3 6 0.8002 -0.4546
5 3 7 0.6540 -0.1740
5 3 8 0.1984 0.1988
5 3 9 -0.1223 0.0091
5 3 10 -0.4248 -0.4666
5 3 11 -0.6127 -0.4002
5 3 12 -0.2321 0.3627
5 4 0 -0.0454 -0.0862
5 4 1 0.2351 -0.3393
5 4 2 0.8600 -0.2779
5 4 3 0.8185 0.1124
5 4 4 0.4045 0.1756
5 4 5 0.5606 -0.1711
5 4 6 0.8970 -0.2461
5 4 7 0.5819 0.0520
5 4 8 -0.0001 -0.0447
5 4 9 -0.2394 -0.7934
5 4 10 -0.3385 -1.3219
5 5 0 0.0713 -0.1238
5 5 1 0.2349 -0.1756
5 5 2 0.6547 0.0862
5 5 3 0.4032 0.1864
5 5 4 0.1068 -0.0738
5 5 5 0.5970 0.0086
5 5 6 1.0322 0.6836
5 5 7 0.5419 0.9042
5 5 8 -0.1507 -0.0587
5 5 9 -0.2665 -1.2814
5 6 0 -0.2488 0.1056
5 6 1 0.0028 0.2496
5 6 2 0.2733 0.5232
5 6 3 -0.1660 -0.0034
5 6 4 -0.4256 -0.8945
5 6 5 0.1664 -0.5328
5 6 6 0.6247 0.9441
5 7 0 -0.7445 -0.3889
5 7 1 -0.3802 -0.0537
5 7 2 -0.0351 0.3886
5 7 3 -0.3465 -0.2135
5 7 4 -0.5490 -1.3528
6 -11 0 0.7199 -0.7855
6 -11 1 0.8294 -0.1579
6 -11 2 0.6093 0.2485
6 -11 3 0.4466 0.2437
6 -11 4 0.5283 -0.1906
6 -11 5 0.2216 -0.5293
6 -10 0 0.6174 -0.1990
6 -10 1 0.6753 0.1774
6 -10 2 0.5479 0.4534
6 -10 3 0.5791 0.3937
6 -10 4 0.7822 -0.0778
6 -10 5 0.3678 -0.4604
6 -10 6 -0.8442 -0.1865
6 -10 7 -1.7621 0.3339
6 -10 8 -1.5793 0.2296
6 -10 9 -0.7926 -0.3417
6 -9 0 0.2386 0.0399
6 -9 1 0.2015 -0.0076
6 -9 2 0.4187 0.0054
6 -9 3 0.7190 0.0212
6 -9 4 0.7538 -0.1151
6 -9 5 0.2937 -0.2843
6 -9 6 -0.4824 -0.1449
6 -9 7 -1.1137 0.1599
6 -9 8 -1.2568 0.0922
6 -9 9 -0.9219 -0.2900
6 -9 10 -0.4531 -0.3674
6 -9 11 -0.2110 -0.0445
6 -8 0 0.2327 -0.2057
6 -8 1 0.1979 -0.1939
6 -8 2 0.9368 -0.1831
6 -8 3 1.5195 -0.0977
6 -8 4 0.9926 0.0003
6 -8 5 0.0223 -0.0086
6 -8 6 -0.2705 -0.0327
6 -8 7 -0.0869 0.0338
6 -8 8 -0.1848 0.0589
6 -8 9 -0.4613 -0.0247
6 -8 10 -0.4886 -0.0229
6 -8 11 -0.3925 0.1345
6 -8 12 -0.3577 0.2284
6 -7 0 0.6358 -0.1116
6 -7 1 0.6087 0.0818
6 -7 2 1.4507 0.1462
6 -7 3 2.1232 0.1338
6 -7 4 1.3645 0.1648
6 -7 5 0.0703 0.1717
6 -7 6 -0.2801 0.0796
6 -7 7 -0.0105 -0.0057
6 -7 8 -0.0858 0.0061
6 -7 9 -0.3455 0.0548
6 -7 10 -0.3534 0.1006
6 -7 11 -0.3450 0.1679
6 -7 12 -0.4547 0.1830
6 -7 13 -0.3696 0.0481
6 -6 0 1.0159 0.0853
6 -6 1 0.9481 0.1653
6 -6 2 1.2496 0.1302
6 -6 3 1.5867 0.0038
6 -6 4 1.2489 -0.0204
6 -6 5 0.6812 0.0577
6 -6 6 0.3729 0.0498
6 -6 7 -0.1091 -0.0614
6 -6 8 -0.7421 -0.1076
6 -6 9 -0.7644 -0.0523
6 -6 10 -0.2688 -0.0060
6 -6 11 -0.1005 -0.0014
6 -6 12 -0.2943 -0.0434
6 -6 13 -0.2472 -0.2121
6 -5 0 0.9635 -0.1134
6 -5 1 1.0179 -0.1401
6 -5 2 0.9606 -0.1987
6 -5 3 0.9096 -0.2412
6 -5 4 0.9860 -0.1732
6 -5 5 1.4097 -0.0461
6 -5 6 1.4915 -0.0226
6 -5 7 0.4260 -0.0986
6 -5 8 -0.8751 -0.0949
6 -5 9 -1.0037 0.0091
6 -5 10 -0.3536 0.0224
6 -5 11 -0.1166 -0.1061
6 -5 12 -0.2724 -0.2093
6 -5 13 -0.2030 -0.2237
6 -5 14 0.0524 -0.2392
6 -4 0 0.4154 -0.1379
6 -4 1 0.7032 -0.1140
6 -4 2 1.0771 -0.0761
6 -4 3 1.1793 0.0189
6 -4 4 1.2040 0.1007
6 -4 5 1.6517 0.0778
6 -4 6 1.8270 -0.0135
6 -4 7 0.8146 -0.0389
6 -4 8 -0.5371 0.0569
6 -4 9 -0.8998 0.1629
6 -4 10 -0.5396 0.1311
6 -4 11 -0.3218 -0.0151
6 -4 12 -0.2770 -0.0687
6 -4 13 -0.2230 0.1024
6 -4 14 -0.2252 0.3463
6 -3 0 -0.1535 0.1694
6 -3 1 0.1350 0.1511
6 -3 2 1.0414 0.1680
6 -3 3 1.5698 0.2233
6 -3 4 1.3680 0.2036
6 -3 5 1.1728 0.0647
6 -3 6 1.0691 -0.0240
6 -3 7 0.4791 0.0520
6 -3 8 -0.3599 0.1175
6 -3 9 -0.7703 0.0318
6 -3 10 -0.6858 -0.0226
6 -3 11 -0.3021 0.0964
6 -3 12 0.1441 0.1985
6 -3 13 0.1524 0.1596
6 -3 14 -0.2973 0.1720
6 -2 0 -0.2303 0.0752
6 -2 1 -0.1444 0.0355
6 -2 2 0.6032 -0.0163
6 -2 3 1.1444 -0.0928
6 -2 4 0.8951 -0.1371
6 -2 5 0.3935 -0.1395
6 -2 6 0.1250 -0.0664
6 -2 7 -0.0538 0.0631
6 -2 8 -0.3051 0.0301
6 -2 9 -0.5913 -0.2097
6 -2 10 -0.6644 -0.2418
6 -2 11 -0.1730 0.0908
6 -2 12 0.5538 0.1655
6 -2 13 0.5993 -0.4150
6 -2 14 -0.0357 -0.9504
6 -1 0 0.1374 -0.2149
6 -1 1 0.0868 -0.0641
6 -1 2 0.2157 -0.0677
6 -1 3 0.3988 -0.2014
6 -1 4 0.3619 -0.1838
6 -1 5 0.1082 -0.0484
6 -1 6 -0.1957 -0.0108
6 -1 7 -0.3433 -0.0342
6 -1 8 -0.3120 -0.0270
6 -1 9 -0.3906 -0.0442
6 -1 10 -0.5463 -0.0313
6 -1 11 -0.2733 0.0227
6 -1 12 0.3158 -0.2731
6 -1 13 0.4384 -1.0699
6 0 0 0.5326 0.0380
6 0 1 0.4489 0.2239
6 0 2 0.1074 0.1969
6 0 3 -0.0428 0.0831
6 0 4 0.1830 0.1439
6 0 5 0.3823 0.2124
6 0 6 0.1186 0.0315
6 0 7 -0.3070 -0.1442
6 0 8 -0.3967 0.0436
6 0 9 -0.3652 0.3664
6 0 10 -0.5000 0.3409
6 0 11 -0.4582 -0.0943
6 0 12 -0.1193 -0.6528
6 1 0 0.4811 0.3249
6 1 1 0.5245 0.2035
6 1 2 0.2195 0.0443
6 1 3 -0.1590 0.0481
6 1 4 -0.0379 0.1182
6 1 5 0.4538 0.0426
6 1 6 0.5305 -0.1149
6 1 7 0.0940 -0.0909
6 1 8 -0.2267 0.1463
6 1 9 -0.3090 0.2733
6 1 10 -0.4163 0.0400
6 1 11 -0.3817 -0.3462
6 1 12 -0.0937 -0.4662
6 2 0 -0.1899 0.0423
6 2 1 0.1705 -0.2495
6 2 2 0.4304 -0.3082
6 2 3 0.0311 -0.0780
6 2 4 -0.2628 -0.0745
6 2 5 0.1962 -0.2969
6 2 6 0.6772 -0.2059
6 2 7 0.5001 0.1392
6 2 8 0.0902 0.0700
6 2 9 -0.1047 -0.5177
6 2 10 -0.1647 -0.9104
6 2 11 -0.0884 -0.5857
6 3 0 -0.7496 -0.1423
6 3 1 -0.2495 -0.2698
6 3 2 0.4981 -0.0509
6 3 3 0.2915 0.2418
6 3 4 -0.1238 0.0824
6 3 5 0.2675 -0.1549
6 3 6 0.7538 0.1211
6 3 7 0.4683 0.3630
6 3 8 -0.0619 -0.2845
6 3 9 -0.1560 -1.3167
6 4 0 -0.3301 0.0522
6 4 1 -0.0107 0.1207
6 4 2 0.5070 0.3366
6 4 3 0.2426 0.2394
6 4 4 0.0543 -0.0579
6 4 5 0.6231 0.1421
6 4 6 0.8933 0.7054
6 4 7 0.1947 0.5172
6 4 8 -0.5019 -0.6263
6 5 0 0.4587 -0.1580
6 5 1 0.7663 0.1771
6 5 2 0.7705 0.1930
6 5 3 0.0917 -0.4867
6 5 4 -0.0665 -0.8471
6 5 5 0.6028 0.0145
6 5 6 0.7800 1.0189
6 6 0 0.3913 -0.6505
6 6 1 0.9783 0.0872
6 6 2 0.9592 0.1173
6 6 3 0.1422 -0.7666
7 -10 0 0.0012 -0.6588
7 -10 1 0.1789 -0.6781
7 -10 2 0.4706 -0.1138
7 -10 3 0.5786 0.2729
7 -10 4 0.2071 -0.1025
7 -10 5 -0.3269 -0.7398
7 -9 0 -0.1471 0.0165
7 -9 1 0.2496 -0.1862
7 -9 2 0.8330 -0.0231
7 -9 3 0.2368 0.2685
7 -9 4 -1.7852 0.1996
7 -9 5 -3.2455 -0.2442
7 -9 6 -2.6265 -0.5090
7 -9 7 -0.9653 -0.1854
7 -9 8 0.0404 0.4465
7 -8 0 -0.1749 0.4115
7 -8 1 0.1006 0.2379
7 -8 2 0.6782 0.0234
7 -8 3 -0.2597 -0.0263
7 -8 4 -3.0296 0.0912
7 -8 6 -3.8544 -0.0591
7 -8 7 -1.4518 -0.0686
7 -8 8 0.0342 0.2755
7 -8 9 0.4114 0.5374
7 -8 10 0.4044 0.3011
7 -7 0 0.0578 -0.0403
7 -7 1 0.0220 0.0125
7 -7 2 0.3066 -0.1432
7 -7 3 -0.1941 -0.3124
7 -7 4 -1.8373 -0.1573
7 -7 5 -2.8708 0.1320
7 -7 6 -2.1679 0.1054
7 -7 7 -0.9125 -0.1183
7 -7 8 -0.2706 -0.0876
7 -7 9 0.0779 0.0697
7 -7 10 0.4028 -0.1033
7 -7 11 0.3156 -0.4343
7 -6 0 0.3930 -0.2205
7 -6 1 0.0994 -0.0194
7 -6 2 0.0363 0.0067
7 -6 3 0.1256 -0.1142
7 -6 4 0.1523 -0.0706
7 -6 5 0.3431 0.1008
7 -6 6 0.4297 0.0603
7 -6 7 -0.1484 -0.1334
7 -6 8 -0.8923 -0.0928
7 -6 9 -0.8542 0.0792
7 -6 10 -0.2719 -0.1141
7 -6 11 -0.0281 -0.5960
7 -5 0 0.4117 0.1704
7 -5 1 -0.0934 0.2828
7 -5 2 -0.2979 0.2771
7 -5 3 0.0601 0.1611
7 -5 4 0.8055 0.0695
7 -5 5 1.3905 0.0265
7 -5 6 1.0176 -0.0296
7 -5 7 -0.2990 -0.0345
7 -5 8 -1.3786 0.1108
7 -5 9 -1.3703 0.2336
7 -5 10 -0.7200 0.0190
7 -5 11 -0.2103 -0.4653
7 -5 12 -0.0164 -0.7309
7 -4 0 0.2014 0.1578
7 -4 1 -0.4673 0.1294
7 -4 2 -0.7140 0.0321
7 -4 3 -0.3250 -0.0394
7 -4 4 0.3823 -0.0634
7 -4 5 0.6736 -0.0773
7 -4 6 0.0944 -0.0400
7 -4 7 -0.8137 0.0428
7 -4 8 -1.2087 0.0310
7 -4 9 -1.0030 -0.0744
7 -4 10 -0.5118 -0.0675
7 -4 11 0.0974 0.0682
7 -4 12 0.4768 0.1061
7 -3 0 0.2627 -0.1694
7 -3 1 -0.3201 -0.1902
7 -3 2 -0.7642 -0.2917
7 -3 3 -0.5024 -0.2771
7 -3 4 0.1735 -0.1078
7 -3 5 0.2705 0.0325
7 -3 6 -0.3505 0.0922
7 -3 7 -0.7041 0.0742
7 -3 8 -0.4739 -0.1507
7 -3 9 -0.3552 -0.3915
7 -3 10 -0.3391 -0.0691
7 -3 11 0.1762 0.7642
7 -3 12 0.7226 1.1634
7 -2 0 0.5056 -0.0208
7 -2 1 0.2048 0.0223
7 -2 2 -0.5048 -0.0805
7 -2 3 -0.4322 -0.0709
7 -2 4 0.3560 0.1368
7 -2 5 0.4763 0.2273
7 -2 6 -0.2074 0.1037
7 -2 7 -0.3583 0.0127
7 -2 8 0.1028 -0.0228
7 -2 9 -0.0314 -0.0691
7 -2 10 -0.5543 0.1829
7 -2 11 -0.2857 0.8048
7 -1 0 0.4673 0.1660
7 -1 1 0.2928 0.1688
7 -1 2 -0.5235 0.1047
7 -1 3 -0.5836 0.1463
7 -1 4 0.2338 0.2525
7 -1 5 0.4328 0.1178
7 -1 6 -0.2218 -0.1844
7 -1 7 -0.3240 -0.1766
7 -1 8 0.1924 0.1718
7 -1 9 -0.0012 0.3301
7 -1 10 -0.6990 0.1103
7 -1 11 -0.5917 -0.1235
7 0 0 0.2177 -0.1168
7 0 1 0.1098 -0.2206
7 0 2 -0.5715 -0.1335
7 0 3 -0.8936 0.0683
7 0 4 -0.4463 0.0682
7 0 5 -0.1380 -0.1725
7 0 6 -0.3354 -0.3127
7 0 7 -0.2343 -0.1416
7 0 8 0.1685 0.0780
7 0 9 -0.0199 -0.0684
7 0 10 -0.5195 -0.5795
7 1 0 0.0288 -0.1896
7 1 1 0.3105 -0.3226
7 1 2 0.0525 -0.1185
7 1 3 -0.6973 0.0683
7 1 4 -1.0562 -0.1377
7 1 5 -0.7812 -0.2523
7 1 6 -0.3417 0.1450
7 1 7 0.0098 0.4284
7 1 8 0.1327 -0.0691
7 1 9 -0.0907 -0.8875
7 2 0 -0.0862 0.0811
7 2 1 0.5799 0.1081
7 2 2 0.8289 0.2969
7 2 3 -0.0427 0.1339
7 2 4 -0.9389 -0.3368
7 2 5 -0.8286 -0.1363
7 2 6 -0.2142 0.8244
7 2 7 0.0294 1.0835
7 2 8 -0.1425 -0.0444
7 3 0 0.0012 -0.0546
7 3 1 0.4676 0.3267
7 3 2 0.7995 0.4321
7 3 3 0.2413 -0.1493
7 3 4 -0.3487 -0.6505
7 3 5 -0.1791 -0.0159
7 3 6 0.1566 1.1437
7 4 0 0.3311 -0.2265
7 4 1 0.3746 0.4646
7 4 2 0.3299 0.3697
7 4 3 0.0038 -0.4999
7 4 4 0.0030 -0.8136
7 5 0 0.4500 0.3717
7 5 1 0.4903 0.9631
8 -9 0 -0.8849 0.1894
8 -9 1 -0.0833 -0.2721
8 -9 2 0.8673 -0.3038
8 -9 3 0.8001 0.1351
8 -9 4 -0.2170 0.5892
8 -8 0 -0.6924 -0.1996
8 -8 1 0.0165 -0.2710
8 -8 2 0.9615 -0.1350
8 -8 3 1.0609 0.1241
8 -8 4 0.2096 0.4055
8 -8 5 -0.2849 0.4197
8 -8 6 0.0584 -0.0241
8 -8 7 0.2351 -0.4919
8 -7 0 -0.1983 -0.2425
8 -7 1 0.0210 -0.1266
8 -7 2 0.4809 0.1504
8 -7 3 0.6626 0.2167
8 -7 4 0.4147 0.1451
8 -7 5 0.2321 0.0478
8 -7 6 0.1548 -0.1607
8 -7 7 -0.2484 -0.3058
8 -7 8 -0.7192 -0.0642
8 -6 0 -0.2124 -0.2282
8 -6 1 -0.2022 -0.1524
8 -6 2 -0.0264 0.1159
8 -6 3 0.0717 0.1262
8 -6 4 0.1466 -0.0714
8 -6 5 0.2871 -0.1784
8 -6 6 0.2041 -0.1115
8 -6 7 -0.2518 0.1084
8 -6 8 -0.6035 0.4679
8 -6 9 -0.4052 0.7144
8 -5 0 -0.3383 -0.2633
8 -5 1 -0.2463 -0.1387
8 -5 2 -0.1107 0.0229
8 -5 3 -0.1463 0.0019
8 -5 4 -0.1066 -0.1260
8 -5 5 0.0386 -0.1421
8 -5 6 0.0247 0.0334
8 -5 7 -0.1602 0.2691
8 -5 8 -0.2684 0.3899
8 -5 9 -0.1667 0.3476
8 -4 0 0.3243 -0.0090
8 -4 1 0.3625 0.1533
8 -4 2 0.1361 0.1122
8 -4 3 -0.1403 0.0179
8 -4 4 -0.1455 0.0063
8 -4 5 -0.1432 0.0136
8 -4 6 -0.2963 0.0097
8 -4 7 -0.3434 -0.0202
8 -4 8 -0.2868 -0.1800
8 -4 9 -0.2919 -0.3696
8 -3 0 1.2423 0.2757
8 -3 1 1.1603 0.2801
8 -3 2 0.4388 0.0327
8 -3 3 -0.0278 -0.0347
8 -3 4 0.0401 0.1184
8 -3 5 -0.0660 0.0760
8 -3 6 -0.3624 -0.1780
8 -3 7 -0.2505 -0.2821
8 -3 8 -0.0148 -0.2515
8 -3 9 -0.1636 -0.2952
8 -2 0 1.2510 0.1380
8 -2 1 1.2934 -0.0072
8 -2 2 0.6542 -0.2268
8 -2 3 0.3646 -0.1124
8 -2 4 0.5055 0.1172
8 -2 5 0.2924 -0.0241
8 -2 6 0.0560 -0.2831
8 -2 7 0.5399 -0.0331
8 -2 8 1.0061 0.5314
8 -2 9 0.5938 0.6459
8 -1 0 0.6541 -0.0354
8 -1 1 0.9456 -0.2047
8 -1 2 0.7960 -0.1651
8 -1 3 0.7195 0.0842
8 -1 4 0.6945 0.0926
8 -1 5 0.4029 -0.1718
8 -1 6 0.4481 -0.1011
8 -1 7 1.2819 0.6091
8 -1 8 1.7970 1.3273
8 0 0 0.4713 0.0660
8 0 1 0.8775 -0.1003
8 0 2 0.9320 0.1646
8 0 3 0.5551 0.3046
8 0 4 0.0232 -0.0918
8 0 5 -0.2578 -0.3165
8 0 6 0.1575 0.2972
8 0 7 1.0535 1.1685
8 1 0 0.5421 -0.0634
8 1 1 0.9300 -0.0144
8 1 2 0.9292 0.3317
8 1 3 0.1251 0.1287
8 1 4 -0.8183 -0.5694
8 1 5 -1.0111 -0.5137
8 1 6 -0.4133 0.5559
8 2 0 0.2256 -0.3959
8 2 1 0.5181 0.1862
8 2 2 0.5863 0.4703
8 2 3 -0.0617 -0.1734
8 2 4 -0.8068 -0.9701
8 3 0 -0.1817 -0.1406
8 3 1 -0.0356 0.7326
9 -7 0 1.5027 -0.8054
9 -7 1 2.0096 -0.5270
9 -7 2 1.6407 0.2426
9 -7 3 0.7520 0.5854
9 -6 0 1.9018 -0.4612
9 -6 1 3.1057 -0.1941
9 -6 2 2.9196 0.2997
9 -6 3 1.4311 0.3443
9 -6 4 0.1415 -0.0957
9 -5 0 1.3186 0.1371
9 -5 1 2.4432 0.2860
9 -5 2 2.2091 0.2483
9 -5 3 0.6819 -0.0946
9 -5 4 -0.5582 -0.4954
9 -5 5 -0.7090 -0.6322
9 -4 0 0.5254 0.1097
9 -4 1 0.9739 0.1559
9 -4 2 0.5316 -0.1012
9 -4 3 -0.4707 -0.3219
9 -4 4 -0.9966 -0.2991
9 -4 5 -0.8130 -0.2333
9 -3 0 0.1888 -0.0856
9 -3 1 0.2565 -0.1781
9 -3 2 -0.0664 -0.3563
9 -3 3 -0.4092 -0.1367
9 -3 4 -0.4261 0.3172
9 -3 5 -0.2564 0.3930
9 -2 0 0.0645 0.1424
9 -2 1 0.2377 -0.1144
9 -2 2 0.3509 -0.1206
9 -2 3 0.4083 0.3260
9 -2 4 0.3398 0.7114
9 -2 5 0.1660 0.5704
9 -1 0 -0.0799 0.1384
9 -1 1 0.1857 -0.0795
9 -1 2 0.5403 0.2545
9 -1 3 0.6299 0.7093
9 -1 4 0.3504 0.6610
9 0 0 -0.0390 -0.4628
9 0 1 0.0915 -0.3586
9 0 2 0.3317 0.3410
0 0 0 0.0 0.0
;
_shelx_fab_checksum              31288
_olex2_exptl_crystal_mounting_method 'glass needle'
_olex2_submission_original_sample_id ED178
_olex2_submission_special_instructions 'No special instructions were received'
loop_
_space_group_symop_operation_xyz
'x, y, z'
'-x, -y, -z'
loop_
_atom_site_label
_atom_site_type_symbol
_atom_site_fract_x
_atom_site_fract_y
_atom_site_fract_z
_atom_site_U_iso_or_equiv
_atom_site_adp_type
_atom_site_occupancy
_atom_site_site_symmetry_order
_atom_site_calc_flag
_atom_site_refinement_flags_posn
Au1 Au 0.53722(2) 0.31841(2) 0.31863(2) 0.03988(7) Uani 1 1 d .
Fe1 Fe 0.18017(6) 0.51744(5) 0.16753(3) 0.03294(10) Uani 1 1 d .
P1 P 0.52695(12) 0.56186(10) 0.34595(6) 0.03510(17) Uani 1 1 d .
Cl1 Cl 0.55576(16) 0.06892(12) 0.28907(8) 0.0562(2) Uani 1 1 d .
O2 O 0.5818(3) 0.6558(3) 0.26406(15) 0.0349(4) Uani 1 1 d .
O1 O 0.3252(3) 0.5853(3) 0.36887(15) 0.0411(5) Uani 1 1 d .
C11 C 0.6905(5) 0.6903(4) 0.4419(2) 0.0410(7) Uani 1 1 d .
C10 C 0.3773(5) 0.7020(4) 0.1355(2) 0.0377(6) Uani 1 1 d .
H10 H 0.394941 0.810042 0.157605 0.045 Uiso 1 1 calc R
C7 C 0.4032(4) 0.4501(4) 0.1227(2) 0.0360(6) Uani 1 1 d .
H7 H 0.441847 0.362532 0.134903 0.043 Uiso 1 1 calc R
C6 C 0.4644(4) 0.6039(4) 0.1777(2) 0.0333(6) Uani 1 1 d .
C1 C 0.1625(5) 0.5265(5) 0.3007(2) 0.0412(7) Uani 1 1 d .
C12 C 0.6565(6) 0.8233(5) 0.4862(3) 0.0515(9) Uani 1 1 d .
H12 H 0.542428 0.847199 0.466985 0.062 Uiso 1 1 calc R
C9 C 0.2580(5) 0.6070(4) 0.0535(2) 0.0400(7) Uani 1 1 d .
H9 H 0.181088 0.641048 0.010860 0.048 Uiso 1 1 calc R
C16 C 0.8567(5) 0.6547(5) 0.4700(3) 0.0477(8) Uani 1 1 d .
H16 H 0.878066 0.561646 0.440286 0.057 Uiso 1 1 calc R
C5 C 0.0629(5) 0.6249(5) 0.2651(3) 0.0478(8) Uani 1 1 d .
H5 H 0.090391 0.735011 0.284447 0.057 Uiso 1 1 calc R
C2 C 0.0771(5) 0.3701(5) 0.2538(3) 0.0468(8) Uani 1 1 d .
H2 H 0.114826 0.281460 0.264489 0.056 Uiso 1 1 calc R
C8 C 0.2734(5) 0.4531(4) 0.0461(2) 0.0397(7) Uani 1 1 d .
H8 H 0.207724 0.366543 -0.001943 0.048 Uiso 1 1 calc R
C3 C -0.0759(5) 0.3706(5) 0.1877(3) 0.0518(9) Uani 1 1 d .
H3 H -0.158407 0.281587 0.145432 0.062 Uiso 1 1 calc R
C15 C 0.9919(6) 0.7557(6) 0.5417(3) 0.0591(10) Uani 1 1 d .
H15 H 1.108003 0.734004 0.559904 0.071 Uiso 1 1 calc R
C4 C -0.0848(5) 0.5250(6) 0.1954(3) 0.0550(10) Uani 1 1 d .
H4 H -0.175730 0.557151 0.159377 0.066 Uiso 1 1 calc R
C14 C 0.9564(7) 0.8882(6) 0.5864(3) 0.0599(11) Uani 1 1 d .
H14 H 1.047203 0.956437 0.636221 0.072 Uiso 1 1 calc R
C13 C 0.7895(7) 0.9213(6) 0.5588(3) 0.0596(11) Uani 1 1 d .
H13 H 0.765891 1.012317 0.589937 0.071 Uiso 1 1 calc R
loop_
_atom_site_aniso_label
_atom_site_aniso_U_11
_atom_site_aniso_U_22
_atom_site_aniso_U_33
_atom_site_aniso_U_23
_atom_site_aniso_U_13
_atom_site_aniso_U_12
Au1 0.04111(9) 0.03876(9) 0.03807(9) 0.00604(6) -0.00115(5) 0.01262(6)
Fe1 0.0293(2) 0.0387(2) 0.0313(2) 0.00594(17) 0.00486(16) 0.01128(17)
P1 0.0355(4) 0.0387(4) 0.0308(4) 0.0058(3) 0.0024(3) 0.0123(3)
Cl1 0.0610(6) 0.0398(5) 0.0638(6) 0.0007(4) -0.0037(5) 0.0184(4)
O2 0.0300(10) 0.0400(12) 0.0320(11) 0.0057(9) 0.0012(8) 0.0082(9)
O1 0.0376(11) 0.0553(14) 0.0300(11) 0.0059(10) 0.0048(9) 0.0148(10)
C11 0.0430(17) 0.0443(18) 0.0337(15) 0.0090(13) 0.0026(13) 0.0102(14)
C10 0.0404(16) 0.0365(15) 0.0351(15) 0.0104(13) 0.0023(13) 0.0093(13)
C7 0.0337(14) 0.0409(16) 0.0350(15) 0.0041(12) 0.0058(12) 0.0155(13)
C6 0.0294(13) 0.0414(16) 0.0286(13) 0.0063(12) 0.0047(11) 0.0101(12)
C1 0.0337(15) 0.059(2) 0.0339(15) 0.0107(14) 0.0109(12) 0.0156(14)
C12 0.049(2) 0.053(2) 0.047(2) 0.0003(17) 0.0057(16) 0.0128(17)
C9 0.0420(16) 0.0456(18) 0.0325(15) 0.0109(13) 0.0035(13) 0.0126(14)
C16 0.0483(19) 0.051(2) 0.0431(18) 0.0122(16) -0.0040(15) 0.0151(16)
C5 0.0436(18) 0.067(2) 0.0401(18) 0.0046(16) 0.0093(14) 0.0297(17)
C2 0.0393(17) 0.053(2) 0.0449(19) 0.0161(16) 0.0099(14) 0.0039(15)
C8 0.0358(15) 0.0477(18) 0.0329(15) 0.0028(13) 0.0066(12) 0.0105(13)
C3 0.0309(16) 0.069(3) 0.0464(19) 0.0100(18) 0.0079(14) 0.0007(16)
C15 0.054(2) 0.067(3) 0.048(2) 0.019(2) -0.0134(17) 0.010(2)
C4 0.0337(17) 0.093(3) 0.0432(19) 0.010(2) 0.0090(14) 0.0269(19)
C14 0.064(3) 0.060(2) 0.0370(18) 0.0103(17) -0.0061(17) -0.008(2)
C13 0.066(3) 0.053(2) 0.049(2) -0.0006(18) 0.0100(19) 0.007(2)
loop_
_atom_type_symbol
_atom_type_description
_atom_type_scat_dispersion_real
_atom_type_scat_dispersion_imag
_atom_type_scat_source
C C 0.0033 0.0016 'International Tables Vol C Tables 4.2.6.8 and 6.1.1.4'
H H 0.0000 0.0000 'International Tables Vol C Tables 4.2.6.8 and 6.1.1.4'
Au Au -2.0133 8.8022 'International Tables Vol C Tables 4.2.6.8 and 6.1.1.4'
Cl Cl 0.1484 0.1585 'International Tables Vol C Tables 4.2.6.8 and 6.1.1.4'
Fe Fe 0.3463 0.8444 'International Tables Vol C Tables 4.2.6.8 and 6.1.1.4'
O O 0.0106 0.0060 'International Tables Vol C Tables 4.2.6.8 and 6.1.1.4'
P P 0.1023 0.0942 'International Tables Vol C Tables 4.2.6.8 and 6.1.1.4'
loop_
_geom_angle_atom_site_label_1
_geom_angle_atom_site_label_2
_geom_angle_atom_site_label_3
_geom_angle
P1 Au1 Fe1 52.55(3)
P1 Au1 Cl1 178.44(3)
Cl1 Au1 Fe1 127.92(4)
C10 Fe1 Au1 101.50(10)
C10 Fe1 C7 69.55(14)
C10 Fe1 C9 40.81(14)
C10 Fe1 C2 152.83(15)
C10 Fe1 C8 68.73(15)
C10 Fe1 C3 161.74(17)
C10 Fe1 C4 122.96(18)
C7 Fe1 Au1 54.61(10)
C7 Fe1 C9 68.42(14)
C7 Fe1 C2 105.02(16)
C7 Fe1 C8 40.55(13)
C7 Fe1 C3 125.99(17)
C7 Fe1 C4 164.60(18)
C6 Fe1 Au1 60.64(9)
C6 Fe1 C10 41.19(13)
C6 Fe1 C7 41.40(13)
C6 Fe1 C1 98.49(13)
C6 Fe1 C9 68.50(13)
C6 Fe1 C5 114.81(15)
C6 Fe1 C2 117.23(14)
C6 Fe1 C8 68.60(13)
C6 Fe1 C3 156.74(16)
C6 Fe1 C4 153.94(17)
C1 Fe1 Au1 62.58(10)
C1 Fe1 C10 115.97(15)
C1 Fe1 C7 116.15(14)
C1 Fe1 C9 155.45(15)
C1 Fe1 C5 41.72(15)
C1 Fe1 C2 40.92(16)
C1 Fe1 C8 155.31(15)
C1 Fe1 C3 68.30(16)
C1 Fe1 C4 68.44(15)
C9 Fe1 Au1 121.41(10)
C5 Fe1 Au1 103.61(11)
C5 Fe1 C10 102.11(17)
C5 Fe1 C7 151.77(14)
C5 Fe1 C9 123.44(16)
C5 Fe1 C2 69.63(17)
C5 Fe1 C8 162.67(16)
C5 Fe1 C3 68.68(18)
C5 Fe1 C4 40.68(17)
C2 Fe1 Au1 58.00(11)
C2 Fe1 C9 163.59(16)
C2 Fe1 C8 125.20(16)
C2 Fe1 C3 40.53(16)
C2 Fe1 C4 68.19(18)
C8 Fe1 Au1 92.83(10)
C8 Fe1 C9 40.31(15)
C3 Fe1 Au1 96.11(13)
C3 Fe1 C9 130.53(15)
C3 Fe1 C8 115.49(16)
C4 Fe1 Au1 124.45(13)
C4 Fe1 C9 114.08(16)
C4 Fe1 C8 131.38(15)
C4 Fe1 C3 40.1(2)
O2 P1 Au1 114.11(10)
O2 P1 O1 105.62(13)
O2 P1 C11 101.48(14)
O1 P1 Au1 116.35(11)
O1 P1 C11 101.23(15)
C11 P1 Au1 116.13(13)
C6 O2 P1 119.35(19)
C1 O1 P1 119.2(2)
C12 C11 P1 121.5(3)
C12 C11 C16 120.4(4)
C16 C11 P1 118.0(3)
Fe1 C10 H10 126.5
C6 C10 Fe1 67.81(18)
C6 C10 H10 126.7
C6 C10 C9 106.6(3)
C9 C10 Fe1 70.54(19)
C9 C10 H10 126.7
Fe1 C7 H7 127.0
C6 C7 Fe1 67.47(17)
C6 C7 H7 126.7
C8 C7 Fe1 70.39(18)
C8 C7 H7 126.7
C8 C7 C6 106.6(3)
O2 C6 Fe1 120.90(19)
O2 C6 C10 122.3(3)
O2 C6 C7 127.9(3)
C10 C6 Fe1 71.00(18)
C10 C6 C7 109.7(3)
C7 C6 Fe1 71.13(18)
O1 C1 Fe1 122.3(2)
O1 C1 C5 122.7(3)
O1 C1 C2 127.7(3)
C5 C1 Fe1 70.3(2)
C2 C1 Fe1 71.4(2)
C2 C1 C5 109.5(3)
C11 C12 H12 120.2
C11 C12 C13 119.5(4)
C13 C12 H12 120.2
Fe1 C9 H9 127.4
C10 C9 Fe1 68.65(18)
C10 C9 H9 125.7
C8 C9 Fe1 69.80(19)
C8 C9 C10 108.5(3)
C8 C9 H9 125.7
C11 C16 H16 120.2
C11 C16 C15 119.7(4)
C15 C16 H16 120.2
Fe1 C5 H5 126.0
C1 C5 Fe1 67.98(19)
C1 C5 H5 127.0
C4 C5 Fe1 70.5(2)
C4 C5 C1 106.0(4)
C4 C5 H5 127.0
Fe1 C2 H2 127.0
C1 C2 Fe1 67.7(2)
C1 C2 H2 126.6
C1 C2 C3 106.9(4)
C3 C2 Fe1 70.2(2)
C3 C2 H2 126.6
Fe1 C8 H8 126.9
C7 C8 Fe1 69.06(18)
C7 C8 H8 125.7
C9 C8 Fe1 69.89(19)
C9 C8 C7 108.6(3)
C9 C8 H8 125.7
Fe1 C3 H3 126.9
C2 C3 Fe1 69.25(19)
C2 C3 H3 125.8
C4 C3 Fe1 69.7(2)
C4 C3 C2 108.4(4)
C4 C3 H3 125.8
C16 C15 H15 120.2
C14 C15 C16 119.6(4)
C14 C15 H15 120.2
Fe1 C4 H4 127.2
C5 C4 Fe1 68.8(2)
C5 C4 H4 125.4
C3 C4 Fe1 70.2(2)
C3 C4 C5 109.2(4)
C3 C4 H4 125.4
C15 C14 H14 119.9
C13 C14 C15 120.2(4)
C13 C14 H14 119.9
C12 C13 H13 119.8
C14 C13 C12 120.5(4)
C14 C13 H13 119.8
loop_
_geom_bond_atom_site_label_1
_geom_bond_atom_site_label_2
_geom_bond_distance
Au1 Fe1 4.2314(12)
Au1 P1 2.2027(10)
Au1 Cl1 2.2786(11)
Fe1 C10 2.032(3)
Fe1 C7 2.039(3)
Fe1 C6 1.990(3)
Fe1 C1 1.992(3)
Fe1 C9 2.057(3)
Fe1 C5 2.023(4)
Fe1 C2 2.040(4)
Fe1 C8 2.056(3)
Fe1 C3 2.053(4)
Fe1 C4 2.046(4)
P1 O2 1.613(2)
P1 O1 1.615(2)
P1 C11 1.785(4)
O2 C6 1.407(4)
O1 C1 1.403(4)
C11 C12 1.380(6)
C11 C16 1.388(5)
C10 H10 0.9500
C10 C6 1.415(5)
C10 C9 1.426(5)
C7 H7 0.9500
C7 C6 1.425(5)
C7 C8 1.419(5)
C1 C5 1.430(5)
C1 C2 1.410(6)
C12 H12 0.9500
C12 C13 1.382(6)
C9 H9 0.9500
C9 C8 1.417(5)
C16 H16 0.9500
C16 C15 1.390(6)
C5 H5 0.9500
C5 C4 1.414(6)
C2 H2 0.9500
C2 C3 1.417(6)
C8 H8 0.9500
C3 H3 0.9500
C3 C4 1.406(7)
C15 H15 0.9500
C15 C14 1.383(7)
C4 H4 0.9500
C14 H14 0.9500
C14 C13 1.379(7)
C13 H13 0.9500
loop_
_smtbx_masks_void_nr
_smtbx_masks_void_average_x
_smtbx_masks_void_average_y
_smtbx_masks_void_average_z
_smtbx_masks_void_volume
_smtbx_masks_void_count_electrons
_smtbx_masks_void_content
1 -0.805 0.000 0.000 203.3 61.4 toluene
