#------------------------------------------------------------------------------
#$Date: 2019-07-05 03:02:09 +0300 (Fri, 05 Jul 2019) $
#$Revision: 216752 $
#$URL: file:///home/coder/svn-repositories/cod/cif/7/12/37/7123773.cif $
#------------------------------------------------------------------------------
#
# This file is available in the Crystallography Open Database (COD),
# http://www.crystallography.net/
#
# All data on this site have been placed in the public domain by the
# contributors.
#
data_7123773
loop_
_publ_author_name
'Shreeve, Jean'ne M.'
'Hu, Lu'
'Yin, Ping'
'Gao, Haixiang'
'Imler, Gregory H.'
'Parrish, Damon A.'
_publ_section_title
;
 Fused rings with N-oxide and -NH2: good combination for high density and
 low sensitivity energetic materials
;
_journal_name_full               'Chemical Communications'
_journal_paper_doi               10.1039/C9CC04496E
_journal_year                    2019
_chemical_formula_moiety         'C3 H2 N8 O3'
_chemical_formula_sum            'C3 H2 N8 O3'
_chemical_formula_weight         198.13
_space_group_crystal_system      orthorhombic
_space_group_IT_number           19
_space_group_name_Hall           'P 2ac 2ab'
_space_group_name_H-M_alt        'P 21 21 21'
_symmetry_space_group_name_Hall  'P 2ac 2ab'
_symmetry_space_group_name_H-M   'P 21 21 21'
_atom_sites_solution_hydrogens   geom
_audit_creation_method           SHELXL-2014/7
_audit_update_record
;
2019-03-29 deposited with the CCDC.    2019-07-04 downloaded from the CCDC.
;
_cell_angle_alpha                90
_cell_angle_beta                 90
_cell_angle_gamma                90
_cell_formula_units_Z            4
_cell_length_a                   6.6953(9)
_cell_length_b                   6.8192(9)
_cell_length_c                   15.5018(19)
_cell_measurement_reflns_used    2487
_cell_measurement_temperature    150(2)
_cell_measurement_theta_max      24.989
_cell_measurement_theta_min      2.628
_cell_volume                     707.76(16)
_computing_cell_refinement       'Bruker APEX3 v2015.5-2 (Bruker, 2015)'
_computing_data_collection       'Bruker APEX3 v2015.5-2 (Bruker, 2015)'
_computing_data_reduction
;
Bruker SAINT v8.34A (Bruker, 2013), Bruker XPREP v2014/2 (Bruker, 2014)
;
_computing_molecular_graphics    'Bruker SHELXTL v2014/7 (Bruker, 2014)'
_computing_publication_material  'Bruker SHELXTL v2014/7 (Bruker, 2014)'
_computing_structure_refinement  'SHELXL-2014/7 (Sheldrick, 2014)'
_computing_structure_solution    'Bruker SHELXTL v2014/7 (Bruker, 2014)'
_diffrn_ambient_temperature      150(2)
_diffrn_measured_fraction_theta_full 0.997
_diffrn_measured_fraction_theta_max 0.981
_diffrn_measurement_device_type  'Bruker SMART APEX II CCD'
_diffrn_measurement_method       '\w scans'
_diffrn_radiation_monochromator  graphite
_diffrn_radiation_source         'fine focus sealed tube'
_diffrn_radiation_type           MoK\a
_diffrn_radiation_wavelength     0.71073
_diffrn_reflns_av_R_equivalents  0.0319
_diffrn_reflns_av_unetI/netI     0.0308
_diffrn_reflns_Laue_measured_fraction_full 0.997
_diffrn_reflns_Laue_measured_fraction_max 0.981
_diffrn_reflns_limit_h_max       9
_diffrn_reflns_limit_h_min       -7
_diffrn_reflns_limit_k_max       9
_diffrn_reflns_limit_k_min       -9
_diffrn_reflns_limit_l_max       21
_diffrn_reflns_limit_l_min       -21
_diffrn_reflns_number            8427
_diffrn_reflns_point_group_measured_fraction_full 0.998
_diffrn_reflns_point_group_measured_fraction_max 0.971
_diffrn_reflns_theta_full        25.242
_diffrn_reflns_theta_max         30.011
_diffrn_reflns_theta_min         2.628
_exptl_absorpt_coefficient_mu    0.164
_exptl_absorpt_correction_T_max  0.7460
_exptl_absorpt_correction_T_min  0.6974
_exptl_absorpt_correction_type   multi-scan
_exptl_absorpt_process_details   'SADABS v2014/5 (Bruker, 2008)'
_exptl_crystal_colour            'clear colorless'
_exptl_crystal_density_diffrn    1.859
_exptl_crystal_description       block
_exptl_crystal_F_000             400
_exptl_crystal_size_max          0.179
_exptl_crystal_size_mid          0.136
_exptl_crystal_size_min          0.049
_refine_diff_density_max         0.160
_refine_diff_density_min         -0.171
_refine_diff_density_rms         0.041
_refine_ls_extinction_method     none
_refine_ls_goodness_of_fit_ref   1.032
_refine_ls_hydrogen_treatment    constr
_refine_ls_matrix_type           full
_refine_ls_number_parameters     127
_refine_ls_number_reflns         2020
_refine_ls_number_restraints     0
_refine_ls_restrained_S_all      1.032
_refine_ls_R_factor_all          0.0541
_refine_ls_R_factor_gt           0.0337
_refine_ls_shift/su_max          0.000
_refine_ls_shift/su_mean         0.000
_refine_ls_structure_factor_coef Fsqd
_refine_ls_weighting_details
'w=1/[\s^2^(Fo^2^)+(0.0366P)^2^+0.0584P] where P=(Fo^2^+2Fc^2^)/3'
_refine_ls_weighting_scheme      calc
_refine_ls_wR_factor_gt          0.0688
_refine_ls_wR_factor_ref         0.0757
_reflns_Friedel_coverage         0.676
_reflns_Friedel_fraction_full    1.000
_reflns_Friedel_fraction_max     0.957
_reflns_number_gt                1586
_reflns_number_total             2020
_reflns_threshold_expression     'I > 2\s(I)'
_cod_data_source_file            c9cc04496e2.cif
_cod_data_source_block           shrv657
_cod_database_code               7123773
_shelx_shelxl_version_number     2014/7
_shelx_space_group_comment
;
The symmetry employed for this shelxl refinement is uniquely defined
by the following loop, which should always be used as a source of
symmetry information in preference to the above space-group names.
They are only intended as comments.
;
_shelx_estimated_absorpt_t_min   0.971
_shelx_estimated_absorpt_t_max   0.992
_shelx_res_file
;

    shrv657.res created by SHELXL-2014/7


TITL shrv657 in P2(1)2(1)2(1)
CELL  0.71073   6.6953   6.8192  15.5018   90.000   90.000   90.000
ZERR    4.000   0.0009   0.0009   0.0019    0.000    0.000    0.000
LATT -1
SYMM 1/2-X, -Y, 1/2+Z
SYMM -X, 1/2+Y, 1/2-Z
SYMM 1/2+X, 1/2-Y, -Z
SFAC C  H  N  O
UNIT 12  8  32  12
L.S. 10
ACTA
CONF
SIZE 0.179 0.136 0.049
BOND $H
FMAP 2
PLAN 20
TEMP -123
HTAB
EQIV $1 -x+2, y+1/2, -z+1/2
HTAB N12 O1_$1
EQIV $2 x+1/2, -y+3/2, -z+1
HTAB N12 O10_$2
EQIV $3 -x+3/2, -y+1, z+1/2
HTAB N12 O2_$3
WGHT    0.036600    0.058400
FVAR       0.41789
O1    4    0.982589    0.290805    0.202051    11.00000    0.03873    0.04784 =
         0.04371   -0.00870    0.00771   -0.01085
O2    4    0.814457    0.096951    0.118109    11.00000    0.05138    0.05301 =
         0.02862   -0.01116   -0.00591    0.00577
N3    3    0.847444    0.174849    0.188123    11.00000    0.03213    0.03383 =
         0.02989   -0.00419   -0.00228    0.00566
C4    1    0.715548    0.127570    0.257468    11.00000    0.02577    0.02605 =
         0.02946   -0.00306   -0.00576    0.00047
N5    3    0.598134   -0.025106    0.257534    11.00000    0.03266    0.03051 =
         0.04566   -0.00599   -0.00463   -0.00396
N6    3    0.486444   -0.018662    0.331472    11.00000    0.03628    0.03138 =
         0.04949   -0.00052   -0.00068   -0.00896
C7    1    0.542611    0.143053    0.372600    11.00000    0.02604    0.02646 =
         0.03386    0.00460   -0.00125   -0.00331
N8    3    0.464184    0.212886    0.447015    11.00000    0.03358    0.03221 =
         0.03712    0.00661    0.00493   -0.00532
N9    3    0.534660    0.381499    0.470773    11.00000    0.03065    0.03086 =
         0.02827    0.00479    0.00348    0.00187
O10   4    0.472091    0.462480    0.537764    11.00000    0.05169    0.04588 =
         0.03392   -0.00170    0.01789    0.00236
C11   1    0.686949    0.485355    0.421371    11.00000    0.02494    0.02576 =
         0.02501    0.00393   -0.00238   -0.00062
N12   3    0.734119    0.658259    0.453147    11.00000    0.04262    0.02928 =
         0.03387   -0.00573    0.00805   -0.00420
AFIX  93
H12A  2    0.824351    0.731214    0.427189    11.00000   -1.20000
H12B  2    0.675422    0.700900    0.500349    11.00000   -1.20000
AFIX   0
N13   3    0.767824    0.414446    0.352244    11.00000    0.02844    0.02469 =
         0.02509   -0.00082   -0.00173   -0.00577
N14   3    0.689401    0.237766    0.329252    11.00000    0.02304    0.02264 =
         0.02400    0.00174   -0.00399   -0.00280

HKLF 4

REM  shrv657 in P2(1)2(1)2(1)
REM R1 =  0.0337 for    1586 Fo > 4sig(Fo)  and  0.0541 for all    2020 data
REM    127 parameters refined using      0 restraints

END

WGHT      0.0351      0.0664

REM Instructions for potential hydrogen bonds
HTAB N12 O1_$1
HTAB N12 O10_$2
HTAB N12 O2_$3

REM Highest difference peak  0.160,  deepest hole -0.171,  1-sigma level  0.041
Q1    1   0.6922  0.2193  0.2761  11.00000  0.05    0.16
Q2    1   0.2457  0.2467  0.4343  11.00000  0.05    0.13
Q3    1   0.4970  0.3586  0.6400  11.00000  0.05    0.12
Q4    1   0.6292 -0.1244  0.2453  11.00000  0.05    0.12
Q5    1   0.3969  0.2209  0.4367  11.00000  0.05    0.12
Q6    1   0.9372  0.0897  0.0812  11.00000  0.05    0.12
Q7    1   0.4261 -0.1028  0.3804  11.00000  0.05    0.12
Q8    1   0.9559  0.4262  0.3623  11.00000  0.05    0.11
Q9    1   0.8093  0.6077  0.5224  11.00000  0.05    0.11
Q10   1   0.5013 -0.2220  0.4110  11.00000  0.05    0.11
Q11   1   1.2091  0.2165  0.2820  11.00000  0.05    0.11
Q12   1   0.3120  0.3323  0.5604  11.00000  0.05    0.11
Q13   1   0.2998  0.1566  0.4275  11.00000  0.05    0.11
Q14   1   0.8042  0.4825  0.3020  11.00000  0.05    0.11
Q15   1   0.3455  0.1923  0.3235  11.00000  0.05    0.11
Q16   1   0.4009 -0.1348  0.3268  11.00000  0.05    0.11
Q17   1   0.5650  0.5799  0.5629  11.00000  0.05    0.11
Q18   1   0.7891  0.6575  0.5791  11.00000  0.05    0.11
Q19   1   0.7824 -0.0326  0.1355  11.00000  0.05    0.10
Q20   1   0.5116  0.0366  0.3621  11.00000  0.05    0.10
;
_shelx_res_checksum              6717
_shelx_hkl_file
;
   5   0   0   -0.69    0.31
   5   0   0    0.07    1.63
   6   0   0   44.52    4.85
   6   0   0   42.78    1.23
   7   0   0   -0.67    0.44
   7   0   0   -0.20    0.60
   8   0   0    1.61    0.77
   9   0   0   -0.55    0.81
   0   1   0   -0.09    0.21
   0   1   0    0.06    0.15
   0  -1   0   -0.04    0.14
   0  -1   0    0.32    0.22
  -1  -1   0    5.82    0.38
  -1   1   0    5.97    0.38
   1  -1   0    4.71    0.21
   1  -1   0    6.18    0.40
   1   1   0    5.46    1.82
   1   1   0    6.18    0.33
  -1  -1   0    5.05    0.30
   1   1   0    5.13    0.34
  -1   1   0    5.08    0.21
   2  -1   0   53.06    1.09
  -2  -1   0   55.13    1.04
  -2   1   0   54.11    1.14
   2   1   0   53.06    1.01
   2   1   0   53.08    1.02
   3   1   0  102.95    4.07
   3   1   0  111.62    1.93
   3   1   0  107.85    5.62
   3  -1   0  113.01    2.04
   3   1   0  112.21    1.91
   3   1   0  113.49    2.03
   4   1   0    1.50    0.39
   4  -1   0    0.89    0.38
   4   1   0    0.59    1.95
   4   1   0    1.85    0.32
   5  -1   0   20.58    0.72
   5  -1   0   15.16    2.66
   5   1   0   19.54    0.77
   5  -1   0   18.87    0.92
   5   1   0   16.97    0.87
   5   1   0   23.08    4.04
   6  -1   0    0.87    1.94
   6   1   0    2.61    0.56
   6  -1   0    2.21    0.62
   6   1   0    4.04    0.52
   6  -1   0    2.60    0.44
   6   1   0    3.03    2.62
   6   1   0    3.31    0.50
   6   1   0    2.61    2.96
   7   1   0    0.75    0.55
   7  -1   0   -0.35    0.62
   8  -1   0    1.16    0.75
   8   1   0    2.67    0.70
   9  -1   0    0.99    0.85
   9   1   0    1.85    0.88
   0   2   0   14.39    0.50
   0  -2   0   13.96    0.58
   0   2   0   14.48    0.63
   0  -2   0   14.78    0.48
   1  -2   0   32.99    0.84
  -1  -2   0   32.21    0.67
   1  -2   0   32.54    0.81
  -1   2   0   30.58    0.90
   1   2   0   32.20    0.81
   1   2   0   32.94    3.13
  -1   2   0   32.06    0.62
  -1  -2   0   32.53    0.91
  -2   2   0    9.64    0.66
   2   2   0   11.67    0.50
   2   2   0   10.21    0.61
  -2  -2   0    8.83    0.60
   2   2   0   10.72    2.53
  -2  -2   0    9.49    0.44
   2  -2   0   10.91    0.57
  -3   2   0   15.16    0.79
   3  -2   0   15.82    0.69
   3   2   0   16.86    3.40
  -3   2   0   16.33    2.75
  -3  -2   0   14.35    0.59
   3   2   0   13.40    0.58
   4  -2   0    0.28    0.36
   4   2   0    0.44    0.30
   4   2   0    0.64    0.42
  -4   2   0    0.05    0.42
   4   2   0   -1.29    2.03
   5   2   0    6.49    0.65
   5  -2   0    7.67    0.58
   5  -2   0    7.80    0.67
   5  -2   0    4.58    1.77
   5   2   0   10.53    3.73
   5   2   0    7.45    0.54
   6   2   0    6.83    0.74
   6  -2   0    4.98    0.68
   7  -2   0   19.26    1.24
   7   2   0   19.70    1.27
   8  -2   0   -0.51    0.73
   8   2   0   -0.60    0.72
   0  -3   0   -0.75    0.38
   0  -3   0   -0.66    0.25
   0   3   0   -0.23    0.39
   0   3   0    0.24    0.27
   1  -3   0   16.43    0.65
  -1  -3   0   15.50    0.79
   1   3   0   15.91    0.66
  -1   3   0   16.15    0.50
   1   3   0   15.96    0.71
  -1  -3   0   15.88    0.53
  -1   3   0   14.68    0.78
   1  -3   0   16.25    0.75
   2   3   0   21.46    0.78
   2  -3   0   21.52    0.84
  -2  -3   0   22.28    0.60
  -2   3   0   21.23    0.91
   2  -3   0   21.87    0.83
  -2  -3   0   20.29    0.90
  -2   3   0   22.02    0.48
   2   3   0   22.40    0.78
   3   3   0   30.12    0.89
   3  -3   0   30.95    1.01
  -3  -3   0   27.94    1.08
  -3  -3   0   29.90    0.77
   3   3   0   33.04    4.50
  -3   3   0   29.37    1.08
  -4   3   0   84.34    2.01
   4   3   0   89.82    6.89
   4   3   0   86.53    1.73
  -4   3   0   90.12    5.48
   4  -3   0   85.21    1.92
   5   3   0   49.72    1.53
   5  -3   0   49.39    1.47
   5   3   0   49.58    1.27
   6  -3   0    0.94    0.62
   6   3   0    1.16    0.63
   7  -3   0    8.08    0.92
   7   3   0    8.70    0.95
   8  -3   0    6.61    1.01
   8   3   0    7.66    1.02
   0   4   0    5.31    0.57
   0  -4   0    4.51    0.50
   0  -4   0    5.23    0.41
   0   4   0    4.91    0.42
  -1   4   0  302.88    4.70
   1  -4   0  290.51    4.97
  -1  -4   0  297.41    5.04
  -1  -4   0  307.69    4.73
   1   4   0  307.48    4.89
   1   4   0  299.60    4.95
   1  -4   0  306.47    4.87
  -1   4   0  291.62    5.02
  -2   4   0   98.60    1.65
  -2   4   0   97.00    2.10
   2   4   0   99.62    2.03
  -2  -4   0   98.09    1.74
  -2  -4   0  101.12    2.15
   2  -4   0   99.01    2.05
   2   4   0   99.31    1.98
   2  -4   0   99.84    2.02
   3   4   0   62.06    1.46
  -3  -4   0   64.02    1.72
   3   4   0   59.13    1.54
  -3   4   0   60.92    1.67
  -3  -4   0   64.05    1.24
   3  -4   0   61.54    1.57
   3  -4   0   64.21    1.58
   4   4   0    3.41    0.64
  -4   4   0    3.47    0.70
   4  -4   0    4.60    0.66
   4   4   0    5.06    0.56
   4  -4   0    5.39    0.71
   5   4   0   27.57    1.31
   5  -4   0   25.30    1.24
  -5   4   0   27.51    1.34
   6   4   0   13.64    1.04
   6  -4   0   13.01    1.04
   6  -4   0   14.18    1.10
   7   4   0   -0.93    0.75
   7  -4   0   -0.22    0.73
   7  -4   0    0.02    0.79
   8  -4   0   -0.03    0.89
   8   4   0   -0.83    0.85
   0  -5   0   -0.04    0.33
   0   5   0    0.00    0.35
   0   5   0   -0.78    0.48
   0  -5   0    0.25    0.52
   1  -5   0    1.46    0.43
   1   5   0    1.18    0.43
  -1  -5   0    0.86    0.56
  -1   5   0    1.60    0.34
  -1   5   0    0.79    0.58
   1  -5   0    1.25    0.52
  -1  -5   0    1.82    0.35
   1   5   0    0.95    0.52
   2  -5   0    0.33    0.46
  -2   5   0    0.46    0.53
  -2  -5   0    0.69    0.53
   2   5   0    0.95    0.47
   2   5   0    0.19    0.50
   2  -5   0    0.67    0.55
  -2  -5   0    0.54    0.33
   3   5   0    0.91    0.51
   3  -5   0    0.73    0.52
   3  -5   0    2.07    0.64
   3   5   0    1.83    0.56
  -3  -5   0    1.02    0.61
  -3   5   0    0.87    0.61
   4  -5   0   65.40    1.88
  -4  -5   0   66.58    2.00
   4  -5   0   66.18    1.87
  -4   5   0   66.99    2.01
   4   5   0   62.17    1.84
   4   5   0   63.52    1.71
   5  -5   0    1.23    0.70
  -5   5   0    1.48    2.87
   5   5   0    0.47    0.67
  -5   5   0    0.57    0.77
   5  -5   0   -0.23    0.68
   6  -5   0    5.76    0.96
   6  -5   0    5.15    0.91
   6   5   0    4.60    0.88
   7   5   0    9.36    1.14
   7  -5   0    9.77    1.18
   0   6   0   10.28    0.76
   0   6   0   11.23    0.92
   0  -6   0   10.67    0.92
   0  -6   0   10.58    0.74
  -1   6   0    0.55    0.64
   1  -6   0   -0.24    0.45
  -1  -6   0    1.27    0.69
   1   6   0    0.36    0.61
   1   6   0    0.70    0.49
   1  -6   0   -0.29    0.62
   2   6   0    9.62    0.85
   2   6   0   10.89    0.81
   2  -6   0    9.78    0.78
  -2   6   0    9.84    0.88
   2  -6   0   10.52    0.93
  -2  -6   0   10.64    0.97
  -3   6   0    4.00    0.79
  -3  -6   0    4.88    0.86
   3  -6   0    5.97    0.85
   3   6   0    5.98    0.77
   3  -6   0    5.98    0.77
   3   6   0    5.66    0.75
  -4  -6   0    1.16    0.80
   4  -6   0   -0.08    0.66
   4   6   0   -0.33    0.67
  -4   6   0   -0.17    0.71
   4  -6   0    1.07    0.75
   5  -6   0    1.01    0.73
   5   6   0    0.15    0.76
   5  -6   0   -0.02    0.77
  -5   6   0    0.32    0.81
   6  -6   0    0.72    0.84
   6   6   0    0.48    0.83
  -6   6   0    2.08    0.89
   0   7   0    0.59    0.72
   0  -7   0    0.18    0.72
   1   7   0   -0.74    0.51
   1  -7   0   -0.80    0.46
   1  -7   0   -0.40    0.71
  -1   7   0    1.03    0.75
  -1  -7   0   -0.14    0.71
   1   7   0   -0.22    0.66
  -2   7   0   14.69    1.15
   2   7   0   15.30    1.17
   2  -7   0   18.29    1.14
   2  -7   0   15.56    1.15
  -2  -7   0   15.35    1.20
   2   7   0   16.65    1.12
   3   7   0    2.83    0.78
   3  -7   0    3.34    0.85
  -3  -7   0    2.35    0.88
  -3   7   0    2.71    0.84
   3  -7   0    2.95    0.74
  -4   7   0    2.00    0.90
  -4  -7   0    1.85    0.92
   4   7   0    1.36    0.75
   4  -7   0    1.60    0.87
   4  -7   0    2.00    0.77
   5  -7   0    8.25    1.34
   5  -7   0    4.27    0.96
   5   7   0    7.04    1.05
  -5   7   0    8.76    1.21
   6  -7   0   -0.18    0.91
  -6   7   0    0.59    1.13
   0  -8   0   17.81    1.30
   0   8   0   15.09    1.20
  -1   8   0   18.72    1.33
   1  -8   0   15.92    1.25
   1   8   0   16.39    1.22
  -1  -8   0   17.63    1.31
  -2   8   0    0.30    0.84
   2   8   0    0.11    0.70
   2  -8   0   -1.22    0.80
   2   8   0   -0.49    0.75
  -2  -8   0   -0.24    0.83
   3  -8   0   -0.38    0.82
   3  -8   0   -1.58    0.68
  -3   8   0   -1.47    0.75
  -3  -8   0   -1.41    0.84
   3   8   0   -0.90    0.74
  -4  -8   0    2.68    1.02
   4   8   0    0.36    0.86
   4  -8   0    0.91    0.82
  -4   8   0    2.36    1.01
   4  -8   0    0.87    0.96
   5  -8   0    1.35    0.89
   0  -9   0    0.18    0.89
   0   9   0    0.76    0.87
   1  -9   0    1.53    0.93
   1   9   0    1.20    0.86
  -1  -9   0   -0.98    0.89
  -1   9   0    1.62    0.94
  -2   9   0    4.88    1.09
  -2  -9   0    4.71    1.06
   2  -9   0    4.97    1.09
   3   9   0    7.06    1.09
   3  -9   0   13.07    2.11
   0   0  -1   -0.09    0.06
   0   0   1   -0.07    0.05
   0   0  -1    0.06    0.07
   0   0  -1   -0.06    0.07
   0   0   1    0.07    0.33
   0   0   1    0.01    0.08
   0   0   1    0.01    0.07
   0   0  -1   -0.03    0.06
   0   0  -1    0.01    0.06
   0   0  -1   -0.06    0.34
   0   0   1   -0.05    0.06
   0   0   1   -0.09    0.06
  -1   0   1  135.54    2.18
  -1   0   1  138.14    2.11
   1   0  -1  140.36    2.12
   1   0  -1  135.35    2.13
   2   0  -1  211.63    5.84
   2   0  -1  220.86    3.38
   3   0  -1    1.08    1.45
   3   0  -1    0.69    0.25
   4   0  -1  112.82    2.00
   4   0  -1  104.75    5.34
   5   0  -1   -0.66    0.29
   6   0   1    7.58    0.64
   6   0   1    7.96    2.97
   6   0  -1    7.18    0.76
   6   0  -1    7.67    0.62
   7   0   1   18.86    1.14
   7   0   1   11.23    3.56
   7   0   1   16.50    0.96
   7   0  -1   16.76    1.06
   7   0  -1   16.76    1.27
   8   0  -1    0.20    0.73
   8   0   1   -0.26    0.67
   9   0   1    0.34    0.81
   9   0  -1   -0.04    0.86
   0  -1   1   92.79    1.51
   0   1  -1   92.82    1.52
   0  -1  -1   93.81    1.56
   0   1   1   93.24    1.56
   0  -1   1   91.84    1.51
   0   1  -1   95.56    1.51
  -1  -1  -1  723.78   11.10
   1  -1   1  703.32   10.86
   1  -1   1  715.47   10.93
  -1   1   1  715.41   11.08
   1   1  -1  726.51   10.88
   1   1  -1  704.29   10.85
   1  -1  -1  706.72   10.99
  -1  -1   1  689.72   10.75
   1   1   1  733.04   10.74
   1   1   1  722.46   10.90
  -1  -1   1  738.96   10.90
  -1   1  -1  733.57   10.90
  -1   1  -1  707.32   11.01
  -2   1   1  320.20    4.94
   2  -1   1  317.32    4.89
   2   1  -1  310.12    4.79
   2   1  -1  308.24    4.92
   2   1   1  317.96    4.90
   2   1   1  314.37    4.87
   2  -1  -1  312.94    4.74
  -2   1  -1  322.49    4.98
  -2  -1   1  322.35    4.90
   2  -1  -1  312.51    4.96
   3  -1   1   39.10    0.94
  -3   1   1   40.54    0.99
   3   1  -1   37.00    3.82
   3   1  -1   37.21    0.98
   3   1  -1   38.50    0.85
   3   1  -1   39.49    0.83
   3  -1  -1   37.90    1.02
   3   1   1   39.25    0.94
   3   1   1   35.83    2.86
   3   1   1   39.65    0.91
   3  -1  -1   38.83    0.79
  -3  -1   1   40.57    1.00
   3  -1  -1   37.78    2.59
   4  -1   1   34.41    1.00
   4   1  -1   34.40    3.98
   4   1  -1   38.45    1.03
   4  -1  -1   36.62    1.10
   4   1   1   37.16    0.98
   4   1   1   37.52    0.94
   4  -1  -1   37.28    0.85
   4  -1  -1   38.32    2.99
   5   1  -1    1.60    0.43
   5   1  -1    2.21    0.37
   5  -1   1    1.21    0.43
   5   1   1    2.45    0.41
   5   1   1    1.91    0.48
   5   1   1    1.88    0.41
   5   1   1   -1.84    2.29
   5  -1  -1    1.55    0.33
   5  -1  -1    1.58    0.49
   6  -1   1    1.41    2.04
   6  -1   1    0.49    0.50
   6   1  -1   -0.88    3.67
   6   1  -1   -0.44    0.47
   6  -1   1    1.05    0.37
   6   1   1   -0.63    0.49
   6   1   1    0.93    2.36
   6   1   1    2.53    2.94
   6   1   1    0.49    0.43
   6  -1  -1    0.31    0.42
   6  -1  -1    0.19    0.53
   6   1   1    1.44    0.46
   7   1  -1   16.43    1.02
   7  -1   1   15.84    1.15
   7   1   1   16.22    1.09
   7  -1  -1   14.37    1.07
   7   1   1   10.96    4.03
   8   1  -1   13.60    1.14
   8  -1   1   13.90    1.09
   8   1   1   18.59    1.21
   8  -1  -1   12.27    1.11
   9   1  -1    2.35    0.91
   9   1   1    0.67    0.83
   9  -1  -1   -0.35    0.83
   0  -2  -1  156.76    2.44
   0  -2  -1  149.81    2.58
   0  -2   1  157.21    2.51
   0   2  -1  159.33    2.51
   0  -2   1  154.86    2.56
   0   2  -1  154.95    2.57
   0   2   1  153.37    2.60
   0   2   1  152.20    2.46
   0   2   1  152.75    4.64
   1  -2   1  258.51    4.07
   1   2  -1  260.78    4.10
   1   2  -1  259.28    4.03
   1  -2   1  258.29    4.11
  -1  -2  -1  263.48    4.17
  -1   2   1  266.24    3.89
  -1  -2  -1  261.67    3.90
  -1   2   1  260.60    4.16
  -1  -2   1  253.78    4.14
  -1  -2   1  259.71    4.01
   1  -2  -1  252.31    4.12
   1   2   1  253.40    4.09
  -1   2  -1  252.98    4.15
  -1   2  -1  263.18    3.96
  -2  -2  -1   82.49    1.66
   2   2  -1   82.67    1.61
   2   2  -1   82.00    1.44
  -2   2   1   79.82    1.64
   2  -2   1   81.86    1.53
  -2  -2  -1   83.37    1.37
   2  -2  -1   83.91    1.63
   2   2   1   80.47    1.54
  -2   2  -1   82.91    1.36
  -2  -2   1   81.91    1.47
  -2  -2   1   78.99    1.63
  -2   2  -1   79.77    1.63
  -3   2   1   51.68    3.83
   3   2  -1   46.23    0.98
   3  -2   1   47.35    1.11
  -3   2   1   48.48    1.22
   3   2  -1   45.73    1.19
   3  -2  -1   47.52    0.80
   3  -2  -1   46.06    1.18
   3   2   1   46.53    1.08
  -3   2  -1   50.18    3.42
  -3  -2   1   47.84    1.07
  -3   2  -1   45.58    1.23
  -4   2   1    4.18    0.54
   4  -2   1    5.05    0.47
   4   2  -1    4.92    0.39
   4   2  -1    3.81    0.48
   4  -2  -1    3.82    0.52
   4   2   1    3.29    2.42
   4   2   1    3.92    0.42
   4  -2  -1    4.38    0.27
   4   2   1    4.56    0.53
   5  -2   1    7.22    0.63
   5   2  -1    6.63    0.50
   5   2  -1    7.32    0.66
   5   2   1    6.78    0.66
   5   2   1    4.52    2.98
   5   2   1    6.42    0.54
   5  -2  -1    7.03    0.67
   6   2  -1    2.74    0.62
   6  -2   1    4.76    0.65
   6   2   1    6.41    3.71
   6   2   1    3.45    0.64
   6  -2  -1    5.26    0.75
   6   2   1    4.26    0.54
   7  -2   1   15.53    1.16
   7   2  -1   11.73    0.96
   7   2   1   12.84    0.95
   7  -2  -1   10.94    0.99
   8  -2   1    3.88    0.83
   8   2  -1    4.41    0.85
   8  -2  -1    3.16    0.88
   8   2   1    2.86    0.76
   9  -2   1    1.91    0.91
   9  -2  -1    0.91    0.92
   0   3  -1   17.89    0.75
   0   3  -1   17.46    0.64
   0  -3   1   16.55    0.64
   0   3   1   16.78    0.58
   0   3   1   16.01    0.78
   0  -3   1   15.44    0.75
   0  -3  -1   16.16    0.72
   0  -3  -1   16.95    0.56
  -1  -3  -1   82.71    1.77
   1  -3   1   84.04    1.68
  -1   3   1   88.15    1.44
  -1  -3  -1   85.99    1.43
   1   3  -1   85.85    1.66
   1   3  -1   85.72    1.65
  -1   3   1   83.49    1.77
   1  -3   1   86.58    1.66
   1   3   1   85.31    1.71
   1   3   1   84.08    1.65
  -1  -3   1   85.47    1.55
   1  -3  -1   85.78    1.74
   1  -3  -1   86.48    1.61
   1   3   1   79.10    4.76
  -1   3  -1   82.77    1.75
  -1   3  -1   87.69    1.51
  -1  -3   1   81.18    1.71
   2  -3   1   46.59    1.19
  -2  -3  -1   45.72    1.25
   2   3  -1   47.47    1.18
  -2   3   1   44.14    1.26
   2  -3   1   44.90    1.14
   2   3  -1   45.23    1.06
  -2  -3  -1   45.98    0.86
   2   3   1   45.83    1.11
  -2  -3   1   44.18    1.20
  -2  -3   1   46.19    0.99
   2  -3  -1   45.00    1.22
   2   3   1   45.50    1.17
  -2   3  -1   44.18    1.25
   2   3   1   46.19    4.59
  -2   3  -1   46.84    0.88
   3  -3   1   32.07    1.04
   3   3  -1   33.72    1.08
   3  -3   1   32.28    0.98
   3   3  -1   33.99    0.89
  -3  -3  -1   33.03    1.16
  -3  -3  -1   34.00    0.77
  -3   3   1   34.48    1.13
   3   3   1   34.63    0.98
   3  -3  -1   31.15    1.10
   3   3   1   33.24    1.08
   3   3   1   37.95    4.86
  -3  -3   1   33.76    0.86
  -3   3  -1   34.27    1.15
   4   3  -1   11.14    0.77
   4   3  -1   12.06    0.64
  -4   3   1   14.97    3.29
   4  -3   1   11.84    0.75
  -4   3   1   12.84    0.90
   4   3   1   11.93    0.70
  -4   3  -1   11.40    0.88
   4   3   1   12.19    0.86
  -4  -3   1   11.90    0.68
   4   3   1    9.40    3.27
   4  -3  -1   11.50    0.85
   5   3  -1   15.99    1.04
   5  -3   1   17.90    1.00
  -5   3   1   15.53    1.05
   5   3   1   16.64    0.86
   5   3   1   17.47    1.06
   5   3   1   17.10    4.39
   5  -3  -1   17.14    1.03
   6   3  -1   34.84    1.47
   6  -3   1   35.42    1.37
   6   3   1   36.02    1.45
   6   3   1   36.68    6.17
   6  -3  -1   35.23    1.48
   7  -3   1   -0.74    0.63
   7   3  -1   -0.81    0.68
   7   3   1    0.45    0.68
   7  -3  -1    0.32    0.70
   8  -3   1    1.19    0.89
   8   3  -1    1.60    0.87
   8  -3  -1    1.83    0.91
   8   3   1    1.92    0.83
   0   4   1  100.92    2.09
   0   4  -1   99.21    2.06
   0   4   1  103.66    1.86
   0  -4  -1  101.92    2.10
   0   4  -1  104.23    1.91
   0  -4  -1  100.85    1.83
   0  -4   1  100.37    2.05
   0  -4   1   99.36    1.89
   1  -4   1   71.54    1.61
  -1   4   1   72.50    1.33
  -1   4   1   70.03    1.66
   1   4  -1   73.76    1.56
   1   4  -1   71.06    1.59
  -1  -4  -1   69.95    1.66
   1  -4   1   73.52    1.56
  -1  -4  -1   72.85    1.32
  -1  -4   1   72.34    1.68
  -1   4  -1   72.71    1.39
  -1   4  -1   70.57    1.67
   1   4   1   73.83    1.52
  -1  -4   1   73.14    1.42
   1  -4  -1   69.38    1.62
   1   4   1   70.47    1.62
   1  -4  -1   72.48    1.50
  -2   4   1   36.74    1.25
   2  -4   1   34.23    1.09
   2   4  -1   36.53    1.12
  -2   4   1   36.45    0.68
  -2  -4  -1   34.01    1.15
  -2  -4  -1   34.36    0.76
   2  -4   1   35.32    1.11
   2   4  -1   34.44    1.03
   2   4   1   36.09    1.12
   2   4   1   36.33    1.08
   2  -4  -1   34.89    1.17
  -2   4  -1   35.77    1.22
  -2  -4   1   36.39    1.17
   2  -4  -1   36.60    1.06
  -2   4  -1   36.07    0.79
  -2  -4   1   35.63    0.89
  -3  -4  -1   84.92    1.78
  -3  -4  -1   85.77    2.05
  -3   4   1   89.26    2.06
   3   4  -1   86.46    1.95
   3  -4   1   86.03    1.95
   3   4  -1   88.11    1.78
   3  -4   1   83.34    1.88
  -3  -4   1   85.13    1.65
  -3   4  -1   84.31    2.03
   3   4   1   85.63    1.84
   3   4   1   92.12    6.93
   3  -4  -1   86.88    1.98
  -3  -4   1   84.85    2.03
   3   4   1   86.18    1.94
   4   4  -1   45.82    1.24
   4  -4   1   49.74    1.46
   4  -4   1   45.76    1.47
  -4   4   1   45.74    1.56
   4   4  -1   46.70    1.49
   4   4   1   46.37    1.33
  -4  -4   1   46.74    1.16
  -4   4  -1   47.95    1.54
   4   4   1   41.76    5.88
   4  -4  -1   46.92    1.49
   4   4   1   45.27    1.45
  -5   4   1    2.25    0.73
   5  -4   1   -0.46    0.58
   5   4  -1    0.77    0.63
   5  -4   1    1.90    0.63
  -5   4  -1    1.78    0.68
   5   4   1    1.35    0.57
   5  -4  -1    0.40    0.65
   5   4   1    1.31    0.51
   6   4  -1    9.70    0.96
   6  -4   1   10.87    0.96
   6  -4   1   10.67    1.02
   6   4   1    9.08    0.89
   6  -4  -1    9.62    0.97
   7   4  -1   -0.17    0.78
   7  -4   1    0.99    0.79
   7  -4  -1    0.03    0.79
   7   4   1   -0.01    0.71
   8   4  -1    7.17    1.13
   8  -4   1    8.12    1.14
   8   4   1    5.73    1.01
   8  -4  -1    7.84    1.16
   0   5   1   39.61    1.33
   0   5  -1   42.13    1.32
   0   5  -1   40.43    1.11
   0  -5  -1   40.64    1.31
   0  -5   1   40.14    1.10
   0  -5  -1   41.56    1.04
   0   5   1   40.68    1.08
   0  -5   1   41.45    1.31
   1   5  -1    5.85    0.63
   1  -5   1    6.82    0.58
   1   5  -1    5.11    0.55
  -1   5   1    7.51    0.78
  -1  -5  -1    6.32    0.41
   1  -5   1    5.76    0.64
  -1   5   1    7.11    0.44
  -1  -5  -1    6.86    0.73
   1   5   1    7.27    0.58
  -1   5  -1    6.59    0.48
   1  -5  -1    5.83    0.70
   1  -5  -1    6.46    0.54
  -1  -5   1    6.27    0.70
  -1   5  -1    6.12    0.71
  -1  -5   1    7.24    0.50
   1   5   1    6.23    0.69
   2  -5   1   30.13    1.17
   2   5  -1   26.83    1.08
   2   5  -1   27.22    1.11
  -2   5   1   27.69    1.27
   2  -5   1   28.95    1.10
  -2  -5  -1   30.38    1.27
   2   5   1   26.91    1.08
   2  -5  -1   30.23    1.25
  -2  -5   1   28.52    1.24
   2   5   1   31.19    1.19
  -2  -5   1   28.07    0.86
   2  -5  -1   28.06    1.04
  -2   5  -1   29.34    1.25
   3   5  -1   49.61    1.52
  -3  -5  -1   46.83    1.63
   3  -5   1   49.32    1.50
   3  -5   1   47.63    1.49
  -3   5   1   46.88    1.61
   3   5  -1   46.70    1.35
  -3   5  -1   47.49    1.62
   3   5   1   49.33    1.46
   3  -5  -1   48.61    1.47
   3  -5  -1   48.79    1.57
   3   5   1   46.06    1.48
  -3  -5   1   48.41    1.64
  -4   5   1    4.57    0.83
   4   5  -1    3.89    0.73
   4  -5   1    5.01    0.74
  -4  -5  -1    3.39    0.78
   4  -5   1    6.04    0.79
   4  -5  -1    3.62    0.66
   4  -5  -1    4.21    0.78
   4   5   1    5.35    0.77
  -4   5  -1    5.26    0.88
   4   5   1    5.11    0.68
   5  -5   1    3.00    0.73
  -5   5   1    3.60    2.81
   5   5  -1    2.17    0.74
   5  -5   1    2.56    0.73
  -5   5   1    1.22    0.78
   5  -5  -1    2.62    0.80
   5   5   1    1.79    0.64
  -5   5  -1    2.81    0.81
  -5   5  -1    3.33    2.54
   5  -5  -1    2.53    0.72
   6   5  -1    2.24    0.84
   6  -5   1    1.80    0.87
   6  -5   1    2.47    0.86
  -6   5   1    3.06    0.88
   6  -5  -1    1.31    0.82
   6  -5  -1    2.08    0.81
   6   5   1    1.81    0.74
   7   5  -1    1.02    0.91
   7  -5   1    2.55    0.97
   7   5   1    2.62    0.88
   7  -5  -1    3.10    0.94
   7  -5  -1    2.78    0.97
   0  -6  -1   38.51    1.48
   0  -6  -1   38.05    1.08
   0  -6   1   39.07    1.18
   0   6   1   38.17    1.47
   0  -6   1   38.47    1.45
   0   6  -1   38.08    1.47
   0   6  -1   37.67    1.17
   0   6   1   37.61    1.15
  -1  -6  -1    5.67    0.80
  -1   6   1    6.67    0.82
   1   6  -1    6.40    0.66
   1   6  -1    7.34    0.80
   1  -6   1    5.99    0.76
   1  -6   1    7.74    0.68
   1   6   1    6.65    0.81
  -1  -6   1    6.25    0.54
  -1  -6   1    6.09    0.79
   1  -6  -1    7.54    0.85
   1   6   1    7.57    0.66
   1  -6  -1    7.05    0.63
  -1   6  -1    6.40    0.82
  -1   6  -1    7.66    0.84
   2   6  -1    3.07    0.63
   2  -6   1    2.66    0.63
   2   6  -1    4.15    0.69
   2  -6   1    3.71    0.69
  -2   6   1    4.14    0.81
  -2  -6  -1    3.16    0.76
  -2  -6   1    3.45    0.76
   2  -6  -1    4.23    0.81
  -2   6  -1    4.16    0.78
   2  -6  -1    2.91    0.59
   2   6   1    2.70    0.59
   2   6   1    3.65    0.74
   3  -6   1    5.20    0.75
  -3  -6  -1    5.46    0.84
   3   6  -1    6.30    0.75
  -3   6   1    3.96    0.79
   3  -6   1    5.69    0.81
   3   6  -1    6.37    0.82
   3  -6  -1    4.81    0.72
  -3   6  -1    6.00    0.88
   3   6   1    5.60    0.73
   3   6   1    5.58    0.79
   3  -6  -1    3.98    0.84
  -3  -6   1    4.44    0.78
   4  -6   1    5.39    0.83
   4   6  -1    4.19    0.73
  -4  -6  -1    4.32    0.87
  -4   6   1    3.23    0.87
   4  -6   1    3.65    0.81
   4  -6  -1    3.23    0.84
  -4   6  -1    3.92    0.90
   4  -6  -1    4.31    0.76
   4   6   1    5.20    0.84
  -5   6   1    1.55    0.86
   5  -6   1    0.72    0.78
   5  -6   1    0.47    0.76
   5   6  -1    1.74    0.80
   5  -6  -1    0.64    0.73
  -5   6  -1   -0.58    0.76
   5  -6  -1    0.94    0.84
   5   6   1    1.23    0.77
   6  -6   1    0.30    0.85
  -6   6   1    0.56    0.88
   6   6  -1   -0.38    0.78
   6   6   1    0.35    0.84
   6  -6  -1    0.50    0.89
   6  -6  -1   -0.15    0.81
   0  -7  -1    3.12    0.82
   0   7   1    5.93    0.90
   0   7  -1    5.29    0.85
   0  -7   1    4.91    0.84
   1  -7   1   12.55    1.01
  -1  -7  -1   11.14    1.10
   1   7  -1   10.52    0.95
   1   7  -1   12.24    0.87
   1  -7   1   11.74    0.82
  -1   7   1   12.39    1.08
   1  -7  -1   12.15    1.09
  -1   7  -1   11.80    1.06
   1   7   1   10.52    0.81
  -1  -7   1   12.32    1.08
   1   7   1   12.51    1.04
   2   7  -1    0.74    0.66
   2   7  -1    1.06    0.63
  -2  -7  -1    1.32    0.80
   2  -7   1    0.49    0.59
  -2   7   1    2.50    0.83
   2  -7   1    0.23    0.69
   2   7   1   -0.30    0.59
   2   7   1    0.66    0.70
  -2   7  -1    0.97    0.78
  -2  -7   1   -0.59    0.71
   2  -7  -1    1.39    0.78
   2  -7  -1    0.24    0.56
   3  -7   1    4.85    0.83
  -3  -7  -1    6.52    1.01
   3   7  -1    5.34    0.84
  -3   7   1    5.48    0.98
   3  -7   1    5.67    0.87
   3   7   1    5.62    0.84
   3  -7  -1    3.76    0.93
   3  -7  -1    5.27    0.79
  -3   7  -1    6.83    1.01
   3   7   1    5.31    0.87
  -3  -7   1    5.41    0.94
   4   7  -1    2.47    0.83
  -4  -7  -1    3.95    0.90
  -4   7   1    2.83    0.93
   4  -7   1    2.71    0.83
   4  -7   1    2.09    0.85
   4  -7  -1    4.08    0.86
   4  -7  -1    4.09    0.96
  -4  -7   1    5.11    1.02
  -4   7  -1    3.57    0.97
   4   7   1    2.12    0.77
   5  -7   1    3.43    0.93
  -5   7   1    3.53    1.03
   5   7  -1    3.02    0.93
   5  -7  -1    3.62    0.99
   5   7   1    2.01    0.86
   5  -7  -1    3.50    0.88
  -5   7  -1    3.52    1.01
   6  -7   1    0.43    0.92
  -6   7   1   -0.02    1.04
   6  -7  -1    1.47    0.89
   0   8   1    1.59    0.86
   0  -8   1    1.60    0.83
   0   8  -1    0.81    0.77
   0  -8  -1    0.01    0.80
   1   8  -1   12.96    1.12
  -1  -8  -1   14.54    1.21
   1  -8   1   13.97    1.21
  -1   8   1   13.58    1.17
  -1  -8   1   14.89    1.22
   1   8   1   15.98    1.23
  -1   8  -1   14.65    1.24
   1  -8  -1   13.38    1.19
   2   8  -1    1.68    0.77
  -2  -8  -1    4.19    0.93
  -2   8   1    4.33    0.98
   2  -8   1    3.28    0.89
  -2  -8   1    1.51    0.91
   2  -8  -1    3.75    0.94
  -2   8  -1    1.26    0.80
   2   8   1    2.56    0.76
   2   8   1    2.35    0.84
   3  -8   1    2.03    0.86
  -3  -8  -1    2.42    0.93
  -3   8   1    1.73    0.91
   3   8  -1    2.69    0.84
   3  -8   1    1.36    0.79
  -3  -8   1    3.50    1.02
   3   8   1    1.74    0.80
   3  -8  -1    2.35    0.92
  -3   8  -1    1.75    0.88
   4  -8   1    4.32    0.95
  -4   8   1    2.58    1.01
   4   8  -1    1.27    0.90
  -4  -8  -1    2.38    0.97
   4   8   1    1.62    0.89
   4  -8  -1    2.06    0.87
   4  -8  -1    3.14    1.04
  -4   8  -1    3.75    1.06
  -4  -8   1    2.32    1.06
   5  -8   1   14.15    1.35
   5  -8  -1   11.90    1.22
   0  -9  -1    1.24    0.93
   0  -9   1    2.63    0.98
   0   9  -1    2.67    0.94
   0   9   1    2.64    0.96
   1   9  -1    1.21    0.86
  -1  -9  -1   -1.69    0.85
  -1   9   1    0.60    0.91
   1  -9   1   -0.50    0.89
   1   9   1   -0.35    0.88
   1  -9  -1    0.13    0.88
  -1   9  -1    0.43    0.88
  -1  -9   1    1.02    0.94
  -2  -9  -1    1.15    1.00
   2  -9   1    1.85    0.97
  -2   9   1    1.00    0.97
  -2   9  -1    0.85    0.95
   2  -9  -1    2.31    0.98
  -2  -9   1    1.87    1.01
   3   9  -1   -0.12    0.90
   3  -9  -1    2.23    1.05
   0   0   2   30.31    0.57
   0   0   2   30.57    0.57
   0   0  -2   31.44    0.55
   0   0  -2   31.60    0.61
   0   0   2   31.04    0.59
   0   0   2   31.57    0.55
   0   0   2   27.10    1.50
  -1   0  -2  243.24    3.81
  -1   0   2  247.54    3.72
   1   0   2  247.57    3.78
  -1   0   2  251.55    3.84
   1   0  -2  246.11    3.78
  -2   0   2   72.43    1.25
   2   0  -2   73.40    1.30
  -2   0   2   73.86    1.42
   3   0  -2   89.48    1.61
   4   0  -2   42.13    1.00
   5   0  -2   38.35    1.05
   6   0  -2   -0.24    0.39
   6   0  -2   -0.34    0.53
   7   0  -2    0.51    0.63
   7   0   2   -0.38    0.47
   7   0   2   -1.11    2.27
   7   0   2   -0.65    0.52
   8   0  -2    1.56    0.80
   8   0   2    1.11    0.69
   9   0  -2    1.24    0.87
   0  -1   2   85.05    1.39
   0   1  -2   83.74    1.42
   0   1   2   85.54    1.37
   0  -1   2   85.85    1.47
   0   1   2   87.63    1.49
   0  -1  -2   87.58    1.49
   0   1  -2   84.04    1.45
   1  -1   2  932.42   14.44
   1   1  -2  923.46   14.49
  -1   1   2  943.65   14.50
   1   1  -2  930.62   14.08
   1  -1   2  916.63   14.21
  -1  -1  -2  954.83   14.37
  -1   1   2  944.69   14.10
  -1  -1   2  965.21   14.43
   1   1   2  952.32   14.04
   1  -1  -2  924.40   14.61
  -1  -1   2  985.79   14.09
   1   1   2  926.39   14.29
   1  -1  -2  929.49   14.11
  -1   1  -2  938.73   14.31
  -2  -1  -2  961.61   14.54
  -2   1   2  962.71   14.65
  -2   1   2 1000.00   18.51
   2   1  -2  957.36   14.36
   2  -1   2  958.98   14.44
   2  -1   2  945.79   14.39
   2   1  -2  970.05   14.43
   2   1   2  937.10   14.36
  -2  -1   2  959.53   14.67
   2  -1  -2  955.01   14.43
   2  -1  -2  961.76   14.41
   2   1   2  909.22   17.31
  -2   1  -2  970.63   14.46
   2   1   2  943.45   14.34
   3   1  -2    4.20    0.27
   3   1  -2    4.47    0.35
   3   1  -2    4.08    0.41
   3  -1   2    3.75    0.36
  -3   1   2    4.35    0.42
  -3  -1   2    3.76    0.43
   3   1   2    3.67    1.72
   3  -1  -2    2.75    0.40
   3   1   2    4.03    0.38
   3   1   2    2.62    0.37
   3  -1  -2    3.46    0.27
   4  -1   2   25.14    0.84
   4   1  -2   26.95    0.88
   4  -1  -2   26.40    0.98
   4  -1  -2   25.63    0.70
   4   1   2   30.12    3.64
   4   1   2   25.22    0.86
   4   1   2   26.00    0.81
   5   1  -2   32.07    0.89
   5   1  -2   33.10    1.06
   5  -1   2   31.50    1.06
   5   1   2   31.46    1.00
   5  -1  -2   32.37    0.89
   5   1   2   31.16    1.03
   5  -1  -2   34.55    1.23
   5   1   2   35.54    4.22
   6   1  -2   10.46    0.75
   6  -1   2   10.42    0.76
   6  -1  -2   10.60    0.92
   6   1   2   11.79    0.81
   6   1   2   13.71    3.68
   6   1   2   11.86    0.84
   7   1  -2    1.78    0.61
   7  -1   2    0.98    0.58
   7   1   2    1.62    0.57
   7   1   2    2.70    0.59
   7   1   2    1.49    0.61
   7  -1  -2    1.82    0.72
   7   1   2   -0.65    3.04
   7   1   2    1.78    2.94
   8   1  -2    5.83    0.94
   8  -1   2    5.01    0.81
   8   1   2    0.66    3.61
   8  -1  -2    4.59    0.90
   8   1   2    7.13    0.83
   9  -1   2    7.55    1.04
   9   1  -2    5.92    1.06
   9   1   2    6.10    0.98
   9  -1  -2    6.63    1.08
   0   2  -2   14.87    0.58
   0  -2   2   14.68    0.58
   0  -2  -2   14.21    0.69
   0  -2   2   15.18    0.57
   0   2  -2   15.83    0.59
   0   2   2   13.97    0.62
  -1  -2  -2   61.88    1.29
   1  -2   2   63.05    1.28
   1   2  -2   62.51    1.27
   1   2  -2   60.65    1.14
  -1   2   2   62.61    1.34
   1  -2   2   64.14    1.17
   1   2   2   61.44    1.28
  -1   2  -2   62.47    1.15
   1  -2  -2   59.94    1.28
  -1  -2   2   63.77    1.29
  -1   2  -2   57.79    1.29
  -1  -2   2   61.69    1.21
   2   2  -2  101.03    1.66
  -2  -2  -2   98.95    1.92
   2  -2   2  101.55    1.76
   2   2  -2   98.79    1.88
  -2   2   2  101.01    1.91
   2  -2   2   97.77    1.90
  -2   2  -2  101.49    1.95
  -2  -2   2  101.68    1.79
  -2   2  -2  101.21    1.69
   2   2   2   98.16    1.84
   2  -2  -2   97.98    1.92
  -3   2   2   46.67    1.23
  -3  -2  -2   47.14    1.25
   3  -2   2   46.28    1.07
  -3   2   2   48.62    4.04
   3  -2   2   46.35    1.23
   3   2  -2   45.63    0.92
   3   2  -2   47.56    1.21
  -3  -2   2   46.50    1.09
   3   2   2   48.94    1.13
   3  -2  -2   48.72    1.24
  -4   2   2   62.02    1.52
   4   2  -2   60.69    1.20
   4  -2   2   61.20    1.38
   4   2  -2   62.43    1.50
   4  -2  -2   60.91    1.53
   4  -2  -2   61.06    1.08
   4   2   2   61.64    1.40
  -4  -2   2   61.62    1.42
   5  -2   2   22.13    0.93
   5   2  -2   22.23    1.07
   5   2   2   22.73    0.90
   5  -2  -2   22.57    1.08
   6  -2   2   31.91    1.21
   6   2  -2   30.32    1.26
   6  -2  -2   27.46    1.32
   6   2   2   30.14    1.27
   6   2   2   34.46    5.70
   6   2   2   29.33    1.11
   7  -2   2    3.20    0.67
   7   2  -2    3.83    0.76
   7   2   2    2.61    3.73
   7  -2  -2    3.15    0.82
   7   2   2    2.61    0.73
   8   2  -2    1.98    0.81
   8  -2   2    1.83    0.80
   8   2   2    2.55    0.79
   8  -2  -2    3.91    0.95
   9  -2   2    1.84    0.92
   9  -2  -2    0.96    0.94
   9   2   2    1.54    0.95
   0   3  -2   12.31    0.71
   0   3   2   12.79    0.79
   0   3   2   16.78    2.38
   0  -3   2   13.27    0.63
   0   3   2   12.74    0.53
   0  -3  -2   13.46    0.48
   0  -3   2   12.19    0.66
   0   3  -2   13.11    0.60
   0  -3  -2   12.26    0.70
   1   3  -2  118.96    2.19
  -1  -3  -2  121.29    2.29
   1   3  -2  122.00    2.13
  -1   3   2  121.34    1.94
   1  -3   2  117.35    2.19
   1  -3   2  121.46    2.16
  -1  -3  -2  118.77    1.89
  -1   3   2  121.43    2.30
  -1  -3   2  120.28    2.24
  -1  -3   2  122.24    2.11
   1   3   2  119.31    2.24
   1  -3  -2  120.88    2.28
  -1   3  -2  118.26    2.26
  -1   3  -2  118.74    2.05
  -2  -3  -2   19.67    0.88
   2   3  -2   17.76    0.80
  -2  -3  -2   19.58    0.41
   2  -3   2   20.37    0.75
  -2   3   2   19.99    0.92
   2   3  -2   19.96    0.68
   2  -3   2   19.64    0.83
  -2   3  -2   20.05    0.88
   2  -3  -2   17.59    0.88
   2   3   2   19.44    0.80
  -2  -3   2   18.27    0.87
  -2   3  -2   19.21    0.58
  -2  -3   2   18.63    0.67
  -3   3   2   23.34    0.98
   3  -3   2   22.99    0.82
   3   3  -2   21.94    0.87
   3  -3   2   24.55    0.95
  -3  -3  -2   22.42    0.98
   3   3  -2   24.19    0.71
   3  -3  -2   22.26    0.97
   3   3   2   23.49    0.87
  -3  -3   2   23.18    0.80
  -3   3  -2   24.36    0.63
  -3   3  -2   24.76    1.03
   4  -3   2    1.40    0.43
   4   3  -2    0.86    0.49
  -4   3   2    0.76    0.52
   4   3  -2    2.04    0.34
   4  -3   2    1.07    0.45
  -4   3   2    1.71    2.11
   4   3   2    0.70    2.43
   4   3   2    0.88    0.42
  -4  -3   2    0.66    0.39
   4   3   2    1.16    0.42
   4  -3  -2    1.45    0.54
   5  -3   2   22.30    1.00
   5   3  -2   21.73    1.13
   5  -3   2   19.99    1.13
  -5   3   2   20.73    1.12
   5  -3  -2   20.21    1.13
   5   3   2   20.75    0.96
   5   3   2   21.61    1.12
   5   3   2   22.46    4.56
   6  -3   2    0.70    0.67
   6  -3   2    0.20    0.53
   6   3  -2    1.63    0.68
   6   3   2    1.86    3.37
   6   3   2    1.56    0.61
   6   3   2    0.43    0.65
   6  -3  -2    0.42    0.67
   7   3  -2    3.12    0.82
   7  -3   2    4.74    0.85
   7  -3  -2    4.56    0.89
   7   3   2    2.62    0.76
   7   3   2   -0.98    3.51
   8  -3   2    4.97    0.99
   8   3  -2    5.01    0.95
   8  -3  -2    5.84    1.03
   8   3   2    6.39    0.97
   0   4  -2   24.88    0.92
   0  -4   2   23.60    0.92
   0   4   2   25.93    0.75
   0  -4  -2   24.51    0.70
   0  -4  -2   24.94    1.01
   0   4   2   24.32    1.01
   0   4  -2   24.55    0.83
   0  -4   2   24.66    0.84
  -1  -4  -2   23.61    0.59
   1  -4   2   26.19    0.90
  -1  -4  -2   22.72    0.94
  -1   4   2   23.98    0.64
  -1   4   2   23.00    0.95
   1   4  -2   23.57    0.88
   1   4  -2   22.79    0.87
   1  -4   2   23.38    0.87
  -1  -4   2   24.82    0.81
   1   4   2   24.58    0.82
  -1   4  -2   23.64    0.96
   1  -4  -2   23.46    0.79
   1   4   2   29.99    4.00
   1   4   2   24.27    1.00
  -1   4  -2   24.54    0.75
  -1  -4   2   24.24    0.95
   1  -4  -2   24.23    1.01
  -2  -4  -2   29.32    0.58
   2   4  -2   29.58    1.04
  -2   4   2   29.20    1.08
  -2  -4  -2   29.81    1.15
   2  -4   2   27.74    1.01
   2  -4   2   27.61    0.96
   2   4  -2   30.23    0.92
  -2   4   2   29.44    0.55
   2   4   2   36.49    4.79
  -2  -4   2   29.13    1.11
  -2  -4   2   28.80    0.86
  -2   4  -2   30.32    1.12
   2   4   2   29.10    1.04
   2   4   2   28.59    1.00
  -2   4  -2   28.99    0.76
   2  -4  -2   27.50    1.09
   3  -4   2   12.26    0.87
  -3  -4  -2   11.02    0.83
   3   4  -2   11.05    0.76
   3  -4   2   11.11    0.79
   3   4  -2   11.51    0.68
  -3   4   2   10.19    0.77
   3   4   2   11.92    0.84
  -3  -4   2   13.07    0.96
   3   4   2   10.65    0.77
  -3   4  -2   11.76    0.56
   3  -4  -2   10.15    0.76
  -3   4  -2   11.58    0.85
   3   4   2   12.88    3.54
  -3  -4   2   10.91    0.65
   4   4  -2    0.18    0.48
   4  -4   2    1.41    0.52
  -4   4   2    1.44    0.60
  -4  -4  -2   -0.23    0.58
   4  -4   2    0.77    0.49
  -4   4  -2    1.99    0.62
   4   4   2    0.23    0.49
   4   4   2    1.46    2.94
  -4  -4   2    1.30    0.41
   4   4   2    0.48    0.54
   4  -4  -2   -0.94    0.56
   5   4  -2   53.04    1.70
  -5   4   2   51.78    1.73
   5  -4   2   52.57    1.72
   5  -4   2   54.18    1.57
   5   4   2   50.93    1.68
   5   4   2   57.18    7.20
   5  -4  -2   54.18    1.80
   5   4   2   55.36    1.55
   6  -4   2    1.65    0.76
   6  -4   2    0.95    0.66
   6   4  -2    0.52    0.67
  -6   4   2    1.59    0.74
   6   4   2    1.79    3.81
   6   4   2    1.19    0.72
   6  -4  -2    0.95    0.74
   7  -4   2    1.51    0.86
   7   4  -2    1.14    0.82
   7  -4  -2    1.72    0.88
   7   4   2    0.16    0.71
   8  -4   2   -0.93    0.92
   8   4  -2   -0.06    0.93
   8  -4  -2    0.20    0.92
   8   4   2    0.27    0.85
   0   5  -2   91.98    1.87
   0  -5   2   93.35    1.92
   0   5   2   94.40    2.15
   0   5  -2   92.52    2.07
   0  -5   2   94.31    2.07
   0  -5  -2   89.94    1.74
   0  -5  -2   93.09    2.14
   0   5   2   91.00    1.81
  -1   5   2   33.33    0.85
  -1   5   2   32.91    1.28
   1  -5   2   32.92    1.09
   1   5  -2   33.52    1.11
  -1  -5  -2   31.45    0.80
  -1  -5  -2   33.89    1.30
   1   5  -2   31.21    1.13
   1  -5   2   30.66    1.12
  -1  -5   2   32.69    0.99
  -1   5  -2   31.34    1.22
  -1   5  -2   33.38    0.96
  -1  -5   2   32.90    1.21
   1   5   2   34.70    1.31
   1  -5  -2   32.33    1.29
   1   5   2   33.13    1.06
   1  -5  -2   30.75    0.99
   2   5  -2    7.28    0.69
  -2   5   2    9.20    0.85
  -2  -5  -2    6.53    0.71
   2  -5   2    8.08    0.70
   2  -5   2    8.27    0.70
   2   5  -2    9.31    0.67
  -2   5  -2    8.53    0.56
  -2   5  -2    7.20    0.74
   2  -5  -2    8.43    0.64
  -2  -5   2    9.26    0.66
   2   5   2    8.17    0.68
  -2  -5   2    8.36    0.74
   2  -5  -2    8.61    0.83
   2   5   2   10.14    0.84
  -3  -5  -2   20.40    1.14
  -3   5   2   22.58    1.23
   3  -5   2   22.80    1.14
   3  -5   2   23.20    1.14
   3   5  -2   21.29    0.96
   3   5  -2   20.49    1.05
  -3  -5   2   19.34    0.86
   3  -5  -2   21.90    1.09
  -3  -5   2   24.82    1.24
   3  -5  -2   23.38    1.24
   3   5   2   21.75    1.16
  -3   5  -2   19.56    1.13
   3   5   2   24.04    1.12
   4  -5   2   32.88    1.34
  -4  -5  -2   33.78    1.50
   4  -5   2   31.46    1.41
   4   5  -2   34.43    1.40
  -4   5   2   32.74    1.49
   4   5   2   32.51    1.36
   4  -5  -2   33.03    1.37
   4   5   2   33.13    1.35
   4  -5  -2   34.48    1.48
  -4   5  -2   31.85    1.51
  -5   5   2    5.55    3.36
  -5   5   2    5.75    0.89
   5  -5   2    6.49    0.82
   5  -5   2    6.35    0.88
   5   5  -2    5.83    0.85
  -5   5  -2    6.88    0.96
   5   5   2    6.04    0.86
   5  -5  -2    6.36    0.94
   6   5  -2    0.73    0.70
   6  -5   2    0.92    0.82
  -6   5   2    0.69    0.78
   6   5   2    0.91    0.72
   6  -5  -2   -0.30    0.80
   7   5  -2    2.97    0.98
   7  -5   2    2.32    0.95
   7  -5  -2    3.83    1.03
   7   5   2    1.05    0.86
   7  -5  -2    3.06    0.98
   0   6   2   -0.25    0.39
   0  -6   2    0.60    0.60
   0  -6   2    0.44    0.47
   0   6   2    0.64    0.65
   0   6  -2    0.22    0.58
   0   6  -2    0.78    0.47
   0  -6  -2    0.88    0.67
   1  -6   2    7.75    0.70
   1  -6   2    7.39    0.78
  -1   6   2    6.80    0.89
   1   6  -2    7.17    0.70
  -1  -6  -2    7.43    0.89
   1   6  -2    8.95    0.79
  -1  -6   2    7.36    0.60
  -1  -6   2    7.53    0.81
  -1   6  -2    6.44    0.79
   1   6   2    7.63    0.68
  -1   6  -2    7.39    0.57
   1  -6  -2    7.01    0.60
   1   6   2    6.36    0.84
   1  -6  -2    8.13    0.89
  -2  -6  -2   23.95    1.35
   2   6  -2   25.11    1.16
  -2   6   2   24.10    1.38
   2  -6   2   24.67    1.19
   2   6  -2   22.75    1.16
   2  -6   2   23.90    1.15
  -2   6  -2   22.64    1.29
  -2  -6   2   21.90    1.28
   2  -6  -2   22.74    1.10
   2   6   2   22.15    1.23
   2   6   2   21.24    1.08
   2  -6  -2   25.15    1.36
   3  -6   2    0.66    0.65
  -3   6   2   -0.76    0.68
  -3  -6  -2    1.24    0.75
   3   6  -2    0.23    0.61
   3  -6   2    0.37    0.61
   3  -6  -2    0.71    0.57
   3   6   2    0.49    0.69
  -3  -6   2   -0.10    0.62
   3  -6  -2    0.10    0.72
   3   6   2    1.14    0.61
  -3   6  -2    0.35    0.73
   4   6  -2    6.31    0.83
  -4   6   2    8.76    1.02
   4  -6   2    7.04    0.85
   4  -6   2    7.04    0.91
  -4  -6  -2    4.39    0.89
   4   6   2    7.31    0.89
  -4   6  -2    5.56    0.96
   4   6   2    5.23    0.81
   4  -6  -2    7.33    0.83
   4  -6  -2    6.70    0.94
   5  -6   2   -0.58    0.76
   5   6  -2   -0.07    0.69
  -5   6   2    0.34    0.82
   5  -6  -2    0.63    0.72
   5   6   2   -0.57    0.73
   5  -6  -2   -0.94    0.78
  -5   6  -2   -0.05    0.79
  -6   6   2    5.19    1.04
   6  -6   2    6.25    1.08
   6   6  -2    5.31    1.00
   6   6   2    4.08    0.90
   6  -6  -2    4.69    0.97
   6  -6  -2    5.25    1.07
   7  -6  -2    0.36    1.08
   0   7  -2    0.29    0.48
   0  -7   2    1.19    0.70
   0   7   2   -0.59    0.74
   0  -7  -2    1.98    0.71
   0   7  -2   -0.81    0.63
  -1  -7  -2   15.61    1.19
   1  -7   2   14.54    1.06
   1  -7   2   15.03    1.03
   1   7  -2   14.74    1.14
   1   7  -2   13.82    0.93
  -1   7   2   14.34    1.10
   1   7   2   15.34    1.14
   1  -7  -2   13.89    1.09
  -1  -7   2   12.30    1.08
   1   7   2   13.13    0.98
  -1   7  -2   14.99    1.11
  -2   7   2    6.42    0.93
  -2  -7  -2    8.02    1.01
   2   7  -2    7.40    0.82
   2   7  -2    5.95    0.80
   2  -7   2    6.53    0.79
   2  -7   2    6.81    0.91
   2   7   2    6.55    0.77
   2   7   2    6.52    0.92
   2  -7  -2    7.01    0.73
   2  -7  -2    5.91    0.91
  -2  -7   2    8.47    0.98
  -2   7  -2    7.21    0.96
   3  -7   2    4.23    0.80
  -3  -7  -2    3.08    0.94
  -3   7   2    3.63    0.91
   3   7  -2    3.02    0.78
   3  -7   2    3.23    0.80
   3  -7  -2    4.14    0.92
  -3   7  -2    2.79    0.89
  -3  -7   2    3.98    0.95
   3   7   2    3.11    0.76
   3   7   2    4.46    0.86
   3  -7  -2    4.67    0.76
   4   7  -2    3.45    0.88
  -4   7   2    4.81    1.00
  -4  -7  -2    5.80    1.05
   4  -7   2    4.99    0.91
   4  -7  -2    4.28    1.00
   4  -7  -2    5.76    0.88
  -4   7  -2    4.85    0.97
   4   7   2    4.02    0.86
   5   7  -2    1.59    0.87
  -5   7   2    2.18    0.94
   5  -7   2    3.07    0.95
   5  -7  -2    1.37    0.80
   5  -7  -2    2.50    1.01
   5   7   2    3.44    0.94
  -5   7  -2    3.39    0.96
   6  -7   2    3.02    1.17
  -6   7   2    2.35    1.14
   6  -7  -2    4.17    0.99
   6  -7  -2    3.01    1.08
   0   8  -2    1.83    0.81
   0  -8   2    1.06    0.82
   0   8   2    0.75    0.84
   0  -8  -2    0.14    0.86
  -1  -8  -2    5.13    1.02
  -1   8   2    4.91    0.98
   1   8  -2    5.65    0.90
   1  -8   2    4.87    0.92
   1  -8  -2    6.72    1.07
  -1  -8   2    4.83    0.92
   1   8   2    5.66    0.98
  -1   8  -2    4.86    0.95
   2  -8   2    0.70    0.81
   2   8  -2    1.33    0.76
   2  -8   2    1.62    0.71
  -2   8   2    2.26    0.93
  -2  -8  -2    1.08    0.91
   2   8   2    2.66    0.90
  -2   8  -2    0.60    0.85
   2  -8  -2    2.47    0.93
   2   8   2    2.98    0.75
  -2  -8   2    1.27    0.88
   3  -8   2    0.98    0.79
   3   8  -2    1.59    0.81
  -3  -8  -2    2.24    0.96
  -3   8   2    2.38    0.97
  -3  -8   2   -0.30    0.90
  -3   8  -2    1.81    0.93
   3  -8  -2    1.93    0.96
   3   8   2    0.12    0.76
  -4  -8  -2    9.14    1.21
   4  -8   2    9.90    1.08
   4   8  -2    5.94    1.04
  -4   8   2    8.02    1.14
   4  -8  -2    8.84    1.15
   4  -8  -2   10.00    1.25
  -4   8  -2    8.60    1.21
   4   8   2   11.29    1.15
   5  -8   2   -0.40    1.10
   5  -8  -2    1.29    1.04
   5  -8  -2   -0.33    0.85
   0  -9  -2    1.69    1.00
   0  -9   2    1.45    0.92
   0   9  -2    0.50    0.87
   0   9   2    1.50    0.96
   1  -9   2    1.20    0.90
  -1  -9  -2    0.63    0.94
  -1   9   2    1.36    0.91
  -1  -9   2   -0.49    0.89
   1  -9  -2    2.51    1.00
   1   9   2   -0.21    0.88
  -1   9  -2    0.90    0.90
  -2  -9  -2   -0.01    1.07
  -2   9   2    1.16    1.03
  -2  -9   2    1.29    0.99
   2  -9  -2    0.04    0.98
   2   9   2    0.93    0.94
  -2   9  -2    1.67    1.01
   3   9  -2    3.39    1.00
   3  -9  -2    3.88    1.10
   0   0   3   -0.05    0.21
   0   0  -3    0.27    0.27
   0   0  -3   -0.05    0.19
   0   0   3    0.00    0.24
   0   0   3    0.20    0.21
  -1   0   3   70.32    1.17
  -1   0  -3   72.33    1.16
   1   0   3   72.14    1.24
   1   0  -3   70.31    1.25
  -1   0   3   68.18    1.30
  -1   0  -3   72.18    1.31
   1   0  -3   71.53    1.31
   2   0  -3  318.92    4.87
  -2   0   3  306.52    4.96
   2   0   3  318.45    4.90
  -2   0   3  318.01    4.79
  -3   0   3  128.04    2.36
   3   0  -3  129.03    2.21
   4   0  -3    6.48    0.44
   5   0  -3   13.16    0.92
   5   0  -3   13.05    0.69
   6   0  -3    4.01    0.73
   6   0  -3    4.93    0.55
   7   0   3    4.13    0.68
   7   0  -3    4.67    0.84
   8   0   3    8.11    0.90
   8   0   3    7.20    0.86
   8   0  -3    9.17    1.08
   9   0  -3    6.72    1.12
   0   1   3   62.75    1.10
   0   1  -3   64.63    1.21
   0  -1  -3   63.49    1.16
   0   1   3   64.40    1.22
   0  -1  -3   64.22    1.22
   1  -1   3  831.73   12.54
   1   1  -3  834.29   12.53
  -1  -1  -3  838.11   12.86
  -1   1   3  813.41   12.51
  -1   1   3  832.21   12.51
   1  -1   3  829.22   12.51
  -1  -1   3  866.52   12.70
   1  -1  -3  833.82   12.56
   1   1   3  825.84   12.53
  -1   1  -3  837.19   12.73
  -1   1  -3  838.61   12.49
  -1  -1   3  864.80   12.51
   1   1   3  818.63   12.72
   1  -1  -3  825.99   12.62
   2   1  -3  780.02   11.90
  -2   1   3  796.17   16.19
   2  -1   3  754.05   11.92
   2  -1   3  798.24   11.82
  -2   1   3  804.89   11.87
  -2  -1  -3  798.06   11.89
   2   1   3  783.36   11.89
   2  -1  -3  779.69   11.78
   2   1   3  781.75   11.91
  -2   1  -3  794.23   11.85
   2   1   3  787.61   11.94
   2  -1  -3  780.15   11.97
  -2  -1   3  807.42   11.93
   3  -1   3   21.97    0.79
   3   1  -3   21.71    0.47
   3   1  -3   20.53    0.48
   3  -1   3   21.89    0.66
   3   1  -3   20.04    0.75
  -3   1   3   21.19    0.72
   3  -1  -3   20.72    0.85
   3   1   3   18.98    0.77
   3   1   3   27.46    3.28
   3   1   3   20.96    0.76
  -3  -1   3   20.29    0.78
   3  -1  -3   19.48    0.55
  -4   1   3    7.10    0.50
   4  -1   3    7.29    0.56
   4   1  -3    6.10    0.51
  -4  -1   3    6.55    0.58
   4   1   3    5.61    0.52
   4  -1  -3    6.23    0.44
   4   1   3    5.26    0.49
   4   1   3    9.23    2.64
   4  -1  -3    5.15    0.54
   5   1  -3   57.52    1.43
   5  -1   3   55.95    1.38
   5   1  -3   55.96    1.19
   5   1   3   54.68    1.44
   5  -1  -3   55.39    1.22
   5  -1  -3   59.27    1.63
   5   1   3   55.79    1.42
   5   1   3   51.79    4.39
   6  -1   3   33.49    1.18
   6   1  -3   34.42    1.23
   6   1   3   31.49    1.16
   6  -1  -3   32.21    1.41
   6   1   3   31.77    1.21
   6   1   3   37.73    5.11
   7  -1   3   -0.66    0.57
   7  -1   3   -0.72    0.51
   7   1  -3    0.21    0.58
   7   1   3   -0.33    0.56
   7   1   3   -0.57    0.46
   7  -1  -3    1.05    0.69
   7   1   3   -2.38    2.53
   7   1   3   -0.11    0.52
   7   1   3    2.37    3.32
   8   1  -3    3.79    0.86
   8  -1   3    3.16    0.80
   8   1   3    5.88    3.87
   8   1   3    3.38    0.75
   8  -1  -3    4.00    0.95
   9  -1   3    1.04    0.81
   9   1  -3    0.28    0.86
   9  -1  -3   -0.62    0.84
   0   2   3  122.14    2.14
   0  -2  -3  121.00    2.16
   0   2  -3  120.03    2.06
   0   2  -3  122.71    2.08
   0  -2   3  117.81    2.02
   0  -2   3  122.03    2.11
   1   2  -3  652.01    9.91
   1  -2   3  651.75    9.77
  -1   2   3  650.26    9.94
   1  -2   3  661.88    9.93
  -1  -2  -3  662.64    9.95
   1   2  -3  647.17    9.75
  -1   2  -3  641.15    9.93
   1  -2  -3  655.46    9.96
  -1  -2   3  659.97    9.88
  -1  -2   3  636.00    9.89
  -1   2  -3  655.97    9.83
   1   2   3  636.56    9.93
  -2   2   3  104.49    2.01
   2   2  -3  106.98    2.00
   2   2  -3  107.58    1.70
   2  -2   3  103.92    1.80
  -2  -2  -3  103.97    2.01
   2  -2   3  104.69    2.01
   2   2   3  107.21    1.63
  -2   2  -3  107.93    1.84
   2  -2  -3  105.19    2.05
  -2   2  -3  104.56    2.03
   2   2   3  111.14    1.64
  -2  -2   3  106.14    1.95
   2   2   3  103.66    1.99
   3  -2   3  194.80    3.18
   3   2  -3  193.13    3.36
   3  -2   3  194.43    3.39
  -3  -2  -3  195.64    3.38
   3   2  -3  198.65    2.99
  -3   2   3  193.29    3.34
  -3  -2   3  195.39    3.29
  -3   2  -3  194.61    3.16
   3  -2  -3  186.17    3.39
   3   2   3  190.44    3.34
   4   2  -3    5.63    0.59
   4  -2   3    6.76    0.49
   4  -2   3    6.73    0.61
   4   2  -3    6.74    0.39
  -4   2   3    6.44    0.58
  -4  -2   3    7.53    0.59
   4   2   3    6.93    0.54
   4  -2  -3    5.62    0.33
   4  -2  -3    6.20    0.60
  -5   2   3   14.13    0.90
   5   2  -3   12.75    0.83
   5  -2   3   13.65    0.96
   5  -2   3   12.32    0.76
   5   2   3   12.36    0.81
   5  -2  -3   10.28    0.80
   6  -2   3    9.59    0.75
   6  -2   3   10.21    0.90
   6   2  -3   12.26    0.91
   6   2   3    7.72    0.69
   6  -2  -3    8.65    0.89
   7  -2   3   12.85    1.03
   7   2  -3   12.33    0.97
   7   2   3   11.72    0.95
   7   2   3    7.15    3.78
   7  -2  -3   12.48    1.12
   8   2  -3    2.52    0.81
   8  -2   3    2.83    0.86
   8   2   3    3.40    0.81
   8   2   3    2.95    3.93
   8  -2  -3    2.97    0.89
   9  -2   3    0.57    0.88
   9  -2  -3    1.28    0.98
   9   2   3    2.30    0.86
   0  -3   3   21.84    0.77
   0  -3   3   21.94    0.78
   0  -3  -3   23.09    0.92
   0   3  -3   20.66    0.77
   0   3   3   20.41    0.91
   0   3  -3   21.03    0.76
   1   3  -3  110.37    2.04
   1  -3   3  106.65    2.04
  -1  -3  -3  110.80    2.14
  -1   3   3  104.71    2.11
   1   3  -3  109.61    1.93
   1  -3   3  107.44    1.94
  -1   3  -3  107.54    1.91
   1  -3  -3  104.70    2.12
  -1  -3   3  105.34    2.04
  -1   3  -3  108.75    2.09
  -1  -3   3  107.69    1.98
   1   3   3  107.14    2.09
  -2  -3  -3   26.01    0.98
   2  -3   3   25.31    0.80
   2  -3   3   27.35    0.95
   2   3  -3   26.42    0.72
  -2   3   3   27.43    1.00
   2   3  -3   25.29    0.88
  -2  -3   3   25.15    0.82
  -2   3  -3   25.34    0.93
  -2   3  -3   25.59    0.72
  -2  -3   3   24.90    0.95
   2   3   3   26.91    0.93
   2  -3  -3   25.90    1.00
   3  -3   3  152.86    2.66
   3   3  -3  153.13    2.85
  -3  -3  -3  151.10    2.89
  -3   3   3  151.61    2.88
   3   3  -3  154.96    2.50
   3  -3   3  151.28    2.86
  -3   3  -3  153.91    2.54
  -3  -3   3  149.80    2.70
  -3   3  -3  152.20    2.92
   3  -3  -3  151.51    2.90
   3   3   3  148.53    2.79
   4  -3   3    4.47    0.57
  -4   3   3    5.39    2.56
   4  -3   3    7.05    0.56
  -4   3   3    7.34    0.67
   4   3  -3    5.23    0.58
   4   3   3    7.21    0.64
  -4  -3   3    6.85    0.58
   4  -3  -3    6.91    0.72
   5   3  -3    7.00    0.77
   5  -3   3    6.60    0.79
  -5   3   3    7.76    0.77
   5  -3   3    7.03    0.63
   5   3   3    8.35    0.71
   5  -3  -3    6.41    0.76
  -5  -3   3    8.10    0.68
   6  -3   3   15.94    0.99
   6  -3   3   17.23    1.26
   6   3  -3   15.81    1.05
   6  -3  -3   16.81    1.24
   6   3   3   16.32    1.16
   6   3   3   18.09    1.05
   6   3   3   12.48    4.33
   7  -3   3    9.68    1.05
   7   3  -3    8.78    1.01
   7  -3  -3    9.00    1.04
   7   3   3    6.53    4.32
   7   3   3    7.97    0.95
   8  -3   3    6.15    1.01
   8   3  -3    4.47    0.98
   8  -3  -3    8.16    1.15
   8   3   3    4.82    0.94
   0   4   3    8.10    0.52
   0  -4   3    6.03    0.52
   0   4  -3    7.83    0.53
   0  -4  -3    7.94    0.46
   0   4   3    8.63    2.28
   0   4   3    7.87    0.68
   0  -4   3    7.57    0.54
   0   4  -3    7.03    0.56
   0  -4  -3    7.23    0.62
  -1   4   3   14.19    0.50
   1  -4   3   14.76    0.77
  -1  -4  -3   13.39    0.80
   1   4  -3   15.33    0.77
   1  -4   3   12.59    0.73
  -1  -4  -3   13.38    0.41
  -1   4   3   13.01    0.88
   1   4  -3   12.52    0.70
  -1  -4   3   11.99    0.77
  -1   4  -3   14.40    0.83
   1   4   3   16.64    3.34
   1   4   3   13.33    0.87
   1  -4  -3   13.73    0.88
   1   4   3   13.10    0.66
  -1  -4   3   13.78    0.70
  -1   4  -3   14.46    0.65
   2   4  -3    5.73    0.47
   2  -4   3    5.26    0.52
   2  -4   3    4.67    0.57
  -2   4   3    5.78    0.66
  -2  -4  -3    5.62    0.66
   2   4  -3    5.83    0.60
   2   4   3    5.45    0.60
  -2   4  -3    5.91    0.66
  -2  -4   3    5.15    0.47
   2  -4  -3    5.62    0.61
  -2   4  -3    5.61    0.41
  -2  -4   3    5.51    0.60
  -3   4   3   28.08    1.20
   3  -4   3   27.71    1.00
   3  -4   3   27.82    1.15
   3   4  -3   28.69    1.13
  -3  -4  -3   29.84    1.22
   3   4  -3   28.81    0.86
   3   4   3   26.97    1.07
  -3  -4   3   28.43    0.95
   3  -4  -3   28.67    1.22
  -3   4  -3   26.48    1.21
   3   4   3   27.90    1.10
  -3   4  -3   29.07    0.77
   3   4   3   29.72    4.91
   4  -4   3   27.00    1.04
  -4  -4  -3   25.17    1.23
  -4   4   3   23.16    1.28
   4  -4   3   24.92    1.21
   4   4   3   31.20    5.36
   4   4   3   26.80    1.17
  -4   4  -3   25.83    3.75
  -4  -4   3   23.17    0.96
  -4   4  -3   22.32    1.22
   4   4   3   25.48    1.16
   4  -4  -3   24.05    1.24
   5  -4   3   43.72    1.37
   5  -4   3   41.51    1.56
  -5   4   3   42.06    1.61
   5   4  -3   41.57    1.55
   5   4   3   44.07    1.45
   5  -4  -3   41.14    1.61
   5   4   3   23.93    5.03
   5   4   3   40.26    1.52
  -5  -4   3   44.68    1.30
   6  -4   3    6.12    0.89
   6   4  -3    5.32    0.90
  -6   4   3    5.69    0.87
   6   4   3    7.57    0.90
   6   4   3    2.91    3.85
   6  -4  -3    5.63    0.93
   7   4  -3    0.30    0.78
   7  -4   3    3.28    0.92
   7  -4  -3    3.47    0.95
   7   4   3    2.79    0.85
   7   4   3    2.53    4.31
   8   4  -3    0.19    0.87
   8  -4   3   -0.57    0.89
   8   4   3    0.53    0.82
   8  -4  -3    0.02    0.93
   0   5   3    5.81    0.72
   0  -5   3    5.75    0.62
   0   5  -3    4.28    0.57
   0  -5  -3    5.33    0.41
   0  -5  -3    4.65    0.64
   0   5  -3    5.53    0.55
   0  -5   3    4.46    0.54
   0   5   3    4.61    0.45
   1  -5   3   46.22    1.33
  -1   5   3   47.03    1.04
   1  -5   3   47.48    1.35
  -1   5   3   44.75    1.49
  -1  -5  -3   47.22    1.51
   1   5  -3   47.45    1.33
   1   5  -3   48.56    1.33
   1  -5  -3   43.83    1.50
  -1   5  -3   46.97    1.19
   1   5   3   45.24    1.53
  -1  -5   3   46.65    1.26
  -1   5  -3   49.57    1.50
  -1  -5   3   47.35    1.42
   1   5   3   46.67    1.24
   1  -5  -3   47.60    1.19
   1   5   3   44.88    4.97
  -2   5   3   42.30    1.51
   2  -5   3   43.77    1.31
  -2  -5  -3   42.30    1.49
   2  -5   3   43.79    1.38
   2   5  -3   43.83    1.23
   2   5  -3   44.13    1.38
  -2  -5   3   43.49    1.45
  -2  -5   3   44.12    1.22
   2   5   3   51.76    6.17
   2  -5  -3   43.76    1.54
   2   5   3   43.89    1.51
  -2   5  -3   45.11    1.50
   2   5   3   45.88    1.34
  -2   5  -3   41.88    1.08
   2  -5  -3   41.82    1.25
   3   5  -3   15.45    1.06
   3  -5   3   13.91    1.05
  -3   5   3   13.35    1.01
   3  -5   3   12.42    0.94
  -3  -5  -3   14.06    1.03
   3   5   3   15.65    1.13
  -3  -5   3   14.06    0.77
  -3  -5   3   16.13    1.15
   3  -5  -3   15.76    1.18
   3   5   3   15.69    4.43
   3   5   3   14.54    0.99
  -3   5  -3   14.70    1.05
  -4  -5  -3   17.44    1.16
   4  -5   3   18.71    1.10
   4   5  -3   19.55    1.20
  -4   5   3   18.67    1.30
   4  -5   3   20.61    1.14
  -4   5  -3   17.79    1.25
   4   5   3   19.70    1.16
   4   5   3   16.75    4.77
   4   5   3   18.42    1.13
   4  -5  -3   19.57    1.32
  -5   5   3    2.02    0.79
   5  -5   3    0.28    0.77
   5   5  -3    1.12    0.69
  -5   5   3   -2.02    2.16
   5   5   3    1.03    0.68
   5   5   3    1.26    0.66
   5   5   3    0.84    3.72
   5  -5  -3    0.74    0.81
  -6   5   3    2.56    0.84
   6   5  -3    2.08    0.85
   6  -5   3    2.01    0.87
   6   5   3    2.48    0.81
   6  -5  -3    1.46    0.90
   7  -5   3    4.42    1.03
   7   5  -3    3.13    0.98
   7   5   3    3.71    0.95
   7  -5  -3    5.78    1.13
   0   6   3   29.15    1.44
   0  -6   3   32.86    1.31
   0   6   3   31.79    1.02
   0  -6  -3   33.12    1.46
   0   6  -3   30.88    1.33
   0  -6   3   33.28    1.16
   0   6  -3   32.14    1.17
   1  -6   3    0.86    0.53
   1   6  -3    1.45    0.58
   1   6  -3    0.96    0.57
  -1   6   3    1.29    0.74
   1  -6   3    0.75    0.59
  -1  -6  -3    0.76    0.72
  -1  -6   3    0.88    0.62
  -1   6  -3    1.48    0.66
  -1  -6   3    0.81    0.47
  -1   6  -3    0.84    0.45
   1  -6  -3    0.89    0.43
   1   6   3    1.23    0.50
   1   6   3    2.20    0.74
   1  -6  -3    1.56    0.74
   2   6  -3   17.80    1.07
   2  -6   3   16.45    1.04
   2   6  -3   18.07    1.09
  -2   6   3   18.30    1.29
   2  -6   3   17.70    1.10
  -2  -6  -3   16.06    1.14
   2  -6  -3   19.86    1.33
  -2  -6   3   17.25    1.22
   2   6   3   16.95    1.05
  -2   6  -3   18.54    1.23
  -2  -6   3   18.27    1.33
   2   6   3   17.64    1.28
   2  -6  -3   18.49    0.97
  -3   6   3   17.72    1.33
   3   6  -3   16.43    1.19
   3  -6   3   17.62    1.20
   3  -6   3   19.85    1.14
  -3  -6  -3   16.73    1.30
   3  -6  -3   16.97    1.11
   3  -6  -3   18.29    1.37
   3   6   3   17.41    1.12
   3   6   3   18.98    1.35
  -3   6  -3   17.88    1.33
  -3  -6   3   19.27    1.31
   4  -6   3    8.55    0.96
  -4   6   3    6.57    0.96
   4   6  -3    7.47    0.91
  -4  -6  -3    7.31    0.92
   4  -6  -3    6.93    0.84
   4   6   3    7.84    0.83
  -4   6  -3    8.55    1.04
   4  -6  -3    7.66    1.02
   4   6   3    8.01    0.93
  -5   6   3    8.76    1.09
   5  -6   3   10.31    1.10
   5   6  -3    8.25    1.02
   5  -6  -3    9.97    0.99
   5   6   3   10.16    1.00
   5  -6  -3    8.09    1.10
   6   6  -3    0.41    0.85
   6  -6   3    1.50    0.91
  -6   6   3    1.83    0.96
   6   6   3    1.75    0.84
   6  -6  -3    0.96    0.79
   6  -6  -3   -0.13    0.95
  -7   6   3    3.02    0.96
   7  -6  -3   -1.62    1.00
   0   7   3   18.64    1.37
   0  -7  -3   20.12    1.41
   0   7  -3   20.42    1.09
   0   7  -3   19.54    1.24
   0  -7   3   20.31    1.07
   0  -7   3   20.66    1.28
   1   7  -3   17.74    1.21
   1  -7   3   16.79    1.15
   1   7  -3   15.29    1.11
   1  -7   3   17.78    1.19
  -1   7   3   17.07    1.23
  -1  -7  -3   17.74    1.29
   1  -7  -3   16.37    1.23
   1   7   3   17.13    1.35
  -1   7  -3   16.45    1.17
   1   7   3   17.92    1.02
  -1  -7   3   17.11    1.28
   2  -7   3    1.02    0.67
  -2  -7  -3    0.16    0.78
   2   7  -3    0.23    0.66
   2  -7   3    0.85    0.67
  -2   7   3    0.21    0.77
   2   7   3    0.14    0.61
  -2   7  -3    0.94    0.76
   2   7   3    0.83    0.78
   2  -7  -3    0.53    0.80
  -2  -7   3    0.11    0.72
  -3   7   3   18.24    1.42
   3  -7   3   16.87    1.16
   3   7  -3   19.63    1.32
  -3  -7  -3   14.09    1.23
   3  -7  -3   16.74    1.28
  -3   7  -3   16.86    1.28
  -3  -7   3   17.73    1.28
   3  -7  -3   17.26    1.20
   3   7   3   17.57    1.25
   3   7   3   17.93    1.24
  -4   7   3    6.17    0.98
   4   7  -3    7.06    0.99
   4  -7   3    7.37    1.02
  -4  -7  -3    7.46    1.08
   4  -7  -3    8.53    1.13
  -4   7  -3    9.41    1.16
   4   7   3    7.27    1.31
   4  -7  -3    9.08    0.95
   4   7   3    8.23    0.99
  -5   7   3   -0.23    0.87
   5  -7   3    0.75    0.87
   5   7  -3    0.21    0.87
  -5  -7  -3    0.27    0.84
   5  -7  -3    1.19    0.78
   5   7   3    0.17    0.81
   5  -7  -3   -0.08    0.98
  -5   7  -3    0.73    0.91
  -6   7   3   -1.31    3.20
  -6   7   3    0.93    1.44
   6  -7  -3    2.49    1.10
   6  -7  -3    3.39    0.94
   0   8   3    0.70    0.86
   0   8  -3   -0.07    0.72
   0  -8   3    0.61    0.77
   0  -8  -3    0.54    0.87
  -1   8   3    0.50    0.83
   1  -8   3    1.17    0.79
  -1  -8  -3    1.15    0.92
   1   8  -3    0.32    0.65
   1   8  -3    0.94    0.75
  -1  -8   3    1.81    0.86
   1  -8  -3    1.21    0.91
  -1   8  -3    0.93    0.78
   1   8   3    1.26    0.89
   2   8  -3   -0.08    0.72
  -2   8   3    1.61    0.86
  -2  -8  -3    0.12    0.87
   2  -8   3   -0.31    0.68
  -2   8  -3    1.44    0.86
   2  -8  -3    0.47    0.90
   2   8   3   -0.58    0.64
  -2  -8   3    0.06    0.79
   2   8   3   -0.39    0.81
   3  -8   3    1.30    0.83
  -3   8   3    1.42    0.92
  -3  -8  -3    0.37    0.83
   3   8  -3    1.54    0.82
  -3   8  -3    2.29    0.95
  -3  -8   3    0.92    0.93
   3  -8  -3    2.43    0.98
   3   8   3    1.62    0.81
   3   8   3    0.66    0.92
  -4  -8  -3    3.85    1.09
  -4   8   3    3.33    0.99
   4  -8   3    1.98    0.96
   4   8  -3    1.64    0.94
   4   8   3    2.34    0.92
  -4   8  -3    2.09    0.99
   4  -8  -3    4.30    1.11
   5  -8  -3   -0.56    0.84
   5  -8  -3   -0.75    1.04
   0   9  -3    1.90    0.90
   0  -9   3    0.01    0.85
   0   9   3    0.70    0.92
   0  -9  -3   -0.36    0.96
  -1  -9  -3    0.98    0.95
  -1   9   3    0.82    0.94
   1  -9  -3   -0.04    0.96
   1   9   3    2.05    0.98
  -1   9  -3   -0.25    0.89
  -1  -9   3   -0.40    0.89
   2   9   3    2.85    1.02
  -2  -9   3    2.83    1.02
   2  -9  -3    3.26    1.08
  -2   9  -3    2.46    1.00
   3   9  -3    6.51    1.10
   0   0   4    7.84    0.44
   0   0  -4    8.73    0.52
   0   0   4    7.89    0.43
   0   0   4    7.49    0.47
   0   0  -4    8.65    0.40
   1   0  -4   56.54    1.12
   1   0  -4   58.17    1.15
  -1   0  -4   59.61    0.99
  -1   0  -4   59.61    1.19
  -1   0   4   57.80    1.03
   1   0   4   58.88    1.10
  -1   0   4   55.94    1.18
   2   0  -4  223.53    3.58
   2   0   4  225.02    3.60
  -2   0   4  227.96    3.70
  -2   0   4  224.92    3.47
   2   0  -4  221.15    3.70
  -2   0  -4  230.86    3.67
   3   0  -4   20.49    0.68
   3   0   4   18.61    0.68
  -3   0   4   18.11    0.82
  -3   0   4   19.02    0.56
   4   0   4    0.56    0.32
   4   0  -4    0.41    0.31
   4   0  -4    0.05    0.35
   5   0  -4    1.11    0.39
   5   0   4    1.08    0.40
   5   0  -4    0.20    0.51
   6   0  -4    8.86    0.90
   6   0  -4    8.63    0.65
   6   0   4    7.72    0.69
   7   0   4    5.99    0.71
   7   0   4    5.48    0.69
   7   0  -4    5.21    0.88
   8   0   4    2.20    0.67
   8   0   4    1.95    0.68
   8   0  -4    4.08    0.99
   8   0   4    1.77    0.73
   9   0  -4    5.24    1.07
   0   1  -4  127.41    2.16
   0  -1   4  126.05    2.17
   0   1   4  127.66    2.17
   0  -1  -4  127.45    2.14
   0  -1  -4  124.89    2.11
   0   1   4  127.12    2.06
  -1   1   4   68.80    1.32
  -1   1   4   69.05    1.33
  -1  -1  -4   70.27    1.29
   1   1  -4   67.53    1.35
   1  -1   4   68.10    1.36
   1  -1  -4   68.47    1.23
  -1   1  -4   70.49    1.34
   1   1   4   66.49    1.15
  -1  -1   4   69.31    1.37
   1  -1  -4   70.80    1.38
   2  -1   4    0.90    0.19
  -2   1   4    1.48    1.78
   2  -1   4    0.79    0.30
  -2  -1  -4    0.85    0.31
   2   1  -4    0.68    0.34
  -2   1   4    0.69    0.36
  -2   1   4    0.74    0.33
  -2  -1   4    0.75    0.36
   2  -1  -4    0.61    0.23
   2   1   4    0.54    0.35
   2   1   4    0.16    0.33
  -2   1  -4    0.50    0.31
   2   1   4    0.75    0.22
   2  -1  -4    0.28    0.32
  -3   1   4   68.47    1.37
   3  -1   4   68.00    1.47
   3  -1   4   66.63    1.28
   3   1  -4   67.11    1.46
  -3  -1   4   69.30    1.51
   3  -1  -4   68.61    1.25
   3   1   4   67.87    1.30
   3   1   4   67.55    1.51
   3   1   4   69.54    4.38
   3   1   4   69.77    1.48
   3  -1  -4   67.12    1.55
   4  -1   4   28.04    0.98
   4   1  -4   28.74    0.95
   4  -1   4   28.90    0.85
   4   1  -4   29.21    0.64
  -4   1   4   31.02    0.91
  -4  -1   4   28.95    1.04
   4   1   4   28.54    0.97
   4  -1  -4   29.44    0.76
   4   1   4   29.75    1.01
   4   1   4   32.26    4.03
   4  -1  -4   31.44    1.07
   4   1   4   29.74    0.85
   5  -1   4   18.62    0.93
   5  -1   4   19.22    0.84
   5   1  -4   17.86    0.89
   5  -1  -4   19.50    1.08
   5   1   4   29.27    4.66
   5   1   4   17.91    0.92
   5   1   4   16.77    0.92
   5  -1  -4   16.69    0.69
   6  -1   4    1.44    0.55
   6   1  -4    3.38    0.59
   6  -1   4    2.35    0.52
   6  -1  -4    3.23    0.73
   6   1   4    2.31    0.58
   6   1   4    1.75    0.55
   6   1   4    1.38    2.56
   7   1  -4   10.97    0.86
   7  -1   4    9.24    0.87
   7   1  -4    9.81    0.93
   7   1   4    7.50    3.48
   7  -1  -4    9.96    1.02
   7   1   4   10.30    0.87
   7   1   4   10.88    0.84
   8   1  -4    4.87    0.97
   8  -1   4    3.06    0.77
   8   1   4    2.51    3.87
   8  -1  -4    1.71    0.88
   8   1   4    3.28    0.76
   9   1  -4    0.50    1.30
   9  -1   4    0.56    0.78
   9  -1  -4    1.55    0.96
   0  -2  -4    2.43    0.43
   0   2  -4    2.00    0.39
   0   2   4    2.53    0.43
   0  -2   4    2.20    0.39
   0  -2   4    1.59    0.28
   0   2  -4    1.91    0.31
   1   2  -4   60.66    1.11
   1  -2   4   61.26    1.09
   1   2  -4   63.36    1.33
  -1   2   4   60.54    1.35
  -1  -2  -4   62.50    1.34
   1  -2   4   61.98    1.34
   1  -2  -4   61.59    1.38
  -1   2  -4   59.99    1.26
  -1  -2   4   63.30    1.32
   1   2   4   59.90    1.35
   2   2  -4   70.40    1.51
  -2   2   4   73.30    1.53
   2  -2   4   71.15    1.56
   2   2  -4   71.33    1.15
   2  -2   4   71.95    1.28
  -2  -2  -4   72.59    1.54
   2  -2  -4   72.64    1.19
  -2  -2   4   74.31    1.50
  -2   2  -4   71.14    1.42
   2   2   4   73.08    1.56
   2  -2  -4   73.25    1.61
  -3   2   4   99.26    1.93
  -3  -2  -4   97.91    1.96
   3  -2   4   94.53    1.99
   3   2  -4   95.18    1.96
   3  -2   4   94.74    1.72
   3   2   4   97.32    1.97
  -3   2  -4   96.65    1.79
   3  -2  -4   99.04    1.56
  -3  -2   4   96.89    1.92
   3  -2  -4   95.71    2.03
   3   2   4   97.24    1.62
  -4   2   4   28.05    1.01
   4   2  -4   30.32    1.08
   4  -2   4   29.93    1.09
   4  -2   4   29.33    0.87
   4   2   4   28.56    0.77
   4   2   4   28.92    1.01
   4  -2  -4   29.95    0.65
   4  -2  -4   30.51    1.14
  -4  -2   4   29.49    1.06
  -5   2   4   11.54    0.87
   5  -2   4   10.59    0.72
   5   2  -4   12.53    0.83
   5  -2   4   12.52    0.87
   5   2   4   12.60    0.88
   5  -2  -4   12.45    0.91
  -5  -2   4   10.89    0.77
   6  -2   4    5.93    0.80
   6  -2   4    6.15    0.66
   6   2  -4    6.71    0.77
   6   2   4    6.31    0.68
   6  -2  -4    6.65    0.87
   7  -2   4   20.69    1.35
   7   2  -4   23.79    1.28
   7   2   4   21.70    1.17
   7   2   4   21.92    1.28
   7  -2  -4   23.56    1.48
   7   2   4   21.87    5.71
   8   2  -4    2.18    0.81
   8  -2   4    2.36    0.82
   8   2   4    1.03    3.78
   8   2   4    4.38    0.85
   8  -2  -4    2.86    0.94
   9  -2   4    2.34    0.95
   9  -2  -4    2.89    1.37
   9   2   4    1.87    0.85
   0  -3   4    0.20    0.37
   0   3   4    0.27    0.45
   0  -3  -4   -0.17    0.40
   0  -3   4    0.19    0.31
   0   3  -4    0.33    0.37
   0   3  -4   -0.01    0.32
   1  -3   4   72.22    1.56
   1  -3   4   74.31    1.41
  -1   3   4   72.46    1.65
   1   3  -4   71.60    1.40
   1   3  -4   75.00    1.58
  -1  -3  -4   76.72    1.65
  -1  -3   4   72.03    1.52
   1   3   4   72.25    1.61
   1  -3  -4   72.48    1.65
  -1   3  -4   70.47    1.58
  -1  -3   4   73.12    1.54
  -1   3  -4   72.20    1.46
  -2  -3  -4   22.19    0.92
   2  -3   4   21.53    0.69
  -2   3   4   21.86    0.94
   2   3  -4   20.80    0.88
   2   3  -4   20.58    0.60
   2  -3   4   21.69    0.84
   2   3   4   19.94    0.88
  -2   3  -4   20.88    0.70
  -2  -3   4   20.47    0.78
   2  -3  -4   20.11    0.88
  -2   3  -4   19.37    0.84
   3   3  -4   76.50    1.31
   3  -3   4   77.05    1.78
   3  -3   4   74.25    1.50
  -3  -3  -4   74.92    1.77
   3   3  -4   77.17    1.76
  -3   3   4   75.85    1.76
   3  -3  -4   73.22    1.77
  -3  -3   4   76.98    1.65
  -3   3  -4   75.24    1.49
   3   3   4   76.03    1.76
  -4   3   4   75.39    1.85
   4  -3   4   74.65    1.88
   4  -3   4   77.00    1.60
   4   3  -4   75.19    1.84
  -4  -3  -4   75.65    1.86
  -4   3   4   72.65    5.63
   4  -3  -4   73.53    1.91
  -4  -3   4   72.83    1.71
   4   3   4   76.64    1.83
   5  -3   4   26.50    1.27
   5  -3   4   27.31    1.00
  -5   3   4   28.60    1.25
   5   3  -4   26.70    1.26
   5  -3  -4   29.97    1.36
   5   3   4   29.26    1.23
  -5  -3   4   28.04    1.15
   6  -3   4   23.18    1.32
   6   3  -4   23.98    1.32
  -6   3   4   22.98    1.26
   6  -3  -4   22.35    1.39
   6   3   4   24.77    1.22
   7  -3   4    5.23    0.91
   7   3  -4    4.99    0.88
   7   3   4    4.80    3.77
   7   3   4    4.40    0.82
   7  -3  -4    5.85    0.97
   8   3  -4    0.33    0.84
   8  -3   4    0.90    0.85
   8  -3  -4    1.61    0.98
   8   3   4    0.56    0.82
   8   3   4   -2.72    3.95
   0   4  -4    6.41    0.54
   0  -4   4    6.59    0.53
   0  -4   4    6.02    0.54
   0   4  -4    6.99    0.57
   0   4   4    7.34    0.69
   0  -4  -4    6.19    0.63
   0  -4  -4    6.64    0.43
  -1   4   4   13.78    0.51
   1   4  -4   14.33    0.70
   1   4  -4   14.01    0.80
   1  -4   4   14.25    0.79
  -1  -4  -4   13.74    0.36
  -1   4   4   14.03    0.92
   1  -4   4   14.03    0.70
  -1  -4  -4   13.07    0.91
  -1   4   4    9.86    1.87
  -1  -4   4   12.84    0.73
  -1  -4   4   13.32    0.78
   1  -4  -4   14.81    0.95
  -1   4  -4   13.14    0.69
  -1   4  -4   13.62    0.82
   1   4   4   14.63    0.92
   2   4  -4   20.76    0.73
  -2  -4  -4   18.43    0.94
   2  -4   4   18.63    0.95
   2  -4   4   19.61    0.80
   2   4  -4   18.64    0.93
  -2   4   4   18.18    1.03
   2   4   4   19.22    0.97
  -2   4  -4   20.36    0.75
  -2  -4   4   20.57    0.97
   2  -4  -4   19.85    0.98
  -2   4  -4   21.12    1.02
  -2  -4   4   19.02    0.81
   3   4  -4    4.51    0.44
  -3   4   4    4.70    0.71
  -3  -4  -4    5.62    0.70
   3  -4   4    4.23    0.65
   3  -4   4    4.93    0.51
   3   4  -4    2.98    0.60
  -3   4  -4    5.12    0.43
   3   4   4    4.19    0.64
  -3  -4   4    4.03    0.51
  -3   4  -4    5.54    0.71
   3  -4  -4    2.73    0.66
   4   4  -4    5.23    0.71
  -4  -4  -4    5.48    0.76
  -4   4   4    5.13    0.70
   4  -4   4    5.27    0.57
   4  -4   4    6.81    0.80
  -4  -4   4    4.31    0.56
   4   4   4    5.89    0.72
  -4   4  -4    6.35    2.22
   4  -4  -4    5.08    0.72
  -5   4   4    0.03    2.09
  -5   4   4    1.83    0.69
   5  -4   4   -0.01    0.67
   5   4  -4    1.22    0.68
   5   4   4    2.43    0.67
   5   4   4   -1.64    3.09
   5   4   4    1.04    0.62
   5  -4  -4    1.63    0.76
  -5  -4   4    1.84    0.54
  -6   4   4    7.07    0.89
   6   4  -4    5.55    0.88
   6  -4   4    6.48    0.95
   6   4   4    5.55    3.97
   6   4   4    5.70    0.79
   6   4   4    8.02    0.93
   6  -4  -4    6.33    1.00
   7  -4   4   -0.32    0.84
   7   4  -4    0.39    0.79
   7   4   4   -0.42    3.65
   7   4   4    0.90    0.74
   7  -4  -4   -0.73    0.87
   8  -4   4   -0.82    0.88
   8   4  -4   -0.52    0.89
   8  -4  -4   -0.57    0.94
   8   4   4   -0.21    0.81
   0   5  -4    6.16    0.64
   0  -5  -4    7.48    0.51
   0   5  -4    5.86    0.58
   0  -5   4    7.16    0.65
   0  -5   4    7.93    0.66
   0   5   4    6.35    0.50
   0  -5  -4    6.73    0.78
   0   5   4    3.83    2.33
   0   5   4    8.03    0.80
   1   5  -4   -0.13    0.43
  -1   5   4    0.30    0.28
   1   5  -4    0.54    0.49
   1  -5   4    0.56    0.49
  -1  -5  -4    0.37    0.59
   1  -5   4    0.17    0.46
  -1   5   4    0.50    0.57
  -1  -5   4    0.45    0.44
   1  -5  -4    0.18    0.35
  -1   5  -4   -0.10    0.41
   1  -5  -4    0.10    0.61
   1   5   4    2.10    2.46
   1   5   4    0.11    0.39
  -1  -5   4    0.28    0.50
  -1   5  -4    0.85    0.53
   1   5   4   -0.14    0.56
   2   5  -4   16.96    1.01
   2   5  -4   19.41    0.87
   2  -5   4   17.59    0.91
   2  -5   4   18.26    1.03
  -2  -5  -4   14.98    1.02
  -2   5   4   18.54    1.18
   2   5   4   20.15    4.18
  -2   5  -4   17.14    0.78
   2   5   4   18.61    1.16
   2  -5  -4   18.34    1.20
  -2  -5   4   17.52    1.05
  -2   5  -4   19.14    1.13
   2   5   4   16.32    0.96
  -2  -5   4   18.16    0.90
   3  -5   4   27.27    1.13
  -3  -5  -4   26.16    1.32
   3  -5   4   29.28    1.29
  -3   5   4   27.26    1.38
   3   5  -4   27.41    1.26
  -3   5  -4   28.77    1.36
   3   5   4   26.06    1.31
   3   5   4   42.36    6.44
   3   5   4   29.42    1.22
   3  -5  -4   28.37    1.41
  -3  -5   4   27.63    1.06
   4  -5   4    8.01    0.90
  -4  -5  -4    6.92    0.88
  -4   5   4    7.07    0.86
   4   5  -4    8.18    0.88
   4  -5  -4    7.48    0.93
   4   5   4    5.52    4.28
  -4  -5   4    7.53    1.01
  -4   5  -4    7.96    0.95
   4   5   4    7.19    0.80
   4   5   4    7.26    0.84
   5   5  -4    0.44    0.64
   5  -5   4   -0.25    0.73
  -5   5   4    0.85    0.74
  -5   5   4    0.83    2.57
   5   5   4    3.72    3.96
   5   5   4    1.48    0.70
   5   5   4    0.44    0.69
   5  -5  -4    0.90    0.83
   6  -5   4   -0.90    0.77
   6   5  -4    0.44    0.79
  -6   5   4    0.15    0.73
   6  -5  -4   -0.05    0.88
   6   5   4    1.03    0.68
   6   5   4   -0.61    3.49
   7  -5   4    3.83    1.05
   7   5  -4    3.38    0.94
  -7   5   4    4.15    0.95
   7  -5  -4    1.77    1.03
   7   5   4    3.48    0.93
   0  -6   4   12.31    0.84
   0  -6   4   13.26    0.99
   0  -6  -4   12.76    1.05
   0   6   4   13.53    0.76
   0   6  -4   12.83    0.92
   0   6  -4   14.81    1.02
   0   6   4   12.21    1.03
   1  -6   4   69.29    1.81
  -1  -6  -4   68.93    2.03
   1   6  -4   71.35    1.80
   1  -6   4   68.74    1.82
   1   6  -4   66.45    1.76
  -1   6   4   68.03    2.02
   1  -6  -4   67.95    2.06
  -1  -6   4   65.32    1.71
  -1  -6   4   69.47    1.90
   1   6   4   70.60    2.03
  -1   6  -4   69.94    1.65
   1   6   4   67.61    1.67
  -1   6  -4   69.40    1.97
   2  -6   4   35.19    1.40
   2  -6   4   33.53    1.30
  -2  -6  -4   33.28    1.52
  -2   6   4   34.73    1.59
   2   6  -4   37.12    1.26
   2   6  -4   32.75    1.35
   2   6   4   34.43    1.55
   2   6   4   34.72    1.28
   2  -6  -4   35.28    1.21
   2   6   4   34.49    5.50
  -2  -6   4   34.15    1.46
  -2  -6   4   34.91    1.20
  -2   6  -4   35.58    1.52
   2  -6  -4   37.07    1.63
  -3  -6  -4   22.59    1.40
  -3   6   4   22.36    1.46
   3  -6   4   22.00    1.44
   3  -6   4   20.49    1.27
   3   6  -4   21.13    1.26
   3  -6  -4   21.84    1.46
   3   6   4   23.46    1.44
   3   6   4   22.58    1.20
   3  -6  -4   23.55    1.18
  -3   6  -4   22.81    1.40
   3   6   4   23.86    5.56
   4  -6   4    1.80    0.78
  -4   6   4    2.12    0.84
   4   6  -4    2.55    0.77
  -4  -6  -4    1.26    0.76
   4  -6  -4    1.54    0.66
   4   6   4    2.02    0.66
   4   6   4    1.26    0.79
  -4   6  -4    1.45    0.80
   4   6   4    2.49    3.68
   4  -6  -4    1.11    0.86
  -5   6   4    1.00    0.81
   5   6  -4    1.48    0.81
  -5  -6  -4    0.52    0.85
   5  -6   4    0.88    0.80
   5  -6  -4    0.31    0.84
   5   6   4    1.97    0.78
   5  -6  -4    1.23    0.77
  -6   6   4    2.20    0.90
   6  -6   4    2.24    0.98
   6   6  -4    1.93    0.92
   6  -6  -4    3.21    0.91
   6  -6  -4    2.68    1.05
   6   6   4    3.56    0.87
  -7   6   4    3.81    1.03
   7  -6  -4    4.20    1.22
   0   7  -4   15.45    1.08
   0   7  -4   14.93    1.01
   0   7   4   13.57    1.12
   0  -7   4   16.96    1.25
   0  -7   4   15.54    1.07
   0  -7  -4   14.58    1.19
   1   7  -4    1.73    0.65
   1  -7   4    1.31    0.69
  -1   7   4    1.78    0.79
   1  -7   4    1.93    0.66
   1   7  -4    1.97    0.68
  -1  -7  -4    3.28    0.89
   1  -7  -4    1.10    0.80
  -1   7  -4    0.86    0.71
   1   7   4    1.91    0.55
  -1  -7   4    2.90    0.79
   1   7   4    2.09    0.83
  -2  -7  -4    9.89    1.10
   2   7  -4    8.84    0.90
   2  -7   4   11.34    0.95
   2  -7   4   10.17    0.93
  -2   7   4   11.98    1.15
   2   7   4    9.00    1.05
   2   7   4   10.32    0.89
  -2   7  -4   10.22    1.05
  -2  -7   4   11.51    1.08
   2  -7  -4   11.44    1.19
  -3   7   4    0.25    0.82
   3   7  -4    0.40    0.71
  -3  -7  -4    0.98    0.85
   3  -7   4   -1.20    0.72
   3  -7  -4   -0.05    0.57
   3   7   4    1.42    0.70
   3  -7  -4    0.45    0.87
   3   7   4    1.21    0.86
  -3   7  -4    0.58    0.82
  -4  -7  -4    5.27    1.02
  -4   7   4    4.62    1.00
   4  -7   4    3.58    0.89
   4   7  -4    3.25    0.92
   4  -7  -4    3.99    0.80
   4  -7  -4    4.13    1.02
   4   7   4    6.22    1.04
   4   7   4    3.67    0.86
  -4   7  -4    4.11    0.92
   5  -7   4    3.52    1.00
  -5  -7  -4    3.26    1.03
   5   7  -4    1.82    0.92
  -5   7   4    3.50    1.02
   5  -7  -4    3.11    0.88
   5  -7  -4    2.87    1.09
   5   7   4    3.23    0.92
  -6   7   4    1.03    3.36
   6  -7  -4    4.56    1.02
   6  -7  -4    2.93    1.19
   0   8   4    0.89    0.89
   0   8  -4    1.01    0.78
   0  -8  -4   -0.43    0.77
   0  -8   4   -0.49    0.73
  -1  -8  -4    6.43    1.09
   1   8  -4    3.78    0.78
   1  -8   4    2.35    1.23
  -1   8   4    4.35    1.02
   1  -8   4    5.17    0.91
   1  -8  -4    3.93    0.99
   1   8   4    5.12    1.01
  -1   8  -4    6.19    1.00
  -1  -8   4    7.48    1.04
   2  -8   4    0.53    0.74
  -2  -8  -4    0.05    0.77
   2   8  -4    0.35    0.73
  -2   8   4    1.73    0.92
  -2  -8   4    0.85    0.86
  -2   8  -4    0.68    0.88
   2   8   4    1.24    0.91
   2  -8  -4    1.99    0.95
  -3  -8  -4    1.62    0.99
  -3   8   4    1.10    0.92
   3  -8   4    1.29    0.78
   3   8  -4    0.67    0.84
   3  -8  -4    2.30    1.05
  -3   8  -4    1.30    0.94
   3   8   4    1.00    0.76
   3   8   4    1.67    0.95
   4  -8   4    0.86    0.90
  -4   8   4    1.40    0.99
  -4  -8  -4    0.70    0.97
   4   8  -4    1.44    0.92
   4  -8  -4    0.00    1.01
   4   8   4    0.02    0.82
  -4   8  -4    1.45    1.00
   0  -9  -4    6.77    1.15
   0   9   4    7.29    1.18
  -1   9   4    0.39    0.96
  -1  -9  -4    1.19    1.02
  -1  -9   4    1.99    0.94
   1   9   4    1.61    0.98
  -1   9  -4   -0.18    0.90
   1  -9  -4    2.72    1.06
  -2  -9   4    6.21    1.13
   2  -9  -4    5.05    1.20
  -2   9  -4    5.37    1.12
   2   9   4    2.31    1.06
   0   0   5   -0.11    0.27
   0   0   5   -0.09    0.30
   0   0   5   -0.41    0.26
   0   0  -5   -0.17    0.29
   0   0  -5   -0.47    0.23
  -1   0   5   23.07    0.58
  -1   0  -5   23.21    0.76
   1   0   5   23.09    0.65
  -1   0   5   22.25    0.75
   1   0  -5   21.91    0.68
  -1   0  -5   23.30    0.52
   1   0  -5   21.84    0.70
   2   0   5   11.19    0.52
   2   0  -5   10.74    0.66
  -2   0   5   11.55    0.45
  -2   0   5   11.24    0.67
  -2   0  -5   10.70    0.59
   2   0  -5   11.32    0.55
  -3   0   5  181.21    3.20
  -3   0   5  184.84    2.87
   3   0   5  176.49    3.04
   3   0  -5  179.08    3.02
   3   0  -5  181.79    3.21
   4   0  -5    0.38    0.34
   4   0  -5    0.23    0.45
   4   0   5    1.08    0.34
  -4   0   5   -0.07    0.45
   5   0  -5    0.86    0.41
   5   0  -5    0.21    0.48
   5   0   5    0.43    0.40
   6   0   5    0.55    0.47
   6   0  -5    1.40    0.68
   6   0  -5    1.24    0.48
   7   0   5   16.36    1.07
   7   0  -5   15.40    1.19
   8   0   5    0.09    0.71
   8   0   5   -1.15    2.82
   8   0   5    0.29    0.64
   8   0  -5    1.18    0.85
   0  -1  -5   47.05    1.04
   0   1   5   47.22    1.06
   0  -1  -5   45.46    1.02
   0   1  -5   45.70    1.04
   0  -1   5   46.64    1.08
   0   1   5   47.61    0.96
  -1  -1  -5  324.04    5.20
  -1  -1  -5  337.58    5.13
  -1   1   5  327.17    5.18
   1   1  -5  319.79    5.19
   1  -1   5  325.68    5.20
  -1   1   5  328.97    5.16
  -1  -1   5  332.69    4.99
  -1  -1   5  334.73    6.45
  -1   1  -5  330.10    5.20
  -1  -1   5  342.52    5.00
   1  -1  -5  331.76    5.22
   1   1   5  328.35    5.04
   1  -1  -5  332.58    5.10
  -1  -1   5  332.36    5.24
   1   1   5  328.46    5.25
   2   1  -5  100.80    1.89
   2  -1   5  100.64    1.58
  -2   1   5   97.32    4.92
  -2   1   5  100.09    1.93
  -2   1   5  102.00    1.82
   2  -1   5  100.80    1.90
  -2  -1  -5  101.59    1.81
  -2   1  -5  102.43    1.88
   2  -1  -5  100.67    1.74
   2  -1  -5  101.85    1.97
   2   1   5  101.54    1.71
  -2  -1   5  102.16    1.94
   2   1   5   96.15    1.92
   2   1   5   99.26    1.92
  -3   1   5   29.17    0.96
   3  -1   5   29.03    0.92
  -3   1   5   30.50    0.84
   3  -1   5   31.10    0.71
   3   1  -5   30.97    0.93
  -3   1  -5   29.42    0.92
   3  -1  -5   29.97    0.76
   3   1   5   37.64    3.95
  -3  -1   5   29.90    0.99
   3   1   5   30.39    0.93
   3  -1  -5   29.56    1.04
   3   1   5   30.38    1.00
   3   1   5   29.74    0.77
   4  -1   5    6.10    0.43
  -4   1   5    7.32    0.50
   4  -1   5    7.49    0.60
   4   1  -5    6.56    0.57
   4   1   5    9.58    2.83
   4   1   5    6.08    0.57
  -4  -1   5    5.10    0.56
   4   1   5    6.61    0.45
   4  -1  -5    6.95    0.49
   4  -1  -5    7.31    0.67
   4   1   5    4.86    0.56
   5  -1   5    4.25    0.48
   5   1  -5    3.35    0.56
   5  -1   5    3.77    0.55
   5  -1  -5    4.37    0.42
   5   1   5    3.83    0.60
   5   1   5    1.96    2.66
   5   1   5    4.49    0.63
   5   1   5    3.56    0.45
  -5  -1   5    3.43    0.61
   5  -1  -5    2.45    0.59
   6   1  -5   23.54    1.11
   6  -1   5   22.83    1.14
   6  -1   5   22.90    1.00
   6   1   5   24.62    1.17
   6   1   5   24.63    4.76
   6   1   5   24.23    1.03
   6   1   5   22.78    1.11
   6  -1  -5   21.80    1.30
   7   1  -5    2.55    0.66
   7  -1   5    1.94    0.65
   7   1  -5    1.50    0.67
   7   1   5    2.17    0.62
   7   1   5    2.06    2.95
   7   1   5    1.72    0.64
   7  -1  -5    1.39    0.77
   8  -1   5    6.88    0.89
   8   1  -5    5.81    0.98
   8  -1  -5    6.21    1.05
   8   1   5    7.61    1.41
   8   1   5    9.71    1.45
   0  -2  -5   44.13    1.11
   0   2   5   43.60    1.13
   0  -2   5   44.19    1.10
   0   2  -5   42.35    1.07
   0   2   5   42.54    0.89
  -1   2   5   65.02    1.43
   1  -2   5   66.30    1.14
   1  -2   5   66.83    1.45
   1   2  -5   67.66    1.45
  -1  -2  -5   66.30    1.42
   1   2   5   66.13    1.48
  -1   2  -5   66.32    1.38
  -1  -2   5   68.39    1.44
   1  -2  -5   67.44    1.23
   1  -2  -5   64.71    1.44
   1   2   5   66.06    1.10
   2  -2   5  217.81    3.37
   2  -2   5  215.85    3.72
   2   2  -5  214.55    3.70
  -2   2   5  221.31    3.69
  -2  -2  -5  221.65    3.68
   2   2   5  219.01    3.31
   2   2   5  215.89    3.74
   2  -2  -5  217.87    3.39
  -2   2  -5  220.41    3.60
  -2  -2   5  218.27    3.68
   2  -2  -5  221.51    3.78
  -3   2   5  241.04    4.06
   3  -2   5  245.70    3.82
   3   2  -5  239.79    4.12
   3  -2   5  242.95    4.16
  -3  -2  -5  241.64    4.09
  -3   2   5  239.01    9.00
   3  -2  -5  239.94    4.22
   3   2   5  240.74    4.17
   3  -2  -5  246.74    3.75
   3   2   5  243.34    3.76
  -3   2  -5  245.18    3.99
  -3  -2   5  245.63    4.12
  -4   2   5   83.97    1.83
   4  -2   5   87.46    1.92
   4  -2   5   81.97    1.61
   4   2  -5   82.01    1.88
   4   2   5   84.40    1.90
   4  -2  -5   83.68    1.99
   4  -2  -5   84.56    1.47
  -4  -2   5   87.20    1.90
   4   2   5   82.55    1.55
  -5   2   5    3.22    0.55
   5  -2   5    2.64    0.45
   5   2  -5    3.28    0.61
   5  -2   5    2.98    0.63
   5   2   5    3.23    0.60
   5  -2  -5    2.44    0.67
  -5  -2   5    3.50    0.62
   6  -2   5   23.25    1.26
   6   2  -5   22.86    1.24
   6  -2  -5   21.78    1.34
   6   2   5   22.23    1.18
   7  -2   5    7.55    0.89
   7   2  -5    8.11    0.92
   7   2   5    8.49    0.86
   7  -2  -5    6.86    0.98
   8  -2   5    5.29    0.93
   8   2  -5    5.52    0.96
   8   2   5    5.22    0.92
   8   2   5    0.49    3.83
   8  -2  -5    7.35    1.14
   0   3  -5   44.49    1.10
   0   3  -5   47.15    1.17
   0  -3  -5   44.88    1.28
   0  -3   5   45.60    1.05
   0   3   5   45.98    1.24
   0  -3   5   48.63    1.22
   1  -3   5   73.64    1.63
  -1   3   5   74.75    1.71
  -1  -3  -5   73.75    1.65
   1   3  -5   74.74    1.61
   1   3  -5   73.59    1.41
   1  -3   5   75.63    1.40
  -1   3  -5   71.69    1.60
  -1   3  -5   73.93    1.52
  -1  -3   5   73.31    1.58
   1   3   5   70.97    1.63
   1  -3  -5   72.85    1.69
   2   3  -5   29.49    0.68
   2  -3   5   30.36    0.76
  -2   3   5   29.99    1.07
   2   3  -5   28.78    1.02
  -2  -3  -5   28.29    1.02
   2  -3   5   29.75    1.03
   2  -3  -5   30.85    1.12
  -2  -3   5   30.70    0.97
   2   3   5   29.37    1.05
  -2   3  -5   30.22    0.86
   3  -3   5   53.27    1.45
  -3   3   5   50.78    1.44
  -3  -3  -5   52.25    1.43
   3   3  -5   51.96    1.38
   3  -3   5   50.29    1.11
  -3   3  -5   47.47    3.02
  -3  -3   5   52.89    1.37
  -3   3  -5   51.20    1.20
   3   3   5   50.32    1.43
   3  -3  -5   52.53    1.51
   4  -3   5   45.37    1.46
  -4  -3  -5   44.37    1.39
  -4   3   5   45.57    1.39
  -4   3   5   42.42    5.53
   4   3  -5   43.94    1.42
   4  -3   5   46.02    1.12
   4  -3  -5   45.74    1.52
  -4   3  -5   44.35    1.15
  -4  -3   5   45.33    1.32
   4   3   5   44.80    1.41
  -5   3   5    9.11    0.80
   5   3  -5   10.19    0.88
   5  -3   5   11.11    0.95
   5  -3  -5   10.77    0.95
   5   3   5   11.34    0.86
  -5  -3   5   10.24    0.80
   6  -3   5    5.25    0.85
   6   3  -5    4.53    0.81
  -6   3   5    3.67    0.69
   6  -3  -5    2.53    0.82
   6   3   5    3.92    0.74
  -6  -3   5    4.21    0.71
   7  -3   5   16.50    1.21
   7   3  -5   17.52    1.24
   7   3   5   19.08    1.36
   7  -3  -5   19.51    1.42
   7   3   5   21.05    1.54
   7   3   5    7.65    4.48
   8  -3   5   -1.10    0.83
   8   3  -5    1.47    0.92
   8   3   5   -0.25    4.00
   8   3   5   -0.26    0.79
   8  -3  -5   -0.49    0.95
   0  -4   5   -0.40    0.38
   0  -4   5   -0.18    0.34
   0   4  -5    0.41    0.38
   0   4  -5    0.10    0.41
   0   4   5    0.33    0.53
   0  -4  -5   -0.10    0.47
  -1   4   5   29.41    1.17
   1  -4   5   29.04    1.07
   1   4  -5   30.47    0.90
  -1  -4  -5   30.56    1.10
   1  -4   5   31.97    0.93
   1   4  -5   31.37    1.07
   1  -4  -5   29.67    1.13
  -1  -4   5   29.29    1.04
  -1   4  -5   30.67    0.98
  -1   4  -5   31.28    1.08
  -1  -4   5   28.94    1.05
   1   4   5   31.07    1.17
  -2  -4  -5    2.31    0.55
   2  -4   5    2.19    0.39
   2  -4   5    2.84    0.57
   2   4  -5    3.24    0.37
  -2   4   5    2.81    0.57
   2   4  -5    3.92    0.58
   2   4   5    3.39    0.61
  -2  -4   5    2.70    0.49
   2  -4  -5    2.48    0.65
  -2   4  -5    3.30    0.57
  -2   4  -5    3.15    0.43
   3   4  -5    1.05    0.54
   3  -4   5    1.85    0.42
   3  -4   5    1.57    0.58
  -3   4   5    2.57    0.66
  -3  -4  -5    0.67    0.55
   3  -4  -5    1.39    0.61
   3   4   5    1.37    0.56
  -3  -4   5    2.05    0.52
  -3   4  -5    1.25    0.38
   4   4  -5    4.03    0.70
  -4   4   5    3.82    0.71
  -4  -4  -5    4.07    0.70
   4  -4   5    2.38    0.69
   4   4   5    4.38    0.71
  -4  -4   5    5.33    0.63
   4  -4  -5    4.64    0.80
  -5   4   5   52.23    1.75
   5   4  -5   52.23    1.74
  -5   4   5   46.35    6.23
   5  -4   5   54.34    1.74
   5  -4  -5   53.90    1.87
   5   4   5   53.27    1.67
  -5  -4   5   53.67    1.53
  -6   4   5    2.34    0.74
   6   4  -5    1.49    0.75
   6  -4   5    0.40    0.79
   6   4   5    2.45    3.47
   6   4   5    1.26    0.71
   6  -4  -5    1.37    0.85
   6   4   5    2.47    0.71
   7   4  -5    0.39    0.84
   7  -4   5    1.87    0.90
   7   4   5    1.61    0.82
   7  -4  -5    0.93    0.92
   7   4   5    0.73    3.58
   8  -4   5    0.54    1.05
   8   4  -5   -1.48    0.93
   8  -4  -5    2.07    1.04
   8   4   5    1.25    5.75
   8   4   5    1.75    0.97
   0   5   5    5.46    0.48
   0   5   5    4.42    0.71
   0  -5  -5    4.74    0.73
   0   5  -5    5.01    0.58
   0  -5   5    4.31    0.60
   0   5  -5    4.36    0.61
   0   5   5    2.63    2.21
   0  -5   5    4.91    0.58
  -1  -5  -5   12.77    0.96
   1  -5   5   13.06    0.90
   1   5  -5   11.31    0.78
   1   5  -5   12.15    0.81
   1  -5   5   11.64    0.81
  -1   5   5   13.73    0.99
   1  -5  -5   12.05    0.70
  -1  -5   5   12.33    0.95
   1   5   5   12.61    0.91
  -1   5  -5   11.09    0.83
  -1  -5   5   13.11    0.86
   1  -5  -5   12.98    0.98
  -1   5  -5   11.15    0.80
  -2   5   5    3.11    0.76
   2   5  -5    2.56    0.46
   2  -5   5    2.90    0.63
   2  -5   5    2.58    0.50
   2   5  -5    2.06    0.62
  -2  -5  -5    2.36    0.66
   2  -5  -5    2.12    0.74
  -2   5  -5    2.81    0.69
  -2   5  -5    1.80    0.45
  -2  -5   5    2.35    0.53
   2   5   5    2.88    0.73
  -2  -5   5    2.46    0.64
  -3   5   5   23.38    1.30
   3  -5   5   20.72    1.19
  -3  -5  -5   21.15    1.26
   3   5  -5   20.17    1.09
  -3  -5   5   22.17    1.01
   3   5   5   20.55    1.24
  -3   5  -5   23.72    1.29
   3  -5  -5   21.74    1.35
   4   5  -5   10.06    0.94
   4  -5   5   12.34    1.03
  -4   5   5   12.20    1.04
  -4  -5  -5   10.31    0.96
   4   5   5   10.32    0.89
   4   5   5   12.51    4.75
  -4  -5   5   11.46    0.81
   4   5   5    9.65    0.95
   4  -5  -5    9.89    1.05
  -5  -5  -5    3.14    0.84
   5  -5   5    2.17    0.81
   5   5  -5    2.11    0.77
  -5   5   5    1.80    0.77
  -5   5   5    1.54    2.74
   5   5   5    1.67    0.77
   5  -5  -5    2.40    0.84
   5   5   5    3.39    0.74
   5   5   5   -0.84    3.71
   6   5  -5    3.08    0.88
  -6   5   5    1.75    0.81
   6  -5   5    1.85    0.90
   6   5   5    2.55    0.78
   6   5   5   -0.27    3.70
   6  -5  -5    1.44    0.95
  -7   5   5    0.87    0.84
   7  -5   5   -0.96    0.89
   7   5  -5    1.80    0.99
   7   5   5   -1.43    4.16
   7  -5  -5   -0.24    0.96
   7   5   5    0.25    0.82
   0   6   5    3.98    0.85
   0  -6  -5    3.10    0.78
   0   6  -5    3.51    0.66
   0   6   5    3.81    0.49
   0  -6   5    3.91    0.65
   0  -6   5    4.74    0.67
   0   6  -5    3.56    0.62
   1  -6   5    1.04    0.61
   1  -6   5    0.83    0.55
   1   6  -5    0.82    0.60
  -1   6   5    0.79    0.74
  -1  -6  -5    0.99    0.73
   1   6  -5    0.22    0.54
  -1   6  -5    0.26    0.48
   1   6   5    0.41    0.76
  -1  -6   5    0.13    0.53
   1   6   5   -1.36    2.84
  -1  -6   5    0.82    0.59
   1   6   5    0.52    0.48
  -1   6  -5    0.71    0.62
   1  -6  -5   -0.27    0.73
   2  -6   5   75.12    2.03
   2  -6   5   75.04    1.86
  -2  -6  -5   70.76    2.13
   2   6  -5   72.20    1.98
  -2   6   5   74.97    2.21
  -2  -6   5   73.24    1.83
   2  -6  -5   74.17    2.22
   2   6   5   75.69    1.90
  -2  -6   5   75.34    2.04
   2  -6  -5   73.47    1.78
  -2   6  -5   71.94    2.11
   2   6   5   77.00    2.18
   2   6   5   78.02    7.27
  -3  -6  -5   17.11    1.33
  -3   6   5   19.36    1.42
   3  -6   5   18.32    1.28
   3   6  -5   16.95    1.22
   3   6   5   28.86    5.92
  -3   6  -5   19.54    1.34
   3  -6  -5   20.44    1.37
   3  -6  -5   20.05    1.15
   3   6   5   17.57    1.35
   3   6   5   18.18    1.16
   4   6  -5   10.61    1.06
  -4   6   5    7.92    0.96
  -4  -6  -5   11.26    1.14
   4  -6   5    9.01    0.99
   4  -6  -5    8.24    1.05
   4   6   5    8.47    0.91
   4   6   5    9.05    1.02
   4   6   5    8.51    4.74
  -5   6   5    6.15    1.00
  -5  -6  -5    5.79    1.01
   5  -6   5    5.57    1.01
   5   6  -5    4.99    0.96
   5  -6  -5    4.72    1.04
   5   6   5    4.14    0.95
   5   6   5    8.03    4.73
   5   6   5    4.26    0.85
   6   6  -5    6.36    1.05
   6  -6   5    4.88    1.08
  -6   6   5    7.58    1.12
   6  -6  -5    8.89    1.22
   6   6   5    7.21    1.00
  -7   6   5    4.68    1.04
   7  -6  -5    5.45    1.57
   0   7  -5   36.17    1.40
   0  -7   5   38.23    1.48
   0  -7  -5   34.97    1.75
   0  -7   5   41.45    1.58
   0   7   5   37.99    1.80
   0   7  -5   39.69    1.53
   1  -7   5    1.72    0.67
  -1  -7  -5    3.11    0.86
   1  -7   5    1.99    0.67
   1   7  -5    1.53    0.66
   1   7  -5    0.92    0.64
  -1   7   5    1.42    0.87
   1  -7  -5    1.82    0.86
  -1  -7   5    1.55    0.59
   1   7   5    1.81    0.87
  -1   7  -5    1.33    0.74
  -1  -7   5    0.80    0.70
   2   7  -5    1.16    0.71
  -2   7   5    1.63    0.85
  -2  -7  -5    1.99    0.83
   2  -7   5    0.76    0.66
  -2  -7   5    1.55    0.77
   2   7   5    2.46    0.68
   2  -7  -5    2.24    0.95
   2   7   5    0.27    0.87
  -2   7  -5    1.78    0.80
   3  -7   5    1.56    0.79
  -3  -7  -5    1.30    0.77
  -3   7   5    1.07    0.88
   3   7  -5    1.99    0.82
   3   7   5    0.99    0.89
   3  -7  -5    2.69    0.95
  -3   7  -5    1.59    0.83
   3   7   5    2.89    0.71
   4   7  -5    0.02    0.81
  -4  -7  -5    0.03    0.85
   4  -7   5   -0.15    0.80
  -4   7   5    0.31    0.80
   4   7   5    0.37    0.89
   4   7   5   -0.47    0.71
   4  -7  -5    0.76    0.99
   4  -7  -5    0.38    0.69
  -5  -7  -5    3.65    1.05
  -5   7   5    1.77    0.93
   5  -7   5    1.44    0.93
   5   7  -5    1.08    0.92
   5  -7  -5    2.31    1.10
   5   7   5    1.26    0.83
   5  -7  -5    2.03    0.82
  -6   7   5   -1.72    3.43
   6  -7  -5    3.46    1.37
   6  -7  -5    5.56    1.10
   0   8  -5    0.53    0.75
   0   8   5    0.80    0.90
   0  -8  -5    2.46    0.97
   0  -8   5   -0.12    0.75
   1  -8   5    1.24    0.75
   1   8  -5    0.22    0.70
  -1  -8  -5    1.48    0.95
  -1   8   5    2.68    0.97
  -1   8  -5    1.14    0.84
   1   8   5    2.33    0.94
  -1  -8   5    1.89    0.82
   1  -8  -5    1.83    0.98
   2  -8   5    0.48    0.76
   2   8  -5    0.40    0.77
  -2   8   5    1.59    0.94
  -2  -8  -5    2.46    0.97
   2  -8  -5    2.00    0.95
  -2  -8   5    1.51    0.87
   2   8   5    1.90    0.96
  -2   8  -5    2.76    0.90
   3   8  -5   -1.36    0.78
   3  -8   5   -0.16    0.78
  -3   8   5    0.53    0.91
  -3  -8  -5    0.80    0.91
   3   8   5   -0.65    0.95
   3  -8  -5    1.61    1.06
  -3   8  -5   -0.56    0.81
   3   8   5   -0.14    0.72
  -4   8   5   -0.04    1.11
  -4  -8  -5    2.55    1.18
   4   8  -5   -0.30    0.94
   4  -8   5    0.69    0.93
   4  -8  -5    1.76    1.09
   4   8   5    0.36    0.84
   0  -9  -5    0.46    1.10
   0   9   5    1.45    0.99
  -1  -9   5    0.87    1.40
   1  -9  -5    1.59    1.63
  -1   9  -5    5.01    1.04
   1   9   5    0.65    0.99
  -2   9  -5    1.14    0.96
  -2  -9   5    2.19    0.98
   2   9   5    0.83    1.04
   0   0  -6   51.38    1.17
   0   0   6   52.57    1.14
   0   0   6   52.59    1.12
   0   0  -6   54.60    1.03
  -1   0  -6   82.38    1.37
  -1   0   6   81.71    1.46
   1   0  -6   81.12    1.56
   1   0  -6   82.09    1.55
   1   0   6   81.38    1.60
   1   0   6   80.10    1.61
   1   0   6   82.71    4.52
  -1   0   6   78.97    1.59
  -1   0  -6   84.01    1.63
   1   0   6   82.11    1.54
  -2   0   6   31.67    0.97
   2   0  -6   32.98    0.96
   2   0   6   32.45    0.85
  -2   0   6   30.45    0.72
  -2   0  -6   31.39    0.92
   2   0  -6   30.62    0.89
  -3   0   6   32.51    1.07
  -3   0   6   34.36    0.74
   3   0  -6   33.08    0.93
   3   0   6   31.77    0.91
   3   0  -6   33.70    1.08
   4   0  -6   24.40    1.07
   4   0   6   23.61    0.86
   4   0  -6   25.10    0.86
  -4   0   6   24.39    1.05
   5   0  -6    0.60    0.53
   5   0   6   -0.84    0.40
   5   0  -6    0.20    0.40
   6   0  -6    8.13    0.86
   6   0   6   11.01    0.77
   6   0  -6   10.38    0.73
   7   0   6    0.28    0.66
   7   0   6   -0.47    0.52
   7   0  -6    0.81    0.76
   8   0  -6    1.55    0.92
   8   0   6    0.56    0.77
   8   0   6    1.81    0.76
   8   0   6    0.73    3.78
   0   1   6  112.83    1.95
   0  -1  -6  109.69    1.99
   0  -1   6  112.38    2.06
   0  -1  -6  112.89    1.99
   0   1   6  111.68    2.05
   0   1  -6  113.23    2.05
   0   1  -6  111.37    1.83
  -1   1   6  168.65    2.83
   1  -1   6  169.93    2.88
  -1   1   6  164.71    2.79
  -1  -1  -6  167.18    2.87
  -1  -1  -6  167.20    2.76
   1   1  -6  164.47    2.86
  -1  -1   6  166.49    2.63
   1   1   6  162.97    2.69
  -1   1  -6  168.32    2.87
  -1  -1   6  166.20    2.89
  -1  -1   6  172.23    2.64
   1  -1  -6  167.71    2.77
   1  -1  -6  163.99    2.85
  -2   1   6    0.85    0.39
  -2   1   6    2.12    1.69
   2  -1   6    1.71    0.39
  -2  -1  -6    1.29    0.31
  -2   1   6    0.82    0.34
   2   1  -6    1.04    0.41
   2  -1  -6    1.56    0.32
   2   1   6    1.36    0.41
   2   1   6    2.08    0.44
  -2   1  -6    1.53    0.41
   2   1   6    1.30    0.26
  -2  -1   6    1.61    0.41
   2  -1  -6    1.28    0.41
  -3  -1  -6   34.98    0.93
   3  -1   6   33.04    1.03
   3  -1   6   33.54    0.72
   3   1  -6   34.02    1.02
  -3   1   6   32.60    0.90
  -3   1   6   33.37    1.09
   3   1   6   32.21    1.09
   3   1   6   34.35    0.84
   3   1   6   31.78    1.05
   3   1   6   36.02    4.01
  -3   1  -6   37.01    1.02
   3  -1  -6   35.04    0.86
  -3  -1   6   34.22    1.09
   4  -1   6    7.43    0.60
   4   1  -6    7.96    0.62
  -4   1   6    8.36    0.59
   4  -1   6    8.48    0.50
   4   1   6    8.82    0.73
   4   1   6    8.74    0.69
   4  -1  -6    7.75    0.71
  -4  -1   6    8.65    0.72
   4   1   6    7.44    2.80
   4  -1  -6    7.95    0.57
   4   1   6    7.65    0.50
  -5   1   6   26.04    0.93
   5  -1   6   27.80    1.11
   5   1  -6   26.25    1.09
   5  -1   6   24.69    0.87
   5   1   6   25.36    0.94
   5  -1  -6   25.60    0.87
   5  -1  -6   27.17    1.19
  -5  -1   6   26.02    1.19
   5   1   6   26.18    1.21
   5   1   6   24.66    1.15
   5   1   6   32.76    5.04
   6   1  -6    3.73    0.64
   6   1  -6    2.24    0.70
   6  -1   6    2.98    0.64
   6   1   6    2.49    0.67
   6  -1  -6    2.45    0.75
   6   1   6    2.07    0.62
   6   1   6    3.16    0.55
   6   1   6    3.63    3.22
   7   1  -6    8.89    0.83
   7   1  -6    9.38    1.04
   7  -1   6    9.96    0.93
   7   1   6   11.44    0.93
   7  -1  -6   10.77    1.09
   7   1   6   10.81    4.21
   7   1   6   10.34    0.95
   8  -1   6   -0.84    0.67
   8   1  -6    0.53    0.86
   8   1   6    0.77    0.69
   8   1   6    0.39    0.71
   8  -1  -6   -0.90    0.85
   0   2   6   54.54    1.10
   0  -2  -6   54.36    1.20
   0  -2  -6   55.30    1.31
   0   2  -6   55.43    1.30
   0   2   6   57.15    1.36
  -1   2   6   21.85    0.87
  -1  -2  -6   22.74    0.82
   1  -2   6   22.01    0.87
  -1   2   6   22.74    0.77
   1   2  -6   22.92    0.87
   1  -2  -6   23.68    0.91
   1   2   6   22.74    0.89
  -1   2  -6   23.27    0.83
   1   2   6   21.42    0.55
   1  -2  -6   21.91    0.66
  -2  -2  -6  125.87    2.31
  -2   2   6  123.39    2.33
   2  -2   6  124.68    2.39
   2   2  -6  124.33    2.37
  -2   2  -6  128.27    2.30
   2   2   6  124.93    1.98
   2   2   6  125.23    2.43
   2  -2  -6  124.29    2.09
  -2  -2   6  126.51    2.37
   2  -2  -6  125.10    2.44
  -3   2   6   74.18    5.26
   3  -2   6   73.62    1.72
  -3  -2  -6   75.56    1.64
   3   2  -6   75.00    1.70
  -3   2   6   73.64    1.64
   3  -2   6   72.63    1.30
   3   2   6   75.16    1.32
  -3  -2   6   75.23    1.71
   3   2   6   76.71    1.77
   3  -2  -6   75.87    1.36
  -3   2  -6   77.61    1.61
   3  -2  -6   75.37    1.79
   4   2  -6   81.23    1.87
   4  -2   6   77.47    1.52
   4  -2   6   81.90    1.89
  -4   2   6   81.56    1.77
  -4   2  -6   84.33    1.77
   4   2   6   80.52    1.94
   4  -2  -6   84.22    2.01
   4   2   6   81.30    1.52
  -4  -2   6   83.04    1.91
  -5   2   6    5.83    0.61
   5  -2   6    5.86    0.72
   5   2  -6    6.30    0.72
   5   2   6    4.93    0.67
  -5  -2   6    7.74    0.77
   5  -2  -6    6.93    0.83
   6  -2   6   30.13    1.41
   6   2  -6   31.36    1.39
  -6  -2   6   29.00    1.34
   6  -2  -6   32.23    1.52
   7  -2   6   14.01    1.12
   7   2  -6   13.84    1.05
   7   2   6   13.72    1.04
   7  -2  -6   13.65    1.20
   8   2  -6   13.13    1.70
   8  -2   6   11.29    1.15
   8   2  -6   12.30    1.27
   8  -2  -6   12.45    1.30
   0  -3   6   96.28    1.78
   0   3  -6  100.03    1.95
   0  -3   6   96.13    1.98
   0  -3  -6   94.02    1.99
   0   3   6   97.43    2.04
  -1   3   6  107.37    2.23
   1  -3   6  109.63    2.20
   1   3  -6  110.00    2.18
  -1  -3  -6  108.74    2.19
   1  -3   6  109.93    1.88
  -1   3  -6  110.29    2.09
   1  -3  -6  110.57    2.25
  -1  -3   6  109.63    2.16
   1   3   6  107.20    2.21
  -2   3   6    3.56    0.58
   2  -3   6    4.05    0.30
  -2  -3  -6    2.43    0.49
   2   3  -6    3.85    0.55
   2  -3   6    2.50    0.45
   2   3   6    3.10    0.52
   2  -3  -6    3.93    0.59
  -2  -3   6    4.34    0.52
  -2   3  -6    3.21    0.44
   3  -3   6   27.54    1.13
  -3   3   6   26.68    1.07
  -3  -3  -6   30.48    1.10
   3  -3   6   29.62    0.76
   3   3   6   29.48    1.16
  -3  -3   6   28.17    1.06
   3  -3  -6   28.86    1.20
  -3   3  -6   28.01    0.93
  -4   3   6   27.98    1.12
  -4   3   6   24.14    4.45
   4  -3   6   28.47    1.24
   4   3  -6   27.77    1.19
  -4  -3  -6   27.07    1.15
  -4  -3   6   27.53    1.12
  -4   3  -6   26.28    0.95
   4  -3  -6   24.84    1.27
   4   3   6   30.01    1.22
  -5   3   6    6.48    0.73
   5  -3   6    7.26    0.86
   5   3  -6    7.67    0.82
  -5  -3   6    6.83    0.75
   5   3   6    6.51    0.80
   5  -3  -6    8.76    0.94
   6   3  -6   11.98    1.02
  -6   3   6   13.43    0.94
   6  -3   6   13.08    1.08
   6   3   6   10.22    0.95
  -6  -3   6   12.71    0.98
   6  -3  -6   12.46    1.16
   7   3  -6    3.75    0.88
   7  -3   6    2.46    0.86
   7   3   6    3.11    0.82
   7  -3  -6    4.38    1.01
   8  -3   6    3.22    0.97
   8   3  -6    1.84    0.94
   8  -3  -6    2.43    1.09
   8   3   6    1.85    0.87
   8   3   6   -0.90    3.98
   0  -4  -6    1.71    0.59
   0   4  -6    0.93    0.46
   0  -4   6    1.12    0.46
   0   4   6    0.67    0.55
   0  -4   6    0.95    0.37
   0   4  -6    0.56    0.39
   1   4  -6    5.73    0.57
  -1  -4  -6    4.70    0.59
   1  -4   6    5.71    0.45
  -1   4   6    7.63    0.78
   1  -4   6    4.07    0.55
   1   4  -6    5.69    0.47
   1   4   6    5.37    0.62
  -1  -4   6    6.05    0.59
  -1   4  -6    5.31    0.59
   1  -4  -6    5.59    0.71
  -1   4  -6    5.22    0.55
  -2  -4  -6   17.68    0.95
   2   4  -6   18.27    0.65
   2  -4   6   17.26    0.69
   2  -4   6   17.96    1.01
   2   4  -6   18.31    0.98
  -2   4   6   17.00    1.06
   2   4   6   19.10    1.05
  -2   4  -6   16.82    0.81
  -2  -4   6   16.67    0.91
   2  -4  -6   19.39    1.13
  -3   4   6   19.00    1.11
   3  -4   6   17.18    1.07
  -3  -4  -6   17.63    0.99
   3   4  -6   18.03    0.98
   3  -4  -6   19.74    1.12
   3   4   6   18.93    1.11
  -3   4  -6   18.27    0.83
  -3  -4   6   18.97    0.97
   4   4  -6   25.20    1.27
  -4  -4  -6   25.08    1.25
   4  -4   6   25.96    1.31
  -4   4   6   27.75    1.29
  -4  -4   6   26.04    1.16
   4   4   6   25.23    1.27
   4  -4  -6   25.47    1.28
   5  -4   6    0.86    0.72
  -5   4   6   -0.15    0.61
   5   4  -6    1.36    0.69
  -5  -4   6    0.79    0.59
   5  -4  -6    1.10    0.79
   5   4   6    1.41    0.70
   6   4  -6    4.20    0.88
  -6   4   6    3.12    0.76
   6  -4   6    3.42    0.85
  -6  -4   6    3.08    0.69
   6  -4  -6    3.62    0.93
   6   4   6    3.46    0.81
   7  -4   6    0.91    0.90
   7   4  -6   -0.39    0.85
   7   4   6    2.10    0.81
   7  -4  -6   -0.80    0.92
   7   4   6    0.00    3.88
   8   4  -6    0.40    0.97
   8  -4  -6    1.28    1.20
   0  -5  -6    2.70    0.73
   0  -5   6    2.57    0.59
   0   5   6    3.57    0.79
   0   5  -6    3.43    0.58
   0   5  -6    3.05    0.59
   0  -5   6    2.79    0.52
   1  -5   6   48.73    1.31
   1   5  -6   49.16    1.33
  -1   5   6   50.88    1.68
  -1  -5  -6   46.94    1.55
   1  -5   6   50.76    1.51
   1   5  -6   47.02    1.46
  -1   5  -6   49.56    1.53
  -1   5  -6   46.15    1.36
   1   5   6   49.86    1.67
   1  -5  -6   48.20    1.67
  -1  -5   6   47.33    1.43
  -1  -5   6   47.51    1.41
   2  -5   6  130.05    2.74
  -2  -5  -6  120.76    2.73
  -2   5   6  130.44    2.84
   2   5  -6  120.06    2.63
   2  -5   6  127.55    2.44
   2   5   6  131.01    2.83
  -2   5  -6  127.85    2.46
  -2   5  -6  126.70    2.76
   2  -5  -6  128.50    2.86
  -2  -5   6  126.30    2.60
   3   5  -6   16.10    1.13
   3  -5   6   16.76    1.20
  -3  -5  -6   17.15    1.20
  -3   5   6   18.85    1.29
   3   5   6   19.17    1.25
  -3  -5   6   16.50    1.02
   3  -5  -6   17.85    1.21
  -4  -5  -6   12.14    1.07
   4  -5   6    9.57    0.91
  -4   5   6    8.94    0.94
   4   5  -6   11.52    0.97
  -4  -5   6   11.33    0.84
   4  -5  -6   11.06    1.10
   4   5   6    9.62    0.98
   5  -5   6    0.69    0.81
  -5   5   6    0.26    2.84
  -5   5   6    0.59    0.74
   5   5  -6   -0.42    0.72
  -5  -5  -6    0.78    0.72
   5   5   6    0.81    0.79
   5   5   6    1.15    0.67
   5  -5  -6    1.03    0.86
   5   5   6    1.98    4.05
   6  -5   6   -0.11    0.84
  -6   5   6    1.38    0.80
   6   5  -6    0.51    0.86
   6   5   6    1.66    0.75
   6  -5  -6    0.04    0.92
   6   5   6   -0.47    3.60
   6   5   6   -0.83    0.80
   7   5  -6    2.64    1.03
   7  -5   6    1.15    0.98
   7   5   6    3.73    0.95
   7   5   6    6.16    4.91
   7  -5  -6    2.68    1.10
   0  -6   6   14.22    1.03
   0  -6  -6   14.24    1.12
   0   6   6   13.10    1.07
   0   6  -6   13.89    1.07
   0   6  -6   13.41    0.90
   0  -6   6   12.14    0.90
   1  -6   6    0.88    0.53
  -1  -6  -6    1.60    0.75
  -1   6   6    1.03    0.71
   1   6  -6    0.38    0.60
   1   6  -6    1.02    0.54
   1  -6   6    0.94    0.62
  -1  -6   6    0.15    0.58
  -1   6  -6    0.28    0.62
  -1  -6   6    0.16    0.59
   1   6   6    0.88    0.49
  -1   6  -6    1.01    0.54
   1  -6  -6    1.08    0.81
   1   6   6    0.41    0.80
   1   6   6   -0.46    2.77
   2  -6   6   19.56    1.22
  -2  -6  -6   18.19    1.33
  -2   6   6   19.10    1.30
   2   6  -6   18.35    1.18
   2   6   6   18.58    1.05
  -2   6  -6   16.54    1.23
   2   6   6   17.16    1.20
   2  -6  -6   20.20    1.45
   2   6   6   16.98    4.55
   2  -6  -6   18.87    1.00
  -2  -6   6   20.37    1.12
  -3   6   6   15.61    1.23
   3  -6   6   13.87    1.07
   3   6  -6   15.20    1.09
  -3  -6  -6   15.96    1.22
   3   6   6   15.78    1.21
   3   6   6   11.27    4.47
  -3  -6   6   15.95    1.02
   3  -6  -6   14.40    1.23
   3   6   6   13.72    0.96
  -4   6   6    0.05    0.73
   4   6  -6    1.98    0.82
   4  -6   6    1.33    0.80
  -4  -6  -6    0.22    0.76
   4  -6  -6    1.87    0.91
   4   6   6    1.53    0.84
   4   6   6    1.77    0.71
   4   6   6    4.49    4.04
  -5   6   6    4.20    0.95
  -5  -6  -6    2.37    0.91
   5   6  -6    4.60    0.95
   5  -6   6    3.53    0.96
   5   6   6    4.01    0.87
   5  -6  -6    4.11    1.05
   5   6   6    9.89    5.25
   5   6   6    3.23    0.93
  -6   6   6    0.99    0.87
   6  -6   6   -0.11    0.92
   6   6  -6   -0.71    0.88
   6   6   6    2.67    5.12
   6  -6  -6    0.12    1.04
   6   6   6    0.54    0.81
   0  -7   6   52.48    1.71
   0   7  -6   51.13    1.65
   0  -7   6   55.31    1.76
   0   7   6   49.09    2.02
   0  -7  -6   50.36    2.01
   0   7  -6   52.00    1.77
  -1   7   6    3.35    0.93
   1  -7   6    2.83    0.74
   1   7  -6    3.90    0.76
  -1  -7  -6    4.76    0.95
   1  -7  -6    4.17    0.90
  -1  -7   6    5.34    0.84
  -1   7  -6    3.88    0.83
  -1  -7   6    3.22    0.70
   1   7   6    3.99    0.98
  -2   7   6    3.55    0.96
  -2  -7  -6    3.01    0.92
   2   7  -6    3.46    0.81
   2  -7   6    2.43    0.76
   2   7   6    2.96    0.67
   2   7   6    3.99    0.99
   2  -7  -6    3.31    0.90
  -2   7  -6    4.05    0.85
   3   7  -6    7.30    0.95
  -3   7   6    8.37    1.13
  -3  -7  -6    7.17    1.06
   3  -7   6    7.16    0.99
   3   7   6    5.88    0.84
   3   7   6    7.88    1.13
   3   7   6    1.69    3.95
   3  -7  -6    5.52    1.11
  -3   7  -6    5.49    0.99
  -4  -7  -6   12.72    1.25
   4   7  -6   13.64    1.22
  -4   7   6   16.16    1.35
   4  -7   6   15.90    1.32
   4  -7  -6   15.08    1.40
   4  -7  -6   13.66    1.07
   4   7   6   12.97    1.29
   4   7   6   12.58    1.10
   5   7  -6    0.98    0.96
   5  -7   6    2.60    1.01
  -5  -7  -6    1.73    0.97
  -5   7   6    2.98    0.99
   5  -7  -6    1.04    1.10
   5  -7  -6    3.22    0.84
   5   7   6    0.74    0.82
   0   8  -6    1.84    1.27
   0   8   6    1.85    0.99
   0  -8  -6    1.41    0.97
  -1  -8  -6    2.48    0.99
   1   8  -6    2.09    0.78
  -1   8   6    1.42    0.93
   1  -8   6    1.54    0.76
  -1   8  -6    2.11    0.85
   1  -8  -6    2.10    0.90
   1   8   6    1.57    0.95
  -1  -8   6    2.27    0.86
   2   8  -6    5.54    0.95
   2  -8   6    4.66    0.92
  -2   8   6    7.40    1.15
  -2  -8  -6    6.90    1.17
  -2   8  -6    5.43    1.00
   2   8   6    4.81    1.12
  -3   8   6    0.52    0.94
  -3  -8  -6    2.16    0.96
   3   8  -6    0.39    0.84
   3  -8   6    0.61    0.83
  -3   8  -6    0.79    0.93
   3   8   6    0.50    0.75
   3  -8  -6    1.39    1.04
   3   8   6   -0.75    0.94
   4   8  -6    1.59    1.06
   4  -8   6    0.57    0.90
   4   8   6    1.99    0.88
   4  -8  -6    3.01    1.19
   4   8   6    2.49    1.09
   1   9   6    5.36    1.75
  -1   9  -6    3.39    1.00
   2   9  -6    2.59    0.99
   0   0  -7   -0.10    0.26
   0   0   7   -0.25    0.33
   0   0   7    0.40    0.30
   0   0  -7   -0.17    0.38
   1   0   7    5.48    0.47
   1   0   7    7.67    2.35
  -1   0  -7    6.52    0.38
   1   0  -7    5.54    0.48
   1   0  -7    5.95    0.44
   1   0   7    5.20    0.46
  -1   0  -7    6.79    0.54
  -1   0   7    5.85    0.51
   1   0   7    5.48    0.43
  -1   0   7    6.27    0.47
  -2   0   7    5.35    0.52
  -2   0  -7    5.18    0.48
   2   0  -7    5.32    0.48
  -2   0   7    6.06    0.43
   2   0   7    6.93    0.47
  -2   0  -7    6.27    0.36
   2   0  -7    5.51    0.47
   3   0  -7   -0.23    0.35
  -3   0   7   -0.24    0.36
   3   0   7    0.45    0.30
  -3   0  -7   -0.22    0.38
   3   0  -7    0.25    0.41
  -3   0   7    0.19    0.22
   4   0  -7   21.28    1.04
   4   0  -7   20.33    0.86
  -4   0   7   21.87    0.97
   4   0   7   19.68    0.83
  -5   0   7   25.50    1.25
   5   0   7   25.30    1.02
   5   0  -7   27.14    1.02
   5   0  -7   24.81    1.16
   6   0  -7   -0.72    0.65
   6   0   7    0.63    0.49
   6   0  -7    0.75    0.53
   7   0  -7   -0.22    0.75
   7   0   7    0.27    0.73
   7   0   7    0.06    0.65
   7   0   7   -0.70    0.53
   7   0   7    0.24    3.12
   8   0   7    6.27    0.98
   8   0   7    4.65    4.44
   8   0   7    5.10    0.91
   8   0  -7    5.64    1.10
   0   1   7  138.34    2.37
   0  -1   7  135.17    2.46
   0   1   7  138.13    2.45
   0  -1  -7  133.80    2.41
   0  -1  -7  140.69    2.39
   0   1  -7  135.79    2.47
   0   1  -7  137.90    2.22
  -1   1   7   29.36    0.87
   1   1  -7   29.48    0.80
   1   1  -7   27.94    0.93
  -1   1   7   28.58    0.91
  -1  -1  -7   29.40    0.81
  -1  -1  -7   29.61    0.94
   1  -1   7   28.46    0.92
   1  -1  -7   28.97    0.91
  -1   1  -7   27.57    0.93
   1  -1  -7   28.74    0.83
   1   1   7   29.11    0.77
  -1  -1   7   30.32    0.70
   1   1   7   28.32    0.94
  -2  -1  -7   60.21    1.43
  -2   1   7   57.11    1.37
  -2   1   7   69.24    4.51
  -2   1   7   59.82    1.28
  -2  -1  -7   61.86    1.24
   2  -1   7   59.77    1.38
   2   1  -7   59.24    1.39
  -2  -1   7   57.84    1.01
  -2  -1   7   60.51    1.42
   2  -1  -7   58.94    1.42
  -2   1  -7   59.16    1.39
   2   1   7   60.94    1.46
   2  -1  -7   60.34    1.26
   2   1   7   60.79    1.19
   3   1  -7   24.22    0.92
  -3   1   7   22.08    0.98
   3  -1   7   23.61    0.92
   3  -1   7   24.34    0.53
  -3   1   7   24.26    0.78
  -3  -1  -7   24.20    0.78
   3   1   7   23.80    0.73
   3   1   7   24.27    1.00
   3   1   7   25.84    0.98
   3  -1  -7   23.51    0.94
  -3   1  -7   23.95    0.91
  -3  -1   7   24.90    0.99
   3  -1  -7   24.27    0.78
  -4   1   7   71.68    1.50
   4  -1   7   73.84    1.71
   4   1  -7   74.07    1.70
   4  -1   7   70.36    1.36
   4   1   7   73.63    1.78
   4   1   7   69.58    1.51
   4   1   7   73.27    1.83
   4  -1  -7   71.45    1.83
   4   1   7   78.35    5.81
   4  -1  -7   74.60    1.51
  -4  -1   7   72.31    1.80
   5  -1   7   41.64    1.39
   5   1  -7   42.64    1.36
   5  -1  -7   43.59    1.22
   5  -1  -7   42.72    1.55
   5   1   7   54.99    6.10
  -5  -1   7   40.10    1.48
   5   1   7   42.30    1.49
   5   1   7   43.81    1.43
   5   1   7   41.88    1.17
   6   1  -7    6.84    0.86
   6   1  -7    5.83    0.73
   6  -1   7    5.71    0.72
   6   1   7    5.85    0.77
   6   1   7    6.25    0.81
   6  -1  -7    6.58    0.92
   6   1   7    6.44    3.84
   7   1  -7    3.93    0.90
   7   1  -7    2.66    0.78
   7  -1   7    3.81    0.75
   7   1   7    1.47    0.74
   7   1   7    2.44    0.74
   7  -1  -7    5.22    0.96
   8   1  -7    2.55    0.99
   8  -1   7    0.36    0.74
   8   1   7    1.34    0.75
   8  -1  -7    2.41    0.95
   8   1   7    2.38    0.82
   0   2   7   29.20    0.78
   0   2   7   30.41    0.96
   0  -2  -7   29.28    0.88
   0  -2   7   27.83    0.94
   0  -2  -7   28.94    0.96
   0   2  -7   29.55    0.98
  -1  -2  -7   63.20    1.43
  -1   2   7   62.37    1.36
   1  -2   7   64.17    1.51
  -1   2   7   62.62    1.48
   1   2  -7   61.87    1.44
   1  -2  -7   64.19    1.30
  -1   2  -7   66.22    1.46
  -1  -2   7   65.11    1.50
   1   2   7   63.69    1.18
   1   2   7   63.33    1.52
   1  -2  -7   64.86    1.51
  -2   2   7   27.80    0.94
   2   2  -7   27.50    0.96
  -2   2   7   29.10    0.94
   2  -2   7   28.48    1.01
  -2  -2  -7   26.34    0.91
  -2  -2   7   29.66    1.02
  -2   2  -7   28.20    0.94
   2  -2  -7   28.73    1.06
   2   2   7   29.04    0.65
   2  -2  -7   28.57    0.77
   2   2   7   27.77    1.04
  -3  -2  -7   51.06    1.32
  -3   2   7   53.33    4.68
  -3   2   7   53.54    1.33
   3  -2   7   54.79    1.44
   3   2  -7   54.12    1.39
   3  -2  -7   54.00    1.47
   3   2   7   54.12    1.46
  -3   2  -7   52.28    1.33
   3   2   7   50.88    1.02
   3  -2  -7   54.50    1.11
  -3  -2   7   54.03    1.44
  -4   2   7   15.05    0.82
   4   2  -7   13.78    0.94
   4  -2   7   15.41    0.98
   4  -2  -7   15.73    0.97
  -4   2  -7   15.97    0.87
  -4  -2   7   13.86    0.96
   4   2   7   16.08    1.04
  -5   2   7    4.63    0.58
   5  -2   7    4.85    0.69
   5   2  -7    4.19    0.68
   5   2   7    3.94    0.71
   5  -2  -7    4.51    0.75
  -5  -2   7    4.14    0.73
   6  -2   7    6.73    0.84
   6   2  -7    8.75    0.85
  -6  -2   7    5.67    0.81
   6  -2  -7    7.23    0.93
   6   2   7    7.24    0.84
   7   2  -7   10.99    1.00
   7  -2   7    9.71    1.00
   7   2   7   10.45    1.01
   7  -2  -7    9.97    1.15
   8  -2   7    1.34    0.86
   8   2  -7    4.05    0.98
   8  -2  -7    1.95    0.99
   8   2   7    0.70    0.82
   0   3  -7   -0.23    0.42
   0   3   7   -0.26    0.46
   0  -3   7   -0.01    0.43
   0  -3  -7    0.55    0.47
   1   3  -7   58.76    1.47
  -1  -3  -7   55.33    1.45
  -1   3   7   60.01    1.52
   1  -3   7   56.94    1.09
   1  -3   7   58.49    1.49
   1   3   7   54.70    1.46
  -1  -3   7   57.29    1.46
  -1   3  -7   56.61    1.39
   1  -3  -7   55.60    1.51
   2  -3   7    1.84    0.22
  -2   3   7    1.48    0.52
  -2  -3  -7    1.56    0.48
   2  -3   7    1.79    0.51
   2   3  -7    1.49    0.47
   2   3   7    1.45    0.54
  -2   3  -7    3.06    0.45
   2  -3  -7    0.99    0.55
  -2  -3   7    0.80    0.46
  -3  -3  -7   56.61    1.50
   3   3  -7   56.10    1.55
  -3   3   7   54.13    1.48
   3  -3   7   52.77    1.55
   3   3   7   54.57    1.59
  -3   3  -7   52.60    1.37
   3  -3  -7   55.64    1.64
  -3  -3   7   55.76    1.51
  -4  -3  -7   11.03    0.82
   4   3  -7   14.39    1.04
  -4   3   7   10.06    3.43
   4  -3   7   12.69    0.92
   4   3   7   13.48    1.04
   4  -3  -7   10.21    0.93
  -4   3  -7   11.92    0.81
  -4  -3   7   10.65    0.83
   5   3  -7   15.35    1.05
   5  -3   7   13.97    1.05
  -5   3   7   16.35    1.04
   5   3   7   14.83    1.14
  -5  -3   7   15.15    1.01
   5  -3  -7   13.03    1.07
   6  -3   7   15.99    1.17
   6   3  -7   19.69    1.29
  -6  -3   7   16.53    1.19
   6  -3  -7   17.38    1.28
   6   3   7   18.31    1.27
   7   3  -7    0.29    0.80
   7  -3   7    0.79    0.83
   7  -3  -7    1.15    0.86
   7   3   7    0.71    0.81
   8  -3   7    2.27    0.93
   8   3  -7   -0.20    0.91
   8   3   7    0.76    0.79
   8  -3  -7    0.24    1.01
   8   3   7   -2.30    3.80
   0  -4   7   15.06    0.92
   0  -4  -7   14.41    1.02
   0   4   7   16.17    1.03
   0   4  -7   14.75    0.93
   0  -4   7   15.84    0.74
  -1  -4  -7   11.69    0.86
   1   4  -7   12.03    0.80
   1  -4   7   10.70    0.80
  -1   4   7   11.01    0.83
   1  -4   7   11.09    0.60
   1  -4  -7   11.13    0.87
  -1  -4   7   12.24    0.82
   1   4   7   12.19    0.87
  -1   4  -7   11.58    0.85
   2   4  -7   38.88    1.36
  -2  -4  -7   39.77    1.39
   2  -4   7   41.06    1.32
  -2   4   7   38.98    1.43
   2   4   7   41.72    1.45
  -2  -4   7   41.30    1.32
   2  -4  -7   41.09    1.48
  -2   4  -7   39.77    1.21
   3   4  -7    4.38    0.71
  -3   4   7    4.06    0.68
  -3  -4  -7    4.21    0.68
   3  -4   7    2.09    0.64
  -3  -4   7    3.19    0.62
  -3   4  -7    3.69    0.52
   3  -4  -7    2.87    0.69
   3   4   7    3.08    0.68
   4  -4   7    3.59    0.74
  -4  -4  -7    5.61    0.76
  -4   4   7    3.85    0.75
   4   4  -7    3.51    0.73
  -4  -4   7    4.10    0.69
  -4   4  -7    3.93    0.52
   4  -4  -7    4.95    0.87
   4   4   7    3.44    0.74
   5   4  -7    7.32    0.91
  -5   4   7    6.51    0.84
   5  -4   7    7.95    0.95
  -5  -4   7    6.50    0.79
   5   4   7    7.02    0.91
   5  -4  -7    6.98    0.92
   6  -4   7    2.24    0.88
  -6   4   7    2.40    0.73
   6   4  -7    2.93    0.87
  -6  -4   7    3.53    0.75
   6  -4  -7    1.60    0.82
   6   4   7    2.06    0.84
   7  -4   7    0.69    0.90
   7   4  -7   -0.25    0.89
   7   4   7    1.56    0.94
   7  -4  -7   -0.10    0.95
   8   4  -7    2.97    1.66
   0   5  -7    3.98    0.60
   0  -5   7    5.26    0.71
   0  -5   7    4.53    0.56
   0   5   7    4.20    0.84
   0  -5  -7    4.63    0.81
   0   5  -7    3.93    0.64
   1   5  -7   30.50    1.05
  -1   5   7   30.68    1.44
   1  -5   7   27.89    1.19
  -1  -5  -7   29.65    1.37
   1  -5   7   30.21    1.02
   1   5  -7   30.38    1.26
   1  -5  -7   30.80    1.45
  -1   5  -7   29.74    1.18
   1   5   7   28.87    1.41
  -1  -5   7   28.64    1.24
  -2   5   7   10.07    0.97
   2   5  -7    9.53    0.85
  -2  -5  -7   11.07    0.95
   2  -5   7    8.67    0.83
  -2   5  -7    9.05    0.71
  -2  -5   7    9.01    0.81
   2  -5  -7    9.82    1.01
   2   5   7   10.13    0.96
   3   5  -7    4.19    0.77
  -3  -5  -7    4.97    0.81
   3  -5   7    5.22    0.80
  -3   5   7    4.33    0.81
  -3  -5   7    3.75    0.66
  -3   5  -7    4.29    0.66
   3  -5  -7    4.35    0.85
   3   5   7    5.38    0.85
   4   5  -7    0.04    0.69
   4  -5   7    1.18    0.77
  -4  -5  -7    0.32    0.70
  -4   5   7    0.49    0.72
  -4  -5   7    0.11    0.58
   4  -5  -7   -0.21    0.81
   4   5   7    0.37    0.75
   5  -5   7    8.63    1.06
  -5  -5  -7    8.91    0.99
  -5   5   7    6.25    3.84
  -5   5   7    9.08    1.01
   5   5  -7    8.70    1.00
   5   5   7    9.31    1.07
  -5  -5   7    9.87    0.87
   5  -5  -7    8.03    1.04
   6  -5   7    1.84    0.94
   6   5  -7    1.46    0.92
  -6   5   7    2.67    0.83
   6   5   7    5.51    4.58
   6  -5  -7    1.57    1.04
   6   5   7    2.30    0.79
   6   5   7    1.64    0.86
   7  -5   7    0.75    1.02
   7   5  -7    0.79    0.99
   7   5   7   -0.06    5.11
   7  -5  -7    0.66    1.07
   7   5   7    1.82    0.95
   0   6   7   69.39    2.19
   0  -6  -7   70.77    2.08
   0  -6   7   73.48    2.02
   0   6  -7   76.03    1.93
   0  -6   7   76.64    1.88
   0   6  -7   73.01    1.94
   1   6  -7   17.96    1.15
  -1   6   7   15.32    1.18
  -1  -6  -7   18.97    1.35
   1  -6   7   16.39    1.23
  -1   6  -7   18.22    1.08
  -1  -6   7   17.83    1.09
   1  -6  -7   18.99    1.30
   1   6   7   18.54    0.95
   1   6   7   13.66    3.89
  -1  -6   7   19.16    1.13
   1   6   7   18.90    1.32
  -1   6  -7   18.58    1.22
   2  -6   7    5.74    0.81
  -2  -6  -7    5.43    0.90
   2   6  -7    6.08    0.81
  -2   6   7    7.99    1.01
   2   6   7    5.00    0.95
   2  -6  -7    4.32    0.99
  -2  -6   7    5.50    0.76
   3   6  -7    9.71    0.95
  -3  -6  -7   13.49    1.15
   3  -6   7    8.63    0.95
  -3   6   7   11.46    1.06
   3   6   7   11.12    1.13
   3   6   7    8.32    4.59
  -3  -6   7   10.37    0.85
   3   6   7   11.95    0.93
   3  -6  -7   12.28    1.21
  -4  -6  -7    3.08    0.88
  -4   6   7    2.08    0.88
   4  -6   7    3.74    0.92
   4   6  -7    1.49    0.78
   4   6   7    6.06    4.38
   4  -6  -7    2.29    1.00
   4   6   7    3.04    0.91
   4   6   7    2.51    0.75
   5   6  -7   -0.92    0.78
  -5   6   7    1.00    0.85
  -5  -6  -7    0.32    0.81
   5  -6   7    0.66    0.89
   5  -6  -7   -0.49    0.90
   5   6   7    3.13    4.82
   5   6   7    0.45    0.89
   5   6   7    0.54    0.71
   6  -6   7    0.55    1.01
   6   6  -7   -0.27    0.91
  -6   6   7    1.09    0.85
   6   6   7    0.51    0.83
   6  -6  -7   -1.09    1.02
   6   6   7    4.30    5.12
   0   7  -7    2.00    0.71
   0  -7   7    1.60    0.74
   0   7   7    1.79    0.89
   0   7  -7    1.48    0.68
   0  -7  -7    1.78    0.90
   1   7  -7    2.12    0.72
  -1   7   7    2.09    0.87
   1  -7   7    2.24    0.74
  -1  -7  -7    3.48    0.89
  -1   7  -7    1.67    0.75
  -1  -7   7    1.16    0.67
  -1  -7   7    1.41    0.72
   1   7   7    0.97    0.90
   1  -7  -7    2.81    0.97
   2  -7   7    3.80    0.87
   2   7  -7    3.40    0.83
  -2  -7  -7    3.54    0.96
  -2   7   7    3.21    0.91
   2   7   7    4.75    1.08
   2   7   7    2.79    3.84
  -2   7  -7    6.49    0.96
  -2  -7   7    6.11    1.27
   2  -7  -7    4.14    1.05
   2   7   7    6.28    0.78
   3   7  -7    4.00    0.87
  -3   7   7    5.60    1.02
   3  -7   7    4.29    0.91
  -3  -7  -7    2.86    0.86
   3   7   7    4.43    0.80
   3  -7  -7    4.09    1.09
   3   7   7   -0.98    3.92
   3   7   7    3.84    1.07
  -4  -7  -7    2.02    0.93
   4   7  -7    0.58    0.84
   4  -7   7    2.09    0.95
  -4   7   7    1.57    0.91
   4   7   7    1.03    1.01
   4   7   7   -2.30    4.86
   4   7   7    1.40    0.79
   4  -7  -7    1.31    1.07
  -5  -7  -7    1.56    0.92
   5  -7   7   -0.31    1.05
   5   7  -7    0.00    0.88
  -5   7   7    2.30    0.99
   5   7   7    4.62    5.11
   5  -7  -7   -0.76    1.06
   5  -7  -7    2.04    0.82
   5   7   7    0.35    0.79
   5   7   7   -3.13    0.95
   0  -8   7    4.23    0.85
   0  -8  -7    4.66    1.03
   0   8   7    3.39    1.05
  -1  -8  -7   10.55    1.26
   1  -8   7    6.84    0.98
   1   8  -7    5.08    0.90
  -1   8   7    9.03    1.23
   1  -8  -7    8.28    1.24
   1   8   7    8.34    1.22
  -1   8  -7    7.97    1.05
  -2  -8  -7    2.95    0.97
  -2   8   7    3.05    1.01
   2   8  -7    1.46    0.82
   2  -8   7    1.82    0.85
   2   8   7    0.74    1.03
   2  -8  -7    3.95    1.06
   3   8  -7   -0.29    0.85
   3  -8   7   -1.41    0.80
  -3  -8  -7    0.55    0.97
  -3   8   7   -0.13    0.93
   3   8   7    0.34    0.99
   3   8   7    0.74    0.78
   3  -8  -7   -0.38    0.99
   4   8   7    1.40    0.83
   4   8   7    1.67    1.08
   0   0   8   62.06    1.34
   0   0   8   63.36    3.21
   0   0  -8   64.54    1.24
   0   0  -8   61.52    1.42
   0   0   8   61.47    1.38
   1   0   8  113.98    5.63
  -1   0   8  109.62    1.95
   1   0   8  110.17    2.05
  -1   0  -8  105.13    2.09
   1   0   8  109.07    2.10
   1   0  -8  104.96    2.07
  -1   0   8  109.44    2.12
   1   0  -8  110.57    2.01
  -1   0  -8  110.80    1.82
   1   0   8  108.52    2.07
   2   0   8   44.09    1.21
   2   0   8   44.14    1.11
   2   0  -8   42.97    1.13
  -2   0   8   45.21    1.25
   2   0   8   47.70    4.29
   2   0  -8   45.81    1.19
  -2   0  -8   44.34    0.86
  -2   0   8   44.10    0.96
  -2   0  -8   44.18    1.24
   3   0  -8    7.80    0.57
  -3   0   8    7.71    0.44
   3   0   8    7.38    0.53
  -3   0   8    6.68    0.64
  -3   0  -8    6.94    0.62
   3   0  -8    7.02    0.62
   4   0  -8   12.25    0.80
   4   0   8   11.57    0.70
  -4   0   8   10.42    0.78
   4   0  -8   13.08    0.87
   5   0  -8   25.49    1.05
  -5   0   8   24.53    1.28
   5   0  -8   24.24    1.19
   5   0   8   26.98    1.04
   6   0   8   35.87    1.45
   6   0  -8   33.52    1.47
   6   0   8   35.08    1.27
   6   0   8   23.16    4.53
   7   0   8    4.60    3.99
   7   0   8    0.77    0.73
   7   0  -8    0.88    0.84
   7   0   8    0.83    0.78
   8   0  -8   -0.94    0.92
   8   0   8   -0.04    0.77
   8   0   8    2.40    3.91
   8   0   8    0.21    0.79
   0   1  -8    4.19    0.30
   0  -1   8    3.46    0.46
   0  -1  -8    3.38    0.41
   0  -1  -8    3.70    0.45
   0   1   8    3.72    0.47
   0  -1   8    3.42    0.37
   0  -1   8    3.62    0.39
   0   1   8    3.67    0.41
   0   1  -8    3.00    0.45
  -1   1   8  118.16    2.21
   1   1  -8  116.58    2.25
   1  -1   8  116.91    2.25
  -1  -1  -8  121.50    2.10
   1   1  -8  118.45    2.10
  -1   1   8  118.51    2.19
  -1  -1  -8  118.05    2.26
  -1  -1   8  119.85    2.02
  -1  -1   8  115.84    2.27
   1   1   8  116.82    2.28
   1  -1  -8  117.35    2.17
  -1   1  -8  116.19    2.26
   1  -1  -8  120.13    2.22
   1   1   8  117.71    2.09
  -2  -1  -8   60.45    1.48
   2   1  -8   60.30    1.44
  -2   1   8   60.08    1.32
  -2  -1  -8   60.95    1.27
  -2   1   8   63.08    1.48
   2   1  -8   60.53    1.39
  -2   1   8   68.36    4.70
   2  -1   8   60.08    1.44
   2   1   8   62.44    1.26
   2  -1  -8   62.91    1.48
  -2  -1   8   60.60    1.09
  -2  -1   8   60.82    1.51
  -2   1  -8   62.90    1.47
   2   1   8   60.33    1.51
   2  -1  -8   60.62    1.33
   3   1  -8    0.88    0.45
   3   1  -8    1.54    0.45
   3  -1   8    1.41    0.44
  -3   1   8    2.29    0.38
  -3   1   8    1.77    0.54
  -3  -1  -8    2.02    0.36
   3   1   8    1.60    0.49
   3  -1  -8    1.93    0.45
  -3   1  -8    1.50    0.46
   3  -1  -8    1.45    0.37
   3   1   8    1.80    0.34
  -3  -1   8    1.90    0.47
   3   1   8    2.83    0.56
   4   1  -8   28.17    1.16
   4   1  -8   29.52    1.11
   4  -1   8   29.74    1.12
  -4   1   8   28.17    0.91
  -4   1   8   27.26    1.22
   4   1   8   29.84    1.18
   4   1   8   27.84    1.20
   4   1   8   37.33    4.93
   4   1   8   27.10    0.90
   4  -1  -8   27.45    0.92
  -4  -1   8   26.61    1.11
   4  -1  -8   29.23    1.16
   5  -1   8    6.48    0.70
   5   1  -8    5.58    0.70
   5   1  -8    6.28    0.80
   5  -1  -8    5.62    0.81
   5   1   8    7.56    3.45
  -5  -1   8    5.29    0.77
   5   1   8    5.59    0.77
   5   1   8    4.94    0.74
   5   1   8    5.49    0.56
   6   1  -8   23.84    1.42
   6   1  -8   27.10    1.27
   6  -1   8   25.57    1.23
  -6  -1   8   25.07    1.39
   6   1   8   24.87    1.35
   6  -1  -8   26.12    1.47
   6   1   8   29.38    5.58
   6   1   8   27.64    1.33
   7   1  -8    2.51    0.88
   7  -1   8    4.62    0.78
   7   1   8    1.37    0.78
   7  -1  -8    1.45    0.85
   7   1   8    2.01    0.76
   8   1  -8    5.97    1.10
   8  -1  -8    6.49    1.16
   8   1   8    6.69    0.98
   8   1   8    6.91    1.00
   0   2   8  167.46    2.85
   0   2   8  172.44    3.08
   0   2  -8  169.30    3.05
   0  -2  -8  168.28    2.96
   0  -2   8  171.15    3.10
   0  -2  -8  171.96    3.02
   1  -2   8   19.92    0.89
  -1  -2  -8   18.02    0.78
  -1   2   8   18.56    0.84
  -1   2   8   17.68    0.76
   1   2  -8   16.28    0.85
  -1  -2   8   17.11    0.87
   1   2   8   17.41    0.90
  -1   2  -8   17.29    0.84
   1  -2  -8   17.01    0.71
   1   2   8   17.72    0.60
   1  -2  -8   17.34    0.87
   2  -2   8    5.05    0.57
   2   2  -8    6.17    0.63
  -2  -2  -8    5.13    0.51
  -2   2   8    6.43    0.57
  -2   2   8    6.61    0.56
  -2  -2   8    5.35    0.28
   2   2   8    5.17    0.64
   2  -2  -8    5.97    0.44
   2  -2  -8    5.27    0.60
  -2  -2   8    5.23    0.59
   2   2   8    5.90    0.41
  -2   2  -8    5.65    0.55
  -3   2   8    2.07    0.48
  -3   2   8    3.80    2.59
  -3  -2  -8    2.25    0.43
   3   2  -8    2.99    0.56
   3  -2   8    2.07    0.50
   3   2   8    2.65    0.29
  -3   2  -8    2.71    0.49
   3  -2  -8    2.14    0.59
  -3  -2   8    2.46    0.57
   3  -2  -8    2.82    0.37
   3   2   8    2.50    0.53
   4  -2   8    5.33    0.65
   4   2  -8    6.11    0.70
  -4  -2  -8    7.79    0.66
  -4   2   8    6.51    0.61
  -4  -2   8    7.21    0.71
   4   2   8    7.90    0.79
  -4   2  -8    6.56    0.65
   4  -2  -8    7.40    0.80
   5   2  -8    5.41    0.75
   5  -2   8    4.33    0.72
   5  -2  -8    6.17    0.85
   5   2   8    5.74    0.79
  -5  -2   8    3.89    0.73
   6   2  -8    3.31    0.75
   6  -2   8    3.12    0.74
   6  -2  -8    1.18    0.84
   6   2   8    1.22    0.69
  -6  -2   8    2.36    0.76
   7  -2   8    1.10    0.79
   7   2  -8    0.71    0.78
   7   2  -8    1.47    0.87
   7   2   8    0.40    0.76
   7  -2  -8    2.93    0.95
   8   2  -8    4.53    1.02
   8  -2   8    2.23    0.88
   8  -2  -8    4.95    1.19
   8   2   8    3.53    0.97
   0  -3  -8  119.19    2.43
   0   3  -8  122.79    2.41
   0   3   8  122.52    2.48
   0  -3   8  120.66    2.43
   1   3  -8    2.04    0.55
   1  -3   8    2.38    0.55
  -1  -3  -8    3.31    0.55
  -1   3   8    2.70    0.53
  -1   3  -8    1.85    0.49
  -1  -3   8    1.94    0.53
   1   3   8    2.47    0.50
   1  -3  -8    2.30    0.57
   1   3   8    3.27    0.27
  -2   3   8   17.10    1.01
  -2  -3  -8   17.50    0.91
   2   3  -8   17.21    0.91
   2  -3   8   16.38    0.96
  -2  -3   8   19.11    0.98
   2  -3  -8   17.70    0.64
  -2   3  -8   17.82    0.89
   2  -3  -8   17.53    1.05
   2   3   8   18.40    1.03
  -3  -3  -8   27.06    1.11
  -3   3   8   27.74    1.16
   3   3  -8   28.52    1.22
   3  -3   8   27.68    1.21
   3   3   8   27.77    1.24
   3  -3  -8   27.41    1.29
  -3  -3   8   25.59    1.14
  -3   3  -8   27.01    1.07
  -4   3   8   34.38    5.31
   4  -3   8   35.39    1.39
  -4  -3  -8   34.28    1.30
   4   3  -8   33.90    1.36
  -4   3   8   36.61    1.30
   4  -3  -8   37.52    1.49
  -4  -3   8   35.17    1.35
  -4   3  -8   36.16    1.21
   4   3   8   37.22    1.46
   5  -3   8   48.21    1.72
  -5   3   8   48.09    1.51
   5   3  -8   47.70    1.64
  -5  -3   8   45.31    1.60
   5  -3  -8   47.51    1.80
   6  -3   8    4.05    0.86
   6   3  -8    4.00    0.86
   6  -3  -8    3.75    0.98
   6   3   8    2.65    0.83
  -6  -3   8    2.97    0.76
   7   3  -8    2.05    0.89
   7  -3   8    3.13    0.93
   7   3   8    3.30    0.92
   7  -3  -8    1.73    1.05
   8   3  -8    0.83    0.94
   8  -3   8    0.60    0.92
   0  -4   8  129.79    2.71
   0   4   8  133.49    2.78
   0  -4  -8  134.42    2.78
   0   4  -8  135.69    2.67
   1  -4   8   14.32    0.91
  -1   4   8   15.56    1.10
   1   4  -8   15.62    1.01
   1  -4   8   15.65    0.64
  -1  -4  -8   14.75    1.01
  -1  -4   8   14.22    0.96
  -1   4  -8   15.73    0.92
   1   4   8   15.08    1.08
   1  -4  -8   16.23    1.11
  -2  -4  -8   -0.13    0.55
  -2   4   8   -0.27    0.54
   2   4  -8   -0.30    0.51
   2  -4   8    0.24    0.49
  -2   4  -8   -0.01    0.47
  -2  -4   8   -0.32    0.52
   2  -4  -8    0.70    0.68
   2   4   8    0.04    0.61
   3  -4   8   28.01    1.32
   3   4  -8   27.21    1.30
  -3   4   8   28.35    1.30
  -3  -4  -8   26.91    1.23
   3  -4  -8   32.00    1.47
  -3   4  -8   28.10    1.07
   3   4   8   30.50    1.39
  -3  -4   8   28.46    1.23
  -4  -4  -8   25.69    1.33
   4  -4   8   24.61    1.38
   4   4  -8   28.24    1.37
  -4   4   8   25.23    1.28
  -4   4  -8   27.02    1.05
   4   4   8   27.30    1.45
  -4  -4   8   24.54    1.23
   4  -4  -8   26.21    1.46
   5   4  -8   15.48    1.13
  -5   4   8   11.64    0.96
  -5  -4  -8   13.51    1.04
   5  -4   8   16.32    1.17
   5  -4  -8   13.47    1.14
  -5  -4   8   14.49    1.03
   5   4   8   15.65    1.17
   6   4  -8    7.54    1.00
   6  -4   8    6.41    1.03
  -6  -4   8    7.39    0.91
   6  -4  -8    7.89    1.10
   6   4   8    7.49    1.04
   7   4  -8   -0.19    0.90
   7  -4   8   -0.41    0.91
   7   4   8    1.70    0.91
   7  -4  -8    0.38    0.96
   0   5  -8   33.86    1.35
   0   5   8   36.78    1.57
   0  -5   8   36.09    1.39
   0  -5  -8   36.80    1.53
   1   5  -8    8.26    0.81
  -1   5   8   10.72    1.00
  -1  -5  -8    7.90    0.86
   1  -5   8    9.08    0.87
   1  -5  -8    9.98    1.01
  -1  -5   8    8.12    0.79
   1   5   8    9.29    0.94
  -1   5  -8    9.78    0.79
   2  -5   8   26.51    1.25
  -2   5   8   28.88    1.48
  -2  -5  -8   27.65    1.37
   2   5  -8   26.99    1.33
   2   5   8   28.29    1.46
   2  -5  -8   25.79    1.36
  -2  -5   8   27.28    1.26
  -2   5  -8   28.35    1.16
   3  -5   8   24.57    1.38
  -3   5   8   26.04    1.41
  -3  -5  -8   25.57    1.36
   3   5  -8   23.51    1.35
   3  -5  -8   24.54    1.48
  -3   5  -8   26.36    1.08
  -3  -5   8   25.69    1.22
   3   5   8   28.85    1.50
  -4   5   8   12.56    1.04
   4  -5   8   12.39    1.05
  -4  -5  -8   15.19    1.13
   4   5  -8   15.33    1.14
  -4  -5   8   18.05    1.13
   4   5   8   15.63    1.20
   4  -5  -8   14.76    1.18
  -5   5   8    6.83    3.81
   5  -5   8    8.73    1.01
   5   5  -8    7.35    0.99
  -5   5   8    9.25    0.98
  -5  -5  -8    8.69    0.98
   5  -5  -8    8.40    1.20
  -5  -5   8   10.02    0.92
   5   5   8    8.30    1.04
  -6   5   8    5.94    0.94
   6  -5   8    5.91    1.09
   6   5  -8    4.42    0.99
   6   5   8    5.04    1.04
   6  -5  -8    3.03    1.05
   0   6   8   10.53    1.08
   0  -6   8   10.76    0.92
   0  -6  -8   11.26    1.09
   0   6  -8   10.77    0.92
  -1  -6  -8   17.19    1.24
   1   6  -8   17.55    1.20
   1  -6   8   16.80    1.21
  -1   6   8   19.27    1.33
  -1  -6   8   17.95    1.18
  -1   6  -8   19.33    1.16
   1  -6  -8   18.01    1.32
   1   6   8   16.33    1.30
   2  -6   8   12.26    1.07
  -2  -6  -8   15.08    1.18
  -2   6   8   14.65    1.19
   2   6  -8   11.01    0.99
  -2   6  -8   15.12    1.00
   2  -6  -8   12.42    1.12
   2   6   8   11.21    1.12
  -2  -6   8   13.27    1.00
  -3  -6  -8    2.02    0.79
   3   6  -8    2.02    0.76
  -3   6   8    3.00    0.91
   3  -6   8    3.69    0.84
   3  -6  -8    1.23    0.91
  -3  -6   8    2.69    0.70
   3   6   8    0.86    0.88
   4   6  -8    1.60    0.82
   4  -6   8    2.08    0.90
  -4  -6  -8    2.19    0.87
  -4   6   8    1.59    0.84
   4   6   8    2.94    0.91
   4  -6  -8    1.59    1.01
  -5  -6  -8   -0.93    0.79
   5   6  -8   -0.34    0.83
  -5   6   8    0.37    0.82
   5  -6   8   -0.81    0.90
   5   6   8   -2.53    0.85
   5   6   8    1.83    4.58
   5  -6  -8   -0.55    0.89
   5   6   8    1.44    0.76
   6   6  -8    3.61    1.27
   6  -6   8    3.78    1.78
  -6   6   8    4.63    1.00
   6   6   8    1.57    1.02
   6   6   8    1.43    0.95
   6  -6  -8    0.34    1.14
   6   6   8    2.13    5.62
   0  -7   8   -0.59    0.67
   0  -7  -8    0.43    0.88
   0   7  -8   -0.64    0.65
   0   7   8   -0.42    0.85
  -1   7   8   18.14    1.34
  -1  -7  -8   21.00    1.56
   1   7  -8   18.40    1.36
   1  -7   8   18.04    1.24
   1  -7  -8   20.84    1.50
  -1  -7   8   19.04    1.34
   1   7   8   18.67    1.41
  -2   7   8    0.08    0.91
  -2  -7  -8    0.74    0.86
   2   7  -8    0.01    0.72
   2  -7   8   -0.17    0.72
   2   7   8    1.79    3.96
   2   7   8    0.83    0.99
  -2  -7   8    1.21    0.70
   2   7   8    1.14    0.63
   2  -7  -8    1.14    0.88
  -3   7   8    5.23    1.07
  -3  -7  -8    5.27    1.05
   3   7  -8    4.79    0.95
   3  -7   8    3.57    0.94
   3  -7  -8    3.55    1.06
   3   7   8    3.32    0.77
   3   7   8    4.25    4.45
   3   7   8    4.53    1.12
  -4   7   8    3.74    1.01
  -4  -7  -8    4.97    1.05
   4   7  -8    3.90    0.98
   4  -7   8    3.77    0.98
   4   7   8    4.34    0.89
   4   7   8    3.35    1.11
   4   7   8    3.37    4.47
   4  -7  -8    4.25    1.12
  -5   7   8    4.65    1.10
  -5  -7  -8    6.56    1.12
   5  -7  -8    5.68    2.12
   5   7   8    5.25    0.98
   5   7   8    2.98    1.14
   5   7   8    2.97    4.72
   0   8   8    4.30    1.14
   0  -8   8    3.65    0.87
   0  -8  -8    4.23    1.08
  -1  -8  -8    8.55    1.24
   1  -8   8    9.18    1.05
  -1   8   8    7.00    1.14
   1   8  -8    6.87    0.96
   1   8   8    5.84    1.18
   1  -8  -8   11.00    1.33
   2  -8   8    1.01    0.85
   2   8  -8    1.05    0.84
  -2   8   8    1.86    1.03
  -2  -8  -8    2.08    1.02
   2   8   8    0.62    1.04
   2  -8  -8   -0.47    0.98
   3   8  -8    0.29    0.87
  -3   8   8    3.33    1.51
   3  -8   8    0.35    0.90
  -3  -8  -8    1.74    1.01
   3   8   8   -0.57    1.05
   3  -8  -8    1.65    1.21
   3   8   8    1.43    1.21
   0   0   9   -0.28    1.15
   0   0  -9    0.23    0.29
   0   0   9    0.24    0.39
   0   0  -9   -0.24    0.35
   0   0   9    0.02    0.33
   1   0  -9  109.92    2.07
   1   0   9  114.40    2.18
  -1   0   9  111.10    2.20
  -1   0  -9  112.95    1.88
   1   0   9  111.50    2.19
  -1   0   9  112.56    2.03
   1   0   9  111.11    2.12
   1   0  -9  112.47    2.17
  -1   0  -9  110.09    2.19
  -2   0  -9   17.76    0.49
  -2   0   9   17.41    0.63
   2   0   9   18.42    0.86
   2   0   9   29.49    4.07
  -2   0   9   15.30    0.89
   2   0  -9   16.49    0.83
   2   0   9   17.43    0.78
   2   0  -9   18.07    0.81
   2   0   9   20.02    0.91
  -2   0  -9   17.84    0.90
   3   0   9   19.10    3.55
   3   0  -9   18.95    0.88
   3   0  -9   18.65    0.95
   3   0   9   16.95    1.00
  -3   0   9   18.78    0.60
  -3   0  -9   18.18    0.97
   3   0   9   19.28    0.83
  -3   0   9   19.12    1.01
   4   0   9   30.69    4.47
   4   0   9   30.74    1.24
   4   0  -9   32.14    1.28
   4   0  -9   31.07    1.12
   4   0   9   31.90    1.07
   4   0   9   31.86    1.32
  -4   0   9   32.75    1.32
   5   0   9    5.61    3.31
  -5   0   9    3.64    0.75
   5   0   9    2.87    0.73
   5   0   9    3.17    0.54
   5   0  -9    2.46    0.74
   5   0   9    1.98    0.70
   5   0  -9    2.43    0.58
   6   0   9   11.17    1.07
   6   0  -9   12.55    1.12
   6   0   9    7.24    3.41
   6   0   9   10.49    0.98
   6   0   9   11.22    0.82
   7   0   9    0.98    0.79
   7   0   9    3.12    4.10
   7   0  -9    0.94    0.92
   7   0   9    3.31    0.83
   8   0   9    0.76    0.81
   8   0   9    2.04    0.92
   8   0  -9    0.18    1.01
   8   0   9   -1.51    3.90
   0  -1   9   71.51    1.48
   0  -1  -9   72.02    1.52
   0   1   9   74.46    1.63
   0   1   9   75.44    1.55
   0   1  -9   72.33    1.34
   0  -1   9   71.43    1.64
   0  -1  -9   74.95    1.60
   0   1  -9   71.14    1.63
   0  -1   9   67.31    4.01
   0  -1   9   73.51    1.51
  -1  -1  -9    4.77    0.41
  -1   1   9    4.37    0.50
   1   1  -9    4.25    0.41
   1  -1   9    3.75    0.49
  -1   1   9    4.16    0.47
  -1  -1  -9    4.47    0.56
   1   1  -9    4.55    0.54
  -1  -1   9    4.26    0.36
   1  -1  -9    4.36    0.47
   1   1   9    4.88    0.56
   1  -1  -9    4.53    0.49
  -1   1  -9    4.41    0.54
   1   1   9    4.16    0.42
  -1  -1   9    4.45    0.54
  -2  -1  -9   26.55    0.98
   2   1  -9   26.18    0.91
  -2   1   9   25.81    0.85
   2   1  -9   24.99    0.98
   2  -1   9   23.98    0.95
  -2  -1  -9   25.42    0.77
  -2   1   9   28.71    3.84
  -2   1   9   23.67    0.98
   2  -1  -9   24.77    0.85
  -2  -1   9   24.56    1.04
  -2  -1   9   24.55    0.63
   2  -1  -9   28.54    1.02
  -2   1  -9   26.24    1.01
   2   1   9   26.07    1.03
   2   1   9   25.88    0.82
   3   1  -9   16.69    0.90
   3   1  -9   16.60    0.91
  -3   1   9   16.22    0.96
  -3   1   9   15.14    0.71
   3  -1   9   15.50    0.85
  -3  -1  -9   16.34    0.68
  -3  -1   9   16.18    0.90
   3   1   9   16.21    0.68
   3   1   9   15.06    0.95
   3  -1  -9   15.41    0.76
  -3   1  -9   16.25    0.90
   3   1   9   15.67    0.94
   3  -1  -9   15.49    0.92
   4   1  -9   24.82    1.17
  -4   1   9   25.20    1.15
   4  -1   9   26.11    1.08
   4   1  -9   25.26    1.10
   4  -1  -9   24.61    1.21
   4  -1  -9   25.23    0.95
   4   1   9   25.09    0.88
  -4   1  -9   25.27    1.14
  -4  -1   9   24.29    1.19
   4   1   9   24.34    1.18
   4   1   9   25.85    1.22
   5   1  -9   15.06    1.17
   5   1  -9   14.24    0.93
   5  -1   9   15.98    0.99
   5   1   9   12.55    0.97
   5   1   9   12.78    0.98
   5  -1  -9   13.71    1.07
  -5  -1   9   13.41    1.05
   6   1  -9    8.44    0.84
   6  -1   9    8.14    0.84
   6   1  -9    7.93    0.98
   6   1   9    7.44    0.92
   6   1   9    5.99    0.85
  -6  -1   9    6.63    0.90
   6  -1  -9    7.37    0.99
   7   1  -9    2.62    0.83
   7  -1   9    2.81    0.75
   7   1   9    3.70    0.85
   7   1   9    2.09    0.83
   7  -1  -9    1.25    0.88
   8   1  -9    6.05    1.04
   8  -1   9    9.09    1.14
   8  -1   9    5.72    1.00
   8   1   9    4.84    0.98
   8  -1  -9    7.78    1.27
   0  -2  -9    3.86    0.47
   0  -2   9    4.16    0.57
   0   2  -9    3.88    0.31
   0  -2  -9    4.23    0.53
   0   2   9    4.47    0.55
   0   2  -9    3.92    0.55
   0   2   9    3.74    0.40
  -1   2   9   70.67    1.61
   1  -2   9   69.35    1.67
  -1  -2  -9   66.55    1.54
  -1   2   9   66.53    1.51
   1   2  -9   70.17    1.66
  -1  -2  -9   66.45    1.58
   1  -2  -9   70.70    1.65
  -1  -2   9   67.22    1.63
   1  -2  -9   69.61    1.50
  -1   2  -9   69.49    1.63
   1   2   9   68.06    1.69
   1   2   9   70.05    1.37
  -2   2   9   15.13    0.83
   2  -2   9   14.89    0.91
  -2   2   9   13.28    0.83
   2   2  -9   16.11    0.96
  -2  -2  -9   13.60    0.75
   2  -2  -9   14.77    0.69
   2   2   9   15.14    0.96
  -2  -2   9   14.02    0.83
  -2   2  -9   15.90    0.87
   2  -2  -9   14.90    0.92
   2   2   9   14.60    0.58
   3  -2   9    7.12    0.68
   3   2  -9    7.55    0.69
  -3   2   9    9.56    0.77
  -3   2   9    8.82    3.05
  -3  -2  -9    8.65    0.62
  -3   2   9    9.25    0.68
  -3   2  -9    7.01    0.67
   3  -2  -9    9.29    0.82
   3   2   9    9.09    0.69
  -3  -2   9    8.87    0.79
   3   2   9    9.46    0.81
   3  -2  -9    9.02    0.54
   4  -2   9   19.47    1.10
  -4   2   9   21.26    0.93
   4   2  -9   21.05    1.19
  -4  -2  -9   23.37    0.98
  -4   2  -9   22.45    1.10
   4  -2  -9   22.93    1.26
  -4  -2   9   21.24    1.16
   4   2   9   22.69    1.22
   5   2  -9   31.79    1.43
   5  -2   9   34.01    1.39
   5   2   9   31.59    1.45
  -5  -2   9   32.31    1.43
   5  -2  -9   32.44    1.43
   6   2  -9    0.05    0.71
   6   2  -9    0.60    0.65
   6  -2   9    0.13    0.66
  -6  -2   9   -0.08    0.72
   6  -2  -9    0.49    0.72
   6   2   9    1.89    0.74
   7   2  -9    2.37    0.83
   7  -2   9    2.22    0.81
   7   2  -9    1.83    0.90
   7  -2  -9    0.59    0.91
   7   2   9    0.93    0.81
   8  -2   9   -0.63    0.80
   8   2   9    1.47    0.89
   8  -2  -9    2.21    1.74
   0  -3  -9    5.00    0.62
   0   3  -9    3.77    0.54
   0  -3   9    2.62    0.53
   0   3   9    3.45    0.56
   0   3   9    3.79    0.40
  -1  -3  -9   42.56    1.29
   1   3  -9   43.72    1.31
   1  -3   9   44.07    1.37
  -1   3   9   43.56    1.39
   1  -3  -9   43.55    1.13
   1  -3  -9   43.85    1.40
   1   3   9   43.63    0.94
   1   3   9   43.73    1.41
  -1   3  -9   43.39    1.31
  -1  -3   9   42.10    1.35
   2   3  -9   11.36    0.84
  -2   3   9    8.84    0.78
   2  -3   9    8.54    0.76
  -2  -3  -9   10.16    0.74
  -2  -3   9    8.04    0.69
   2  -3  -9    8.88    0.60
  -2   3  -9    8.97    0.72
   2  -3  -9    7.54    0.78
   2   3   9    9.89    0.86
  -3  -3  -9    1.31    0.51
  -3   3   9    1.29    0.57
   3  -3   9    1.03    0.59
   3   3  -9    0.78    0.64
   3  -3  -9    0.79    0.58
  -3  -3   9    1.17    0.60
  -3   3  -9    0.92    0.53
   3   3   9    0.46    0.63
  -4  -3  -9    3.59    0.62
  -4   3   9    5.06    0.66
   4  -3   9    4.28    0.75
  -4   3   9    4.17    3.16
   4   3  -9    4.16    0.78
  -4  -3   9    5.00    0.78
   4  -3  -9    3.17    0.71
  -4   3  -9    4.04    0.63
   4   3   9    4.39    0.77
   5  -3   9   20.89    1.31
  -5   3   9   21.49    1.08
   5   3  -9   21.38    1.33
   5   3   9   20.87    1.37
  -5  -3   9   22.30    1.33
   5  -3  -9   19.51    1.42
  -5   3  -9   19.75    1.08
   6  -3   9    0.18    0.74
   6   3  -9    0.18    0.75
   6  -3  -9    2.22    0.96
   6   3   9    0.68    0.76
  -6  -3   9    2.52    0.78
   7  -3   9    3.62    0.95
   7   3  -9    5.34    0.98
   7   3   9    3.72    0.96
   7  -3  -9    2.50    1.11
  -7  -3   9    4.46    0.91
   8  -3   9    0.03    0.92
   8   3  -9    1.00    0.99
   8   3   9   -0.16    0.99
   0  -4   9    0.70    0.52
   0   4   9    1.21    0.64
   0  -4  -9    0.82    0.63
   0   4  -9    1.15    0.60
   1   4  -9   15.09    0.97
  -1  -4  -9   14.88    1.06
   1  -4   9   14.66    0.97
  -1   4   9   14.78    1.05
   1   4   9   16.33    1.16
  -1   4  -9   15.73    0.98
  -1  -4   9   16.24    1.05
   1  -4  -9   16.23    1.16
   2   4  -9    7.48    0.83
  -2   4   9    6.76    0.82
  -2  -4  -9    7.91    0.81
   2  -4   9    6.99    0.80
   2   4   9    6.89    0.78
   2  -4  -9    6.59    0.81
  -2   4  -9    6.14    0.67
  -2  -4   9    6.65    0.74
   3   4  -9   20.30    1.24
   3  -4   9   22.21    1.27
  -3  -4  -9   20.37    1.14
  -3   4   9   19.84    1.25
  -3   4  -9   18.77    1.00
   3  -4  -9   20.60    1.37
  -3  -4   9   18.15    1.15
   3   4   9   20.22    1.28
  -4  -4  -9   35.56    1.41
   4  -4   9   33.24    1.57
  -4   4   9   34.04    1.44
   4   4  -9   34.26    1.56
   4   4   9   33.14    1.56
  -4  -4   9   35.70    1.44
  -4   4  -9   34.16    1.23
   4  -4  -9   31.51    1.60
   5   4  -9   14.25    1.15
  -5   4   9   14.67    1.04
   5  -4   9   12.98    1.09
  -5  -4  -9   14.22    1.05
  -5  -4   9   13.47    1.07
   5   4   9   12.71    1.13
   5  -4  -9   15.54    1.26
   6  -4   9    8.99    1.08
   6   4  -9    5.76    1.02
   6  -4  -9    7.71    1.19
  -6  -4   9    6.63    0.92
   6   4   9    7.48    1.06
   7  -4   9    3.11    0.98
   7   4  -9    4.01    1.03
  -7  -4   9    5.63    1.02
   7   4   9    4.72    1.05
   7  -4  -9    4.34    1.20
   0   5  -9   64.29    1.80
   0  -5   9   66.98    1.90
   0  -5  -9   64.15    1.98
   0   5   9   65.37    2.08
   1  -5   9   16.04    1.06
  -1  -5  -9   18.77    1.24
   1   5  -9   16.00    1.15
  -1   5   9   18.15    1.35
   1  -5  -9   18.46    1.34
  -1   5  -9   19.19    1.13
  -1  -5   9   18.06    1.17
   1   5   9   18.26    1.23
   2   5  -9   12.08    0.99
   2  -5   9    8.78    0.85
  -2   5   9   11.16    1.08
  -2  -5  -9   12.23    1.03
   2   5   9   10.93    1.04
  -2   5  -9    9.32    0.79
  -2  -5   9    8.53    0.84
   2  -5  -9    9.74    0.97
  -3   5   9    2.60    0.83
   3  -5   9    3.17    0.76
   3   5  -9    1.83    0.77
  -3  -5  -9    1.44    0.70
   3   5   9    4.58    0.92
   3  -5  -9    2.95    0.92
  -3   5  -9    2.77    0.59
  -3  -5   9    1.92    0.68
  -4  -5  -9    3.19    0.79
  -4   5   9    3.53    0.83
   4  -5   9    2.93    0.85
   4   5  -9    2.13    0.87
  -4  -5   9    2.96    0.72
   4   5   9    1.66    0.89
   4  -5  -9    1.88    0.97
   5  -5   9    5.45    1.02
  -5  -5  -9    8.10    0.97
  -5   5   9    6.40    0.90
   5   5  -9    7.66    1.01
  -5   5   9    3.84    3.42
   5  -5  -9    5.36    1.08
  -5  -5   9    5.85    0.86
   5   5   9    7.38    1.04
   6  -5   9   -0.61    0.94
   6   5  -9    1.51    0.97
   6  -5  -9    1.46    1.05
   6   5   9    1.67    0.99
   0  -6  -9    0.71    0.81
   0   6  -9    0.12    0.64
   0   6   9    0.77    0.87
   0  -6   9    0.06    0.65
   1   6  -9    1.22    0.69
  -1  -6  -9    0.21    0.77
  -1   6   9    1.44    0.90
   1  -6   9    0.80    0.72
   1  -6  -9    1.86    0.90
  -1  -6   9    1.63    0.72
   1   6   9    0.64    0.90
  -1   6  -9    1.23    0.65
  -2  -6  -9   13.55    1.18
   2  -6   9   15.56    1.16
   2   6  -9   14.39    1.12
  -2   6   9   14.70    1.22
   2  -6  -9   13.57    1.26
  -2   6  -9   15.90    1.07
  -2  -6   9   15.37    1.10
   2   6   9   14.19    1.20
   3   6  -9    2.53    0.84
   3  -6   9    3.29    0.86
  -3   6   9    2.63    0.92
  -3  -6  -9    2.70    0.86
  -3  -6   9    3.22    0.76
   3   6   9    2.12    0.94
   3  -6  -9    2.50    0.98
   4  -6   9    4.86    0.97
  -4   6   9    4.94    0.97
   4   6  -9    5.13    1.00
  -4  -6  -9    5.42    0.98
   4   6   9    4.81    1.05
  -4  -6   9    4.98    0.86
   4  -6  -9    5.55    1.15
  -5  -6  -9    1.32    0.85
  -5   6   9    0.08    0.82
   5  -6   9    0.75    0.96
   5   6  -9   -0.56    0.85
   5   6   9    0.53    0.95
   5  -6  -9    0.84    1.08
  -6   6   9    4.90    1.01
   6   6   9    4.12    1.13
   0  -7  -9    8.22    1.16
   0   7  -9   10.59    1.00
   0   7   9   10.77    1.27
   0  -7   9    9.09    0.99
   1   7  -9   18.54    1.33
  -1   7   9   24.00    1.73
   1  -7   9   18.48    1.39
  -1  -7  -9   20.43    1.57
  -1  -7   9   21.06    1.36
   1  -7  -9   21.49    1.67
  -1   7  -9   21.74    1.30
   1   7   9   21.86    1.56
  -2   7   9    9.76    1.16
   2   7  -9    8.20    1.01
  -2  -7  -9    7.94    1.09
   2  -7   9    8.91    1.09
   2   7   9   10.87    0.91
   2   7   9    2.75    4.58
   2   7   9   10.35    1.29
   2  -7  -9    8.65    1.26
  -2  -7   9    9.28    0.98
  -3  -7  -9    0.76    0.85
   3   7  -9    0.63    0.88
  -3   7   9    0.60    0.94
   3  -7   9    0.33    0.85
   3   7   9   -0.05    0.69
   3   7   9    0.04    1.00
   3  -7  -9    1.28    1.06
   3   7   9    2.46    4.38
  -4   7   9    0.02    0.92
  -4  -7  -9    1.23    0.94
   4  -7   9    1.50    0.89
   4   7  -9    1.84    0.95
   4  -7  -9    1.09    1.10
   4   7   9    0.28    1.04
   4   7   9    2.31    0.80
   4   7   9   -1.63    4.19
  -5  -7  -9    4.36    1.71
  -5   7   9    3.61    1.45
   5   7   9    0.03    1.11
   0  -8   9    4.96    0.97
   0   8   9    4.20    1.16
   0  -8  -9    4.01    1.02
  -1  -8  -9    0.16    1.00
  -1   8   9    1.72    1.07
   1  -8   9    1.11    0.87
   1   8  -9    0.73    0.83
   1  -8  -9    0.15    1.03
   1   8   9    1.77    1.11
   2   8  -9    0.85    0.86
   2  -8   9    2.37    0.94
  -2  -8  -9    0.82    1.03
  -2   8   9    1.08    1.05
   2  -8  -9    2.02    1.13
   2   8   9    0.48    1.06
   3   8  -9    1.34    1.54
   3  -8   9    2.52    1.09
   3   8   9    2.82    1.28
   0   0 -10  216.10    3.83
   0   0  10  218.93    3.80
   0   0  10  224.82    3.77
   0   0 -10  222.93    3.61
   1   0  10    4.94    0.52
  -1   0  10    5.28    0.45
  -1   0 -10    5.54    0.61
  -1   0 -10    5.38    0.36
   1   0 -10    6.29    0.60
   1   0 -10    5.52    0.49
   1   0  10    5.53    0.55
   1   0  10    6.01    0.53
  -1   0  10    4.86    0.55
  -2   0  10    2.40    0.57
   2   0  10    2.55    0.52
  -2   0  10    2.25    0.37
   2   0 -10    2.16    0.48
   2   0  10    3.23    0.54
   2   0 -10    2.05    0.47
   2   0  10    2.25    0.46
   2   0  10    3.01    2.32
  -2   0 -10    2.49    0.25
  -2   0 -10    2.54    0.57
   3   0  10   88.65    1.89
   3   0 -10   90.57    1.94
   3   0 -10   85.69    2.01
   3   0  10   88.15    6.23
  -3   0 -10   88.23    2.05
  -3   0  10   89.94    2.10
   3   0  10   89.15    2.06
   3   0  10   85.42    2.09
   4   0  10   52.33    5.66
   4   0  10   51.96    1.60
  -4   0  10   50.25    1.65
   4   0 -10   49.28    1.43
   4   0 -10   47.38    1.58
   4   0  10   52.45    1.41
   4   0  10   49.16    1.60
   5   0  10   50.22    1.73
  -5   0  10   52.50    1.80
   5   0  10   43.89    5.63
   5   0 -10   50.08    1.52
   5   0  10   51.41    1.47
   5   0  10   50.31    1.76
   5   0 -10   50.48    1.78
   6   0 -10   17.10    1.27
   6   0  10   19.22    4.75
   6   0  10   15.88    1.16
   6   0  10   14.67    1.13
   7   0  10    1.90    0.83
   7   0  10    0.25    0.81
   7   0 -10    0.03    0.80
   7   0  10   -0.87    3.14
   8   0  10    1.84    0.87
   8   0  10    1.99    4.48
   8   0  10    1.46    0.90
   8   0 -10    1.45    1.63
   0   1  10    1.26    0.45
   0  -1  10    0.36    1.57
   0  -1  10    0.92    0.35
   0  -1  10    1.13    0.36
   0  -1 -10    0.53    0.43
   0   1 -10    0.26    0.46
   0  -1  10    0.55    0.46
   0   1 -10    1.02    0.28
   0  -1 -10    0.76    0.39
   0   1  10    0.41    0.38
  -1   1  10   12.82    0.75
   1  -1  10   14.31    2.99
   1   1 -10   14.38    0.66
  -1  -1 -10   13.40    0.87
  -1  -1 -10   13.66    0.65
  -1   1  10   14.24    0.80
   1  -1  10   14.35    0.83
   1  -1  10   13.29    0.80
   1   1 -10   14.15    0.87
   1  -1  10   13.73    0.74
   1  -1 -10   12.02    0.78
  -1  -1  10   12.65    0.62
  -1   1 -10   14.00    0.37
   1   1  10   13.91    0.84
  -1   1 -10   10.81    0.73
   1  -1 -10   14.61    0.77
   1   1  10   13.36    0.71
  -1  -1  10   13.93    0.88
  -2   1  10    8.52    0.58
   2  -1  10    8.30    0.65
  -2  -1 -10    7.41    0.70
  -2  -1 -10    8.71    0.56
   2   1 -10    9.01    0.70
   2   1 -10    7.80    0.60
  -2   1  10    9.06    0.69
  -2   1 -10    8.16    0.67
  -2  -1  10    8.51    0.76
  -2  -1  10    8.49    0.46
   2  -1 -10    7.70    0.59
   2   1  10    8.58    0.64
   2  -1 -10    8.13    0.67
   2   1  10    9.31    0.74
  -3  -1 -10   50.81    1.16
  -3   1  10   51.07    1.53
  -3   1  10   48.49    1.22
   3   1 -10   51.71    1.46
   3  -1  10   47.39    1.41
   3   1 -10   52.57    1.46
   3   1  10   49.12    1.22
   3   1  10   47.27    1.52
   3  -1 -10   49.58    1.49
  -3  -1  10   48.85    1.52
  -3   1 -10   49.39    1.47
   3  -1 -10   49.24    1.30
   4   1 -10   12.49    0.87
  -4   1  10   11.11    0.90
   4   1 -10   12.54    0.93
   4  -1  10   14.43    0.99
   4   1  10   11.62    0.73
   4  -1 -10   11.18    0.80
   4   1  10   14.32    1.02
  -4   1 -10   12.02    0.88
   4  -1 -10   12.09    0.92
   4   1  10   12.03    0.92
  -4  -1  10   12.95    0.96
   5  -1  10    1.02    0.60
   5   1 -10    1.34    0.72
   5   1 -10   -0.01    0.63
   5   1  10    0.89    0.69
   5   1  10    1.38    0.65
  -5  -1  10    0.13    0.66
   5  -1 -10   -0.22    0.68
   6  -1  10    0.33    0.59
   6   1 -10   -0.68    0.64
   6   1 -10    1.19    0.71
   6   1  10    0.75    0.74
   6   1  10    0.09    0.74
   6  -1 -10    0.12    0.71
  -6  -1  10    0.74    0.77
   7   1 -10    0.68    0.87
   7  -1  10    0.25    0.68
   7   1  10   -1.21    0.69
   7  -1 -10    0.77    0.82
   7   1  10   -0.39    0.76
   8  -1  10    2.28    0.92
   8  -1  10    4.41    4.02
   8  -1  10    2.80    1.00
   8   1  10    3.11    0.96
   0   2  10   44.21    1.12
   0   2 -10   43.70    0.93
   0   2  10   41.42    1.29
   0  -2 -10   42.61    1.23
   0  -2 -10   42.70    1.21
   0  -2  10   45.58    1.36
   0   2 -10   43.29    1.32
   1  -2  10   -0.12    0.43
   1   2 -10   -0.06    0.31
  -1   2  10    0.29    0.48
  -1  -2 -10    0.28    0.45
   1   2 -10   -0.47    0.48
  -1   2  10   -0.31    0.39
  -1  -2 -10    0.11    0.39
  -1  -2  10   -0.03    1.56
   1  -2 -10    0.19    0.48
   1  -2 -10    0.17    0.40
  -1  -2  10    0.14    0.51
  -1  -2  10    0.37    0.28
  -1   2 -10    0.26    0.44
   1   2  10    0.09    0.45
  -1  -2  10   -0.01    0.27
   1   2  10    0.24    0.33
   2   2 -10   20.84    1.07
  -2   2  10   20.54    0.98
   2  -2  10   21.96    1.03
  -2   2  10   19.82    0.98
  -2  -2 -10   20.39    0.87
   2   2  10   20.05    0.72
  -2  -2  10   18.75    1.03
  -2   2 -10   19.96    1.01
   2  -2 -10   19.53    0.82
   2   2  10   19.33    1.09
   2  -2 -10   20.61    1.05
   3  -2  10   48.25    1.52
  -3  -2 -10   47.93    1.30
  -3   2  10   48.60    1.51
  -3   2  10   49.42    1.36
   3   2 -10   51.90    1.56
  -3   2  10   52.63    5.14
   3  -2 -10   50.58    1.59
   3   2  10   47.54    1.53
  -3  -2  10   47.00    1.49
  -3   2 -10   49.74    1.47
   3  -2 -10   49.58    1.25
  -4  -2 -10    8.21    0.63
   4   2 -10    8.12    0.86
   4  -2  10    6.35    0.77
  -4   2  10    6.90    0.63
   4  -2 -10    7.47    0.91
   4   2  10    8.33    0.90
  -4   2 -10    6.11    0.72
  -4  -2  10    6.96    0.84
   5  -2  10   11.21    0.97
   5   2 -10   14.05    1.04
   5   2 -10   12.39    1.01
   5   2  10   10.65    0.98
   5  -2 -10    9.65    1.06
  -5  -2  10   13.14    1.05
   6   2 -10    1.53    0.80
   6  -2  10    3.56    0.80
   6   2 -10    3.03    0.83
  -6  -2  10    2.89    0.78
   6  -2 -10    4.61    1.02
   6   2  10    2.71    0.87
   7   2 -10    6.89    0.99
   7  -2  10    5.88    0.94
   7   2 -10    5.08    1.03
   7  -2 -10    5.57    1.17
   7   2  10    6.20    1.06
   8  -2  10    4.49    0.97
   8   2  10    4.79    1.08
   0  -3  10    4.34    0.64
   0   3  10    5.24    0.46
   0   3 -10    4.81    0.61
   0   3  10    4.49    0.66
   0  -3 -10    4.51    0.64
  -1   3  10   39.79    1.17
   1   3 -10   41.15    1.39
  -1  -3 -10   40.90    1.30
  -1   3  10   42.26    1.41
   1  -3  10   42.07    1.42
   1   3  10   41.80    1.20
   1  -3 -10   42.45    1.16
   1  -3 -10   45.44    1.45
  -1   3 -10   42.21    1.36
  -1  -3  10   40.97    1.34
   1   3  10   41.03    1.44
  -2   3  10    3.07    0.66
   2  -3  10    4.34    0.70
  -2  -3 -10    3.19    0.57
   2   3 -10    3.16    0.70
  -2   3 -10    2.40    0.58
  -2  -3  10    3.35    0.69
   2  -3 -10    3.85    0.75
   2  -3 -10    2.80    0.44
   2   3  10    3.68    0.73
   3   3 -10    9.82    0.92
  -3  -3 -10   11.03    0.84
   3  -3  10    9.62    0.88
  -3   3  10    8.72    0.80
   3  -3 -10    7.17    0.81
  -3  -3  10   10.31    0.90
   3   3  10    8.87    0.91
  -3   3 -10   11.22    0.83
   4  -3  10    0.23    0.66
  -4  -3 -10   -0.08    0.50
   4   3 -10   -0.22    0.70
  -4   3  10    0.59    0.53
  -4   3  10   -0.50    2.03
   4   3  10    0.79    0.72
  -4  -3  10   -0.52    0.63
   4  -3 -10    0.23    0.71
  -4   3 -10    0.00    0.54
   5  -3  10   13.17    1.09
   5   3 -10   12.88    1.06
   5  -3 -10   12.32    1.18
  -5  -3  10   12.84    1.05
  -5   3 -10   13.10    0.92
   5   3  10   11.87    1.11
   6  -3  10    0.50    0.77
   6   3 -10    0.26    0.79
  -6  -3  10    0.48    0.75
   6  -3 -10   -0.35    0.88
   6   3  10    0.95    0.85
   7  -3  10   -0.85    0.84
   7   3 -10   -0.37    0.86
  -7  -3  10    0.18    0.82
   7  -3 -10    1.63    1.10
   7   3  10    1.11    0.93
   0   4 -10    0.36    0.58
   0   4  10    0.30    0.63
   0  -4 -10    0.09    0.65
   0  -4  10   -0.33    0.60
  -1   4  10   27.24    1.39
   1   4 -10   26.57    1.27
  -1  -4 -10   26.72    1.25
   1  -4  10   27.94    1.31
  -1  -4  10   26.83    1.29
   1   4  10   27.25    1.37
  -1   4 -10   27.04    1.20
   1  -4 -10   28.48    1.37
  -2  -4 -10   18.27    1.11
   2   4 -10   17.09    1.19
  -2   4  10   17.58    1.20
   2  -4  10   18.44    1.20
   2  -4 -10   19.23    1.30
  -2   4 -10   19.53    1.11
   2   4  10   17.89    1.26
  -2  -4  10   18.98    1.15
   3  -4  10    2.56    0.76
  -3   4  10    3.59    0.76
  -3  -4 -10    2.46    0.66
   3   4 -10    2.21    0.73
   3   4  10    2.41    0.78
  -3  -4  10    2.39    0.69
  -3   4 -10    2.21    0.62
   3  -4 -10    2.46    0.83
  -4  -4 -10   35.27    1.41
  -4   4  10   34.21    1.43
   4  -4  10   33.01    1.57
   4   4 -10   31.53    1.53
  -4   4 -10   35.75    1.32
   4   4  10   35.35    1.64
   4  -4 -10   33.87    1.56
  -4  -4  10   34.95    1.48
   5   4 -10    1.56    0.80
  -5  -4 -10    1.49    0.69
   5  -4  10    0.43    0.84
  -5   4  10    0.93    0.63
  -5  -4  10    1.51    0.74
   5  -4 -10   -0.47    0.87
   5   4  10    0.45    0.82
   6  -4  10    1.58    0.94
   6   4 -10    1.78    0.92
   6   4  10    1.87    0.94
  -6  -4  10    1.76    0.82
   6  -4 -10    1.87    1.01
   7  -4  10    8.14    1.16
   7   4 -10    7.12    1.16
  -7  -4  10    4.04    0.94
   7   4  10    6.68    1.13
   0   5 -10   16.18    1.14
   0   5  10   14.09    1.13
   0  -5  10   16.69    1.19
   0  -5 -10   15.21    1.14
  -1  -5 -10   15.14    1.09
   1   5 -10   16.06    1.09
  -1   5  10   14.29    1.14
   1  -5  10   13.94    1.04
   1  -5 -10   13.59    1.12
   1   5  10   13.12    1.08
  -1  -5  10   16.03    1.09
  -1   5 -10   15.63    1.08
   2   5 -10    9.16    0.99
  -2  -5 -10    9.68    0.99
  -2   5  10    9.73    1.07
   2  -5  10    9.90    0.97
   2  -5 -10    8.43    1.05
  -2  -5  10    7.30    0.87
  -2   5 -10    7.78    0.80
   2   5  10    8.41    0.94
  -3   5  10    0.44    0.68
  -3  -5 -10   -0.42    0.68
   3  -5  10    0.41    0.71
   3   5 -10    0.70    0.78
  -3  -5  10    0.12    0.64
   3   5  10    1.41    0.86
   3  -5 -10    1.41    0.86
  -3   5 -10    1.16    0.58
  -4  -5 -10    0.84    0.72
  -4   5  10    0.95    0.73
   4  -5  10    1.19    0.84
   4   5 -10    1.32    0.84
  -4  -5  10    1.96    0.75
   4  -5 -10   -0.21    0.92
   4   5  10   -0.42    0.85
  -5   5  10    3.08    3.65
   5  -5  10    2.01    0.94
  -5  -5 -10    1.42    0.78
   5   5 -10    1.23    0.89
  -5   5  10    1.85    0.78
   5   5  10    2.56    0.95
  -5  -5  10    3.86    0.84
   5  -5 -10    0.89    1.01
   6   5 -10    2.49    1.01
   6  -5  10    2.16    1.04
   6  -5 -10    0.86    0.97
   6   5  10    0.97    1.00
   0   6 -10    0.35    0.69
   0  -6  10   -0.01    0.66
   0   6  10    0.09    0.86
   0  -6 -10   -0.11    0.79
   1  -6  10    9.59    1.03
   1   6 -10    7.88    0.94
  -1  -6 -10    9.94    1.07
  -1   6  10   10.01    1.17
  -1  -6  10    9.89    1.00
  -1   6 -10    8.33    0.86
   1   6  10    8.72    1.17
   1  -6 -10    8.46    1.07
   2  -6  10    3.59    0.83
   2   6 -10    2.81    0.82
  -2   6  10    5.16    1.05
  -2  -6 -10    6.39    0.99
  -2   6 -10    3.34    0.71
   2  -6 -10    3.97    1.04
  -2  -6  10    4.30    0.82
   2   6  10    3.69    0.98
   3  -6  10    0.26    0.81
   3   6 -10    0.39    0.79
  -3  -6 -10    1.31    0.81
  -3   6  10    0.56    0.85
   3   6  10    0.55    0.91
   3  -6 -10   -0.66    0.97
  -3  -6  10    0.62    0.71
   4   6 -10    0.16    0.91
  -4   6  10   -0.24    0.84
   4  -6  10   -0.32    0.82
  -4  -6 -10    0.26    0.80
   4  -6 -10    0.48    0.98
   4   6  10   -0.18    0.90
  -4  -6  10    1.46    0.77
  -5   6  10    0.38    3.42
  -5  -6 -10    0.71    0.87
   5  -6  10    1.63    0.92
   5   6 -10    0.55    0.92
  -5   6  10    1.51    0.82
   5  -6 -10   -0.73    1.00
   5   6  10    0.43    0.99
   0  -7 -10    6.38    1.07
   0  -7  10    6.86    0.96
   0   7  10    5.81    1.14
   0   7 -10    5.67    0.90
   1  -7  10    6.08    0.97
  -1  -7 -10    7.37    1.10
   1   7 -10    6.94    0.99
  -1   7  10    6.23    1.17
   1   7  10    6.55    1.22
  -1   7 -10    7.43    0.90
  -1  -7  10    7.13    0.98
   1  -7 -10    7.34    1.17
  -2   7  10    2.91    1.05
   2  -7  10    2.20    0.88
   2   7 -10    2.56    0.87
  -2  -7 -10    2.87    0.96
   2  -7 -10    3.74    1.09
  -2  -7  10    3.54    0.85
   2   7  10    3.56    1.15
  -3   7  10    0.48    0.90
   3   7 -10    0.27    0.89
   3  -7  10    0.37    0.89
  -3  -7 -10    1.14    0.90
   3   7  10   -0.21    4.08
   3  -7 -10   -0.88    1.04
   3   7  10    0.54    0.68
   3   7  10   -0.35    1.05
  -4   7  10    1.44    0.95
  -4  -7 -10    0.49    0.91
   4   7 -10    0.93    0.96
   4  -7  10   -0.28    0.92
   4   7  10   -0.91    1.06
   4   7  10   -3.63    4.50
   4   7  10    0.92    0.77
   4  -7 -10   -0.01    1.08
   0  -8 -10    2.59    1.11
   0  -8  10    1.93    0.89
   0   8  10    2.18    1.16
  -1  -8 -10    5.10    1.18
  -1   8  10    3.83    1.13
   1  -8  10    3.42    0.98
   1   8 -10    4.26    0.95
   1  -8 -10    4.45    1.13
  -1  -8  10    4.34    0.95
   1   8  10    2.34    1.17
   2  -8  10   -0.59    0.87
   2   8 -10    0.37    0.89
   0   0  11    0.22    0.40
   0   0 -11    0.20    0.32
   0   0  11    0.32    0.43
   0   0 -11   -0.35    0.48
   1   0 -11  116.77    2.24
   1   0  11  116.45    2.40
  -1   0  11  119.70    2.43
  -1   0 -11  122.51    2.46
  -1   0  11  119.57    2.23
   1   0  11  115.39    2.32
  -1   0 -11  119.25    2.04
   1   0 -11  119.35    2.39
  -2   0  11    8.79    0.72
  -2   0  11    8.63    0.60
   2   0  11   10.09    0.74
   2   0 -11    9.02    0.66
   2   0  11   10.49    0.81
   2   0  11   10.00    0.68
  -2   0 -11    9.14    0.71
   2   0 -11    9.89    0.72
   3   0 -11   23.58    1.11
  -3   0  11   23.88    1.11
   3   0 -11   25.16    1.06
   3   0  11   26.49    4.41
   3   0  11   23.55    1.19
  -3   0 -11   25.42    1.16
   3   0  11   23.86    1.14
   3   0  11   25.87    0.99
   4   0  11    9.46    3.37
   4   0 -11    6.88    0.72
   4   0  11    7.42    0.84
   4   0  11    6.73    0.81
   4   0 -11    7.57    0.84
   4   0  11    7.26    0.67
  -4   0  11    7.88    0.85
   5   0  11   26.40    1.14
   5   0  11   21.60    4.38
   5   0 -11   26.54    1.21
  -5   0  11   25.77    1.44
   5   0  11   26.76    1.43
   5   0 -11   24.16    1.43
   5   0  11   26.17    1.42
   6   0  11    0.88    0.76
   6   0 -11   -0.67    0.80
   6   0  11    0.17    0.79
   6   0  11   -1.92    3.21
   7   0  11   -0.61    0.78
   7   0  11    0.79    3.49
   7   0  11    0.05    0.83
   7   0 -11   -0.46    0.95
   8   0  11    3.09    1.57
   8   0  11    1.59    1.51
   0   1  11   32.06    1.09
   0  -1  11   34.38    1.02
   0  -1  11   33.53    1.04
   0   1 -11   35.14    0.86
   0  -1  11   35.15    1.20
   0   1  11   35.62    1.17
   0  -1 -11   35.23    1.16
   0   1 -11   34.58    1.21
   0  -1 -11   33.76    1.03
   1  -1  11    3.37    0.50
  -1   1  11    3.03    0.51
   1   1 -11    3.85    0.43
   1  -1  11    4.97    0.60
  -1   1  11    4.24    0.56
   1   1 -11    3.56    0.57
  -1  -1 -11    4.24    0.44
   1  -1  11    4.14    0.54
   1  -1  11    1.99    2.51
  -1  -1 -11    3.03    0.59
  -1  -1  11    3.99    0.42
   1   1  11    4.18    0.50
   1   1  11    3.17    0.54
   1  -1 -11    3.59    0.54
  -1  -1  11    3.23    0.59
   1  -1 -11    4.17    0.54
  -1   1 -11    3.76    0.60
   2   1 -11   69.44    1.64
  -2   1  11   72.42    1.61
  -2  -1 -11   70.75    1.45
  -2  -1 -11   73.13    1.81
  -2   1  11   70.36    1.76
   2  -1  11   69.16    1.76
   2   1 -11   70.18    1.77
   2  -1 -11   71.66    1.74
   2   1  11   70.13    1.57
   2   1  11   72.13    1.83
  -2   1 -11   71.16    1.80
   2  -1 -11   70.16    1.66
  -2  -1  11   68.74    1.77
   3  -1  11   56.70    1.55
   3   1 -11   54.26    1.53
  -3   1  11   52.42    1.61
  -3   1  11   54.46    1.33
   3   1 -11   54.08    1.56
   3   1  11   54.92    1.36
  -3   1 -11   51.92    1.53
   3   1  11   53.47    1.66
   3  -1 -11   52.41    1.61
  -3  -1  11   55.10    1.66
   3  -1 -11   53.15    1.43
   4   1 -11    0.71    0.61
   4   1 -11    1.19    0.60
  -4   1  11    1.62    0.71
   4  -1  11    0.67    0.57
   4   1  11    0.78    0.66
   4  -1 -11    1.04    0.51
   4  -1 -11    1.10    0.64
  -4  -1  11    0.27    0.58
  -4   1 -11    1.18    0.59
   5   1 -11    3.71    0.81
   5   1 -11    3.07    0.73
  -5   1  11    3.28    0.82
   5  -1  11    3.53    0.68
   5  -1 -11    2.32    0.83
   5   1  11    2.23    0.74
  -5  -1  11    3.84    0.81
   5   1  11    1.98    0.78
   6   1 -11    3.86    0.92
   6  -1  11    1.34    0.69
   6   1 -11    1.64    0.74
   6  -1 -11    2.47    0.92
  -6  -1  11    2.58    0.85
   6   1  11    1.23    0.81
   7  -1  11   10.09    1.15
   7  -1  11   11.25    1.14
   7   1 -11   12.03    1.29
   7  -1  11    6.14    3.91
   7   1  11   10.35    1.16
   7  -1 -11   10.24    1.25
   8   1  11    3.94    1.65
   0  -2  11    4.65    0.65
   0   2  11    4.98    0.52
   0   2 -11    2.24    0.59
   0  -2 -11    4.70    0.57
   0  -2 -11    4.58    0.59
   0   2  11    4.32    0.63
  -1  -2 -11    7.50    0.61
   1   2 -11    6.17    0.66
   1  -2  11    6.70    0.69
   1   2 -11    7.02    0.50
  -1   2  11    6.57    0.67
  -1   2  11    7.22    0.63
  -1  -2 -11    7.85    0.72
   1   2  11    7.15    0.52
  -1  -2  11    7.25    0.55
  -1   2 -11    7.83    0.74
   1  -2 -11    5.88    0.60
   1  -2 -11    6.87    0.70
  -1  -2  11    7.48    0.77
  -1  -2  11    6.90    0.52
   1   2  11    6.92    0.73
   2  -2  11   28.55    1.20
  -2   2  11   24.11    1.13
   2   2 -11   25.74    1.20
  -2  -2 -11   25.31    0.96
  -2   2  11   27.29    1.11
   2   2 -11   26.06    0.99
  -2   2 -11   25.96    1.17
  -2  -2  11   26.97    1.20
   2  -2 -11   26.41    0.98
   2   2  11   25.18    0.84
   2  -2 -11   24.23    1.17
   2   2  11   25.84    1.16
  -3   2  11   -0.89    0.55
   3   2 -11   -0.04    0.63
   3   2 -11    0.35    0.51
  -3  -2 -11    0.22    0.40
  -3   2  11    0.57    0.48
   3  -2  11    1.08    0.61
  -3  -2  11    0.52    0.59
   3  -2 -11    0.41    0.44
   3  -2 -11    0.15    0.62
  -3   2 -11   -0.54    0.54
   3   2  11   -1.19    0.60
   4   2 -11    5.41    0.81
   4  -2  11    4.43    0.75
   4   2 -11    5.73    0.76
   4  -2 -11    5.60    0.87
  -4   2 -11    4.40    0.71
   4   2  11    5.18    0.84
  -4  -2  11    4.55    0.80
   5  -2  11    2.61    0.70
   5   2 -11    2.40    0.77
   5   2 -11    2.78    0.74
   5   2  11    1.72    0.79
   5  -2 -11    2.41    0.86
  -5  -2  11    2.57    0.77
   6   2 -11    0.20    0.75
   6  -2  11   -1.00    0.67
   6   2 -11    0.96    0.80
   6  -2 -11    1.63    0.95
  -6  -2  11    0.16    0.71
   6   2  11    0.29    0.82
   7   2 -11    0.16    0.87
   7  -2  11    0.12    0.81
   7   2 -11    1.06    0.89
  -7  -2  11    0.57    0.83
   7   2  11    0.57    0.89
   7  -2 -11   -1.29    0.99
   0   3  11    9.97    0.87
   0   3  11   11.93    0.73
   0  -3  11   13.67    0.98
   0   3 -11   12.24    0.90
   0  -3 -11   12.20    0.85
  -1  -3 -11    8.80    0.76
   1  -3  11    8.43    0.81
  -1   3  11    7.64    0.63
   1   3 -11    8.26    0.82
  -1   3  11    7.71    0.80
   1   3  11    8.47    0.85
   1  -3 -11    6.88    0.77
  -1   3 -11    7.23    0.75
   1  -3 -11    8.78    0.64
  -1  -3  11    7.20    0.79
  -2   3  11    0.46    0.63
  -2  -3 -11    0.92    0.51
   2   3 -11    1.65    0.71
   2  -3  11    0.33    0.59
   2  -3 -11    0.38    0.67
  -2   3 -11    1.27    0.61
  -2  -3  11    1.42    0.63
   2   3  11    1.04    0.61
   2  -3 -11    1.21    0.44
  -3   3  11   50.35    1.56
  -3  -3 -11   50.69    1.45
   3   3 -11   50.22    1.70
   3  -3  11   52.08    1.73
   3   3  11   49.94    1.77
  -3  -3  11   49.54    1.61
   3  -3 -11   52.84    1.77
  -3   3 -11   51.07    1.56
   4   3 -11   31.06    1.50
  -4  -3 -11   31.09    1.24
   4  -3  11   33.27    1.49
  -4   3  11   30.44    1.27
  -4   3 -11   31.33    1.31
   4  -3 -11   30.93    1.57
  -4  -3  11   32.50    1.46
   4   3  11   30.34    1.54
   5   3 -11    3.63    0.88
   5  -3  11    3.63    0.84
  -5   3 -11    4.88    0.73
  -5  -3  11    3.32    0.82
   5  -3 -11    1.94    0.80
   5   3  11    3.21    0.90
   6   3 -11    1.32    0.89
   6  -3  11    1.42    0.87
   6  -3 -11    0.24    0.94
  -6  -3  11    0.64    0.77
   6   3  11    1.10    0.86
   7   3 -11    4.89    1.01
   7  -3  11    3.90    1.01
   7   3 -11    4.53    1.03
   7  -3 -11    4.31    1.21
  -7  -3  11    3.57    0.95
   7   3  11    4.27    1.08
   0   4 -11   54.03    1.67
   0  -4 -11   49.09    1.73
   0   4  11   50.91    1.77
   0  -4  11   51.72    1.69
   1   4 -11   65.96    1.89
   1  -4  11   61.16    1.87
  -1  -4 -11   64.97    1.83
  -1   4  11   63.89    1.95
  -1   4 -11   59.83    1.78
   1   4  11   66.18    2.00
  -1  -4  11   63.63    1.88
   1  -4 -11   62.65    1.91
  -2   4  11    7.68    0.96
  -2  -4 -11    7.80    0.81
   2  -4  11    6.75    0.86
   2   4 -11    6.39    0.86
  -2  -4  11    5.58    0.75
  -2   4 -11    8.36    0.78
   2  -4 -11    6.76    0.85
   2   4  11    7.97    0.97
  -3  -4 -11   15.31    1.10
  -3   4  11   16.44    1.28
   3   4 -11   20.45    1.36
   3  -4  11   14.18    1.08
   3   4  11   18.60    1.36
  -3   4 -11   16.34    1.13
  -3  -4  11   17.11    1.17
   3  -4 -11   17.08    1.24
   4  -4  11    6.83    0.91
   4   4 -11    6.87    0.94
  -4   4  11    5.76    3.40
  -4   4  11    8.03    0.89
  -4  -4 -11    6.93    0.81
   4   4  11    6.43    1.00
  -4  -4  11    8.35    0.95
  -4   4 -11    6.03    0.76
   4  -4 -11    6.60    1.05
   5   4 -11    3.34    0.93
   5  -4  11    3.14    0.91
   5  -4 -11    1.32    0.97
   5   4  11    1.61    0.92
  -5  -4  11    2.75    0.82
   6  -4  11   11.77    1.22
   6   4 -11   12.99    1.26
  -6  -4  11   13.49    1.19
   6  -4 -11    9.71    1.34
   6   4  11   13.54    1.32
   7   4 -11    2.44    1.19
  -7  -4  11    2.90    0.96
   7   4  11    3.13    1.12
   0  -5 -11    3.52    0.86
   0   5 -11    2.53    0.73
   0   5  11    3.51    0.93
   0  -5  11    1.44    0.71
  -1   5  11    0.94    0.81
   1   5 -11    1.95    0.77
  -1  -5 -11    1.29    0.72
   1  -5  11    1.58    0.75
  -1  -5  11    1.74    0.76
   1  -5 -11    2.26    0.89
   1   5  11    0.87    0.84
  -1   5 -11    0.73    0.66
   2   5 -11    5.11    0.84
  -2  -5 -11    4.86    0.84
  -2   5  11    4.11    0.91
   2  -5  11    4.71    0.90
   2  -5 -11    4.14    0.92
   2   5  11    3.83    0.84
  -2   5 -11    5.11    0.74
  -2  -5  11    3.99    0.79
   3  -5  11    2.83    0.84
  -3   5  11    5.22    0.95
  -3  -5 -11    3.39    0.79
   3   5 -11    3.85    0.82
   3  -5 -11    3.71    0.95
  -3  -5  11    3.97    0.78
  -3   5 -11    3.34    0.70
   3   5  11    3.58    0.93
   4   5 -11    9.22    1.09
   4  -5  11    8.62    1.09
  -4  -5 -11    7.99    0.96
  -4   5  11    7.02    0.98
  -4  -5  11    7.46    0.95
   4   5  11    7.92    1.12
   4  -5 -11    5.46    1.12
  -5   5  11    3.92    0.87
  -5  -5 -11    1.90    0.79
   5   5 -11    0.78    0.94
  -5   5  11    2.10    3.62
   5  -5  11    2.84    0.95
  -5  -5  11    0.93    0.78
   5   5  11    0.46    0.92
   5  -5 -11    0.50    1.05
   6  -5  11   14.51    1.48
   6   5 -11   12.44    1.37
   6   5  11   11.81    1.31
   6  -5 -11   14.61    1.89
  -6  -5  11   17.78    1.32
   0  -6  11    1.38    0.75
   0  -6 -11    2.96    0.88
   0   6  11    0.62    0.93
   0   6 -11    1.16    0.76
   1   6 -11    1.61    0.76
  -1  -6 -11    2.93    0.93
   1  -6  11    2.53    0.81
  -1   6  11    2.99    0.99
   1  -6 -11    2.54    0.95
  -1   6 -11    3.81    0.78
  -1  -6  11    4.93    0.89
   1   6  11    2.18    0.99
   2  -6  11   -0.02    0.73
   2   6 -11    0.31    0.78
  -2   6  11   -0.76    0.87
  -2  -6 -11    0.21    0.80
   2   6  11   -1.25    0.90
  -2   6 -11   -0.16    0.65
  -2  -6  11    0.58    0.72
   2  -6 -11   -1.26    0.86
  -3  -6 -11    0.92    0.82
   3  -6  11    0.55    0.83
   3   6 -11   -0.44    0.85
  -3   6  11   -0.06    0.88
  -3  -6  11    0.73    0.73
   3   6  11   -1.18    0.90
   3  -6 -11   -0.44    0.85
   4   6 -11   -0.69    0.89
  -4  -6 -11    1.03    0.80
   4  -6  11   -0.75    0.88
  -4   6  11    1.78    0.92
   4  -6 -11    0.40    1.01
   4   6  11    0.34    0.96
  -4  -6  11    0.34    0.78
   5   6 -11    2.17    1.28
   5  -6  11    1.88    1.61
  -5   6  11    2.49    4.06
  -5   6  11    2.04    0.92
  -5  -6 -11    1.54    0.91
   5  -6 -11    1.41    1.27
   5   6  11    2.31    1.12
   0  -7 -11    0.39    0.93
   0   7 -11   -0.66    0.75
   0  -7  11    0.37    0.83
   0   7  11   -1.01    0.99
   1   7 -11    2.80    0.87
   1  -7  11    1.96    0.91
  -1  -7 -11    3.45    0.99
  -1   7  11    2.17    1.02
  -1   7 -11    1.59    0.79
   1   7  11    1.58    1.05
  -1  -7  11    1.60    0.82
   1  -7 -11    3.39    1.04
   2  -7  11    2.02    0.90
  -2   7  11    2.53    1.08
  -2  -7 -11    3.12    0.97
   2   7 -11    2.97    0.96
  -2  -7  11    2.81    0.86
   2   7  11    1.69    1.13
   2  -7 -11    1.97    1.09
  -3  -7 -11    0.80    0.91
   3  -7  11    2.50    1.00
   3   7 -11    0.52    0.90
  -3   7  11    1.86    1.00
  -3  -7  11    2.71    0.86
   3   7  11    0.22    1.09
   3  -7 -11    1.23    1.09
  -4  -7 -11    1.75    0.96
  -4   7  11    1.78    1.00
   4   7  11    1.15    1.28
   4   7  11    2.08    0.80
   4   7  11    0.79    4.96
   0   8 -11    6.70    1.44
   0  -8  11    7.62    1.09
   1   8 -11    8.96    1.12
   1  -8  11   10.39    1.19
  -1  -8  11    9.34    1.15
   0   0  12   30.58    1.14
   0   0 -12   29.49    1.19
   0   0  12   29.40    1.03
   0   0 -12   27.94    0.89
  -1   0  12   79.22    1.92
   1   0 -12   77.72    1.71
   1   0 -12   77.19    1.86
  -1   0 -12   76.40    1.91
  -1   0  12   78.63    1.70
   1   0  12   79.75    1.89
   1   0  12   80.15    1.82
   2   0  12   76.48    1.87
  -2   0  12   71.88    1.56
   2   0 -12   72.32    1.73
   2   0  12   73.80    1.76
   2   0  12   75.63    1.93
   2   0 -12   72.45    1.83
  -2   0 -12   71.36    1.89
  -2   0  12   69.39    1.87
   3   0  12   19.42    1.13
   3   0  12   18.86    1.02
   3   0 -12   18.89    1.04
  -3   0 -12   16.38    1.02
  -3   0  12   17.52    1.14
   3   0  12   18.83    4.15
   3   0  12   17.58    1.14
   3   0 -12   18.11    1.06
   4   0  12   27.43    1.42
   4   0 -12   27.99    1.21
   4   0  12   27.96    1.18
   4   0  12   30.23    1.39
   4   0 -12   28.14    1.34
  -4   0  12   28.73    1.39
   4   0  12   29.94    5.20
   5   0  12    5.34    0.88
  -5   0  12    6.18    0.92
   5   0  12    5.50    3.42
   5   0 -12    4.73    0.88
   5   0  12    4.18    0.89
   5   0  12    4.11    0.78
   5   0 -12    4.80    0.74
   6   0  12    0.44    0.78
   6   0  12   -0.59    3.32
  -6   0  12    0.82    0.81
   6   0  12   -0.19    0.78
   6   0 -12   -0.88    0.82
   7   0  12    0.10    0.88
   7   0  12    1.76    0.89
   7   0 -12    2.69    1.00
   7   0  12   10.79    4.65
   0   1 -12    2.94    0.63
   0  -1 -12    1.49    0.45
   0   1  12    2.13    0.55
   0  -1  12    2.59    0.59
   0   1  12    2.45    0.51
   0  -1  12    2.15    0.47
   0  -1 -12    0.77    0.54
   1  -1  12   11.00    3.16
   1  -1  12    9.55    0.70
   1   1 -12   10.18    0.84
  -1   1  12   11.52    0.85
   1  -1  12   10.08    0.74
   1   1 -12   10.53    0.68
  -1   1  12   10.89    2.70
  -1   1  12   10.17    0.76
   1  -1  12   10.22    0.79
  -1  -1 -12   10.06    0.67
  -1  -1 -12    9.57    0.79
   1  -1 -12   11.31    0.77
  -1  -1  12   10.36    0.83
  -1   1 -12   10.54    0.81
   1   1  12   10.45    0.81
   1   1  12    9.98    0.73
   1  -1 -12   10.58    0.73
  -1  -1  12   11.01    0.66
   2   1 -12   19.59    0.94
   2   1 -12   19.47    1.10
   2  -1  12   23.82    4.22
   2  -1  12   19.36    1.07
  -2  -1 -12   18.80    1.10
  -2   1  12   19.60    1.08
  -2   1  12   18.07    0.90
   2  -1  12   19.07    1.04
   2  -1  12   18.16    1.02
   2   1  12   17.67    0.87
  -2   1 -12   19.37    1.10
   2  -1 -12   19.25    1.03
  -2  -1  12   19.20    1.13
   2  -1 -12   20.47    1.05
   2   1  12   20.83    1.13
   3   1 -12    8.55    0.83
   3  -1  12    9.67    0.81
  -3   1  12    9.53    0.89
   3  -1  12    7.77    3.21
   3   1 -12    6.68    0.73
   3  -1  12    9.09    0.89
   3  -1  12    8.58    0.79
  -3  -1  12    5.92    0.73
   3  -1 -12    6.91    0.78
   3   1  12    9.46    0.67
   3   1  12    8.77    0.88
   3  -1 -12    8.31    0.72
  -3   1 -12    8.98    0.84
  -4   1  12   21.14    1.31
   4   1 -12   20.71    1.28
   4  -1  12   21.45    1.17
   4   1 -12   25.16    1.23
   4  -1 -12   22.27    1.08
  -4  -1  12   22.96    1.24
  -4   1 -12   22.57    1.25
   4  -1 -12   20.97    1.28
   4   1  12   24.17    1.38
  -5   1  12    3.70    0.87
   5  -1  12    2.95    0.82
   5  -1  12    2.24    0.75
   5  -1  12    3.66    0.71
   5   1 -12    3.24    0.76
   5   1 -12    2.37    0.82
   5   1  12    3.74    0.86
  -5  -1  12    2.65    0.80
   5  -1 -12    3.03    0.83
   6  -1  12    7.33    0.88
   6   1 -12    9.99    0.97
   6  -1  12    8.18    1.01
   6  -1  12    9.88    1.09
   6  -1  12    7.76    3.89
   6   1 -12    8.06    1.04
   6  -1 -12    6.79    1.06
  -6  -1  12    9.56    1.10
   6   1  12   10.21    1.11
   7  -1  12   11.03    1.22
   7  -1  12   12.04    1.28
   7   1 -12   12.28    1.32
   7  -1  12   11.20    4.78
   7   1  12   10.14    1.20
   7  -1 -12   11.95    1.35
   0  -2 -12   18.47    1.00
   0  -2 -12   20.52    1.00
   0  -2  12   19.28    0.87
   0  -2  12   18.45    1.10
   0   2  12   17.73    0.89
   0   2 -12   19.82    1.12
   0   2  12   17.92    1.06
   0  -2  12   18.71    0.87
   1   2 -12    1.90    0.59
   1  -2  12    2.35    0.64
  -1   2  12    3.40    0.58
  -1  -2 -12    2.59    0.52
  -1  -2 -12    1.72    0.58
  -1   2  12    2.75    0.61
   1   2 -12    2.63    0.42
   1  -2 -12    3.30    0.64
   1  -2 -12    3.56    0.59
  -1  -2  12    2.85    0.41
  -1   2 -12    2.20    0.61
  -1  -2  12    2.66    0.67
   1   2  12    2.79    0.49
   1   2  12    1.67    0.58
  -2   2  12   14.26    0.99
   2   2 -12   15.10    1.00
   2   2 -12   13.71    0.85
  -2  -2 -12   13.53    0.81
  -2   2  12   17.03    1.08
   2  -2  12   14.52    1.08
   2  -2 -12   14.91    1.11
   2   2  12   14.87    1.12
  -2   2 -12   12.84    0.92
  -2  -2  12   12.73    0.94
   2  -2 -12   12.97    0.88
  -3   2  12   10.63    0.77
   3   2 -12   10.15    0.81
  -3   2  12   11.26    0.92
   3   2 -12    9.61    0.92
   3  -2  12    8.68    0.82
  -3   2 -12   10.23    0.87
   3  -2 -12    9.17    0.89
   3  -2 -12   11.30    0.82
   3   2  12   11.80    1.01
  -3  -2  12    9.82    0.92
   4   2 -12    4.69    0.82
  -4   2  12    6.54    0.86
   4  -2  12    4.73    0.81
   4   2 -12    4.08    0.75
  -4  -2  12    4.63    0.75
  -4   2 -12    5.40    0.77
   4   2  12    6.09    0.90
   4  -2 -12    4.13    0.81
   5  -2  12    4.56    0.83
   5   2 -12    2.44    0.83
   5   2 -12    5.63    0.90
   5  -2 -12    2.98    0.82
  -5  -2  12    2.59    0.84
   5   2  12    2.24    0.84
   6   2 -12    8.34    1.04
   6   2 -12    9.64    1.11
   6  -2  12   10.41    1.04
   6  -2 -12   12.41    1.33
  -6  -2  12    8.59    1.10
   6   2  12    8.44    1.13
   7  -2  12   -0.36    0.80
   7   2 -12    1.15    0.90
  -7  -2  12    1.68    0.93
   7   2  12    1.62    0.98
   7  -2 -12    1.16    0.97
   0  -3 -12   19.98    1.19
   0   3  12   21.58    1.26
   0   3  12   22.82    0.91
   0  -3  12   20.73    1.13
   0   3 -12   21.89    1.20
   1  -3  12   21.14    1.23
  -1  -3 -12   19.65    1.09
  -1   3  12   19.97    1.26
  -1   3  12   22.38    1.01
   1   3 -12   20.54    1.21
   1  -3 -12   20.01    1.19
   1  -3 -12   18.66    0.96
  -1  -3  12   19.83    1.23
  -1   3 -12   18.67    1.16
   1   3  12   17.71    1.22
  -2   3  12    0.62    0.66
   2  -3  12    1.85    0.73
  -2   3  12    1.30    0.58
  -2  -3 -12    1.50    0.54
   2   3 -12    1.27    0.69
   2  -3 -12    0.59    0.72
  -2  -3  12    0.25    0.63
  -2   3 -12    0.81    0.60
   2   3  12    1.29    0.73
   2  -3 -12    1.72    0.50
  -3  -3 -12   10.14    0.77
  -3   3  12   11.79    3.92
   3   3 -12   10.26    0.97
  -3   3  12   10.66    0.89
   3  -3  12    9.25    0.97
  -3  -3  12    9.46    0.92
   3  -3 -12    9.60    1.01
  -3   3 -12   10.44    0.89
   3   3  12    9.86    1.02
   4  -3  12    3.69    0.79
   4   3 -12    3.81    0.88
   4   3  12    3.91    0.87
  -4   3 -12    4.18    0.74
   4  -3 -12    3.50    0.85
  -4  -3  12    4.84    0.82
   5   3 -12    4.07    0.92
   5  -3  12    6.28    0.91
  -5   3 -12    5.16    0.78
   5   3  12    5.10    0.98
  -5  -3  12    3.09    0.84
   5  -3 -12    4.46    1.02
   6   3 -12    5.29    0.91
   6  -3  12    4.15    0.95
   6   3 -12    3.31    0.95
   6   3  12    4.08    1.03
  -6  -3  12    4.72    0.97
   6  -3 -12    2.74    1.03
   7   3 -12    2.83    1.04
   7   3 -12    1.57    1.05
   7  -3  12    5.10    1.03
  -7  -3  12    4.27    0.98
   7   3  12    4.39    1.14
   0  -4 -12   44.19    1.65
   0   4 -12   46.78    1.65
   0  -4  12   47.82    1.70
   0   4  12   47.76    1.76
  -1  -4 -12   21.37    1.20
   1   4 -12   19.17    1.28
   1  -4  12   19.14    1.32
  -1   4  12   18.58    1.35
   1  -4 -12   20.53    1.32
  -1   4 -12   18.92    1.18
  -1  -4  12   18.52    1.26
   1   4  12   19.31    1.34
   2   4 -12    5.35    0.87
  -2  -4 -12    5.07    0.74
  -2   4  12    5.10    0.91
   2  -4  12    5.86    0.87
   2  -4 -12    5.32    0.93
  -2   4 -12    6.14    0.76
   2   4  12    4.32    0.90
  -2  -4  12    4.25    0.79
  -3   4  12   13.20    1.05
   3  -4  12   11.37    1.04
   3   4 -12   11.13    1.07
  -3  -4 -12   14.96    1.13
  -3  -4  12   12.29    1.10
   3   4  12   11.40    1.14
   3  -4 -12   11.48    1.09
  -3   4 -12   11.87    0.93
   4   4 -12    0.47    0.80
   4  -4  12   -0.77    0.78
  -4   4  12    2.77    3.48
  -4   4  12    0.58    0.71
  -4   4 -12    0.56    0.64
  -4  -4  12    0.37    0.73
   4  -4 -12   -1.61    0.84
   4   4  12   -0.90    0.78
   5   4 -12    3.59    0.96
   5  -4  12    2.29    0.87
   5  -4 -12    2.55    1.06
  -5  -4  12    3.08    0.85
   5   4  12    2.13    0.95
   6  -4  12   -0.32    0.87
   6   4 -12    1.94    1.01
   6  -4 -12    2.50    1.12
   6   4  12    1.41    1.02
  -6  -4  12    1.33    0.86
   0   5 -12    0.30    0.67
   0  -5  12    1.13    0.76
   0  -5 -12    0.86    0.78
   0   5  12    0.44    0.86
  -1   5  12    2.98    0.94
   1   5 -12    1.95    0.80
   1  -5  12    1.81    0.79
  -1  -5 -12    2.00    0.73
   1   5  12    0.34    0.87
  -1   5 -12    1.81    0.70
  -1  -5  12    2.13    0.78
   1  -5 -12    1.96    0.87
   2  -5  12    1.86    0.81
  -2  -5 -12    2.82    0.78
  -2   5  12    3.48    0.93
   2   5 -12    3.15    0.88
   2  -5 -12    3.29    0.92
  -2   5 -12    4.69    0.77
   2   5  12    3.23    0.92
  -2  -5  12    3.73    0.82
   3  -5  12    1.32    0.85
   3   5 -12    0.06    0.86
  -3  -5 -12    0.58    0.74
  -3   5  12    1.95    0.87
   3  -5 -12    0.02    0.92
  -3  -5  12    1.37    0.77
   3   5  12    1.27    0.92
  -3   5 -12   -0.04    0.66
   4   5 -12    1.65    0.93
  -4  -5 -12    2.10    0.77
  -4   5  12    2.58    0.87
   4  -5  12    0.83    0.90
   4  -5 -12    1.86    0.96
   4   5  12    0.46    0.90
  -4  -5  12    2.01    0.83
   5   5 -12   -1.11    0.92
   5  -5  12    1.17    0.94
   5  -5 -12   -0.52    0.91
   5   5  12    0.35    0.97
  -5  -5  12   -0.64    0.78
  -6  -5  12    6.74    1.09
   6   5  12    4.91    1.31
   0   6 -12    0.57    0.74
   0  -6 -12    0.27    0.86
   0  -6  12    0.50    0.78
   0   6  12   -1.01    0.95
   1  -6  12    3.95    0.95
  -1   6  12    4.66    1.10
  -1  -6 -12    5.24    0.99
   1   6 -12    4.12    0.91
  -1  -6  12    4.05    0.91
   1   6  12    4.64    1.12
   1  -6 -12    4.36    1.05
  -1   6 -12    5.28    0.84
   2  -6  12    2.26    0.88
  -2   6  12    7.17    1.17
   2   6 -12    4.83    0.93
  -2  -6 -12    4.54    0.94
  -2   6 -12    3.58    0.80
   2   6  12    4.16    1.02
   2  -6 -12    4.03    1.09
  -2  -6  12    3.42    0.90
   3   6 -12    2.20    0.97
  -3  -6 -12    2.94    0.89
   3  -6  12    2.30    0.96
  -3   6  12    1.53    0.97
   3  -6 -12    0.60    1.03
  -3  -6  12    1.09    0.81
   3   6  12    0.99    0.94
   4   6 -12    0.08    0.92
  -4  -6 -12    0.86    0.85
   4  -6  12    1.94    0.99
  -4   6  12    1.93    0.96
   4  -6 -12    0.05    1.04
  -4  -6  12    1.57    0.84
   4   6  12    0.73    1.05
  -5   6  12    2.83    0.98
  -5  -6  12    3.02    1.02
   0   7  12    1.75    1.12
   0  -7  12    1.55    0.89
   0  -7 -12    2.90    1.04
   0   7 -12   -0.38    0.78
   1   7 -12   -0.81    0.80
  -1   7  12    0.89    1.08
   1  -7  12    0.57    0.90
  -1  -7 -12    0.74    0.90
   1  -7 -12    3.09    1.07
   1   7  12   -1.54    1.08
  -1   7 -12    1.06    0.79
  -1  -7  12   -0.52    0.82
  -2  -7 -12    1.94    0.97
   2  -7  12    3.19    1.00
   2   7 -12    1.18    0.88
  -2   7  12    1.67    1.07
   2  -7 -12    1.33    1.10
  -2  -7  12    0.59    0.83
   2   7  12    0.49    1.15
  -3   7  12    3.37    1.10
   3  -7  12    3.09    1.28
  -3  -7 -12    4.99    1.05
   3   7 -12    2.48    1.11
  -3  -7  12    2.58    0.89
   3   7  12    2.53    1.31
   0  -8  12    5.55    1.21
   0   8 -12    4.96    1.04
   0   0  13    0.98    0.50
   0   0 -13    0.10    0.42
   0   0  13   -0.28    0.50
   0   0 -13   -0.49    0.53
   1   0 -13   14.21    1.02
   1   0  13   14.76    0.94
  -1   0  13   13.97    0.82
   1   0 -13   13.95    0.82
   1   0  13   13.71    0.94
  -1   0  13   13.35    1.00
  -1   0 -13   14.28    1.05
   2   0  13    4.62    0.64
  -2   0 -13    4.04    0.73
   2   0  13    3.66    0.70
   2   0 -13    3.94    0.61
  -2   0  13    4.11    0.76
   2   0 -13    4.04    0.67
   3   0 -13    1.03    0.61
   3   0  13    1.91    0.69
  -3   0 -13    2.03    0.69
   3   0  13    1.42    0.58
  -3   0  13    0.98    0.68
   3   0  13    0.53    0.59
   3   0 -13    1.61    0.61
   4   0  13    0.34    0.71
   4   0  13    1.47    3.06
   4   0 -13   -0.02    0.61
   4   0  13    0.37    0.55
   4   0 -13   -0.09    0.66
   4   0  13   -0.29    0.66
  -4   0  13    0.38    0.64
   5   0 -13   15.76    1.20
   5   0 -13   15.87    1.17
  -5   0  13   14.22    1.18
   5   0  13   17.11    1.25
   5   0  13   15.71    4.51
   5   0  13   13.07    1.10
   6   0  13    2.45    3.49
  -6   0  13   -0.70    0.78
   6   0  13   -0.36    0.78
   6   0  13    1.29    0.87
   6   0 -13    0.39    0.87
   7   0  13   -0.71    0.87
   7   0  13    0.55    0.93
   7   0 -13   -0.64    0.98
   0   1 -13   30.59    1.29
   0   1  13   28.52    1.17
   0  -1 -13   30.90    1.06
   0  -1  13   28.71    1.27
   0  -1  13   29.94    1.07
   0   1  13   31.09    1.14
   0  -1 -13   27.62    1.20
  -1  -1 -13   33.93    1.34
   1  -1  13   32.76    1.19
  -1   1  13   34.47    1.24
   1   1 -13   35.18    1.06
   1   1 -13   32.14    1.34
   1  -1  13   35.14    1.24
   1  -1  13   34.12    1.32
  -1   1  13   35.76    1.30
   1  -1 -13   35.26    1.22
  -1   1 -13   34.23    1.36
   1  -1 -13   33.53    1.32
  -1  -1  13   35.57    1.07
   1   1  13   32.00    1.31
  -1  -1  13   34.26    1.34
   1   1  13   35.40    1.20
  -2   1  13   45.72    1.52
   2  -1  13   51.60    5.46
   2   1 -13   44.16    1.52
  -2   1  13   43.74    1.31
   2  -1  13   45.82    1.52
   2  -1  13   42.54    1.44
   2  -1  13   45.01    1.49
  -2  -1 -13   43.19    1.53
   2   1 -13   43.20    1.33
   2   1  13   45.92    1.58
   2   1  13   43.98    1.32
   2  -1 -13   45.11    1.44
  -2  -1  13   44.84    1.50
   2  -1 -13   43.50    1.42
  -2   1 -13   44.09    1.54
   3   1 -13   36.73    1.42
   3  -1  13   33.27    1.44
   3  -1  13   36.76    1.45
   3  -1  13   44.86    5.87
   3   1 -13   33.65    1.35
   3  -1  13   35.64    1.42
  -3   1  13   36.40    1.49
  -3  -1 -13   33.01    1.45
  -3   1 -13   34.81    1.44
   3   1  13   33.93    1.25
   3   1  13   36.25    1.50
   3  -1 -13   37.15    1.31
  -3  -1  13   34.07    1.48
   3  -1 -13   35.42    1.42
   4   1 -13    4.52    0.79
   4  -1  13    4.78    0.83
   4  -1  13    4.42    0.84
   4   1 -13    4.79    0.80
   4  -1  13    6.44    3.50
  -4   1  13    4.67    0.82
   4  -1  13    5.24    0.75
   4  -1 -13    6.27    0.73
  -4   1 -13    4.28    0.77
  -4  -1  13    4.57    0.85
   4  -1 -13    5.31    0.86
   4   1  13    4.83    0.87
   5  -1  13   -1.68    0.70
   5  -1  13    1.08    0.67
   5   1 -13    0.75    0.72
   5   1 -13   -1.01    0.70
   5  -1  13   -0.37    0.74
  -5   1  13   -0.52    0.71
   5  -1  13   -2.16    2.76
   5  -1 -13   -0.76    0.75
  -5  -1  13   -0.20    0.75
   5   1  13    1.48    0.79
   6  -1  13    2.55    0.89
   6  -1  13    2.78    0.94
   6   1 -13    2.83    0.93
   6  -1  13    4.87    3.86
   6   1  13    2.90    0.93
  -6  -1  13    1.89    0.92
   6  -1 -13    2.15    0.99
   7   1 -13    1.30    0.98
   7  -1  13    1.04    3.94
   7  -1  13    0.87    0.94
   7  -1  13    3.54    1.01
   7   1  13    1.79    0.96
   7  -1 -13    2.43    1.08
   0   2  13    5.82    0.76
   0  -2  13    1.16    2.29
   0  -2  13    5.79    0.58
   0  -2 -13    5.61    0.66
   0  -2  13    6.32    0.81
   0  -2 -13    5.64    0.68
   0   2  13    5.94    0.63
   0  -2  13    5.86    0.60
   0   2 -13    5.30    0.74
  -1  -2 -13   10.26    0.86
   1  -2  13    9.35    3.32
   1  -2  13    8.59    0.73
  -1   2  13    9.01    0.79
  -1  -2 -13    9.31    0.70
   1  -2  13    8.23    0.84
   1   2 -13    7.79    0.85
  -1   2  13    8.37    0.75
   1  -2  13    8.65    0.72
  -1  -2  13    8.10    0.86
   1  -2 -13    7.41    0.78
   1   2  13    9.25    0.87
   1   2  13    8.07    0.63
  -1   2 -13    8.42    0.82
   1  -2 -13    8.61    0.75
   2  -2  13   29.35    1.34
   2   2 -13   27.25    1.25
  -2   2  13   19.06    4.00
   2   2 -13   26.86    1.05
  -2   2  13   25.50    1.21
  -2   2  13   25.80    1.18
   2   2  13   26.21    1.36
   2  -2 -13   26.52    1.28
   2  -2 -13   26.65    1.12
  -2   2 -13   25.22    1.28
  -2  -2  13   22.47    1.30
   3   2 -13    5.54    0.70
  -3   2  13    3.88    0.72
  -3   2  13    3.04    0.70
   3  -2  13    3.76    0.76
   3   2 -13    5.23    0.85
   3  -2 -13    4.63    0.82
  -3   2 -13    1.95    0.68
   3   2  13    3.32    0.78
   3  -2 -13    3.74    0.63
  -3  -2  13    2.91    0.71
  -4   2  13    0.39    0.70
   4   2 -13    1.69    0.68
   4   2 -13    0.41    0.73
   4  -2  13    0.99    0.70
   4  -2 -13    0.77    0.79
  -4   2 -13    0.35    0.63
   4   2  13    0.46    0.73
  -4  -2  13    1.45    0.73
   5  -2  13   11.98    1.07
   5   2 -13   13.00    1.09
   5   2 -13   14.55    1.16
  -5   2 -13   12.98    1.05
  -5  -2  13   11.89    1.10
   5   2  13   13.02    1.23
   5  -2 -13   13.28    1.23
   6   2 -13    1.31    0.85
   6  -2  13    0.67    0.80
   6   2 -13   -0.28    0.83
   6  -2 -13   -0.43    0.98
   6   2  13    0.42    0.88
  -6  -2  13    0.83    0.89
   7  -2  13    1.58    1.43
   7   2 -13    2.07    1.01
   7   2  13    2.65    1.17
  -7  -2  13    3.81    1.25
   0  -3  13    0.95    0.69
   0  -3 -13    1.44    0.60
   0  -3 -13    0.80    0.63
   0   3  13    0.47    0.72
   0   3 -13    1.59    0.72
  -1   3  13   12.72    0.92
  -1   3  13   12.43    0.96
   1   3 -13   13.28    1.03
   1  -3  13   10.61    0.94
  -1  -3 -13   12.49    0.86
   1  -3 -13   13.64    1.00
   1  -3 -13   13.00    0.95
  -1  -3  13   14.37    1.07
  -1   3 -13   12.47    0.98
   1   3  13   11.73    1.01
  -2   3  13   44.36    1.60
  -2   3  13   50.76    1.58
   2   3 -13   48.37    1.74
  -2  -3 -13   48.62    1.45
   2  -3  13   47.65    1.73
   2  -3 -13   48.29    1.73
  -2   3 -13   45.55    1.62
   2   3  13   47.15    1.77
   2  -3 -13   49.72    1.57
  -2  -3  13   47.59    1.70
   3   3 -13    2.08    0.59
   3   3 -13    0.58    0.76
   3  -3  13    1.34    0.73
  -3   3  13    0.04    2.73
  -3   3  13    1.18    0.66
  -3  -3  13    1.12    0.72
   3   3  13    1.92    0.74
   3  -3 -13    1.85    0.82
  -3   3 -13    0.53    0.63
   4   3 -13    3.35    0.88
   4  -3  13    3.72    0.87
   4   3 -13    4.45    0.75
   4   3  13    4.32    0.96
   4  -3 -13    3.37    0.89
  -4   3 -13    2.94    0.73
  -4  -3  13    2.76    0.80
   5   3 -13    3.24    0.94
   5   3 -13    2.77    0.83
   5  -3  13    2.35    0.86
   5   3  13    3.54    0.97
   5  -3 -13    4.40    1.02
  -5   3 -13    2.93    0.76
  -5  -3  13    2.34    0.87
   6  -3  13    2.15    0.92
   6   3 -13    4.13    0.94
   6   3 -13    2.27    1.02
   6   3  13    3.07    1.03
  -6  -3  13    2.34    0.95
   6  -3 -13    0.44    1.00
   0  -4  13    0.30    0.75
   0   4 -13   -0.85    0.65
   0  -4 -13    0.44    0.69
   0   4  13   -0.46    0.72
  -1  -4 -13    5.67    0.82
  -1   4  13    9.71    1.05
   1  -4  13    6.63    0.96
   1   4 -13    6.91    0.92
  -1  -4  13    7.66    0.93
   1  -4 -13    6.28    0.95
   1   4  13    6.12    0.90
  -1   4 -13    7.37    0.86
  -2  -4 -13   18.12    1.19
   2  -4  13   15.05    1.13
   2   4 -13   16.60    1.22
  -2   4  13   19.06    1.36
   2  -4 -13   17.29    1.23
   2   4  13   15.69    1.26
  -2  -4  13   17.50    1.32
  -2   4 -13   17.60    1.20
   3   4 -13   -0.34    0.79
   3  -4  13   -0.65    0.75
  -3  -4 -13    0.56    0.60
  -3   4  13    1.00    0.77
  -3  -4  13    0.77    0.74
   3  -4 -13   -0.72    0.79
   3   4  13    0.65    0.81
  -3   4 -13   -0.08    0.64
  -4   4  13    2.35    3.12
  -4   4  13    3.37    1.22
   4   4 -13    1.63    0.92
   4  -4  13    1.90    0.85
  -4   4 -13    2.11    0.72
  -4  -4  13    1.95    0.81
   4   4  13    1.19    0.90
   4  -4 -13    1.74    0.97
   5  -4  13   -0.87    0.85
   5   4 -13    0.62    0.93
  -5  -4  13    1.00    0.85
   5  -4 -13    1.62    1.01
   5   4  13    0.54    0.91
   6  -4  13    9.99    1.22
   6   4 -13    6.25    1.20
   6   4 -13    8.57    1.10
  -6  -4  13    9.36    1.15
   6   4  13    7.47    1.26
   6  -4 -13    9.98    2.16
   0   5 -13    2.16    0.78
   0  -5  13    3.96    0.88
   0  -5 -13    3.63    0.90
   0   5  13    4.29    1.03
   1   5 -13    0.37    0.78
   1  -5  13    0.37    0.76
  -1  -5 -13    0.37    0.75
  -1   5  13    0.88    0.90
   1   5  13    0.54    0.90
   1  -5 -13    2.12    0.90
  -1   5 -13    1.20    0.71
  -1  -5  13    0.85    0.75
   2   5 -13    2.27    0.88
   2  -5  13    2.31    0.84
  -2  -5 -13    0.64    0.74
  -2   5  13   -0.35    0.89
   2  -5 -13   -0.05    0.90
   2   5  13   -0.99    0.83
  -2  -5  13    1.14    0.84
  -2   5 -13    0.51    0.68
   3   5 -13    4.99    1.00
  -3   5  13    7.49    1.08
   3  -5  13    3.51    0.97
  -3  -5 -13    4.38    0.85
  -3  -5  13    5.66    0.95
  -3   5 -13    5.02    0.85
   3  -5 -13    3.99    1.01
   3   5  13    3.83    1.03
   4  -5  13    2.63    0.97
  -4   5  13    0.31    2.87
  -4   5  13    3.17    0.92
   4   5 -13    1.97    0.92
  -4  -5  13    1.65    0.86
   4   5  13    0.56    0.98
   4  -5 -13   -0.42    1.00
   5   5 -13   -0.40    0.93
   5  -5  13    0.24    0.96
   5   5  13    0.08    1.03
   5  -5 -13    1.51    1.13
  -5  -5  13    1.24    0.87
   0   6 -13    1.36    0.82
   0   6  13    0.65    1.07
   0  -6 -13   -0.21    0.84
   0  -6  13   -0.06    0.83
  -1   6  13    2.73    1.07
  -1  -6 -13    4.42    0.96
   1   6 -13    2.05    0.84
   1  -6  13    2.61    0.89
  -1   6 -13    2.84    0.83
  -1  -6  13    2.39    0.89
   1   6  13    0.67    1.04
   1  -6 -13    2.67    1.02
  -2  -6 -13    1.92    0.89
  -2   6  13    1.84    1.01
   2  -6  13    1.48    0.88
   2   6 -13    0.72    0.87
  -2   6 -13    1.36    0.76
  -2  -6  13    0.13    0.80
   2  -6 -13    1.42    1.03
   2   6  13   -0.99    1.00
   3   6 -13    3.01    1.04
  -3  -6 -13    2.45    0.90
   3  -6  13    2.20    1.00
  -3   6  13    2.36    0.96
   3   6  13    0.95    1.07
  -3  -6  13    2.01    0.90
   3  -6 -13   -1.98    0.94
  -4   6  13    3.61    0.95
   4  -6  13    1.06    1.16
  -4  -6 -13    1.74    0.92
   4   6 -13    0.76    1.09
  -4  -6  13    1.22    0.91
   4   6  13    0.84    1.12
   4  -6 -13   -0.11    1.21
   0   7  13    1.51    1.15
   0   7 -13    0.23    0.83
   0  -7 -13    1.64    0.96
   0  -7  13    0.71    0.91
   1  -7  13    0.19    0.92
  -1   7  13    0.89    1.04
   1   7 -13    0.23    0.89
  -1  -7 -13    0.14    0.93
   1  -7 -13    1.36    0.98
  -1   7 -13   -0.21    0.79
  -1  -7  13   -1.61    0.83
   1   7  13   -1.06    1.12
  -2   7  13    0.66    1.07
   2  -7  13    0.11    0.98
  -2  -7 -13    1.31    0.95
   2   7 -13    0.65    0.92
  -2  -7  13   -0.09    0.87
   2  -7 -13    0.25    1.25
  -3  -7 -13    1.56    0.94
  -3  -7  13   -1.18    0.86
   0   0 -14   77.71    2.05
   0   0  14   82.14    1.95
   0   0  14   80.06    2.02
   1   0 -14   55.05    1.66
  -1   0  14   54.21    1.47
  -1   0  14   53.73    1.71
   1   0  14   54.22    1.63
   1   0  14   53.93    1.62
   1   0 -14   53.72    1.45
  -1   0 -14   54.81    1.72
   2   0 -14    4.99    0.67
  -2   0  14    5.83    0.81
   2   0 -14    3.45    0.71
   2   0  14    5.18    0.76
   2   0  14    4.65    0.67
  -2   0 -14    4.44    0.80
  -3   0  14    0.50    0.68
   3   0 -14    0.35    0.62
   3   0 -14   -0.36    0.61
   3   0  14    0.07    0.58
   3   0  14    1.21    0.70
  -3   0 -14    0.11    0.66
   4   0 -14    0.42    0.66
   4   0  14   -0.44    0.73
   4   0  14   -0.51    0.69
   4   0  14    1.30    0.63
   4   0 -14   -0.21    0.65
  -4   0  14   -1.00    0.72
  -5   0  14    1.64    0.85
   5   0  14    0.77    0.82
   5   0  14    0.04    0.80
   5   0 -14   -0.89    0.78
   6   0  14    2.79    0.98
  -6   0  14    2.90    0.96
   6   0 -14    1.66    0.90
   6   0  14    2.31    0.91
   0  -1 -14    0.88    0.63
   0   1  14    1.18    0.57
   0  -1 -14    2.15    0.52
   0   1  14    0.05    1.85
   0  -1  14    1.71    0.67
   0  -1  14    1.33    0.51
   0   1 -14    1.88    0.64
   0   1  14    1.25    0.59
   1   1 -14   53.79    1.72
  -1  -1 -14   56.31    1.73
  -1   1  14   56.32    1.62
   1  -1  14   54.12    1.60
   1  -1  14   55.26    1.63
  -1   1  14   58.56    1.68
   1  -1  14   57.64    1.71
   1  -1 -14   56.47    1.56
  -1  -1  14   54.29    1.73
   1   1  14   52.17    1.68
   1  -1 -14   56.78    1.65
   1   1  14   55.87    1.55
  -1   1 -14   55.78    1.69
   2  -1  14    7.59    3.28
  -2  -1 -14    6.29    0.81
   2  -1  14    7.06    0.80
  -2   1  14    6.80    0.81
   2   1 -14    8.61    0.71
   2  -1  14    8.15    0.81
   2   1 -14    6.63    0.82
  -2   1  14    6.91    0.67
   2  -1  14    7.40    0.81
  -2  -1  14    9.08    0.94
   2  -1 -14    7.14    0.76
   2  -1 -14    7.51    0.79
   2   1  14    7.44    0.70
  -2   1 -14    7.66    0.87
   2   1  14    6.36    0.83
   3  -1  14    9.16    0.92
   3   1 -14   10.12    0.95
   3  -1  14    8.27    0.84
   3  -1  14   11.05    3.74
  -3   1  14    7.38    0.87
   3   1 -14    9.51    0.85
   3  -1  14    8.89    0.92
  -3  -1 -14    9.27    0.96
   3  -1 -14    9.74    0.83
  -3   1 -14   10.55    0.97
   3  -1 -14    9.05    0.87
   3   1  14    7.46    0.89
  -3  -1  14    7.49    0.90
  -4   1  14    2.34    0.81
   4  -1  14    4.15    0.86
   4  -1  14    0.38    2.91
   4  -1  14    3.52    0.75
   4   1 -14    3.87    0.80
   4   1 -14    3.26    0.75
   4  -1  14    3.03    0.83
  -4   1 -14    2.04    0.74
  -4  -1  14    2.63    0.84
   4  -1 -14    2.83    0.82
   4   1  14    2.09    0.80
   5  -1  14    1.61    0.72
   5  -1  14   -0.35    0.78
  -5   1  14   -0.16    0.78
   5   1 -14   -0.19    0.76
   5   1 -14    0.39    0.78
   5  -1  14   -0.29    0.76
   5  -1  14   -2.02    2.61
  -5  -1  14   -0.38    0.77
   5   1  14   -0.11    0.77
   5  -1 -14   -1.38    0.81
   6  -1  14    6.89    1.07
   6  -1  14    3.88    3.56
   6  -1  14    5.71    1.03
   6   1 -14    5.07    1.05
   6  -1 -14    5.62    1.14
   6   1  14    6.28    1.08
  -6  -1  14    3.73    1.02
   0   2 -14   -0.02    0.67
   0  -2  14    0.18    0.68
   0   2  14   -0.26    0.50
   0  -2  14    0.14    0.45
   0  -2 -14    0.07    0.59
   0   2  14   -0.57    0.62
   0  -2 -14   -0.63    0.52
   0  -2  14    0.19    0.44
  -1  -2 -14   23.94    1.24
   1   2 -14   21.79    1.31
   1  -2  14   23.50    1.32
   1  -2  14   22.40    1.10
   1  -2  14   24.92    1.17
  -1   2  14   24.27    1.19
  -1   2  14   20.73    1.23
   1  -2  14   14.33    3.65
   1  -2 -14   21.49    1.16
   1  -2 -14   24.06    1.17
   1   2  14   22.61    1.29
  -1  -2  14   19.95    1.29
  -1   2 -14   23.79    1.30
   1   2  14   23.26    1.05
   2  -2  14   46.13    5.69
   2  -2  14   51.38    1.71
   2   2 -14   50.33    1.69
  -2   2  14   53.62    1.66
  -2   2  14   48.96    5.30
  -2   2  14   51.77    1.61
   2  -2  14   49.07    1.59
   2  -2  14   55.46    1.77
   2  -2 -14   51.89    1.74
   2   2  14   51.73    1.81
   2  -2 -14   51.71    1.55
  -2   2 -14   53.79    1.75
  -2  -2  14   53.35    1.81
   3   2 -14    3.72    0.66
   3  -2  14    3.60    0.78
  -3   2  14    3.13    0.77
   3   2 -14    2.91    0.80
   3   2  14    2.88    0.86
   3  -2 -14    3.53    0.77
  -3   2 -14    3.18    0.78
  -3  -2  14    3.62    0.76
   4  -2  14    0.00    0.71
   4   2 -14    0.51    0.77
   4   2 -14    0.47    0.67
  -4   2  14    0.52    0.77
   4   2  14    0.90    0.81
  -4  -2  14    0.41    0.74
  -4   2 -14   -0.36    0.66
   4  -2 -14    0.30    0.78
   5   2 -14   -0.09    0.76
   5   2 -14   -0.03    0.79
   5  -2  14    0.80    0.78
  -5  -2  14    0.49    0.85
   5  -2 -14    1.15    0.88
   5   2  14    0.35    0.83
  -5   2 -14    0.87    0.73
   6  -2  14    0.33    0.83
   6  -2  14    0.51    0.86
   6   2 -14    0.51    0.86
   6   2 -14   -0.03    0.85
   6  -2 -14   -1.30    0.95
  -6  -2  14    1.52    0.94
   6   2  14   -2.09    0.86
   0   3  14    0.96    0.69
   0   3 -14   -0.77    0.68
   0  -3 -14    0.36    0.57
   0  -3 -14   -0.67    0.62
   0  -3  14   -0.10    0.72
   1   3 -14    0.84    0.72
   1  -3  14    0.02    0.70
  -1   3  14    1.73    0.59
  -1  -3 -14    1.23    0.58
  -1   3  14    0.56    0.74
   1   3  14    0.95    0.72
  -1   3 -14    2.54    0.73
  -1  -3  14    0.55    0.74
   1  -3 -14    1.46    0.59
   1  -3 -14    1.69    0.74
  -2   3  14   53.75    1.70
  -2   3  14   53.62    1.76
   2  -3  14   50.43    1.85
   2   3 -14   52.02    1.87
   2  -3 -14   51.40    1.82
   2   3  14   54.68    1.90
  -2   3 -14   54.94    1.79
  -2  -3  14   50.96    1.84
   3  -3  14   12.82    1.13
  -3   3  14   14.34    1.04
   3   3 -14   13.00    1.16
  -3   3  14    9.90    3.84
  -3  -3  14   13.71    1.11
   3   3  14   14.60    1.23
   3  -3 -14   14.70    1.17
  -3   3 -14   15.63    1.10
   4  -3  14    3.31    0.89
   4   3 -14    3.13    0.76
   4   3 -14    1.89    0.87
   4  -3 -14    1.95    0.89
  -4  -3  14    1.29    0.85
   4   3  14    1.37    0.88
  -4   3 -14    1.87    0.73
   5   3 -14    3.39    0.86
   5   3 -14    3.18    0.99
   5  -3  14    2.32    0.89
   5  -3 -14    0.87    0.92
  -5   3 -14    1.76    0.77
   5   3  14    1.22    0.91
  -5  -3  14    2.21    0.93
   6   3 -14    0.25    0.86
   6  -3  14   -0.14    0.88
   6   3 -14    0.21    0.97
  -6  -3  14    2.25    0.93
   6   3  14   -0.32    0.97
   6  -3 -14    0.55    1.07
   0   4 -14    0.22    0.73
   0   4  14    0.42    0.74
   0  -4 -14    0.75    0.73
   0  -4  14    0.53    0.74
  -1   4  14    1.04    0.78
   1  -4  14    2.33    0.84
  -1  -4 -14    2.94    0.74
   1   4 -14    3.47    0.85
  -1   4 -14    1.98    0.77
  -1  -4  14    2.27    0.85
   1   4  14    0.99    0.80
   1  -4 -14    0.98    0.79
  -2   4  14    3.75    0.87
   2   4 -14    3.11    0.80
  -2  -4 -14    2.74    0.70
   2  -4  14    4.03    0.91
  -2  -4  14    3.44    0.89
  -2   4 -14    4.22    0.81
   2  -4 -14    3.90    0.94
   2   4  14    3.24    0.97
  -3   4  14    1.15    0.77
   3  -4  14    2.70    0.89
   3   4 -14    0.35    0.80
  -3   4 -14    1.71    0.74
   3   4  14    1.78    0.87
  -3  -4  14    1.28    0.82
   3  -4 -14    2.58    0.94
   4   4 -14   -0.08    0.85
   4  -4  14    1.05    0.83
   4  -4 -14    0.34    0.90
  -4  -4  14    1.62    0.86
  -4   4 -14    1.05    0.68
   4   4  14    1.28    0.97
   5   4 -14    0.17    0.93
   5  -4  14    2.66    0.98
   5   4 -14    2.78    0.83
   5  -4 -14   -0.13    0.96
   5   4  14    1.21    1.00
  -5  -4  14    1.33    0.90
   6   4 -14    2.18    0.93
   0  -5  14    0.07    0.82
   0   5  14   -0.16    0.85
   0   5 -14   -0.83    0.71
   0  -5 -14    0.52    0.81
  -1  -5 -14   -1.14    0.68
   1   5 -14    0.27    0.79
   1  -5  14   -1.07    0.79
  -1   5  14    0.24    0.94
  -1   5 -14   -0.24    0.70
  -1  -5  14    0.68    0.82
   1  -5 -14   -0.18    0.86
   1   5  14   -0.16    0.86
   2  -5  14   -0.58    0.80
  -2   5  14    0.17    0.93
   2   5 -14   -0.42    0.83
  -2  -5 -14    0.54    0.73
  -2   5 -14    0.97    0.75
  -2  -5  14   -0.52    0.79
   2   5  14   -0.94    0.88
   2  -5 -14   -0.91    0.85
  -3   5  14    5.68    1.06
   3   5 -14    6.82    1.11
   3  -5  14    7.78    1.12
   3   5  14    6.36    1.13
  -3   5 -14    6.72    0.92
  -3  -5  14    6.43    1.05
   3  -5 -14    6.36    1.17
   4  -5  14    2.20    0.99
   4   5 -14    2.26    0.99
  -4   5  14    1.42    3.26
   4  -5 -14    3.29    1.16
  -4  -5  14    3.24    0.92
   4   5  14    3.51    1.16
  -5  -5  14    1.03    0.92
   0  -6 -14    2.19    0.94
   0  -6  14    1.94    0.94
   0   6 -14    1.45    0.85
   0   6  14    1.85    1.08
  -1  -6 -14    2.77    0.94
   1   6 -14    5.56    1.03
  -1   6  14    4.33    1.15
   1  -6  14    5.96    1.07
   1   6  14    2.48    1.15
  -1  -6  14    4.00    0.98
   1  -6 -14    5.03    1.11
  -1   6 -14    2.33    0.87
   2   6 -14   -0.96    0.89
   2  -6  14   -0.45    0.89
  -2   6  14    1.10    0.98
  -2  -6 -14    0.02    0.82
   2   6  14   -0.62    1.02
  -2  -6  14    0.80    0.87
   2  -6 -14   -1.18    0.98
  -2   6 -14    0.76    0.78
  -3   6  14    1.82    1.03
   3  -6  14    1.36    0.98
   3   6 -14    0.73    0.96
  -3  -6 -14    2.15    0.86
   3  -6 -14    2.09    1.16
   3   6  14    1.22    1.13
  -3  -6  14    0.70    0.91
  -4   6  14    5.84    1.13
  -4  -6  14    4.45    1.04
   0  -7  14    0.89    0.95
   0   7 -14    1.43    0.90
   0  -7 -14    0.94    1.03
   1   7 -14    5.29    1.07
  -1  -7 -14    2.51    1.01
  -1   7 -14    3.35    0.94
  -1  -7  14    4.61    1.06
   1  -7 -14    4.81    1.82
  -2  -7 -14    5.61    1.06
  -2  -7  14    4.25    1.16
   0   0  15   -0.73    0.56
   0   0 -15    0.31    0.62
   0   0  15   -0.36    0.50
  -1   0  15    0.95    0.51
  -1   0 -15    0.33    0.67
   1   0  15    0.21    0.59
  -1   0  15    0.52    0.65
   1   0 -15    0.75    0.68
   1   0  15   -0.03    0.58
  -2   0 -15    0.11    0.69
   2   0  15   -0.22    0.63
   2   0 -15   -0.37    0.52
   2   0 -15   -0.09    0.65
  -2   0  15   -0.56    0.67
   2   0  15   -0.28    0.58
  -3   0 -15    7.21    0.89
  -3   0  15    6.28    0.89
   3   0  15    6.14    0.76
   3   0 -15    7.07    0.84
   3   0  15    5.68    0.88
   3   0 -15    7.97    0.88
   4   0  15    4.46    0.91
  -4   0  15    4.47    0.92
   4   0 -15    3.92    0.81
   4   0 -15    3.91    0.85
   5   0  15   -0.60    0.85
   5   0  15   -0.41    0.79
   5   0 -15   -1.10    0.79
  -5   0  15   -0.19    0.80
  -6   0  15    1.59    0.92
   6   0 -15    0.71    0.95
   6   0  15   -0.71    0.89
   6   0  15   -0.94    0.85
   0   1  15   21.91    1.24
   0   1 -15   20.79    1.27
   0   1  15   21.27    1.17
   0  -1  15   21.79    1.06
   0  -1 -15   20.63    1.22
   0  -1  15   21.02    1.26
  -1  -1 -15    2.32    0.73
   1  -1  15    2.93    0.65
   1   1 -15    3.26    0.74
   1  -1  15    4.20    0.77
  -1   1  15    2.42    0.69
  -1   1  15    3.82    0.68
  -1  -1  15    1.69    0.71
   1  -1 -15    2.88    0.70
  -1   1 -15    3.54    0.78
   1   1  15    3.26    0.73
   1  -1 -15    2.71    0.61
   1   1  15    2.49    0.61
   2   1 -15    0.55    0.71
  -2   1  15    0.00    0.63
   2  -1  15   -0.03    0.64
  -2  -1 -15    0.29    0.67
   2  -1  15    0.59    0.64
   2  -1  15    0.16    0.65
  -2  -1  15    0.79    0.71
  -2   1 -15    0.56    0.70
   2  -1 -15    0.23    0.60
   2   1  15    1.03    0.68
   2  -1 -15    0.27    0.61
   2   1  15    0.00    0.54
   3  -1  15    5.45    3.42
  -3   1  15    3.96    0.83
   3   1 -15    3.79    0.72
   3  -1  15    4.30    0.79
   3   1 -15    4.39    0.85
   3  -1  15    4.90    0.85
  -3  -1 -15    5.09    0.86
   3  -1  15    2.95    0.77
   3  -1 -15    5.09    0.76
  -3  -1  15    4.79    0.88
   3   1  15    4.24    0.86
  -3   1 -15    4.32    0.84
   3  -1 -15    3.07    0.78
   4   1 -15    3.65    0.82
   4   1 -15    3.97    0.85
   4  -1  15    4.36    0.80
  -4   1  15    2.28    0.86
   4  -1  15    2.25    0.88
   4  -1  15    2.14    3.06
   4  -1  15    2.32    0.79
  -4   1 -15    2.62    0.79
   4  -1 -15    2.42    0.80
   4   1  15    1.22    0.81
  -4  -1  15    3.51    0.90
   5   1 -15    7.90    1.03
   5   1 -15    9.06    1.02
   5  -1  15   12.22    1.58
   5  -1  15    4.10    3.90
   5  -1  15    6.26    1.03
   5  -1  15    6.95    1.06
  -5   1  15    6.15    0.99
   5  -1 -15    6.59    1.10
   5   1  15    5.78    1.03
  -5  -1  15    5.46    0.96
   6   1 -15    3.17    0.97
   6  -1  15    6.00    1.08
   6  -1  15    3.34    4.32
   6  -1  15    4.97    1.04
   6   1  15    4.93    1.10
   6  -1 -15    2.70    1.07
  -6  -1  15    5.20    1.05
   0  -2 -15  101.32    2.41
   0   2  15  103.76    2.29
   0  -2 -15   99.34    2.37
   0   2 -15   98.98    2.50
   0  -2  15  106.92    2.59
   0  -2  15  106.16    2.37
   0   2  15   99.84    2.46
   1  -2  15   10.14    0.99
   1   2 -15    7.81    0.91
   1  -2  15    9.35    0.81
   1  -2  15    5.48    3.47
  -1   2  15    8.06    0.83
  -1   2  15    8.31    0.84
  -1  -2 -15   10.11    0.94
   1  -2  15    8.58    0.82
  -1  -2  15    8.66    0.96
   1  -2 -15    6.56    0.80
  -1   2 -15    7.57    0.91
   1   2  15    7.84    0.89
   1  -2 -15    8.92    0.84
   2  -2  15   15.18    4.23
   2  -2  15   16.75    1.22
   2   2 -15   17.38    1.19
  -2   2  15   14.43    1.10
  -2   2  15   17.30    1.19
   2  -2  15   15.57    1.17
   2  -2  15   17.75    1.30
  -2   2 -15   13.19    1.04
  -2  -2  15   16.27    1.17
   2   2  15   14.33    1.12
   2  -2 -15   15.50    1.10
   2  -2 -15   16.28    1.12
   3  -2  15    9.56    0.96
   3  -2  15   11.42    1.05
   3   2 -15   10.82    1.04
   3  -2  15    9.71    3.96
  -3   2  15    9.37    0.96
   3  -2  15    9.66    1.01
  -3   2 -15    9.04    0.98
  -3  -2  15    8.94    0.99
   3  -2 -15   10.32    1.02
   3   2  15    9.40    1.03
   4  -2  15   15.58    1.23
   4   2 -15   13.94    1.19
   4  -2  15   17.66    4.75
   4  -2  15   14.99    1.18
   4  -2  15   14.06    1.14
  -4   2  15   15.25    1.23
   4   2 -15   14.16    1.08
   4   2  15    9.43    1.12
   4  -2 -15   12.51    1.18
  -4  -2  15   14.68    1.21
  -4   2 -15   12.47    1.09
   5  -2  15   13.57    1.25
   5   2 -15   13.62    1.20
   5  -2  15   12.17    1.21
   5  -2  15    6.71    4.07
   5  -2  15   13.81    1.17
   5   2 -15   13.12    1.23
  -5  -2  15   12.06    1.26
  -5   2 -15   11.15    1.07
   5   2  15   12.21    1.27
   5  -2 -15   12.66    1.28
   6   2 -15    3.27    1.02
   6  -2  15    3.91    0.96
   6   2 -15    2.75    0.98
   6  -2  15    2.64    1.08
   6  -2  15    2.51    4.67
   6  -2  15    4.05    1.15
   6  -2 -15    4.19    1.17
  -6  -2  15    3.50    0.99
   6   2  15    3.15    1.11
   0   3  15    0.90    0.81
   0  -3 -15    2.46    0.71
   0  -3 -15    2.18    0.69
   0  -3  15    2.71    0.84
   0   3 -15    2.14    0.70
  -1   3  15    5.63    1.06
   1  -3  15    5.83    0.72
   1  -3  15    5.08    0.88
  -1   3  15    4.60    0.90
   1   3 -15    4.71    0.90
   1  -3  15    1.06    2.63
   1  -3  15    5.65    0.69
  -1  -3  15    5.11    0.86
  -1   3 -15    4.50    0.77
   1  -3 -15    6.47    0.88
   1   3  15    5.18    0.90
   1  -3 -15    6.19    0.76
  -2   3  15    9.71    0.92
   2   3 -15   10.62    1.10
  -2   3  15   11.36    1.06
   2  -3  15    7.96    0.96
  -2   3 -15    8.60    0.95
   2  -3 -15    9.96    1.05
   2   3  15   10.78    1.12
  -2  -3  15   10.99    1.06
   3   3 -15    1.19    0.89
   3  -3  15    1.60    0.84
  -3  -3  15    0.61    0.80
   3   3  15    0.29    0.83
   3  -3 -15    0.63    0.84
  -3   3 -15    1.42    0.75
   4  -3  15    2.83    0.90
   4   3 -15    2.97    0.95
   4  -3 -15    2.39    0.95
  -4   3 -15    3.43    0.83
   4   3  15    3.98    0.98
  -4  -3  15    4.45    0.99
   5   3 -15    0.55    0.74
   5   3 -15   -0.67    0.91
   5  -3  15    0.12    0.84
   5   3  15    0.28    0.97
  -5  -3  15    1.38    0.91
   5  -3 -15   -0.63    0.91
  -5   3 -15    0.72    0.74
   6   3 -15    1.43    0.89
   6  -3  15    1.52    0.96
   6   3 -15    0.29    0.99
   0   4 -15    1.41    0.81
   0   4  15   -0.55    0.78
   0  -4  15    0.91    0.78
   0  -4 -15    1.39    0.77
  -1  -4 -15    1.46    0.70
  -1   4  15    0.78    0.88
   1  -4  15    1.87    0.84
   1   4 -15    2.49    0.85
  -1   4 -15    1.19    0.76
   1   4  15    2.21    0.93
   1  -4 -15    1.85    0.85
  -1  -4  15    1.76    0.88
   2  -4  15    0.79    0.82
   2   4 -15    1.06    0.87
  -2   4  15    1.31    0.90
   2  -4 -15    0.81    0.89
  -2   4 -15    1.76    0.79
   2   4  15    1.27    0.95
  -2  -4  15    0.84    0.81
   3   4 -15    1.27    0.91
  -3   4  15   -1.18    2.84
  -3   4  15    0.44    0.76
   3  -4  15   -0.74    0.82
  -3  -4  15   -0.19    0.76
   3  -4 -15    0.73    0.90
   3   4  15    0.46    0.91
  -3   4 -15    0.40    0.70
   4   4 -15    2.27    1.00
   4  -4  15    1.35    0.92
   4  -4 -15    0.77    1.02
  -4  -4  15    1.71    0.92
   4   4  15    1.00    0.93
  -4   4 -15    2.45    0.79
   5   4 -15    2.73    1.06
   5  -4  15    3.05    1.03
   5  -4 -15    2.49    1.15
  -5  -4  15    3.38    1.00
   5   4  15    0.90    1.15
   0   5 -15    1.76    0.86
   0   5  15    0.78    1.03
   0  -5 -15    2.48    0.91
   0  -5  15    0.75    0.87
  -1  -5 -15    6.57    0.96
   1   5 -15    5.13    0.96
   1  -5  15    5.47    1.01
  -1   5  15    5.11    1.07
   1  -5 -15    8.48    1.12
  -1  -5  15    5.84    1.06
   1   5  15    5.81    1.15
  -1   5 -15    7.15    1.00
  -2  -5 -15    1.12    0.86
  -2   5  15    0.71    0.89
   2   5 -15    0.67    0.87
   2  -5  15   -0.28    0.88
   2   5  15   -0.16    1.00
  -2   5 -15    1.38    0.81
  -2  -5  15    0.69    0.89
   2  -5 -15   -0.85    0.92
  -3   5  15    2.83    0.98
   3   5 -15    1.70    1.02
   3  -5  15    4.15    1.01
   3  -5 -15    1.86    1.07
   3   5  15    0.61    1.03
  -3  -5  15    1.98    0.93
  -3   5 -15    2.60    0.84
   4   5 -15    3.17    1.13
   4  -5  15    2.61    1.04
  -4   5  15    2.04    3.59
   4   5  15    2.30    1.16
   4  -5 -15    2.73    1.14
  -4  -5  15    6.00    1.05
   0  -6  15   -1.31    0.86
   0   6 -15    0.77    0.89
   0  -6 -15    0.41    0.92
   0   6  15    0.22    1.14
   1  -6  15   -0.49    0.91
   1   6 -15    0.22    0.91
  -1  -6 -15    0.82    0.88
  -1   6  15   -0.53    1.05
  -1   6 -15   -0.18    0.81
  -1  -6  15   -1.60    0.85
   1  -6 -15   -0.24    0.94
   1   6  15   -0.39    1.06
   2   6 -15    2.49    1.04
   2  -6  15    2.02    1.04
  -2   6  15    3.38    1.12
  -2  -6 -15    4.03    0.95
  -2   6 -15    4.08    0.90
   2   6  15    3.47    1.21
   2  -6 -15    2.52    1.16
  -2  -6  15    4.48    1.06
  -3   6  15    2.91    1.01
  -3  -6  15    3.66    1.01
   0   0  16    6.28    0.76
   0   0  16    8.34    0.88
   0   0 -16    6.82    0.85
   1   0  16    1.06    0.65
  -1   0  16    0.22    0.67
  -1   0 -16   -0.86    0.68
   1   0 -16    0.29    0.67
   1   0  16   -0.12    0.61
  -2   0 -16    3.06    0.81
  -2   0  16    5.84    0.87
   2   0 -16    3.97    0.83
   2   0  16    3.77    0.79
   2   0  16    3.62    0.74
   3   0  16    0.67    0.65
  -3   0 -16    1.91    0.79
  -3   0  16   -0.11    0.70
   3   0  16    0.59    0.76
   3   0 -16    0.85    0.69
   3   0 -16    0.66    0.70
   4   0  16    7.17    1.06
  -4   0  16    6.48    1.04
   4   0 -16    7.36    0.98
   4   0 -16    7.26    0.94
   5   0  16   -0.26    0.84
  -5   0  16   -1.04    0.84
   5   0 -16    0.03    0.84
   6   0 -16    0.53    0.98
   0  -1  16   20.13    1.38
   0  -1 -16   20.66    1.28
   0   1  16   22.10    1.23
   0  -1  16   20.55    1.08
   0   1 -16   19.69    1.33
   0   1  16   21.39    1.19
   1  -1  16   17.57    1.16
  -1   1  16   17.54    1.19
  -1  -1 -16   18.68    1.22
   1  -1  16   18.42    1.19
  -1   1  16   16.12    1.16
   1   1 -16   17.68    1.30
   1   1  16   16.51    1.22
   1  -1 -16   17.63    1.19
   1   1  16   19.77    1.17
  -1  -1  16   13.96    1.08
  -1   1 -16   17.63    1.18
  -2  -1 -16    3.58    0.82
  -2   1  16    4.30    0.81
   2  -1  16    5.11    0.81
   2  -1  16    4.62    0.80
   2   1 -16    5.45    0.88
  -2  -1  16    4.92    0.86
   2  -1 -16    5.24    0.78
   2   1  16    5.19    0.89
   2  -1 -16    5.98    0.83
  -2   1 -16    4.39    0.84
   3  -1  16    9.29    1.02
  -3   1  16    9.02    1.01
   3  -1  16   10.47    1.04
   3  -1  16   10.03    0.98
  -3  -1 -16    8.41    1.01
   3   1 -16   11.15    1.04
  -3  -1  16    9.59    1.03
   3  -1 -16   10.63    1.00
  -3   1 -16   10.86    1.05
   3  -1 -16   10.88    0.95
   3   1  16   10.29    1.08
   4  -1  16    1.70    0.81
  -4   1  16    3.61    0.94
   4   1 -16    2.29    0.83
   4  -1  16    1.47    3.36
   4  -1  16    3.81    0.82
   4  -1  16    3.93    0.88
   4   1 -16    1.86    0.83
  -4  -1  16    3.10    0.89
   4   1  16    1.70    0.92
  -4   1 -16    2.47    0.83
   4  -1 -16    1.19    0.85
  -5   1  16    1.86    0.95
   5   1 -16    2.75    0.94
   5  -1  16    1.70    0.93
   5  -1  16    3.36    0.91
   5  -1  16    3.14    3.94
   5   1 -16    1.55    0.91
   5  -1 -16    3.42    1.00
   5   1  16    2.59    0.99
  -5  -1  16    1.91    0.91
   6   1 -16    0.46    0.92
   6  -1 -16    0.08    1.01
   0   2  16    7.50    0.78
   0  -2 -16    7.88    0.88
   0   2 -16    7.00    0.93
   0   2  16    6.25    0.89
   0  -2  16    6.89    0.96
   1  -2  16   24.87    1.26
   1  -2  16   22.88    1.41
  -1  -2 -16   20.50    1.38
  -1   2  16   14.98    3.66
  -1   2  16   24.61    1.31
   1  -2  16   20.88    1.18
   1   2 -16   22.40    1.43
  -1   2  16   21.19    1.34
   1  -2 -16   22.79    1.25
   1  -2 -16   20.33    1.23
   1   2  16   21.22    1.38
  -1   2 -16   22.17    1.35
  -1  -2  16   24.40    1.45
   2  -2  16    3.19    0.73
   2  -2  16    5.16    0.82
   2  -2  16    2.51    0.77
   2   2 -16    2.91    0.84
   2  -2  16    2.66    3.40
  -2   2  16    4.32    0.80
   2   2  16    2.12    0.85
  -2  -2  16    2.16    0.84
   2  -2 -16    4.10    0.73
   2  -2 -16    3.48    0.82
  -2   2 -16    3.15    0.80
   3   2 -16   27.58    1.57
   3  -2  16   21.20    4.66
  -3   2  16   27.90    1.57
   3  -2  16   28.22    1.50
   3  -2  16   25.94    1.43
   3  -2  16   24.91    1.50
  -3   2 -16   22.49    1.44
   3  -2 -16   26.33    1.59
  -3  -2  16   26.02    1.57
   3   2  16   25.89    1.62
  -4   2  16    5.49    0.98
   4  -2  16    6.00    0.99
   4  -2  16    4.79    0.94
   4   2 -16    6.33    1.03
   4  -2  16    5.05    0.97
   4  -2  16    7.18    3.92
  -4  -2  16    6.56    1.04
   4   2  16    3.53    1.02
  -4   2 -16    5.33    0.94
   4  -2 -16    5.61    1.04
   5   2 -16    0.26    0.82
   5   2 -16    0.87    0.92
   5  -2  16   -0.10    0.88
   5  -2  16    0.92    0.85
   5  -2  16    1.41    0.90
   5  -2  16    1.00    3.56
  -5  -2  16    0.97    0.87
   5   2  16    0.60    0.95
   5  -2 -16    1.19    0.94
  -5   2 -16    0.85    0.81
   6   2 -16   -0.41    0.94
   6   2 -16    1.81    1.00
   0  -3 -16   22.16    1.28
   0   3  16   20.27    1.52
   0  -3  16   22.43    1.51
   0   3 -16   20.49    1.46
   1  -3  16    6.89    0.84
   1   3 -16    6.34    0.99
  -1   3  16    7.55    1.00
   1  -3  16    4.38    3.32
   1  -3  16    6.93    0.95
   1  -3  16    8.24    0.87
   1  -3 -16    7.63    0.85
   1  -3 -16    7.48    0.95
  -1  -3  16    6.87    1.00
   1   3  16    8.51    1.10
  -1   3 -16    7.67    0.97
   2  -3  16    1.26    0.72
   2   3 -16    0.11    0.78
  -2   3  16   -1.58    2.74
   2  -3  16    0.07    0.63
  -2   3  16   -0.19    0.78
   2  -3  16   -0.25    0.80
  -2   3  16   -0.28    0.67
   2  -3  16   -1.16    3.47
   2   3  16   -0.72    0.80
   2  -3 -16   -0.67    0.79
  -2  -3  16    0.15    0.78
  -2   3 -16    0.00    0.69
   3  -3  16   -0.11    0.80
  -3   3  16    0.60    0.73
   3   3 -16    0.69    0.89
  -3  -3  16    2.03    0.89
   3  -3 -16    0.68    0.89
  -3   3 -16    0.23    0.73
   3   3  16   -0.59    0.83
   4   3 -16    3.64    1.03
   4  -3  16    3.32    0.94
   4  -3 -16    3.10    0.98
  -4   3 -16    2.30    0.81
  -4  -3  16    2.48    0.97
   4   3  16    0.78    0.92
   5  -3  16    0.80    0.88
   5   3 -16    0.03    0.94
   5  -3 -16    0.68    1.03
   5   3  16    0.37    0.96
  -5   3 -16    0.11    0.78
  -5  -3  16    0.97    0.96
   0  -4  16    1.81    0.84
   0  -4 -16    0.96    0.81
   0   4 -16    1.12    0.79
   0   4  16    0.25    0.93
   1   4 -16    0.64    0.84
   1  -4  16    1.36    0.85
  -1   4  16   -0.95    0.87
   1   4  16   -0.51    0.88
   1  -4 -16    0.70    0.82
  -1  -4  16    0.50    0.74
  -1   4 -16    0.30    0.74
  -2   4  16    0.97    0.89
   2  -4  16    2.36    0.87
   2   4 -16   -1.12    0.82
  -2  -4  16   -0.76    0.83
   2   4  16    0.78    0.97
  -2   4 -16    0.21    0.78
   2  -4 -16    2.13    0.94
   3  -4  16   -0.39    0.88
   3   4 -16   -0.01    0.88
  -3   4  16   -0.44    3.06
   3  -4 -16    1.18    0.97
   3   4  16    0.37    1.00
  -3   4 -16    0.90    0.77
  -3  -4  16    0.58    0.86
   4   4 -16   -0.36    0.99
   4  -4  16   -0.20    0.87
  -4  -4  16    0.42    0.89
   4  -4 -16   -1.24    0.98
   4   4  16    0.87    1.05
  -4   4 -16    0.05    0.73
   0   5  16    0.80    0.96
   0  -5  16    1.81    0.92
   0  -5 -16    1.93    0.87
   0   5 -16    1.95    0.91
  -1   5  16    3.06    1.13
   1   5 -16    2.59    0.91
  -1  -5 -16    3.13    0.93
   1  -5  16    1.32    0.97
  -1  -5  16    3.60    1.01
  -1   5 -16    1.79    0.87
   1  -5 -16    3.98    1.01
   1   5  16    3.95    1.16
   2   5 -16    0.31    0.91
  -2   5  16    0.06    1.01
   2  -5  16    0.46    0.94
  -2   5 -16    0.87    0.83
  -2  -5  16   -0.70    0.85
   2   5  16    0.57    1.03
   2  -5 -16   -1.63    0.96
   3  -5  16    2.49    1.07
   3   5 -16    1.77    0.99
  -3   5  16    1.11    1.00
   3  -5 -16    2.02    1.12
  -3   5 -16    3.87    0.87
   3   5  16    1.65    1.14
  -3  -5  16    1.25    0.94
   0  -6 -16    6.36    1.10
   0  -6  16    6.09    1.21
   0   6  16    3.47    1.32
   0   6 -16    5.02    1.06
   1   6 -16   -0.18    1.03
  -1   6  16    0.15    1.13
  -1  -6 -16    0.07    0.88
   1  -6 -16    1.76    1.02
  -1  -6  16   -0.13    1.09
  -1   6 -16    0.94    0.86
  -2   6  16    0.02    1.09
  -2   6 -16    1.22    0.88
   2  -6 -16    0.83    1.24
   0   0 -17   -1.07    0.65
   0   0  17    0.44    0.69
   0   0  17    0.68    0.63
   1   0  17   -0.16    0.65
  -1   0 -17    0.35    0.73
  -1   0  17   -0.08    0.70
   1   0  17    0.27    0.68
   1   0 -17   -0.83    0.67
   2   0  17    8.31    0.92
  -2   0 -17    8.01    1.00
   2   0 -17    9.49    1.00
  -2   0  17    7.93    0.99
   2   0  17    8.51    1.00
  -3   0 -17    0.55    0.77
   3   0 -17   -0.38    0.72
  -3   0  17   -1.21    0.73
   3   0  17   -0.91    0.72
   4   0 -17   15.40    1.19
   4   0 -17   16.17    1.25
  -4   0  17   14.21    1.24
   4   0  17   15.95    1.33
   5   0  17   -0.13    0.89
  -5   0  17    1.21    0.93
   5   0 -17   -0.53    0.86
   0   1  17    1.07    0.67
   0   1  17   -0.51    0.67
   0  -1 -17    1.33    0.73
   0  -1  17   -0.35    0.70
   0   1 -17   -0.69    0.71
   1  -1  17   27.84    1.41
   1   1 -17   28.95    1.52
   1  -1  17   29.18    1.56
  -1   1  17   28.84    1.42
  -1  -1 -17   27.38    1.46
  -1  -1  17   27.68    1.52
   1  -1 -17   30.54    1.45
   1   1  17   28.66    1.38
  -1   1 -17   27.66    1.50
   1   1  17   29.16    1.48
   2   1 -17    1.22    0.81
   2  -1  17    1.78    0.74
  -2  -1 -17    2.02    0.80
  -2   1  17    2.62    0.81
   2  -1  17    1.56    0.77
  -2  -1  17    2.91    0.82
   2  -1 -17    3.98    0.82
   2   1  17    1.48    0.80
  -2   1 -17    3.20    0.85
   3   1 -17    0.98    0.80
   3  -1  17    0.87    0.76
  -3  -1 -17    0.47    0.80
  -3   1  17   -0.39    0.79
   3  -1  17    1.84    0.77
  -3   1 -17    0.74    0.74
  -3  -1  17    0.21    0.79
   3  -1 -17   -0.22    0.72
   3   1  17    0.16    0.78
   3  -1 -17    0.31    0.72
   4  -1  17    6.95    1.04
  -4   1  17    7.31    1.09
   4  -1  17    6.58    1.04
   4   1 -17    6.59    1.01
   4  -1  17    5.74    1.02
  -4   1 -17    4.75    0.96
  -4  -1  17    4.76    0.98
   4   1  17    4.67    1.03
   4  -1 -17    6.25    1.01
   5  -1  17    4.51    1.09
   5  -1  17    6.15    1.14
   5   1 -17    4.87    1.02
   5   1 -17    5.54    1.02
  -5   1  17    5.42    1.09
  -5  -1  17    5.61    1.12
   5   1  17    3.82    1.09
   5  -1 -17    5.35    1.08
   0   2 -17    0.02    0.74
   0   2  17    0.47    0.79
   0  -2  17   -0.11    0.78
   0  -2 -17    0.18    0.69
  -1   2  17   12.85    1.02
   1  -2  17   11.40    0.93
  -1   2  17   10.25    1.01
   1  -2  17   10.61    1.05
  -1  -2 -17   10.42    1.02
   1   2 -17   12.30    1.14
  -1  -2  17   11.07    1.13
  -1   2 -17    9.22    1.04
   1   2  17   11.74    1.12
   1  -2 -17   11.24    0.99
   2  -2  17   -0.54    0.69
  -2   2  17    0.52    0.74
   2  -2  17    0.44    0.78
   2  -2  17   -0.29    0.66
   2   2 -17   -0.20    0.81
   2   2  17    0.31    0.77
   2  -2 -17    0.21    0.68
   2  -2 -17    0.38    0.75
  -2  -2  17    0.98    0.82
  -2   2 -17    0.61    0.76
   3  -2  17    4.80    3.72
   3   2 -17    4.51    0.99
   3  -2  17    5.20    0.92
   3  -2  17    5.62    0.91
   3  -2  17    5.70    0.97
  -3   2  17    5.01    0.95
  -3   2 -17    5.83    0.93
  -3  -2  17    5.00    1.01
   3  -2 -17    5.16    0.98
   3   2  17    4.83    1.00
  -4   2  17    6.72    1.04
   4  -2  17    8.02    1.04
   4  -2  17    3.59    3.64
   4  -2  17    6.29    1.05
   4  -2  17    7.86    1.05
   4   2 -17    9.03    1.13
  -4  -2  17    7.33    1.14
  -4   2 -17    7.21    1.04
   4  -2 -17    7.68    1.10
   4   2  17    7.95    1.18
   5   2 -17    5.27    1.08
   5  -2  17   12.20    5.04
   5  -2  17    7.91    1.18
   5  -2  17    6.69    1.06
   5  -2  17    7.97    1.19
   5  -2 -17    4.32    1.12
  -5   2 -17    7.49    1.06
   5   2  17    7.98    1.97
   0  -3  17   43.77    1.93
   0   3 -17   43.33    1.84
   0   3  17   42.77    1.83
   0  -3 -17   44.38    1.76
  -1   3  17    2.35    0.88
   1  -3  17    3.71    0.93
   1   3 -17    3.10    0.92
   1   3  17    3.57    0.99
  -1   3 -17    2.31    0.83
  -1  -3  17    3.33    0.97
   1  -3 -17    4.98    0.81
   1  -3 -17    4.18    1.34
  -2   3  17    0.24    2.74
   2  -3  17    0.54    0.82
   2  -3  17    0.07    0.67
   2  -3  17    0.17    0.70
   2   3 -17   -0.08    0.87
   2  -3  17    1.18    3.48
  -2   3 -17    0.60    0.78
   2   3  17   -0.02    0.87
  -2  -3  17   -0.60    0.83
   2  -3 -17   -0.30    0.79
   3  -3  17    2.11    0.88
  -3   3  17    1.25    0.81
   3   3 -17    2.78    0.95
   3  -3  17    3.43    3.57
   3  -3  17    3.05    0.84
   3  -3  17    2.15    0.93
   3  -3 -17    1.31    0.98
  -3   3 -17    3.14    0.88
   3   3  17    2.44    0.99
  -3  -3  17    1.73    0.91
   4   3 -17    5.70    1.09
   4  -3  17    5.38    1.05
   4  -3  17    5.89    0.99
   4  -3  17    1.00    3.68
   4  -3  17    6.46    1.05
  -4   3 -17    5.44    0.97
   4   3  17    3.15    1.10
   4  -3 -17    4.41    1.13
  -4  -3  17    5.79    1.10
   5   3 -17    0.50    1.59
   5  -3  17    1.85    0.99
  -5   3 -17    1.69    0.85
   0   4 -17    0.01    0.86
   0  -4  17   -0.59    0.83
   0   4  17   -0.13    0.93
   1  -4  17    0.00    0.89
   1   4 -17   -0.50    0.85
  -1   4  17   -0.37    0.91
   1   4  17   -0.02    0.95
  -1   4 -17    0.01    0.79
   1  -4 -17    0.52    0.86
  -1  -4  17    0.02    0.88
   2  -4  17    0.45    0.86
   2   4 -17    1.20    0.99
  -2   4  17    1.49    0.94
   2  -4 -17    0.28    0.93
  -2  -4  17   -0.59    0.88
  -2   4 -17    1.50    0.86
   2   4  17   -1.88    0.96
   3   4 -17   -1.32    0.92
   3  -4  17    1.03    0.94
  -3   4  17   -0.52    2.97
  -3  -4  17    0.76    0.91
  -3   4 -17    0.83    0.82
   3  -4 -17   -0.41    0.98
   3   4  17    0.65    0.97
   4  -4  17    4.76    1.23
  -4   4 -17    3.96    0.91
   4  -4 -17    2.52    1.10
   0  -5  17    0.01    0.90
   0   5  17   -1.25    1.02
   0  -5 -17   -0.07    0.84
   0   5 -17    0.97    0.88
  -1   5  17    7.32    1.24
   1  -5  17    6.29    1.16
   1   5 -17    6.12    1.13
  -1   5 -17    8.35    1.10
   1   5  17    5.02    1.25
   1  -5 -17    7.19    1.14
  -1  -5  17    6.96    1.13
   2  -5  17   -0.44    0.98
  -2   5  17    0.32    1.04
   2   5 -17    0.71    1.08
   2   5  17   -1.62    1.01
   2  -5 -17    0.63    0.99
  -2   5 -17    1.35    0.90
  -2  -5  17    0.57    0.96
  -3   5  17    2.87    3.79
  -3   5 -17    0.74    0.81
   3  -5 -17   -0.49    1.15
   0  -6 -17    3.91    1.08
   0   0  18    5.58    0.89
   0   0 -18    4.46    0.88
   1   0  18    0.84    0.74
  -1   0  18    0.93    0.76
  -1   0 -18    1.94    0.80
   1   0 -18    2.01    0.84
   1   0  18    1.83    0.76
  -2   0 -18    0.32    0.73
   2   0  18    0.59    0.75
  -2   0  18    2.09    0.83
   2   0  18    0.66    0.73
   2   0 -18    0.22    0.75
  -3   0  18    3.46    0.91
   3   0 -18    3.82    0.90
  -3   0 -18    3.13    0.90
   3   0  18    3.17    0.93
   4   0  18    1.26    0.91
  -4   0  18    0.04    0.88
   5   0 -18   -0.95    0.95
   0   1  18    0.30    0.69
   0  -1 -18    0.45    0.74
   0   1 -18    0.87    0.82
   0  -1  18    1.16    0.78
   0   1  18    0.16    0.75
   1  -1  18    0.96    0.71
  -1   1  18    1.55    0.76
   1   1 -18    1.77    0.85
  -1  -1 -18    0.48    0.76
   1  -1  18    1.11    0.79
  -1   1 -18    0.89    0.73
   1  -1 -18    2.60    0.81
  -1  -1  18    1.16    0.79
   1   1  18    1.03    0.78
   2  -1  18    0.46    0.78
  -2  -1 -18    0.88    0.77
   2  -1  18    1.97    0.77
   2   1 -18    1.10    0.81
  -2   1  18    1.42    0.84
  -2   1 -18    1.23    0.84
   2  -1 -18    2.30    0.81
  -2  -1  18    0.10    0.80
   2   1  18    2.11    0.84
   3   1 -18    9.71    1.12
   3  -1  18    9.48    1.05
  -3  -1 -18    9.87    1.15
   3  -1  18   10.48    1.12
  -3   1  18   10.55    1.13
   3   1  18    8.01    1.12
   3  -1 -18   10.71    1.31
  -3   1 -18    8.10    1.09
  -3  -1  18    8.36    1.10
  -4   1  18    3.70    0.99
   4  -1  18    2.34    0.97
   4   1 -18    2.32    0.96
   4   1  18    2.06    0.98
  -4  -1  18    3.12    0.96
  -4   1 -18    1.93    0.88
   4  -1 -18    2.27    0.90
   5  -1 -18    0.56    1.00
   0  -2 -18   10.71    1.06
   0  -2  18    9.08    1.12
   0   2  18    5.69    1.00
   0   2 -18   10.98    1.12
  -1  -2 -18    0.72    0.79
   1  -2  18    1.52    0.86
  -1   2  18    2.26    0.86
   1   2 -18    1.43    0.86
  -1   2 -18    2.02    0.86
  -1  -2  18    2.52    0.87
   1   2  18    0.56    0.86
   1  -2 -18    2.17    0.78
   2   2 -18    5.82    1.02
   2  -2  18    4.75    0.89
   2  -2  18    5.77    0.89
   2  -2  18    5.28    0.96
  -2   2  18    5.81    0.94
  -2  -2  18    4.56    1.00
   2  -2 -18    6.67    1.10
  -2   2 -18    6.51    0.98
   2   2  18    4.75    1.05
  -3   2  18    1.84    0.86
   3  -2  18    0.68    0.80
   3   2 -18    1.22    0.89
   3  -2  18    1.15    0.82
   3  -2  18    0.42    0.83
   3   2  18    0.76    0.89
  -3  -2  18    0.29    0.86
  -3   2 -18    0.89    0.84
   3  -2 -18    0.52    0.87
   4  -2  18   -0.32    0.87
   4  -2  18    0.49    0.82
   4   2 -18   -0.14    0.90
   4  -2  18    0.94    3.50
  -4   2  18   -0.32    0.87
   4  -2  18    0.78    0.86
   4  -2 -18   -1.55    0.88
  -4   2 -18   -0.35    0.80
   4   2  18   -1.41    0.97
  -4  -2  18   -0.62    0.89
   0   3  18    3.17    1.00
   0  -3  18    2.98    0.99
   0  -3 -18    5.36    0.93
   0   3 -18    5.03    0.96
   1   3 -18    4.99    0.96
  -1   3  18    1.89    0.93
   1  -3  18    5.59    1.05
   1   3  18    5.24    1.07
  -1   3 -18    4.66    0.97
  -1  -3  18    6.04    1.05
   2   3 -18    1.97    0.98
   2  -3  18    0.54    0.89
   2  -3  18    0.93    0.77
   2  -3  18    9.23    5.90
   2  -3  18    4.10    0.88
   2   3  18    1.85    1.01
  -2   3 -18    1.65    0.88
  -2  -3  18    2.96    0.99
   3  -3  18    3.77    0.93
  -3   3  18    3.72    0.94
   3  -3  18    3.56    0.99
   3  -3  18    3.89    0.90
   3   3 -18    3.69    1.08
   3  -3  18    2.46    3.21
   3  -3 -18    1.73    0.98
   3   3  18    4.22    1.10
  -3  -3  18    1.78    0.96
  -3   3 -18    3.89    0.97
   4  -3  18    7.86    1.08
   4  -3  18    3.65    3.82
   4  -3  18    7.00    1.13
   4   3 -18    7.47    1.23
   4  -3  18    6.44    1.08
   4  -3 -18    7.81    1.24
  -4   3 -18    5.91    1.03
   0   4  18    3.48    1.11
   0  -4  18    2.77    1.01
   0   4 -18    4.33    1.03
   1  -4  18    4.64    1.08
  -1   4  18    3.05    1.05
   1   4 -18    4.36    0.98
  -1  -4  18    1.11    0.99
  -1   4 -18    2.69    0.95
   1   4  18    1.88    1.02
   2  -4  18    0.80    0.95
  -2   4  18   -3.85    2.61
   2   4 -18    1.74    1.01
   2   4  18    0.63    1.06
   2  -4 -18    0.15    0.99
  -2  -4  18    0.28    0.94
  -2   4 -18    2.32    0.92
   3  -4  18    0.40    3.75
   3  -4  18    0.84    1.63
   3  -4  18    3.47    0.90
   3  -4  18    2.28    0.82
  -3   4 -18    3.11    0.94
   3  -4 -18    1.20    1.06
   0   5  18    1.81    1.13
  -1   5  18    1.49    1.18
   1  -5 -18    1.61    1.06
   2  -5 -18    1.46    1.11
   0   0 -19   -0.18    0.76
   0   0  19   -0.01    0.76
   1   0  19    5.62    0.94
   1   0  19    5.55    0.90
  -1   0  19    5.57    0.96
  -1   0 -19    6.58    1.01
   1   0 -19    3.77    0.89
   2   0 -19   11.11    1.12
   2   0  19   10.85    1.15
  -2   0  19   12.14    1.16
  -2   0 -19   10.54    1.14
   3   0  19    1.65    0.92
   3   0 -19    1.08    0.87
  -3   0 -19    1.97    0.91
  -3   0  19    1.02    0.93
   4   0  19    0.68    0.96
  -4   0  19   -0.35    0.90
   0  -1 -19    0.71    0.80
   0   1 -19    1.95    0.86
   0  -1  19    1.69    0.79
   0   1  19    1.88    0.80
  -1   1  19   -0.13    0.74
   1  -1  19   -0.36    0.80
  -1  -1 -19   -0.91    0.76
   1   1 -19    1.52    0.88
   1   1  19    1.71    0.86
  -1   1 -19    1.46    0.84
  -1  -1  19    0.55    0.83
   1  -1 -19    1.86    0.82
   2   1 -19    1.93    0.89
  -2  -1 -19    2.54    0.90
   2  -1  19    1.26    0.83
   2  -1  19    2.74    0.87
  -2   1  19    0.51    0.84
   2  -1 -19    0.84    0.82
   2   1  19   -0.07    0.89
  -2  -1  19    1.74    0.93
  -2   1 -19    0.73    0.83
  -3   1  19    0.67    0.86
   3  -1  19    2.53    1.24
   3  -1  19    2.15    0.91
   3   1 -19   -1.49    0.86
  -3   1 -19   -0.06    0.82
   3   1  19    1.63    0.94
  -3  -1  19    1.30    0.95
  -4   1  19    4.12    1.04
   4   1 -19    3.52    0.98
   4  -1  19    3.41    1.03
   4   1  19    7.60    1.88
   0   2  19    0.66    0.86
   0  -2  19    2.69    0.93
   0   2 -19    2.51    0.92
   0  -2 -19    2.43    0.87
  -1  -2 -19   -0.35    0.78
   1  -2  19   -0.54    0.82
   1   2 -19    1.46    0.88
   1   2  19   -1.59    0.88
  -1   2 -19   -0.30    0.83
  -1  -2  19    0.15    0.85
   1  -2 -19    0.97    0.79
  -2   2  19    1.09    0.83
   2   2 -19   -0.15    0.86
   2  -2  19    0.75    0.84
   2  -2  19    1.10    0.79
  -2  -2  19   -0.75    0.83
  -2   2 -19   -0.57    0.79
   2   2  19    0.59    0.93
  -3   2  19    4.27    1.00
   3  -2  19    3.60    0.98
   3   2 -19    6.33    1.12
   3  -2  19    4.54    1.00
  -3  -2  19    3.78    1.04
   3   2  19    3.93    1.09
  -3   2 -19    4.63    1.03
   4   2 -19    0.09    0.99
   4  -2  19    3.93    1.00
  -4   2  19    4.02    1.04
   4  -2  19    3.73    1.73
   0   3 -19    4.48    1.01
   0   3  19    1.14    0.95
   0  -3  19    4.52    1.07
   1   3 -19    2.96    1.00
   1  -3  19    1.88    0.95
   1   3  19   -0.69    0.94
  -1   3 -19    3.45    0.96
  -1  -3  19    0.66    0.90
   2  -3  19    0.33    0.89
   2   3 -19    2.56    1.02
   2   3  19    0.37    1.01
  -2  -3  19   -0.09    0.95
  -2   3 -19    2.06    0.95
   3  -3  19    7.73    1.08
   3  -3  19    2.29    3.62
   3  -3  19    5.64    1.15
   3  -3  19    9.92    1.09
   0  -4  19   -0.36    1.05
   0   4 -19    0.55    1.49
   0   4  19   -2.42    0.98
  -1   4  19    1.16    1.06
   1   4  19    2.18    1.11
   0   0 -20    0.19    0.83
   0   0  20    0.38    0.82
   1   0  20    3.72    0.99
   1   0 -20    4.78    0.97
  -1   0 -20    1.75    0.86
  -1   0  20    3.73    0.95
   2   0 -20    1.82    0.91
   2   0  20   -0.59    0.85
  -2   0  20    0.51    0.86
  -2   0 -20    2.61    0.92
   3   0 -20    0.30    0.86
  -3   0  20   -0.41    0.88
   3   0  20    0.63    0.93
   0  -1 -20    0.57    0.83
   0  -1  20    0.24    0.84
   0   1 -20    1.58    0.89
  -1  -1 -20    0.19    0.85
  -1   1  20    0.19    0.82
   1  -1  20   -0.27    0.82
   1   1 -20    0.53    0.88
   1  -1 -20    2.15    0.88
  -1  -1  20    1.75    0.90
   1   1  20   -0.02    0.85
  -1   1 -20   -0.96    0.82
   2  -1  20    2.86    0.92
   2   1 -20    3.35    0.96
  -2  -1 -20    4.20    0.98
  -2   1  20    3.22    0.96
   2  -1  20    3.49    0.93
   2  -1 -20    4.26    0.93
  -2  -1  20    2.48    0.98
  -2   1 -20    3.19    0.93
   2   1  20    4.66    1.05
   3  -1  20    0.68    0.90
   3   1 -20    1.87    0.97
  -3   1  20   -0.05    0.90
   3   1  20    1.33    1.02
   0   2 -20    2.08    0.92
   0  -2 -20    2.30    0.90
   0  -2  20    1.15    0.91
   1  -2  20    4.55    1.03
   1   2 -20    6.12    1.11
  -1  -2 -20    7.20    1.05
   1   2  20    4.94    1.10
   1  -2 -20    6.33    1.01
  -1  -2  20    5.39    1.06
  -1   2 -20    5.12    0.95
   2  -2  20    1.63    0.94
   2   2 -20    0.50    0.97
   2   2  20    1.23    0.99
  -2   2 -20    1.68    1.44
  -2  -2  20    1.57    1.00
   3  -2  20   -0.07    0.85
  -3   2  20    1.32    0.92
   3  -2  20   -1.14    0.86
   0   3  20    0.98    1.01
   0  -3  20    1.75    1.05
   1  -3  20    1.74    1.03
   1   3  20    0.83    1.08
   0   0 -21    0.71    0.90
   0   0  21    0.39    0.86
   1   0 -21    1.34    0.87
  -1   0 -21    1.78    1.05
  -1   0  21    0.55    0.88
  -2   0  21    0.91    0.91
   2   0  21   -0.52    0.89
   2   0 -21    0.18    0.92
   0  -1 -21    1.23    0.89
   0  -1  21    2.07    0.93
   0   1 -21   -0.63    0.95
   1  -1  21    0.86    0.90
  -1  -1 -21   -0.08    0.95
   1   1 -21    0.80    1.03
   1  -1 -21   -0.45    0.82
  -1  -1  21    0.90    0.94
  -2   1  21    1.72    0.94
   2  -1 -21    1.94    0.90
   2   1  21    0.46    1.01
   0  -2 -21    0.60    0.87
   0  -2  21    0.74    0.97
  -1  -2 -21   -1.19    1.45
   1  -2  21    0.87    0.96
   1  -2 -21    1.53    0.90
   1   2  21    1.36    1.04
   0   0   0    0.00    0.00
;
_shelx_hkl_checksum              70017
loop_
_space_group_symop_operation_xyz
'x, y, z'
'-x+1/2, -y, z+1/2'
'-x, y+1/2, -z+1/2'
'x+1/2, -y+1/2, -z'
loop_
_atom_site_label
_atom_site_type_symbol
_atom_site_fract_x
_atom_site_fract_y
_atom_site_fract_z
_atom_site_U_iso_or_equiv
_atom_site_adp_type
_atom_site_occupancy
_atom_site_site_symmetry_order
_atom_site_calc_flag
_atom_site_refinement_flags_posn
_atom_site_refinement_flags_adp
O1 O 0.9826(3) 0.2908(2) 0.20205(10) 0.0434(4) Uani 1 1 d . .
O2 O 0.8145(3) 0.0970(2) 0.11811(9) 0.0443(4) Uani 1 1 d . .
N3 N 0.8474(3) 0.1748(3) 0.18812(11) 0.0319(4) Uani 1 1 d . .
C4 C 0.7155(3) 0.1276(3) 0.25747(13) 0.0271(4) Uani 1 1 d . .
N5 N 0.5981(3) -0.0251(3) 0.25753(12) 0.0363(4) Uani 1 1 d . .
N6 N 0.4864(3) -0.0187(3) 0.33147(13) 0.0391(5) Uani 1 1 d . .
C7 C 0.5426(3) 0.1431(3) 0.37260(13) 0.0288(4) Uani 1 1 d . .
N8 N 0.4642(3) 0.2129(3) 0.44702(11) 0.0343(4) Uani 1 1 d . .
N9 N 0.5347(3) 0.3815(2) 0.47077(10) 0.0299(4) Uani 1 1 d . .
O10 O 0.4721(3) 0.4625(2) 0.53776(9) 0.0438(4) Uani 1 1 d . .
C11 C 0.6869(3) 0.4854(3) 0.42137(11) 0.0252(4) Uani 1 1 d . .
N12 N 0.7341(3) 0.6583(2) 0.45315(11) 0.0353(5) Uani 1 1 d . .
H12A H 0.8244 0.7312 0.4272 0.042 Uiso 1 1 calc R U
H12B H 0.6754 0.7009 0.5003 0.042 Uiso 1 1 calc R U
N13 N 0.7678(3) 0.4144(2) 0.35224(10) 0.0261(4) Uani 1 1 d . .
N14 N 0.6894(2) 0.2378(2) 0.32925(9) 0.0232(3) Uani 1 1 d . .
loop_
_atom_site_aniso_label
_atom_site_aniso_U_11
_atom_site_aniso_U_22
_atom_site_aniso_U_33
_atom_site_aniso_U_23
_atom_site_aniso_U_13
_atom_site_aniso_U_12
O1 0.0387(10) 0.0478(9) 0.0437(9) -0.0087(7) 0.0077(7) -0.0109(9)
O2 0.0514(11) 0.0530(9) 0.0286(7) -0.0112(7) -0.0059(7) 0.0058(9)
N3 0.0321(11) 0.0338(9) 0.0299(9) -0.0042(7) -0.0023(7) 0.0057(8)
C4 0.0258(10) 0.0261(9) 0.0295(10) -0.0031(8) -0.0058(8) 0.0005(8)
N5 0.0327(10) 0.0305(9) 0.0457(10) -0.0060(8) -0.0046(9) -0.0040(8)
N6 0.0363(12) 0.0314(9) 0.0495(10) -0.0005(9) -0.0007(9) -0.0090(9)
C7 0.0260(10) 0.0265(9) 0.0339(10) 0.0046(9) -0.0012(8) -0.0033(8)
N8 0.0336(10) 0.0322(9) 0.0371(9) 0.0066(8) 0.0049(8) -0.0053(9)
N9 0.0307(9) 0.0309(8) 0.0283(8) 0.0048(7) 0.0035(7) 0.0019(8)
O10 0.0517(11) 0.0459(9) 0.0339(8) -0.0017(7) 0.0179(8) 0.0024(8)
C11 0.0249(10) 0.0258(9) 0.0250(9) 0.0039(8) -0.0024(8) -0.0006(8)
N12 0.0426(12) 0.0293(9) 0.0339(10) -0.0057(8) 0.0080(8) -0.0042(8)
N13 0.0284(9) 0.0247(8) 0.0251(8) -0.0008(7) -0.0017(7) -0.0058(7)
N14 0.0230(8) 0.0226(7) 0.0240(7) 0.0017(7) -0.0040(7) -0.0028(7)
loop_
_atom_type_symbol
_atom_type_description
_atom_type_scat_dispersion_real
_atom_type_scat_dispersion_imag
_atom_type_scat_source
C C 0.0033 0.0016 'International Tables Vol C Tables 4.2.6.8 and 6.1.1.4'
H H 0.0000 0.0000 'International Tables Vol C Tables 4.2.6.8 and 6.1.1.4'
N N 0.0061 0.0033 'International Tables Vol C Tables 4.2.6.8 and 6.1.1.4'
O O 0.0106 0.0060 'International Tables Vol C Tables 4.2.6.8 and 6.1.1.4'
loop_
_geom_angle_atom_site_label_1
_geom_angle_atom_site_label_2
_geom_angle_atom_site_label_3
_geom_angle
O1 N3 O2 124.72(19)
O1 N3 C4 118.12(16)
O2 N3 C4 117.15(18)
N5 C4 N14 111.37(18)
N5 C4 N3 123.60(19)
N14 C4 N3 124.98(17)
C4 N5 N6 107.71(17)
C7 N6 N5 105.89(17)
N6 C7 N8 126.24(19)
N6 C7 N14 111.30(18)
N8 C7 N14 122.44(17)
N9 N8 C7 114.38(17)
O10 N9 N8 120.43(18)
O10 N9 C11 117.16(17)
N8 N9 C11 122.41(17)
N13 C11 N12 123.0(2)
N13 C11 N9 123.07(18)
N12 C11 N9 113.96(18)
C11 N12 H12A 120.0
C11 N12 H12B 120.0
H12A N12 H12B 120.0
C11 N13 N14 112.70(17)
C4 N14 C7 103.70(16)
C4 N14 N13 131.01(16)
C7 N14 N13 124.88(16)
loop_
_geom_bond_atom_site_label_1
_geom_bond_atom_site_label_2
_geom_bond_distance
O1 N3 1.221(2)
O2 N3 1.228(2)
N3 C4 1.428(3)
C4 N5 1.305(3)
C4 N14 1.354(3)
N5 N6 1.369(3)
N6 C7 1.328(3)
C7 N8 1.354(3)
C7 N14 1.354(3)
N8 N9 1.296(2)
N9 O10 1.249(2)
N9 C11 1.459(3)
C11 N13 1.294(3)
C11 N12 1.316(3)
N12 H12A 0.8800
N12 H12B 0.8800
N13 N14 1.362(2)
loop_
_geom_hbond_atom_site_label_D
_geom_hbond_atom_site_label_H
_geom_hbond_atom_site_label_A
_geom_hbond_distance_DH
_geom_hbond_distance_HA
_geom_hbond_distance_DA
_geom_hbond_angle_DHA
_geom_hbond_site_symmetry_A
N12 H12A O1 0.88 2.42 3.194(2) 147.2 3_755
N12 H12A O10 0.88 2.37 3.041(2) 132.7 4_566
N12 H12B O2 0.88 2.29 3.071(2) 148.1 2_665
loop_
_geom_torsion_atom_site_label_1
_geom_torsion_atom_site_label_2
_geom_torsion_atom_site_label_3
_geom_torsion_atom_site_label_4
_geom_torsion
O1 N3 C4 N5 -163.0(2)
O2 N3 C4 N5 17.9(3)
O1 N3 C4 N14 20.0(3)
O2 N3 C4 N14 -159.13(18)
N14 C4 N5 N6 0.5(2)
N3 C4 N5 N6 -176.87(19)
C4 N5 N6 C7 0.7(2)
N5 N6 C7 N8 176.7(2)
N5 N6 C7 N14 -1.6(2)
N6 C7 N8 N9 -175.1(2)
N14 C7 N8 N9 3.1(3)
C7 N8 N9 O10 179.03(18)
C7 N8 N9 C11 -0.5(3)
O10 N9 C11 N13 177.95(19)
N8 N9 C11 N13 -2.5(3)
O10 N9 C11 N12 -2.4(3)
N8 N9 C11 N12 177.15(19)
N12 C11 N13 N14 -177.09(18)
N9 C11 N13 N14 2.6(3)
N5 C4 N14 C7 -1.5(2)
N3 C4 N14 C7 175.89(19)
N5 C4 N14 N13 -174.24(18)
N3 C4 N14 N13 3.1(3)
N6 C7 N14 C4 1.9(2)
N8 C7 N14 C4 -176.48(19)
N6 C7 N14 N13 175.27(16)
N8 C7 N14 N13 -3.1(3)
C11 N13 N14 C4 171.5(2)
C11 N13 N14 C7 0.1(3)
