#------------------------------------------------------------------------------
#$Date: 2019-04-05 01:51:12 +0300 (Fri, 05 Apr 2019) $
#$Revision: 214491 $
#$URL: file:///home/coder/svn-repositories/cod/cif/7/12/32/7123269.cif $
#------------------------------------------------------------------------------
#
# This file is available in the Crystallography Open Database (COD),
# http://www.crystallography.net/
#
# All data on this site have been placed in the public domain by the
# contributors.
#
data_7123269
loop_
_publ_author_name
'Marin, Lucile'
'Force, Guillaume'
'Guillot, R\'egis'
'Gandon, Vincent'
'Schulz, Emmanuelle'
'Leboeuf, David'
_publ_section_title
;
 Photooxygenation of 2-Propargylfurans: a Path to Structurally Diverse
 Nitrogen-Containing 5-Membered Rings
;
_journal_name_full               'Chemical Communications'
_journal_paper_doi               10.1039/C9CC01197H
_journal_year                    2019
_chemical_absolute_configuration ad
_chemical_formula_moiety         'C19 H17 N O2'
_chemical_formula_sum            'C19 H17 N O2'
_chemical_formula_weight         291.33
_space_group_crystal_system      monoclinic
_space_group_IT_number           4
_space_group_name_Hall           'P 2yb'
_space_group_name_H-M_alt        'P 1 21 1'
_symmetry_space_group_name_Hall  'P 2yb'
_symmetry_space_group_name_H-M   'P 1 21 1'
_atom_sites_solution_hydrogens   mixed
_audit_creation_method           SHELXL-2018/3
_audit_update_record
;
2019-01-23 deposited with the CCDC.    2019-04-04 downloaded from the CCDC.
;
_cell_angle_alpha                90
_cell_angle_beta                 107.380(16)
_cell_angle_gamma                90
_cell_formula_units_Z            2
_cell_length_a                   9.358(2)
_cell_length_b                   5.3966(14)
_cell_length_c                   15.126(3)
_cell_measurement_reflns_used    4032
_cell_measurement_temperature    100(1)
_cell_measurement_theta_max      66.81
_cell_measurement_theta_min      3.06
_cell_volume                     729.0(3)
_computing_cell_refinement       'Bruker SAINT'
_computing_data_collection       'Bruker APEX3'
_computing_data_reduction        'Bruker SAINT'
_computing_structure_refinement  'SHELXL-2018/3 (Sheldrick, 2018)'
_computing_structure_solution    'SHELXS-97 (Sheldrick 2008)'
_diffrn_ambient_temperature      100(1)
_diffrn_measured_fraction_theta_full 0.992
_diffrn_measured_fraction_theta_max 0.992
_diffrn_measurement_device_type  'Bruker VENTURE PHOTON100 CMOS'
_diffrn_measurement_method       '\f and \w scans'
_diffrn_radiation_probe          x-ray
_diffrn_radiation_type           CuK\a
_diffrn_radiation_wavelength     1.54178
_diffrn_reflns_av_R_equivalents  0.0814
_diffrn_reflns_av_unetI/netI     0.0739
_diffrn_reflns_Laue_measured_fraction_full 0.992
_diffrn_reflns_Laue_measured_fraction_max 0.992
_diffrn_reflns_limit_h_max       11
_diffrn_reflns_limit_h_min       -11
_diffrn_reflns_limit_k_max       6
_diffrn_reflns_limit_k_min       -5
_diffrn_reflns_limit_l_max       17
_diffrn_reflns_limit_l_min       -18
_diffrn_reflns_number            8823
_diffrn_reflns_point_group_measured_fraction_full 0.958
_diffrn_reflns_point_group_measured_fraction_max 0.958
_diffrn_reflns_theta_full        66.928
_diffrn_reflns_theta_max         66.928
_diffrn_reflns_theta_min         3.061
_exptl_absorpt_coefficient_mu    0.686
_exptl_absorpt_correction_T_max  0.9901
_exptl_absorpt_correction_T_min  0.9681
_exptl_absorpt_correction_type   multi-scan
_exptl_absorpt_process_details   'apex3 Bruker'
_exptl_crystal_colour            colorless
_exptl_crystal_density_diffrn    1.327
_exptl_crystal_description       needle
_exptl_crystal_F_000             308
_exptl_crystal_size_max          0.230
_exptl_crystal_size_mid          0.040
_exptl_crystal_size_min          0.010
_refine_diff_density_max         0.185
_refine_diff_density_min         -0.213
_refine_diff_density_rms         0.051
_refine_ls_abs_structure_details
;
 Flack x determined using 712 quotients [(I+)-(I-)]/[(I+)+(I-)]
 (Parsons, Flack and Wagner, Acta Cryst. B69 (2013) 249-259).
;
_refine_ls_abs_structure_Flack   0.2(3)
_refine_ls_extinction_method     none
_refine_ls_goodness_of_fit_ref   1.043
_refine_ls_hydrogen_treatment    mixed
_refine_ls_matrix_type           full
_refine_ls_number_parameters     205
_refine_ls_number_reflns         2488
_refine_ls_number_restraints     1
_refine_ls_restrained_S_all      1.043
_refine_ls_R_factor_all          0.0668
_refine_ls_R_factor_gt           0.0501
_refine_ls_shift/su_max          0.000
_refine_ls_shift/su_mean         0.000
_refine_ls_structure_factor_coef Fsqd
_refine_ls_weighting_details
'w=1/[\s^2^(Fo^2^)+(0.0254P)^2^+0.3502P] where P=(Fo^2^+2Fc^2^)/3'
_refine_ls_weighting_scheme      calc
_refine_ls_wR_factor_gt          0.1002
_refine_ls_wR_factor_ref         0.1077
_reflns_Friedel_coverage         0.730
_reflns_Friedel_fraction_full    0.915
_reflns_Friedel_fraction_max     0.915
_reflns_number_gt                2081
_reflns_number_total             2488
_reflns_threshold_expression     'I > 2\s(I)'
_cod_data_source_file            c9cc01197h2.cif
_cod_data_source_block           3aa
_cod_database_code               7123269
_shelx_space_group_comment
;
The symmetry employed for this shelxl refinement is uniquely defined
by the following loop, which should always be used as a source of
symmetry information in preference to the above space-group names.
They are only intended as comments.
;
_shelx_estimated_absorpt_t_min   0.863
_shelx_estimated_absorpt_t_max   0.993
_shelx_res_file
;
TITL cu_v537_GuillotICMMO.res in P2(1)
    shelx.res
    created by SHELXL-2018/3 at 13:52:45 on 22-Jan-2019
CELL  1.54178   9.3580   5.3966  15.1263   90.000  107.380   90.000
ZERR     2.00   0.0020   0.0014   0.0033    0.000    0.016    0.000
LATT  -1
SYMM  - X, 1/2 + Y, - Z
SFAC  C    H    N    O
DISP $C  0.01800  0.00957 85.93609
DISP $H -0.00001  0.00000  0.64302
DISP $N  0.03100  0.01886 166.49108
DISP $O  0.04900  0.03220 293.70081
UNIT  38 34 2 4
MERG   2
FMAP   2
PLAN    4
SIZE     0.010   0.040   0.230
ACTA   160.00
BOND   $H
LIST   6
WPDB  -2
L.S.  30
TEMP  -173.00
WGHT    0.025400    0.350200
FVAR       0.39426
C1    1    0.336542    0.469394    0.056460    11.00000    0.01947    0.02181 =
         0.02447    0.00109    0.00795   -0.00193
AFIX  13
H1    2    0.291266    0.301023    0.054992    11.00000   -1.20000
AFIX   0
C2    1    0.213811    0.652290    0.014424    11.00000    0.02262    0.02725 =
         0.02646    0.00610    0.00643   -0.00346
AFIX  43
H2    2    0.155932    0.650671   -0.048962    11.00000   -1.20000
AFIX   0
C3    1    0.195088    0.816059    0.075366    11.00000    0.02171    0.03043 =
         0.03485    0.01154    0.01330    0.00430
AFIX  43
H3    2    0.122848    0.945274    0.062187    11.00000   -1.20000
AFIX   0
C4    1    0.304104    0.766565    0.167130    11.00000    0.01927    0.02893 =
         0.02891    0.00622    0.01185    0.00009
C5    1    0.392361    0.556489    0.156076    11.00000    0.01952    0.02015 =
         0.02489    0.00379    0.00818    0.00128
C6    1    0.498230    0.442248    0.227824    11.00000    0.02113    0.01589 =
         0.02509    0.00401    0.01021   -0.00094
C7    1    0.586795    0.223303    0.213076    11.00000    0.02237    0.01926 =
         0.01917   -0.00029    0.00661    0.00237
AFIX  23
H7A   2    0.535340    0.148177    0.152165    11.00000   -1.20000
H7B   2    0.589786    0.097832    0.261343    11.00000   -1.20000
AFIX   0
C8    1    0.746847    0.289174    0.216265    11.00000    0.02001    0.01849 =
         0.01708   -0.00497    0.00518   -0.00157
C9    1    0.860682    0.120294    0.255771    11.00000    0.02843    0.02197 =
         0.01895    0.00371    0.00962   -0.00061
AFIX  43
H9    2    0.838964   -0.025113    0.284754    11.00000   -1.20000
AFIX   0
C10   1    1.005394    0.163032    0.253066    11.00000    0.02076    0.02745 =
         0.02472   -0.00185    0.00449    0.00363
AFIX  43
H10   2    1.081944    0.044775    0.278245    11.00000   -1.20000
AFIX   0
C11   1    1.037942    0.380181    0.213253    11.00000    0.02297    0.02588 =
         0.02988   -0.00614    0.00883   -0.00508
AFIX  43
H11   2    1.137197    0.411237    0.211909    11.00000   -1.20000
AFIX   0
C12   1    0.926074    0.550561    0.175697    11.00000    0.02790    0.02055 =
         0.02889   -0.00030    0.01151   -0.00695
AFIX  43
H12   2    0.948612    0.698668    0.148632    11.00000   -1.20000
AFIX   0
C13   1    0.780934    0.505960    0.177402    11.00000    0.02674    0.02039 =
         0.02114    0.00013    0.00789    0.00424
AFIX  43
H13   2    0.704545    0.624218    0.151875    11.00000   -1.20000
AFIX   0
C14   1    0.631569    0.426721    0.395535    11.00000    0.02948    0.02202 =
         0.01912   -0.00041    0.00955    0.00100
C15   1    0.592882    0.214523    0.434470    11.00000    0.02796    0.02625 =
         0.02673   -0.00077    0.00892   -0.00153
AFIX  43
H15   2    0.499214    0.136837    0.406306    11.00000   -1.20000
AFIX   0
C16   1    0.690207    0.114909    0.514361    11.00000    0.04040    0.02741 =
         0.03023    0.00353    0.01513   -0.00035
AFIX  43
H16   2    0.663645   -0.030503    0.541187    11.00000   -1.20000
AFIX   0
C17   1    0.827035    0.229935    0.554813    11.00000    0.04273    0.03616 =
         0.02046    0.00480    0.00598    0.00665
AFIX  43
H17   2    0.894567    0.162605    0.609455    11.00000   -1.20000
AFIX   0
C18   1    0.865082    0.441190    0.515970    11.00000    0.03446    0.03943 =
         0.02319    0.00106    0.00435   -0.00711
AFIX  43
H18   2    0.958336    0.519899    0.544359    11.00000   -1.20000
AFIX   0
C19   1    0.768621    0.539198    0.436100    11.00000    0.03200    0.02981 =
         0.02395   -0.00095    0.00730   -0.00511
AFIX  43
H19   2    0.796073    0.683375    0.408989    11.00000   -1.20000
AFIX   0
N1    3    0.530704    0.537584    0.314395    11.00000    0.02585    0.02823 =
         0.01914   -0.00056    0.00489    0.00706
O1    4    0.315843    0.885787    0.239722    11.00000    0.02604    0.02730 =
         0.03330    0.00075    0.01381    0.00259
O2    4    0.445434    0.460819    0.007317    11.00000    0.02650    0.03353 =
         0.02391   -0.00075    0.01132   -0.00082
AFIX 148
H20   2    0.479340    0.599559    0.005398    11.00000   -1.50000
AFIX   0
H100  2    0.476086    0.674134    0.320535    11.00000    0.02776
HKLF    4




REM  cu_v537_GuillotICMMO.res in P2(1)
REM wR2 = 0.1077, GooF = S = 1.043, Restrained GooF = 1.043 for all data
REM R1 = 0.0501 for 2081 Fo > 4sig(Fo) and 0.0668 for all 2488 data
REM 205 parameters refined using 1 restraints

END

WGHT      0.0254      0.3507

REM Highest difference peak  0.185,  deepest hole -0.213,  1-sigma level  0.051
Q1    1   0.7205  0.3691  0.0693  11.00000  0.05    0.17
Q2    1   0.2838  0.0810 -0.0218  11.00000  0.05    0.17
Q3    1   0.6976 -0.1373  0.2815  11.00000  0.05    0.16
Q4    1   0.0738  0.7327 -0.1129  11.00000  0.05    0.16
;
_shelx_res_checksum              81511
_shelx_hkl_file
;
   1   0   0  163.55   10.24
  -1   0   0  153.04   10.24
   1   0   0  146.91   10.21
   1   0   0  138.77   10.17
   2   0   0   22.89    1.50
   2   0   0   21.53    1.61
   2   0   0   19.09    1.55
   2   0   0   21.82    1.62
  -2   0   0   21.53    1.64
  -2   0   0   19.75    1.90
   3   0   0    8.03    0.67
   3   0   0    9.05    1.53
   3   0   0    6.73    0.97
  -3   0   0    6.74    1.10
  -3   0   0    8.06    0.93
   3   0   0    8.11    1.14
   3   0   0    5.87    0.80
   3   0   0    7.12    0.95
   4   0   0    5.39    1.11
  -4   0   0    5.84    2.09
   4   0   0    5.12    0.92
   4   0   0    5.41    0.94
   4   0   0    7.60    1.07
   4   0   0    6.83    1.54
   4   0   0    6.70    0.68
  -4   0   0    7.34    1.10
   5   0   0    6.11    1.17
   5   0   0    6.40    0.78
   5   0   0    4.95    2.38
   5   0   0    5.56    1.82
  -5   0   0    5.24    0.96
   5   0   0    6.49    1.19
   6   0   0   -0.97    7.00
  -6   0   0   10.06    1.27
  -6   0   0   11.36    1.60
  -6   0   0   12.10    1.96
   6   0   0    8.40    1.29
   6   0   0   10.66    1.31
  -6   0   0   13.57    1.81
  -7   0   0    0.52    1.28
  -7   0   0   -1.09    0.93
   7   0   0    0.07    1.12
  -8   0   0    1.27    2.65
  -8   0   0    3.22    1.50
  -8   0   0    0.02    0.83
  -8   0   0    1.40    1.07
   8   0   0    2.04    1.77
  -9   0   0    2.93    1.23
  -9   0   0    3.72    1.57
   9   0   0    2.05    1.64
  -9   0   0    2.85    1.06
 -10   0   0    2.15    1.04
 -10   0   0    4.34    1.03
 -10   0   0    2.89    1.00
   0  -1   0   -0.14    0.54
   0  -1   0   -0.44    0.50
   0   1   0   -0.15    0.13
   0   1   0   -0.35    0.52
   1  -1   0  607.40   45.27
  -1  -1   0  672.32   45.13
   1  -1   0  702.73   45.26
  -1  -1   0  771.60   45.23
   1  -1   0  574.66   45.12
  -1  -1   0  695.55   45.18
  -1   1   0  680.88   45.25
   1   1   0  674.83   45.18
  -1   1   0  647.37   45.16
   1   1   0  660.12   45.21
   2  -1   0  120.44    8.03
   2  -1   0  112.25    8.30
   2  -1   0  116.56    8.24
  -2  -1   0  123.76    8.12
  -2   1   0  117.80    8.11
   2   1   0  105.91    8.01
   2   1   0  128.69    8.20
   2   1   0  118.68    8.08
   3  -1   0   62.25    4.27
   3  -1   0   55.89    4.63
   3  -1   0   57.32    4.20
   3  -1   0   66.89    4.78
   3  -1   0   59.49    4.22
  -3  -1   0   60.73    4.21
  -3  -1   0   67.03    4.66
   3   1   0   60.34    4.20
  -3   1   0   53.32    4.93
   3   1   0   59.31    4.33
  -3   1   0   56.45    4.41
   3   1   0   70.43    4.58
   4  -1   0   40.24    2.87
   4  -1   0   42.73    2.78
   4  -1   0   31.24    3.74
   4  -1   0   40.38    3.78
  -4  -1   0   38.97    4.39
   4   1   0   42.12    3.61
  -4   1   0   30.08    4.84
  -4   1   0   37.69    3.58
   4   1   0   40.02    3.06
   4   1   0   37.55    2.78
   5  -1   0   24.27    2.30
  -5  -1   0   26.86    2.19
   5  -1   0   25.99    4.76
   5  -1   0   29.54    2.08
   5  -1   0   27.80    2.32
   5   1   0   27.13    4.05
   5   1   0   24.20    2.08
   5   1   0   28.23    3.00
   6  -1   0    2.52    0.99
  -6  -1   0    2.88    1.01
   6  -1   0    2.16    1.27
  -6  -1   0    2.42    1.12
  -6  -1   0    3.13    0.96
   6  -1   0    1.33    1.19
  -6   1   0    0.88    1.61
   6   1   0    3.04    1.10
  -6   1   0    3.04    0.99
  -6   1   0    4.57    1.26
   6   1   0    3.41    1.65
  -7  -1   0    2.12    1.50
  -7  -1   0    5.10    1.22
   7  -1   0    4.14    1.89
  -7  -1   0    2.32    0.67
   7  -1   0    1.35    1.00
   7  -1   0    3.94    1.12
  -7   1   0    1.17    1.05
   7   1   0    1.70    2.02
  -7   1   0    4.39    1.89
  -7   1   0    1.18    1.93
  -8  -1   0   15.18    1.48
   8  -1   0   12.22    2.18
  -8  -1   0   17.25    2.13
  -8  -1   0   13.53    2.16
   8  -1   0   12.43    2.36
  -8   1   0   13.65    2.08
  -8   1   0   14.31    2.48
  -9  -1   0   15.86    1.94
   9  -1   0   12.77    2.25
  -9  -1   0   17.69    2.00
  -9  -1   0   18.31    2.33
  -9   1   0   10.97    1.65
 -10  -1   0    3.43    0.80
  10  -1   0    1.48    0.86
 -10  -1   0    2.49    1.03
 -10   1   0    4.36    1.27
 -10   1   0    1.64    0.84
   0  -2   0   98.71    6.63
   0  -2   0   91.06    6.57
   0  -2   0   82.27    6.58
  -1  -2   0   42.14    3.52
   1  -2   0   41.46    3.81
   1  -2   0   40.60    3.67
   1  -2   0   37.23    3.69
  -1  -2   0   43.66    3.57
  -1   2   0   44.27    3.02
   1   2   0   48.23    2.96
   1   2   0   42.78    3.46
   2  -2   0   47.44    4.47
  -2  -2   0   46.20    3.49
   2  -2   0   53.82    4.57
   2  -2   0   51.80    3.51
   2  -2   0   52.97    3.54
   2   2   0   54.96    3.54
   2   2   0   44.29    4.76
  -2   2   0   46.97    3.61
   3  -2   0   24.87    3.36
   3  -2   0   23.20    2.10
  -3  -2   0   18.69    3.64
  -3  -2   0   21.95    1.72
   3   2   0   24.87    1.89
   3   2   0   23.08    2.98
  -3   2   0   19.38    2.25
  -4  -2   0    0.26    0.60
   4  -2   0    1.15    0.79
   4  -2   0    0.59    0.76
   4  -2   0    0.09    0.47
   4  -2   0    2.77    2.70
   4   2   0    0.89    1.09
   4   2   0    1.73    2.80
   5  -2   0   36.66    2.77
   5  -2   0   28.79    3.04
  -5  -2   0   26.70    2.77
  -5  -2   0   32.54    3.12
  -5  -2   0   34.46    2.61
   5  -2   0   36.86    3.23
  -5   2   0   31.23    3.57
  -5   2   0   35.73    2.63
  -5   2   0   34.46    7.25
   5   2   0   31.08    3.77
  -5   2   0   29.35    2.70
   6  -2   0   10.70    1.57
   6  -2   0    6.88    1.35
  -6  -2   0    9.83    1.43
  -6  -2   0   11.76    1.23
  -6  -2   0    9.34    1.32
   6  -2   0    9.36    1.78
  -6  -2   0    9.94    1.54
  -6   2   0   10.02    1.51
  -6   2   0    9.97    1.59
  -6   2   0    6.76    1.88
  -7  -2   0   23.46    2.45
  -7  -2   0   24.71    2.48
   7  -2   0   26.48    2.55
  -7  -2   0   26.65    2.62
  -7  -2   0   25.24    2.07
   7  -2   0   23.46    2.54
   7  -2   0   23.88    2.80
  -7   2   0   25.36    2.42
  -7   2   0   22.56    2.34
  -7   2   0   22.09    4.38
   8  -2   0    5.02    2.14
  -8  -2   0    6.74    1.67
   8  -2   0    3.98    1.10
  -8  -2   0    3.74    0.73
  -8  -2   0    3.41    1.08
  -8   2   0    5.72    2.07
  -8   2   0    3.08    0.99
  -9  -2   0    1.99    2.55
  -9  -2   0    2.41    0.47
  -9  -2   0    3.34    1.01
  -9   2   0    3.89    0.89
  -9   2   0    4.13    1.50
  10  -2   0   10.23    1.26
 -10  -2   0   11.46    1.28
 -10  -2   0   10.52    1.61
 -10   2   0    8.02    1.78
 -10   2   0    9.47    1.23
   0  -3   0    3.15    2.35
   0   3   0    2.71    2.85
   1  -3   0   11.78    1.36
   1  -3   0   16.06    4.08
  -1  -3   0   15.04    2.95
  -1   3   0   15.05    4.04
   2  -3   0   39.57    2.91
   2  -3   0   35.69    6.10
  -2  -3   0   30.68    3.20
   2  -3   0   41.95    2.93
  -2   3   0   41.03    2.93
  -2   3   0   35.45    3.30
   3  -3   0    4.79    0.96
  -3  -3   0    4.48    0.78
   3  -3   0    3.12    1.00
   3   3   0    1.88    3.23
  -3   3   0    3.85    1.06
  -3   3   0    6.00    1.72
  -3   3   0    3.50    0.77
   4  -3   0   18.71    1.91
  -4  -3   0   15.62    2.17
   4  -3   0   20.67    2.09
  -4   3   0   20.56    2.11
   4   3   0   20.91    3.45
  -4   3   0   19.72    1.85
  -4   3   0   24.88    3.18
  -5  -3   0   53.51    4.97
   5  -3   0   64.64    4.91
   5  -3   0   62.77    4.70
  -5   3   0   60.09    5.68
  -5   3   0   66.38    4.62
  -5   3   0   66.81    4.74
   6  -3   0    1.28    1.22
   6  -3   0    3.52    1.22
  -6  -3   0    5.42    1.28
  -6  -3   0    1.63    0.84
   6  -3   0    3.61    1.52
  -6  -3   0    6.96    1.86
  -6   3   0    3.79    0.94
  -6   3   0    4.05    1.19
  -6   3   0    7.44    2.48
  -6   3   0    4.81    3.04
   7  -3   0    3.16    1.12
  -7  -3   0    3.36    0.78
  -7  -3   0    5.15    1.21
   7  -3   0    4.14    1.74
  -7  -3   0    4.23    1.38
  -7   3   0    7.47    2.62
  -7   3   0    3.32    1.03
   8  -3   0    1.59    0.92
  -8  -3   0    0.17    0.60
   8  -3   0    3.16    2.38
  -8  -3   0   -2.54    1.53
  -8  -3   0   -0.32    1.00
  -8   3   0    4.43    1.80
  -8   3   0    1.46    0.81
  -9  -3   0    0.78    0.45
  -9  -3   0    0.61    0.75
   9  -3   0    1.34    0.78
  -9  -3   0    1.69    1.17
  -9   3   0    2.19    0.73
   0   4   0   16.93    3.32
   0   4   0   12.78    1.63
  -1   4   0   22.58    1.90
  -1   4   0   21.15    3.20
  -2  -4   0   16.51    1.81
   3  -4   0   12.01    2.10
  -3   4   0   13.15    1.98
  -3   4   0   11.60    1.51
   4  -4   0    5.23    1.45
   4  -4   0    4.98    1.47
  -4  -4   0    4.71    1.27
  -4   4   0    4.42    0.82
  -5  -4   0    5.82    1.43
   5  -4   0    3.21    1.58
  -5   4   0    6.81    1.31
  -5   4   0    5.26    1.34
   6  -4   0   13.88    2.69
  -6  -4   0   19.48    2.52
   6  -4   0   18.61    2.74
  -6   4   0   16.60    4.42
  -6   4   0   20.83    2.11
   7  -4   0    3.12    1.99
  -7  -4   0    0.35    1.50
  -7  -4   0    1.40    1.27
  -7  -4   0    2.65    0.76
   7  -4   0    3.71    1.17
  -7   4   0    3.81    0.75
  -7   4   0    3.90    0.85
  -8  -4   0    0.76    0.52
  -8  -4   0    3.49    1.37
   8  -4   0    0.82    0.91
  -8  -4   0    0.39    1.06
  -8   4   0    1.24    0.68
  -8   4   0    2.38    0.72
   0   5   0    0.08    0.89
   0   5   0    0.92    2.13
   1   5   0   -0.41    3.00
  -1   5   0    2.97    1.67
  -1   5   0    3.70    0.83
   2  -5   0   19.71    3.31
  -2   5   0   18.30    1.77
  -2   5   0   13.75    2.77
  -3  -5   0   11.60    2.22
   3  -5   0   15.86    2.22
  -3   5   0   14.53    1.62
   4  -5   0    2.32    2.16
  -4  -5   0    1.06    1.95
  -4   5   0    0.94    0.85
  -5  -5   0    5.85    2.14
   5  -5   0    7.52    2.05
  -5   5   0    7.88    1.68
  -6  -5   0    2.04    1.03
  -6   5   0    0.25    1.51
  -6   5   0    1.75    0.54
   0   6   0    1.88    1.97
  -1   6   0    1.42    2.00
  -2   6   0    4.99    1.49
  -2   6   0    5.30    0.83
  -3   6   0    2.53    0.61
  -3   6   0    2.49    1.13
 -10   0   1    2.14    0.87
  10   0  -1    3.22    1.05
 -10   0   1    2.97    1.38
  -9   0   1   -0.33    0.76
  -9   0   1    0.35    1.26
  -9   0   1    0.03    1.67
   9   0  -1    0.31    1.22
  -8   0   1    3.26    1.07
   8   0  -1    2.64    1.23
  -8   0   1    2.71    0.85
  -8   0   1    1.32    1.72
  -8   0   1    4.02    1.16
  -7   0   1   15.87    1.61
  -7   0   1   22.12    2.95
   7   0  -1   18.74    1.96
  -7   0   1   13.12    1.83
  -7   0   1   15.80    2.00
   7   0  -1   15.74    2.19
  -6   0   1    0.24    1.07
  -6   0   1    4.01    1.05
  -6   0   1    2.03    1.31
   6   0  -1    2.31    0.67
   6   0  -1    1.51    1.55
   6   0  -1    1.43    2.97
   6   0  -1    2.25    1.19
  -6   0   1    1.24    0.67
   5   0  -1   20.57    2.43
   5   0  -1   20.71    2.07
  -5   0   1   21.61    1.98
   5   0  -1   22.74    3.64
   4   0  -1  245.87   19.74
   4   0  -1  293.20   19.86
  -4   0   1  319.63   19.69
   4   0  -1  314.29   19.68
   4   0  -1  283.81   19.71
   4   0  -1  316.94   20.06
  -4   0   1  256.30   20.15
  -3   0   1    9.15    1.76
   3   0  -1   10.23    1.05
   3   0  -1    8.23    0.90
  -3   0   1    9.22    1.18
   3   0  -1   11.95    1.30
   3   0  -1   11.55    1.63
  -3   0   1    9.99    1.03
  -2   0   1   12.15    1.04
  -2   0   1   13.98    1.48
   2   0  -1   11.95    1.02
   2   0  -1   10.42    0.97
   1   0  -1   38.45    2.88
  -1   0   1   36.67    2.88
   1   0  -1   44.08    2.95
   1   0  -1   43.76    2.85
  -1   0   1   45.61    2.97
   0   0   1   17.01    1.25
   0   0  -1   17.13    1.25
   0   0   1   20.98    1.28
   1   0   1   -0.07    0.21
  -1   0  -1   -0.23    0.36
  -1   0  -1   -0.12    0.42
   1   0   1   -0.35    0.31
  -1   0  -1    0.14    0.28
   2   0   1   23.78    1.63
   2   0   1   26.37    1.94
  -2   0  -1   23.03    1.80
   2   0   1   23.40    1.77
  -2   0  -1   19.95    2.01
   2   0   1   22.00    1.69
   3   0   1    8.94    1.31
   3   0   1   11.01    0.85
  -3   0  -1    9.28    1.49
  -3   0  -1   11.64    1.08
   3   0   1   10.35    1.18
   3   0   1   11.67    1.67
   3   0   1   10.10    1.00
   4   0   1   40.05    3.04
  -4   0  -1   42.62    2.93
   4   0   1   34.30    2.91
   4   0   1   39.62    3.59
   4   0   1   43.86    2.79
  -4   0  -1   31.83    4.31
   5   0   1   40.95    5.22
   5   0   1   51.88    3.36
   5   0   1   42.09    3.49
   5   0   1   43.52    3.74
  -5   0  -1   50.12    3.48
  -6   0  -1    2.81    1.07
  -6   0  -1    1.31    0.58
   6   0   1    2.60    0.84
   6   0   1    2.25    1.08
  -6   0  -1    3.16    1.10
  -6   0  -1    3.19    1.40
   6   0   1    2.01    0.92
  -7   0  -1   61.74    4.17
  -7   0  -1   53.54    4.48
   7   0   1   59.05    4.54
  -7   0  -1   58.98    4.44
  -8   0  -1   25.13    2.30
   8   0   1   27.92    2.77
  -8   0  -1   24.66    2.64
  -9   0  -1   18.12    2.11
   9   0   1   18.73    2.06
 -10   0  -1    3.72    1.67
 -10   0  -1    0.90    0.97
 -10   0  -1    1.11    0.95
 -10  -1   1    5.43    1.11
  10  -1  -1    3.00    0.89
 -10  -1   1    4.15    1.11
 -10  -1   1    4.77    0.93
 -10   1   1    2.52    0.87
 -10   1   1    4.09    1.25
  -9  -1   1   22.09    3.14
  -9  -1   1   19.98    1.92
  -9  -1   1   25.52    2.23
   9  -1  -1   26.42    2.37
  -9   1   1   19.89    2.07
  -9   1   1   31.74    3.67
  -9   1   1   29.82    3.19
  -8  -1   1   18.24    2.70
   8  -1  -1   17.15    2.76
  -8  -1   1   21.30    1.83
   8  -1  -1   26.80    3.27
  -8  -1   1   15.28    2.78
   8   1  -1   16.75    2.48
  -8   1   1   21.33    2.36
  -8   1   1   20.08    2.89
  -7  -1   1   54.01    3.54
   7  -1  -1   47.12    4.23
  -7  -1   1   51.97    3.83
  -7  -1   1   48.67    3.88
   7  -1  -1   51.26    3.75
   7  -1  -1   50.80    4.01
  -7  -1   1   43.54    3.93
  -7   1   1   38.57    4.05
   7   1  -1   43.97    4.16
  -7   1   1   49.98    3.90
   6  -1  -1    5.62    1.16
   6  -1  -1    3.25    1.23
   6  -1  -1    6.27    1.20
  -6  -1   1    4.52    1.00
  -6  -1   1    5.77    1.18
  -6  -1   1    5.65    0.99
  -6  -1   1    4.73    1.06
  -6   1   1    5.58    1.34
  -6   1   1    4.69    0.97
   6   1  -1    8.58    2.90
   6   1  -1    3.83    2.10
   6   1  -1    4.12    1.04
  -6   1   1    5.82    2.15
   6   1  -1    4.23    1.53
   5  -1  -1   63.19    4.63
  -5  -1   1   57.46   11.44
   5  -1  -1   65.58    5.39
   5  -1  -1   54.92    6.03
  -5  -1   1   66.58    4.51
   5  -1  -1   63.26    4.45
   5   1  -1   67.56    5.78
   5   1  -1   63.79    4.87
   5   1  -1   61.64    4.47
   4  -1  -1  131.20    9.37
   4  -1  -1  118.32    9.38
   4  -1  -1  126.87    9.05
  -4  -1   1  129.25    8.84
   4  -1  -1  128.06    8.82
   4  -1  -1  128.95    8.88
  -4  -1   1  134.58    9.63
   4   1  -1  122.56    8.83
   4   1  -1  129.02    9.02
   4   1  -1  141.62    9.30
  -3  -1   1  172.06   11.25
   3  -1  -1  171.48   11.40
   3  -1  -1  151.63   11.25
  -3  -1   1  185.31   11.72
   3  -1  -1  177.72   11.61
   3  -1  -1  164.82   11.26
   3  -1  -1  161.38   11.55
   3  -1  -1  164.72   11.28
   3   1  -1  167.63   11.27
   3   1  -1  167.81   11.27
   3   1  -1  180.29   11.38
  -3   1   1  142.46   11.71
  -3   1   1  144.78   11.41
   2  -1  -1  305.21   20.89
  -2  -1   1  340.13   20.87
   2  -1  -1  261.45   20.67
  -2  -1   1  316.21   20.76
   2  -1  -1  299.91   20.74
   2  -1  -1  313.98   20.87
   2  -1  -1  284.55   20.66
   2   1  -1  318.99   20.74
   2   1  -1  324.98   20.83
   2   1  -1  328.91   20.74
  -2   1   1  307.11   20.75
   2   1  -1  268.73   20.68
   1  -1  -1  245.96   16.89
   1  -1  -1  267.78   17.05
  -1  -1   1  261.70   16.99
   1  -1  -1  227.71   17.01
  -1  -1   1  240.36   16.90
   1   1  -1  260.14   16.97
  -1   1   1  247.13   16.90
   1   1  -1  239.96   16.98
   1   1  -1  256.57   16.91
   0  -1  -1  255.00   15.90
   0  -1   1  244.02   15.89
   0  -1  -1  196.81   15.84
   0  -1   1  229.21   15.88
   0  -1  -1  233.83   15.85
   0   1  -1  237.81   15.90
   0   1  -1  239.19   15.80
   0   1   1  231.92   15.75
  -1  -1  -1    5.58    0.82
   1  -1   1    5.29    0.54
  -1  -1  -1    6.08    0.55
   1  -1   1    5.40    0.92
   1  -1   1    6.37    1.04
  -1   1  -1    5.49    0.65
  -1   1  -1    7.32    1.05
   1   1   1    5.38    0.58
   1   1   1    6.13    0.80
  -2  -1  -1   40.16    2.92
   2  -1   1   39.81    3.11
  -2  -1  -1   43.62    3.00
   2  -1   1   41.55    2.82
   2  -1   1   35.98    3.23
   2  -1   1   43.59    2.93
   2   1   1   34.66    2.86
   2   1   1   45.05    3.04
   2   1   1   36.17    2.76
  -2   1  -1   38.40    3.09
   2   1   1   41.13    2.88
  -2   1  -1   42.45    2.96
   3  -1   1   52.71    3.52
   3  -1   1   46.83    3.94
   3  -1   1   47.55    3.47
   3  -1   1   50.87    3.55
   3  -1   1   50.95    4.13
  -3  -1  -1   50.78    3.97
  -3  -1  -1   52.40    3.49
   3   1   1   44.93    3.57
  -3   1  -1   46.67    3.78
   3   1   1   52.56    3.64
   3   1   1   50.97    3.46
  -4  -1  -1   14.63    3.60
   4  -1   1   16.58    2.92
   4  -1   1   13.50    1.43
   4  -1   1   11.84    1.30
   4  -1   1   13.58    1.11
   4  -1   1   10.50    2.35
  -4  -1  -1   13.07    1.29
   4   1   1   15.43    2.15
  -4   1  -1    9.34    2.94
   4   1   1   13.24    1.59
   4   1   1   11.74    1.12
   5  -1   1    9.54    1.57
  -5  -1  -1    9.81    1.35
   5  -1   1   10.36    1.12
   5  -1   1    7.15    2.89
   5  -1   1   10.64    1.46
   5  -1   1   10.75    1.95
   5   1   1    4.65    2.88
   5   1   1    9.43    1.18
  -6  -1  -1   21.97    2.28
   6  -1   1   22.37    2.48
   6  -1   1   22.52    2.52
  -6  -1  -1   18.18    2.59
   6  -1   1   23.27    2.38
  -6  -1  -1   23.53    1.89
  -6  -1  -1   25.78    2.27
   6  -1   1   23.00    2.08
  -6   1  -1   24.98    1.97
  -6   1  -1   25.64    3.01
   6   1   1   19.94    2.95
  -6   1  -1   27.14    2.48
  -6   1  -1   19.74    2.62
  -7  -1  -1   38.89    2.83
  -7  -1  -1   40.49    3.23
   7  -1   1   41.35    3.28
  -7  -1  -1   30.18    3.40
  -7  -1  -1   39.35    3.24
  -7   1  -1   31.91    3.08
  -7   1  -1   38.97    3.40
  -7   1  -1   44.94    3.92
   8  -1   1   37.25    3.15
  -8  -1  -1   33.18    3.04
  -8  -1  -1   43.92    3.62
  -8  -1  -1   40.40    3.07
  -8  -1  -1   35.33    2.67
  -8  -1  -1   29.99    3.64
  -8   1  -1   29.70    2.92
  -8   1  -1   36.40    3.36
  -9  -1  -1    2.26    0.89
   9  -1   1    0.74    0.85
  -9  -1  -1    1.05    0.49
  -9  -1  -1    3.31    1.29
  -9   1  -1    1.27    0.93
  -9   1  -1   -1.51    1.21
  -9   1  -1    0.74    1.41
  10  -1   1    2.87    0.86
 -10  -1  -1    2.46    0.99
 -10  -1  -1    3.15    0.87
 -10   1  -1    1.86    0.88
 -10   1  -1    4.38    1.11
  10  -2  -1    1.42    0.66
 -10  -2   1    1.14    0.76
 -10  -2   1    1.66    0.49
 -10   2   1    2.13    0.71
 -10   2   1    3.96    1.79
  -9  -2   1    3.12    1.70
  -9  -2   1    1.41    0.46
  -9  -2   1    4.63    1.40
  -9  -2   1   -2.61    2.26
   9  -2  -1    1.39    0.87
  -9  -2   1   -0.78    0.89
  -9   2   1   -0.21    0.77
  -9   2   1    1.81    1.65
  -8  -2   1    5.09    1.15
  -8  -2   1    7.71    1.65
   8  -2  -1   12.16    2.22
   8  -2  -1    8.72    3.37
  -8  -2   1    7.36    1.34
  -8  -2   1    5.84    1.19
   8  -2  -1    7.84    1.32
  -8   2   1    5.75    2.29
  -8   2   1    6.79    1.42
   7  -2  -1   37.18    3.14
  -7  -2   1   34.94    3.29
  -7  -2   1   34.55    3.17
  -7  -2   1   38.01    3.04
   7  -2  -1   33.10    3.25
  -7  -2   1   36.71    2.74
   7  -2  -1   34.91    3.20
  -7   2   1   39.66    3.04
  -7   2   1   27.96    4.17
  -7   2   1   35.18    2.98
  -6  -2   1   -0.48    1.32
   6  -2  -1    2.48    0.90
   6  -2  -1    2.12    1.14
  -6  -2   1    2.25    1.00
  -6  -2   1    2.48    0.93
  -6  -2   1    2.89    0.58
   6  -2  -1    3.48    1.01
  -6   2   1    1.87    1.21
   6   2  -1    0.73    3.72
  -6   2   1    1.55    0.97
  -6   2   1   -0.31    1.99
  -5  -2   1    0.34    1.21
   5  -2  -1    2.00    0.91
   5  -2  -1    1.89    0.58
   5  -2  -1    3.61    1.34
  -5  -2   1    1.40    1.40
  -5   2   1    2.49    0.95
  -5   2   1    1.83    0.93
   5   2  -1    4.01    1.71
   5   2  -1    4.11    2.09
   4  -2  -1   39.83    6.47
  -4  -2   1   43.18    3.29
  -4  -2   1   35.41    6.35
   4  -2  -1   47.46    3.29
   4  -2  -1   49.73    3.40
   4   2  -1   48.39    3.57
   4   2  -1   45.14    4.88
   3  -2  -1   20.88    1.69
   3  -2  -1   22.23    1.76
  -3  -2   1   20.90    1.64
   3  -2  -1   18.41    3.51
   3  -2  -1   20.74    1.74
   3  -2  -1   21.23    3.07
  -3  -2   1   21.94    3.81
   3   2  -1   20.59    2.97
   3   2  -1   22.53    1.79
   2  -2  -1    5.06    1.99
   2  -2  -1    2.64    1.57
   2  -2  -1    3.08    0.58
  -2  -2   1    3.47    0.53
  -2  -2   1    6.10    1.67
   2  -2  -1    3.48    0.51
   2   2  -1    2.99    1.49
   2   2  -1    3.88    1.13
  -2   2   1    2.92    0.69
   2   2  -1    3.26    0.61
  -1  -2   1   68.71    5.03
   1  -2  -1   61.13    5.07
   1  -2  -1   63.99    5.26
  -1  -2   1   69.78    5.02
   1  -2  -1   62.63    5.04
  -1   2   1   66.78    4.57
   1   2  -1   73.23    4.59
   1   2  -1   62.35    4.98
   1   2  -1   68.54    4.99
   0  -2   1   26.59    2.76
   0  -2   1   28.10    2.76
   0  -2  -1   26.65    2.74
   0  -2  -1   23.17    2.52
   0  -2  -1   25.63    2.47
   0   2  -1   27.19    2.60
   0   2  -1   28.57    1.91
   1  -2   1  112.98    8.45
   1  -2   1  111.06    8.54
  -1  -2  -1  115.81    8.32
  -1  -2  -1  126.46    8.36
   1  -2   1  117.83    8.53
  -1   2  -1  120.96    8.08
  -1   2  -1  114.19    8.39
   1   2   1  110.22    8.29
  -1   2  -1  127.10    8.08
   2  -2   1  115.15    9.16
   2  -2   1  118.69    9.14
  -2  -2  -1  113.05    8.46
  -2  -2  -1  142.24    8.92
   2  -2   1  127.42    8.51
   2  -2   1  128.89    8.52
  -2   2  -1  124.54    8.85
   2   2   1  123.66    8.87
   3  -2   1   13.53    1.44
   3  -2   1   14.55    1.30
   3  -2   1   13.02    3.28
   3   2   1   14.16    2.29
   4  -2   1    5.85    1.24
   4  -2   1    9.63    3.22
   4  -2   1    7.43    1.27
  -4  -2  -1    6.37    1.06
   4  -2   1    5.49    0.97
  -4   2  -1   15.85    6.38
   4   2   1    9.14    3.00
  -5  -2  -1    6.46    1.20
   5  -2   1    9.99    1.84
  -5  -2  -1   10.47    1.49
   5  -2   1    7.16    1.44
   5  -2   1    9.03    1.50
   5  -2   1    7.92    1.21
  -5   2  -1    9.07    1.16
  -5   2  -1    7.72    1.34
  -5   2  -1    8.74    1.76
   6  -2   1   15.08    2.61
   6  -2   1   10.10    1.79
   6  -2   1   11.79    1.88
  -6   2  -1   11.02    1.80
  -6   2  -1   11.54    1.80
  -7  -2  -1   24.03    2.44
  -7  -2  -1   23.93    2.50
   7  -2   1   23.79    2.49
   7  -2   1   23.77    2.81
   7  -2   1   21.66    2.69
  -7  -2  -1   21.88    1.98
  -7   2  -1   27.76    2.20
  -7   2  -1   23.30    3.65
  -7   2  -1   20.29    2.24
   8  -2   1   28.09    2.51
  -8  -2  -1   26.05    2.43
   8  -2   1   25.30    3.79
  -8  -2  -1   24.57    2.02
  -8  -2  -1   20.35    2.89
  -8   2  -1   25.14    2.25
  -8   2  -1   25.42    3.60
  -9  -2  -1    1.21    0.42
   9  -2   1    1.38    0.72
  -9  -2  -1    4.67    2.80
  -9  -2  -1    2.10    0.90
  -9  -2  -1    3.24    1.30
  -9   2  -1    2.54    0.86
  -9   2  -1    2.57    1.27
  -9  -3   1    4.41    1.25
   9  -3  -1    3.39    0.86
  -9  -3   1    2.38    0.49
  -9  -3   1    2.04    0.81
  -9   3   1    1.56    0.66
  -8  -3   1    2.06    1.05
  -8  -3   1    5.20    0.88
   8  -3  -1    2.92    2.46
   8  -3  -1    4.37    1.09
  -8  -3   1    4.28    1.91
  -8   3   1    3.48    0.88
  -8   3   1    3.68    0.78
  -7  -3   1    6.72    0.96
   7  -3  -1    2.89    2.06
  -7  -3   1    8.37    1.47
  -7  -3   1    8.18    1.37
  -7   3   1    8.26    1.37
  -7   3   1    6.18    3.65
  -7   3   1    8.20    2.94
  -7   3   1    9.55    1.49
   6  -3  -1   62.08    4.97
   6  -3  -1   64.77    4.94
   6  -3  -1   63.01    4.99
  -6  -3   1   58.35    4.90
  -6  -3   1   64.00    4.61
  -6  -3   1   61.78    4.79
  -6   3   1   73.85    4.68
  -6   3   1   63.58    6.62
  -6   3   1   70.15    4.83
  -6   3   1   58.54    6.03
  -5  -3   1    1.15    0.87
   5  -3  -1    1.99    1.14
  -5  -3   1    1.74    1.60
  -5  -3   1    3.83    0.98
   5  -3  -1    0.56    1.38
   5  -3  -1    1.83    1.05
  -5   3   1    0.55    2.04
   4  -3  -1   13.88    1.49
   4  -3  -1   10.40    1.73
  -4  -3   1   11.76    1.47
  -4   3   1   13.06    2.90
   4   3  -1   15.98    2.56
  -4   3   1   12.96    1.92
  -4   3   1   10.73    1.46
  -3  -3   1   17.89    1.73
   3  -3  -1   23.15    1.98
   3  -3  -1   20.56    1.74
   3   3  -1   22.27    1.98
  -3   3   1   18.93    1.79
  -3   3   1   16.74    2.31
  -3   3   1   19.67    3.41
   3   3  -1   19.02    4.12
   2  -3  -1   37.70    5.73
   2  -3  -1   44.83    3.37
  -2   3   1   49.05    3.36
  -2   3   1   45.42    3.35
  -1  -3   1   64.33    6.32
   1  -3  -1   67.74    6.32
   1   3  -1   75.43    6.13
   0  -3  -1  114.56    8.76
   0  -3   1  110.99    9.01
   1  -3   1   33.30    5.03
   1  -3   1   34.91    2.73
  -1  -3  -1   37.39    5.12
   1  -3   1   35.68    2.75
  -1   3  -1   29.48    5.57
  -1   3  -1   39.07    2.69
  -1   3  -1   37.49    2.75
   2  -3   1    6.93    1.27
  -2  -3  -1    5.83    0.97
   2  -3   1    5.80    1.18
   2  -3   1    8.16    5.53
  -2   3  -1    7.89    1.88
  -2   3  -1    7.80    1.32
  -2   3  -1    5.87    0.98
  -2   3  -1   17.57    7.53
  -3  -3  -1    3.87    0.77
   3  -3   1    2.92    1.19
   3  -3   1    4.36    1.06
  -3   3  -1    1.27    1.63
  -3   3  -1    4.00    1.66
  -3   3  -1    3.09    0.73
  -3   3  -1    5.00    2.20
  -3   3  -1    2.02    0.88
   4  -3   1   13.89    1.82
   4  -3   1   14.64    1.69
  -4  -3  -1   13.99    1.63
   4  -3   1   16.23    2.81
  -4   3  -1   16.01    1.76
  -4   3  -1   20.82    3.34
  -4   3  -1   12.16    3.00
  -4   3  -1   13.85    1.56
  -4   3  -1   15.44    3.22
   5  -3   1    4.96    1.44
  -5  -3  -1    6.20    1.18
  -5  -3  -1    4.69    1.64
   5  -3   1    3.97    1.85
   5  -3   1    2.44    1.08
  -5   3  -1    5.14    1.04
  -5   3  -1    5.35    2.26
  -5   3  -1    4.69    2.55
   6  -3   1    4.02    1.59
   6  -3   1    5.56    1.45
  -6  -3  -1    5.21    1.33
   6  -3   1    5.02    1.35
  -6  -3  -1    6.33    0.94
  -6  -3  -1    6.94    1.38
  -6   3  -1    4.52    1.13
  -6   3  -1    6.85    3.07
  -6   3  -1    5.72    1.09
  -6   3  -1    5.83    2.83
  -7  -3  -1    1.89    1.09
   7  -3   1    1.99    0.98
   7  -3   1    2.92    1.86
  -7  -3  -1    2.22    0.70
  -7  -3  -1    0.21    1.29
  -7   3  -1    3.91    2.36
  -7   3  -1    3.07    0.99
   8  -3   1    1.08    2.49
  -8  -3  -1    0.56    1.18
  -8  -3  -1   -0.04    0.57
   8  -3   1    0.65    0.94
  -8  -3  -1    1.24    1.29
  -8  -3  -1    2.69    1.69
  -8   3  -1   -0.21    0.76
  -8   3  -1   -1.20    1.77
  -9  -3  -1    2.03    0.68
  -9  -3  -1    1.39    0.42
   9  -3   1    1.43    0.73
  -9  -3  -1    2.31    0.96
  -9   3  -1   -1.14    1.62
  -9   3  -1    2.03    0.68
  -8  -4   1    5.34    1.35
  -8  -4   1    9.25    1.02
   8  -4  -1    7.86    1.49
  -8   4   1    7.44    1.15
  -8   4   1   10.35    1.07
   7  -4  -1    0.21    1.11
   7  -4  -1    1.75    1.86
  -7  -4   1    0.63    0.70
  -7  -4   1   -0.93    1.39
  -7  -4   1   -0.46    1.31
  -7   4   1    1.23    0.68
  -7   4   1   -1.21    2.32
  -7   4   1    1.83    0.89
  -6  -4   1    7.18    1.47
   6  -4  -1    3.47    1.70
  -6  -4   1    3.75    0.99
   6  -4  -1    7.68    1.74
  -6   4   1    4.59    1.34
  -6   4   1    5.85    1.89
   5  -4  -1   40.78    3.78
  -5  -4   1   41.31    3.60
   5  -4  -1   39.59    4.01
  -5   4   1   44.38    3.24
  -5   4   1   47.02    3.60
   4  -4  -1   26.41    2.83
   4  -4  -1   27.13    2.56
  -4  -4   1   22.33    2.49
  -4   4   1   19.52    2.70
  -4   4   1   25.75    2.16
   3  -4  -1   14.19    2.61
  -3   4   1   14.44    3.02
  -3   4   1   13.42    2.22
  -3   4   1   13.74    1.56
   2  -4  -1   15.77    2.36
  -2  -4   1   17.53    1.88
   2  -4  -1   17.97    2.06
  -2   4   1   18.28    2.21
   1   4  -1   24.76    4.00
  -1   4   1   18.94    1.89
  -1   4   1   18.98    3.61
   0  -4   1    4.40    1.17
   0   4   1    2.02    0.84
   0   4   1    3.09    1.92
   0   4  -1    1.78    1.65
   0   4  -1    2.54    0.76
  -1   4  -1    4.94    1.64
  -1   4  -1    6.09    4.10
  -1   4  -1    7.76    2.32
  -1   4  -1    6.06    1.13
  -2   4  -1   -1.36    5.12
  -2   4  -1    1.81    2.40
   3  -4   1    9.70    1.94
   3  -4   1   10.27    1.61
  -3   4  -1   11.13    1.87
  -3   4  -1   10.39    1.36
  -3   4  -1    7.81    2.77
   4  -4   1    4.74    1.57
   4  -4   1    1.92    1.40
  -4  -4  -1    4.56    1.27
  -4   4  -1    3.17    1.09
  -4   4  -1    1.75    2.86
  -4   4  -1    2.81    1.57
  -4   4  -1    3.66    0.81
  -5  -4  -1   13.77    2.33
   5  -4   1   14.14    2.41
   5  -4   1   13.42    2.40
   5  -4   1   11.71    2.71
  -5   4  -1   17.15    1.90
  -5   4  -1    9.76    3.21
   6  -4   1    6.98    1.83
  -6  -4  -1    5.22    1.56
  -6  -4  -1    9.17    1.46
   6  -4   1    8.65    1.46
  -6   4  -1    5.91    2.72
  -6   4  -1   11.17    1.72
  -6   4  -1   10.93    1.59
  -6   4  -1    7.47    2.35
  -7  -4  -1    2.89    0.75
  -7  -4  -1    3.82    1.65
  -7  -4  -1    4.07    1.70
   7  -4   1    4.11    1.07
   7  -4   1    1.65    2.18
  -7   4  -1    5.47    1.03
  -7   4  -1    3.22    0.72
   8  -4   1    1.74    0.86
  -8  -4  -1    2.43    0.52
  -8  -4  -1   -0.06    1.27
  -8  -4  -1    5.02    1.34
   6  -5  -1    5.27    2.53
  -6   5   1    6.59    1.00
   5  -5  -1    4.10    1.98
  -5  -5   1    5.30    1.98
  -5   5   1    6.71    1.09
   4  -5  -1    2.26    2.34
  -4  -5   1    2.52    2.33
  -4   5   1    2.62    1.00
   3  -5  -1    7.54    2.04
  -3  -5   1    5.86    1.81
  -3   5   1    2.91    0.71
  -3   5   1    1.63    1.12
  -2   5   1    9.98    1.53
   1   5  -1   31.35    4.81
  -1   5   1   28.32    2.39
  -1   5   1   25.44    3.92
   0   5   1    3.78    0.98
   0   5  -1    4.49    0.99
   0   5   1    6.84    2.49
   0   5  -1    4.98    2.05
   1  -5   1    3.86    1.91
  -1   5  -1    1.45    1.59
  -1   5  -1    1.67    0.78
   1   5   1   -3.71    3.85
   2  -5   1   20.27    2.83
  -2   5  -1   22.12    1.95
  -2   5  -1   18.56    2.83
   3  -5   1    4.54    1.74
  -3   5  -1    4.51    0.83
  -3   5  -1    2.20    1.42
  -4  -5  -1    9.49    2.25
   4  -5   1    8.18    1.93
  -4   5  -1   10.08    2.12
  -4   5  -1   13.29    1.30
  -5  -5  -1    4.90    2.18
   5  -5   1    4.48    2.04
  -5   5  -1    3.14    1.44
  -6  -5  -1    3.51    0.94
  -6   5  -1    4.24    0.81
  -6   5  -1    1.73    1.44
  -3   6   1    0.78    0.97
  -3   6   1    1.10    0.60
  -2   6   1    2.80    1.53
  -2   6   1    5.07    0.79
  -1   6   1    5.50    1.83
  -1   6   1    4.92    1.01
   0   6   1    6.70    2.45
   0   6  -1   11.86    1.92
  -1   6  -1    0.74    1.01
  -2   6  -1    2.92    0.70
  -2   6  -1    1.56    1.13
  -3   6  -1    7.91    1.47
 -10   0   2    2.43    0.86
  10   0  -2    2.78    1.03
 -10   0   2    3.31    1.16
 -10   0   2    2.82    1.01
   9   0  -2    8.93    1.53
  -9   0   2   15.44    2.29
  -9   0   2   11.29    1.57
  -9   0   2   10.97    1.54
   8   0  -2   12.12    2.12
  -8   0   2    9.92    1.56
   8   0  -2   13.64    2.06
  -8   0   2   12.52    1.59
  -8   0   2   11.64    2.06
  -8   0   2   13.29    1.74
  -7   0   2   -0.75    0.88
   7   0  -2   -0.37    0.87
   7   0  -2   -0.75    1.00
  -7   0   2   -0.58    1.03
  -7   0   2   -0.63    0.68
   6   0  -2   -0.09    1.16
  -6   0   2   -0.07    0.68
  -6   0   2   -0.99    1.07
  -6   0   2   -0.18    1.23
  -6   0   2    0.46    0.79
   6   0  -2   -1.01    1.39
   6   0  -2   -0.10    1.95
   6   0  -2    0.50    0.65
  -5   0   2    7.85    1.30
   5   0  -2    4.33    1.38
   5   0  -2    6.92    2.35
   5   0  -2    8.22    1.00
   5   0  -2    8.38    2.31
  -4   0   2   75.25    6.61
   4   0  -2   78.39    5.93
   4   0  -2   79.12    5.81
   4   0  -2   88.16    6.41
   4   0  -2   87.69    5.72
  -4   0   2   87.58    5.76
  -3   0   2   33.12    3.01
  -3   0   2   28.60    2.57
   3   0  -2   35.31    2.88
   3   0  -2   32.27    2.49
   3   0  -2   35.22    2.36
   3   0  -2   34.54    2.52
   2   0  -2  952.27   61.61
  -2   0   2 1000.00   61.64
  -2   0   2  820.54   61.52
   2   0  -2  869.62   61.52
   1   0  -2   42.70    3.14
   1   0  -2   42.73    3.24
   1   0  -2   45.05    3.10
  -1   0   2   43.34    3.15
  -1   0   2   52.48    3.27
   0   0   2   52.58    3.72
   0   0   2   53.34    3.76
   0   0  -2   57.80    3.77
   1   0   2  138.34   10.53
   1   0   2  170.82   10.50
   2   0   2    2.90    0.52
  -2   0  -2    2.82    0.53
   2   0   2    3.69    0.98
  -2   0  -2    3.97    0.70
  -2   0  -2    3.36    0.73
   2   0   2    2.36    0.36
  -3   0  -2   86.50    5.90
   3   0   2   86.93    6.00
   3   0   2   86.20    5.85
   3   0   2   90.88    6.18
   3   0   2   77.61    5.93
   4   0   2   19.73    1.89
   4   0   2   23.43    2.19
  -4   0  -2   22.86    1.87
   4   0   2   22.31    1.65
   4   0   2   22.93    2.94
   5   0   2   41.88    5.46
  -5   0  -2   46.12    3.10
  -5   0  -2   40.24    3.39
  -5   0  -2   45.61    3.29
   5   0   2   38.50    3.95
   5   0   2   37.37    3.33
  -5   0  -2   42.82    3.66
   5   0   2   46.82    3.14
  -6   0  -2    4.70    1.17
  -6   0  -2    7.01    1.49
   6   0   2    7.60    1.29
   6   0   2    6.45    1.28
   6   0   2    6.12    1.08
  -6   0  -2    5.78    1.08
  -6   0  -2    5.21    1.19
  -6   0  -2    6.18    1.44
  -7   0  -2    3.96    0.78
  -7   0  -2    4.59    1.05
  -7   0  -2    5.15    1.59
   7   0   2    5.48    1.35
  -7   0  -2    5.93    1.25
  -8   0  -2    8.46    1.31
   8   0   2    6.83    1.38
  -8   0  -2    4.45    1.21
  -8   0  -2    8.67    1.67
  -8   0  -2    6.15    1.02
  -9   0  -2    2.52    1.36
  -9   0  -2    6.13    1.26
   9   0   2    4.19    1.11
  -9   0  -2    4.85    1.05
 -10   0  -2    0.75    0.93
 -10  -1   2    8.91    1.41
 -10  -1   2   11.37    1.80
  10  -1  -2   10.28    1.64
 -10  -1   2    8.93    1.40
 -10   1   2   14.03    2.08
 -10   1   2    8.76    1.37
  -9  -1   2    2.12    0.78
  -9  -1   2    3.05    1.72
   9  -1  -2    5.64    1.21
  -9  -1   2    4.14    1.04
  -9   1   2    3.09    2.25
  -9   1   2    4.38    1.89
  -9   1   2    2.18    0.82
  -8  -1   2   16.84    2.68
  -8  -1   2   17.92    2.23
  -8  -1   2   18.34    2.07
   8  -1  -2   22.28    2.25
   8  -1  -2   18.57    2.52
  -8  -1   2   19.21    1.70
   8  -1  -2   13.29    2.67
   8   1  -2   16.95    2.88
  -8   1   2   23.85    2.59
  -8   1   2   17.17    1.98
  -8   1   2   19.69    2.57
  -7  -1   2   40.77    3.26
   7  -1  -2   46.43    3.39
  -7  -1   2   40.23    3.54
   7  -1  -2   42.32    3.79
  -7   1   2   43.25    3.60
  -7   1   2   44.76    3.95
   7   1  -2   41.36    3.74
   7   1  -2   40.63    3.74
  -6  -1   2   28.24    2.20
  -6  -1   2   28.22    2.63
   6  -1  -2   30.59    2.71
  -6  -1   2   30.12    2.52
   6  -1  -2   26.33    2.64
  -6  -1   2   33.87    2.52
   6   1  -2   22.57    3.07
   6   1  -2   28.53    2.47
   6   1  -2   27.97    3.54
  -6   1   2   27.59    2.44
  -6   1   2   28.44    3.15
  -6   1   2   37.53    4.10
   5  -1  -2   15.44    3.20
   5  -1  -2   15.45    3.77
   5  -1  -2   18.43    1.93
   5  -1  -2   19.52    1.59
  -5  -1   2   21.76    1.77
   5  -1  -2   19.32    2.72
   5   1  -2   21.42    2.24
   5   1  -2   18.37    3.52
   4  -1  -2   18.61    2.64
   4  -1  -2   18.31    1.67
   4  -1  -2   17.00    3.13
  -4  -1   2   18.15    3.51
   4  -1  -2   20.02    1.46
   4  -1  -2   19.20    1.89
  -4  -1   2   20.37    1.60
   4   1  -2   19.03    2.55
   4   1  -2   17.94    1.52
   4   1  -2   20.36    1.80
  -4   1   2   18.66    4.12
  -4   1   2   14.78    2.24
  -3  -1   2   35.29    3.16
   3  -1  -2   33.14    2.35
  -3  -1   2   34.32    2.38
   3  -1  -2   33.00    2.42
   3  -1  -2   31.69    2.52
   3  -1  -2   36.57    2.97
  -3   1   2   29.29    2.56
   3   1  -2   34.92    2.81
   3   1  -2   31.90    2.39
   3   1  -2   34.20    2.51
  -3   1   2   30.25    3.35
   2  -1  -2  398.99   24.96
   2  -1  -2  335.93   24.74
   2  -1  -2  372.29   24.81
  -2  -1   2  366.82   24.84
  -2  -1   2  385.86   24.97
  -2   1   2  367.10   25.18
   2   1  -2  379.85   24.82
   2   1  -2  367.11   24.89
   2   1  -2  309.92   24.75
  -2   1   2  376.98   24.82
  -1  -1   2   10.48    0.94
   1  -1  -2   11.71    0.87
   1  -1  -2   10.99    0.82
   1  -1  -2   12.16    1.27
  -1  -1   2    9.76    1.16
   1   1  -2   12.36    1.29
   1   1  -2    9.24    1.15
  -1   1   2   11.46    0.88
  -1   1   2   10.37    1.29
   1   1  -2   10.78    0.91
   0  -1  -2   24.13    1.87
   0  -1  -2   28.83    1.90
   0  -1  -2   28.33    2.02
   0  -1   2   26.02    2.14
   0  -1  -2   25.53    2.01
   0   1   2   27.31    1.92
   0   1  -2   31.05    2.22
   0   1  -2   28.50    2.00
   1  -1   2  110.22    8.59
   1  -1   2  136.10    8.53
  -1  -1  -2  127.45    8.39
   1  -1   2  119.98    8.36
  -1  -1  -2  130.68    8.39
   1   1   2  125.69    8.42
   1   1   2  110.11    8.38
   2  -1   2  158.44   10.61
  -2  -1  -2  155.61   10.40
   2  -1   2  140.24   10.70
   2  -1   2  157.74   10.42
   2   1   2  135.38   10.44
  -2   1  -2  151.32   10.61
  -2   1  -2  152.60   10.55
   2   1   2  171.74   10.55
   3  -1   2   26.31    2.71
   3  -1   2   29.84    2.08
  -3  -1  -2   28.61    2.05
  -3  -1  -2   22.69    2.68
   3  -1   2   31.64    3.10
   3  -1   2   30.40    2.15
   3   1   2   24.15    2.15
   3   1   2   30.12    2.61
  -3   1  -2   23.26    2.58
   4  -1   2   23.70    2.04
  -4  -1  -2   25.59    1.93
   4  -1   2   26.24    1.98
   4   1   2   20.85    2.01
   4   1   2   22.16    1.80
   4   1   2   25.46    3.01
   5  -1   2   19.34    2.19
   5  -1   2   21.25    1.71
  -5  -1  -2   17.45    2.26
  -5  -1  -2   20.51    2.23
   5  -1   2   18.02    4.13
   5  -1   2   17.23    2.08
  -5  -1  -2   24.08    1.99
   5  -1   2   21.70    2.06
  -5   1  -2   19.88    2.71
   5   1   2   24.40    4.93
  -5   1  -2   18.05    2.04
  -5   1  -2   20.55    2.41
  -6  -1  -2   31.89    2.77
   6  -1   2   28.47    2.95
   6  -1   2   33.17    2.67
   6  -1   2   30.33    2.87
  -6  -1  -2   32.49    2.78
   6  -1   2   34.36    3.16
  -6  -1  -2   31.89    2.42
  -6   1  -2   33.11    3.21
  -6   1  -2   33.54    2.96
  -6   1  -2   30.10    3.10
  -6   1  -2   29.46    2.54
   6   1   2   31.83    4.64
  -7  -1  -2   15.12    1.51
   7  -1   2   16.70    2.12
   7  -1   2   12.78    2.37
   7  -1   2   14.64    2.81
  -7  -1  -2   18.31    2.08
  -7  -1  -2   14.37    2.19
  -7  -1  -2   19.89    2.73
   7  -1   2   13.57    2.88
  -7   1  -2   12.44    1.90
  -7   1  -2   20.55    2.87
  -7   1  -2   13.64    2.27
  -8  -1  -2   23.18    3.26
  -8  -1  -2   23.38    3.16
   8  -1   2   20.08    2.39
  -8  -1  -2   20.67    1.83
  -8  -1  -2   21.73    2.34
  -8   1  -2   23.97    3.02
  -8   1  -2   21.23    2.49
  -8   1  -2   22.56    2.80
  -9  -1  -2    6.03    0.89
   9  -1   2    7.32    1.34
  -9  -1  -2    9.91    1.41
  -9   1  -2    7.03    1.19
  -9   1  -2    6.50    1.55
  10  -1   2    3.13    0.99
 -10  -1  -2    2.17    0.80
 -10  -1  -2    1.82    0.96
 -10   1  -2    1.94    1.10
 -10   1  -2    3.09    1.06
 -10  -2   2   10.32    1.44
  10  -2  -2   12.21    1.31
 -10  -2   2    9.85    1.00
 -10   2   2   10.85    1.28
  -9  -2   2   42.56    3.04
  -9  -2   2   31.58    4.04
   9  -2  -2   48.79    7.10
  -9  -2   2   33.45    3.04
  -9  -2   2   33.80    2.65
   9  -2  -2   41.39    3.11
  -9   2   2   37.08    2.90
  -8  -2   2    2.11    1.15
  -8  -2   2    1.76    0.66
  -8  -2   2    3.67    1.55
   8  -2  -2    3.60    1.96
  -8  -2   2    2.03    0.94
   8  -2  -2    4.23    1.10
   8  -2  -2    1.96    1.73
  -8   2   2   -0.32    2.55
  -8   2   2    1.82    0.95
   7  -2  -2   42.48    3.74
  -7  -2   2   45.06    3.27
   7  -2  -2   48.84    3.61
  -7  -2   2   44.19    3.72
  -7  -2   2   47.17    3.57
  -7  -2   2   45.67    3.51
   7  -2  -2   43.29    3.71
  -7   2   2   42.94    3.53
  -7   2   2   35.72    5.03
   7   2  -2   45.62    4.82
   6  -2  -2    4.90    1.22
  -6  -2   2    3.80    1.19
  -6  -2   2    6.50    1.09
  -6  -2   2    5.64    0.99
  -6  -2   2    4.19    1.02
   6  -2  -2    2.78    1.07
   6  -2  -2    4.41    0.99
  -6   2   2    5.95    2.32
   6   2  -2    5.17    3.63
  -6   2   2    3.39    1.01
  -6   2   2    2.48    0.96
   5  -2  -2    6.68    0.96
   5  -2  -2    7.51    1.58
   5  -2  -2    6.31    1.14
  -5  -2   2    5.50    1.56
  -5  -2   2    7.67    1.00
  -5   2   2    6.77    1.21
   5   2  -2    2.90    1.62
  -5   2   2    5.54    1.09
   5   2  -2    7.63    2.15
   4  -2  -2   13.03    2.84
   4  -2  -2   15.05    1.24
  -4  -2   2    8.44    4.20
   4  -2  -2   13.95    1.49
  -4  -2   2   13.78    1.33
   4   2  -2   11.32    2.15
   4   2  -2   11.49    2.84
   3  -2  -2  114.19    8.25
  -3  -2   2  106.35    7.54
   3  -2  -2  113.89    7.57
  -3  -2   2  111.51    8.75
   3  -2  -2  111.43    7.56
   3   2  -2  101.72    7.87
  -3   2   2  109.77    8.17
   3   2  -2  119.48    7.69
   3   2  -2  101.18    8.17
   2  -2  -2  124.11    9.26
   2  -2  -2  131.73    9.72
  -2  -2   2  151.03    9.76
   2  -2  -2  129.91    9.98
  -2  -2   2  131.40    9.24
   2   2  -2  139.75    9.60
   2   2  -2  146.77    9.33
   2   2  -2  131.47    9.64
  -2   2   2  136.78    9.33
   1  -2  -2   42.36    3.96
   1  -2  -2   38.68    3.54
  -1  -2   2   44.15    3.69
   1  -2  -2   39.03    3.50
   1   2  -2   46.72    3.01
   1   2  -2   41.66    3.56
   0  -2   2   11.33    1.79
   0  -2  -2   12.49    1.89
   0  -2  -2    7.82    1.62
   0  -2   2   13.38    2.27
   0  -2  -2   11.50    1.82
   0   2  -2   12.18    1.98
   0   2  -2   10.19    0.96
   1  -2   2    8.64    1.82
  -1  -2  -2    9.77    1.51
  -1  -2  -2   10.28    1.43
   1  -2   2    5.99    2.20
   1  -2   2    8.57    0.94
   1  -2   2    9.75    1.98
   1  -2   2    7.38    0.83
  -1  -2  -2   10.21    1.67
  -1   2  -2    8.15    1.08
  -1   2  -2    8.08    0.95
   1   2   2    7.78    1.32
  -1   2  -2    5.08    1.53
  -2  -2  -2   50.51    3.51
   2  -2   2   53.61    3.56
   2  -2   2   43.42    4.72
   2  -2   2   51.60    3.59
   2  -2   2   47.78    4.60
  -2  -2  -2   53.94    3.91
   2   2   2   49.82    4.08
  -2   2  -2   49.11    3.84
  -2   2  -2   47.16    4.35
   3  -2   2   38.26    4.80
   3  -2   2   42.24    3.03
   3  -2   2   42.80    2.97
  -3  -2  -2   39.14    2.90
  -3   2  -2   36.19    6.32
   3   2   2   37.98    4.01
  -4  -2  -2   68.52    4.99
   4  -2   2   66.91    4.97
   4  -2   2   73.58    5.06
  -4   2  -2   73.59    5.56
   4   2   2   72.04    7.89
  -4   2  -2   71.14    4.97
  -4   2  -2   80.10    8.15
  -4   2  -2   62.61    5.02
  -5  -2  -2   13.34    1.58
  -5  -2  -2   15.47    1.61
   5  -2   2   15.05    1.57
   5  -2   2   12.10    1.80
   5  -2   2   13.72    1.77
  -5  -2  -2   13.79    2.18
  -5   2  -2   10.15    1.61
  -5   2  -2   14.12    2.87
  -5   2  -2   24.26    6.27
   6  -2   2    6.53    1.26
   6  -2   2    8.77    1.86
   6  -2   2    4.71    1.30
  -6  -2  -2    5.93    1.14
  -6  -2  -2    4.20    0.85
  -6  -2  -2    5.52    1.19
  -6   2  -2    6.83    0.98
  -6   2  -2    6.61    1.17
  -6   2  -2    5.06    1.74
   7  -2   2   15.51    2.90
  -7  -2  -2   20.75    2.35
   7  -2   2   14.35    2.68
   7  -2   2   17.26    2.30
  -7  -2  -2   17.77    2.62
  -7  -2  -2   20.44    1.81
  -7   2  -2   22.92    4.24
  -7   2  -2   23.97    2.63
  -8  -2  -2    2.16    2.49
  -8  -2  -2    6.01    0.93
  -8  -2  -2    1.15    2.08
   8  -2   2    5.22    0.99
  -8   2  -2    8.35    1.21
  -9  -2  -2    2.02    0.47
   9  -2   2    2.40    0.79
  -9  -2  -2    2.96    1.17
  -9  -2  -2    4.07    0.87
  -9   2  -2    0.55    0.80
  -9   2  -2    2.20    1.16
   9  -3  -2    5.03    3.32
  -9  -3   2    5.01    0.76
  -9  -3   2    3.62    0.95
  -9  -3   2    0.63    2.11
   9  -3  -2    4.66    0.96
  -9   3   2    3.72    0.83
  -8  -3   2    5.51    1.60
  -8  -3   2    1.64    0.62
   8  -3  -2    0.20    1.12
  -8  -3   2   -0.17    1.51
  -8  -3   2    1.12    1.06
  -8   3   2    2.22    0.96
  -7  -3   2    9.87    1.49
   7  -3  -2    4.75    1.55
  -7  -3   2    7.86    1.29
   7  -3  -2    8.79    1.37
  -7  -3   2    9.72    1.44
  -7   3   2    8.59    1.42
  -7   3   2    4.24    2.99
  -7   3   2    8.11    1.31
  -6  -3   2    4.42    1.16
  -6  -3   2    4.96    1.32
  -6  -3   2    3.02    0.81
   6  -3  -2    3.77    1.34
   6  -3  -2    4.05    1.48
   6  -3  -2    4.68    1.33
  -6   3   2    4.70    0.97
   6   3  -2   -0.26    2.39
  -6   3   2    6.71    1.37
  -6   3   2    5.30    2.46
  -5  -3   2    0.18    0.83
   5  -3  -2   -0.28    0.90
   5  -3  -2   -0.65    1.57
  -5  -3   2    0.66    1.55
   5  -3  -2   -0.55    1.04
  -5   3   2   -0.16    1.23
  -5   3   2    0.62    0.76
  -5   3   2    0.83    1.82
   4  -3  -2   43.90    3.20
  -4  -3   2   40.32    3.01
   4  -3  -2   42.73    3.08
  -4   3   2   38.44    2.99
   4   3  -2   42.24    4.39
  -4   3   2   32.12    3.48
   4   3  -2   38.54    3.56
  -4   3   2   38.50    4.15
   3  -3  -2   39.10    2.80
   3  -3  -2   36.99    2.88
  -3  -3   2   33.19    2.75
   3   3  -2   41.10    4.84
  -3   3   2   38.27    4.10
  -3   3   2   33.85    2.82
   3   3  -2   38.29    2.99
   2  -3  -2   10.95    1.64
   2  -3  -2   19.99    4.44
   2  -3  -2   12.69    1.23
  -2  -3   2   12.89    1.28
   2   3  -2   12.33    1.46
  -2   3   2   15.66    1.27
   2   3  -2    6.71    2.92
   1  -3  -2   14.40    3.03
  -1  -3   2   14.25    1.41
   1   3  -2   16.40    3.61
   1   3  -2   14.77    3.07
   1   3  -2   14.15    1.31
   0  -3   2   12.64    3.20
   0  -3   2   11.15    1.28
   0  -3  -2   10.83    3.89
   0   3  -2    5.62    2.71
   0   3  -2    9.15    3.21
   0   3  -2    9.94    1.35
   0   3  -2   11.45    1.16
   1  -3   2    1.07    0.69
   1  -3   2    2.00    0.67
   1  -3   2    3.64    3.38
  -1   3  -2    2.84    2.98
  -1   3  -2    3.62    1.01
   2  -3   2    6.89    1.19
   2  -3   2    5.95    0.99
  -2   3  -2    9.14    3.51
  -2   3  -2    5.88    1.91
  -2   3  -2    7.21    1.15
  -2   3  -2    5.69    0.87
  -2   3  -2    8.98    1.61
   3  -3   2   19.18    2.48
   3  -3   2   27.67    2.24
  -3   3  -2   29.75    6.09
  -3   3  -2   29.88    3.46
  -3   3  -2   22.97    2.26
  -3   3  -2   26.22    2.02
  -3   3  -2   24.36    3.01
  -3   3  -2   21.90    3.39
  -4  -3  -2   14.00    1.59
   4  -3   2   13.83    1.72
   4  -3   2   14.25    1.80
   4  -3   2   11.16    1.67
  -4   3  -2   18.55    6.17
  -4   3  -2   15.22    1.56
  -4   3  -2   18.04    3.02
  -4   3  -2   15.77    1.80
  -5  -3  -2   19.49    2.95
   5  -3   2   20.37    2.50
   5  -3   2   22.98    2.35
  -5  -3  -2   25.40    2.35
  -5  -3  -2   23.71    2.31
   5  -3   2   20.07    2.34
  -5   3  -2   27.32    2.09
  -5   3  -2   24.38    2.23
  -5   3  -2   18.75    3.61
  -5   3  -2   21.59    4.38
   6  -3   2   -0.76    1.71
   6  -3   2    2.82    1.44
  -6  -3  -2    2.43    1.63
  -6  -3  -2    2.38    0.92
   6  -3   2    2.41    1.40
  -6  -3  -2    3.02    1.24
  -6   3  -2    0.87    0.91
  -6   3  -2    3.30    0.96
  -6   3  -2    0.47    3.88
  -6   3  -2    1.73    2.52
  -7  -3  -2    4.59    1.45
  -7  -3  -2    2.73    0.64
   7  -3   2    5.31    1.96
  -7  -3  -2    0.56    1.26
  -7   3  -2    3.65    2.33
  -7   3  -2    3.08    0.88
  -7   3  -2    2.29    0.72
   8  -3   2    3.78    2.89
  -8  -3  -2    8.88    1.49
  -8  -3  -2    5.14    1.36
   8  -3   2   10.28    1.52
  -8  -3  -2    7.23    1.00
  -8  -3  -2    8.00    1.90
  -8   3  -2    7.90    1.04
  -8   3  -2    8.60    1.54
  -8  -4   2    2.93    1.89
   8  -4  -2    2.92    0.99
  -8  -4   2    2.12    0.58
   8  -4  -2   -0.33    2.84
  -8   4   2    2.73    0.54
  -8   4   2    3.14    0.89
   7  -4  -2    9.41    1.43
  -7  -4   2    5.03    1.48
   7  -4  -2    4.13    1.96
  -7  -4   2    6.89    1.24
  -7  -4   2   11.29    1.96
  -7   4   2    8.84    1.18
  -7   4   2    6.98    1.12
  -6  -4   2    4.60    0.90
   6  -4  -2    2.03    1.80
   6  -4  -2    1.25    1.64
  -6   4   2    1.65    1.25
  -6   4   2    3.89    0.79
   5  -4  -2    0.39    1.62
   5  -4  -2    0.33    1.78
  -5  -4   2    0.20    1.19
  -5   4   2    1.70    1.36
  -5   4   2    1.54    0.75
  -4  -4   2    2.76    1.14
   4  -4  -2    0.48    1.37
   4  -4  -2    0.77    1.57
  -4   4   2    1.79    0.79
  -4   4   2    0.57    1.60
   4   4  -2    1.83    2.87
  -4   4   2    1.00    1.23
   3  -4  -2    5.37    1.67
   3  -4  -2    2.03    1.43
   3   4  -2    7.17    4.05
  -3   4   2    3.10    1.69
  -3   4   2    2.91    0.82
   2  -4  -2    2.97    1.18
  -2  -4   2    2.13    0.90
   2   4  -2    3.14    4.68
   2   4  -2   -0.73    2.96
  -1  -4   2    7.51    1.08
   1  -4  -2    3.43    1.27
  -1   4   2    4.92    0.83
  -1   4   2    6.09    1.95
   0  -4   2   18.90    2.07
   0  -4   2   18.54    1.95
   0   4  -2   22.13    5.36
   0   4  -2   14.14    1.73
   0   4   2   15.70    1.82
   0   4   2   21.22    4.05
   0   4  -2   18.35    3.40
   1  -4   2    6.28    1.28
   1  -4   2    5.23    1.11
   1   4   2    4.60    1.03
  -1   4  -2    7.82    1.97
  -1   4  -2    3.73    1.80
  -1   4  -2    5.47    3.62
   2  -4   2   19.95    2.53
  -2   4  -2   20.71    2.90
  -2   4  -2   25.76    6.32
  -2   4  -2   18.59    2.09
  -3  -4  -2    4.96    1.19
   3  -4   2    6.35    1.33
   3  -4   2    7.20    1.44
  -3   4  -2    7.31    2.17
  -3   4  -2    4.55    0.81
  -3   4  -2    5.17    1.46
   4  -4   2   36.29    3.37
   4  -4   2   40.83    3.41
  -4  -4  -2   38.33    3.32
  -5  -4  -2   -0.04    1.32
   5  -4   2    0.90    1.19
   5  -4   2    0.83    1.39
  -5   4  -2    0.96    0.86
  -5   4  -2   -0.39    1.82
  -5   4  -2   -4.24    3.41
  -5   4  -2    0.36    1.04
  -6  -4  -2   27.70    2.47
   6  -4   2   30.12    2.79
  -6  -4  -2   24.51    4.32
  -6   4  -2   30.58    2.44
  -7  -4  -2    4.25    1.78
   7  -4   2    3.63    0.96
  -7  -4  -2    1.88    0.66
   7  -4   2    7.71    2.21
  -7  -4  -2    1.20    1.40
  -7   4  -2    7.42    1.83
  -7   4  -2    3.12    0.82
  -6  -5   2    0.48    0.87
  -6  -5   2    0.42    1.99
   6  -5  -2   -0.68    2.43
  -6   5   2    0.58    0.94
   5  -5  -2    5.61    2.04
  -5  -5   2    4.28    1.84
   4  -5  -2    6.60    3.03
  -4   5   2    4.01    1.43
  -3  -5   2    1.61    1.60
   3  -5  -2    0.77    2.27
  -3   5   2    1.18    0.70
  -3   5   2    0.01    1.30
  -2  -5   2   18.47    3.90
  -2  -5   2    8.85    1.84
  -2   5   2   13.91    1.69
  -1  -5   2    9.22    1.78
  -1   5   2    8.05    1.49
   1   5  -2    8.82    2.15
   0  -5   2   -0.64    1.68
   0   5   2   -3.48    2.58
   0   5  -2    1.16    1.79
   0   5   2    0.20    0.91
   0   5  -2   -0.94    0.94
   1  -5   2    2.86    2.05
  -1   5  -2    2.35    1.47
  -1   5  -2    1.47    0.81
   2  -5   2   16.43    2.80
  -2   5  -2   13.53    1.62
  -2   5  -2   12.75    2.57
   3  -5   2   22.11    2.95
  -3   5  -2   20.27    2.07
  -3   5  -2   17.01    2.40
  -4  -5  -2    5.55    2.47
   4  -5   2    1.79    1.77
  -4   5  -2    5.90    0.97
  -5  -5  -2    4.90    2.99
   5  -5   2    6.23    2.43
  -5   5  -2   10.17    2.41
  -5   5  -2    8.10    1.02
  -6   5  -2    5.09    1.90
  -4   6   2    0.30    0.74
  -3   6   2    4.34    1.80
  -3   6   2    5.64    0.99
  -2   6   2    4.35    0.85
  -2   6   2    3.19    1.21
  -1   6   2    4.81    0.94
  -1   6   2    3.16    1.96
   0   6  -2   11.86    2.87
  -1   6  -2    8.89    2.39
  -2   6  -2    3.93    0.89
  -3   6  -2    7.66    1.95
  -3   6  -2    5.05    1.01
 -11   0   3    3.41    1.39
 -11   0   3    5.42    1.06
  10   0  -3   12.74    1.71
 -10   0   3   11.82    1.45
 -10   0   3   11.67    1.60
  -9   0   3   12.55    2.33
  -9   0   3   13.43    2.18
   9   0  -3   11.71    1.64
  -9   0   3   11.57    1.60
   8   0  -3    3.11    1.37
   8   0  -3    0.61    1.26
  -8   0   3   -0.73    0.90
  -8   0   3    0.00    1.25
  -8   0   3    0.16    0.94
  -8   0   3   -1.45    1.68
  -7   0   3    1.43    0.96
   7   0  -3    1.56    0.88
   7   0  -3    0.76    1.01
  -7   0   3   -0.32    0.70
  -7   0   3    1.04    0.75
   6   0  -3    2.92    2.06
   6   0  -3    0.55    1.34
   6   0  -3   -0.50    2.09
  -6   0   3   -0.62    0.68
  -6   0   3    1.22    1.30
   6   0  -3    0.13    0.58
  -6   0   3    1.64    0.68
  -6   0   3    0.23    1.48
   5   0  -3    1.60    0.91
   5   0  -3    1.63    0.46
  -5   0   3    1.01    0.81
   5   0  -3    1.99    2.13
   5   0  -3    0.56    1.67
   4   0  -3   42.42    3.03
   4   0  -3   43.01    3.32
  -4   0   3   39.14    4.43
   4   0  -3   40.82    3.20
   4   0  -3   45.54    4.24
  -4   0   3   45.75    3.15
  -3   0   3  111.07    8.40
   3   0  -3  125.21    8.24
   3   0  -3  123.31    8.59
  -3   0   3  130.15    8.67
   3   0  -3  122.34    8.30
   3   0  -3  112.14    8.35
   2   0  -3  411.64   27.27
   2   0  -3  360.81   26.86
  -2   0   3  381.26   26.88
  -2   0   3  442.45   27.02
   2   0  -3  385.65   26.79
   1   0  -3    2.63    0.47
   1   0  -3    1.82    0.30
   1   0  -3    2.42    0.46
  -1   0   3    2.75    0.64
   0   0   3  314.43   21.44
   0   0   3  319.45   21.54
   0   0  -3  319.13   21.52
   0   0   3  316.73   21.46
  -1   0  -3  246.62   16.02
   1   0   3  253.69   15.94
   1   0   3  204.87   15.98
  -2   0  -3   -0.30    0.57
  -2   0  -3    0.43    0.38
   2   0   3   -0.11    0.37
  -2   0  -3    0.05    0.90
   2   0   3   -0.03    0.67
  -3   0  -3   55.34    3.83
   3   0   3   51.63    4.03
   3   0   3   55.03    3.75
   3   0   3   52.92    3.87
   3   0   3   56.16    4.18
   4   0   3   85.25    6.75
  -4   0  -3   90.66    6.07
   4   0   3   85.49    6.11
   4   0   3   78.11    6.25
   4   0   3   92.55    5.97
  -5   0  -3   11.40    1.60
  -5   0  -3    7.78    1.40
  -5   0  -3    8.44    1.13
   5   0   3   10.15    1.72
   5   0   3    7.91    1.31
  -5   0  -3    6.88    1.10
  -6   0  -3   16.88    2.51
   6   0   3   17.66    2.32
  -6   0  -3   20.70    2.60
  -6   0  -3   19.62    1.58
  -6   0  -3   17.69    2.06
   6   0   3   15.73    2.22
  -6   0  -3   12.33    2.38
  -7   0  -3    0.80    1.22
  -7   0  -3    0.42    1.54
   7   0   3    1.69    1.17
  -7   0  -3    0.84    0.66
  -7   0  -3    1.68    1.16
  -8   0  -3   -1.02    1.02
   8   0   3    1.05    1.33
  -8   0  -3   -1.35    1.47
  -8   0  -3    0.38    1.10
  -8   0  -3   -0.37    1.25
   9   0   3    9.38    1.81
  -9   0  -3    8.61    1.45
  -9   0  -3    8.38    1.35
  10  -1  -3   11.79    1.41
 -10  -1   3    8.27    1.39
 -10  -1   3    7.73    1.14
 -10   1   3   11.13    2.24
 -10   1   3    9.81    1.29
  -9  -1   3   16.21    1.78
  -9  -1   3   21.12    2.99
   9  -1  -3   18.29    2.15
  -9  -1   3   22.43    2.14
  -9  -1   3   15.03    1.67
  -9   1   3   15.20    1.82
  -9   1   3   20.97    2.84
  -8  -1   3   18.39    2.06
   8  -1  -3   20.33    2.34
  -8  -1   3   20.02    1.79
  -8  -1   3   19.85    2.79
   8  -1  -3   21.84    2.52
   8  -1  -3   16.53    2.57
  -8  -1   3   22.34    2.35
  -8   1   3   22.04    2.11
  -8   1   3   20.72    2.75
  -8   1   3   18.71    3.32
   8   1  -3   18.93    2.80
   7  -1  -3    2.60    1.38
  -7  -1   3    2.04    1.28
  -7  -1   3    1.82    0.80
   7  -1  -3    4.33    1.07
  -7  -1   3    3.40    0.85
   7  -1  -3    3.82    1.58
   7   1  -3    6.82    3.43
   7   1  -3    4.77    1.41
  -7   1   3    2.74    1.42
  -7   1   3    4.56    1.32
  -7   1   3    7.15    1.96
   7   1  -3    4.21    1.35
  -6  -1   3   24.55    2.16
  -6  -1   3   20.55    2.23
  -6  -1   3   24.85    2.16
   6  -1  -3   24.19    2.37
  -6  -1   3   23.84    1.84
   6  -1  -3   26.03    2.40
  -6   1   3   20.39    2.90
   6   1  -3   19.84    3.24
   6   1  -3   24.41    2.89
   6   1  -3   16.37    3.83
   6   1  -3   23.53    2.11
  -6   1   3   16.95    3.44
  -6   1   3   22.45    2.13
   5  -1  -3   19.87    4.15
   5  -1  -3   25.03    1.85
  -5  -1   3   26.10    2.06
   5  -1  -3   23.79    2.12
   5  -1  -3   23.50    2.96
   5   1  -3   20.40    2.38
   5   1  -3   23.25    3.60
   5   1  -3   22.80    1.98
  -4  -1   3   31.35    4.30
  -4  -1   3   38.96    2.65
   4  -1  -3   35.31    2.92
   4  -1  -3   34.40    3.72
   4  -1  -3   38.03    2.59
   4  -1  -3   35.92    2.72
   4   1  -3   37.65    2.87
   4   1  -3   37.19    2.65
  -4   1   3   28.96    3.13
  -4   1   3   32.76    4.86
   4   1  -3   39.36    3.47
  -3  -1   3  227.61   15.38
  -3  -1   3  255.94   15.83
   3  -1  -3  245.04   15.75
   3  -1  -3  207.10   15.39
   3  -1  -3  230.00   15.39
   3  -1  -3  212.62   15.50
   3   1  -3  208.32   15.41
  -3   1   3  213.28   15.87
   3   1  -3  237.32   15.63
   3   1  -3  240.02   15.53
  -3   1   3  219.09   15.54
   2  -1  -3  496.20   32.80
  -2  -1   3  487.34   33.05
  -2  -1   3  489.48   32.92
   2  -1  -3  547.67   33.02
   2  -1  -3  494.87   32.88
  -2  -1   3  455.62   32.82
  -2   1   3  471.21   32.88
   2   1  -3  502.14   32.89
   2   1  -3  409.68   32.81
   2   1  -3  500.63   32.95
  -1  -1   3  455.79   31.83
   1  -1  -3  532.76   31.87
   1  -1  -3  460.39   31.78
  -1  -1   3  467.89   31.85
   1  -1  -3  467.47   31.73
   1   1  -3  464.50   31.81
   1   1  -3  448.60   31.85
  -1   1   3  468.67   31.89
  -1   1   3  462.55   31.79
   0  -1  -3  249.44   17.45
   0  -1  -3  259.48   17.38
   0  -1  -3  282.19   17.45
   0  -1   3  242.21   17.53
   0  -1  -3  253.93   17.45
   0   1   3  226.59   17.43
   0   1  -3  256.15   17.51
   0   1  -3  280.27   17.62
   0   1   3  267.48   17.52
  -1  -1  -3   45.29    3.17
  -1  -1  -3   42.90    3.19
   1   1   3   40.74    3.15
  -1   1  -3   46.17    3.40
   1   1   3   44.83    3.17
  -1   1  -3   46.89    3.25
   2  -1   3   53.84    3.59
  -2  -1  -3   49.37    3.72
   2  -1   3   52.32    3.62
   2  -1   3   45.20    4.11
  -2  -1  -3   51.49    3.54
  -2   1  -3   48.77    3.95
  -2   1  -3   51.41    3.87
   2   1   3   55.08    3.76
   2   1   3   49.71    3.65
   3  -1   3   88.04    5.74
   3  -1   3   77.56    6.34
   3  -1   3   86.39    5.76
  -3   1  -3   74.52    6.28
   3   1   3   76.34    5.78
   3   1   3   89.57    6.05
  -3   1  -3   80.89    6.11
   4  -1   3   52.29    3.84
   4  -1   3   52.01    5.37
   4  -1   3   54.21    4.00
  -4  -1  -3   55.76    3.91
   4  -1   3   57.55    3.97
   4   1   3   56.12    4.81
   4   1   3   51.24    4.01
   5  -1   3   31.11    2.63
  -5  -1  -3   31.12    2.20
  -5  -1  -3   31.42    2.41
   5  -1   3   30.04    3.43
   5  -1   3   31.74    2.31
  -5  -1  -3   26.95    2.55
  -5   1  -3   26.40    2.99
   5   1   3   25.87    2.57
  -5   1  -3   25.66    2.75
  -5   1  -3   25.82    2.52
  -6  -1  -3   23.62    2.25
   6  -1   3   21.87    2.20
   6  -1   3   18.94    2.53
   6  -1   3   20.04    3.03
   6  -1   3   25.86    3.32
  -6  -1  -3   23.09    2.23
  -6   1  -3   17.36    2.10
  -6   1  -3   19.01    2.47
  -7  -1  -3    0.26    0.60
   7  -1   3    1.40    1.99
  -7  -1  -3    2.30    1.72
  -7  -1  -3    1.41    1.11
   7  -1   3    0.80    1.07
  -7  -1  -3   -0.89    1.41
  -7   1  -3    4.66    5.84
  -7   1  -3    2.93    1.65
  -7   1  -3    0.82    1.00
  -7   1  -3    1.24    1.28
  -8  -1  -3   11.31    3.79
  -8  -1  -3    4.22    1.10
   8  -1   3    7.65    1.24
  -8  -1  -3    6.26    1.48
  -8  -1  -3    6.18    1.07
  -8   1  -3    6.63    1.56
  -8   1  -3   10.79    7.02
  -8   1  -3    4.78    1.13
  -8   1  -3    7.52    1.67
  -9  -1  -3    4.23    0.88
  -9  -1  -3    3.81    0.59
  -9  -1  -3    3.89    1.18
   9  -1   3    3.37    0.91
  -9   1  -3    4.31    0.99
  10  -2  -3    0.17    0.72
 -10  -2   3   -0.03    0.77
 -10  -2   3    0.44    0.98
 -10  -2   3   -0.63    0.45
 -10  -2   3    0.39    1.07
 -10   2   3   -0.19    0.64
   9  -2  -3    7.94    3.05
  -9  -2   3    0.07    2.30
  -9  -2   3    1.84    0.97
  -9  -2   3    2.08    0.55
  -9  -2   3    2.62    1.11
   9  -2  -3    4.23    1.52
  -9   2   3    0.93    0.73
  -8  -2   3   14.96    2.02
  -8  -2   3   15.06    2.31
   8  -2  -3   13.63    2.54
  -8  -2   3   14.54    1.41
  -8  -2   3   14.56    1.70
   8  -2  -3   13.53    1.99
   8  -2  -3   12.17    2.20
  -8   2   3   13.34    3.98
  -8   2   3   13.30    1.85
   7  -2  -3   26.37    2.88
  -7  -2   3   33.09    2.92
   7  -2  -3   27.28    2.86
   7  -2  -3   31.27    2.72
  -7  -2   3   31.99    2.68
  -7  -2   3   29.17    2.34
  -7  -2   3   27.56    2.66
  -7   2   3   29.56    2.69
  -7   2   3   29.70    2.70
   7   2  -3   31.57    4.21
   6  -2  -3    0.81    0.74
   6  -2  -3    1.18    0.92
   6  -2  -3    1.52    1.07
  -6  -2   3    2.37    0.97
  -6  -2   3    0.34    0.92
   6   2  -3    0.86    3.81
  -6   2   3    0.67    0.97
   6   2  -3    1.24    2.77
  -6   2   3    1.37    3.17
  -6   2   3   -0.12    0.88
  -5  -2   3   21.98    1.89
   5  -2  -3   23.19    1.81
  -5  -2   3   17.87    2.45
   5  -2  -3   22.55    3.05
   5  -2  -3   24.16    2.03
  -5   2   3   22.95    4.58
   5   2  -3   19.34    2.56
  -5   2   3   22.35    2.36
   5   2  -3   17.82    1.99
   5   2  -3   17.13    3.19
  -5   2   3   18.68    2.07
   4  -2  -3   77.00    5.13
   4  -2  -3   72.91    5.07
  -4  -2   3   72.60    5.07
   4   2  -3   70.79    5.44
   4   2  -3   70.40    5.79
   4   2  -3   66.52    7.89
   3  -2  -3   42.12    3.29
  -3  -2   3   43.03    5.21
   3  -2  -3   46.44    3.02
   3  -2  -3   39.55    3.02
   3  -2  -3   42.97    4.02
   3   2  -3   38.66    3.76
  -3   2   3   38.77    3.28
   3   2  -3   43.45    4.01
  -3   2   3   42.10    6.06
   3   2  -3   43.77    3.19
   2  -2  -3    7.68    1.63
   2  -2  -3    6.58    2.16
  -2  -2   3    6.43    0.79
  -2  -2   3    4.34    1.72
   2  -2  -3    6.20    0.68
   2   2  -3    6.21    0.92
   2   2  -3    7.65    1.70
   2   2  -3    7.18    1.62
  -2   2   3    6.66    0.93
   1  -2  -3  265.21   19.05
  -1  -2   3  270.74   19.38
   1  -2  -3  266.25   19.29
  -1  -2   3  287.61   19.06
   1  -2  -3  268.10   19.52
   1  -2  -3  288.43   19.31
   1   2  -3  295.18   19.15
   1   2  -3  309.96   19.48
   0  -2   3   12.05    2.35
   0  -2  -3   13.28    2.51
   0  -2  -3   11.62    1.71
   0  -2  -3   10.61    0.89
   0  -2  -3   10.71    1.90
   0  -2   3   11.88    1.06
   0   2  -3   12.46    2.14
   0   2  -3   12.79    1.15
   1  -2   3   25.46    1.97
   1  -2   3   25.14    1.96
  -1  -2  -3   27.95    2.92
   1  -2   3   21.43    3.30
   1  -2   3   28.87    3.42
  -1   2  -3   26.63    2.13
  -1   2  -3   30.38    2.99
   2  -2   3   37.23    2.60
  -2  -2  -3   35.30    3.16
   2  -2   3   33.92    4.20
  -2  -2  -3   32.94    3.16
  -2  -2  -3   34.09    2.51
   2  -2   3   36.60    2.64
  -2   2  -3   34.89    3.65
  -2   2  -3   36.79    6.46
   2   2   3   33.65    3.32
  -2   2  -3   35.11    2.84
  -2   2  -3   33.32    3.26
   3  -2   3   65.87    6.71
  -3  -2  -3   64.07    4.70
   3  -2   3   72.90    4.78
   3  -2   3   69.52    4.79
  -3   2  -3   64.27    5.17
   3   2   3   60.63    5.77
  -3   2  -3   71.06    6.53
   4  -2   3    2.75    0.87
   4  -2   3    1.82    0.67
   4  -2   3    3.09    0.91
  -4  -2  -3    2.54    0.74
   4  -2   3    1.42    1.09
  -4   2  -3    2.35    0.86
  -4   2  -3   -0.47    5.37
   4   2   3    7.32    4.08
  -4   2  -3    2.61    1.43
  -5  -2  -3    2.95    0.73
  -5  -2  -3    3.60    1.10
   5  -2   3    3.43    1.19
   5  -2   3    2.86    0.98
   5  -2   3    3.61    1.12
  -5  -2  -3    2.76    0.93
   5  -2   3    5.06    1.94
  -5   2  -3    3.92    0.76
  -5   2  -3    2.73    4.68
  -5   2  -3    2.60    0.99
  -5   2  -3   -2.41    4.91
  -5   2  -3    3.29    1.42
  -6  -2  -3   11.27    1.93
  -6  -2  -3   10.83    1.52
  -6  -2  -3   12.03    1.69
   6  -2   3    7.01    1.62
   6  -2   3   17.51    2.83
   6  -2   3   13.94    2.03
   6  -2   3    8.63    1.87
  -6   2  -3   14.14    2.01
  -6   2  -3   20.58    5.93
  -6   2  -3   10.99    1.75
  -7  -2  -3    8.46    1.26
   7  -2   3    9.20    1.64
  -7  -2  -3    6.22    1.14
   7  -2   3    3.11    2.28
   7  -2   3    5.96    2.13
  -7  -2  -3    6.69    2.19
  -7   2  -3    8.74    1.19
  -7   2  -3    9.23    1.82
  -8  -2  -3    1.34    0.46
  -8  -2  -3    2.17    0.92
   8  -2   3    1.89    0.83
  -8  -2  -3    3.88    2.01
  -8   2  -3    1.83    0.82
  -8   2  -3    1.62    1.45
  -9  -2  -3   -0.17    0.43
  -9  -2  -3    0.48    0.74
   9  -2   3   -0.31    0.68
  -9  -2  -3    0.54    1.02
  -9   2  -3    0.67    0.84
  -9   2  -3    0.57    1.16
  -9  -3   3    2.62    2.17
   9  -3  -3   -0.54    0.86
   9  -3  -3    3.86    3.06
  -9  -3   3   -0.20    0.82
  -9  -3   3    0.26    0.47
  -9   3   3    0.39    0.72
  -8  -3   3    1.40    0.62
  -8  -3   3    2.04    1.07
   8  -3  -3    1.04    1.35
   8  -3  -3    4.09    2.24
  -8  -3   3    1.86    1.61
  -8   3   3    1.21    0.86
  -8   3   3    4.06    1.60
  -7  -3   3   13.81    1.52
   7  -3  -3   14.45    2.37
  -7  -3   3   15.74    1.89
   7  -3  -3   12.48    2.16
  -7  -3   3   13.56    2.04
  -7  -3   3   14.26    1.95
   7  -3  -3   12.95    2.08
  -7   3   3   15.34    1.64
   7   3  -3   10.40    2.44
  -7   3   3   14.82    2.08
  -7   3   3    9.14    2.99
   6  -3  -3   21.81    2.56
  -6  -3   3   21.75    2.16
   6  -3  -3   23.56    2.52
  -6  -3   3   24.21    2.36
   6  -3  -3   24.31    2.77
  -6  -3   3   23.23    2.62
   6   3  -3   24.89    3.59
  -6   3   3   28.02    2.21
  -6   3   3   25.84    2.59
  -6   3   3   23.70    4.37
   5  -3  -3    7.62    1.42
   5  -3  -3    4.88    1.19
  -5  -3   3    6.60    1.01
  -5  -3   3    5.96    1.58
  -5  -3   3    2.93    0.83
   5  -3  -3    3.62    1.10
  -5   3   3    5.06    0.98
  -5   3   3    3.73    1.17
  -5   3   3    4.13    1.85
  -4  -3   3    1.16    0.68
   4  -3  -3    2.13    0.97
   4  -3  -3    1.37    0.79
  -4   3   3    1.71    0.70
   4   3  -3   -0.53    2.41
   4   3  -3    0.85    1.75
  -4   3   3    2.24    1.15
  -4   3   3   -0.10    1.74
   3  -3  -3    6.53    1.24
   3  -3  -3    5.51    0.97
  -3  -3   3    3.85    0.88
   3   3  -3    4.63    3.30
   3   3  -3   -0.33    4.89
  -3   3   3    4.36    1.83
  -3   3   3    4.61    0.82
   3   3  -3    5.49    1.34
   2  -3  -3   17.52    1.55
   2  -3  -3   19.70    4.65
  -2  -3   3   18.24    1.59
   2   3  -3   19.67    1.81
   2   3  -3   18.01    3.67
   2   3  -3   21.58    3.60
  -2   3   3   16.46    1.88
  -2   3   3   22.50    4.48
   1  -3  -3   14.46    1.30
  -1  -3   3   13.90    1.40
   1  -3  -3   10.58    2.63
   1   3  -3   14.63    1.48
   1   3  -3   14.58    3.23
   1   3  -3   15.71    3.36
   0  -3  -3    5.13    0.91
   0  -3   3    5.80    1.06
   0  -3   3    9.36    3.60
   0   3  -3    5.88    3.03
   0   3  -3    6.53    1.19
   0   3  -3    3.35    2.63
   1  -3   3   15.47    1.58
   1  -3   3   15.98    1.62
  -1   3  -3   14.63    3.17
  -1   3  -3   15.24    1.85
  -1   3  -3   16.48    3.97
  -1   3  -3   20.59    1.85
  -2  -3  -3   34.07    3.13
   2  -3   3   40.76    3.02
  -2   3  -3   37.11    3.03
  -2   3  -3   38.43    2.88
  -2   3  -3   36.95    3.72
  -2   3  -3   37.11    4.01
  -2   3  -3   41.54    3.48
  -2   3  -3   47.27    5.15
   3  -3   3   29.48    2.41
  -3  -3  -3   27.28    2.27
   3  -3   3   26.33    3.15
  -3   3  -3   23.50    3.42
  -3   3  -3   28.92    3.68
  -3   3  -3   27.39    2.61
  -3   3  -3   28.80    5.98
  -3   3  -3   26.95    2.42
  -3   3  -3   32.67    3.43
   4  -3   3   15.22    2.09
   4  -3   3   13.10    2.12
   4  -3   3   11.67    1.78
   4  -3   3   17.41    2.24
  -4  -3  -3   10.66    1.54
  -4   3  -3   16.35    2.28
  -4   3  -3    6.59    6.71
  -4   3  -3   14.33    3.11
  -5  -3  -3    6.05    1.40
  -5  -3  -3    6.35    1.28
   5  -3   3    6.95    1.44
   5  -3   3    4.00    1.22
   5  -3   3    4.89    1.24
  -5  -3  -3    4.42    0.94
  -5   3  -3    6.19    2.43
  -5   3  -3    5.76    1.10
  -5   3  -3    4.77    1.84
  -5   3  -3    8.07    1.34
  -5   3  -3   -2.56    7.08
  -6  -3  -3    4.96    0.92
  -6  -3  -3    4.03    1.25
  -6  -3  -3    5.15    1.21
   6  -3   3    6.18    1.22
   6  -3   3    2.85    2.29
   6  -3   3    2.63    1.61
  -6   3  -3    4.16    0.95
  -6   3  -3    8.92    2.47
  -6   3  -3    5.81    1.00
   7  -3   3    2.49    2.40
  -7  -3  -3    2.29    1.17
   7  -3   3    3.73    1.16
  -7  -3  -3    4.01    1.65
  -7  -3  -3    1.94    1.95
  -7   3  -3    1.65    1.60
  -7   3  -3    2.03    0.76
  -8  -3  -3    8.28    0.91
  -8  -3  -3    6.75    1.10
  -8  -3  -3    8.44    2.06
   8  -3   3    8.32    1.36
  -8  -3  -3    4.95    1.43
  -8   3  -3    6.76    1.53
  -8   3  -3    7.25    1.20
  -8  -4   3    1.77    0.58
  -8  -4   3   -0.20    1.72
  -8  -4   3    2.39    0.97
   8  -4  -3    2.72    2.44
   8  -4  -3    2.48    1.06
  -8   4   3    3.24    0.67
  -8   4   3    1.91    0.87
   7  -4  -3   15.51    2.47
  -7  -4   3   12.63    1.46
  -7  -4   3   15.26    1.93
  -7  -4   3   11.58    2.13
  -7   4   3   15.71    1.51
  -7   4   3   14.60    1.67
  -6  -4   3   17.62    2.18
  -6  -4   3   15.25    2.56
  -6  -4   3   14.69    1.61
   6  -4  -3   15.10    2.66
  -6   4   3   13.93    2.54
   5  -4  -3    5.94    1.82
  -5  -4   3    7.83    1.44
  -5   4   3   10.70    1.85
  -5   4   3    9.86    1.53
   5   4  -3   10.04    3.16
   4  -4  -3    3.68    1.62
   4  -4  -3    3.27    1.64
  -4  -4   3    3.72    1.14
  -4   4   3    4.52    0.82
   4   4  -3    3.97    3.14
  -4   4   3    1.57    1.64
  -4   4   3    6.40    1.68
   3  -4  -3    5.77    1.90
   3  -4  -3    6.91    1.55
  -3   4   3    4.92    1.81
   3   4  -3    8.88    3.22
  -3   4   3    4.01    0.82
   2  -4  -3    1.07    1.25
   2   4  -3   14.29    5.35
   2   4  -3    0.98    1.97
  -2   4   3    1.11    1.14
  -1  -4   3    3.88    0.98
   1   4  -3    5.72    1.66
  -1   4   3    2.02    1.99
  -1   4   3    4.95    0.95
   0  -4   3   14.87    1.96
   0  -4   3   16.40    1.79
   0   4   3   11.15    1.75
   0   4  -3   11.65    3.48
   0   4   3   16.65    4.28
   0   4  -3   13.90    2.67
   0   4  -3   11.24    1.66
   0   4  -3   13.74    3.51
   1  -4   3   15.75    2.00
   1  -4   3   17.36    2.15
  -1   4  -3   18.17    4.13
  -1   4  -3   23.44    4.05
   2  -4   3   45.64    3.65
   2  -4   3   42.03    3.44
  -2   4  -3   45.08    3.98
  -2   4  -3   40.37    4.29
  -2   4  -3   40.81    3.20
  -3  -4  -3   11.15    2.12
   3  -4   3   13.09    1.98
  -3   4  -3   13.09    2.62
  -3   4  -3   12.95    1.52
  -3   4  -3    1.89    5.28
  -3   4  -3    8.96    3.29
  -4  -4  -3    3.45    1.32
   4  -4   3    3.91    2.00
   4  -4   3    5.99    1.26
   4  -4   3    2.39    1.33
  -4   4  -3    5.39    1.11
  -4   4  -3    2.01    1.64
  -4   4  -3    2.64    2.28
  -5  -4  -3    8.67    1.64
   5  -4   3   12.32    1.96
   5  -4   3    4.35    1.62
  -5   4  -3    7.84    1.49
  -5   4  -3   12.85    3.37
  -5   4  -3    6.17    2.45
   6  -4   3    2.85    1.06
  -6  -4  -3    2.86    1.50
   6  -4   3    2.33    1.87
  -6  -4  -3    2.50    0.80
  -6   4  -3    1.12    2.08
  -6   4  -3    3.55    0.77
  -6   4  -3    3.88    0.83
  -6   4  -3    4.12    1.65
   7  -4   3    2.56    0.95
  -7  -4  -3    3.55    1.90
  -7   4  -3    4.69    1.87
  -7  -5   3    0.94    0.60
  -6  -5   3    5.86    1.94
   6  -5  -3    2.71    2.55
  -6  -5   3    4.87    0.83
  -6   5   3    3.07    1.29
   5  -5  -3    0.79    2.09
  -5  -5   3   -0.38    1.64
  -5   5   3    0.92    0.59
  -5   5   3    0.01    1.16
  -4  -5   3    4.66    2.86
   4  -5  -3    3.60    2.45
  -3  -5   3    4.09    1.54
  -3   5   3    3.78    0.78
  -2  -5   3   18.24    2.61
   2   5  -3   14.85    3.33
  -2   5   3   20.63    1.95
  -1  -5   3    6.65    3.45
  -1  -5   3    4.11    1.56
  -1   5   3    1.61    2.09
   1   5  -3    2.32    1.99
  -1   5   3    2.64    0.81
   0  -5   3    7.27    1.66
   0   5  -3    8.88    1.87
   0   5   3    8.81    3.17
   0   5   3    5.29    1.14
   1  -5   3   30.74    3.38
  -1   5  -3   30.51    2.68
  -1   5  -3   35.43    3.29
   2  -5   3    6.62    1.70
  -2   5  -3    4.55    0.86
  -3   5  -3   18.79    1.97
  -4  -5  -3   24.87    3.84
   4  -5   3   17.95    3.10
  -4   5  -3   23.68    1.82
  -4   5  -3   20.32    2.78
   5  -5   3    3.78    2.16
  -5   5  -3    6.46    1.94
  -5   5  -3    7.63    0.91
  -3   6   3    0.52    0.49
  -3   6   3   -0.86    1.45
  -2   6   3    1.01    1.85
  -2   6   3    1.20    0.53
  -1   6   3   13.47    1.68
  -1   6   3   12.28    2.44
   0   6  -3   13.27    2.66
  -1   6  -3   13.48    2.39
  -2   6  -3    2.07    1.00
  -2   6  -3    1.89    0.86
 -11   0   4   25.12    2.75
 -11   0   4   26.96    2.07
  10   0  -4    1.69    0.95
 -10   0   4    0.85    0.98
 -10   0   4    3.80    1.48
 -10   0   4    1.71    0.85
  -9   0   4    0.24    2.05
   9   0  -4    2.37    1.27
  -9   0   4    1.22    1.22
  -9   0   4    1.07    0.84
   8   0  -4   20.93    2.42
   8   0  -4   21.01    2.51
  -8   0   4   26.05    2.46
  -8   0   4   18.12    2.04
  -8   0   4   21.23    2.09
  -8   0   4   25.71    3.80
   7   0  -4   -0.16    0.85
  -7   0   4    0.08    0.79
   7   0  -4    1.93    3.13
  -7   0   4   -0.10    1.02
   7   0  -4    1.09    1.00
  -6   0   4  163.60   10.35
  -6   0   4  148.84   10.41
   6   0  -4  141.71   10.53
  -6   0   4  152.34   10.56
   6   0  -4  150.68   10.46
  -6   0   4  152.33   10.54
  -5   0   4    4.22    0.97
   5   0  -4    3.73    0.76
   5   0  -4    4.26    1.43
   5   0  -4    4.32    2.37
   5   0  -4    6.42    1.64
   4   0  -4    0.76    0.36
  -4   0   4    0.49    0.70
   4   0  -4    1.14    0.87
   4   0  -4    1.66    0.76
  -4   0   4   -0.56    1.98
   4   0  -4    0.52    1.54
  -3   0   4   54.53    4.28
   3   0  -4   47.26    4.09
   3   0  -4   50.39    3.55
  -3   0   4   57.13    3.65
   3   0  -4   52.80    3.73
   3   0  -4   47.46    3.62
  -3   0   4   45.60    3.79
  -2   0   4    0.37    0.56
   2   0  -4    0.02    0.49
   2   0  -4    0.07    0.26
   2   0  -4    0.13    0.48
  -1   0   4  126.49    9.27
   1   0  -4  137.58    9.27
  -1   0   4  134.38    9.38
   1   0  -4  124.05    9.27
  -1   0   4  157.35    9.48
   1   0  -4  139.36    9.36
   0   0   4  597.93   41.74
   0   0  -4  640.17   41.73
   0   0   4  631.79   41.64
   0   0   4  595.73   41.60
  -1   0  -4   62.38    4.48
  -1   0  -4   63.37    4.35
   2   0   4   13.41    1.17
   2   0   4   13.23    1.60
  -2   0  -4   12.57    1.46
  -2   0  -4   13.05    1.17
  -2   0  -4   12.42    1.51
   2   0   4   15.20    1.73
   3   0   4    0.96    0.34
   3   0   4    3.25    1.04
   3   0   4    1.19    1.15
   3   0   4    0.76    0.56
  -3   0  -4   -1.88    1.07
  -3   0  -4    0.63    0.57
   4   0   4   54.16    3.78
  -4   0  -4   54.96    3.93
   4   0   4   50.67    3.97
   4   0   4   55.79    5.22
   5   0   4   30.07    3.01
  -5   0  -4   37.67    2.96
  -5   0  -4   32.24    3.23
   5   0   4   30.33    2.90
  -5   0  -4   38.32    2.51
  -5   0  -4   31.86    2.80
   6   0   4    3.78    1.61
  -6   0  -4    2.13    1.04
  -6   0  -4    2.51    0.65
  -6   0  -4    7.43    2.13
  -6   0  -4    4.73    1.48
   6   0   4    3.35    1.38
  -7   0  -4   75.86    6.22
  -8   0  -4    8.09    1.55
   8   0   4   12.56    2.04
  -8   0  -4   12.65    2.01
  -9   0  -4   21.40    2.13
  -9   0  -4   14.46    5.15
  -9   0  -4   16.98    1.89
 -11  -1   4    2.27    1.54
 -10  -1   4    3.41    0.94
  10  -1  -4    3.03    0.85
 -10  -1   4    2.70    0.83
 -10  -1   4    6.03    1.32
 -10   1   4    3.45    1.66
 -10   1   4    1.09    0.75
   9  -1  -4    2.09    1.05
  -9  -1   4    1.30    0.79
  -9  -1   4    2.34    1.08
  -9  -1   4    1.11    0.70
  -9   1   4    0.64    0.80
   9   1  -4    0.41    2.03
  -9   1   4    2.87    2.77
  -8  -1   4    2.03    0.68
   8  -1  -4    1.27    1.93
   8  -1  -4    1.44    1.03
  -8  -1   4    4.41    1.79
  -8  -1   4    2.30    0.82
  -8  -1   4    2.43    1.09
   8  -1  -4    2.73    1.36
   8   1  -4    6.85    2.22
  -8   1   4    2.02    1.61
   8   1  -4    6.02    1.55
   8   1  -4    6.45    3.71
  -8   1   4    4.11    2.95
  -7  -1   4    2.74    0.80
   7  -1  -4    1.85    1.54
  -7  -1   4    3.34    1.34
   7  -1  -4    2.26    1.51
   7  -1  -4    1.70    0.84
  -7  -1   4    2.09    1.22
   7   1  -4    2.19    1.31
   7   1  -4    8.06    2.98
   7   1  -4    2.33    1.22
  -7   1   4    4.66    2.37
  -7   1   4    1.64    1.53
  -7   1   4    1.52    1.09
  -6  -1   4   16.86    1.43
  -6  -1   4   13.11    1.88
   6  -1  -4   15.32    2.02
  -6  -1   4   17.35    1.74
  -6  -1   4   18.57    1.90
   6  -1  -4   15.30    1.97
   6   1  -4   17.30    3.02
  -6   1   4   16.20    2.06
   6   1  -4   16.25    3.61
  -6   1   4   15.87    1.88
   6   1  -4   12.71    2.41
   6   1  -4   15.68    1.81
   5  -1  -4  125.23    8.85
   5  -1  -4  123.89    9.29
   5  -1  -4  128.22    8.79
  -5  -1   4  146.02    8.89
   5   1  -4  128.83    9.14
   5   1  -4  123.98    9.67
   5   1  -4  117.02    8.84
   4  -1  -4   15.25    1.72
   4  -1  -4   15.31    2.95
   4  -1  -4   17.40    1.83
   4  -1  -4   18.88    1.34
  -4   1   4   13.92    2.26
   4   1  -4   17.71    1.76
   4   1  -4   19.10    2.59
   4   1  -4   14.65    1.40
  -3  -1   4    6.00    0.95
  -3  -1   4    5.99    1.78
   3  -1  -4    4.66    0.83
   3  -1  -4    6.50    1.47
   3  -1  -4    5.64    0.92
   3  -1  -4    5.01    0.61
   3   1  -4    5.79    1.02
  -3   1   4    5.18    1.89
   3   1  -4    4.27    1.24
  -2  -1   4   65.33    4.39
   2  -1  -4   60.63    4.48
   2  -1  -4   66.19    4.37
   2  -1  -4   67.64    4.76
  -2  -1   4   57.30    4.90
   2   1  -4   59.52    4.62
  -2   1   4   60.69    4.50
   2   1  -4   64.68    4.51
  -2   1   4   68.27    4.97
   1  -1  -4  395.40   27.38
  -1  -1   4  382.44   27.46
   1  -1  -4  403.14   27.31
  -1  -1   4  365.48   27.40
  -1  -1   4  404.90   27.44
   1  -1  -4  449.34   27.47
   1  -1  -4  396.96   27.34
  -1   1   4  446.74   27.52
   1   1  -4  407.20   27.48
   1   1  -4  390.19   27.42
   0  -1   4   76.24    5.82
   0  -1   4   88.93    5.83
   0  -1   4   82.13    5.96
   0  -1  -4   87.39    5.81
   0  -1  -4   86.15    5.86
   0  -1  -4   76.09    5.73
   0   1  -4   94.16    6.10
   0   1   4   79.49    5.81
   0   1   4   86.86    5.83
   0   1  -4   89.78    5.93
  -1  -1  -4   20.61    1.71
  -1  -1  -4   20.17    1.52
   1  -1   4   20.18    1.55
   1  -1   4   21.37    1.66
  -1   1  -4   20.29    2.11
   1   1   4   19.33    1.62
   1   1   4   19.68    1.64
  -1   1  -4   20.89    1.78
   2  -1   4   57.06    3.67
   2  -1   4   52.86    3.69
   2  -1   4   44.65    4.77
  -2  -1  -4   52.49    3.61
  -2   1  -4   46.99    3.88
   2   1   4   53.54    3.86
   2   1   4   53.62    3.73
  -2   1  -4   48.90    4.11
  -2   1  -4   49.89    4.14
  -3  -1  -4   36.25    2.56
   3  -1   4   35.50    2.61
   3  -1   4   34.55    2.69
   3  -1   4   32.78    3.86
  -3  -1  -4   34.03    3.11
   3   1   4   36.87    3.18
  -3   1  -4   30.94    3.50
  -3   1  -4   31.26    3.06
   3   1   4   35.33    2.71
   4  -1   4   21.73    2.15
   4  -1   4   18.38    1.70
   4  -1   4   23.60    4.67
   4  -1   4   21.39    1.89
  -4  -1  -4   20.45    1.85
   4  -1   4   20.32    2.05
   4   1   4   21.62    2.18
   4   1   4   24.18    3.84
  -4   1  -4   16.84    2.59
  -4   1  -4   23.54    3.38
   5  -1   4   10.21    1.76
   5  -1   4   13.03    1.46
   5  -1   4   11.91    1.64
  -5  -1  -4   11.20    1.69
  -5  -1  -4   10.27    1.23
  -5  -1  -4   11.13    1.58
   5  -1   4   13.08    2.16
   5   1   4   12.49    1.83
  -5   1  -4   10.58    3.94
  -5   1  -4   11.87    2.27
  -5   1  -4   13.25    1.89
  -5   1  -4   10.73    1.79
   6  -1   4   30.24    3.92
   6  -1   4   31.10    2.91
  -6  -1  -4   33.21    2.42
  -6  -1  -4   29.46    3.38
  -6  -1  -4   31.54    2.79
  -6  -1  -4   32.64    2.82
  -6   1  -4   27.97    2.71
  -6   1  -4   35.22    3.26
  -6   1  -4   32.33    2.93
   7  -1   4   19.07    2.28
  -7  -1  -4   18.69    1.70
  -7  -1  -4   23.14    2.88
   7  -1   4   26.74    3.63
  -7  -1  -4   19.58    2.25
  -7  -1  -4   19.20    2.71
  -7   1  -4   19.18    2.79
  -7   1  -4   17.73    2.16
  -7   1  -4   22.71    2.44
  -8  -1  -4    6.70    0.89
   8  -1   4    8.78    1.36
  -8   1  -4    7.62    1.30
  -8   1  -4    3.02    4.99
  -8   1  -4    6.22    1.30
  -9  -1  -4    2.55    1.14
  -9  -1  -4    2.75    0.80
  -9  -1  -4   -0.69    4.25
   9  -1   4    3.59    0.87
  -9   1  -4    3.31    0.99
 -10  -2   4    4.68    0.83
 -10  -2   4    9.41    1.29
  10  -2  -4    9.70    1.35
 -10  -2   4    6.87    0.98
 -10   2   4    6.58    1.16
  -9  -2   4    0.39    0.80
   9  -2  -4    0.75    2.98
   9  -2  -4    2.03    1.47
  -9  -2   4    0.33    0.82
  -9  -2   4    1.13    0.58
  -9  -2   4   -2.12    2.29
  -9   2   4   -0.90    0.81
  -8  -2   4   35.81    2.91
  -8  -2   4   30.98    2.44
   8  -2  -4   32.68    3.36
  -8  -2   4   34.97    2.67
  -8  -2   4   32.78    3.11
   8  -2  -4   29.92    3.47
   8  -2  -4   33.80    2.87
  -8   2   4   32.03    2.81
   8   2  -4   23.15    4.13
   7  -2  -4   12.10    1.82
  -7  -2   4   12.44    1.85
   7  -2  -4   11.55    1.73
  -7  -2   4   11.42    1.87
  -7  -2   4   12.76    1.43
  -7  -2   4   13.71    2.10
   7  -2  -4   14.91    2.09
  -7   2   4   11.50    1.87
   7   2  -4    9.18    2.56
  -7   2   4   15.70    2.49
   6  -2  -4   17.96    2.12
   6  -2  -4   17.46    1.78
  -6  -2   4   19.41    1.49
  -6  -2   4   17.20    1.90
   6  -2  -4   15.11    2.04
  -6  -2   4   17.67    2.05
   6   2  -4   16.35    2.37
  -6   2   4   22.72    5.01
  -6   2   4   16.49    2.19
  -6   2   4   18.65    2.13
  -5  -2   4  114.67    8.20
   5  -2  -4  124.02    7.95
  -5  -2   4  113.01    7.92
   5  -2  -4  118.34    7.98
   5  -2  -4  114.35    8.27
  -5  -2   4  108.12    7.82
  -5   2   4  106.16   10.19
  -5   2   4  122.76    8.03
   5   2  -4  115.43    8.36
  -5   2   4  103.43    7.94
   5   2  -4  113.72    8.35
   4  -2  -4   31.39    5.18
   4  -2  -4   42.79    2.98
  -4  -2   4   42.39    2.99
   4  -2  -4   41.88    3.05
   4   2  -4   40.47    4.39
   4   2  -4   31.70    4.94
   4   2  -4   43.95    3.33
   3  -2  -4   82.49    6.31
   3  -2  -4   86.44    7.01
   3  -2  -4   99.71    6.28
  -3  -2   4   90.90    6.27
   3   2  -4   99.06    6.48
   3   2  -4   91.63    8.22
   3   2  -4   85.65    7.02
  -3   2   4   87.58    6.49
   3   2  -4   92.79    6.93
   2  -2  -4   55.71    4.87
  -2  -2   4   58.47    4.10
   2  -2  -4   64.14    4.08
   2  -2  -4   59.58    4.22
   2  -2  -4   53.71    5.71
   2  -2  -4   63.38    4.74
   2  -2  -4   51.44    4.09
  -2  -2   4   61.99    4.93
  -2   2   4   57.82    4.20
   2   2  -4   56.48    4.82
  -2   2   4   52.11    5.16
   2   2  -4   63.88    4.92
   2   2  -4   60.40    4.25
   1  -2  -4   10.91    2.14
  -1  -2   4   14.79    2.72
  -1  -2   4   14.82    1.33
   1  -2  -4   10.69    2.53
   1  -2  -4   15.65    1.17
   1  -2  -4   17.72    2.19
  -1   2   4   14.41    1.30
   1   2  -4   16.27    1.43
   1   2  -4   15.79    2.45
   0  -2   4    4.58    1.89
   0  -2   4    3.48    0.76
   0  -2   4    5.38    0.85
   0  -2  -4    5.63    1.06
   0  -2  -4    8.34    2.18
   0   2  -4    2.39    1.51
   0   2  -4    6.05    0.99
  -1  -2  -4   48.16    4.39
  -1  -2  -4   48.59    3.31
   1  -2   4   49.51    3.69
   1  -2   4   48.29    3.40
   1  -2   4   38.81    4.62
   1  -2   4   46.08    4.79
  -1   2  -4   47.03    4.65
  -1   2  -4   45.56    4.37
  -1   2  -4   50.21    3.61
   2  -2   4   26.07    2.07
   2  -2   4   26.99    2.01
  -2  -2  -4   24.40    1.96
   2  -2   4   28.56    4.71
   2   2   4   21.38    2.99
  -2   2  -4   20.51    3.61
  -2   2  -4   27.19    2.42
   3  -2   4    2.41    0.64
  -3  -2  -4    2.00    0.66
   3  -2   4    3.06    0.84
   3  -2   4    0.95    3.95
   3   2   4   -1.69    2.72
  -3   2  -4    2.32    0.94
  -3   2  -4    2.16    3.33
  -3   2  -4    0.28    3.01
  -3   2  -4    2.80    1.76
  -3   2  -4    2.12    0.69
  -3   2  -4    0.09    1.33
   4  -2   4   22.38    2.21
   4  -2   4   22.58    2.14
  -4  -2  -4   24.57    2.07
   4  -2   4   21.65    2.22
   4  -2   4   25.62    2.15
  -4  -2  -4   18.08    2.71
  -4  -2  -4   24.60    2.43
  -4   2  -4   23.21    2.92
  -4   2  -4   27.60    2.01
  -4   2  -4   24.26    2.04
  -4   2  -4   26.84    6.10
  -4   2  -4   21.07    4.09
   5  -2   4    5.03    1.27
  -5  -2  -4    7.35    1.55
   5  -2   4    6.27    1.20
  -5  -2  -4    4.39    1.17
   5  -2   4    7.31    1.52
   5  -2   4    6.75    1.35
  -5   2  -4    9.33    1.61
  -5   2  -4    6.20    2.05
  -5   2  -4   11.74    4.65
   6  -2   4    0.47    1.58
  -6  -2  -4    0.42    0.67
   6  -2   4   -2.35    1.50
   6  -2   4    1.22    1.90
  -6  -2  -4    0.05    1.46
   6  -2   4    1.76    1.05
  -6  -2  -4    1.22    1.03
  -6  -2  -4    0.63    1.06
  -6   2  -4    2.46    1.06
  -6   2  -4    0.62    5.27
  -6   2  -4    2.01    0.96
  -6   2  -4   -1.93    1.58
   7  -2   4   -0.18    2.62
  -7  -2  -4   -0.16    0.60
  -7  -2  -4    1.18    0.95
  -7  -2  -4    3.25    1.61
   7  -2   4    0.73    0.96
  -7  -2  -4   -0.50    1.50
  -7   2  -4   -0.63    1.51
  -7   2  -4   -2.46    6.08
  -7   2  -4    1.37    0.89
   8  -2   4    0.93    0.82
  -8  -2  -4   -0.97    1.69
  -8  -2  -4    0.52    1.03
  -8  -2  -4    0.01    0.40
  -8  -2  -4    3.59    2.28
  -8   2  -4    0.02    0.86
  -8   2  -4   -1.56    0.96
   9  -2   4    2.33    0.71
  -9  -2  -4    2.30    0.53
  -9  -2  -4    3.42    0.75
  -9   2  -4    0.59    0.97
  -9   2  -4    4.46    1.10
   9  -3  -4    1.79    0.93
   9  -3  -4    8.07    2.98
  -9  -3   4    0.59    0.88
  -9  -3   4    5.59    2.20
  -9   3   4    0.53    0.81
   8  -3  -4    0.17    1.19
   8  -3  -4    1.05    1.87
  -8  -3   4    0.23    0.58
  -8  -3   4    2.00    1.30
  -8  -3   4   -0.02    1.50
  -8   3   4    0.58    1.31
  -8   3   4   -0.20    0.90
  -7  -3   4    5.50    1.11
  -7  -3   4    4.34    1.20
  -7  -3   4    3.82    1.15
  -7  -3   4    4.52    0.79
   7  -3  -4    4.71    1.27
   7  -3  -4    5.35    1.57
   7   3  -4    3.73    2.07
  -7   3   4    5.54    0.93
  -7   3   4    4.68    1.32
  -7   3   4    1.86    2.41
   6  -3  -4  102.79    7.78
  -6  -3   4  105.67    7.38
  -6  -3   4  107.35    7.68
   6  -3  -4  101.30    7.68
  -6  -3   4  100.75    7.55
   6  -3  -4  112.44    7.71
  -6   3   4  104.73    7.78
   6   3  -4  115.32    8.10
  -6   3   4  113.17    7.47
   5  -3  -4    9.47    1.73
  -5  -3   4   13.37    1.61
  -5  -3   4    9.66    1.35
   5  -3  -4   15.06    1.77
  -5  -3   4   14.50    1.55
  -5   3   4   14.67    2.00
  -4  -3   4    2.50    0.73
   4  -3  -4    2.15    0.96
  -4  -3   4    1.29    1.46
   4  -3  -4    1.45    0.87
  -4   3   4    3.20    0.73
   4   3  -4    4.18    2.04
  -4   3   4    0.76    1.60
   4   3  -4    3.59    2.37
  -4   3   4    4.46    1.41
   3  -3  -4    3.86    0.85
   3  -3  -4    4.21    0.78
  -3  -3   4    4.03    0.78
  -3   3   4    3.94    0.75
  -3   3   4    2.03    1.86
   3   3  -4    9.92    4.51
   3   3  -4    1.80    3.22
   3   3  -4    2.96    1.42
   2  -3  -4   22.52    1.72
   2  -3  -4   15.85    3.85
  -2  -3   4   20.82    1.81
   2   3  -4   24.49    3.77
  -2   3   4   18.93    3.86
  -2   3   4   20.20    2.01
   2   3  -4   21.48    2.11
  -1  -3   4    7.99    1.20
   1  -3  -4    9.59    1.08
  -1   3   4    6.77    1.18
   1   3  -4    7.02    1.65
   1   3  -4    6.84    2.32
   1   3  -4   12.01    4.42
   1   3  -4    8.82    1.47
   0  -3   4    8.49    1.26
   0  -3   4    8.33    1.23
   0   3  -4    9.48    1.55
   0   3  -4    3.98    2.48
   0   3  -4   12.42    2.92
  -1  -3  -4   10.54    1.25
   1  -3   4    9.16    1.23
  -1   3  -4   11.77    3.13
  -1   3  -4   12.47    1.84
  -1   3  -4    7.69    1.28
  -1   3  -4    7.33    1.76
  -1   3  -4    8.45    1.66
   2  -3   4   33.17    3.53
   2  -3   4   33.57    2.54
  -2  -3  -4   26.87    2.49
   2   3   4   39.13    3.50
  -2   3  -4   29.18    2.59
  -2   3  -4   25.76    3.13
  -2   3  -4   32.79    3.36
  -2   3  -4   32.04    2.43
  -2   3  -4   32.59    3.49
   3  -3   4   21.36    2.00
   3  -3   4   22.85    2.50
   3  -3   4   18.09    1.99
  -3  -3  -4   16.27    1.89
  -3   3  -4   27.42    4.60
  -3   3  -4   18.58    1.96
  -3   3  -4   23.96    1.85
  -3   3  -4   20.69    2.95
  -3   3  -4   19.07    2.74
   4  -3   4   32.21    2.95
   4  -3   4   29.79    3.05
   4  -3   4   27.98    3.06
   4  -3   4   35.87    3.04
  -4  -3  -4   30.77    2.74
  -4   3  -4   36.69    4.11
  -4   3  -4   35.46    2.94
  -4   3  -4   29.71    3.66
  -4   3  -4   36.66    7.61
  -4   3  -4   37.94    2.64
   5  -3   4   21.78    4.47
  -5  -3  -4   19.36    2.14
   5  -3   4   22.95    2.65
  -5  -3  -4   22.37    2.59
   5  -3   4   24.51    2.79
   5  -3   4   21.14    2.41
  -5  -3  -4   21.72    2.30
  -5   3  -4   16.98    6.14
  -5   3  -4   24.19    4.46
  -5   3  -4   19.05    2.11
  -5   3  -4   29.32    4.05
  -6  -3  -4    2.76    1.64
   6  -3   4    1.21    1.80
  -6  -3  -4    3.91    1.18
   6  -3   4    2.75    1.00
  -6  -3  -4    0.76    1.17
  -6  -3  -4    2.77    0.74
  -6   3  -4    3.07    0.85
  -6   3  -4    0.80    0.77
  -6   3  -4    2.14    1.75
  -7  -3  -4    4.66    1.18
   7  -3   4    5.23    1.05
  -7  -3  -4    1.97    1.43
   7  -3   4    1.88    2.55
  -7  -3  -4    3.61    1.53
  -7  -3  -4    2.47    0.63
  -7   3  -4    3.03    0.85
  -7   3  -4    2.84    1.48
   8  -3   4    1.64    0.69
  -8  -3  -4    0.72    0.43
  -8  -3  -4    0.91    0.76
  -8  -3  -4    0.53    1.42
  -8   3  -4    2.88    1.31
  -8   3  -4    2.34    0.73
   8  -4  -4    1.66    2.33
  -8  -4   4    1.06    0.53
   8  -4  -4    1.44    1.07
  -8  -4   4    2.12    1.64
  -8  -4   4    0.34    1.02
  -8   4   4    0.67    0.63
  -8   4   4    1.13    1.09
  -8   4   4    0.00    2.96
  -7  -4   4    3.80    1.34
  -7  -4   4    5.37    1.07
  -7  -4   4    3.59    0.72
   7  -4  -4    2.31    1.45
   7  -4  -4    1.05    1.83
  -7  -4   4    1.80    1.21
  -7   4   4    6.05    1.12
  -7   4   4    6.52    2.29
  -6  -4   4   -0.34    1.17
   6  -4  -4    0.76    1.71
  -6  -4   4   -0.25    1.40
  -6  -4   4   -0.63    0.73
  -6   4   4   -1.88    1.51
  -6   4   4    0.49    0.66
  -6   4   4    0.13    1.45
   6   4  -4   -0.66    2.23
  -5  -4   4    8.48    1.04
   5  -4  -4    6.05    2.28
   5  -4  -4    8.74    1.84
   5   4  -4   13.72    3.06
  -5   4   4    9.19    1.74
   4  -4  -4   -1.27    1.51
   4  -4  -4    0.46    1.76
  -4  -4   4    1.39    0.98
  -4   4   4   -1.50    1.70
  -4   4   4   -0.58    0.71
   4   4  -4   -0.58    3.00
   3  -4  -4   10.48    2.23
  -3  -4   4   10.22    1.70
   3   4  -4   11.80    3.26
  -3   4   4    9.98    1.47
  -2  -4   4   16.22    2.43
  -2   4   4   16.11    1.76
  -2   4   4   11.53    2.55
  -1  -4   4    4.13    1.20
  -1   4   4    4.62    1.39
   1   4  -4    3.95    3.55
   0  -4   4   50.14    3.77
   0  -4   4   45.91    3.55
   0   4   4   45.61    6.18
   0   4  -4   42.28    3.46
   0   4  -4   47.91    6.37
   1  -4   4   27.25    2.64
   1  -4   4   24.97    2.67
  -1   4  -4   26.17    2.24
  -1   4  -4   25.65    3.42
  -1   4  -4   32.92    3.30
   2  -4   4   91.07    6.37
   2  -4   4   87.39    6.88
  -2  -4  -4   89.73    6.36
  -2   4  -4   86.53    6.74
  -2   4  -4   87.61    8.34
  -2   4  -4   83.41    6.64
  -2   4  -4   91.65    6.18
  -3  -4  -4   34.13    3.35
   3  -4   4   36.74    3.32
   3  -4   4   33.98    3.39
  -3   4  -4   49.06    6.22
  -3   4  -4   45.59    4.15
  -3   4  -4   36.06    7.00
   4  -4   4    3.79    1.36
   4  -4   4    3.22    1.45
   4  -4   4    0.04    2.94
  -4  -4  -4    3.70    1.39
  -4   4  -4    1.15    1.57
  -4   4  -4    3.31    0.86
  -4   4  -4    2.00    2.31
  -4   4  -4    3.62    5.14
   5  -4   4    2.36    1.28
   5  -4   4    1.43    1.69
  -5  -4  -4    2.15    1.47
  -5   4  -4    3.91    0.95
  -5   4  -4    1.76    1.86
   6  -4   4   18.21    1.94
   6  -4   4   18.38    3.17
  -6  -4  -4   15.81    1.70
  -6  -4  -4   21.22    2.69
  -7  -4  -4    0.19    0.49
   7  -4   4    1.16    0.68
  -7   4  -4    0.56    2.40
  -6  -5   4    1.77    1.64
  -6  -5   4    0.18    0.69
  -6   5   4    0.35    0.52
  -6   5   4   -1.25    1.16
   5  -5  -4    2.03    2.17
  -5  -5   4    2.63    1.58
  -5  -5   4    0.95    0.81
  -5   5   4    0.31    0.83
  -5   5   4    1.43    0.55
   4  -5  -4    0.88    2.38
  -4  -5   4   -1.74    2.03
  -4   5   4    0.99    0.66
  -4   5   4    1.77    1.10
  -3  -5   4    6.49    1.59
  -3  -5   4   10.59    2.71
  -3   5   4    7.32    1.02
  -2  -5   4   16.53    2.57
  -2  -5   4   25.68    3.62
  -2   5   4   19.90    2.00
  -2   5   4   15.58    2.60
  -1  -5   4    7.56    2.36
  -1  -5   4    5.16    1.51
  -1   5   4    4.94    2.55
   1   5  -4    8.06    1.96
  -1   5   4    4.85    0.97
   0  -5   4    7.08    1.62
   0   5   4    8.43    4.12
   0   5   4    6.03    1.17
   0   5  -4    9.24    1.75
   1  -5   4   33.11    3.43
  -1   5  -4   34.04    2.79
  -1   5  -4   36.62    3.38
   2  -5   4   31.39    3.24
  -2   5  -4   29.44    2.89
   3  -5   4    5.62    1.78
  -3   5  -4    7.38    1.94
   4  -5   4    5.68    2.07
  -4   5  -4    8.30    1.87
  -4   5  -4   11.21    2.48
  -4   5  -4   10.67    1.16
  -5   5  -4    0.58    1.33
  -5   5  -4    0.55    0.45
  -3   6   4   10.31    2.41
  -3   6   4   10.80    1.18
  -2   6   4    1.97    0.73
  -2   6   4   -1.00    2.10
  -1   6   4   10.32    1.61
   0   6  -4   10.92    2.45
  -1   6  -4    3.62    1.22
  -2   6  -4    2.50    1.11
  11   0  -5    3.90    1.81
 -11   0   5    2.58    0.68
 -11   0   5    4.60    1.31
 -10   0   5    2.62    0.98
  10   0  -5   -0.69    0.86
 -10   0   5    1.10    1.55
 -10   0   5   -0.37    0.71
   9   0  -5    1.03    1.29
  -9   0   5   -0.24    2.64
  -9   0   5   -0.48    1.15
  -9   0   5    0.38    0.93
   8   0  -5   25.23    2.88
   8   0  -5   26.80    2.70
  -8   0   5   27.16    2.36
  -8   0   5   28.68    2.70
   7   0  -5   50.90    4.13
  -7   0   5   50.82    4.20
  -7   0   5   57.70    3.83
   7   0  -5   53.20    4.97
   7   0  -5   50.95    4.05
  -7   0   5   55.49    3.95
  -6   0   5   44.08    3.57
  -6   0   5   47.17    3.35
  -6   0   5   45.01    3.24
   6   0  -5   45.68    4.82
   6   0  -5   43.82    3.56
   6   0  -5   42.10    3.70
   6   0  -5   44.96    3.31
  -6   0   5   37.46    4.43
   5   0  -5   23.64    1.88
   5   0  -5   22.88    2.62
   5   0  -5   23.82    2.26
  -5   0   5   24.02    2.23
   4   0  -5  120.71    8.50
   4   0  -5  115.79    8.29
   4   0  -5  114.71    8.24
  -4   0   5  123.81    8.27
  -4   0   5  125.47    9.59
  -3   0   5    0.61    1.42
   3   0  -5    1.04    0.40
   3   0  -5   -0.54    0.79
   3   0  -5    0.77    0.60
  -3   0   5   -0.14    0.65
  -3   0   5    0.15    1.06
  -2   0   5   28.02    2.40
   2   0  -5   29.37    2.22
   2   0  -5   31.06    2.28
   2   0  -5   29.08    2.30
   2   0  -5   31.02    2.16
  -1   0   5    1.40    0.92
   1   0  -5    1.60    0.62
  -1   0   5    1.46    0.66
  -1   0   5    1.58    0.35
   1   0  -5    0.95    0.34
   1   0  -5    2.53    0.56
   0   0  -5  371.34   24.25
   0   0   5  354.79   24.13
   0   0   5  348.90   24.28
   0   0  -5  350.30   24.11
  -1   0  -5  139.15    9.91
   1   0   5  151.73    9.95
   2   0   5   11.43    1.07
  -2   0  -5    9.80    1.10
  -2   0  -5   10.84    1.59
   2   0   5   10.50    1.75
  -2   0  -5    9.15    1.62
  -3   0  -5   11.91    1.36
   3   0   5   12.36    2.46
   3   0   5   12.91    1.05
   3   0   5    9.10    1.98
   3   0   5   13.05    1.33
   4   0   5    0.82    0.79
  -4   0  -5    1.14    0.85
  -4   0  -5    3.01    1.76
  -4   0  -5    2.78    3.82
  -4   0  -5    0.82    0.84
  -4   0  -5    0.95    0.45
   4   0   5    2.33    1.10
   5   0   5   23.16    2.39
  -5   0  -5   25.44    1.84
   5   0   5   21.02    2.43
  -5   0  -5   21.30    2.26
  -5   0  -5   23.45    2.53
  -5   0  -5   23.27    2.69
  -6   0  -5   28.62    2.61
  -6   0  -5   28.97    2.19
   6   0   5   26.95    3.06
  -6   0  -5   22.15    3.51
   6   0   5   25.07    2.60
  -6   0  -5   28.19    3.14
  -7   0  -5   72.21    5.11
   7   0   5   65.06    5.19
  -7   0  -5   64.62    4.86
  -7   0  -5   75.36    5.44
  -8   0  -5    9.49    1.52
  -8   0  -5    3.56    3.90
  -8   0  -5   10.94    1.52
   8   0   5    8.19    1.38
  -9   0  -5    0.33    5.15
  -9   0  -5    0.53    0.99
  -9   0  -5    1.00    1.05
 -11  -1   5    3.43    0.90
  11  -1  -5    2.95    0.90
 -11  -1   5    2.04    1.18
 -11  -1   5    2.38    1.24
 -11   1   5    2.24    0.63
  10  -1  -5    2.52    0.76
 -10  -1   5    3.51    0.86
 -10  -1   5    5.39    1.07
 -10  -1   5    5.63    1.26
 -10   1   5    2.95    0.76
  -9  -1   5    2.09    0.99
   9  -1  -5    3.20    1.07
  -9  -1   5    0.94    0.73
  -9  -1   5    2.42    0.80
   9   1  -5    2.96    1.79
  -9   1   5    1.01    0.82
   8  -1  -5   11.95    1.96
   8  -1  -5   11.66    2.07
   8  -1  -5    9.71    2.15
  -8  -1   5   12.13    1.92
  -8  -1   5    9.69    1.28
  -8  -1   5    9.47    2.03
   8   1  -5    7.85    2.06
   8   1  -5   12.73    3.47
   8   1  -5   11.88    1.72
  -8   1   5   11.23    1.70
  -8   1   5    7.95    1.80
  -7  -1   5   27.11    2.83
   7  -1  -5   32.32    3.03
   7  -1  -5   32.01    2.57
   7   1  -5   29.08    2.82
  -7   1   5   23.19    3.21
   7   1  -5   27.16    4.63
   7   1  -5   27.21    2.89
  -6  -1   5   31.58    2.69
   6  -1  -5   30.43    2.77
   6  -1  -5   33.77    2.84
   6  -1  -5   34.96    2.54
  -6  -1   5   29.96    2.74
  -6  -1   5   31.62    2.38
   6   1  -5   29.18    3.04
  -6   1   5   33.21    3.28
   6   1  -5   30.66    4.01
  -6   1   5   31.40    2.67
   5  -1  -5   44.27    3.31
   5  -1  -5   45.69    3.21
   5  -1  -5   40.99    5.78
  -5  -1   5   46.17    3.30
   5   1  -5   44.17    3.80
   5   1  -5   41.27    4.90
   5   1  -5   42.49    3.31
   4  -1  -5  209.03   14.29
   4  -1  -5  200.22   14.61
  -4  -1   5  211.49   14.04
   4  -1  -5  226.39   14.24
   4  -1  -5  190.11   14.05
   4   1  -5  214.59   14.29
   4   1  -5  206.38   14.18
   4   1  -5  190.86   14.39
   3  -1  -5   85.02    6.10
   3  -1  -5   93.92    6.29
  -3  -1   5   94.05    6.11
   3  -1  -5   94.77    6.09
  -3  -1   5   90.59    7.04
   3   1  -5   82.66    6.46
   3   1  -5   89.49    6.30
   3   1  -5   79.12    6.12
  -3   1   5   83.83    6.36
  -3   1   5   90.87    7.23
   2  -1  -5   25.34    1.70
   2  -1  -5   25.77    2.50
  -2  -1   5   23.34    1.80
  -2  -1   5   20.73    2.97
  -2   1   5   23.72    1.96
   2   1  -5   21.41    2.23
   2   1  -5   23.96    1.94
   2   1  -5   19.10    1.76
  -2   1   5   25.68    2.85
   1  -1  -5    8.76    0.97
  -1  -1   5    7.82    0.98
   1  -1  -5    7.71    0.89
   1  -1  -5    9.35    0.90
  -1  -1   5   11.37    1.61
  -1   1   5    9.35    0.89
  -1   1   5   10.02    1.66
   1   1  -5    9.02    1.10
  -1   1   5    7.76    1.06
   0  -1  -5   96.07    6.69
   0  -1  -5   98.57    6.83
   0  -1   5  100.90    6.76
   0  -1   5   93.05    6.74
   0   1   5   97.29    6.75
   0   1  -5  105.09    7.09
   0   1   5   94.81    6.74
   0   1  -5   98.80    6.89
   1  -1   5   76.69    5.09
   1  -1   5   65.80    5.40
   1  -1   5   71.89    5.06
  -1  -1  -5   73.14    5.22
  -1  -1  -5   74.05    5.01
  -1   1  -5   72.37    5.27
  -1   1  -5   73.43    5.51
   1   1   5   72.93    5.11
   2  -1   5  172.02   11.30
  -2  -1  -5  156.94   11.22
  -2  -1  -5  155.00   11.49
  -2   1  -5  150.50   11.83
  -2   1  -5  158.20   11.52
   2   1   5  164.39   11.35
  -2   1  -5  184.46   11.52
  -2   1  -5  176.29   11.97
   3  -1   5   57.48    3.86
   3  -1   5   58.76    5.32
  -3  -1  -5   54.30    3.77
   3  -1   5   53.52    3.93
  -3   1  -5   43.87    4.89
   3   1   5   46.95    4.58
  -3   1  -5   51.13    4.42
   3   1   5   50.66    3.92
  -4  -1  -5    5.20    0.93
  -4  -1  -5    7.15    1.66
   4  -1   5    6.81    1.17
   4  -1   5    5.58    1.04
   4  -1   5    6.04    1.25
   4  -1   5    5.05    1.06
  -4  -1  -5    6.09    0.99
  -4   1  -5    4.68    0.89
   4   1   5    5.80    1.10
  -4   1  -5    5.72    1.18
  -4   1  -5    6.58    1.35
  -4   1  -5    7.55    3.08
  -4   1  -5    6.68    1.25
   5  -1   5    3.01    1.06
   5  -1   5    5.11    1.77
  -5  -1  -5    2.72    0.98
   5  -1   5    5.39    1.28
   5  -1   5    1.67    1.04
  -5  -1  -5    3.21    0.63
  -5  -1  -5    4.21    1.33
  -5  -1  -5    4.51    1.06
  -5   1  -5    6.68    4.38
  -5   1  -5    4.85    1.17
  -5   1  -5    3.35    1.52
   5   1   5    4.48    1.33
  -5   1  -5    3.54    1.17
   6  -1   5    7.83    1.29
  -6  -1  -5    7.24    1.38
  -6  -1  -5    6.04    1.12
  -6  -1  -5    9.07    1.70
  -6  -1  -5    8.97    1.33
   6  -1   5   11.65    2.16
  -6   1  -5   17.58    5.05
  -6   1  -5    6.54    1.26
  -6   1  -5    6.92    1.40
  -6   1  -5    7.39    1.57
   7  -1   5   21.94    3.42
   7  -1   5   18.32    2.16
  -7  -1  -5   17.46    1.61
  -7  -1  -5   17.19    2.14
  -7  -1  -5   20.20    2.91
  -7  -1  -5   17.16    2.72
  -7   1  -5   15.01    2.29
  -7   1  -5   30.65    6.33
  -7   1  -5   18.85    2.40
  -7   1  -5   22.84    2.84
   8  -1   5    1.24    0.81
  -8  -1  -5    1.87    0.81
  -8  -1  -5    2.85    1.23
  -8  -1  -5    2.62    0.48
  -8   1  -5    4.70    1.21
  -8   1  -5    8.13    4.95
  -8   1  -5    1.27    1.16
  -9  -1  -5    2.00    0.82
   9  -1   5    3.03    0.93
  -9  -1  -5   -1.33    3.81
  -9   1  -5    1.03    0.87
 -10  -2   5    1.26    0.74
 -10  -2   5    4.16    1.23
 -10  -2   5    1.01    0.46
 -10  -2   5    1.21    0.75
  10  -2  -5    1.78    0.82
 -10   2   5    0.97    0.66
   9  -2  -5   -1.07    1.02
  -9  -2   5    1.75    0.79
  -9  -2   5    1.88    0.57
  -9  -2   5    2.35    2.42
   9  -2  -5   -1.62    3.01
  -9  -2   5    0.61    0.92
  -9   2   5    0.80    0.91
  -8  -2   5    8.00    1.31
   8  -2  -5    7.88    1.95
  -8  -2   5    6.32    1.10
   8  -2  -5    4.58    1.91
   8  -2  -5    6.46    1.32
  -8  -2   5    7.07    1.57
   8   2  -5    6.17    2.61
  -8   2   5    5.63    1.21
   7  -2  -5   10.18    1.88
   7  -2  -5   10.73    1.77
   7  -2  -5    8.17    1.38
  -7  -2   5   11.29    1.84
  -7  -2   5   11.72    1.30
  -7  -2   5   13.85    1.77
  -7  -2   5   11.51    1.97
  -7   2   5    7.59    3.43
   7   2  -5    6.03    2.53
  -7   2   5   11.77    1.93
  -6  -2   5   12.88    1.94
   6  -2  -5   15.41    1.94
   6  -2  -5   11.89    1.54
  -6  -2   5   14.31    1.78
   6  -2  -5   14.24    1.68
  -6  -2   5   15.86    1.36
  -6   2   5   21.24    4.22
   6   2  -5   14.67    2.25
  -6   2   5   16.75    2.09
   6   2  -5   18.29    2.70
   5  -2  -5   67.61    5.04
   5  -2  -5   66.61    4.61
  -5  -2   5   58.69    4.40
  -5  -2   5   61.19    4.54
  -5  -2   5   61.87    4.68
   5   2  -5   66.05    5.20
  -5   2   5   58.04    4.69
   5   2  -5   63.27    5.32
  -5   2   5   67.04    4.80
  -5   2   5   66.02    5.88
   4  -2  -5   28.11    4.58
  -4  -2   5   33.59    2.54
   4  -2  -5   32.23    2.58
   4  -2  -5   36.78    2.51
   4   2  -5   36.78    3.01
   4   2  -5   25.22    4.47
   4   2  -5   30.73    4.95
  -3  -2   5   76.68    5.12
   3  -2  -5   71.19    5.10
   3  -2  -5   68.13    6.13
   3   2  -5   71.35    5.82
   3   2  -5   78.62    5.38
   3   2  -5   72.14    6.02
   2  -2  -5   14.41    2.71
  -2  -2   5   12.07    1.24
   2  -2  -5   14.18    1.10
   2  -2  -5   10.70    1.24
   2  -2  -5   14.17    2.68
   2   2  -5   13.76    1.46
  -2   2   5    8.51    2.41
   2   2  -5   10.93    2.16
   2   2  -5   13.49    2.58
   2   2  -5   14.14    2.98
  -2   2   5   11.88    1.53
  -1  -2   5   22.45    3.25
   1  -2  -5   14.59    2.54
  -1  -2   5   21.83    1.70
   1  -2  -5   19.25    1.54
   1  -2  -5   15.83    2.40
   1  -2  -5   19.04    1.41
   1   2  -5   16.92    3.01
  -1   2   5   16.19    1.70
   1   2  -5   21.86    3.06
   1   2  -5   18.19    1.73
   0  -2   5   16.33    1.48
   0  -2   5   14.29    2.59
   0  -2   5   16.61    1.55
   0  -2  -5   18.40    1.42
   0   2  -5   18.31    1.77
   0   2  -5   19.17    3.08
   0   2  -5   15.71    3.10
   1  -2   5  108.65    7.04
  -1  -2  -5  103.60    8.04
   1  -2   5  102.84    7.06
  -1   2  -5  105.05    7.30
  -1   2  -5   87.84    7.86
  -1   2  -5   98.47    7.78
   2  -2   5   49.61    6.25
   2  -2   5   56.39    3.98
  -2  -2  -5   52.82    3.88
   2  -2   5   57.06    3.95
  -2   2  -5   60.40    5.24
  -2   2  -5   47.63    5.67
  -2   2  -5   54.01    4.43
   3  -2   5   13.56    1.71
  -3  -2  -5   12.70    1.37
   3  -2   5   13.09    1.57
  -3   2  -5    8.87    2.14
  -3   2  -5   16.17    2.87
  -3   2  -5   13.43    1.38
  -3   2  -5   12.76    1.64
  -3   2  -5   13.62    3.69
  -3   2  -5   13.15    1.62
   4  -2   5    8.37    1.41
   4  -2   5    7.78    1.32
  -4  -2  -5    7.41    1.37
  -4  -2  -5    8.85    1.36
  -4  -2  -5    7.69    1.33
   4  -2   5    8.30    1.49
  -4   2  -5    9.71    1.55
  -4   2  -5    6.29    2.32
  -4   2  -5   11.30    3.88
  -4   2  -5    8.05    1.38
  -4   2  -5    8.10    4.28
  -4   2  -5   10.73    1.31
  -5  -2  -5    1.26    1.05
  -5  -2  -5   -0.94    0.84
   5  -2   5   -0.68    1.92
  -5  -2  -5   -1.05    0.65
   5  -2   5   -0.08    1.53
  -5  -2  -5   -0.81    1.79
   5  -2   5   -0.46    1.25
   5  -2   5   -0.46    1.05
  -5   2  -5   -0.31    0.81
  -5   2  -5   -0.76    0.98
  -5   2  -5    1.07    1.41
  -5   2  -5    1.42    4.84
  -6  -2  -5    8.62    1.37
   6  -2   5   10.47    2.16
  -6  -2  -5    9.15    1.27
  -6  -2  -5   10.28    1.85
   6  -2   5    8.76    2.85
  -6   2  -5    3.31    4.65
  -6   2  -5    9.09    1.63
  -6   2  -5   11.41    1.71
   7  -2   5   10.06    1.32
  -7  -2  -5    8.51    1.08
  -7  -2  -5   11.36    1.83
  -7  -2  -5   10.66    1.93
  -7   2  -5   12.04    1.66
  -7   2  -5    5.55    5.10
  -7   2  -5   12.35    1.76
   8  -2   5    0.65    0.71
  -8  -2  -5   -0.66    0.40
  -8  -2  -5    1.37    0.86
  -8  -2  -5   -0.56    1.39
  -8  -2  -5    0.63    3.33
  -8   2  -5   -1.01    0.94
  -8   2  -5    0.19    0.95
  -9  -3   5    1.92    0.85
   9  -3  -5    0.91    0.92
  -9  -3   5    0.11    0.43
  -9  -3   5   -1.44    2.13
  -9  -3   5    1.03    1.12
   9  -3  -5    1.96    2.84
  -9   3   5    1.14    0.79
  -8  -3   5    2.29    0.67
   8  -3  -5    0.66    1.51
  -8  -3   5   -0.60    1.45
  -8  -3   5    4.36    1.54
  -8  -3   5    1.33    1.20
   8  -3  -5   -0.13    2.07
  -8   3   5    1.57    1.32
  -8   3   5    2.18    0.93
   7  -3  -5    3.96    1.80
  -7  -3   5    1.77    1.09
   7  -3  -5    1.72    1.55
  -7  -3   5    5.18    0.72
  -7  -3   5    2.47    1.15
   7  -3  -5    4.11    1.16
  -7   3   5    5.14    1.34
  -7   3   5    4.15    0.92
  -7   3   5    2.64    2.30
   7   3  -5    5.23    2.02
   6  -3  -5   91.72    7.47
  -6  -3   5  102.41    7.15
  -6  -3   5  108.21    7.47
  -6  -3   5  101.02    7.35
   6  -3  -5  105.33    7.65
  -6   3   5  100.91    7.45
  -6   3   5  104.91    7.26
   6   3  -5  118.28    7.97
  -5  -3   5    3.57    1.22
  -5  -3   5    3.36    0.64
   5  -3  -5    2.83    1.10
   5   3  -5    2.14    2.74
  -5   3   5    2.01    1.19
  -5   3   5   -0.85    2.29
  -5   3   5    4.48    1.55
  -4  -3   5    4.18    0.82
  -4  -3   5    6.24    1.32
   4  -3  -5    2.99    0.98
   4  -3  -5    4.25    1.00
  -4   3   5    3.42    0.89
   4   3  -5    3.22    2.33
   4   3  -5    3.83    2.45
  -4   3   5    0.89    1.70
   3  -3  -5   46.43    3.20
  -3  -3   5   36.88    3.82
  -3  -3   5   42.62    3.23
   3   3  -5   52.77    4.83
   3   3  -5   45.58    5.15
  -3   3   5   36.27    4.63
   3   3  -5   43.36    4.63
  -3   3   5   38.23    3.27
   3   3  -5   44.21    3.80
   2  -3  -5   29.53    2.25
  -2  -3   5   28.90    2.33
   2   3  -5   29.50    4.64
   2   3  -5   33.62    3.89
   2   3  -5   28.25    2.90
  -2   3   5   28.93    4.22
  -2   3   5   23.64    2.40
   1   3  -5    5.44    2.39
  -1   3   5    6.54    1.26
  -1   3   5    5.74    2.59
   1   3  -5    6.45    1.54
   1   3  -5    3.42    1.52
   0  -3   5    7.90    1.36
   0  -3   5    9.34    1.34
   0  -3  -5    8.48    1.28
   0   3  -5    7.20    1.44
   0   3  -5   13.15    2.53
   0   3  -5   11.55    3.89
   0   3  -5   13.26    1.94
   0   3   5    9.93    1.98
  -1  -3  -5   25.67    2.28
   1  -3   5   21.72    3.06
   1  -3   5   29.94    2.35
   1  -3   5   31.84    2.39
   1   3   5   28.01    2.68
  -1   3  -5   29.35    3.37
  -1   3  -5   28.09    4.57
  -1   3  -5   29.31    2.25
  -1   3  -5   30.63    3.20
  -1   3  -5   27.39    3.10
   2  -3   5   34.77    3.12
  -2  -3  -5   31.39    2.65
   2  -3   5   34.25    2.78
   2  -3   5   36.05    2.78
  -2   3  -5   36.48    3.68
  -2   3  -5   39.04    2.62
  -2   3  -5   40.68    4.16
  -2   3  -5   34.27    3.29
  -2   3  -5   29.82    5.25
  -2   3  -5   32.80    2.72
   2   3   5   27.62    3.07
   3  -3   5   15.64    2.23
   3  -3   5   15.97    1.96
  -3  -3  -5   15.27    1.95
   3  -3   5   14.40    2.14
  -3   3  -5   17.78    2.56
  -3   3  -5   10.71    4.13
   4  -3   5    0.07    1.34
  -4  -3  -5    0.70    1.01
   4  -3   5    0.77    1.34
   4  -3   5   -0.35    1.03
   4  -3   5   -0.25    1.06
  -4   3  -5    2.24    4.64
  -4   3  -5    0.58    0.78
  -4   3  -5    0.33    1.51
  -4   3  -5    0.29    1.86
  -4   3  -5    0.88    0.88
   5  -3   5   10.63    1.91
   5  -3   5    2.74    3.67
  -5  -3  -5    9.88    1.83
  -5  -3  -5   11.40    1.48
   5  -3   5    9.49    1.80
  -5  -3  -5   11.01    1.60
   5  -3   5    9.19    1.90
  -5   3  -5    9.78    1.51
  -5   3  -5    9.24    1.79
  -5   3  -5    9.97    2.19
  -5   3  -5   14.77    5.86
   6  -3   5    5.82    2.14
  -6  -3  -5    3.99    1.32
  -6  -3  -5    6.44    1.16
  -6  -3  -5    5.57    1.77
  -6  -3  -5    5.96    2.18
   6  -3   5    7.56    1.07
  -6   3  -5    6.32    1.63
  -6   3  -5    8.61    1.07
  -6   3  -5   15.71    5.65
   7  -3   5    7.60    1.07
  -7  -3  -5    6.31    1.79
   7  -3   5   17.74    4.39
  -7  -3  -5    4.06    1.06
  -7  -3  -5    5.90    0.89
  -7   3  -5    7.29    0.97
  -7   3  -5    6.10    1.25
   8  -3   5    5.71    0.91
  -8  -3  -5    6.78    1.25
  -8  -3  -5    7.07    0.74
  -8   3  -5    8.36    1.67
   8  -4  -5    3.00    2.35
   8  -4  -5    2.11    1.35
  -8  -4   5    6.07    1.00
  -8  -4   5    3.46    1.08
  -8  -4   5    3.64    1.85
  -8  -4   5    4.01    0.58
  -8   4   5    3.24    0.70
  -8   4   5    3.66    1.14
  -8   4   5    1.31    2.27
  -7  -4   5    4.85    1.00
  -7  -4   5    3.96    1.24
   7  -4  -5    3.99    1.42
  -7  -4   5    4.13    0.69
   7  -4  -5    2.65    1.89
  -7  -4   5    5.96    1.41
  -7   4   5    2.31    1.80
  -7   4   5    3.55    0.70
  -7   4   5    5.13    1.13
  -6  -4   5    6.28    0.83
  -6  -4   5    7.92    1.41
   6  -4  -5    1.72    1.84
  -6  -4   5    9.11    1.81
   6   4  -5    3.77    2.41
  -6   4   5    4.91    1.95
  -6   4   5    5.69    0.84
   5  -4  -5   -0.98    2.41
   5  -4  -5    3.05    1.72
  -5  -4   5    2.35    1.17
  -5  -4   5    2.16    0.74
  -5  -4   5    3.28    1.33
   5   4  -5    1.52    2.73
  -5   4   5    1.98    0.70
  -5   4   5    1.87    1.84
   4  -4  -5    3.43    2.21
  -4  -4   5    9.30    1.69
   4  -4  -5    7.54    1.75
  -4   4   5    8.57    1.45
   4   4  -5    9.48    2.94
  -4   4   5    7.14    2.09
  -3  -4   5   10.27    1.29
   3  -4  -5   10.99    1.68
   3   4  -5    7.89    2.25
  -3   4   5    6.69    1.98
   3   4  -5   14.72    3.36
  -3   4   5   10.05    1.63
  -2  -4   5    4.96    1.08
  -2   4   5    5.11    0.94
  -2   4   5    5.07    2.31
   2   4  -5    7.20    1.78
  -1  -4   5   14.94    1.72
   1   4  -5   15.71    3.31
  -1   4   5   11.92    1.81
  -1   4   5    9.06    2.57
   1   4  -5   15.50    3.83
   0  -4   5   18.17    2.08
   0   4  -5   22.61    2.82
   0   4   5   15.26    4.29
   0   4  -5   19.96    4.76
   0   4  -5   15.20    2.53
   0   4  -5   23.57    3.04
   0   4   5   14.95    1.96
   1  -4   5   62.37    4.80
   1  -4   5   61.07    4.58
  -1   4  -5   55.18    6.99
  -1   4  -5   59.80    4.38
  -1   4  -5   68.53    4.99
  -1   4  -5   56.47    5.09
  -2  -4  -5   42.05    3.64
   2  -4   5   49.10    3.69
   2  -4   5   41.80    3.59
   2  -4   5   45.86    4.13
  -2   4  -5   45.39    3.91
  -2   4  -5   38.43    6.22
  -2   4  -5   41.17    4.08
  -2   4  -5   45.32    3.33
   3  -4   5    1.91    1.10
   3  -4   5    0.82    1.30
  -3  -4  -5    2.13    1.37
  -3   4  -5   -3.44    5.35
  -3   4  -5    2.05    0.83
  -3   4  -5    0.58    1.76
  -3   4  -5    1.41    1.40
   4  -4   5    4.96    1.57
   4  -4   5    4.56    1.12
  -4  -4  -5    4.26    1.36
  -4   4  -5    4.88    0.89
  -4   4  -5    0.45    4.33
  -4   4  -5    3.50    1.41
  -4   4  -5    2.57    1.94
  -5  -4  -5   11.00    1.75
  -5  -4  -5   14.02    2.34
   5  -4   5   10.27    2.26
   5  -4   5   13.23    2.00
  -5   4  -5   10.73    2.07
  -5   4  -5   12.88    2.61
  -5   4  -5   14.50    1.37
   6  -4   5    0.36    2.34
  -6  -4  -5    3.30    1.62
  -6  -4  -5    2.80    0.70
   6  -4   5    4.37    0.88
  -6  -5   5    2.82    0.67
  -6  -5   5    4.10    1.82
   5  -5  -5    5.18    2.38
  -5  -5   5    6.06    0.84
  -5  -5   5    5.57    1.56
  -5   5   5    6.25    1.59
  -4  -5   5    0.52    0.85
  -4  -5   5    0.23    1.50
   4  -5  -5   -3.57    2.48
  -4  -5   5    4.39    4.28
  -4   5   5    0.51    0.70
  -4   5   5   -1.10    1.07
  -3  -5   5    4.11    1.51
  -3  -5   5    6.56    2.55
  -3   5   5    2.52    0.78
  -3   5   5    2.13    2.01
  -2  -5   5    4.83    2.30
  -2  -5   5    5.52    1.40
  -2   5   5    1.66    2.56
   2   5  -5    5.02    2.26
  -2   5   5    3.38    0.92
  -1  -5   5   22.59    3.70
  -1  -5   5   19.88    2.81
  -1   5   5   14.65    2.05
   1   5  -5   24.23    3.34
   0  -5   5    9.15    1.64
   0   5   5   10.04    1.35
   1  -5   5   23.13    2.77
  -1   5  -5   28.45    2.18
   1   5   5   19.00    2.49
   2  -5   5   33.16    4.25
  -2   5  -5   29.29    2.32
  -3   5  -5   10.53    1.21
  -3   5  -5   12.41    2.52
   4  -5   5    6.06    2.03
  -4   5  -5    7.59    1.01
  -4   5  -5    4.66    1.60
  -5   5  -5   10.47    2.78
  -3   6   5    3.02    0.69
  -3   6   5    7.02    2.79
  -2   6   5   10.07    1.58
  -2   6   5    2.52    3.18
   1   6  -5    9.18    2.81
  -1   6   5   11.19    1.33
   0   6  -5    4.74    1.47
  -1   6  -5   13.20    2.26
  11   0  -6    3.43    1.11
 -11   0   6    2.16    0.68
  10   0  -6    3.51    0.91
 -10   0   6    1.45    1.07
 -10   0   6    1.83    0.72
 -10   0   6   -0.37    1.70
  -9   0   6    1.84    0.93
   9   0  -6    2.40    1.27
  -9   0   6    2.85    1.20
  -9   0   6   -2.34    2.45
  -8   0   6   40.88    3.15
   8   0  -6   40.63    3.40
   8   0  -6   37.98    3.64
  -8   0   6   40.34    3.42
   7   0  -6   24.45    3.53
  -7   0   6   23.02    2.23
  -7   0   6   25.19    2.62
   7   0  -6   23.44    2.32
  -7   0   6   23.96    2.10
   7   0  -6   27.78    2.64
   6   0  -6   59.13    4.29
   6   0  -6   51.44    4.25
   6   0  -6   60.57    5.39
  -6   0   6   53.77    3.80
   6   0  -6   47.81    4.05
  -6   0   6   48.78    4.12
   5   0  -6    2.43    2.15
   5   0  -6    1.94    1.00
  -5   0   6    2.74    1.16
   5   0  -6    0.62    1.34
   4   0  -6   11.73    1.88
  -4   0   6   13.88    1.57
   4   0  -6   11.26    1.11
   4   0  -6   12.90    1.74
   3   0  -6   11.42    1.64
   3   0  -6   13.24    1.27
  -3   0   6   14.45    2.19
   3   0  -6   13.73    1.54
  -3   0   6    9.08    1.80
  -3   0   6    8.63    2.10
   3   0  -6   10.63    1.04
  -2   0   6    8.98    1.71
   2   0  -6    6.23    0.93
   2   0  -6    6.34    0.79
   2   0  -6    7.54    1.19
  -2   0   6    7.30    0.75
  -2   0   6   10.37    1.93
   2   0  -6    7.59    0.98
  -2   0   6    8.01    1.47
   1   0  -6   40.44    2.90
   1   0  -6   33.92    2.81
   1   0  -6   44.92    3.09
  -1   0   6   35.70    3.12
  -1   0   6   44.74    3.50
   0   0   6    0.97    0.38
   0   0  -6    0.09    0.53
   0   0  -6    1.00    0.80
   1   0   6   15.23    1.98
   1   0   6   13.69    1.23
  -1   0  -6   11.30    1.73
  -1   0  -6   13.45    1.28
   2   0   6   10.89    1.19
  -2   0  -6   11.00    1.81
  -2   0  -6   15.72    2.26
  -2   0  -6   10.46    1.28
   2   0   6    9.09    2.04
   2   0   6   13.13    2.17
  -3   0  -6   15.07    2.85
  -3   0  -6    9.03    1.39
  -3   0  -6   10.73    1.11
  -3   0  -6    6.87    1.25
   3   0   6    9.80    1.22
  -4   0  -6   -0.07    0.84
  -4   0  -6   -1.82    1.00
  -4   0  -6    0.28    0.47
   4   0   6    0.03    0.81
   4   0   6   -1.27    1.02
  -4   0  -6   -0.30    1.27
  -5   0  -6   17.90    1.58
  -5   0  -6   17.85    2.00
   5   0   6   15.97    2.35
  -5   0  -6   18.35    2.66
  -6   0  -6   13.88    2.20
   6   0   6    9.49    1.56
  -6   0  -6   12.47    1.40
   6   0   6   14.00    2.85
  -6   0  -6   14.55    1.92
  -7   0  -6   10.14    4.11
  -7   0  -6   20.44    2.52
  -7   0  -6   17.18    2.04
  -7   0  -6   17.89    1.84
  -8   0  -6    1.64    1.19
  -8   0  -6    1.17    0.96
  -8   0  -6   -1.05    3.74
 -11  -1   6    3.43    1.29
  11  -1  -6    4.20    0.96
 -11  -1   6    1.50    0.67
 -11  -1   6    4.12    1.13
 -11   1   6    2.15    0.60
 -10  -1   6    2.13    0.75
  10  -1  -6    3.66    0.81
 -10  -1   6    3.29    1.04
  -9  -1   6    3.01    0.82
  -9  -1   6    2.32    0.78
   9  -1  -6    5.39    1.10
  -9   1   6    4.05    0.96
   9   1  -6    3.55    1.71
  -8  -1   6    3.94    0.99
   8  -1  -6    2.78    1.36
  -8  -1   6    1.29    2.11
   8  -1  -6    3.45    1.13
  -8  -1   6    2.11    0.74
   8  -1  -6    2.59    1.93
  -8  -1   6    0.95    1.13
  -8   1   6    1.02    0.93
   8   1  -6    4.50    2.79
   8   1  -6    3.36    1.39
  -8   1   6   -1.88    1.97
   8   1  -6    4.85    1.91
   7  -1  -6    7.95    1.54
  -7  -1   6    7.64    1.64
  -7  -1   6    6.23    1.14
  -7  -1   6    6.03    1.08
   7  -1  -6   10.03    1.70
   7  -1  -6    9.01    1.40
  -7  -1   6    6.08    1.19
  -7   1   6    6.05    1.74
   7   1  -6   11.08    2.23
  -7   1   6    6.91    1.64
   6  -1  -6    0.60    0.71
  -6  -1   6   -0.18    0.98
   6  -1  -6    0.69    1.00
  -6  -1   6    0.65    0.54
   6  -1  -6    1.07    1.06
  -6  -1   6   -0.11    0.97
   6   1  -6    1.86    1.25
  -6   1   6    0.59    1.71
   6   1  -6    1.28    2.15
   6   1  -6    0.33    0.89
   6   1  -6    0.85    2.38
  -6   1   6    0.06    1.07
  -5  -1   6    3.61    0.88
  -5  -1   6    3.58    0.60
   5  -1  -6    4.31    0.98
  -5  -1   6    1.90    0.95
   5  -1  -6    4.13    0.70
   5   1  -6    4.16    0.89
   5   1  -6    2.89    1.69
   5   1  -6   -2.08    3.13
  -4  -1   6   31.91    2.29
   4  -1  -6   27.26    2.71
   4  -1  -6   24.67    3.87
   4  -1  -6   28.88    2.27
   4  -1  -6   30.44    2.16
   4   1  -6   24.89    3.33
   4   1  -6   29.66    2.70
   4   1  -6   26.90    2.25
   3  -1  -6   22.90    3.02
  -3  -1   6   24.22    1.92
   3  -1  -6   26.49    2.24
   3  -1  -6   26.33    1.85
   3   1  -6   23.80    2.25
   3   1  -6   21.40    2.87
  -3   1   6   32.94    4.50
  -3   1   6   25.11    2.55
   3   1  -6   20.47    1.90
   2  -1  -6  166.38   11.90
   2  -1  -6  178.95   11.90
  -2  -1   6  191.13   11.93
  -2  -1   6  166.97   12.58
   2  -1  -6  186.46   12.09
  -2   1   6  177.22   12.14
   2   1  -6  147.00   11.94
   2   1  -6  163.37   12.14
  -2   1   6  186.92   12.50
   2   1  -6  185.30   12.11
  -1  -1   6   16.63    1.42
   1  -1  -6   16.94    1.46
  -1  -1   6   18.54    1.54
  -1  -1   6   16.92    1.90
   1  -1  -6   16.51    1.34
  -1   1   6   18.15    1.81
   1   1  -6   17.53    1.73
  -1   1   6   18.86    1.47
  -1   1   6   19.48    2.39
   0  -1   6   94.43    7.57
   0  -1   6  110.52    7.41
   0  -1   6  106.66    7.40
   0  -1  -6  109.89    7.35
   0   1  -6  115.49    7.86
   0   1   6  114.37    7.42
   0   1  -6   99.65    7.59
   1  -1   6   31.17    2.55
   1  -1   6   27.85    3.15
  -1  -1  -6   32.93    2.28
   1  -1   6   32.34    2.33
  -1  -1  -6   32.31    2.76
  -1   1  -6   28.14    2.71
  -1   1  -6   20.44    5.18
   1   1   6   32.89    2.41
  -1   1  -6   28.63    3.09
   2  -1   6   34.18    2.80
   2  -1   6   32.80    4.13
   2  -1   6   37.58    2.69
  -2  -1  -6   33.96    2.61
  -2   1  -6   39.86    3.96
  -2   1  -6   35.31    3.32
  -2   1  -6   35.92    3.81
   2   1   6   34.91    2.80
   3  -1   6    9.25    1.25
  -3  -1  -6   10.15    1.38
  -3  -1  -6   11.03    1.69
   3  -1   6   11.08    3.24
   3  -1   6    9.99    1.65
   3  -1   6    8.90    1.63
  -3   1  -6    1.96    3.53
  -3   1  -6    9.98    1.41
   3   1   6    9.67    1.47
  -3   1  -6   15.15    3.23
  -3   1  -6   11.76    1.68
  -4  -1  -6    6.19    1.04
  -4  -1  -6    7.96    1.33
  -4  -1  -6    7.07    1.01
   4  -1   6    6.55    1.42
  -4  -1  -6    8.72    1.74
   4  -1   6    6.79    1.07
   4  -1   6    9.92    1.53
  -4   1  -6    3.38    3.60
  -4   1  -6    5.52    1.48
  -4   1  -6    8.16    3.17
  -4   1  -6    6.88    1.25
  -4   1  -6    8.74    1.25
  -4   1  -6    5.62    1.30
   4   1   6    9.80    1.53
  -5  -1  -6    1.24    0.57
   5  -1   6    0.83    1.03
  -5  -1  -6    0.30    1.49
  -5  -1  -6    0.71    1.00
  -5  -1  -6    0.20    1.01
  -5   1  -6   -1.00    1.23
  -5   1  -6    2.47    4.03
   5   1   6    0.29    2.79
  -5   1  -6   -0.68    1.12
  -6  -1  -6    6.46    1.97
  -6  -1  -6    4.57    0.78
  -6  -1  -6    1.94    1.44
   6  -1   6    6.53    2.05
  -6   1  -6    7.29    1.74
  -6   1  -6    4.37    4.43
   7  -1   6   -1.37    2.62
  -7  -1  -6    1.42    1.74
  -7  -1  -6    0.77    0.86
  -7  -1  -6   -2.48    2.51
   7  -1   6    1.84    1.04
  -7  -1  -6    0.53    0.55
  -7   1  -6    0.50    1.27
  -7   1  -6   -2.14    3.56
  -7   1  -6    0.24    1.46
  -8  -1  -6    3.52    1.16
  -8  -1  -6    1.91    0.55
  -8  -1  -6    2.97    0.85
  -8   1  -6    3.38    1.41
  -8   1  -6    3.29    1.09
 -10  -2   6    3.84    1.14
 -10  -2   6    1.31    0.47
 -10  -2   6    2.36    0.78
 -10  -2   6    1.14    0.71
  10  -2  -6    1.47    0.73
 -10   2   6    1.81    0.80
  -9  -2   6    3.92    0.69
  -9  -2   6    4.07    1.13
   9  -2  -6    3.72    1.19
  -9  -2   6    1.20    0.75
  -9  -2   6   -2.37    3.91
   9  -2  -6    0.87    2.97
   9   2  -6    3.02    2.48
  -9   2   6    2.38    0.85
  -8  -2   6   24.76    2.22
   8  -2  -6   21.45    3.08
  -8  -2   6   22.34    1.89
  -8  -2   6   22.38    2.74
   8  -2  -6   27.48    2.51
  -8  -2   6   25.25    2.46
   8  -2  -6   17.93    3.07
  -8   2   6   26.50    2.45
   8   2  -6   18.89    3.59
   7  -2  -6  100.59    6.54
  -7  -2   6   91.41    6.17
   7  -2  -6   94.42    6.51
  -7  -2   6   84.09    6.41
   7  -2  -6   84.05    6.50
  -7  -2   6   90.86    6.44
   7   2  -6   77.46    7.02
  -7   2   6   81.74    8.38
  -7   2   6   94.94    6.45
  -6  -2   6   33.41    2.80
   6  -2  -6   37.18    2.80
  -6  -2   6   32.96    2.96
   6  -2  -6   30.16    3.03
   6  -2  -6   33.62    2.86
  -6  -2   6   33.59    2.54
  -6   2   6   35.33    3.09
  -6   2   6   30.22    2.82
   6   2  -6   38.74    5.50
  -6   2   6   34.69    4.81
   5  -2  -6   58.85    4.03
  -5  -2   6   56.09    3.79
  -5  -2   6   53.17    4.04
   5  -2  -6   49.54    4.44
  -5  -2   6   54.57    3.99
   5  -2  -6   57.61    4.06
  -5   2   6   61.55    5.20
  -5   2   6   49.03    4.17
  -5   2   6   50.98    4.39
   5   2  -6   55.52    4.83
   5   2  -6   51.79    4.78
   4  -2  -6    7.87    3.85
   4  -2  -6   10.87    1.50
   4  -2  -6   12.14    1.21
   4   2  -6   10.47    2.25
   4   2  -6   16.15    3.56
  -4   2   6   11.77    1.82
   4   2  -6   14.10    2.19
   3  -2  -6   49.80    3.73
   3  -2  -6   46.20    5.34
  -3  -2   6   56.13    3.75
   3  -2  -6   58.52    3.73
   3   2  -6   50.24    5.28
   3   2  -6   50.44    5.32
   3   2  -6   43.72    4.62
   3   2  -6   55.68    4.15
   2  -2  -6   25.19    4.19
  -2  -2   6   27.21    2.10
   2  -2  -6   24.71    2.12
   2  -2  -6   29.50    2.04
   2   2  -6   27.29    3.95
   2   2  -6   28.23    2.43
   2   2  -6   24.73    3.19
  -2   2   6   24.56    4.43
   1  -2  -6   40.05    2.74
  -1  -2   6   40.06    2.83
  -1  -2   6   35.82    2.85
   1   2  -6   43.12    4.40
   1   2  -6   38.60    3.11
  -1   2   6   39.80    3.16
   1   2  -6   29.81    3.91
   0  -2   6   90.55    6.39
   0  -2   6   96.02    6.36
   0  -2  -6   90.63    6.28
   0   2  -6   89.50    7.47
   0   2  -6   87.11    7.07
   0   2  -6   92.77    6.63
  -1  -2  -6   25.39    2.05
   1  -2   6   23.88    5.10
   1  -2   6   26.96    2.12
   1  -2   6   26.91    2.19
  -1   2  -6   29.53    4.69
  -1   2  -6   25.77    2.74
  -1   2  -6   28.28    5.21
   2  -2   6   46.20    3.58
   2  -2   6   43.65    3.40
   2  -2   6   44.44    3.34
  -2   2  -6   46.03    3.81
  -2   2  -6   44.91    3.32
  -2   2  -6   49.06    4.57
  -2   2  -6   42.07    4.17
  -3  -2  -6   17.59    2.27
  -3  -2  -6   18.95    2.63
  -3  -2  -6   21.59    1.95
   3  -2   6   23.64    2.22
   3  -2   6   25.75    2.22
   3  -2   6   26.79    2.10
  -3   2  -6   23.37    3.95
  -3   2  -6   29.56    4.74
  -3   2  -6   19.35    2.03
  -3   2  -6   24.22    4.17
  -3   2  -6   19.46    2.59
   4  -2   6   11.97    1.69
  -4  -2  -6   11.42    1.85
   4  -2   6   12.47    1.81
   4  -2   6   11.83    1.90
   4  -2   6   12.00    2.04
  -4  -2  -6   11.01    2.00
  -4   2  -6   12.75    1.55
  -4   2  -6   13.19    2.15
   5  -2   6    6.33    1.68
   5  -2   6    6.08    1.16
  -5  -2  -6    5.35    1.27
  -5  -2  -6    2.90    2.26
  -5  -2  -6    7.41    0.90
   5  -2   6    7.10    1.75
   5  -2   6    6.03    1.54
  -5  -2  -6    4.02    1.09
  -5   2  -6    7.16    1.19
  -5   2  -6   14.73    4.74
  -5   2  -6    6.54    1.50
   6  -2   6    2.16    1.04
  -6  -2  -6   -0.12    1.64
   6  -2   6    4.38    2.29
  -6  -2  -6    0.43    1.24
   6  -2   6   -0.24    2.60
  -6  -2  -6    0.50    0.88
  -6  -2  -6    0.86    0.55
  -6   2  -6    2.57    4.47
  -6   2  -6    2.64    1.32
  -6   2  -6    0.64    0.94
  -7  -2  -6    2.55    1.73
  -7  -2  -6    1.75    0.95
  -7  -2  -6    0.42    1.60
  -7  -2  -6    1.31    0.40
  -7   2  -6   10.27    4.88
  -7   2  -6    1.63    0.91
  -7   2  -6    0.73    1.03
  -8  -2  -6    1.83    2.09
  -8  -2  -6    0.79    0.42
   8  -2   6   -0.14    0.61
  -8  -2  -6    0.13    0.68
  -8   2  -6    1.16    0.87
  -9  -3   6    0.20    0.77
  -9  -3   6    3.76    2.58
   9  -3  -6    0.81    0.84
  -9  -3   6    0.30    0.42
  -9  -3   6    0.81    0.73
   9  -3  -6    0.81    2.83
  -9   3   6    0.63    0.91
   8  -3  -6   37.68    2.97
  -8   3   6   26.01    5.61
  -8   3   6   36.48    2.76
  -8   3   6   29.17    2.80
   7  -3  -6   35.47    3.93
  -7  -3   6   24.75    2.53
   7  -3  -6   26.33    2.92
  -7  -3   6   25.39    2.09
  -7  -3   6   28.57    2.70
   7  -3  -6   27.30    2.66
   7   3  -6   24.38    3.83
  -7   3   6   25.45    2.76
  -7   3   6   28.14    2.32
  -7   3   6   19.09    4.37
  -6  -3   6   45.75    3.70
   6  -3  -6   47.17    3.97
   6  -3  -6   49.43    3.71
  -6  -3   6   44.66    3.54
  -6  -3   6   44.31    3.29
   6  -3  -6   42.19    3.83
  -6   3   6   44.54    3.98
   6   3  -6   45.29    4.50
  -6   3   6   44.15    3.45
   5  -3  -6   -0.31    1.14
  -5  -3   6    0.92    0.58
   5  -3  -6    2.96    1.13
  -5  -3   6    2.14    0.81
  -5  -3   6    1.35    1.05
  -5   3   6   -2.13    2.02
   5   3  -6    1.16    2.54
  -5   3   6    2.32    0.83
   4  -3  -6    8.77    1.50
  -4  -3   6   10.42    1.39
  -4  -3   6    7.72    1.34
   4  -3  -6    8.60    1.47
  -4   3   6    5.84    2.10
   4   3  -6   10.19    2.60
  -4   3   6    6.07    1.03
   3  -3  -6   15.73    1.66
   3  -3  -6   14.58    1.56
  -3  -3   6   13.16    1.51
  -3  -3   6   12.69    2.13
   3   3  -6   15.78    2.83
   3   3  -6   17.10    3.77
   3   3  -6   15.95    3.71
   3   3  -6   12.12    1.85
  -3   3   6   14.44    2.60
  -3   3   6   12.75    1.71
  -2  -3   6   19.52    1.82
  -2  -3   6   18.32    2.43
  -2   3   6   21.01    4.12
  -2   3   6   16.16    2.05
   2   3  -6   19.80    2.82
   2   3  -6   23.75    3.86
   2   3  -6   24.26    3.17
   2   3  -6   18.70    3.71
  -1  -3   6   10.86    1.49
   1  -3  -6   11.93    1.60
  -1  -3   6   11.41    1.42
  -1  -3   6   10.82    1.53
   1   3  -6    9.51    2.61
  -1   3   6   14.20    1.50
   1   3  -6   11.07    2.16
  -1   3   6   11.72    2.53
   1   3  -6   13.00    2.90
   1   3  -6   10.49    2.13
   0  -3   6    9.12    1.33
   0  -3   6    7.00    1.33
   0  -3  -6    9.75    1.11
   0  -3   6    7.53    1.40
   0   3  -6   11.48    2.39
   0   3  -6    7.68    1.50
   0   3  -6   12.55    2.99
   0   3  -6   10.37    2.50
   0   3   6    7.58    1.26
   0   3  -6    7.57    1.39
   1  -3   6   16.81    1.93
   1  -3   6   22.26    1.97
   1  -3   6   21.46    2.39
  -1  -3  -6   20.15    1.81
  -1   3  -6   18.75    1.81
  -1   3  -6   17.46    3.43
   1   3   6   19.05    2.41
  -1   3  -6   23.87    2.92
  -1   3  -6   20.49    2.48
  -1   3  -6   18.20    3.44
   2  -3   6    5.01    1.05
   2  -3   6    7.01    1.18
   2  -3   6    6.43    1.40
   2   3   6    6.07    1.42
  -2   3  -6    7.78    1.24
  -2   3  -6    1.05    3.35
  -2   3  -6    4.85    1.85
  -2   3  -6    7.27    1.71
   3  -3   6   15.84    2.07
   3  -3   6   16.29    2.08
  -3  -3  -6   16.24    1.82
   3  -3   6   12.50    2.64
  -3   3  -6   20.21    1.75
  -3   3  -6   15.55    4.52
  -3   3  -6   19.16    3.15
  -3   3  -6   19.42    2.74
  -3   3  -6   15.50    1.81
   4  -3   6   14.48    2.23
   4  -3   6   15.60    2.11
  -4  -3  -6   11.60    1.75
  -4  -3  -6   13.19    1.80
   4  -3   6   13.86    1.72
   4  -3   6   12.05    2.51
  -4  -3  -6   12.52    1.86
  -4   3  -6   13.14    4.78
  -4   3  -6   12.23    2.14
  -4   3  -6   21.55    5.10
  -4   3  -6   16.23    2.45
  -5  -3  -6    2.76    1.25
   5  -3   6   -0.69    0.88
  -5  -3  -6    0.23    1.06
  -5  -3  -6    0.74    0.75
   5  -3   6    2.73    1.77
   5  -3   6   -1.17    2.59
  -5   3  -6   -2.59    1.92
  -5   3  -6    1.85    1.50
  -5   3  -6    1.58    0.81
  -5   3  -6   -2.18    4.46
  -6  -3  -6    1.12    1.12
   6  -3   6    2.19    0.93
   6  -3   6    3.21    2.42
  -6  -3  -6    1.77    1.45
  -6  -3  -6    0.21    0.51
  -6   3  -6    0.95    4.49
   7  -3   6    3.80    0.85
  -7  -3  -6    6.00    2.03
  -7  -3  -6    2.62    0.90
  -7  -3  -6    3.44    0.55
  -7   3  -6    3.48    0.98
   8  -4  -6    2.76    2.59
  -8  -4   6    7.27    1.05
  -8  -4   6   13.12    4.01
  -8  -4   6    7.79    1.22
   8  -4  -6    6.89    1.83
  -8  -4   6    6.62    0.85
  -8   4   6    5.42    2.07
  -8   4   6    5.77    0.87
  -7  -4   6    3.78    0.59
  -7  -4   6    2.84    1.12
  -7  -4   6    3.71    0.89
   7  -4  -6    1.34    1.95
  -7  -4   6    1.98    1.22
   7   4  -6    0.14    1.51
  -7   4   6    2.49    0.72
  -7   4   6    2.58    1.64
  -6  -4   6    1.73    1.45
  -6  -4   6    1.14    0.60
   6  -4  -6    2.57    1.76
  -6  -4   6    2.04    1.22
   6   4  -6    0.06    2.15
  -6   4   6    1.23    0.63
  -6   4   6    0.06    1.32
   5  -4  -6    7.30    1.84
  -5  -4   6   12.40    1.56
  -5  -4   6    9.21    1.79
  -5  -4   6    8.25    1.20
  -5   4   6   10.58    1.41
   5   4  -6    7.28    3.05
   4  -4  -6    6.17    1.71
  -4  -4   6   10.31    1.72
   3  -4  -6   10.55    2.06
  -3  -4   6   17.40    1.95
  -3   4   6   17.04    1.77
  -3   4   6   12.45    2.37
   3   4  -6   15.10    3.57
   3   4  -6   23.95    4.73
  -2  -4   6   10.02    1.74
  -2  -4   6   13.96    2.25
   2  -4  -6   12.72    1.81
   2   4  -6   15.13    5.51
  -2   4   6   12.74    1.70
   2   4  -6   11.77    3.23
   2   4  -6   18.11    3.78
  -2   4   6    7.41    2.63
  -1  -4   6    8.54    1.53
  -1  -4   6    6.84    1.22
   1   4  -6    6.27    1.59
  -1   4   6    5.74    1.06
  -1   4   6    4.07    2.55
   1   4  -6    5.89    3.42
   0  -4   6   21.81    2.60
   0  -4   6   23.36    2.35
   0   4  -6   25.44    3.14
   0   4  -6   21.77    2.20
   0   4  -6   24.14    5.08
   0   4   6   18.37    2.37
   0   4   6   21.69    4.74
   1  -4   6    6.45    1.63
   1  -4   6    9.16    1.69
  -1  -4  -6    9.09    1.99
   1  -4   6    9.59    2.07
  -1   4  -6    7.26    1.36
  -1   4  -6    4.14    3.85
  -1   4  -6   10.50    2.47
  -1   4  -6    6.79    1.68
   2  -4   6   11.01    2.53
   2  -4   6   14.50    2.17
   2  -4   6   15.27    2.45
  -2  -4  -6   14.20    2.25
  -2   4  -6   12.72    2.43
  -2   4  -6   11.21    4.58
  -2   4  -6   13.53    2.20
  -2   4  -6   17.53    2.54
  -3  -4  -6    9.00    1.54
   3  -4   6    9.96    1.79
   3  -4   6    6.50    2.31
   3  -4   6   10.85    2.07
  -3   4  -6    8.07    4.61
  -3   4  -6    8.96    1.82
  -4  -4  -6    0.07    1.33
   4  -4   6    1.39    1.62
   4  -4   6    0.38    1.19
  -4   4  -6    1.67    2.62
  -4   4  -6    0.58    0.83
  -4   4  -6   -5.33    3.99
  -5  -4  -6   -0.03    0.73
   5  -4   6   -0.96    1.89
  -5  -4  -6   -2.16    1.37
   5  -4   6    0.07    0.89
  -5   4  -6    0.26    1.78
  -5   4  -6   -1.32    1.66
  -6  -4  -6    5.16    0.68
   6  -4   6    6.43    1.14
  -6   4  -6    7.06    1.38
  -6  -5   6   -0.05    0.98
  -6  -5   6   -0.57    0.56
  -6   5   6   -0.55    1.21
  -6   5   6    0.99    0.44
   5  -5  -6    4.34    2.46
  -5  -5   6    5.66    1.00
  -5  -5   6    8.32    1.62
  -5   5   6    4.70    1.39
  -4  -5   6    5.89    0.82
   4  -5  -6    4.91    2.76
  -4  -5   6    4.83    1.53
  -3  -5   6   12.12    2.73
  -3  -5   6    9.59    2.63
  -3   5   6   12.71    1.68
  -3   5   6   11.57    2.26
  -2  -5   6   35.90    4.57
  -2   5   6   42.72    3.50
   2   5  -6   47.53    4.55
  -1  -5   6    5.08    1.46
  -1  -5   6    3.66    2.56
  -1   5   6    8.73    1.47
  -1   5   6    5.62    2.71
   0  -5   6   19.96    3.95
   0   5   6   26.69    2.54
   0   5  -6   32.21    3.98
   1  -5   6   15.23    3.07
   1   5   6   16.79    1.81
   2  -5   6    1.14    1.56
  -2   5  -6    2.77    0.99
  -2   5  -6    0.63    3.38
   3  -5   6    0.53    1.74
  -4   5  -6    9.58    2.49
  -2   6   6    5.00    0.97
   1   6  -6    1.53    1.96
  -1   6   6    0.67    0.69
 -11   0   7    3.60    0.71
  11   0  -7    4.44    1.01
 -10   0   7    0.11    1.06
 -10   0   7    0.34    0.69
  10   0  -7    1.28    0.84
  -9   0   7    4.40    0.98
  -9   0   7   -4.73    3.84
  -9   0   7    4.08    1.22
   8   0  -7    8.64    1.82
  -8   0   7   10.52    1.44
  -8   0   7    6.80    1.09
   8   0  -7    6.70    1.34
   7   0  -7    0.31    1.05
  -7   0   7   -0.43    1.23
   7   0  -7    2.40    2.28
   7   0  -7    0.03    1.16
  -7   0   7   -0.65    0.90
  -6   0   7   35.20    2.58
   6   0  -7   38.31    4.17
  -6   0   7   31.69    2.97
  -6   0   7   38.19    2.78
   6   0  -7   32.37    2.92
   6   0  -7   30.32    2.71
   5   0  -7    1.18    1.70
   5   0  -7    5.07    2.57
  -5   0   7    4.06    1.61
   5   0  -7    4.64    1.10
   5   0  -7    5.07    0.85
   5   0  -7    3.39    1.21
   4   0  -7    3.17    1.59
   4   0  -7    2.79    0.63
   4   0  -7    3.79    0.93
  -4   0   7    2.76    1.04
   3   0  -7   13.91    1.96
  -3   0   7   12.32    1.18
   3   0  -7   14.78    1.88
  -3   0   7   15.96    1.91
   3   0  -7   13.14    1.62
   3   0  -7   10.98    1.18
  -2   0   7    0.31    0.39
   2   0  -7    0.35    0.43
   2   0  -7    0.18    0.98
  -2   0   7    0.35    1.91
  -2   0   7    0.87    0.87
  -2   0   7    4.66    1.85
   2   0  -7    0.69    0.61
  -1   0   7    1.14    1.21
  -1   0   7   -0.71    1.51
   1   0  -7    2.76    1.10
   1   0  -7    3.16    0.75
  -1   0   7    2.44    1.66
  -1   0   7    1.36    0.42
   0   0   7   -0.10    0.37
   0   0   7    0.13    1.09
   0   0  -7   -0.02    1.21
   0   0   7    2.05    1.69
   0   0  -7   -0.29    0.66
   1   0   7   71.79    4.55
   1   0   7   52.84    4.93
  -1   0  -7   63.27    4.99
  -1   0  -7   65.24    4.51
  -2   0  -7   13.03    2.80
  -2   0  -7   15.01    1.60
   2   0   7   13.98    1.42
  -2   0  -7   17.86    2.68
  -3   0  -7   18.79    2.98
  -3   0  -7   21.94    1.67
   3   0   7   21.34    1.98
  -3   0  -7   20.76    1.99
   3   0   7   22.66    2.39
  -4   0  -7    1.14    1.26
   4   0   7   -0.08    1.09
  -4   0  -7   -1.54    1.18
  -4   0  -7   -0.40    0.44
  -4   0  -7    0.53    0.90
   4   0   7    0.00    1.00
   5   0   7   75.92    6.07
  -5   0  -7   78.50    5.70
  -5   0  -7   74.03    6.03
   5   0   7   73.26    5.77
  -5   0  -7   84.73    5.99
  -5   0  -7   86.19    5.48
  -6   0  -7    3.52    1.09
  -6   0  -7    2.03    0.70
   6   0   7    6.89    2.89
  -6   0  -7    3.91    1.43
   6   0   7    2.03    1.29
  -7   0  -7    0.15    3.43
   7   0   7    3.80    1.64
  -7   0  -7    2.60    1.01
  -7   0  -7    2.82    1.20
  -8   0  -7    5.42    1.13
  -8   0  -7    5.93    3.24
  10  -1  -7    2.87    0.79
 -10  -1   7    1.57    0.88
 -10  -1   7    1.02    0.71
 -10   1   7    1.60    0.71
  -9  -1   7   13.21    1.56
  -9  -1   7   15.73    2.01
   9  -1  -7   16.51    1.93
  -9  -1   7   14.90    1.62
  -9   1   7   15.97    1.83
  -8  -1   7   18.89    2.19
   8  -1  -7   19.11    3.17
   8  -1  -7   17.99    2.46
  -8  -1   7   17.58    2.38
   8  -1  -7   15.13    2.97
   8   1  -7   19.34    2.86
  -8   1   7   17.58    2.99
   8   1  -7   22.12    3.55
   7  -1  -7    2.43    1.87
  -7  -1   7    2.73    1.16
   7  -1  -7    1.36    1.38
  -7  -1   7    0.75    0.64
  -7  -1   7    2.31    1.65
  -7  -1   7    1.37    0.96
   7  -1  -7    3.67    1.18
   7   1  -7    2.06    2.84
   7   1  -7    1.40    1.27
  -7   1   7    0.96    1.10
  -6  -1   7    5.14    1.08
   6  -1  -7    5.94    1.00
   6  -1  -7    3.87    1.04
   6  -1  -7    7.65    1.32
   6   1  -7    2.92    1.90
   6   1  -7    4.81    1.14
   6   1  -7    7.55    1.38
  -6   1   7    7.25    1.20
   6   1  -7    5.44    2.73
   5  -1  -7    6.93    1.12
  -5  -1   7    7.64    1.05
   5  -1  -7    5.94    1.01
  -5  -1   7    7.92    1.16
   5  -1  -7    6.03    1.17
  -5  -1   7    5.79    0.92
   5   1  -7    6.14    2.17
   5   1  -7    5.21    0.96
   5   1  -7    4.61    1.24
   5   1  -7    7.72    3.76
   4  -1  -7   99.57    6.96
  -4  -1   7  108.98    6.97
   4  -1  -7   99.82    6.94
   4   1  -7   90.88    7.80
   4   1  -7  106.55    7.40
   4   1  -7   92.94    7.00
  -3  -1   7   28.43    2.06
   3  -1  -7   25.02    1.91
   3  -1  -7   25.36    2.00
   3  -1  -7   25.14    2.48
   3   1  -7   20.35    1.99
  -3   1   7   28.73    5.33
   3   1  -7   26.56    2.48
   3   1  -7   20.59    2.80
   2  -1  -7    1.06    0.46
   2  -1  -7    1.48    1.09
  -2  -1   7    0.97    0.49
   2   1  -7    0.39    0.94
  -2   1   7    1.86    2.30
  -2   1   7    0.75    1.64
   2   1  -7    0.04    1.21
   1  -1  -7   23.81    2.37
  -1  -1   7   27.15    2.01
  -1  -1   7   27.33    2.59
   1  -1  -7   23.04    1.95
   1  -1  -7   27.69    2.04
  -1   1   7   24.25    2.64
   1   1  -7   25.75    2.91
   1   1  -7   28.02    2.49
  -1   1   7   27.10    2.07
   0  -1   7  232.10   15.72
   0  -1  -7  230.74   15.92
   0  -1  -7  228.68   15.66
   0  -1   7  198.33   15.83
   0   1   7  253.55   15.87
   0   1  -7  231.86   15.97
   0   1  -7  238.13   16.17
   1  -1   7   -2.82    2.08
   1  -1   7    0.39    0.45
   1  -1   7   -0.18    0.78
  -1  -1  -7   -0.28    0.48
  -1   1  -7    0.19    1.50
  -1   1  -7   -2.43    1.97
   1   1   7    0.54    0.62
  -1   1  -7    1.21    1.89
   2  -1   7    4.35    0.97
   2  -1   7    7.52    2.88
  -2  -1  -7    2.94    0.71
   2  -1   7    2.47    0.63
   2  -1   7    4.74    1.10
   2   1   7    1.98    0.81
  -2   1  -7    6.20    2.23
  -2   1  -7    0.87    2.10
  -2   1  -7    6.37    3.06
  -2   1  -7    4.06    1.17
  -3  -1  -7   10.88    1.01
   3  -1   7    7.37    1.32
  -3  -1  -7   10.35    1.49
  -3  -1  -7    6.90    1.25
   3  -1   7   10.51    1.28
  -3   1  -7    8.86    1.21
  -3   1  -7    8.28    1.27
  -3   1  -7    7.45    3.59
  -3   1  -7    7.69    1.27
  -3   1  -7   14.34    3.10
   3   1   7    6.85    1.32
  -4  -1  -7    3.26    1.69
  -4  -1  -7    3.69    0.99
   4  -1   7    6.96    1.52
  -4  -1  -7   10.23    2.07
  -4  -1  -7    6.28    0.85
   4  -1   7    6.04    1.76
   4  -1   7    5.05    1.80
  -4   1  -7    6.23    1.87
   4   1   7    5.93    1.40
  -4   1  -7    5.09    1.34
  -4   1  -7    5.17    0.89
   5  -1   7    2.01    1.46
  -5  -1  -7    2.67    1.03
  -5  -1  -7    2.42    1.17
   5  -1   7    1.55    1.10
  -5  -1  -7    2.02    1.58
  -5   1  -7    2.13    1.41
  -5   1  -7    2.18    1.19
  -5   1  -7    1.57    3.72
   5   1   7   -0.68    1.56
   6  -1   7   11.73    1.78
  -6  -1  -7    8.53    1.11
  -6  -1  -7   10.15    1.90
  -6  -1  -7    7.62    1.55
  -6  -1  -7    6.14    1.14
  -6   1  -7   11.23    1.62
  -6   1  -7   11.25    1.48
  -7  -1  -7    2.91    0.55
   7  -1   7    2.53    0.87
  -7  -1  -7    5.71    0.94
  -7  -1  -7    4.69    1.41
  -7   1  -7    4.72    1.25
  -7   1  -7    4.29    1.17
   8  -1   7    2.36    1.05
  -8  -1  -7    2.03    0.78
  -8  -1  -7    2.31    1.14
  -8   1  -7    1.95    4.58
  -8   1  -7    1.10    0.87
 -10  -2   7    4.71    1.26
  10  -2  -7    6.86    0.99
 -10  -2   7    7.05    1.14
 -10  -2   7    5.27    0.91
 -10  -2   7    7.46    1.14
 -10   2   7    6.16    0.96
   9  -2  -7   10.75    1.63
  -9  -2   7   12.97    1.53
  -9  -2   7   12.49    1.33
  -9  -2   7   11.69    1.05
   9  -2  -7    7.44    3.08
   9   2  -7    5.93    2.48
  -9   2   7    8.40    1.50
   8  -2  -7    6.97    2.06
  -8  -2   7   10.47    1.94
  -8  -2   7   13.05    1.86
  -8  -2   7   10.02    1.23
  -8  -2   7   11.66    1.70
   8  -2  -7   12.24    1.82
  -8   2   7   11.20    1.97
  -8   2   7   11.79    3.58
   8   2  -7    8.84    2.81
   7  -2  -7    6.59    1.48
  -7  -2   7    5.17    1.24
  -7  -2   7    4.07    1.10
   7  -2  -7    4.84    1.27
   7  -2  -7    5.76    1.42
  -7  -2   7    3.61    0.70
  -7   2   7    4.06    1.35
  -7   2   7    3.90    2.39
   7   2  -7    1.16    2.31
  -6  -2   7   24.01    1.96
  -6  -2   7   25.72    2.58
  -6  -2   7   22.59    2.55
   6  -2  -7   25.38    2.46
   6   2  -7   23.46    3.72
  -6   2   7   25.55    2.46
  -6   2   7   27.91    2.67
  -5  -2   7    0.56    0.74
   5  -2  -7    1.99    0.89
   5  -2  -7    0.30    0.82
  -5  -2   7    0.52    0.75
   5  -2  -7    0.19    1.24
  -5   2   7    2.27    1.07
   5   2  -7    1.03    2.75
  -5   2   7    3.99    1.81
   5   2  -7    2.16    2.17
  -4  -2   7   15.08    1.51
  -4  -2   7   12.14    1.73
   4  -2  -7   14.18    1.43
   4  -2  -7   13.39    1.47
  -4   2   7   11.54    2.09
   4   2  -7   15.42    2.61
   4   2  -7   14.46    2.40
   4   2  -7   16.62    3.93
  -3  -2   7   34.60    2.67
   3  -2  -7   33.12    2.57
   3  -2  -7   26.58    5.36
   3  -2  -7   33.51    2.51
   3   2  -7   32.56    5.09
  -3   2   7   28.83    2.87
   3   2  -7   33.57    5.93
   3   2  -7   35.53    3.89
   3   2  -7   35.60    3.25
   3   2  -7   35.72    3.83
  -2  -2   7   13.53    1.42
   2  -2  -7   10.05    1.46
   2  -2  -7   12.29    1.30
   2   2  -7   21.94    3.85
   2   2  -7   12.20    2.85
   2   2  -7   16.58    2.02
   1  -2  -7   47.61    3.41
  -1  -2   7   50.76    3.44
  -1  -2   7   45.71    3.43
   1   2  -7   45.05    3.84
   1   2  -7   44.93    5.52
   1   2  -7   42.87    4.48
   0  -2   7   97.88    7.14
   0  -2   7  105.32    7.12
   0  -2  -7  102.59    7.06
   0   2  -7   99.59    7.89
   0   2  -7   91.40    7.48
   0   2  -7  115.34    7.62
   1  -2   7   -0.52    1.15
   1  -2   7   -0.08    0.81
  -1   2  -7    1.18    2.16
  -1   2  -7   -2.04    1.83
  -1   2  -7    0.72    2.29
  -1   2  -7   -2.56    1.61
  -1   2  -7    0.31    0.72
  -2  -2  -7   16.32    2.34
   2  -2   7   10.13    1.27
   2  -2   7   10.14    1.28
   2  -2   7    9.90    1.55
  -2  -2  -7   10.01    1.27
  -2   2  -7   15.92    3.16
  -2   2  -7   11.65    2.92
  -2   2  -7   11.17    2.84
  -2   2  -7   10.42    1.96
  -2   2  -7   10.97    1.38
   3  -2   7   17.61    2.22
  -3  -2  -7   21.60    1.81
  -3  -2  -7   17.34    1.82
  -3  -2  -7   21.79    2.32
   3  -2   7   19.48    2.02
   3  -2   7   19.22    2.14
  -3   2  -7   15.61    1.95
  -3   2  -7   18.76    2.54
  -3   2  -7   24.06    4.66
  -3   2  -7   24.95    3.91
  -4  -2  -7    3.74    1.08
   4  -2   7    3.73    1.55
  -4  -2  -7    4.00    0.74
   4  -2   7    4.20    1.12
   4  -2   7    3.53    1.24
  -4  -2  -7    2.88    0.94
   4  -2   7    2.69    1.36
  -4   2  -7    4.53    1.03
  -4   2  -7    3.60    1.33
  -5  -2  -7   29.30    2.36
   5  -2   7   28.42    3.33
  -5  -2  -7   33.21    2.70
  -5  -2  -7   30.96    2.72
   5  -2   7   32.41    2.79
  -5   2  -7   28.89    2.64
  -5   2  -7   31.04    3.18
   6  -2   7   18.71    4.18
   6  -2   7   24.10    2.08
  -6  -2  -7   21.09    2.61
  -6  -2  -7   18.61    1.65
  -6  -2  -7   20.56    2.13
  -6   2  -7   20.16    2.59
  -6   2  -7   25.86    5.68
  -7  -2  -7    5.84    2.61
  -7  -2  -7    5.01    1.83
   7  -2   7    5.59    1.01
  -7  -2  -7    4.87    0.72
  -7   2  -7    6.20    5.78
  -7   2  -7    4.57    1.04
  -9  -3   7    7.44    1.34
   9  -3  -7    3.34    3.36
  -9  -3   7    6.93    0.75
   9  -3  -7    8.08    1.19
  -9  -3   7    7.86    1.09
  -9   3   7    5.22    1.06
   8  -3  -7   22.37    2.25
  -8  -3   7   16.88    2.73
  -8  -3   7   23.80    2.13
  -8  -3   7   18.47    1.56
  -8   3   7   18.76    4.68
  -8   3   7   21.16    2.09
   8   3  -7   17.13    3.02
   7  -3  -7    3.29    1.77
  -7  -3   7    9.79    1.66
  -7  -3   7    7.12    1.42
   7  -3  -7   12.96    2.00
  -7  -3   7    8.87    1.06
  -7   3   7    7.24    1.01
  -7   3   7    8.81    1.82
   7   3  -7    4.31    2.27
  -7   3   7    5.00    2.51
  -6  -3   7   36.86    2.67
  -6  -3   7   39.92    3.65
   6  -3  -7   31.55    3.52
  -6  -3   7   32.36    2.91
   6  -3  -7   36.09    3.24
   6  -3  -7   37.75    4.03
   6   3  -7   30.98    5.85
  -6   3   7   33.19    3.13
   5  -3  -7   -0.86    1.52
   5  -3  -7    0.65    1.18
  -5  -3   7    0.62    0.96
  -5  -3   7    0.24    0.50
  -5  -3   7    0.34    0.78
  -5   3   7    1.77    0.88
   5   3  -7   -0.59    2.29
  -5   3   7   -2.67    1.94
   4  -3  -7    4.62    1.01
   4  -3  -7    2.55    1.23
  -4  -3   7    4.40    1.19
  -4  -3   7    3.74    1.10
  -4   3   7    1.49    2.57
   3  -3  -7   44.05    3.29
  -3  -3   7   44.85    3.25
  -3  -3   7   42.38    3.38
  -3   3   7   33.85    4.71
  -3   3   7   40.25    3.32
   3   3  -7   50.14    4.52
   3   3  -7   40.88    4.92
  -2  -3   7   13.88    1.67
  -2  -3   7   13.44    1.56
  -2  -3   7   16.59    1.82
   2   3  -7   21.65    3.92
  -2   3   7   15.93    1.86
  -2   3   7   11.41    2.71
   2   3  -7   18.22    2.69
   2   3  -7   16.65    3.69
   1  -3  -7    3.35    0.96
  -1  -3   7    2.85    1.08
  -1  -3   7    1.01    0.82
  -1  -3   7    0.50    0.83
  -1   3   7    2.72    2.38
  -1   3   7    2.32    0.98
   1   3  -7    0.62    1.37
   1   3  -7    0.77    2.59
   1   3  -7    0.94    1.13
   1   3  -7   -2.76    2.75
   1   3  -7    3.64    2.44
   0  -3   7   12.47    1.84
   0  -3  -7   12.78    1.60
   0  -3   7   12.79    1.57
   0  -3   7    9.41    1.62
   0   3  -7   12.91    2.23
   0   3   7   10.93    1.45
   0   3  -7   13.71    1.59
   0   3  -7   16.28    2.59
   0   3  -7    7.90    2.94
   1  -3   7   34.41    2.91
  -1  -3  -7   31.88    2.69
   1  -3   7   36.10    2.81
  -1   3  -7   31.19    5.07
  -1   3  -7   37.16    2.60
   1   3   7   27.84    3.04
   2  -3   7    8.10    1.26
  -2  -3  -7    8.54    1.33
  -2   3  -7    8.43    1.35
  -2   3  -7    7.81    1.44
   2   3   7    8.80    1.58
   3  -3   7   13.47    1.87
   3  -3   7   11.64    1.86
  -3  -3  -7   10.12    1.72
   3  -3   7   11.35    1.49
  -3   3  -7   13.04    1.62
  -3   3  -7   15.64    3.34
  -3   3  -7   12.88    2.37
   3   3   7   11.98    1.82
  -3   3  -7    6.57    4.07
  -4  -3  -7   -0.99    1.31
  -4  -3  -7    1.40    0.74
   4  -3   7    5.20    1.98
   4  -3   7    1.45    1.87
   4  -3   7    4.89    1.63
   4  -3   7    3.37    1.10
  -4  -3  -7    1.73    1.07
  -4   3  -7    2.63    1.69
  -4   3  -7    2.73    1.34
  -5  -3  -7    1.97    1.65
  -5  -3  -7   -0.20    0.95
   5  -3   7    0.34    0.82
  -5  -3  -7    1.38    1.22
   5  -3   7    2.08    2.11
  -5   3  -7    6.63    4.12
  -5   3  -7   -0.21    1.20
  -6  -3  -7   17.35    2.60
   6  -3   7   17.53    1.66
  -6  -3  -7   14.35    1.32
  -6  -3  -7   13.67    1.93
  -6   3  -7   14.90    1.92
  -7  -3  -7   12.21    1.81
  -7  -3  -7    6.73    0.82
   7  -3   7    8.13    1.09
  -7   3  -7    9.78    1.57
  -8  -4   7   21.68    1.71
  -8  -4   7   24.27    1.98
  -8  -4   7   24.78    1.88
  -8   4   7   20.36    3.15
  -7  -4   7    3.18    1.30
  -7  -4   7    6.36    1.14
   7  -4  -7    3.17    2.04
   7   4  -7    5.62    1.63
  -7   4   7    4.54    1.60
   6  -4  -7    1.82    1.87
  -6  -4   7    0.35    1.29
  -6  -4   7    1.34    0.69
  -6  -4   7   -0.03    1.20
   6   4  -7    0.84    3.06
  -6   4   7   -0.51    2.10
   5  -4  -7    9.12    1.89
  -5  -4   7   10.87    1.85
  -5  -4   7    9.67    1.16
   5   4  -7   10.58    2.99
  -5   4   7   11.22    1.41
   4  -4  -7    8.96    1.87
  -4  -4   7    9.16    1.73
  -4  -4   7   10.60    1.41
  -4   4   7    8.19    1.44
   4   4  -7    6.01    2.80
   3  -4  -7   -0.68    1.49
  -3  -4   7   -0.62    1.52
  -3  -4   7    0.02    1.32
  -3  -4   7   -0.12    1.01
   3   4  -7   -0.07    2.22
   3   4  -7    0.01    4.61
  -2  -4   7    1.48    1.36
  -2  -4   7    3.09    1.20
  -2  -4   7    1.49    1.23
   2  -4  -7    3.43    1.55
   2   4  -7    3.93    4.97
  -2   4   7   -0.65    2.54
   2   4  -7    5.92    3.01
  -2   4   7    2.47    0.82
   2   4  -7    4.42    1.64
  -1  -4   7   12.12    1.76
  -1  -4   7   10.61    1.81
  -1  -4   7   10.26    1.81
  -1   4   7    8.07    1.19
   1   4  -7   12.14    2.81
  -1   4   7    6.15    3.61
   1   4  -7    4.54    3.25
   0  -4   7    6.75    1.35
   0  -4  -7    3.20    2.33
   0  -4   7    5.89    1.61
   0  -4   7    8.04    1.37
   0   4  -7   10.20    2.70
   0   4  -7    6.72    1.12
   0   4  -7    8.58    3.84
   0   4  -7    6.11    1.58
   1  -4   7    2.18    1.25
   1  -4   7    2.60    1.31
  -1  -4  -7    2.32    1.54
   1  -4   7    2.35    1.55
   1   4   7    2.27    1.50
  -1   4  -7   -1.97    4.04
  -1   4  -7    1.68    1.15
  -1   4  -7    3.01    2.06
  -1   4  -7    5.23    1.94
  -2  -4  -7   16.57    2.52
   2  -4   7   11.48    1.88
   2  -4   7   16.37    2.63
   2  -4   7   11.71    2.17
  -2   4  -7   15.37    1.76
  -2   4  -7   15.83    4.89
  -2   4  -7   10.55    1.80
   3  -4   7    1.78    2.46
   3  -4   7    5.74    1.17
   3  -4   7    4.30    1.58
  -3  -4  -7    3.97    1.43
  -3   4  -7    3.84    1.45
  -3   4  -7    3.41    3.84
  -3   4  -7    6.02    1.34
   4  -4   7    5.35    1.78
  -4  -4  -7    6.61    1.55
   4  -4   7    4.96    0.98
  -4  -4  -7    4.30    0.95
  -4   4  -7    7.65    1.73
  -4   4  -7    2.16    3.74
   5  -4   7    1.62    0.78
  -5  -4  -7    0.44    1.85
  -5  -4  -7    1.47    0.62
   5  -4   7   -2.11    2.41
  -5   4  -7    2.42    1.07
  -5   4  -7   -1.55    2.20
  -6  -5   7    1.42    0.51
  -6   5   7    2.38    0.52
  -6   5   7    0.09    0.73
  -5  -5   7    0.47    1.48
  -5  -5   7    1.67    0.64
  -5   5   7    1.44    1.17
  -4  -5   7    5.06    1.55
  -4  -5   7    8.15    1.06
  -4   5   7    9.03    1.09
  -3  -5   7   -0.17    1.36
  -3   5   7   -1.08    1.51
  -3   5   7    0.66    0.59
  -2  -5   7    0.83    1.53
  -2  -5   7    2.40    2.37
  -2   5   7    1.29    0.66
  -2   5   7    2.01    2.07
  -1  -5   7    3.19    2.26
   1   5  -7   10.11    2.38
  -1   5   7    6.33    2.62
   0  -5   7    6.54    1.73
   0   5   7    9.05    1.41
   1  -5   7    5.14    1.56
  -1   5  -7    3.28    3.40
   1   5   7    3.48    0.94
   2  -5   7    3.30    1.69
  -2   5  -7    2.10    3.71
   3  -5   7    2.32    2.43
 -11   0   8    0.09    0.58
  11   0  -8   -0.34    0.97
  10   0  -8    0.81    0.79
 -10   0   8    2.67    1.12
 -10   0   8   -0.59    0.55
   9   0  -8   -1.06    1.04
  -9   0   8    0.66    1.20
  -9   0   8   -0.21    0.90
  -8   0   8    4.05    1.14
   8   0  -8    5.96    1.63
   7   0  -8    0.81    1.37
  -7   0   8    0.43    0.87
  -7   0   8    3.16    1.26
   7   0  -8   -1.40    2.52
   7   0  -8    2.14    1.15
  -6   0   8    6.73    1.24
  -6   0   8    2.87    0.84
   6   0  -8    4.40    1.15
   6   0  -8    2.79    0.88
   6   0  -8    8.79    2.76
   6   0  -8    4.19    1.61
  -6   0   8    6.28    1.06
   5   0  -8   -0.51    2.33
  -5   0   8   -1.71    1.36
  -5   0   8   -0.47    0.91
   5   0  -8    3.28    2.76
   5   0  -8    1.69    1.16
   5   0  -8   -1.17    0.90
   5   0  -8    0.27    0.65
   4   0  -8   23.18    3.10
   4   0  -8   24.53    2.27
   4   0  -8   33.60    4.74
  -4   0   8   24.47    2.00
   4   0  -8   24.23    2.01
   3   0  -8    7.20    1.74
  -3   0   8    4.79    0.85
   3   0  -8    5.17    0.84
   3   0  -8    4.58    0.92
   2   0  -8   13.03    1.40
   2   0  -8    9.92    1.20
   2   0  -8   15.82    2.05
  -2   0   8   12.15    1.12
  -2   0   8   10.16    2.95
  -1   0   8    4.69    0.81
  -1   0   8    0.89    2.41
   1   0  -8    7.25    1.77
   0   0  -8    8.52    2.06
   0   0   8    5.43    0.89
   0   0  -8    7.18    1.04
   0   0   8    4.56    2.49
   0   0  -8    4.29    2.99
  -1   0  -8    4.11    2.42
   1   0   8    4.16    0.79
  -1   0  -8    5.99    0.98
  -2   0  -8   74.10    4.73
   2   0   8   64.67    5.08
  -2   0  -8   64.72    4.92
  -2   0  -8   68.72    5.11
  -3   0  -8   10.73    1.74
   3   0   8    8.25    1.66
  -3   0  -8    9.74    1.57
  -3   0  -8   10.96    1.73
   3   0   8    8.99    1.30
  -3   0  -8   11.16    1.21
   4   0   8    1.68    1.11
   4   0   8   -1.53    1.64
  -4   0  -8    2.74    1.62
  -4   0  -8    1.77    0.99
  -4   0  -8    2.35    0.59
  -4   0  -8    4.99    1.59
   5   0   8   17.46    3.05
   5   0   8   16.62    2.83
  -5   0  -8   23.98    1.99
   6   0   8    8.26    2.14
  -6   0  -8    8.22    1.33
   6   0   8    9.67    2.65
  -6   0  -8   13.13    3.32
  -6   0  -8    9.25    1.48
  -6   0  -8    9.38    1.37
  -7   0  -8   40.42    2.96
  -7   0  -8   33.44    4.64
  -7   0  -8   29.75    3.17
  -8   0  -8    2.35    1.38
  -8   0  -8    1.89    0.99
  -8   0  -8    2.90    2.99
  10  -1  -8    0.93    0.74
 -10  -1   8    2.03    0.76
 -10  -1   8    0.47    0.84
 -10   1   8    0.88    0.76
   9  -1  -8   10.94    1.69
  -9  -1   8    9.54    1.39
  -9  -1   8   14.11    1.51
  -9  -1   8   10.60    1.77
  -9   1   8    9.61    1.69
   9   1  -8   11.65    4.98
  -8  -1   8   12.32    1.55
   8  -1  -8   15.97    2.11
   8  -1  -8   16.16    2.50
  -8  -1   8   19.42    1.84
  -8  -1   8   18.05    2.19
   8  -1  -8   16.83    2.58
   8   1  -8   14.21    2.67
  -8   1   8   18.22    2.14
   8   1  -8   13.34    3.27
   8   1  -8   19.87    2.98
   7  -1  -8    1.12    1.12
   7  -1  -8    0.49    1.07
  -7  -1   8    0.79    0.65
  -7  -1   8    2.12    0.90
  -7  -1   8    1.81    1.16
   7  -1  -8    0.70    1.38
  -7   1   8    3.73    3.62
   7   1  -8    0.25    1.29
   7   1  -8    0.87    1.23
   7   1  -8   -0.40    2.20
  -7   1   8    1.67    1.19
  -6  -1   8    8.28    1.01
   6  -1  -8    6.21    1.29
  -6  -1   8    8.08    1.48
   6  -1  -8    7.12    1.45
   6  -1  -8    9.13    1.43
   6   1  -8    9.20    1.91
   6   1  -8    4.80    4.23
  -6   1   8   11.26    1.87
   6   1  -8    8.59    1.63
   6   1  -8    5.52    1.32
  -5  -1   8   22.78    2.29
   5  -1  -8   24.02    2.31
  -5  -1   8   26.83    1.86
   5  -1  -8   26.16    2.21
   5   1  -8   17.19    3.31
   5   1  -8   24.52    3.24
  -5   1   8   21.54    2.67
   5   1  -8   22.55    2.21
   5   1  -8   22.18    2.52
   4  -1  -8    6.92    1.12
  -4  -1   8   10.98    1.23
   4  -1  -8    8.95    1.58
  -4  -1   8   10.16    1.43
  -4  -1   8    6.86    1.00
   4  -1  -8    8.34    1.07
   4   1  -8    8.45    1.59
   4   1  -8    9.67    3.18
   4   1  -8   10.90    1.90
   4   1  -8    5.22    2.49
   4   1  -8    6.71    1.25
   3  -1  -8   11.02    1.28
   3  -1  -8    9.75    1.07
  -3  -1   8   12.03    1.39
  -3  -1   8    8.56    1.10
   3   1  -8    7.50    2.47
   3   1  -8   12.34    2.21
   3   1  -8    8.38    3.15
  -2  -1   8   46.43    3.20
   2  -1  -8   40.20    3.12
  -2  -1   8   38.49    3.10
  -2   1   8   50.83    5.70
   2   1  -8   38.42    3.53
   2   1  -8   46.83    3.76
   1  -1  -8   25.22    2.00
  -1  -1   8   26.48    2.13
  -1  -1   8   22.66    2.00
   1   1  -8   24.79    2.68
   1   1  -8   21.77    2.52
  -1   1   8   23.70    1.98
   1   1  -8   20.28    3.60
   0  -1  -8   29.81    2.39
   0  -1   8   32.72    2.56
   0  -1   8   32.44    2.38
   0   1  -8   32.70    4.34
   0   1   8   30.23    2.49
   0   1  -8   29.88    2.96
   0   1  -8   28.40    3.53
   0   1  -8   30.69    3.19
   1  -1   8    5.46    1.09
   1  -1   8    7.15    2.77
   1  -1   8    3.91    1.00
  -1  -1  -8    3.52    1.01
   1  -1   8    3.88    0.83
  -1   1  -8    4.69    1.22
  -1   1  -8    8.22    2.35
   1   1   8    3.20    0.85
  -1   1  -8    4.04    3.10
  -1   1  -8    3.44    2.23
  -2  -1  -8    1.10    0.74
   2  -1   8   -1.34    1.14
  -2  -1  -8    1.42    0.46
   2  -1   8    0.85    0.76
   2  -1   8    0.20    0.92
  -2  -1  -8    0.91    0.89
  -2   1  -8    3.97    2.48
  -2   1  -8    0.08    2.44
  -2   1  -8    1.48    0.66
  -2   1  -8    0.69    1.20
  -2   1  -8   -0.03    1.09
  -3  -1  -8    0.60    0.89
  -3  -1  -8    1.27    0.88
   3  -1   8    0.87    0.82
  -3  -1  -8    1.22    0.70
   3  -1   8   -0.57    1.60
   3  -1   8    2.10    1.00
   3   1   8    1.19    1.35
  -3   1  -8    1.29    1.11
  -3   1  -8    1.92    2.60
  -3   1  -8    0.32    0.75
  -3   1  -8   -0.59    0.93
   4  -1   8   94.75    6.69
  -4  -1  -8  103.69    6.46
   4  -1   8   90.18    6.86
  -4  -1  -8   99.08    6.72
  -4  -1  -8   95.87    6.66
  -4   1  -8   96.34    6.74
  -4   1  -8   80.81    6.86
   4   1   8   87.12    7.02
  -5  -1  -8   57.24    4.07
  -5  -1  -8   52.69    3.79
   5  -1   8   51.49    4.78
  -5  -1  -8   54.27    4.31
   5  -1   8   52.72    4.23
  -5  -1  -8   62.65    6.00
  -5   1  -8   50.43    4.24
   5   1   8   49.43    5.04
   6  -1   8   18.40    2.95
   6  -1   8   13.95    2.10
  -6  -1  -8   13.92    1.34
  -6  -1  -8   24.73    3.93
  -6  -1  -8   16.97    1.79
  -6   1  -8   12.67    2.15
  -7  -1  -8   -1.80    1.29
  -7  -1  -8   -0.42    0.82
  -7  -1  -8    0.56    2.97
   7  -1   8   -0.17    0.78
  -7  -1  -8    0.06    0.46
  -7   1  -8    2.18    3.28
  -7   1  -8    1.25    1.20
  -7   1  -8   -1.11    0.94
 -10  -2   8    1.63    1.18
  10  -2  -8    0.85    0.75
 -10  -2   8    1.24    0.60
 -10  -2   8    1.94    0.67
 -10   2   8    1.89    0.85
   9  -2  -8    3.40    3.01
  -9  -2   8    8.39    1.45
  -9  -2   8    7.48    0.83
   9  -2  -8    9.47    1.51
  -9  -2   8    6.41    1.10
  -9   2   8    5.55    0.99
   9   2  -8    4.19    2.24
  -8  -2   8    4.69    1.73
   8  -2  -8    5.91    2.04
   8  -2  -8    6.70    1.14
  -8  -2   8    6.45    0.80
  -8  -2   8    9.12    1.33
  -8   2   8    6.26    1.40
  -8   2   8    7.12    3.34
   8   2  -8    3.50    2.21
   7  -2  -8   32.73    3.28
  -7  -2   8   39.65    3.48
   7  -2  -8   35.01    3.40
  -7  -2   8   34.06    3.15
  -7  -2   8   39.13    2.75
   7  -2  -8   37.79    3.29
  -7   2   8   33.42    7.58
  -7   2   8   34.31    3.39
   7   2  -8   34.02    5.08
  -6  -2   8   37.98    2.58
  -6  -2   8   32.20    2.93
  -6  -2   8   32.47    2.87
   6  -2  -8   36.49    3.39
   6  -2  -8   37.62    3.13
   6  -2  -8   31.87    2.99
  -6   2   8   31.53    4.74
   6   2  -8   33.11    4.08
   5  -2  -8    1.50    1.03
   5  -2  -8    0.42    1.08
   5  -2  -8    2.26    0.89
  -5  -2   8    1.58    0.86
  -5  -2   8    1.05    0.48
  -5  -2   8    0.68    0.87
   5   2  -8    0.89    2.02
  -5   2   8    2.65    1.15
  -4  -2   8   35.04    2.80
   4  -2  -8   38.03    2.82
  -4  -2   8   37.45    2.89
   4  -2  -8   29.68    3.24
   4  -2  -8   38.60    2.80
   4  -2  -8   29.87    4.04
   4   2  -8   36.66    4.13
   4   2  -8   34.65    6.92
   4   2  -8   34.81    4.23
  -4   2   8   34.88    2.95
   3  -2  -8   11.35    1.30
   3  -2  -8   12.16    1.37
  -3  -2   8   11.59    1.43
  -3  -2   8    8.20    1.51
  -3   2   8    9.98    1.66
   3   2  -8   10.96    2.43
   3   2  -8    6.38    2.42
  -2  -2   8    6.76    1.14
  -2  -2   8    3.97    1.10
  -2  -2   8    5.70    0.95
  -2   2   8    6.87    1.20
   2   2  -8    4.49    2.27
   2   2  -8    5.65    1.52
   2   2  -8    3.75    2.26
   2   2  -8    7.86    2.21
  -1  -2   8   91.89    7.36
  -1  -2   8  113.17    6.93
   1   2  -8   95.80    7.80
   1   2  -8   98.42    7.45
   1   2  -8   94.85    7.87
   1   2  -8   95.17    7.61
   0  -2  -8    1.70    0.72
   0  -2   8    1.03    0.64
   0  -2   8    0.93    0.89
   0  -2   8    1.21    0.87
   0   2  -8    2.53    1.25
   0   2  -8    2.85    1.11
   0   2  -8    0.40    2.21
   0   2  -8   -0.89    2.48
   0   2  -8    4.46    3.46
   1  -2   8    8.10    1.61
   1  -2   8   10.69    1.59
  -1  -2  -8    7.45    1.22
  -1  -2  -8   11.12    2.19
   1  -2   8    9.31    1.24
  -1   2  -8   12.25    2.99
  -1   2  -8    8.03    2.49
   2  -2   8    1.39    1.16
  -2  -2  -8    0.63    0.72
   2  -2   8    1.31    0.83
   2  -2   8    1.76    0.92
  -2  -2  -8    1.63    1.10
  -2  -2  -8    3.11    0.76
  -2   2  -8    2.88    5.05
  -2   2  -8    2.67    1.39
  -2   2  -8    1.40    1.53
  -2   2  -8    3.51    2.08
  -2   2  -8    1.84    2.79
   3  -2   8   11.76    2.13
  -3  -2  -8    7.49    1.31
   3  -2   8    9.55    1.42
   3  -2   8    9.87    1.59
  -3  -2  -8    8.21    1.28
  -3   2  -8    9.33    1.46
  -3   2  -8   15.09    3.66
  -3   2  -8    7.52    2.57
   4  -2   8    8.00    1.72
  -4  -2  -8    5.53    1.28
   4  -2   8    7.10    1.65
   4  -2   8    5.60    1.31
  -4   2  -8    6.31    1.82
  -4   2  -8    6.79    3.67
  -5  -2  -8    6.37    0.99
  -5  -2  -8    4.60    1.38
  -5  -2  -8    7.51    1.10
   5  -2   8    8.44    1.17
   5  -2   8   10.10    1.98
  -5   2  -8    6.06    1.31
  -5   2  -8   10.29    3.89
  -6  -2  -8   -0.01    0.44
  -6  -2  -8    0.98    0.79
   6  -2   8    1.14    0.66
  -6  -2  -8    1.20    1.98
  -6   2  -8   -0.26    1.00
  -6   2  -8   -1.82    3.53
  -7  -2  -8    5.41    0.89
  -7  -2  -8    3.88    0.67
  -7   2  -8    5.01    1.00
  -7   2  -8    3.52    5.32
  -9  -3   8    1.48    0.39
  -9  -3   8    1.72    0.64
   9  -3  -8    2.00    0.86
   9   3  -8    0.70    1.75
  -9   3   8    3.37    1.42
  -8  -3   8    2.06    0.46
  -8  -3   8    1.51    0.96
  -8  -3   8   -1.12    1.47
   8  -3  -8    1.98    1.03
   8  -3  -8    0.44    2.06
  -8  -3   8    2.95    0.85
   8   3  -8    0.08    1.60
  -8   3   8    2.22    1.17
  -8   3   8    3.70    2.27
  -7  -3   8   19.50    1.92
  -7  -3   8   16.31    1.43
  -7  -3   8   16.88    2.29
   7  -3  -8   17.39    2.25
   7  -3  -8   13.06    2.21
  -7   3   8   17.99    1.85
   7   3  -8   12.28    2.49
  -6  -3   8    0.66    0.55
  -6  -3   8    0.05    1.00
   6  -3  -8   -0.18    2.29
  -6  -3   8   -0.02    0.93
   6  -3  -8    0.53    1.36
   6  -3  -8    0.33    1.34
   6   3  -8   -1.19    2.30
  -6   3   8    0.30    0.84
  -5  -3   8   37.48    3.18
   5  -3  -8   39.10    3.65
   5  -3  -8   41.27    4.04
  -5  -3   8   36.15    3.05
  -5  -3   8   37.70    2.82
   5  -3  -8   41.95    3.37
  -5   3   8   35.08    3.08
   5   3  -8   45.33    4.47
  -4  -3   8    3.41    0.98
   4  -3  -8    2.95    1.12
  -4  -3   8    2.00    0.93
   4   3  -8    2.26    2.32
  -4   3   8    2.66    0.88
  -4   3   8    0.66    2.11
   3  -3  -8   14.32    1.64
  -3  -3   8   13.78    1.84
  -3  -3   8    9.31    1.64
  -3   3   8   10.46    2.05
  -3   3   8    8.92    4.35
   3   3  -8    9.36    2.96
  -2  -3   8   17.38    1.74
  -2  -3   8   19.27    2.00
  -2  -3   8   13.72    1.86
   2   3  -8   17.64    3.93
  -2   3   8   13.07    3.09
   2   3  -8   11.44    2.71
  -1  -3   8   34.10    2.83
  -1  -3   8   35.36    2.95
   1  -3  -8   35.31    2.91
  -1  -3   8   35.86    2.99
  -1   3   8   38.20    3.69
  -1   3   8   35.57    5.76
   1   3  -8   32.66    4.66
   0  -3   8   14.91    1.81
   0  -3   8   12.54    2.17
   0  -3  -8   12.74    1.71
   0   3  -8   16.51    2.35
   0   3  -8   10.94    3.36
   1  -3   8   83.50    5.96
  -1  -3  -8   89.91    5.94
   1  -3   8   85.67    5.97
   1   3   8   72.22    6.06
  -1   3  -8   76.39    6.94
  -1   3  -8   89.47    7.52
  -2  -3  -8   11.07    1.66
   2  -3   8   11.94    1.86
   2  -3   8   11.66    2.01
   2  -3   8   10.37    1.81
  -2   3  -8   10.60    1.57
  -2   3  -8    9.74    3.59
   2   3   8   12.61    1.64
  -3  -3  -8    8.06    1.50
   3  -3   8   10.50    1.75
   3  -3   8    9.10    1.80
  -3  -3  -8   10.51    1.72
  -3  -3  -8    9.87    1.82
  -3   3  -8   17.40    4.59
  -3   3  -8    8.80    1.52
   3   3   8   12.62    1.94
  -4  -3  -8    4.04    0.80
   4  -3   8    8.56    2.10
   4  -3   8    6.64    1.07
   4  -3   8    9.63    1.92
  -4  -3  -8    6.24    1.30
  -4  -3  -8    7.59    1.32
  -4   3  -8    5.86    1.35
  -4   3  -8    5.04    3.66
  -5  -3  -8   12.03    1.86
   5  -3   8    8.30    2.57
  -5  -3  -8   13.13    1.78
   5  -3   8    9.84    1.50
  -5  -3  -8    6.93    1.04
  -5   3  -8   10.08    4.16
  -5   3  -8    9.80    1.30
   6  -3   8    0.51    0.61
  -6  -3  -8    0.35    0.42
  -6  -3  -8    0.48    0.82
  -6  -3  -8    3.62    1.98
  -6   3  -8   -3.98    5.28
  -6   3  -8    0.10    0.87
  -8  -4   8    6.34    0.76
  -8  -4   8    7.94    1.30
  -8   4   8    7.53    1.30
  -8   4   8    6.33    1.92
  -7  -4   8    1.58    0.48
  -7  -4   8    0.78    1.50
   7  -4  -8   -0.82    2.14
  -7  -4   8    1.32    0.95
  -7   4   8    0.96    0.64
   7   4  -8    1.93    1.57
  -6  -4   8   14.94    1.16
  -6  -4   8   10.03    1.43
   6  -4  -8    7.14    2.57
  -6  -4   8    7.78    2.45
   6   4  -8   11.76    2.46
  -6   4   8   13.49    1.38
  -5  -4   8    1.60    0.97
  -5  -4   8    2.38    1.14
   5  -4  -8   -0.58    1.68
  -5  -4   8    0.74    0.50
  -5   4   8    1.35    0.74
  -5   4   8   -1.72    1.49
   5   4  -8   -1.02    2.70
  -4  -4   8   10.85    2.12
  -4  -4   8   10.14    1.32
  -4  -4   8    9.95    1.40
   4  -4  -8    7.16    1.74
   4   4  -8    8.73    2.85
  -4   4   8    6.50    2.35
  -4   4   8    9.49    1.43
  -3  -4   8    5.03    1.18
   3  -4  -8    3.95    1.58
  -3  -4   8    3.55    1.08
   3   4  -8    3.04    3.09
   3   4  -8    5.69    1.75
  -3   4   8    2.79    0.84
  -2  -4   8    6.45    1.29
  -2  -4   8    8.05    1.94
  -2  -4   8    8.03    1.64
   2  -4  -8    4.95    1.67
   2   4  -8    9.18    3.43
  -2   4   8    1.45    3.16
  -2   4   8    7.02    1.09
  -1  -4   8   13.77    2.89
  -1  -4   8    6.32    1.56
  -1  -4   8    8.45    1.45
  -1   4   8    8.77    1.27
  -1   4   8    7.71    4.21
   1   4  -8   13.52    3.54
   0  -4   8   75.69    5.70
   0  -4   8   78.73    5.66
   0  -4  -8   77.78    5.88
   0   4   8   75.54    5.67
   0   4  -8   70.96    7.57
   0   4  -8   86.83    5.89
  -1  -4  -8   10.45    1.93
   1  -4   8   10.12    1.61
   1  -4   8   10.94    1.70
   1  -4   8    9.11    1.64
  -1   4  -8   11.80    3.87
  -1   4  -8    8.52    1.56
   2  -4   8   30.21    3.53
   2  -4   8   30.86    2.71
  -2  -4  -8   29.16    3.37
   2  -4   8   30.13    3.04
  -2   4  -8   37.46    6.31
   2   4   8   36.79    3.27
  -2   4  -8   27.32    3.10
  -3  -4  -8    8.07    1.21
   3  -4   8    3.50    0.99
   3  -4   8    5.77    2.21
  -3  -4  -8    4.58    1.77
  -3   4  -8    6.05    1.27
  -3   4  -8    3.24    3.91
  -4  -4  -8   11.14    2.09
   4  -4   8   13.06    1.49
  -4  -4  -8    9.42    1.34
   4  -4   8    9.24    2.25
  -4   4  -8    9.87    4.34
   5  -4   8    1.73    0.68
  -6   5   8    2.06    0.48
  -6   5   8    2.10    0.80
  -5  -5   8    1.51    1.63
  -5   5   8    1.97    0.54
  -4  -5   8    0.47    0.57
  -4  -5   8   -0.10    1.42
  -4   5   8    0.73    1.45
  -4   5   8    0.40    0.56
  -3  -5   8    1.41    1.41
  -3   5   8    0.46    0.51
  -3   5   8   -1.58    1.57
  -2  -5   8   -1.40    1.38
  -2   5   8    1.99    0.78
  -2   5   8    1.27    1.60
   2   5  -8    2.46    1.34
   1  -5   8    4.73    1.66
   1  -5   8    3.10    1.70
  -1   5  -8    2.57    3.28
   1   5   8    2.52    0.88
   2  -5   8    1.56    1.56
   2  -5   8    2.58    1.78
  -2   5  -8    1.49    3.51
 -10   0   9   -0.74    0.64
  10   0  -9   -0.27    0.80
 -10   0   9   -0.63    1.98
  -9   0   9    1.01    1.19
   9   0  -9    0.58    1.17
  -9   0   9    0.23    0.94
   8   0  -9    2.91    1.74
  -8   0   9    2.89    1.18
  -8   0   9    1.49    0.94
   8   0  -9    3.69    1.17
  -7   0   9    2.82    1.01
   7   0  -9    1.08    3.54
   7   0  -9    1.80    1.14
   7   0  -9    3.75    1.44
  -7   0   9    1.89    1.20
   6   0  -9   14.80    2.81
  -6   0   9   18.29    1.84
  -6   0   9   16.80    2.12
   6   0  -9   20.22    3.95
   6   0  -9   14.19    2.09
   6   0  -9   13.81    1.92
   5   0  -9   39.24    3.31
   5   0  -9   35.24    4.11
  -5   0   9   38.92    3.19
   5   0  -9   36.80    3.15
   5   0  -9   34.47    3.01
  -5   0   9   41.97    3.22
  -4   0   9   58.63    4.44
   4   0  -9   62.02    4.38
   4   0  -9   55.10    4.24
   4   0  -9   55.29    5.48
   3   0  -9   30.54    2.76
   3   0  -9   34.19    2.74
   3   0  -9   33.97    3.10
  -3   0   9   41.03    2.76
   3   0  -9   43.71    4.20
   3   0  -9   37.00    2.93
  -2   0   9    2.03    0.63
   2   0  -9    3.41    0.93
   2   0  -9    2.04    1.93
   1   0  -9    8.03    3.24
  -1   0   9    8.01    1.08
   1   0  -9   10.56    2.61
   0   0  -9    9.45    2.85
   0   0  -9   10.52    1.35
   0   0  -9    9.46    1.16
   0   0  -9   15.09    3.54
   0   0   9    8.28    1.21
   0   0  -9    9.66    1.69
   1   0   9  118.73    8.76
  -1   0  -9  125.05   10.37
  -1   0  -9  126.97    9.44
  -1   0  -9  121.22    8.70
  -1   0  -9  133.72    8.55
  -2   0  -9   72.74    5.40
   2   0   9   74.02    5.56
   2   0   9   80.21    5.52
  -2   0  -9   74.08    5.47
  -2   0  -9   76.68    6.78
  -3   0  -9   38.43    2.72
  -3   0  -9   36.53    3.34
  -3   0  -9   33.39    4.19
  -3   0  -9   34.58    3.05
   3   0   9   36.41    3.26
   3   0   9   42.77    3.74
  -4   0  -9   37.30    3.11
  -4   0  -9   37.00    3.57
  -4   0  -9   44.30    5.37
   4   0   9   37.74    3.29
  -4   0  -9   40.52    2.78
   4   0   9   34.08    3.74
  -4   0  -9   29.05    4.29
   5   0   9   -0.01    1.44
  -5   0  -9   -0.69    0.67
   5   0   9    3.21    2.26
  -5   0  -9    0.68    1.31
  -5   0  -9   -2.14    2.60
  -5   0  -9   -0.46    1.03
  -6   0  -9    3.54    1.40
   6   0   9    5.18    2.88
  -6   0  -9    2.36    0.81
  -6   0  -9    2.73    2.52
  -7   0  -9    0.51    1.13
  -7   0  -9    0.35    2.80
  -7   0  -9    2.21    1.03
  10  -1  -9    6.00    1.13
 -10  -1   9    5.77    0.84
 -10  -1   9    7.57    1.32
 -10   1   9    5.52    0.93
  -9  -1   9    3.00    1.22
   9   1  -9    3.57    1.13
   9   1  -9    0.24    3.28
  -9   1   9    0.79    1.00
  -8  -1   9    5.88    1.18
   8  -1  -9    6.41    2.16
   8  -1  -9    3.73    1.88
  -8  -1   9    4.40    0.94
   8  -1  -9    4.24    1.17
  -8  -1   9    3.05    0.82
   8   1  -9    5.78    1.38
  -8   1   9    5.98    1.30
   8   1  -9    5.59    2.60
  -7  -1   9    3.63    0.77
  -7  -1   9    6.20    1.28
   7  -1  -9    6.29    1.47
  -7  -1   9    5.02    0.99
   7  -1  -9    6.72    1.31
   7  -1  -9    5.76    1.64
   7   1  -9    5.22    1.41
   7   1  -9    9.23    1.88
  -7   1   9    2.29    1.19
   7   1  -9    7.24    2.46
  -6  -1   9   23.21    2.47
   6  -1  -9   21.78    2.56
   6  -1  -9   24.28    2.67
   6  -1  -9   21.14    2.34
  -6  -1   9   25.42    2.13
  -6  -1   9   21.01    2.84
  -6   1   9   29.91    2.57
   6   1  -9   22.07    2.44
   5  -1  -9    7.67    1.10
   5  -1  -9    5.07    1.13
  -5  -1   9    7.76    1.24
   5  -1  -9    7.01    1.44
  -5  -1   9    8.04    1.31
  -5  -1   9    7.18    0.95
   5   1  -9    7.08    1.27
   5   1  -9    6.48    1.23
   5   1  -9    3.31    3.54
   5   1  -9    7.20    1.82
  -4  -1   9    9.53    1.30
   4  -1  -9    8.83    1.30
  -4  -1   9    9.11    1.17
   4  -1  -9    7.73    1.32
  -4  -1   9    8.83    1.62
   4  -1  -9   11.29    3.24
  -4  -1   9    9.96    1.60
   4  -1  -9   11.35    1.45
   4   1  -9    9.96    1.43
  -4   1   9   12.75    1.85
   4   1  -9   13.65    3.41
   4   1  -9    9.94    1.96
   4   1  -9    8.22    1.75
  -3  -1   9   34.12    2.89
   3  -1  -9   35.39    2.78
  -3  -1   9   34.39    2.65
   3  -1  -9   36.96    2.79
   3  -1  -9   30.29    2.65
  -3  -1   9   36.04    2.79
   3   1  -9   38.30    4.28
   3   1  -9   33.76    5.01
   3   1  -9   32.01    5.30
  -2  -1   9   21.38    2.14
   2  -1  -9   20.09    1.96
  -2  -1   9   24.62    1.88
  -2  -1   9   21.01    2.07
   2   1  -9   22.51    3.13
   2   1  -9   26.76    2.58
   2   1  -9   18.58    3.35
   2   1  -9   18.75    2.89
  -1  -1   9   36.82    2.89
  -1  -1   9   36.81    2.71
  -1  -1   9   35.39    2.95
   1   1  -9   31.96    3.80
   1   1  -9   33.74    3.57
   1   1  -9   35.18    4.16
  -1   1   9   31.88    2.81
   1   1  -9   35.61    3.12
   0  -1  -9   31.33    2.89
   0  -1   9   29.37    2.67
   0  -1   9   29.63    2.61
   0  -1   9   27.26    2.40
   0  -1  -9   30.54    2.42
   0  -1  -9   29.50    2.61
   0   1  -9   28.57    2.78
   0   1  -9   29.26    3.80
   0   1   9   29.95    2.51
   0   1  -9   30.18    2.47
   0   1  -9   34.62    4.21
  -1  -1  -9    7.86    1.37
   1  -1   9    7.24    1.53
   1  -1   9   10.89    1.33
   1  -1   9   10.24    1.72
  -1  -1  -9    9.03    1.57
  -1   1  -9   11.50    1.31
  -1   1  -9    8.84    1.26
  -1   1  -9    9.28    2.61
   1   1   9    9.00    1.57
  -1   1  -9    7.48    2.96
  -1   1  -9    9.55    1.67
   2  -1   9   11.25    1.67
  -2  -1  -9   10.58    1.62
   2  -1   9   10.28    1.90
   2  -1   9   11.35    1.61
  -2  -1  -9    9.04    1.48
  -2  -1  -9   12.91    1.28
  -2   1  -9    9.40    1.55
  -2   1  -9   11.59    1.93
  -2   1  -9    9.82    1.47
   2   1   9   11.06    2.02
   3  -1   9   14.21    2.43
   3  -1   9   10.93    1.83
  -3  -1  -9   12.62    1.26
  -3  -1  -9   13.99    1.84
  -3  -1  -9    9.89    1.67
  -3   1  -9   14.15    3.03
  -3   1  -9   10.09    1.53
   3   1   9   14.36    2.65
  -3   1  -9   16.41    2.32
   4  -1   9   16.55    2.46
  -4  -1  -9   14.08    2.13
   4  -1   9   15.15    2.03
  -4  -1  -9   16.72    1.48
  -4  -1  -9   16.56    2.04
   4   1   9   14.59    3.07
  -4   1  -9   15.50    2.68
  -4   1  -9   21.37    4.30
  -4   1  -9   17.03    2.35
  -5  -1  -9   10.23    1.63
  -5  -1  -9    7.88    2.06
  -5  -1  -9    7.15    1.05
   5  -1   9    6.89    2.30
   5  -1   9    9.20    1.37
  -5   1  -9    9.51    1.44
  -5   1  -9    8.55    1.41
   5   1   9   13.43    2.85
  -6  -1  -9    1.36    0.84
  -6  -1  -9   -0.49    0.49
   6  -1   9    0.67    0.79
  -6  -1  -9    1.91    1.72
  -6  -1  -9   -3.12    3.22
  -6   1  -9    2.92    2.97
  -6   1  -9    3.04    1.06
  -6   1  -9    0.81    1.04
  -7  -1  -9    2.75    0.79
  -7  -1  -9    5.17    2.64
   7  -1   9    1.62    1.00
  -7   1  -9    2.05    2.86
  -7   1  -9    0.68    1.50
  -7   1  -9    2.35    0.90
  10  -2  -9    0.13    0.71
 -10  -2   9    0.86    1.35
 -10  -2   9    0.26    0.57
 -10  -2   9    0.45    0.68
  -9  -2   9    3.52    0.69
  -9  -2   9    3.31    0.86
   9  -2  -9    1.99    2.95
   9  -2  -9    2.83    0.84
   9   2  -9    0.82    2.14
  -9   2   9    4.09    0.98
   8  -2  -9   14.12    1.85
  -8  -2   9   17.13    1.90
   8  -2  -9   10.15    2.38
  -8  -2   9   13.92    1.35
  -8  -2   9    8.40    5.40
  -8  -2   9   15.57    1.64
  -8   2   9   15.48    2.64
   8   2  -9    9.70    2.21
  -8   2   9   16.89    4.39
  -7  -2   9    7.67    1.06
   7  -2  -9    8.01    1.67
   7  -2  -9    7.42    1.39
  -7  -2   9    7.74    1.57
  -7  -2   9    6.67    1.14
  -7   2   9    4.92    2.51
  -7   2   9    9.57    1.98
   7   2  -9    7.33    2.33
  -6  -2   9   16.42    1.46
   6  -2  -9   15.84    2.23
   6  -2  -9   16.27    2.27
   6  -2  -9   16.75    1.95
  -6  -2   9   14.66    1.94
  -6  -2   9   14.15    1.96
   6   2  -9   16.69    3.18
  -6   2   9   15.05    1.98
  -5  -2   9   55.91    4.27
  -5  -2   9   52.86    4.24
  -5  -2   9   60.29    3.93
   5  -2  -9   55.08    4.29
   5   2  -9   59.80    5.00
  -5   2   9   50.72    4.55
   4  -2  -9   25.06    2.62
  -4  -2   9   31.08    2.65
   4  -2  -9   32.75    2.64
   4  -2  -9   31.53    2.95
  -4  -2   9   29.97    2.60
   4  -2  -9   33.04    2.59
   4   2  -9   34.47    3.76
   4   2  -9   28.36    4.75
   4   2  -9   29.98    5.45
  -4   2   9   28.95    2.58
   3  -2  -9    5.45    1.22
   3  -2  -9    7.79    1.15
  -3  -2   9    5.03    1.04
  -3  -2   9    7.72    1.16
  -3  -2   9    7.21    1.39
   3  -2  -9   11.98    2.18
   3  -2  -9    9.27    1.59
   3   2  -9    3.41    2.83
   3   2  -9    8.00    2.12
   3   2  -9    9.94    2.81
  -3   2   9    9.51    1.47
  -2  -2   9   19.86    2.02
  -2  -2   9   24.26    2.10
  -2  -2   9   23.26    2.11
   2  -2  -9   23.45    3.00
   2  -2  -9   23.62    4.33
   2   2  -9   21.11    2.98
   2   2  -9   19.87    3.20
   2   2  -9   19.80    3.82
  -2   2   9   20.14    2.24
   2   2  -9   24.59    3.72
   1  -2  -9   -0.07    0.91
  -1  -2   9    1.56    0.86
   1  -2  -9    0.65    1.91
  -1  -2   9    0.61    0.89
  -1  -2   9    0.31    0.68
   1   2  -9   -0.95    2.50
   1   2  -9    2.37    1.33
   1   2  -9   -3.46    2.97
   1   2  -9   -2.74    2.52
   1   2  -9    2.20    1.22
   1   2  -9   -1.46    3.08
   0  -2   9   21.09    2.05
   0  -2   9   18.91    1.90
   0  -2  -9   21.08    2.89
   0  -2  -9   19.25    1.89
   0  -2   9   18.44    2.10
   0  -2  -9   25.08    2.02
   0   2  -9   16.79    3.99
   0   2  -9   23.92    3.31
   0   2  -9   22.85    2.38
   0   2  -9   16.40    3.24
  -1  -2  -9   15.62    2.33
  -1  -2  -9   19.36    1.62
  -1  -2  -9   14.12    1.64
   1  -2   9   14.84    1.88
   1  -2   9   16.45    1.70
   1  -2   9   14.07    2.07
  -1   2  -9   13.21    2.90
  -1   2  -9   17.73    2.21
  -1   2  -9   12.44    2.72
  -1   2  -9   15.80    2.11
  -2  -2  -9   10.46    1.33
  -2  -2  -9    8.44    1.52
  -2  -2  -9   10.82    1.50
   2  -2   9   13.07    2.33
   2  -2   9   12.15    1.72
   2  -2   9   15.44    2.47
  -2   2  -9   11.96    2.00
  -2   2  -9    7.64    1.45
  -2   2  -9   13.91    3.39
  -3  -2  -9    3.73    1.08
   3  -2   9    2.00    1.15
  -3  -2  -9    3.18    1.08
   3  -2   9    4.13    1.03
  -3  -2  -9    2.68    0.70
  -3   2  -9    0.36    2.94
  -3   2  -9    3.75    1.34
  -3   2  -9    7.24    1.96
   4  -2   9   22.00    3.03
   4  -2   9   24.24    2.26
  -4  -2  -9   21.14    1.85
  -4  -2  -9   23.25    2.29
  -4  -2  -9   21.56    2.37
  -4   2  -9   22.20    3.06
  -4   2  -9   31.46    5.93
   5  -2   9    6.60    2.11
  -5  -2  -9   10.82    1.83
   5  -2   9    8.24    1.30
  -5   2  -9   14.28    3.77
   6  -2   9   11.95    1.37
  -6  -2  -9   12.73    1.56
  -6  -2  -9   10.20    1.07
  -6  -2  -9   19.14    3.53
  -6   2  -9   12.43    1.79
  -6   2  -9   19.11    4.31
  -9  -3   9    8.06    0.95
   9  -3  -9    8.59    1.31
  -9  -3   9    6.42    0.80
   9   3  -9    4.32    1.65
   8  -3  -9   10.03    1.77
  -8  -3   9   11.66    1.34
   8  -3  -9    7.31    2.30
  -8  -3   9    9.49    0.93
  -8  -3   9    9.87    1.56
  -7  -3   9   20.08    2.54
  -7  -3   9   21.35    1.66
   7  -3  -9   18.51    2.94
  -7  -3   9   20.77    2.03
   6  -3  -9   23.04    2.91
  -6  -3   9   25.94    2.30
  -6  -3   9   24.31    1.85
  -6  -3   9   20.44    2.47
   6  -3  -9   21.45    2.63
   6   3  -9   20.76    3.82
  -6   3   9   23.39    2.13
  -5  -3   9    3.24    1.05
   5  -3  -9    5.58    1.41
  -5  -3   9    4.34    1.25
   5  -3  -9    2.47    1.57
  -5  -3   9    2.67    0.82
   5   3  -9    5.84    3.30
  -5   3   9    3.67    1.55
  -5   3   9   -1.09    3.21
   4  -3  -9   34.04    3.03
  -4  -3   9   32.85    3.25
  -4  -3   9   35.23    2.95
  -4  -3   9   33.57    2.75
  -4   3   9   31.06    2.77
   4   3  -9   38.30    4.26
  -3  -3   9   57.77    4.46
   3  -3  -9   58.30    4.28
  -3  -3   9   56.95    4.19
  -3  -3   9   53.48    4.23
   3   3  -9   58.81    5.84
   3   3  -9   59.02    5.20
  -3   3   9   52.05    4.21
  -2  -3   9   17.11    2.01
  -2  -3   9   19.80    1.92
   2   3  -9   21.40    3.66
   2   3  -9   25.21    4.13
  -2   3   9   15.51    3.18
  -2   3   9   18.13    2.07
  -1  -3   9   18.97    2.07
  -1  -3   9   19.89    1.93
   1  -3  -9   19.04    2.18
  -1  -3   9   22.48    2.41
   1   3  -9   17.58    2.59
   1   3  -9   17.78    4.16
  -1   3   9   17.65    3.28
   1   3  -9   11.73    3.82
  -1   3   9   15.69    2.11
   0  -3   9    1.06    0.92
   0  -3   9    1.92    0.98
   0  -3   9    1.46    0.96
   0  -3  -9    1.76    1.12
   0   3  -9    1.68    2.79
   0   3  -9    1.96    1.28
   0   3   9    1.31    1.21
  -1  -3  -9    6.14    1.20
   1  -3   9    4.95    1.19
   1  -3   9    6.07    1.13
   1  -3   9    6.15    1.32
   1   3   9    3.50    1.34
  -1   3  -9    3.42    2.83
  -1   3  -9    6.41    1.36
  -2  -3  -9    9.29    1.34
   2  -3   9   10.68    1.39
  -2  -3  -9    8.82    1.48
   2  -3   9   11.14    1.71
  -2   3  -9    3.98    3.19
   2   3   9   10.61    2.26
  -2   3  -9   12.20    2.17
  -3  -3  -9    4.80    0.79
   3  -3   9    5.25    1.49
   3  -3   9    4.63    1.71
   3  -3   9    4.86    1.02
  -3  -3  -9    3.15    1.26
  -3  -3  -9    5.60    1.38
   3   3   9    3.43    1.32
  -3   3  -9   11.15    3.60
  -3   3  -9    3.92    1.29
  -3   3  -9    4.85    1.69
  -4  -3  -9    6.80    1.40
   4  -3   9    2.27    2.17
  -4  -3  -9    5.01    0.75
  -4  -3  -9    9.32    2.08
   4  -3   9    7.96    2.43
   4  -3   9    9.62    1.57
  -5  -3  -9    0.41    0.47
  -5  -3  -9   -0.92    1.66
   5  -3   9    1.65    0.77
  -5  -3  -9    1.88    0.99
  -5   3  -9    1.28    0.97
   6  -3   9    2.04    0.63
  -6  -3  -9    0.44    0.82
  -6   3  -9    2.45    0.90
  -8  -4   9    9.34    0.86
  -8   4   9   10.60    2.86
   7  -4  -9    1.47    2.33
  -7  -4   9    2.01    1.62
  -7  -4   9    1.68    0.90
  -7  -4   9    1.87    0.46
  -7   4   9    1.80    0.66
  -7   4   9    1.02    1.04
   7   4  -9   -0.07    1.35
  -6  -4   9    3.30    0.97
  -6  -4   9    0.77    1.21
  -6  -4   9    1.81    0.54
   6  -4  -9    1.13    1.89
  -6   4   9    1.19    0.64
   6   4  -9    2.36    1.97
  -5  -4   9    5.21    1.16
  -5  -4   9    4.46    2.33
   5  -4  -9    5.98    2.14
  -5  -4   9    4.92    1.24
  -5   4   9    2.47    2.12
  -5   4   9    4.85    0.84
  -4  -4   9   13.92    1.99
  -4  -4   9   17.56    3.08
  -4  -4   9   10.96    1.81
   4  -4  -9    8.75    2.41
   4   4  -9   13.34    3.28
  -4   4   9   14.08    1.51
   3  -4  -9    1.68    1.60
  -3  -4   9    2.35    0.98
  -3  -4   9    1.97    1.71
  -3  -4   9    1.40    1.13
  -3   4   9    1.09    0.72
   3   4  -9   -0.60    3.15
  -3   4   9   -2.61    2.47
  -2  -4   9   21.61    2.77
  -2  -4   9   15.15    2.04
  -2  -4   9   16.14    2.10
   2  -4  -9   15.80    2.73
  -2   4   9   16.78    3.21
   2   4  -9   22.20    4.49
  -2   4   9   16.17    1.86
   2   4  -9   13.24    5.15
  -1  -4   9    0.95    0.90
  -1  -4   9    0.83    1.50
  -1  -4   9    0.86    1.19
  -1   4   9    2.19    3.72
  -1   4   9    1.00    0.85
   1   4  -9    5.23    3.37
   0  -4   9    5.16    1.11
   0  -4   9    5.62    1.35
   0  -4  -9    3.23    1.75
   0  -4   9    4.94    1.47
   0   4  -9    5.91    1.36
   0   4   9    3.72    1.12
   0   4  -9    8.30    3.19
   1  -4   9   13.42    2.72
   1  -4   9   14.05    2.27
  -1  -4  -9   14.27    2.10
   1  -4   9   13.68    1.85
  -1   4  -9   20.22    4.41
  -1   4  -9   17.62    2.35
   2  -4   9    3.22    2.57
   2  -4   9    4.74    1.05
  -2  -4  -9    2.10    1.81
  -2   4  -9    2.33    3.38
   2   4   9    2.19    0.82
  -2   4  -9    3.93    1.83
  -3  -4  -9   15.28    1.61
   3  -4   9   16.11    1.71
  -3  -4  -9   18.48    2.94
  -3   4  -9   15.79    2.19
  -3   4  -9    9.27    3.72
  -4  -4  -9    2.23    0.64
   4  -4   9    2.47    0.73
  -4   4  -9    2.70    1.01
  -4   4  -9    5.83    4.09
  -5  -5   9    6.17    0.79
  -4  -5   9   12.27    1.16
  -4   5   9   15.03    1.28
  -3  -5   9    0.47    1.49
  -3  -5   9    0.29    0.45
  -3   5   9    1.03    0.55
  -3   5   9   -0.34    1.76
  -2  -5   9    2.70    1.48
  -2   5   9    2.21    2.34
  -1  -5   9    4.77    1.53
  -1  -5   9    2.63    1.37
  -1   5   9    3.87    0.74
   0  -5   9    4.76    1.63
   0  -5   9    3.21    1.19
   1  -5   9    2.16    1.75
   1  -5   9    1.72    1.84
  -1   5  -9    1.31    3.42
   1   5   9    2.29    1.38
   2  -5   9    1.72    0.94
  -2   5  -9    2.77    3.57
 -10   0  10    6.62    0.95
  10   0 -10    8.77    1.33
  -9   0  10    1.03    0.80
   9   0 -10    0.95    0.95
  -9   0  10    3.47    1.08
   8   0 -10   13.07    3.35
  -8   0  10    6.61    1.38
  -8   0  10    4.93    1.30
   8   0 -10    6.41    1.24
   7   0 -10   -1.22    2.95
   7   0 -10    0.84    1.36
  -7   0  10    0.53    1.01
  -7   0  10   -0.36    1.18
   7   0 -10   -0.23    1.09
  -6   0  10    3.80    1.30
  -6   0  10    6.56    1.83
   6   0 -10    3.93    1.16
   6   0 -10    3.97    2.14
   5   0 -10    0.21    1.44
   5   0 -10    0.47    0.98
   5   0 -10    4.52    1.98
  -5   0  10    1.78    1.32
  -5   0  10   -0.57    1.04
   5   0 -10    1.57    1.08
  -4   0  10   13.78    2.15
   4   0 -10   12.03    1.93
   4   0 -10   15.65    2.06
  -3   0  10   11.37    1.41
   3   0 -10   10.85    1.35
  -3   0  10   11.34    1.51
   3   0 -10   11.37    1.99
   3   0 -10    9.37    1.40
   3   0 -10   14.24    1.74
   3   0 -10    7.83    1.47
  -2   0  10   68.59    4.93
   2   0 -10   63.33    5.19
   2   0 -10   60.00    4.81
  -2   0  10   75.12    4.71
   2   0 -10   57.57    4.55
   1   0 -10   39.06    3.40
  -1   0  10   42.97    3.51
  -1   0  10   49.14    3.26
   1   0 -10   34.08    6.82
   1   0 -10   39.37    3.05
   0   0 -10    2.44    1.01
   0   0  10    1.12    1.27
   0   0 -10    3.53    2.83
   0   0 -10    1.92    0.61
   1   0  10   -0.01    1.01
  -1   0 -10   -0.23    0.55
  -1   0 -10    1.05    0.99
   1   0  10    1.46    1.13
  -1   0 -10    0.91    1.24
  -1   0 -10    0.07    2.44
  -2   0 -10    1.58    1.03
   2   0  10    1.25    1.23
  -2   0 -10    2.98    2.92
  -2   0 -10    1.16    1.49
  -2   0 -10    0.41    0.57
   2   0  10    0.18    1.15
  -3   0 -10    6.15    1.12
  -3   0 -10    3.32    1.61
  -3   0 -10    9.55    1.26
  -3   0 -10    4.98    2.13
   3   0  10    7.43    1.61
   4   0  10   -1.85    2.96
  -4   0 -10   -2.68    1.47
   4   0  10    1.93    1.46
  -4   0 -10    1.66    4.42
  -4   0 -10    1.02    0.98
  -4   0 -10   -0.40    0.67
  -5   0 -10   -1.01    3.24
   5   0  10    1.29    2.77
  -5   0 -10    0.88    0.89
  -5   0 -10   -0.12    1.86
  -6   0 -10   22.41    3.02
  -6   0 -10   20.89    2.05
  -6   0 -10   24.57    3.75
  10  -1 -10   12.26    1.31
 -10  -1  10   11.19    1.36
 -10  -1  10   11.90    1.22
 -10   1  10   10.79    1.39
  -9  -1  10    5.80    0.98
   9  -1 -10    2.95    0.98
  -9  -1  10    4.93    1.01
   9   1 -10    0.21    3.01
  -9   1  10    4.22    0.99
   9   1 -10    5.45    1.18
  -8  -1  10   12.60    1.96
   8  -1 -10   12.37    1.96
  -8  -1  10   15.58    1.67
   8  -1 -10   11.78    2.66
  -8   1  10   13.99    2.19
   8   1 -10   17.24    3.74
   8   1 -10   13.05    1.70
   7  -1 -10    3.78    1.44
   7  -1 -10    2.94    1.70
   7  -1 -10    4.37    1.68
  -7  -1  10    3.51    1.35
  -7  -1  10    2.48    0.88
  -7   1  10    5.76    1.66
   7   1 -10    6.30    1.87
   7   1 -10    5.01    1.69
   7   1 -10    1.28    3.05
   6  -1 -10    9.65    1.81
  -6  -1  10   10.90    1.84
   6  -1 -10   11.42    1.81
  -6  -1  10    8.66    1.22
   6  -1 -10    6.48    1.22
   6   1 -10    8.95    2.19
   6   1 -10   10.38    1.83
  -6   1  10   12.10    2.03
   6   1 -10    9.64    1.52
  -5  -1  10   33.20    3.21
  -5  -1  10   27.49    3.01
  -5  -1  10   28.31    2.74
   5  -1 -10   24.52    2.80
   5  -1 -10   31.81    2.72
   5  -1 -10   28.77    4.67
   5  -1 -10   29.71    2.67
  -5  -1  10   31.31    2.24
   5   1 -10   24.96    4.58
   5   1 -10   27.29    2.73
   5   1 -10   31.88    2.90
  -4  -1  10    9.62    1.71
   4  -1 -10    7.30    1.42
  -4  -1  10   13.69    2.01
  -4  -1  10   10.91    1.13
   4  -1 -10   10.75    2.62
   4  -1 -10   10.59    1.62
   4  -1 -10   10.95    1.85
  -4  -1  10   10.26    1.50
  -4   1  10   12.21    2.22
   4   1 -10   14.84    2.70
   4   1 -10   11.13    2.03
   4   1 -10    4.17    4.35
   3  -1 -10   20.03    1.95
   3  -1 -10   19.56    3.63
   3  -1 -10   20.46    1.95
  -3  -1  10   14.17    2.25
  -3  -1  10   19.70    2.13
   3  -1 -10   18.87    2.18
   3   1 -10   16.93    3.84
   3   1 -10   17.34    2.84
   3   1 -10   20.24    3.69
   2  -1 -10   13.31    2.03
  -2  -1  10   10.47    1.50
  -2  -1  10   13.95    1.75
   2  -1 -10   11.87    1.33
   2   1 -10   11.90    2.08
   2   1 -10    9.82    1.72
   2   1 -10   13.60    3.30
   2   1 -10   10.93    2.52
  -1  -1  10    4.71    1.07
   1  -1 -10    8.23    1.24
  -1  -1  10    5.41    1.18
  -1  -1  10    5.01    1.36
   1   1 -10    5.34    1.54
   1   1 -10    5.81    1.24
   1   1 -10   10.13    3.36
   1   1 -10    7.10    0.99
   0  -1  10   33.63    2.84
   0  -1 -10   37.71    2.94
   0  -1 -10   45.53    6.83
   0  -1  10   34.70    2.76
   0  -1 -10   32.78    2.82
   0  -1  10   25.90    3.96
   0   1 -10   33.86    4.36
   0   1 -10   31.08    3.07
   0   1 -10   32.45    3.44
   0   1 -10   36.09    4.29
   0   1  10   31.88    2.98
   0   1 -10   34.64    2.64
  -1  -1 -10    1.61    1.06
   1  -1  10    2.52    0.93
   1  -1  10    2.56    0.99
  -1  -1 -10    4.31    0.97
  -1  -1 -10    2.94    0.61
   1  -1  10    2.25    1.95
  -1   1 -10    3.29    1.09
  -1   1 -10    4.48    2.59
   1   1  10    1.92    1.38
  -1   1 -10    2.88    0.86
  -2  -1 -10   14.44    1.83
   2  -1  10   11.49    1.84
  -2  -1 -10   12.85    1.32
  -2  -1 -10   11.48    1.76
  -2   1 -10   14.83    3.20
  -2   1 -10   11.39    2.13
  -2   1 -10   16.65    2.72
   2   1  10   11.82    2.45
  -3  -1 -10   49.98    4.08
  -3  -1 -10   57.17    3.68
   3  -1  10   47.22    3.96
  -3  -1 -10   53.37    3.96
   3  -1  10   53.03    4.30
   3   1  10   49.58    5.08
  -3   1 -10   51.02    4.12
  -3   1 -10   48.33    5.44
  -4  -1 -10    7.55    1.25
   4  -1  10    9.42    1.37
   4  -1  10   11.04    2.17
  -4  -1 -10    8.37    1.13
  -4   1 -10   13.88    3.20
  -4   1 -10    9.88    1.54
   4   1  10   12.49    2.52
  -4   1 -10    9.81    1.55
  -5  -1 -10    8.35    2.56
  -5  -1 -10   12.71    3.63
  -5  -1 -10    5.95    1.35
   5  -1  10    5.86    2.56
  -5  -1 -10    7.94    1.02
  -5   1 -10    7.94    1.44
  -5   1 -10   11.51    1.70
  -6  -1 -10    8.10    2.79
  -6  -1 -10    6.28    0.95
  -6  -1 -10    5.82    0.85
   6  -1  10    6.51    0.94
  -6   1 -10    5.34    2.35
  -6   1 -10    5.23    1.10
  -6   1 -10   10.30    1.63
 -10  -2  10   -0.60    0.69
 -10  -2  10    0.18    0.54
  10  -2 -10    1.62    0.70
 -10   2  10    1.99    1.42
   9  -2 -10   16.03    3.68
  -9  -2  10    8.67    1.39
  -9  -2  10    8.82    1.07
   9  -2 -10    8.60    1.46
  -9  -2  10    8.56    0.92
  -9   2  10    8.81    1.32
  -8  -2  10   14.43    1.75
   8  -2 -10   24.75    3.99
  -8   2  10   24.76    2.36
  -8   2  10   19.86    5.23
   7  -2 -10   13.37    1.97
  -7  -2  10   10.19    1.92
   7  -2 -10   13.97    2.46
  -7  -2  10   13.23    1.26
  -7  -2  10   13.52    1.84
   7  -2 -10   11.46    3.52
   7   2 -10   12.81    2.39
  -7   2  10    7.91    2.68
   6  -2 -10   12.96    2.58
   6  -2 -10   11.63    1.62
  -6  -2  10   11.40    2.03
  -6  -2  10   11.94    1.23
   6  -2 -10   12.11    1.93
  -6  -2  10   10.42    1.80
  -6   2  10   12.46    1.94
   6   2 -10    9.12    2.41
  -5  -2  10   27.38    2.69
  -5  -2  10   30.85    2.69
   5  -2 -10   32.98    2.73
   5  -2 -10   28.62    2.88
  -5  -2  10   32.06    2.28
  -5  -2  10   33.16    3.05
   5   2 -10   28.64    3.86
  -5   2  10   27.65    2.71
  -4  -2  10    0.07    0.91
  -4  -2  10    0.09    1.04
   4  -2 -10   -0.45    1.51
  -4  -2  10   -0.20    0.88
   4   2 -10    0.16    3.16
   4   2 -10    0.13    2.09
   4   2 -10    0.20    2.10
   3  -2 -10    4.31    1.05
  -3  -2  10    5.05    1.16
  -3  -2  10    3.61    1.00
   3  -2 -10    1.46    3.68
  -3  -2  10    3.22    1.00
   3   2 -10    2.71    1.90
  -3   2  10    3.69    1.16
   3   2 -10    6.15    1.76
   3   2 -10    5.39    3.11
  -2  -2  10    4.30    1.05
   2  -2 -10    4.05    1.71
   2  -2 -10    5.84    0.98
   2   2 -10    3.71    2.01
   2   2 -10    4.12    2.83
  -2   2  10    6.08    1.25
   1  -2 -10   15.49    1.86
  -1  -2  10   13.30    2.04
  -1  -2  10   15.93    1.81
   1  -2 -10   15.03    2.66
  -1  -2  10   14.99    2.01
   1   2 -10   13.11    3.00
   1   2 -10   18.11    2.59
   1   2 -10   17.37    2.95
   0  -2  10   14.77    2.00
   0  -2 -10   19.80    1.72
   0  -2  10   15.19    1.84
   0  -2 -10   16.42    2.33
   0  -2 -10   15.26    2.36
   0  -2  10   15.00    2.08
   0   2 -10   14.06    3.18
   0   2 -10   15.66    2.27
   0   2 -10   18.43    3.06
  -1  -2 -10   14.25    2.13
  -1  -2 -10   13.76    1.72
  -1  -2 -10   11.63    1.45
   1  -2  10   13.27    1.78
   1  -2  10   14.75    2.07
   1  -2  10   11.66    1.82
  -1   2 -10   11.46    2.84
  -1   2 -10   13.06    1.63
  -1   2 -10   15.20    3.78
  -1   2 -10   15.74    2.40
  -2  -2 -10   51.72    3.95
  -2  -2 -10   50.79    3.95
  -2  -2 -10   51.98    3.58
   2  -2  10   53.12    4.07
   2  -2  10   43.08    4.16
   2  -2  10   51.08    3.85
  -2   2 -10   41.54    4.07
  -2   2 -10   49.31    5.62
  -2   2 -10   53.76    4.62
   3  -2  10    4.54    2.93
  -3  -2 -10    6.30    1.13
  -3  -2 -10    6.95    1.35
   3  -2  10    5.03    1.01
  -3  -2 -10    3.49    0.66
  -3   2 -10    8.42    2.21
  -3   2 -10    5.21    1.32
  -4  -2 -10    6.08    1.00
   4  -2  10    3.23    0.94
  -4  -2 -10    3.79    0.61
  -4  -2 -10    8.03    1.66
  -4   2 -10    9.24    3.01
  -4   2 -10    6.65    1.15
  -5  -2 -10    5.37    0.83
   5  -2  10    6.02    1.13
  -5  -2 -10    6.83    1.02
  -5  -2 -10    7.48    2.22
  -5   2 -10    7.58    1.18
  -5   2 -10    4.95    2.69
  -6  -2 -10   -0.53    2.51
   6  -2  10    0.68    0.65
  -6  -2 -10    0.72    0.77
  -6  -2 -10    0.04    0.41
  -6   2 -10    0.10    2.97
  -6   2 -10    0.14    0.83
  -9  -3  10    5.11    0.64
   9  -3 -10    5.27    1.14
  -9  -3  10    7.31    1.11
  -9  -3  10    4.39    0.79
   9   3 -10    2.33    1.59
   8  -3 -10    0.72    2.41
  -8  -3  10    0.22    0.84
  -8  -3  10    1.48    0.73
  -8  -3  10    0.36    0.39
   8  -3 -10   -0.08    0.90
  -8  -3  10   -2.52    2.62
   8   3 -10    1.10    1.48
  -8   3  10   -2.04    2.32
  -7  -3  10   15.34    2.80
  -7  -3  10   16.35    3.50
  -7  -3  10   18.66    2.07
   7  -3 -10   17.86    2.34
  -7  -3  10   19.82    1.44
  -7   3  10   20.15    2.07
   7   3 -10   13.16    2.92
  -6  -3  10   13.64    2.68
  -6  -3  10   10.60    1.11
   6  -3 -10    7.28    1.67
  -6  -3  10   10.08    1.61
  -6  -3  10   11.27    1.62
   6  -3 -10    6.44    1.40
  -6   3  10   10.15    1.54
   6   3 -10    8.92    2.44
  -5  -3  10   28.07    3.82
   5  -3 -10   29.10    2.85
  -5  -3  10   27.80    2.68
  -5  -3  10   31.62    2.54
  -5  -3  10   27.51    2.10
   5  -3 -10   26.07    2.90
  -5   3  10   23.99    2.40
   5   3 -10   28.91    4.01
  -4  -3  10    4.23    1.46
   4  -3 -10    2.19    1.36
  -4  -3  10    3.04    1.06
  -3  -3  10   21.37    2.45
  -3  -3  10   19.55    2.17
  -3  -3  10   18.57    2.09
   3  -3 -10   20.43    2.36
   3  -3 -10   24.95    2.51
   3   3 -10   19.94    4.34
   3   3 -10   19.47    3.72
  -3   3  10   17.86    2.01
  -2  -3  10   16.95    2.19
  -2  -3  10   13.84    1.85
  -2  -3  10   15.26    1.88
  -2   3  10    9.20    3.16
   2   3 -10   17.90    3.96
  -2   3  10   13.55    1.84
   2   3 -10   18.64    4.21
  -1  -3  10   21.03    2.38
  -1  -3  10   17.49    2.16
   1  -3 -10   22.58    2.42
  -1  -3  10   19.78    2.12
  -1   3  10   19.11    3.76
  -1   3  10   16.57    2.06
   1   3 -10   22.68    4.32
   1   3 -10   18.27    2.77
   1   3 -10   15.47    3.63
   0  -3 -10    6.05    1.40
   0  -3  10    3.24    1.26
   0  -3  10    0.30    1.30
   0  -3  10    2.73    0.97
   0   3 -10    2.66    1.53
   0   3 -10    4.30    2.99
   0   3  10    2.11    1.14
  -1  -3 -10   17.21    2.07
   1  -3  10   26.43    3.25
   1  -3  10   26.01    2.21
  -1  -3 -10   20.71    2.46
   1  -3  10   22.29    2.44
  -1   3 -10   22.71    2.80
   1   3  10   15.45    2.39
  -1   3 -10   19.37    4.28
   2  -3  10   22.70    2.15
   2  -3  10   24.18    2.82
  -2  -3 -10   18.67    2.68
  -2  -3 -10   23.71    2.47
   2  -3  10   22.84    2.93
  -2  -3 -10   20.09    1.90
   2   3  10   17.98    2.28
  -2   3 -10   23.09    4.79
  -2   3 -10   20.98    2.51
   3  -3  10    0.14    1.79
   3  -3  10    1.01    1.22
   3  -3  10   -1.92    2.63
  -3  -3 -10    0.04    0.81
  -3  -3 -10    0.25    1.24
  -3  -3 -10    2.66    1.41
  -3   3 -10    0.27    3.18
   3   3  10    1.53    0.84
  -4  -3 -10    8.85    1.82
  -4  -3 -10    7.52    1.25
   4  -3  10    9.10    1.40
  -4  -3 -10    7.19    0.96
  -4   3 -10    7.78    1.21
  -4   3 -10    8.75    3.35
  -5  -3 -10    2.71    1.55
  -5  -3 -10    1.42    0.45
   5  -3  10    0.93    0.62
  -5   3 -10    2.01    3.44
  -5   3 -10    2.65    0.92
  -7  -4  10    6.86    0.97
  -7  -4  10    6.04    0.69
   7   4 -10    4.53    1.54
  -7   4  10    4.18    0.64
   6  -4 -10    3.51    2.18
  -6  -4  10    4.23    0.76
  -6  -4  10    4.37    1.58
  -6  -4  10    2.79    0.89
   6   4 -10    2.88    1.87
  -6   4  10    5.82    1.11
  -5  -4  10    7.05    1.47
  -5  -4  10    9.01    0.93
  -5  -4  10    5.49    1.09
  -5  -4  10   11.83    3.07
   5   4 -10    8.35    2.20
  -5   4  10    8.42    1.20
  -4  -4  10   17.74    3.24
  -4  -4  10   15.01    2.33
   4  -4 -10   19.45    3.01
  -4  -4  10   17.19    2.22
   4   4 -10   23.00    3.89
  -4   4  10   17.26    1.93
  -3  -4  10   11.61    1.97
  -3  -4  10   11.52    2.20
  -3  -4  10   14.30    2.07
   3  -4 -10   16.74    2.61
  -3   4  10    8.03    3.01
  -3   4  10   12.07    1.45
  -2  -4  10   13.89    2.19
   2  -4 -10    8.30    1.90
  -2  -4  10   12.71    2.01
  -2  -4  10   11.08    1.68
  -2   4  10    9.56    1.48
   2   4 -10   10.34    3.54
  -2   4  10    6.96    3.90
  -1  -4  10    4.05    0.97
  -1  -4  10    5.97    1.36
  -1  -4  10    5.41    1.77
  -1   4  10   14.90    5.71
   1   4 -10    1.95    3.17
   0  -4  10    2.94    1.80
   0  -4  10    0.00    1.37
   0   4 -10   -2.26    2.94
   1  -4  10   10.45    1.61
   1  -4  10   18.43    3.25
  -1  -4 -10   13.25    2.53
   1  -4  10   15.09    2.79
  -1   4 -10   15.91    3.49
   1   4  10    8.12    1.48
  -1   4 -10   12.93    1.98
  -2  -4 -10   -0.81    1.90
   2  -4  10    0.45    1.93
   2   4  10    2.83    0.79
  -2   4 -10   -1.37    3.03
  -3  -4 -10    6.60    2.16
  -3  -4 -10    3.30    0.71
  -3   4 -10    3.32    1.04
  -3   4 -10    0.60    5.73
   4  -4  10    1.15    1.06
  -4  -4 -10   -0.70    0.48
  -4   4 -10   -1.52    3.53
  -5   5  10    4.98    1.52
  -4  -5  10    8.54    0.86
  -4  -5  10    9.50    1.35
  -4   5  10    6.41    1.82
  -4   5  10   11.23    0.99
  -3  -5  10    2.19    1.48
  -3  -5  10    4.46    2.42
  -3  -5  10    1.41    0.43
  -3   5  10    0.47    1.39
  -3   5  10    2.19    0.52
  -2  -5  10    6.81    1.69
  -2   5  10    6.88    3.59
  -2   5  10    6.38    1.01
  -1  -5  10   -1.32    1.92
  -1  -5  10   -2.08    1.42
  -1   5  10   -0.88    0.66
   0  -5  10    6.29    1.19
   0   5  10    7.37    1.42
   1  -5  10    2.82    1.03
 -10   0  11    7.17    1.17
  10   0 -11    7.91    1.42
   9   0 -11   14.05    1.71
  -9   0  11   14.70    2.56
  -9   0  11   14.60    1.53
  -8   0  11   13.01    1.81
  -8   0  11   14.02    1.91
   8   0 -11   15.50    1.97
  -7   0  11    0.91    1.36
   7   0 -11   -0.53    1.10
   7   0 -11    4.00    1.82
  -7   0  11    0.45    1.52
   6   0 -11   20.28    3.14
   6   0 -11   15.94    2.26
  -6   0  11   20.50    2.35
   6   0 -11   19.35    2.23
   6   0 -11   12.57    2.65
   5   0 -11   74.06    6.94
   5   0 -11   72.40    5.10
   5   0 -11   67.84    5.54
   5   0 -11   61.13    5.19
   4   0 -11    4.56    1.49
   4   0 -11    5.26    1.91
  -4   0  11    4.32    1.54
   4   0 -11    4.29    1.40
   3   0 -11    4.77    1.34
  -3   0  11    5.92    1.30
   3   0 -11    4.39    0.82
   3   0 -11    7.24    2.12
   3   0 -11    5.46    1.29
  -2   0  11   21.70    2.51
  -2   0  11   20.02    2.11
   2   0 -11   20.46    2.31
   2   0 -11   18.08    1.81
   2   0 -11   20.93    2.87
   2   0 -11   18.77    2.34
   1   0 -11   20.34    2.33
   1   0 -11   21.04    2.37
  -1   0  11   22.81    2.29
   1   0 -11   18.86    1.78
  -1   0  11   23.45    2.43
   0   0 -11    2.47    0.64
   0   0  11    1.83    1.13
   0   0 -11    2.50    1.12
   0   0  11    4.82    1.39
   1   0  11   24.24    2.79
  -1   0 -11   29.55    2.64
  -1   0 -11   31.08    2.24
  -1   0 -11   31.83    5.18
  -2   0 -11   50.23    3.88
  -2   0 -11   55.43    3.58
  -2   0 -11   47.58    4.17
   2   0  11   44.67    4.25
   2   0  11   47.74    4.25
  -2   0 -11   52.32    5.42
  -3   0 -11   12.77    1.36
  -3   0 -11   10.24    2.82
   3   0  11   14.78    2.52
   3   0  11   11.51    1.86
  -3   0 -11    9.38    1.72
   4   0  11    0.77    2.37
  -4   0 -11    3.57    2.98
  -4   0 -11   -0.64    0.77
  -4   0 -11    1.09    0.98
  -5   0 -11    1.98    0.88
  -5   0 -11    2.35    2.50
  -6   0 -11    1.97    1.03
  -6   0 -11    1.46    2.20
 -10  -1  11    0.33    0.62
  10  -1 -11    0.27    0.67
 -10  -1  11   -0.01    1.61
 -10   1  11    1.52    1.36
   9  -1 -11    7.08    1.03
  -9  -1  11    7.57    1.37
  -9  -1  11    4.95    0.90
  -9   1  11    6.02    1.20
   9   1 -11    8.14    1.26
   9   1 -11    2.22    2.64
  -8  -1  11    4.44    1.05
  -8  -1  11    5.22    1.22
   8  -1 -11    5.33    1.08
   8  -1 -11   14.33    5.35
   8   1 -11    3.78    2.81
   8   1 -11    7.92    1.70
  -8   1  11   10.58    5.05
  -7  -1  11    1.34    1.02
   7  -1 -11    4.39    2.48
   7  -1 -11    2.61    1.13
   7  -1 -11    1.53    1.91
  -7  -1  11    1.10    1.03
  -7  -1  11    1.53    0.81
   7   1 -11   -0.37    2.30
   7   1 -11    3.48    1.28
  -7   1  11    1.91    1.67
  -6  -1  11   47.12    3.63
   6  -1 -11   42.06    3.76
   6  -1 -11   38.96    3.94
   6  -1 -11   46.32    3.63
  -6  -1  11   45.64    3.25
   6   1 -11   46.40    4.57
   6   1 -11   46.15    3.80
  -5  -1  11    2.03    1.82
  -5  -1  11    2.18    1.05
  -5  -1  11    2.04    0.63
   5  -1 -11    2.24    1.26
   5  -1 -11   -0.36    4.52
   5  -1 -11    5.10    2.81
   5  -1 -11    1.93    1.00
   5   1 -11    1.80    1.91
   5   1 -11    2.01    1.32
   4  -1 -11   23.85    2.63
   4  -1 -11   26.55    2.37
   4  -1 -11   22.64    3.73
  -4  -1  11   25.30    2.41
  -4  -1  11   16.12    3.50
  -4  -1  11   21.92    2.06
  -4   1  11   23.35    2.48
   3  -1 -11    0.02    1.08
  -3  -1  11    2.03    1.82
  -3  -1  11    1.27    0.62
  -3  -1  11    1.95    0.96
  -3  -1  11    1.17    1.07
   3  -1 -11    1.22    1.38
   3  -1 -11    2.27    1.97
   3  -1 -11    0.64    0.79
   3   1 -11    0.18    1.58
  -3   1  11    4.13    1.19
   3   1 -11    4.47    4.47
  -2  -1  11   16.11    1.84
  -2  -1  11   16.47    1.80
   2  -1 -11   17.66    2.10
   2  -1 -11   15.07    1.76
  -2  -1  11   17.33    2.73
   2   1 -11   13.77    2.27
   2   1 -11   10.64    3.17
   2   1 -11   14.74    2.67
   1  -1 -11    1.74    0.72
  -1  -1  11    3.15    1.62
  -1  -1  11    3.62    1.03
   1  -1 -11    3.94    1.13
  -1  -1  11    2.90    0.97
   1   1 -11    2.21    1.38
   1   1 -11    5.26    3.33
   1   1 -11    3.48    1.22
   0  -1 -11   15.23    2.16
   0  -1 -11   22.04    5.04
   0  -1  11   13.11    1.91
   0  -1 -11   14.40    1.91
   0   1 -11    8.87    1.34
   0   1 -11   16.00    3.16
   0   1  11   10.06    2.07
   1  -1  11    2.72    1.10
   1  -1  11    2.10    1.15
  -1  -1 -11   -0.10    1.43
  -1  -1 -11    4.61    1.20
  -1  -1 -11    2.36    0.67
  -1   1 -11    2.96    1.22
   1   1  11    2.24    1.73
  -1   1 -11    3.37    1.77
  -1   1 -11    1.65    1.15
  -1   1 -11    4.52    2.61
   2  -1  11   14.00    2.11
   2  -1  11   14.63    2.38
  -2  -1 -11   23.27    4.98
  -2  -1 -11   16.75    2.31
  -2  -1 -11   20.01    1.59
  -2  -1 -11   15.43    2.06
  -2   1 -11   21.80    2.62
  -2   1 -11   16.84    3.84
   2   1  11   13.73    3.04
  -2   1 -11   18.29    2.30
  -2   1 -11   18.51    2.13
   3  -1  11    5.88    2.27
   3  -1  11    9.14    1.46
  -3  -1 -11    6.10    1.04
  -3  -1 -11   13.82    4.05
  -3  -1 -11    7.85    1.07
  -3   1 -11    2.33    2.75
  -3   1 -11    4.18    2.32
  -3   1 -11    6.99    1.59
   3   1  11    7.40    2.54
   4  -1  11   -3.04    2.38
  -4  -1 -11    1.24    2.74
   4  -1  11    2.90    1.41
  -4  -1 -11    2.74    0.57
  -4  -1 -11    1.06    2.53
  -4  -1 -11    1.45    0.83
   4   1  11    0.73    2.82
  -4   1 -11    4.13    1.44
  -4   1 -11    5.60    3.00
  -5  -1 -11    2.90    2.52
  -5  -1 -11   -0.15    0.48
  -5  -1 -11    0.84    0.75
   5  -1  11   -0.04    0.86
  -5   1 -11   -0.60    2.12
  -5   1 -11    0.06    1.20
  -5   1 -11    2.32    1.11
  -6  -1 -11    1.40    0.78
  -6  -1 -11    2.66    0.84
  -6  -1 -11    4.96    2.31
  -6   1 -11    4.05    2.34
  -6   1 -11    1.64    2.32
  -6   1 -11    2.77    1.25
  -9  -2  11    3.17    0.62
   9  -2 -11    5.77    0.95
   9   2 -11    1.47    2.06
   8  -2 -11   -1.21    2.50
  -8  -2  11    0.98    0.81
  -8  -2  11    0.88    0.42
  -8  -2  11    0.97    0.64
   8  -2 -11    0.88    0.93
  -8   2  11    3.70    2.59
   8   2 -11   -1.46    1.96
  -7  -2  11    2.76    0.68
  -7  -2  11    4.35    1.13
   7  -2 -11    3.91    0.97
   7  -2 -11    4.22    1.97
   7   2 -11   -0.20    2.01
   6  -2 -11   56.09    4.07
  -6  -2  11   47.23    4.22
   6  -2 -11   51.46    4.14
  -6  -2  11   54.40    3.98
  -6  -2  11   51.71    3.65
   6   2 -11   52.04    4.82
  -6   2  11   47.56    3.97
   5  -2 -11   29.75    2.62
  -5  -2  11   21.58    2.77
  -5  -2  11   28.54    2.05
   5  -2 -11   26.79    2.70
  -5  -2  11   28.02    2.51
  -5  -2  11   23.25    2.66
   5   2 -11   27.56    3.77
  -5   2  11   24.27    2.56
  -4  -2  11    1.16    1.23
  -4  -2  11    1.35    1.13
   4  -2 -11    1.02    1.10
  -4  -2  11    1.85    1.02
   4  -2 -11   -0.61    0.94
  -4  -2  11    0.98    0.55
   4   2 -11    1.63    3.56
  -4   2  11    2.08    1.00
   4   2 -11    0.79    2.03
   4   2 -11    3.14    1.77
   3  -2 -11    8.50    1.08
  -3  -2  11    8.36    1.93
   3  -2 -11   10.10    1.44
  -3  -2  11    5.88    1.32
   3  -2 -11   10.81    3.55
   3  -2 -11   11.19    1.72
  -3  -2  11    9.64    1.71
  -3   2  11    7.60    1.31
   3   2 -11    6.71    2.02
   3   2 -11    6.33    2.20
   2  -2 -11   11.61    1.74
  -2  -2  11   13.83    2.44
   2  -2 -11    7.48    1.06
  -2  -2  11    5.61    1.36
  -2  -2  11    8.84    1.61
  -2   2  11    8.42    1.31
   2   2 -11    9.76    2.30
  -1  -2  11   70.07    5.17
  -1  -2  11   67.70    4.92
   1  -2 -11   67.43    4.72
   1  -2 -11   69.64    4.97
   1  -2 -11   68.22    5.10
   1   2 -11   63.78    6.22
   1   2 -11   68.14    5.77
   1   2 -11   66.28    5.35
  -1   2  11   63.64    4.97
   1   2 -11   59.54    5.43
   0  -2  11   13.82    1.83
   0  -2 -11   15.05    1.72
   0  -2 -11   12.60    1.92
   0  -2  11   11.29    1.75
   0  -2 -11   10.79    1.49
   0  -2  11   12.36    2.17
   0   2 -11    8.70    2.13
   0   2 -11   10.23    4.07
   0   2 -11   12.28    1.86
   0   2 -11    8.39    2.04
   1  -2  11    7.89    1.73
  -1  -2 -11    6.88    1.32
  -1  -2 -11   10.60    1.54
  -1  -2 -11   10.50    1.45
   1  -2  11    9.12    1.66
   1  -2  11    6.29    1.44
  -1   2 -11    7.91    1.59
  -1   2 -11    8.58    2.07
  -1   2 -11   10.17    2.57
  -1   2 -11   13.45    3.09
   2  -2  11   12.49    1.45
  -2  -2 -11   11.18    1.95
   2  -2  11   13.45    2.11
  -2  -2 -11    9.62    1.30
  -2  -2 -11   10.81    1.84
  -2   2 -11   20.89    5.05
  -2   2 -11   10.84    2.33
  -2   2 -11   10.51    1.50
  -3  -2 -11   13.27    2.27
  -3  -2 -11   13.61    1.73
   3  -2  11   14.42    2.77
   3  -2  11   12.30    1.77
  -3  -2 -11   13.29    1.29
  -3   2 -11    7.89    3.31
  -3   2 -11   14.80    1.97
   4  -2  11    4.65    0.85
  -4  -2 -11    4.54    1.88
  -4  -2 -11    1.89    0.86
  -4  -2 -11    3.63    3.41
  -4  -2 -11    3.65    0.57
  -4   2 -11    6.27    2.81
   4   2  11    4.29    0.98
  -4   2 -11    3.04    1.10
   5  -2  11   -0.54    0.75
  -5  -2 -11    0.68    0.42
  -5  -2 -11   -0.09    3.32
  -5  -2 -11    0.56    0.73
  -5   2 -11    1.33    2.68
  -5   2 -11   -0.41    0.92
  -8  -3  11    2.77    0.72
   8  -3 -11    0.90    2.91
  -8  -3  11    3.45    0.83
   8  -3 -11    2.39    0.88
  -8  -3  11    1.44    0.43
   8   3 -11    3.01    1.61
  -8   3  11   -0.18    1.78
   7  -3 -11   14.14    1.93
  -7  -3  11   11.48    1.62
  -7  -3  11   10.51    2.17
   7  -3 -11   17.59    3.14
  -7  -3  11   11.99    1.05
  -7   3  11   15.86    1.77
   6  -3 -11    0.25    1.71
  -6  -3  11    2.32    1.56
   6  -3 -11    2.78    1.41
  -6  -3  11    2.37    1.92
  -6  -3  11    4.77    1.06
  -6  -3  11    4.67    0.80
  -6   3  11    4.81    1.18
  -6   3  11    0.71    1.63
   6   3 -11    0.03    1.94
   5  -3 -11   12.62    2.37
  -5  -3  11   17.18    1.42
  -5  -3  11   13.40    2.23
   5  -3 -11   14.30    2.40
  -5  -3  11   17.89    2.80
  -5  -3  11   19.14    1.89
   5   3 -11   17.08    3.46
  -5   3  11   13.54    1.68
   4  -3 -11    2.90    1.45
  -4  -3  11    1.59    0.56
  -4  -3  11   -0.16    1.18
  -4  -3  11    0.86    1.79
  -4  -3  11    2.55    1.22
   4  -3 -11    3.10    1.30
  -4   3  11    1.77    0.86
   4   3 -11   -0.49    2.26
   3  -3 -11   12.85    2.29
  -3  -3  11   13.38    1.99
  -3  -3  11   15.88    1.84
   3  -3 -11    9.62    1.76
   3   3 -11   12.51    3.41
   3   3 -11   12.44    2.60
  -3   3  11   13.46    1.61
  -2  -3  11   18.76    2.24
  -2  -3  11   18.54    2.17
   2  -3 -11   21.40    2.50
   2  -3 -11   15.40    2.18
  -2  -3  11   22.95    2.82
  -2   3  11   18.01    2.01
   2   3 -11   22.67    4.31
   2   3 -11   21.47    4.29
  -1  -3  11   10.45    1.68
   1  -3 -11    9.05    1.58
  -1  -3  11    8.74    1.49
  -1   3  11    8.60    1.61
   1   3 -11    8.23    3.11
  -1   3  11    9.24    3.69
   1   3 -11    7.24    3.02
   0  -3  11   38.18    3.56
   0  -3  11   41.96    3.29
   0  -3 -11   41.19    3.63
   0  -3  11   41.11    3.66
   0  -3 -11   39.27    3.17
   0   3 -11   50.81    6.64
   0   3 -11   43.20    3.74
   0   3  11   40.33    3.28
   1  -3  11   16.34    2.52
  -1  -3 -11   13.97    2.34
  -1  -3 -11   12.82    1.54
  -1  -3 -11   19.41    2.61
   1  -3  11   15.47    1.79
   1  -3  11   12.28    2.57
  -1   3 -11    8.41    3.01
   1   3  11   12.97    1.97
  -1   3 -11   17.38    2.30
  -2  -3 -11    6.75    1.69
  -2  -3 -11    4.50    0.79
   2  -3  11    5.20    1.08
  -2  -3 -11    5.49    1.56
   2  -3  11    3.45    1.84
   2  -3  11    6.37    3.50
  -2   3 -11    1.62    2.66
   2   3  11    5.37    1.10
  -3  -3 -11    8.61    1.70
  -3  -3 -11    6.34    0.94
  -3  -3 -11    9.17    1.38
   3   3  11    5.29    1.03
  -3   3 -11    7.23    1.20
  -3   3 -11    4.04    2.54
  -4  -3 -11    3.05    1.88
  -4  -3 -11    1.53    0.50
   4  -3  11    1.44    0.66
  -4  -3 -11    1.23    1.01
  -4   3 -11    1.34    2.98
  -4   3 -11    2.93    0.94
  -7  -4  11    4.30    0.85
  -7  -4  11    3.80    0.56
  -7   4  11    2.33    0.70
   7   4 -11    3.55    1.60
  -7   4  11    1.61    1.18
   6  -4 -11   -1.46    2.45
  -6  -4  11    4.14    2.25
  -6  -4  11    3.95    0.66
  -6  -4  11    2.02    0.79
   6   4 -11    2.84    1.86
   5  -4 -11    2.52    2.11
  -5  -4  11    7.44    1.34
  -5  -4  11    5.93    0.79
   5   4 -11    5.69    2.06
  -5   4  11    4.17    0.73
  -4  -4  11    0.41    1.31
  -4  -4  11    1.81    0.49
  -4  -4  11    1.81    0.82
   4  -4 -11    2.08    1.87
  -4   4  11    1.65    0.66
   4   4 -11    1.80    2.05
  -3  -4  11    0.71    1.89
  -3  -4  11    1.58    1.80
  -3  -4  11    0.75    0.88
   3  -4 -11   -0.08    1.08
   3  -4 -11    2.74    1.78
  -3   4  11    0.06    0.50
  -3   4  11   -0.64    1.61
   3   4 -11   -0.03    2.61
  -2  -4  11    2.18    1.42
  -2  -4  11    2.80    2.05
   2  -4 -11    0.57    1.84
  -2  -4  11    1.19    0.88
   2   4 -11    1.59    2.75
  -2   4  11    1.64    0.56
  -2   4  11    2.37    2.77
  -1  -4  11    1.40    1.59
  -1  -4  11    5.26    2.03
  -1  -4  11    2.55    0.93
   1  -4 -11    5.60    1.89
   1   4 -11   -0.94    3.08
  -1   4  11    1.91    0.66
   0  -4  11    2.62    1.44
   0  -4  11    1.00    0.78
   0   4 -11    0.58    3.05
   0   4  11    2.37    0.68
   1  -4  11   -0.19    1.67
   1  -4  11    7.32    1.27
  -1   4 -11    9.75    2.87
   1   4  11    4.07    0.76
   2  -4  11    0.51    0.72
  -2  -4 -11   -0.63    0.71
  -2  -4 -11    0.60    2.30
   2   4  11    0.75    0.75
  -2   4 -11   -0.74    0.96
  -2   4 -11    3.35    2.99
  -3  -4 -11    2.39    0.58
   3  -4  11    1.23    0.62
  -3   4 -11    1.28    0.90
  -3   4 -11    1.98    2.85
  -3  -5  11    0.07    0.95
  -3  -5  11    1.25    0.34
  -3   5  11    1.12    2.57
  -3   5  11    1.70    0.48
  -2  -5  11    3.67    0.58
  -2  -5  11    2.55    0.96
  -2   5  11    4.82    0.91
  -1  -5  11    1.49    0.90
  -1   5  11    1.33    0.88
 -10   0  12   -0.76    1.00
  10   0 -12   -0.55    0.98
  -9   0  12   26.19    2.33
   9   0 -12   30.43    2.39
  -8   0  12    9.55    1.43
   8   0 -12   12.57    2.10
   8   0 -12    8.95    3.73
  -7   0  12    2.26    1.41
   7   0 -12   -1.21    2.61
  -7   0  12    2.29    1.40
   7   0 -12    4.04    1.20
   6   0 -12    3.36    1.68
   6   0 -12    2.59    1.94
   6   0 -12    4.44    3.90
  -6   0  12    1.56    1.51
  -6   0  12   -0.31    1.66
   5   0 -12    5.62    2.37
   5   0 -12    1.21    1.88
   5   0 -12    4.56    1.24
  -5   0  12    3.34    1.29
   4   0 -12   19.83    3.32
  -4   0  12   12.69    2.32
   3   0 -12    0.03    1.66
   3   0 -12   -1.30    1.13
   3   0 -12    1.10    1.80
   3   0 -12   -0.09    0.79
  -2   0  12    1.11    1.34
  -2   0  12    1.96    2.03
   2   0 -12    2.32    0.78
   2   0 -12    0.08    1.31
   2   0 -12    2.90    2.02
   2   0 -12   -1.64    2.01
   1   0 -12   18.10    1.63
  -1   0  12   14.69    2.47
   1   0 -12   14.54    2.13
   1   0 -12   20.75    6.95
   1   0 -12   17.14    2.67
   1   0 -12   18.95    3.03
   0   0 -12   43.73    3.02
   0   0 -12   39.68    3.41
   0   0  12   37.64    3.58
   0   0 -12   41.48    6.53
  -1   0 -12    9.81    2.97
  -1   0 -12   12.73    1.60
   1   0  12   11.61    2.03
  -1   0 -12   10.94    1.33
   1   0  12   10.53    1.95
  -2   0 -12   -4.51    3.86
  -2   0 -12    0.33    0.99
   2   0  12   -0.96    1.66
  -2   0 -12    0.34    0.72
   2   0  12    0.86    1.57
  -3   0 -12   -0.31    0.75
   3   0  12   -0.09    2.15
  -3   0 -12    0.01    1.09
  -3   0 -12    0.64    2.79
  -4   0 -12    6.41    1.11
  -4   0 -12    9.66    2.99
   4   0  12    1.13    5.33
  -5   0 -12    6.11    2.37
  10  -1 -12    5.42    0.86
 -10  -1  12    3.52    0.88
 -10  -1  12    2.25    1.01
   9  -1 -12    3.03    0.86
  -9  -1  12    4.61    0.97
  -9  -1  12    6.57    1.01
   9   1 -12   -0.47    2.77
   9   1 -12    4.16    1.17
  -9   1  12    4.48    1.22
  -8  -1  12   11.54    1.58
  -8  -1  12   14.22    1.45
   8   1 -12    9.33    1.77
  -8   1  12   19.97    4.40
  -8   1  12    4.52    3.62
   8   1 -12    7.92    2.67
   7  -1 -12   31.80    2.88
  -7  -1  12   33.65    2.99
  -7  -1  12   37.52    2.78
   7  -1 -12   26.83    3.93
   7   1 -12   35.65    3.13
   7   1 -12   27.42    3.85
   6  -1 -12    2.54    1.13
   6  -1 -12    2.62    1.70
  -6  -1  12    1.18    0.92
   6  -1 -12    6.35    2.67
  -6  -1  12    1.87    1.20
   6   1 -12    1.45    1.41
   6   1 -12    1.77    2.32
   5  -1 -12   11.29    2.52
   5  -1 -12   15.69    3.46
  -5  -1  12   12.22    1.45
   5  -1 -12   11.09    2.21
  -5  -1  12   14.26    2.00
   5  -1 -12   15.98    2.13
   5   1 -12   14.08    1.80
   5   1 -12   17.78    3.20
   4  -1 -12   17.44    1.88
   4  -1 -12   19.24    2.40
  -4  -1  12   22.06    3.32
   4  -1 -12   16.82    2.68
  -4  -1  12   18.42    2.23
  -4  -1  12   17.79    1.66
   4   1 -12   23.96    3.13
   4   1 -12   19.66    2.49
  -4   1  12   20.15    2.25
   3  -1 -12   16.44    2.17
  -3  -1  12   18.18    2.14
   3  -1 -12   19.16    2.73
  -3  -1  12   14.33    1.49
  -3  -1  12   14.54    2.13
   3  -1 -12   16.80    2.31
   3  -1 -12   14.51    1.66
  -3   1  12   17.00    2.15
   3   1 -12   16.92    3.08
   2  -1 -12    5.37    1.45
   2  -1 -12    6.55    2.50
  -2  -1  12    5.47    1.29
  -2  -1  12    3.81    0.71
  -2  -1  12    5.84    1.18
   2  -1 -12    4.70    0.84
   2  -1 -12    5.69    1.34
   2   1 -12    8.62    2.00
   2   1 -12    0.49    3.18
   2   1 -12    3.78    1.38
   1  -1 -12   31.96    3.06
   1  -1 -12   35.07    2.58
  -1  -1  12   35.55    2.96
   1   1 -12   32.27    3.40
   1   1 -12   28.17    6.49
   1   1 -12   32.57    3.11
   0  -1  12    2.96    1.15
   0  -1 -12    0.89    0.67
   0  -1  12    1.75    1.27
   0  -1 -12   -0.82    1.21
   0   1 -12    1.50    2.86
   0   1 -12    0.00    1.63
   0   1 -12    2.18    1.73
   0   1 -12    1.58    1.41
   1  -1  12   14.07    2.34
   1  -1  12   12.25    2.29
  -1  -1 -12   12.36    2.14
  -1  -1 -12   13.75    1.54
  -1  -1 -12   15.43    2.18
  -1   1 -12   13.87    2.28
  -1   1 -12   18.76    3.74
  -1   1 -12   14.29    3.17
   2  -1  12   14.74    2.65
  -2  -1 -12   31.42    6.00
  -2  -1 -12   26.82    2.74
  -2  -1 -12   21.76    1.78
  -2  -1 -12   19.63    2.15
   2  -1  12   17.53    3.30
  -2   1 -12   18.87    4.42
  -2   1 -12   20.29    3.08
  -2   1 -12   22.13    2.73
  -2   1 -12   23.24    3.07
   3  -1  12    3.44    1.14
  -3  -1 -12    2.31    0.94
  -3  -1 -12    3.11    2.11
   3  -1  12    2.11    1.80
  -3  -1 -12    3.87    0.67
  -3  -1 -12    9.94    4.14
  -3   1 -12    5.45    2.91
   3   1  12    2.19    2.74
  -3   1 -12    4.06    1.28
  -3   1 -12    1.44    2.64
   4  -1  12    8.10    1.49
  -4  -1 -12   15.98    3.21
  -4  -1 -12   10.62    1.07
  -4  -1 -12   10.30    1.50
  -4   1 -12    9.76    1.39
  -4   1 -12    7.30    1.58
  -5  -1 -12    2.04    0.81
  -5  -1 -12    2.96    2.61
  -5  -1 -12    0.99    0.58
   5  -1  12    1.34    1.70
  -5   1 -12    3.82    1.95
  -5   1 -12    1.72    1.57
  -5   1 -12    0.38    2.83
  -9  -2  12    1.61    0.77
  -9  -2  12    0.99    0.57
   9  -2 -12    1.89    0.78
   9   2 -12   -1.88    1.91
  -8  -2  12    4.23    0.91
  -8  -2  12    2.07    0.74
   8  -2 -12    3.24    0.97
  -8  -2  12    0.98    0.50
   8  -2 -12    1.11    2.90
   8   2 -12    2.29    1.89
  -8   2  12    2.15    2.10
   7  -2 -12   12.07    1.83
  -7  -2  12    9.86    1.50
  -7  -2  12   10.31    1.10
  -7  -2  12   10.02    1.57
   7  -2 -12    8.73    2.65
   6  -2 -12   30.55    2.59
   6  -2 -12   26.40    3.07
  -6  -2  12   29.73    2.19
  -6  -2  12   31.46    2.57
  -6   2  12   28.81    2.62
   6   2 -12   27.02    3.55
  -6   2  12   22.35    3.00
  -5  -2  12    7.33    0.99
   5  -2 -12    6.26    1.22
   5  -2 -12    6.03    1.47
  -5  -2  12    3.92    1.60
  -5  -2  12    5.21    1.07
  -5  -2  12    3.34    2.31
   5   2 -12    7.33    2.39
  -5   2  12    5.92    1.10
   4  -2 -12    1.47    1.59
   4  -2 -12    3.26    1.29
  -4  -2  12    2.95    1.41
  -4  -2  12    2.54    1.38
  -4  -2  12    4.11    1.59
   4   2 -12    1.85    3.99
   4   2 -12    4.06    1.90
   3  -2 -12   -3.64    2.51
   3  -2 -12   -0.05    1.17
  -3  -2  12    0.56    1.78
  -3  -2  12   -0.13    0.97
  -3  -2  12   -0.90    1.23
   3  -2 -12    0.61    1.62
   3  -2 -12    0.29    0.92
   3   2 -12    1.26    2.16
   3   2 -12   -0.67    1.70
  -3   2  12   -0.67    1.08
   3   2 -12    0.24    3.43
   2  -2 -12   16.43    1.79
   2  -2 -12   18.06    2.11
   2  -2 -12   14.67    2.42
  -2  -2  12   11.69    1.92
  -2  -2  12   17.01    2.38
  -2  -2  12   16.50    2.22
   2   2 -12   21.16    3.39
  -2   2  12   16.22    1.94
   2   2 -12    9.69    3.12
  -1  -2  12   33.12    3.15
   1  -2 -12   32.40    2.59
  -1  -2  12   34.95    2.79
  -1  -2  12   32.54    3.00
   1  -2 -12   34.68    3.11
   1   2 -12   28.87    3.66
   1   2 -12   29.02    3.70
   1   2 -12   30.89    4.50
  -1   2  12   29.50    2.83
   0  -2 -12   22.94    3.39
   0  -2  12   16.85    2.41
   0  -2 -12   18.46    2.35
   0  -2 -12   17.94    2.12
   0  -2  12   19.39    2.27
   0  -2  12   15.59    2.92
   0   2 -12   23.83    4.94
   1  -2  12   11.35    2.30
  -1  -2 -12   11.67    2.05
  -1  -2 -12    9.71    1.31
  -1  -2 -12   13.02    1.95
   1  -2  12   10.79    1.68
  -1   2 -12    9.42    2.05
  -1   2 -12    9.84    1.60
  -1   2 -12    7.63    2.53
  -1   2 -12    9.08    3.68
  -2  -2 -12    6.47    1.08
  -2  -2 -12    6.11    0.79
   2  -2  12    7.15    1.15
  -2  -2 -12    4.64    5.54
   2  -2  12    9.98    1.99
  -2  -2 -12    7.65    1.69
  -2   2 -12    6.32    1.51
  -2   2 -12    3.10    2.71
   3  -2  12   19.12    1.80
  -3  -2 -12   23.05    2.03
  -3  -2 -12   23.24    2.80
  -3  -2 -12   18.79    1.59
  -3  -2 -12   21.83    4.47
  -3   2 -12   17.72    4.05
  -3   2 -12   19.85    2.72
   3   2  12   19.45    1.91
  -4  -2 -12    1.47    0.89
  -4  -2 -12    0.77    0.48
  -4  -2 -12    3.21    2.34
   4  -2  12    2.31    0.83
  -4  -2 -12    6.43    3.60
   4   2  12    3.54    0.85
  -4   2 -12    1.73    2.24
  -4   2 -12    1.71    1.11
  -8  -3  12    1.14    0.48
  -8  -3  12    3.24    0.80
   8  -3 -12    3.27    1.18
   8   3 -12    0.70    1.38
  -8   3  12   -0.96    1.58
  -7  -3  12   11.10    1.06
  -7  -3  12   13.19    1.22
   7  -3 -12   10.66    1.74
  -7  -3  12   11.44    1.49
   7  -3 -12    9.69    2.61
  -7   3  12   17.94    2.54
  -6  -3  12    5.37    1.88
   6  -3 -12    6.66    1.45
   6  -3 -12    9.81    2.07
  -6   3  12    4.88    1.66
   6   3 -12    6.79    1.85
  -5  -3  12    5.92    0.81
  -5  -3  12    3.99    1.83
   5  -3 -12    5.53    1.83
  -5  -3  12    8.34    1.43
  -5  -3  12    3.56    1.98
   5  -3 -12    5.67    1.34
   5   3 -12    5.84    2.82
  -4  -3  12    1.47    0.53
  -4  -3  12   -0.18    1.36
   4  -3 -12    1.55    1.56
  -4  -3  12    1.53    0.89
   4  -3 -12   -1.35    0.94
   4  -3 -12    2.81    1.70
  -4  -3  12    3.48    1.64
   4   3 -12    0.83    2.37
  -4   3  12    0.94    0.72
   3  -3 -12    1.24    1.50
   3  -3 -12    0.48    0.96
   3  -3 -12   -0.16    1.29
  -3  -3  12    1.59    1.28
  -3  -3  12    1.94    0.92
  -3  -3  12    1.77    1.64
  -3   3  12    0.50    0.80
   3   3 -12    0.54    2.32
   3   3 -12    1.98    3.50
   2  -3 -12    2.15    0.93
   2  -3 -12    3.20    1.57
   2  -3 -12    2.92    2.95
  -2  -3  12    0.29    1.38
  -2  -3  12    1.71    1.35
  -2  -3  12    0.80    0.80
   2   3 -12    0.77    2.57
  -2   3  12    0.17    0.73
  -2   3  12   -3.18    2.92
   2   3 -12    0.29    2.93
   1  -3 -12   14.57    2.46
  -1  -3  12    6.98    1.71
  -1  -3  12   10.37    1.59
  -1  -3  12   14.53    2.27
   1  -3 -12    9.38    1.46
  -1   3  12    8.37    1.54
  -1   3  12   11.89    4.21
   1   3 -12   11.85    3.12
   1   3 -12   11.69    3.15
   0  -3  12    0.48    1.68
   0  -3  12    1.02    1.65
   0  -3 -12    2.57    2.41
   0  -3  12    1.01    0.83
   0  -3 -12    1.86    0.81
   0   3 -12   -0.44    1.31
   0   3  12    0.55    0.77
   0   3 -12   -1.90    3.17
  -1  -3 -12    5.12    0.86
  -1  -3 -12    5.47    2.06
   1  -3  12    6.25    2.02
   1  -3  12   10.09    2.43
   1   3  12    4.02    0.89
  -1   3 -12    5.30    3.01
  -1   3 -12    6.29    1.19
   2  -3  12    3.19    0.80
  -2  -3 -12    6.40    1.65
  -2  -3 -12    2.99    1.38
  -2  -3 -12    2.51    0.64
  -2   3 -12    0.11    2.76
   2   3  12    1.88    0.73
  -2   3 -12    2.55    1.10
  -3  -3 -12    3.06    1.77
  -3  -3 -12    3.63    0.60
  -3  -3 -12    5.75    1.21
  -3   3 -12    4.52    1.02
   3   3  12    3.22    0.83
  -3   3 -12    3.38    2.42
  -6  -4  12   20.44    1.62
  -6  -4  12   22.88    1.91
   6   4 -12   22.58    3.02
  -6   4  12   24.51    1.84
  -5  -4  12    0.48    0.40
   5  -4 -12   -2.81    2.38
  -5  -4  12   -0.28    2.25
  -5  -4  12   -0.19    0.71
  -5   4  12    0.14    0.56
   5   4 -12    0.07    2.17
  -4  -4  12    5.23    0.76
  -4  -4  12    4.43    0.85
   4  -4 -12    0.07    2.70
  -4   4  12    6.21    1.02
   4   4 -12    8.31    2.46
  -3  -4  12    0.13    0.49
   3  -4 -12   -0.62    0.95
  -3  -4  12    0.81    0.79
   3  -4 -12    2.18    2.12
  -3  -4  12    1.17    1.64
  -3   4  12    0.08    0.61
   3   4 -12    0.79    2.62
  -3   4  12   -0.32    2.25
   2  -4 -12    0.92    1.07
  -2  -4  12    2.38    0.83
   2  -4 -12    3.19    2.15
  -2  -4  12    1.33    1.52
  -2   4  12   -1.05    2.51
  -2   4  12    1.44    0.60
   2   4 -12   -1.35    2.71
   1  -4 -12    3.47    2.24
  -1  -4  12    3.30    0.83
  -1  -4  12    2.61    1.67
   1  -4 -12    2.68    0.98
   1   4 -12    2.33    2.66
  -1   4  12    1.64    0.56
   0  -4  12    2.10    0.76
   0  -4  12    3.18    1.90
   0  -4 -12    1.62    0.91
   0  -4 -12    3.66    2.47
   0   4 -12    2.09    2.80
   0   4  12    3.09    0.68
  -1  -4 -12    1.21    0.74
   1  -4  12    2.08    0.74
   1   4  12    1.86    0.71
  -2  -4 -12    0.95    0.58
   2  -4  12    0.49    0.57
   2   4  12    2.53    0.72
  -2   4 -12   -0.35    2.81
   9   0 -13   16.20    1.63
  -9   0  13   13.89    1.71
   8   0 -13    6.79    3.89
  -7   0  13    8.70    1.81
   7   0 -13    3.34    3.66
  -7   0  13    9.70    2.15
   6   0 -13    4.48    2.22
  -6   0  13    3.03    1.49
   6   0 -13    2.29    1.19
   5   0 -13    4.05    3.36
   5   0 -13    4.01    5.17
  -4   0  13    2.14    1.47
   4   0 -13    0.10    2.18
   4   0 -13    1.46    1.92
   3   0 -13    8.84    1.50
   3   0 -13    9.83    1.46
   3   0 -13    9.07    1.89
  -3   0  13   12.93    1.99
   2   0 -13    6.54    0.96
   2   0 -13    7.82    1.75
  -2   0  13    4.58    1.67
   2   0 -13    5.45    1.35
   2   0 -13    7.57    1.94
   1   0 -13    6.85    1.79
   1   0 -13    6.56    0.95
  -1   0  13    5.62    2.06
   1   0 -13   10.28    1.54
  -1   0  13    8.34    1.84
   0   0 -13   33.86    4.95
   0   0  13   29.30    3.64
   0   0 -13   27.78    3.44
   0   0 -13   20.10    3.08
   0   0  13   25.72    4.02
  -1   0 -13   46.95    3.83
  -1   0 -13   50.73    3.52
  -1   0 -13   40.67    6.93
  -2   0 -13   26.87    3.97
  -2   0 -13   24.45    2.01
   2   0  13   17.48    3.70
  -2   0 -13   22.88    2.36
  -3   0 -13    1.20    1.58
  -3   0 -13    2.23    2.73
  -3   0 -13    0.66    0.89
  -3   0 -13    2.44    0.62
  -4   0 -13    2.00    2.36
  -4   0 -13    4.78    0.97
  -4   0 -13    4.80    1.83
   9  -1 -13    1.78    0.75
  -9  -1  13    1.14    1.01
  -9  -1  13    1.23    0.79
   9   1 -13   -4.43    3.41
  -8  -1  13    4.04    0.92
  -8   1  13    8.36    2.74
   8   1 -13    3.05    2.28
   8   1 -13    5.17    1.31
   7  -1 -13   -0.79    4.33
  -7  -1  13    0.88    1.16
  -7  -1  13    1.01    0.96
   7  -1 -13    1.15    0.91
   7   1 -13    0.31    1.42
   7   1 -13   -1.22    3.16
   6  -1 -13   31.21    4.37
  -6  -1  13   37.08    3.29
   6  -1 -13   39.41    3.17
  -6  -1  13   41.20    3.23
   6  -1 -13   35.41    4.03
   6   1 -13   36.29    3.99
   6   1 -13   37.04    3.34
   5  -1 -13    0.88    2.33
   5  -1 -13    2.21    1.67
  -5  -1  13    0.63    1.43
  -5  -1  13    2.11    1.17
   5  -1 -13    2.63    1.11
   5   1 -13    2.69    1.30
   5   1 -13    2.50    2.00
   4  -1 -13    4.59    1.54
  -4  -1  13    9.28    2.08
   4  -1 -13    7.88    3.12
  -4  -1  13    3.43    1.05
   4  -1 -13    5.58    1.20
   4   1 -13    8.18    2.07
  -4   1  13    4.88    1.65
   3  -1 -13   26.99    2.76
   3  -1 -13   28.54    2.70
  -3  -1  13   23.62    3.07
   3  -1 -13   25.89    2.22
  -3  -1  13   25.50    2.21
  -3  -1  13   27.73    2.65
   3  -1 -13   25.79    3.65
  -3   1  13   22.15    2.57
   3   1 -13   27.61    3.45
   2  -1 -13    1.96    0.81
   2  -1 -13    4.00    2.23
   2  -1 -13    4.55    1.43
   2  -1 -13    4.32    1.38
  -2  -1  13    1.68    1.46
  -2  -1  13    1.75    1.18
  -2  -1  13    2.04    0.90
   2   1 -13    4.37    3.40
   2   1 -13    2.63    1.51
   2   1 -13    5.56    1.95
   1  -1 -13   33.58    2.56
   1  -1 -13   35.45    3.07
  -1  -1  13   26.11    3.02
   1  -1 -13   32.15    3.08
  -1  -1  13   32.49    3.13
   1   1 -13   31.55    4.30
   1   1 -13   31.75    3.35
   0  -1  13   19.58    2.22
   0  -1  13   15.86    2.77
   0  -1 -13   14.55    2.10
   0  -1 -13   16.25    1.60
   0   1 -13   18.47    3.13
   0   1 -13   19.68    4.50
   0   1 -13   17.43    2.38
  -1  -1 -13    9.43    4.45
  -1  -1 -13    6.64    1.24
   1  -1  13    7.86    1.30
  -1  -1 -13    6.16    1.06
  -1   1 -13    8.83    1.91
  -1   1 -13    6.35    1.54
  -1   1 -13   10.28    3.05
  -2  -1 -13    2.74    0.61
   2  -1  13    3.09    1.22
  -2  -1 -13    3.29    3.53
   2  -1  13    4.84    1.97
  -2  -1 -13    4.20    1.07
  -2   1 -13    1.52    1.67
  -2   1 -13    5.19    1.64
  -2   1 -13   -0.17    2.55
  -3  -1 -13    0.39    0.50
   3  -1  13    1.23    0.87
  -3  -1 -13    0.78    0.82
  -3  -1 -13    1.06    3.08
  -3   1 -13   -1.81    1.72
  -3   1 -13    0.18    1.09
  -3   1 -13   -0.02    2.42
  -4  -1 -13    5.50    3.08
   4  -1  13    0.44    1.32
  -4  -1 -13    1.01    0.51
  -4  -1 -13    0.66    0.78
  -4   1 -13    1.50    2.88
  -4   1 -13    1.14    1.04
  -9  -2  13    1.41    0.84
  -9  -2  13    0.71    0.82
   9  -2 -13   -0.04    0.69
   9   2 -13   -3.37    2.19
   8  -2 -13    2.79    0.91
  -8  -2  13    4.99    0.88
   8   2 -13    3.56    1.81
  -8   2  13    2.78    1.80
   7  -2 -13   -2.65    2.48
  -7  -2  13    2.78    0.74
   7  -2 -13    0.88    0.90
   7   2 -13    1.22    1.89
  -7   2  13   -1.87    1.58
  -6  -2  13    8.45    1.01
   6  -2 -13    5.42    2.07
  -6  -2  13    6.50    1.14
   6   2 -13    5.53    2.14
  -6   2  13    5.98    1.28
   5  -2 -13    7.37    1.75
  -5  -2  13    4.07    2.41
  -5  -2  13    6.87    1.10
   5  -2 -13    8.34    1.23
  -5  -2  13    6.25    1.14
   5   2 -13    4.06    2.11
  -5   2  13    5.86    1.04
   4  -2 -13    6.35    2.38
   4  -2 -13    4.67    0.99
  -4  -2  13    3.17    1.67
   4  -2 -13    5.96    1.53
  -4  -2  13    7.14    1.08
   4  -2 -13    5.71    1.23
  -4  -2  13    7.77    1.22
  -4   2  13    5.82    1.02
   4   2 -13    2.13    1.95
   4   2 -13    5.86    2.20
  -3  -2  13    1.95    1.05
  -3  -2  13    2.29    1.55
   3  -2 -13    2.97    1.40
  -3  -2  13    1.52    0.68
   3  -2 -13    2.23    2.30
   3  -2 -13    0.60    0.86
   3   2 -13    0.94    1.96
   3   2 -13    3.01    5.49
   3   2 -13    1.37    1.73
  -3   2  13    1.44    0.87
  -2  -2  13   57.11    4.25
   2  -2 -13   66.07    5.01
   2  -2 -13   58.99    4.43
   2  -2 -13   53.45    4.03
   2  -2 -13   53.53    4.43
   2   2 -13   43.88    8.17
   2   2 -13   57.05    4.70
  -2   2  13   50.94    4.14
   2   2 -13   57.84    5.11
  -1  -2  13   41.34    3.29
  -1  -2  13   42.43    3.74
   1  -2 -13   42.00    3.47
   1  -2 -13   39.10    3.06
  -1   2  13   39.31    3.28
   1   2 -13   42.69    4.21
   1   2 -13   44.48    5.41
   0  -2  13   11.18    1.94
   0  -2 -13    9.63    1.18
   0   2 -13    9.81    2.23
   0   2 -13    8.74    2.95
   0   2 -13   10.33    1.83
   0   2  13    7.97    1.43
   1  -2  13    1.54    0.89
   1  -2  13    1.52    1.76
  -1  -2 -13    0.24    0.54
  -1  -2 -13    4.13    1.45
  -1   2 -13   -1.88    1.80
  -1   2 -13    2.00    2.10
   1   2  13    0.92    1.18
  -1   2 -13    3.60    2.68
   2  -2  13    9.85    4.00
   2  -2  13    5.82    0.88
  -2  -2 -13    7.37    1.82
  -2  -2 -13    7.57    0.90
  -2   2 -13    6.74    1.84
   2   2  13    4.01    1.04
  -2   2 -13    5.70    2.51
   3  -2  13   -0.57    0.67
  -3  -2 -13   -0.79    0.45
  -3  -2 -13    0.29    0.86
   3   2  13   -0.08    0.68
  -3   2 -13    3.19    2.35
  -3   2 -13    0.22    1.24
  -4  -2 -13    1.51    0.46
   4  -2  13    0.74    0.71
   4   2  13    0.36    0.81
  -4   2 -13    0.39    2.28
  -4   2 -13    0.54    1.29
  -7  -3  13    0.98    0.40
   7  -3 -13    1.80    0.95
  -7  -3  13    1.78    0.74
  -7  -3  13    0.97    0.70
   7   3 -13   -2.43    1.51
  -6  -3  13    0.02    0.41
   6  -3 -13   -0.32    2.33
  -6  -3  13   -0.23    0.87
   6  -3 -13   -1.12    1.06
   6   3 -13   -2.54    1.51
  -6   3  13    0.07    0.72
   5  -3 -13    3.17    1.99
  -5  -3  13    1.05    0.40
  -5  -3  13    2.35    0.75
  -5  -3  13   -1.94    2.39
   5  -3 -13    1.21    1.20
   5   3 -13   -0.64    1.60
  -5   3  13   -0.17    0.73
  -4  -3  13    7.44    2.32
  -4  -3  13    4.81    1.00
   4  -3 -13    7.69    2.44
   4  -3 -13    6.29    0.97
   4  -3 -13    8.77    1.36
  -4  -3  13    2.09    1.81
   4   3 -13    7.32    2.22
  -4   3  13    7.51    1.14
  -4   3  13    5.10    1.65
   3  -3 -13   -0.45    1.42
   3  -3 -13   -0.48    1.67
  -3  -3  13    1.54    2.09
  -3  -3  13    0.39    0.86
   3  -3 -13    1.11    0.92
  -3  -3  13   -2.77    1.92
  -3  -3  13    1.21    0.46
   3   3 -13    2.16    3.21
   3   3 -13    3.12    2.27
   2  -3 -13    7.15    0.96
  -2  -3  13    5.14    1.00
  -2  -3  13    5.26    2.02
  -2  -3  13    5.25    1.89
   2  -3 -13    7.61    1.91
  -2   3  13    4.12    0.80
  -2   3  13    6.36    2.74
   2   3 -13    2.78    2.95
  -1  -3  13    5.29    1.36
  -1  -3  13    2.40    1.88
  -1  -3  13    2.18    1.99
   1  -3 -13    2.58    0.83
   1  -3 -13    2.99    2.13
   1   3 -13    3.78    2.87
   1   3 -13    7.84    2.17
  -1   3  13    2.40    0.72
   0  -3 -13    7.13    1.89
   0  -3  13    2.83    0.75
   0  -3 -13    3.09    0.74
   0   3  13    3.73    0.71
   0   3 -13    3.54    2.69
   1  -3  13   18.83    1.66
  -1  -3 -13   16.61    1.47
   1   3  13   14.12    1.62
  -1   3 -13   19.29    3.58
   2  -3  13    0.60    0.61
  -2  -3 -13    0.61    0.53
  -2  -3 -13    2.34    1.40
  -2   3 -13    1.28    2.75
  -2   3 -13    0.95    0.86
   2   3  13    2.18    0.73
  -3  -3 -13    1.04    1.16
   3  -3  13   -0.24    0.58
  -3   3 -13    3.22    2.42
   3   3  13   -0.16    0.73
  -5  -4  13    0.76    0.34
  -5  -4  13   -0.48    0.58
  -5   4  13   -0.72    1.36
  -5   4  13   -0.12    0.53
   5   4 -13    4.43    2.78
  -4  -4  13    0.57    0.65
  -4  -4  13    1.07    0.33
  -4   4  13    1.36    0.57
  -4   4  13   -1.90    1.83
   4   4 -13    6.25    3.18
   3  -4 -13    9.98    4.85
  -3  -4  13    9.00    0.82
  -3  -4  13    8.55    1.25
  -3   4  13    8.57    1.10
   2  -4 -13    1.78    0.87
  -2  -4  13    3.23    0.78
   2  -4 -13   -2.79    4.54
  -2   4  13    3.31    0.62
   1  -4 -13    0.70    0.86
  -1  -4  13    2.33    0.76
   1   4 -13    3.44    3.90
  -1   4  13    2.78    0.58
   0  -4 -13    0.71    0.77
   0  -4  13   -0.39    0.62
   0   4 -13    0.02    2.21
   0   4  13   -0.46    0.60
   9   0 -14    9.16    1.51
   8   0 -14   11.30    4.56
  -8   0  14   11.05    3.30
   7   0 -14    3.50    0.90
   7   0 -14    5.04    2.76
   6   0 -14    9.27    2.47
   6   0 -14    7.42    1.22
   5   0 -14    8.38    1.41
  -5   0  14    4.46    1.76
   5   0 -14    7.27    2.08
  -4   0  14    0.66    1.62
   4   0 -14    4.11    2.31
   3   0 -14    2.38    2.94
  -3   0  14    2.26    1.66
   3   0 -14    5.64    2.05
   2   0 -14    1.71    1.98
  -2   0  14   -0.04    1.65
   2   0 -14   -3.05    2.92
   2   0 -14    0.91    0.91
   2   0 -14    0.79    1.27
   1   0 -14    1.81    1.27
  -1   0  14    0.62    2.26
   1   0 -14    2.85    0.99
   1   0 -14    5.07    2.03
   0   0 -14    1.19    1.73
   0   0 -14    0.28    4.18
   0   0 -14    2.55    1.27
   0   0 -14    3.00    0.89
   1   0  14    4.49    4.69
  -1   0 -14    8.88    1.59
  -1   0 -14   10.01    1.34
  -1   0 -14    9.72    3.61
  -2   0 -14    1.55    1.57
  -2   0 -14    1.09    0.86
  -2   0 -14   -2.36    2.66
  -2   0 -14    1.05    0.63
  -3   0 -14   -0.63    4.61
  -3   0 -14    2.48    1.50
  -3   0 -14    1.49    0.89
  -4   0 -14    7.19    1.38
  -4   0 -14   12.10    2.91
   9  -1 -14    5.99    1.05
  -9  -1  14    3.58    0.99
   9   1 -14   -1.95    3.01
  -8  -1  14   19.94    1.98
  -8  -1  14   24.06    1.88
   8  -1 -14   23.31    1.99
  -8   1  14   19.04    3.95
   8   1 -14   18.20    2.12
  -7  -1  14    8.30    1.37
   7  -1 -14    9.48    1.62
  -7  -1  14   10.43    1.52
   7   1 -14   11.51    1.70
   7   1 -14    8.96    2.13
   6  -1 -14    6.62    1.19
  -6  -1  14    5.20    1.03
   6  -1 -14    0.81    3.95
   6  -1 -14    4.94    3.03
   6   1 -14    6.76    2.31
   5  -1 -14    0.94    2.17
   5  -1 -14    3.39    2.21
   5  -1 -14    2.66    0.99
  -5  -1  14    1.86    1.28
   5   1 -14    2.51    2.10
   5   1 -14    2.56    1.34
   4  -1 -14    7.90    2.26
   4  -1 -14    9.32    2.11
  -4  -1  14   12.03    2.12
   4   1 -14   10.54    1.65
  -4   1  14   10.29    1.83
   4   1 -14   13.02    2.62
   3  -1 -14   81.07    5.85
   3  -1 -14   68.38    5.43
   3  -1 -14   66.11    4.83
  -3  -1  14   61.60    5.19
   3  -1 -14   67.78    5.09
  -3   1  14   59.62    4.99
   3   1 -14   76.35    5.66
   2  -1 -14   33.29    2.99
   2  -1 -14   38.41    3.46
  -2  -1  14   28.41    2.98
  -2  -1  14   30.51    3.64
   2  -1 -14   32.16    2.55
   2   1 -14   34.50    3.81
  -1  -1  14    7.29    2.06
  -1  -1  14    5.12    1.28
   1  -1 -14    7.74    1.33
   1  -1 -14    5.35    1.90
   1  -1 -14    6.86    1.18
   1   1 -14    7.95    1.62
   1   1 -14   11.19    2.02
   1   1 -14    4.19    4.36
   0  -1 -14   19.17    2.08
   0  -1 -14   17.15    1.55
   0  -1 -14   15.99    2.40
   0  -1  14   19.22    2.92
   0  -1  14   18.33    2.16
   0   1 -14   14.13    3.61
   0   1 -14   19.80    2.44
   0   1 -14   15.01    3.16
  -1  -1 -14    4.23    1.35
  -1  -1 -14    6.37    0.89
  -1  -1 -14    9.56    4.41
   1  -1  14    7.32    2.32
   1  -1  14    5.63    1.11
  -1   1 -14    9.03    1.55
  -1   1 -14    5.15    3.05
  -2  -1 -14    2.82    3.62
  -2  -1 -14    4.52    1.02
  -2  -1 -14    3.90    4.07
   2  -1  14    5.37    1.06
  -2  -1 -14    4.44    0.81
  -2   1 -14    2.53    1.15
  -2   1 -14    0.80    1.70
  -2   1 -14    9.29    2.85
  -3  -1 -14    1.81    0.85
  -3  -1 -14    2.07    3.12
  -3  -1 -14    0.55    1.45
  -3   1 -14   -0.80    2.40
  -3   1 -14    1.31    1.03
  -8  -2  14    0.66    0.78
  -8  -2  14    1.45    0.70
   8  -2 -14    0.65    0.80
  -8   2  14    0.21    1.76
   8   2 -14   -2.70    1.81
   7  -2 -14    9.45    1.53
   7  -2 -14    9.30    3.27
  -7  -2  14    9.47    1.18
  -7  -2  14    8.82    1.34
  -6  -2  14    8.21    0.99
  -6  -2  14   10.82    1.29
   6  -2 -14    5.24    2.52
   6  -2 -14    8.38    1.57
  -6  -2  14    9.04    1.34
   6   2 -14    4.93    1.81
   5  -2 -14    0.96    1.01
   5  -2 -14   -3.44    3.40
  -5  -2  14    0.81    0.82
  -5   2  14    1.19    0.92
  -5   2  14   -0.39    1.69
   4  -2 -14   16.26    2.45
   4  -2 -14   14.23    1.45
  -4  -2  14    8.64    2.66
   4  -2 -14   16.98    2.74
  -4  -2  14   13.01    1.44
  -4  -2  14   14.93    1.81
   4   2 -14   15.52    2.42
  -4   2  14   14.39    2.47
  -3  -2  14   17.96    2.98
  -3  -2  14   12.19    1.85
   3  -2 -14   14.06    1.52
   3  -2 -14   13.68    2.56
  -3  -2  14   12.79    1.39
   3   2 -14   17.23    3.55
   3   2 -14   13.81    5.54
  -3   2  14   13.40    1.55
  -2  -2  14   -0.24    1.48
  -2  -2  14    0.73    0.99
   2  -2 -14    3.04    2.00
   2  -2 -14    0.20    1.64
  -2  -2  14    0.64    0.67
   2  -2 -14    0.83    0.73
  -2   2  14    1.46    0.83
   2   2 -14    1.33    3.74
   2   2 -14    1.49    2.12
   1  -2 -14   10.53    1.25
  -1  -2  14   12.71    2.50
   1  -2 -14   14.07    2.56
  -1  -2  14   12.29    1.64
   1  -2 -14   13.08    2.38
  -1   2  14   10.78    1.55
   1   2 -14   11.01    3.25
   1   2 -14   11.45    3.44
   0  -2 -14    9.54    1.13
   0  -2  14    9.16    1.55
   0  -2 -14   13.33    2.77
   0  -2  14   10.82    2.57
   0  -2 -14   11.84    1.54
   0   2  14   10.97    1.58
   0   2 -14    9.85    1.79
   0   2 -14   14.00    3.09
   1  -2  14   15.51    1.64
  -1  -2 -14   12.59    1.89
  -1  -2 -14   15.94    1.29
  -1   2 -14   14.84    2.80
   1   2  14   13.01    1.43
   2  -2  14   19.48    1.69
  -2  -2 -14   18.18    1.90
  -2   2 -14   16.07    2.93
   2   2  14   15.83    1.62
  -3  -2 -14    1.05    0.46
  -3  -2 -14    1.63    0.85
   3  -2  14    2.65    0.86
  -3   2 -14   -1.11    2.11
   3   2  14    1.24    0.73
   7  -3 -14    3.52    1.02
  -7  -3  14    2.84    0.69
  -7  -3  14    3.26    0.81
   7   3 -14    0.86    1.46
  -6  -3  14    1.04    0.62
   6  -3 -14   -0.99    1.02
  -6  -3  14   -0.10    0.39
   6   3 -14   -0.58    1.51
   5  -3 -14    7.78    2.52
  -5  -3  14    6.63    0.70
   5  -3 -14    5.05    1.20
  -5  -3  14    7.02    1.26
  -5   3  14    4.80    0.83
   5   3 -14    4.47    1.74
   4  -3 -14    7.68    1.38
  -4  -3  14   10.57    1.40
   4  -3 -14   10.49    2.29
  -4  -3  14    8.69    0.82
   4   3 -14   10.26    2.07
  -4   3  14    5.73    2.30
  -4   3  14    8.43    1.21
   3  -3 -14    9.12    2.23
   3  -3 -14    6.93    1.11
   3  -3 -14    5.87    1.40
  -3  -3  14    7.16    0.79
   3   3 -14    9.54    1.92
  -3   3  14    4.01    1.61
   3   3 -14    2.46    3.03
   2  -3 -14    3.03    0.76
   2  -3 -14    1.34    2.12
   2  -3 -14    0.55    2.44
  -2  -3  14    1.17    0.80
  -2  -3  14    2.43    0.43
  -2   3  14    3.00    2.74
   2   3 -14    3.42    3.00
   2   3 -14    4.67    2.11
   1  -3 -14   12.79    1.36
  -1  -3  14   13.58    1.56
   1  -3 -14   17.38    3.11
  -1  -3  14   15.04    1.10
   1  -3 -14   12.31    2.39
   1   3 -14   17.47    3.48
  -1   3  14   12.07    1.40
   0  -3 -14    3.72    1.99
   0  -3 -14    3.61    2.21
   0  -3 -14    1.30    0.59
   0  -3 -14   -0.28    1.41
   0  -3  14    2.09    0.74
   0   3 -14    1.35    2.32
   0   3  14    0.97    0.51
  -1  -3 -14    5.72    0.88
  -1  -3 -14   10.48    1.68
   1  -3  14    7.26    1.08
  -1   3 -14    6.85    3.18
   1   3  14    6.97    1.09
  -3  -4  14    5.33    1.02
  -3  -4  14    6.47    0.69
  -3   4  14   11.74    3.15
  -3   4  14    5.26    0.91
  -2  -4  14   10.57    0.96
  -2  -4  14   10.90    1.21
   2  -4 -14    7.29    1.19
  -2   4  14   10.82    1.09
  -8   0  15   22.49    5.85
   7   0 -15    1.99    2.38
   7   0 -15    3.07    0.91
   6   0 -15    0.66    0.82
   6   0 -15    2.85    2.19
   5   0 -15   16.70    2.21
   4   0 -15   16.38    3.10
   4   0 -15   17.54    2.22
  -3   0  15   10.07    1.89
   3   0 -15    6.06    1.93
   2   0 -15   14.09    1.95
   1   0 -15   10.36    1.51
   1   0 -15    6.88    1.22
   0   0 -15    6.50    1.86
   0   0 -15    1.75    1.06
   0   0 -15    2.74    0.67
  -1   0 -15    5.89    4.78
  -1   0 -15    1.89    0.95
  -1   0 -15    3.65    1.91
  -2   0 -15    1.62    3.42
  -2   0 -15    0.45    1.47
  -2   0 -15   -0.22    0.90
  -3   0 -15    3.53    1.04
  -3   0 -15    0.65    1.91
  -3   0 -15    4.13    4.39
   8  -1 -15    9.00    1.21
  -8  -1  15    6.97    1.99
  -8   1  15    5.22    2.23
   8   1 -15    2.57    2.29
   8   1 -15    6.91    1.60
  -7  -1  15    2.32    0.92
   7  -1 -15    2.14    0.90
   7   1 -15    0.50    0.97
  -7   1  15   -0.39    1.67
   7   1 -15    1.07    1.91
   6  -1 -15    2.50    0.95
  -6  -1  15    3.58    0.95
   6  -1 -15    0.07    2.81
   6   1 -15    3.02    2.02
   6   1 -15    4.18    1.01
   5  -1 -15    2.60    0.99
   5  -1 -15    2.89    2.81
  -5  -1  15    3.86    0.95
   5  -1 -15    3.55    2.35
   5   1 -15    3.57    1.05
   5   1 -15    3.98    2.21
   4  -1 -15    1.75    5.26
   4  -1 -15    0.26    1.00
  -4  -1  15    0.69    1.30
   4   1 -15    2.93    1.35
   4   1 -15    2.90    2.40
  -4   1  15    2.07    1.05
  -3  -1  15    7.41    1.70
   3  -1 -15    4.36    0.81
   3  -1 -15    3.62    2.50
   3   1 -15    5.19    1.69
  -3   1  15    3.52    1.54
   3   1 -15    5.17    1.41
  -2  -1  15    4.72    1.62
   2  -1 -15    4.65    2.68
   2  -1 -15    4.91    0.81
   2  -1 -15    5.38    1.14
   2  -1 -15    7.07    1.88
   2   1 -15    7.42    1.89
  -2   1  15    8.01    1.52
   1  -1 -15   11.63    3.53
  -1  -1  15    5.10    1.13
   1  -1 -15    8.08    2.07
   1   1 -15    6.57    1.46
   1   1 -15    6.01    2.09
   1   1 -15    6.91    4.72
   0  -1 -15    0.01    1.00
   0  -1 -15   -2.89    2.69
   0  -1 -15    2.11    1.64
   0  -1 -15    0.53    0.53
   0  -1  15    2.04    0.96
   0   1 -15    0.42    1.04
   0   1 -15    0.51    3.29
   0   1 -15    0.29    1.61
  -1  -1 -15    3.38    0.66
  -1  -1 -15    4.81    1.48
   1  -1  15    1.16    1.05
  -1  -1 -15    3.80    1.04
  -1   1 -15    2.86    2.75
  -1   1 -15    4.21    1.11
  -1   1 -15    4.06    1.51
  -2  -1 -15    3.87    0.62
  -2  -1 -15    3.88    1.44
  -2  -1 -15    2.96    0.89
  -2   1 -15    6.78    2.44
  -2   1 -15    2.57    2.27
  -2   1 -15    4.59    1.19
  -7  -2  15    1.59    0.99
   7  -2 -15    2.04    0.84
  -7  -2  15    1.94    0.75
  -7   2  15   -0.46    1.46
   7   2 -15    1.02    1.64
  -6  -2  15   -0.71    0.81
  -6  -2  15    1.10    0.81
   6  -2 -15   -0.20    0.84
   6  -2 -15    5.80    3.15
   6   2 -15   -1.19    1.55
  -5  -2  15   12.47    1.63
  -5  -2  15   10.34    1.58
   5  -2 -15   14.66    1.69
   5  -2 -15   11.75    2.73
  -5   2  15   11.69    1.65
   5   2 -15   12.44    2.37
   4  -2 -15   26.23    2.37
  -4  -2  15   23.66    2.15
   4  -2 -15   28.17    3.56
   4  -2 -15   23.74    3.82
   4   2 -15   25.78    2.96
  -4   2  15   21.55    2.20
   3  -2 -15   15.04    1.48
  -3  -2  15   16.80    1.70
   3  -2 -15   15.73    2.44
   3  -2 -15   16.39    3.11
  -3   2  15   16.61    1.63
   3   2 -15   15.81    2.76
  -2  -2  15    0.74    0.80
   2  -2 -15    0.51    2.10
   2  -2 -15    2.13    0.68
   2  -2 -15    2.61    1.92
  -2   2  15    0.02    2.25
   2   2 -15    0.13    4.59
   2   2 -15    1.78    1.62
  -2   2  15    1.69    0.72
  -1  -2  15    8.64    1.54
   1  -2 -15    9.39    1.72
   1  -2 -15   11.03    2.48
   1  -2 -15    9.68    1.07
   1   2 -15    5.25    3.25
  -1   2  15    8.15    1.29
   0  -2 -15    1.03    0.55
   0  -2  15    1.68    0.81
   0  -2 -15   -0.46    2.44
   0  -2 -15    1.50    1.60
   0  -2 -15    1.86    0.99
   0   2  15    0.31    0.61
   0   2 -15    0.83    2.51
   0   2 -15    2.36    1.92
  -1  -2 -15   20.68    1.90
   1  -2  15   17.76    1.79
  -1  -2 -15   19.22    1.45
  -1   2 -15   17.18    3.76
   1   2  15   16.45    1.58
   2  -2  15    0.86    1.03
  -2  -2 -15    2.11    1.36
  -2  -2 -15    1.91    0.85
  -2  -2 -15    1.40    0.47
  -2   2 -15    2.11    2.60
   2   2  15    0.47    0.62
   6   3 -15    1.06    1.83
   5  -3 -15    2.56    1.17
  -5  -3  15    3.36    0.69
  -5  -3  15    1.81    0.68
   5   3 -15    0.37    1.68
  -5   3  15    3.31    0.87
  -4  -3  15    4.12    0.78
  -4  -3  15    6.09    1.07
   4  -3 -15    8.06    1.41
   4   3 -15    4.72    1.94
  -4   3  15    2.82    2.35
  -4   3  15    6.66    1.14
  -3  -3  15    1.26    0.40
  -3  -3  15    1.59    0.67
   3  -3 -15   -1.32    2.49
   3  -3 -15    1.37    1.09
  -3   3  15    0.56    0.54
   3   3 -15   -0.95    2.01
  -3   3  15    0.57    2.23
   2  -3 -15   14.54    2.56
   2  -3 -15   10.80    1.14
  -2  -3  15    8.62    0.96
   2  -3 -15   16.36    3.13
  -2  -3  15   11.13    1.28
   2   3 -15    6.95    3.10
  -2   3  15   10.44    1.20
  -1  -3  15    9.01    1.13
   1  -3 -15    6.72    2.69
   1  -3 -15    7.23    0.98
   1   3 -15    4.78    2.62
  -1   3  15    7.45    1.01
   0  -3 -15   14.73    1.26
   0  -3  15   16.20    1.43
   0  -3 -15   14.86    2.55
   0   3  15   13.98    1.34
   7   0 -16    0.08    2.88
   7   0 -16    1.03    0.84
   6   0 -16   35.83    3.70
   6   0 -16   37.44    2.86
   5   0 -16   21.11    1.93
   5   0 -16   19.41    2.99
   4   0 -16   17.36    2.89
   4   0 -16   14.03    1.73
  -3   0  16    8.41    1.42
   3   0 -16    5.71    1.81
  -2   0  16    8.95    1.61
   1   0 -16    0.65    1.38
   1   0 -16    1.54    0.88
   0   0 -16   10.45    2.07
   0   0 -16    9.60    1.36
  -1   0 -16    2.61    0.94
  -1   0 -16    4.00    1.62
   7  -1 -16   16.06    1.48
   7   1 -16   14.96    1.93
   7   1 -16   11.14    2.50
  -7   1  16    9.94    2.75
  -6  -1  16    1.07    1.00
   6  -1 -16    1.95    0.82
   6   1 -16    1.86    1.79
   6   1 -16    4.13    1.01
   5  -1 -16   27.03    3.37
   5  -1 -16   24.34    2.18
  -5  -1  16   19.80    2.15
   5   1 -16   22.75    2.90
   5   1 -16   23.71    2.14
   4  -1 -16    2.89    2.30
   4  -1 -16    3.24    0.99
  -4  -1  16    2.92    1.11
   4   1 -16    3.98    0.99
   4   1 -16    3.64    1.69
  -4   1  16    1.29    0.99
   3  -1 -16   15.09    2.79
  -3  -1  16    8.58    1.63
   3  -1 -16    7.68    3.43
  -3   1  16   11.17    1.59
   3   1 -16   10.16    1.56
  -2  -1  16    4.54    1.05
   2  -1 -16    7.71    3.44
   2  -1 -16    7.51    1.00
   2  -1 -16    9.54    2.19
  -2   1  16    5.04    0.94
   2   1 -16    7.26    1.43
   2   1 -16    5.27    1.03
  -1  -1  16    2.04    1.01
   1  -1 -16    0.31    0.93
   1  -1 -16    1.47    1.61
   1  -1 -16    0.78    0.61
  -1   1  16    0.98    0.74
   0  -1 -16    3.29    0.92
   0  -1 -16    2.34    0.58
   0  -1  16    2.19    1.88
   0   1  16    1.83    0.71
   0   1 -16    1.37    1.57
  -1  -1 -16    1.62    0.73
  -1  -1 -16    0.10    0.60
  -1   1 -16   -2.64    4.07
   1   1  16    0.00    0.55
  -6   2  16    3.08    1.64
   6   2 -16    1.94    1.46
  -5  -2  16    1.22    0.79
   5  -2 -16    2.81    0.86
   5   2 -16    0.14    1.46
  -5   2  16    3.26    1.25
   4  -2 -16    5.75    3.22
   4  -2 -16    5.07    3.59
  -4  -2  16   11.13    1.42
   4  -2 -16   14.82    1.64
  -4   2  16   11.59    1.49
   4   2 -16   11.44    1.98
   3  -2 -16   -0.34    1.83
  -3  -2  16    1.08    0.80
   3  -2 -16   -0.16    0.93
   3  -2 -16   -3.56    2.65
   3   2 -16    4.58    1.65
  -3   2  16    2.50    0.71
  -3   2  16    1.73    2.14
   2  -2 -16    2.80    0.58
   2  -2 -16   -2.13    2.89
  -2  -2  16    1.76    0.81
   2  -2 -16    3.36    1.60
   2   2 -16    2.83    1.69
  -2   2  16    2.59    0.66
   1  -2 -16   10.82    1.02
   1  -2 -16   13.02    2.19
  -1  -2  16    8.43    1.34
  -1   2  16    9.27    1.21
   1   2 -16    7.25    5.28
   1   2 -16   11.66    2.48
   0  -2 -16    9.97    1.42
   0  -2 -16   10.17    0.91
   0  -2  16    7.75    1.48
   0   2  16    8.53    1.06
   0   2 -16    7.39    2.37
   6   0 -17   -1.96    1.89
   5   0 -17   13.82    1.49
   5   0 -17   12.92    2.49
   4   0 -17   -0.61    0.73
   4   0 -17   -1.52    1.64
   3   0 -17    0.07    0.76
   3   0 -17    1.33    1.48
   2   0 -17    2.87    1.45
  -2   0  17    1.98    0.83
  -1   0  17    0.99    0.71
   1   0 -17    2.90    1.34
   0   0 -17    1.94    1.47
   0   0  17   -0.76    0.65
   6  -1 -17   -0.98    0.69
   6   1 -17    0.77    1.28
   6   1 -17    2.32    1.63
  -6   1  17   -1.26    1.32
   5  -1 -17    0.81    2.71
   5  -1 -17    2.03    0.81
   5   1 -17    1.23    1.48
   5   1 -17   -2.18    1.60
   4  -1 -17   16.05    2.76
   4  -1 -17   14.70    1.63
   4   1 -17   14.90    2.25
   4   1 -17   16.28    1.89
   3  -1 -17    1.84    1.53
   3  -1 -17    0.77    0.86
  -3   1  17    0.62    0.73
   3   1 -17    0.75    1.00
   3   1 -17    1.78    1.43
   2  -1 -17    3.87    1.51
   2   1 -17    4.08    1.38
  -2   1  17    3.10    0.70
   2   1 -17    2.68    1.05
   1  -1 -17    1.98    1.32
   1   1 -17    2.78    1.56
   1   1 -17    1.06    1.35
   4  -2 -17    5.48    1.03
  -4  -2  17    3.08    1.02
   4   2 -17    3.05    1.47
  -4   2  17    2.90    0.81
  -3  -2  17    0.92    0.89
   3  -2 -17    1.62    1.81
   3  -2 -17    2.46    0.90
  -3   2  17   -0.09    2.43
  -3   2  17    0.24    0.62
   3   2 -17    2.15    1.66
  -2  -2  17   -0.69    0.84
   2  -2 -17    0.00    1.54
   2  -2 -17   -0.83    0.92
  -2   2  17    0.12    0.51
   2   2 -17   -0.14    2.16
   4   0 -18   11.20    2.01
   3   0 -18   -0.64    0.96
   3   0 -18    0.20    1.32
   0   0   0    0.00    0.00
;
_shelx_hkl_checksum              62260
loop_
_space_group_symop_operation_xyz
'x, y, z'
'-x, y+1/2, -z'
loop_
_atom_site_label
_atom_site_type_symbol
_atom_site_fract_x
_atom_site_fract_y
_atom_site_fract_z
_atom_site_U_iso_or_equiv
_atom_site_adp_type
_atom_site_occupancy
_atom_site_site_symmetry_order
_atom_site_calc_flag
_atom_site_refinement_flags_posn
_atom_site_refinement_flags_adp
C1 C 0.3365(4) 0.4694(8) 0.0565(3) 0.0216(9) Uani 1 1 d . .
H1 H 0.291266 0.301023 0.054992 0.026 Uiso 1 1 calc R U
C2 C 0.2138(4) 0.6523(8) 0.0144(3) 0.0256(10) Uani 1 1 d . .
H2 H 0.155932 0.650671 -0.048962 0.031 Uiso 1 1 calc R U
C3 C 0.1951(4) 0.8161(9) 0.0754(3) 0.0279(11) Uani 1 1 d . .
H3 H 0.122848 0.945274 0.062187 0.034 Uiso 1 1 calc R U
C4 C 0.3041(4) 0.7666(9) 0.1671(3) 0.0247(10) Uani 1 1 d . .
C5 C 0.3924(4) 0.5565(8) 0.1561(3) 0.0212(9) Uani 1 1 d . .
C6 C 0.4982(4) 0.4422(8) 0.2278(3) 0.0200(9) Uani 1 1 d . .
C7 C 0.5868(4) 0.2233(8) 0.2131(3) 0.0202(9) Uani 1 1 d . .
H7A H 0.535340 0.148177 0.152165 0.024 Uiso 1 1 calc R U
H7B H 0.589786 0.097832 0.261343 0.024 Uiso 1 1 calc R U
C8 C 0.7468(4) 0.2892(8) 0.2163(3) 0.0186(9) Uani 1 1 d . .
C9 C 0.8607(4) 0.1203(8) 0.2558(3) 0.0226(9) Uani 1 1 d . .
H9 H 0.838964 -0.025113 0.284754 0.027 Uiso 1 1 calc R U
C10 C 1.0054(4) 0.1630(8) 0.2531(3) 0.0248(10) Uani 1 1 d . .
H10 H 1.081944 0.044775 0.278245 0.030 Uiso 1 1 calc R U
C11 C 1.0379(4) 0.3802(8) 0.2133(3) 0.0260(10) Uani 1 1 d . .
H11 H 1.137197 0.411237 0.211909 0.031 Uiso 1 1 calc R U
C12 C 0.9261(4) 0.5506(8) 0.1757(3) 0.0251(9) Uani 1 1 d . .
H12 H 0.948612 0.698668 0.148632 0.030 Uiso 1 1 calc R U
C13 C 0.7809(4) 0.5060(8) 0.1774(3) 0.0226(9) Uani 1 1 d . .
H13 H 0.704545 0.624218 0.151875 0.027 Uiso 1 1 calc R U
C14 C 0.6316(4) 0.4267(8) 0.3955(3) 0.0230(9) Uani 1 1 d . .
C15 C 0.5929(4) 0.2145(9) 0.4345(3) 0.0268(10) Uani 1 1 d . .
H15 H 0.499214 0.136837 0.406306 0.032 Uiso 1 1 calc R U
C16 C 0.6902(5) 0.1149(9) 0.5144(3) 0.0317(11) Uani 1 1 d . .
H16 H 0.663645 -0.030503 0.541187 0.038 Uiso 1 1 calc R U
C17 C 0.8270(5) 0.2299(9) 0.5548(3) 0.0339(11) Uani 1 1 d . .
H17 H 0.894567 0.162605 0.609455 0.041 Uiso 1 1 calc R U
C18 C 0.8651(5) 0.4412(10) 0.5160(3) 0.0333(11) Uani 1 1 d . .
H18 H 0.958336 0.519899 0.544359 0.040 Uiso 1 1 calc R U
C19 C 0.7686(4) 0.5392(9) 0.4361(3) 0.0288(10) Uani 1 1 d . .
H19 H 0.796073 0.683375 0.408989 0.035 Uiso 1 1 calc R U
N1 N 0.5307(4) 0.5376(7) 0.3144(2) 0.0248(8) Uani 1 1 d . .
O1 O 0.3158(3) 0.8858(6) 0.23972(19) 0.0278(7) Uani 1 1 d . .
O2 O 0.4454(3) 0.4608(6) 0.00732(18) 0.0272(7) Uani 1 1 d . .
H20 H 0.479(5) 0.600(9) 0.005(3) 0.041 Uiso 1 1 calc R U
H100 H 0.476(5) 0.674(9) 0.321(3) 0.028(12) Uiso 1 1 d . .
loop_
_atom_site_aniso_label
_atom_site_aniso_U_11
_atom_site_aniso_U_22
_atom_site_aniso_U_33
_atom_site_aniso_U_23
_atom_site_aniso_U_13
_atom_site_aniso_U_12
C1 0.0195(18) 0.022(2) 0.024(2) 0.0011(18) 0.0079(15) -0.0019(16)
C2 0.023(2) 0.027(3) 0.026(2) 0.0061(19) 0.0064(17) -0.0035(19)
C3 0.022(2) 0.030(3) 0.035(2) 0.012(2) 0.0133(18) 0.0043(18)
C4 0.0193(19) 0.029(3) 0.029(2) 0.006(2) 0.0119(17) 0.0001(18)
C5 0.0195(18) 0.020(2) 0.025(2) 0.0038(18) 0.0082(16) 0.0013(17)
C6 0.0211(18) 0.016(2) 0.025(2) 0.0040(17) 0.0102(16) -0.0009(16)
C7 0.0224(19) 0.019(2) 0.019(2) -0.0003(17) 0.0066(16) 0.0024(17)
C8 0.0200(18) 0.018(2) 0.0171(19) -0.0050(17) 0.0052(15) -0.0016(17)
C9 0.028(2) 0.022(3) 0.019(2) 0.0037(17) 0.0096(16) -0.0006(18)
C10 0.0208(19) 0.027(3) 0.025(2) -0.0018(18) 0.0045(17) 0.0036(18)
C11 0.023(2) 0.026(3) 0.030(2) -0.006(2) 0.0088(18) -0.0051(19)
C12 0.028(2) 0.021(3) 0.029(2) -0.0003(19) 0.0115(18) -0.0069(19)
C13 0.0267(19) 0.020(3) 0.021(2) 0.0001(17) 0.0079(16) 0.0042(18)
C14 0.029(2) 0.022(3) 0.019(2) -0.0004(18) 0.0096(17) 0.0010(19)
C15 0.028(2) 0.026(3) 0.027(2) -0.0008(19) 0.0089(18) -0.0015(19)
C16 0.040(2) 0.027(3) 0.030(2) 0.004(2) 0.015(2) 0.000(2)
C17 0.043(3) 0.036(3) 0.020(2) 0.005(2) 0.006(2) 0.007(2)
C18 0.034(2) 0.039(3) 0.023(2) 0.001(2) 0.0044(19) -0.007(2)
C19 0.032(2) 0.030(3) 0.024(2) -0.0009(19) 0.0073(18) -0.005(2)
N1 0.0258(17) 0.028(2) 0.0191(17) -0.0006(16) 0.0049(14) 0.0071(17)
O1 0.0260(14) 0.0273(19) 0.0333(17) 0.0007(14) 0.0138(13) 0.0026(13)
O2 0.0265(14) 0.034(2) 0.0239(14) -0.0008(15) 0.0113(12) -0.0008(14)
loop_
_atom_type_symbol
_atom_type_description
_atom_type_scat_dispersion_real
_atom_type_scat_dispersion_imag
_atom_type_scat_source
C C 0.0180 0.0096 'International Tables Vol C Tables 4.2.6.8 and 6.1.1.4'
H H 0.0000 0.0000 'International Tables Vol C Tables 4.2.6.8 and 6.1.1.4'
N N 0.0310 0.0189 'International Tables Vol C Tables 4.2.6.8 and 6.1.1.4'
O O 0.0490 0.0322 'International Tables Vol C Tables 4.2.6.8 and 6.1.1.4'
loop_
_geom_angle_atom_site_label_1
_geom_angle_atom_site_label_2
_geom_angle_atom_site_label_3
_geom_angle
O2 C1 C2 112.0(3)
O2 C1 C5 116.1(3)
C2 C1 C5 102.1(3)
O2 C1 H1 108.8
C2 C1 H1 108.8
C5 C1 H1 108.8
C3 C2 C1 112.7(4)
C3 C2 H2 123.6
C1 C2 H2 123.6
C2 C3 C4 109.5(4)
C2 C3 H3 125.2
C4 C3 H3 125.2
O1 C4 C5 127.2(4)
O1 C4 C3 125.9(4)
C5 C4 C3 106.9(4)
C6 C5 C4 124.3(4)
C6 C5 C1 126.7(4)
C4 C5 C1 108.7(3)
N1 C6 C5 119.5(4)
N1 C6 C7 118.0(3)
C5 C6 C7 122.4(4)
C6 C7 C8 113.1(3)
C6 C7 H7A 108.9
C8 C7 H7A 108.9
C6 C7 H7B 108.9
C8 C7 H7B 108.9
H7A C7 H7B 107.8
C13 C8 C9 119.3(4)
C13 C8 C7 122.0(3)
C9 C8 C7 118.6(4)
C10 C9 C8 120.5(4)
C10 C9 H9 119.8
C8 C9 H9 119.8
C9 C10 C11 119.6(4)
C9 C10 H10 120.2
C11 C10 H10 120.2
C12 C11 C10 120.1(4)
C12 C11 H11 120.0
C10 C11 H11 120.0
C11 C12 C13 120.2(4)
C11 C12 H12 119.9
C13 C12 H12 119.9
C12 C13 C8 120.3(4)
C12 C13 H13 119.9
C8 C13 H13 119.9
C15 C14 C19 119.9(4)
C15 C14 N1 121.3(4)
C19 C14 N1 118.8(4)
C14 C15 C16 120.3(4)
C14 C15 H15 119.9
C16 C15 H15 119.9
C15 C16 C17 119.3(4)
C15 C16 H16 120.3
C17 C16 H16 120.3
C18 C17 C16 120.2(4)
C18 C17 H17 119.9
C16 C17 H17 119.9
C17 C18 C19 120.4(4)
C17 C18 H18 119.8
C19 C18 H18 119.8
C18 C19 C14 119.8(4)
C18 C19 H19 120.1
C14 C19 H19 120.1
C6 N1 C14 124.6(4)
C6 N1 H100 116(3)
C14 N1 H100 119(3)
C1 O2 H20 109.5
loop_
_geom_bond_atom_site_label_1
_geom_bond_atom_site_label_2
_geom_bond_distance
C1 O2 1.430(4)
C1 C2 1.504(6)
C1 C5 1.515(5)
C1 H1 1.0000
C2 C3 1.326(6)
C2 H2 0.9500
C3 C4 1.481(6)
C3 H3 0.9500
C4 O1 1.249(5)
C4 C5 1.441(6)
C5 C6 1.377(5)
C6 N1 1.354(5)
C6 C7 1.498(6)
C7 C8 1.526(5)
C7 H7A 0.9900
C7 H7B 0.9900
C8 C13 1.389(6)
C8 C9 1.394(5)
C9 C10 1.386(5)
C9 H9 0.9500
C10 C11 1.392(6)
C10 H10 0.9500
C11 C12 1.382(6)
C11 H11 0.9500
C12 C13 1.387(5)
C12 H12 0.9500
C13 H13 0.9500
C14 C15 1.384(6)
C14 C19 1.386(6)
C14 N1 1.436(5)
C15 C16 1.386(6)
C15 H15 0.9500
C16 C17 1.390(6)
C16 H16 0.9500
C17 C18 1.377(7)
C17 H17 0.9500
C18 C19 1.379(6)
C18 H18 0.9500
C19 H19 0.9500
N1 H100 0.92(5)
O2 H20 0.82(5)
