#------------------------------------------------------------------------------
#$Date: 2019-02-27 01:01:26 +0200 (Wed, 27 Feb 2019) $
#$Revision: 213860 $
#$URL: file:///home/coder/svn-repositories/cod/cif/7/12/30/7123056.cif $
#------------------------------------------------------------------------------
#
# This file is available in the Crystallography Open Database (COD),
# http://www.crystallography.net/
#
# All data on this site have been placed in the public domain by the
# contributors.
#
data_7123056
loop_
_publ_author_name
'Yan, Chao'
'Qi, Xiujuan'
'Wang, Kangcai'
'Jin, Yunhe'
'Cheng, Guangbin'
'Liu, Tianlin'
'Yang, Hongwei'
'Zhang, Qinghua'
_publ_section_title
;
 Revisiting the Reactive Chemistry of FOX-7: Cyclization of FOX-7 Affords
 Fused-Ring Polynitro Compounds
;
_journal_name_full               'Chemical Communications'
_journal_paper_doi               10.1039/C8CC10178G
_journal_year                    2019
_chemical_formula_moiety         'C6 H8 N8 O8'
_chemical_formula_sum            'C6 H8 N8 O8'
_chemical_formula_weight         320.20
_space_group_crystal_system      triclinic
_space_group_IT_number           2
_space_group_name_Hall           '-P 1'
_space_group_name_H-M_alt        'P -1'
_symmetry_space_group_name_Hall  '-P 1'
_symmetry_space_group_name_H-M   'P -1'
_atom_sites_solution_hydrogens   geom
_atom_sites_solution_primary     dual
_audit_creation_date             2018-03-15
_audit_creation_method
;
Olex2 1.2-beta
(compiled 2016.07.08 svn.r3312 for OlexSys, GUI svn.r5203)
;
_audit_update_record
;
2018-12-19 deposited with the CCDC.    2019-02-18 downloaded from the CCDC.
;
_cell_angle_alpha                94.152(4)
_cell_angle_beta                 104.263(4)
_cell_angle_gamma                104.096(4)
_cell_formula_units_Z            2
_cell_length_a                   6.6754(11)
_cell_length_b                   8.1836(13)
_cell_length_c                   11.2567(17)
_cell_measurement_reflns_used    891
_cell_measurement_temperature    173
_cell_measurement_theta_max      22.537
_cell_measurement_theta_min      2.592
_cell_volume                     572.28(16)
_computing_cell_refinement       'SAINT v8.34A (Bruker, 2013)'
_computing_data_reduction        'SAINT v8.34A (Bruker, 2013)'
_computing_molecular_graphics    'Olex2 (Dolomanov et al., 2009)'
_computing_publication_material  'Olex2 (Dolomanov et al., 2009)'
_computing_structure_refinement  'ShelXL (Sheldrick, 2015)'
_computing_structure_solution    'ShelXT (Sheldrick, 2015)'
_diffrn_ambient_temperature      173
_diffrn_measured_fraction_theta_full 0.984
_diffrn_measured_fraction_theta_max 0.976
_diffrn_measurement_device_type  'CCD area detector'
_diffrn_measurement_method       'phi and omega scans'
_diffrn_radiation_monochromator  graphite
_diffrn_radiation_type           MoK\a
_diffrn_radiation_wavelength     0.71073
_diffrn_reflns_av_R_equivalents  0.0357
_diffrn_reflns_av_unetI/netI     0.0623
_diffrn_reflns_Laue_measured_fraction_full 0.984
_diffrn_reflns_Laue_measured_fraction_max 0.976
_diffrn_reflns_limit_h_max       8
_diffrn_reflns_limit_h_min       -8
_diffrn_reflns_limit_k_max       9
_diffrn_reflns_limit_k_min       -10
_diffrn_reflns_limit_l_max       14
_diffrn_reflns_limit_l_min       -14
_diffrn_reflns_number            5180
_diffrn_reflns_point_group_measured_fraction_full 0.984
_diffrn_reflns_point_group_measured_fraction_max 0.976
_diffrn_reflns_theta_full        25.242
_diffrn_reflns_theta_max         27.483
_diffrn_reflns_theta_min         1.885
_exptl_absorpt_coefficient_mu    0.172
_exptl_absorpt_correction_T_max  0.7455
_exptl_absorpt_correction_T_min  0.6742
_exptl_absorpt_correction_type   multi-scan
_exptl_absorpt_process_details
;
SADABS-2014/5 (Bruker,2014/5) was used for absorption correction.
wR2(int) was 0.0580 before and 0.0444 after correction.
The Ratio of minimum to maximum transmission is 0.9044.
The \l/2 correction factor is 0.00150.
;
_exptl_crystal_colour            'clear whiteish colourless'
_exptl_crystal_colour_lustre     clear
_exptl_crystal_colour_modifier   whiteish
_exptl_crystal_colour_primary    colourless
_exptl_crystal_density_diffrn    1.858
_exptl_crystal_description       block
_exptl_crystal_F_000             328
_exptl_crystal_size_max          0.22
_exptl_crystal_size_mid          0.18
_exptl_crystal_size_min          0.16
_refine_diff_density_max         0.558
_refine_diff_density_min         -0.549
_refine_diff_density_rms         0.101
_refine_ls_extinction_method     none
_refine_ls_goodness_of_fit_ref   1.067
_refine_ls_hydrogen_treatment    constr
_refine_ls_matrix_type           full
_refine_ls_number_parameters     199
_refine_ls_number_reflns         2558
_refine_ls_number_restraints     0
_refine_ls_restrained_S_all      1.067
_refine_ls_R_factor_all          0.0832
_refine_ls_R_factor_gt           0.0609
_refine_ls_shift/su_max          0.000
_refine_ls_shift/su_mean         0.000
_refine_ls_structure_factor_coef Fsqd
_refine_ls_weighting_details
'w=1/[\s^2^(Fo^2^)+(0.1009P)^2^+0.2197P] where P=(Fo^2^+2Fc^2^)/3'
_refine_ls_weighting_scheme      calc
_refine_ls_wR_factor_gt          0.1743
_refine_ls_wR_factor_ref         0.1935
_reflns_Friedel_coverage         0.000
_reflns_number_gt                1830
_reflns_number_total             2558
_reflns_threshold_expression     'I > 2\s(I)'
_cod_data_source_file            c8cc10178g3.cif
_cod_data_source_block           1
_cod_database_code               7123056
_shelx_space_group_comment
;
The symmetry employed for this shelxl refinement is uniquely defined
by the following loop, which should always be used as a source of
symmetry information in preference to the above space-group names.
They are only intended as comments.
;
_olex2_refinement_description
;
1. Fixed Uiso
 At 1.2 times of:
  All C(H,H) groups
2.a Secondary CH2 refined with riding coordinates:
 C3(H3A,H3B), C1(H1A,H1B), C6(H6A,H6B), C2(H2A,H2B)
;
_shelx_res_file
;
    1.res created by SHELXL-2014/7

TITL 1_a.res in P-1
REM Old TITL 1 in P-1
REM SHELXT solution in P-1
REM R1 0.157, Rweak 0.012, Alpha 0.031, Orientation as input
REM Formula found by SHELXT: C16 N2 O4
CELL 0.71073 6.6754 8.1836 11.2567 94.152 104.263 104.096
ZERR 2 0.0011 0.0013 0.0017 0.004 0.004 0.004
LATT 1
SFAC C H N O
UNIT 12 16 16 16

L.S. 20
PLAN  20
TEMP -100.15
BOND $H
list 4
fmap 2
ACTA
REM <olex2.extras>
REM <HklSrc "%.\\1.hkl">
REM </olex2.extras>

WGHT    0.100900    0.219700
FVAR       1.17280
O2    4   -0.049513    0.686288    0.138544    11.00000    0.02480    0.04448 =
         0.03627    0.00898    0.01119    0.01459
O1    4    0.088187    0.678592   -0.016543    11.00000    0.04075    0.03272 =
         0.01665    0.00504    0.00414    0.00998
O6    4    0.614754    0.338942    0.417383    11.00000    0.03349    0.03071 =
         0.02489   -0.00028   -0.00552    0.00441
O8    4    0.229510    0.076587    0.039543    11.00000    0.03413    0.03556 =
         0.02329   -0.00937    0.00155    0.00722
N3    3    0.249063    0.488019    0.296646    11.00000    0.02316    0.01587 =
         0.01682    0.00250    0.00721    0.00460
O7    4    0.564555    0.142057    0.138620    11.00000    0.02691    0.04118 =
         0.04692   -0.00468    0.01411    0.01056
N1    3    0.101176    0.688681    0.093980    11.00000    0.02758    0.02026 =
         0.02061    0.00543    0.00619    0.00918
N8    3    0.456962    0.475859    0.154662    11.00000    0.01733    0.02188 =
         0.02365    0.00525    0.00489    0.00545
N2    3    0.303221    0.717121    0.175867    11.00000    0.02476    0.01973 =
         0.01895    0.00558    0.00496    0.00601
N7    3    0.380299    0.137347    0.130046    11.00000    0.02675    0.02102 =
         0.02364    0.00159    0.00829    0.00838
N6    3    0.503825    0.208857    0.352592    11.00000    0.02627    0.02635 =
         0.02022    0.00586    0.00132    0.00739
N4    3    0.043426    0.227882    0.339847    11.00000    0.02712    0.02732 =
         0.02256    0.00508    0.00874    0.00612
O5    4    0.516869    0.066400    0.367318    11.00000    0.05152    0.03015 =
         0.05271    0.01316   -0.00820    0.01491
O3    4    0.097602    0.310570    0.541445    11.00000    0.05579    0.04923 =
         0.02610   -0.00014    0.01508    0.01392
N5    3    0.117818    0.209540    0.464008    11.00000    0.03676    0.03805 =
         0.02750    0.01309    0.01058    0.01297
C3    1    0.100980    0.124844    0.249584    11.00000    0.02600    0.01228 =
         0.01882    0.00369    0.00806    0.00542
AFIX  23
H3A   2   -0.006599    0.105509    0.168163    11.00000   -1.20000
H3B   2    0.105229    0.012956    0.276561    11.00000   -1.20000
AFIX   0
O4    4    0.197989    0.093947    0.487079    11.00000    0.06718    0.06067 =
         0.04981    0.02680    0.02205    0.03255
C5    1    0.346923    0.409107    0.224296    11.00000    0.01576    0.01951 =
         0.01538    0.00124    0.00008    0.00271
C4    1    0.328191    0.223152    0.239052    11.00000    0.01811    0.01831 =
         0.01547    0.00086    0.00132    0.00519
C1    1    0.299774    0.670857    0.299348    11.00000    0.02951    0.01766 =
         0.01733    0.00325    0.00342    0.00594
AFIX  23
H1A   2    0.441754    0.724292    0.358748    11.00000   -1.20000
H1B   2    0.191285    0.714606    0.327883    11.00000   -1.20000
AFIX   0
C6    1    0.457884    0.648219    0.129429    11.00000    0.02358    0.02759 =
         0.03394    0.01330    0.01367    0.01012
AFIX  23
H6A   2    0.425763    0.649078    0.038831    11.00000   -1.20000
H6B   2    0.603854    0.724214    0.167414    11.00000   -1.20000
AFIX   0
C2    1    0.039561    0.397605    0.313187    11.00000    0.02667    0.02746 =
         0.02732    0.00769    0.01238    0.01011
AFIX  23
H2A   2    0.009489    0.460759    0.382197    11.00000   -1.20000
H2B   2   -0.075792    0.390899    0.236903    11.00000   -1.20000
AFIX   0
HKLF 4

REM  1_a.res in P-1
REM R1 =  0.0609 for    1830 Fo > 4sig(Fo)  and  0.0832 for all    2558 data
REM    199 parameters refined using      0 restraints

END

WGHT      0.1019      0.2268

REM Highest difference peak  0.558,  deepest hole -0.549,  1-sigma level  0.101
Q1    1   0.4219  0.0695  0.4228  11.00000  0.05    0.56
Q2    1   0.1882  0.1648  0.2378  11.00000  0.05    0.39
Q3    1   0.0441  0.0805  0.2102  11.00000  0.05    0.39
Q4    1   0.4323  0.2091  0.2767  11.00000  0.05    0.33
Q5    1   0.3063  0.6976  0.2196  11.00000  0.05    0.33
Q6    1   0.1039  0.1537  0.2781  11.00000  0.05    0.31
Q7    1   0.4586  0.4651  0.2410  11.00000  0.05    0.31
Q8    1   0.3589  0.1773  0.2045  11.00000  0.05    0.31
Q9    1   0.4715  0.1546  0.4819  11.00000  0.05    0.29
Q10   1   0.3513  0.3241  0.2434  11.00000  0.05    0.29
Q11   1   0.3696  0.4398  0.1664  11.00000  0.05    0.29
Q12   1   0.1435  0.0837  0.2586  11.00000  0.05    0.28
Q13   1   0.0068  0.6007  0.1250  11.00000  0.05    0.28
Q14   1   0.1829  0.7408 -0.0602  11.00000  0.05    0.28
Q15   1   0.4986  0.4554  0.5166  11.00000  0.05    0.27
Q16   1   0.3351  0.6792 -0.0613  11.00000  0.05    0.27
Q17   1   0.3924 -0.0189  0.2281  11.00000  0.05    0.27
Q18   1   0.0032  0.7338  0.1301  11.00000  0.05    0.27
Q19   1   0.6109  0.1155  0.2046  11.00000  0.05    0.26
Q20   1   0.2442 -0.0221  0.1735  11.00000  0.05    0.26
;
_shelx_res_checksum              429
_shelx_hkl_file
;
  -1   0   0   52.99    3.60
  -1   0   0   48.00    3.80
  -1   0   0   51.79    3.60
   1   0   0   47.70    3.50
  -2   0   0 2189.68   67.29
  -2   0   0 2208.08   68.69
  -3   0   0    2.90    2.80
  -3   0   0   -0.30    1.80
   3   0   0    1.50    2.60
  -4   0   0    3.80    3.00
  -4   0   0    0.20    2.50
   4   0   0    4.70    3.00
  -5   0   0  324.27   20.20
  -5   0   0  302.77   21.30
   5   0   0  340.17   22.50
  -6   0   0   47.50   11.10
   6   0   0   72.99   13.90
  -7   0   0   97.59   17.60
   7   0   0   58.89   14.10
  -8   0   0    1.00    7.20
   8   0   0    8.10    8.30
   8  -1   0    6.70    7.20
   7  -1   0    0.70    5.90
  -7   1   0   -2.20    4.10
   6  -1   0  363.66   25.60
  -6   1   0  390.76   26.00
   5  -1   0   23.30    7.10
  -5   1   0   26.50    7.30
  -5   1   0   29.90    7.70
   4  -1   0  346.17   20.00
  -4   1   0  333.27   19.40
  -4   1   0  355.06   20.30
   3  -1   0  454.55   21.50
  -3   1   0  477.05   21.40
  -3   1   0  472.15   21.80
   2  -1   0 1222.58   40.00
  -2   1   0 1167.88   39.80
  -2   1   0 1161.98   39.70
   1  -1   0    6.00    1.90
   0  -1   0  379.76   12.50
   0   1   0  373.96   12.50
   0   1   0  368.46   13.20
  -1  -1   0  533.85   19.20
  -1  -1   0  530.85   17.00
  -4  -1   0  148.69   11.40
   4   1   0  164.58   17.40
  -5  -1   0   79.99   13.00
  -5  -1   0   68.69   10.10
   5   1   0   67.89   13.40
  -6  -1   0  227.48   24.90
   6   1   0  157.28   20.60
  -7  -1   0    7.20    6.80
   7   1   0    7.00    6.90
   8  -2   0    1.50    7.40
   7  -2   0   92.99   16.10
   6  -2   0   -1.60    4.20
   5  -2   0  103.89   14.00
  -5   2   0   77.19   11.70
   4  -2   0  672.23   30.20
  -4   2   0  609.24   29.60
   3  -2   0  624.64   26.60
  -3   2   0  625.74   27.30
   2  -2   0  265.77    9.00
   2  -2   0  272.67    9.10
   2  -2   0  248.68   13.30
   1  -2   0  551.34   16.50
   1  -2   0  543.15   20.50
  -1   2   0  540.35   16.50
   0  -2   0 3756.82  109.29
   0  -2   0 3783.12  111.29
  -1  -2   0 6093.19  178.28
  -1  -2   0 6190.48  173.28
  -2  -2   0  718.33   24.60
  -2  -2   0  774.02   29.70
  -5  -2   0  439.76   28.30
  -5  -2   0  445.76   23.10
  -6  -2   0    0.40    4.50
   6   2   0    7.40    6.90
  -7  -2   0   59.49   14.30
   7   2   0   91.29   19.20
   7  -3   0   44.00   11.60
   6  -3   0    5.40    4.30
   5  -3   0  173.98   10.00
   5  -3   0  128.79   15.30
  -5   3   0  140.99   16.20
   4  -3   0  163.88    8.30
   4  -3   0  167.28   13.50
   3  -3   0   21.20    2.30
   3  -3   0   24.90    2.50
   3  -3   0   24.70    5.60
  -3   3   0   14.50    4.80
   2  -3   0   63.49    7.80
   1  -3   0 4473.25  127.89
   1  -3   0 4461.25  133.39
   0  -3   0  408.26   18.90
   0  -3   0  409.26   16.60
  -1  -3   0   -0.80    1.70
  -1  -3   0    1.00    0.80
  -1  -3   0    1.10    2.10
  -2  -3   0   16.20    4.90
  -2  -3   0   15.00    2.40
  -2  -3   0   14.30    4.80
  -3  -3   0  619.74   22.80
  -4  -3   0   55.79   11.20
  -5  -3   0   36.30   10.40
  -6  -3   0   14.30    7.70
   6   3   0   11.80    9.40
  -7  -3   0   -5.40    5.50
   7   3   0    2.30    7.00
   8  -4   0   30.20   11.60
   7  -4   0    8.80    6.60
   6  -4   0  265.17   21.50
   5  -4   0   42.60    9.50
   4  -4   0    2.60    3.80
   3  -4   0  483.85   24.30
   2  -4   0  154.48   11.60
  -2   4   0  148.29    5.90
   1  -4   0  318.67   13.50
   1  -4   0  341.87   18.20
   0  -4   0  276.37   14.20
   0  -4   0  277.87   12.00
   0  -4   0  303.87   17.30
  -1  -4   0  790.22   33.20
  -1  -4   0  720.13   30.50
  -2  -4   0  419.66   23.90
  -3  -4   0  176.18   19.50
  -4  -4   0  430.86   27.90
  -5  -4   0  118.79   19.20
  -6  -4   0   14.10    7.50
   8  -5   0    6.80    7.90
   7  -5   0    5.40    6.40
   6  -5   0  154.78   20.50
   5  -5   0  202.78   22.10
   4  -5   0   64.79   11.30
   3  -5   0  299.77   19.20
   2  -5   0    5.20    3.80
   1  -5   0  162.98   13.10
   0  -5   0 1595.24   59.99
   0  -5   0 1666.53   51.49
   0  -5   0 1627.84   55.39
  -1  -5   0  560.14   28.90
  -2  -5   0  189.38   19.50
  -3  -5   0   -0.70    3.50
  -4  -5   0    2.80    5.60
  -5  -5   0   10.00    8.40
  -6  -5   0  131.09   23.00
   7  -6   0   38.50   11.70
   6  -6   0  291.47   23.80
   5  -6   0  113.09   16.80
   4  -6   0    3.00    4.30
   3  -6   0   25.10    7.60
   2  -6   0  171.58   18.30
   1  -6   0    8.80    4.70
   0  -6   0  165.78   18.80
  -1  -6   0   36.80    9.00
  -2  -6   0   16.20    7.00
  -3  -6   0    1.50    4.90
  -4  -6   0  184.78   24.60
  -5  -6   0    2.40    6.20
   7  -7   0   29.10   10.90
   6  -7   0   56.99   13.60
   5  -7   0   58.19   12.90
   4  -7   0  594.84   33.40
   3  -7   0   51.59   10.70
   2  -7   0    4.10    4.10
   1  -7   0   17.90    7.00
   0  -7   0  110.69   16.20
  -1  -7   0  245.18   25.00
  -2  -7   0    3.30    5.70
  -3  -7   0  150.28   21.20
  -4  -7   0   14.10    9.90
   7  -8   0    5.10    7.90
   6  -8   0   19.10    9.10
   5  -8   0   21.30    8.90
   4  -8   0    2.70    4.50
   3  -8   0  110.59   16.80
   2  -8   0   85.69   15.20
   1  -8   0  118.99   18.30
   0  -8   0   44.60   11.70
  -1  -8   0   -0.20    5.30
  -2  -8   0   12.30    8.50
  -3  -8   0   -0.40    5.70
   6  -9   0   26.80   10.40
   5  -9   0   20.90    9.20
   4  -9   0   39.00   10.70
   3  -9   0    7.30    6.80
   2  -9   0   11.00    7.40
   1  -9   0    6.70    6.50
   0  -9   0   62.79   14.80
  -1  -9   0   17.90    9.00
  -2  -9   0    6.00    7.70
   4 -10   0   61.09   14.10
   3 -10   0   27.60   10.70
   2 -10   0   14.30    8.90
   1 -10   0  104.89   19.20
   0 -10   0   31.20   11.10
   0 -10   1   -0.20    6.00
   1 -10   1   18.60    9.30
   2 -10   1   27.60   10.60
   3 -10   1   38.70   12.10
   4 -10   1   89.99   17.20
  -2  -9   1   -4.10    5.70
  -1  -9   1    1.80    5.80
   0  -9   1   40.90   12.10
   1  -9   1   41.10   11.60
   2  -9   1   43.80   11.50
   3  -9   1    5.50    6.40
   4  -9   1    7.70    5.70
   5  -9   1   11.10    7.20
   6  -9   1   18.30    9.20
  -3  -8   1   -3.20    5.20
  -2  -8   1    4.60    6.50
  -1  -8   1   34.90   10.70
   0  -8   1   43.80   11.30
   1  -8   1  187.68   21.70
   2  -8   1   87.79   12.40
   2  -8   1   99.39   16.40
   3  -8   1   28.40    9.30
   4  -8   1   64.29   13.00
   5  -8   1   18.80    8.20
   6  -8   1    5.00    6.10
  -4  -7   1   33.50   11.80
  -3  -7   1    6.70    6.20
  -2  -7   1   59.19   13.10
  -1  -7   1  193.88   22.30
   0  -7   1   14.90    6.60
   1  -7   1  337.17   18.70
   1  -7   1  306.57   22.30
   2  -7   1   18.90    6.90
   3  -7   1  304.47   21.50
   4  -7   1   91.19   15.00
   5  -7   1  213.08   23.80
   6  -7   1   17.30    8.20
   7  -7   1  193.98   25.60
  -5  -6   1   18.20    9.30
  -4  -6   1   17.60    8.80
  -3  -6   1   -3.00    3.70
  -2  -6   1  134.89   17.40
  -1  -6   1    5.30    4.50
   1  -6   1  256.97   15.70
   1  -6   1  278.07   19.00
   2  -6   1  553.94   28.60
   3  -6   1   11.50    5.30
   4  -6   1  232.88   18.20
   5  -6   1  261.47   20.90
   6  -6   1  281.37   28.70
   7  -6   1   13.70    8.20
  -6  -5   1  327.97   35.30
  -5  -5   1   68.89   15.30
  -4  -5   1  374.26   27.10
  -3  -5   1   18.20    7.00
  -2  -5   1  168.58   18.40
  -1  -5   1  272.97   12.20
  -1  -5   1  275.27   18.50
   0  -5   1   49.00    6.20
   0  -5   1   39.70    7.70
   1  -5   1   22.80    5.90
  -2   5  -1    5.20    1.50
  -2   5  -1    4.20    1.50
   2  -5   1    4.00    3.50
   3  -5   1  260.37   17.20
   4  -5   1   -0.40    2.70
   5  -5   1  121.39   16.80
   6  -5   1  106.19   16.70
   7  -5   1   39.70   11.60
   8  -5   1  138.59   22.60
  -6  -4   1   44.10   13.10
  -5  -4   1  172.48   22.30
  -4  -4   1    6.40    4.80
  -3  -4   1   45.60    9.40
  -2  -4   1   44.60    8.70
  -2  -4   1   47.00    5.00
  -1  -4   1   41.70    7.90
  -1  -4   1   55.19    5.40
   0  -4   1 4026.30  123.09
   0  -4   1 3972.10  118.29
   1  -4   1  235.18   14.20
   2  -4   1  555.14   24.80
   3  -4   1  272.97   16.80
   4  -4   1    4.60    4.10
   5  -4   1   72.29   11.80
   6  -4   1  177.18   21.20
   7  -4   1   -1.90    4.30
   8  -4   1   55.69   14.30
   7   3  -1   20.30   10.30
  -7  -3   1   12.10    9.30
   6   3  -1   51.09   14.20
  -6  -3   1   59.49   13.60
  -5  -3   1  115.79   16.90
  -4  -3   1   23.70    8.10
  -4  -3   1   20.60    4.80
  -3  -3   1  251.07   17.70
  -3  -3   1  236.98   12.10
  -2  -3   1   61.09    5.10
  -2  -3   1   55.69    8.50
  -1  -3   1   10.00    3.50
  -1  -3   1   11.00    2.50
   0  -3   1 3455.65  101.19
   0  -3   1 3398.96  103.89
  -1   3  -1 3700.03  106.89
   1  -3   1 3784.92  112.09
   2  -3   1  364.66   17.40
   3  -3   1  171.28   12.20
   3  -3   1  168.28    6.70
   4  -3   1  314.97   18.90
   5  -3   1   97.99   13.30
   6  -3   1   -2.70    3.70
   7  -3   1  130.09   18.60
   8  -3   1   16.30    9.70
   7   2  -1    0.00    6.10
  -7  -2   1    5.70    6.50
   6   2  -1   16.40    8.00
  -6  -2   1   16.70    7.30
   5   2  -1   24.50    8.90
  -5  -2   1    6.20    4.10
  -5  -2   1   10.30    6.40
  -4  -2   1  352.86   22.00
  -4  -2   1  301.47   16.60
  -2  -2   1   20.80    5.10
  -2  -2   1   23.20    3.70
  -1  -2   1  642.74   24.80
  -1  -2   1  663.83   21.80
   0  -2   1 4587.44  132.09
   0  -2   1 4571.24  132.99
  -1   2  -1   69.59    3.00
   1  -2   1   63.19    5.10
  -2   2  -1  888.41   26.90
   2  -2   1  890.31   27.00
   2  -2   1  889.81   31.60
   3  -2   1  345.87   17.90
   4  -2   1  597.54   28.00
   5  -2   1  207.58   16.50
   6  -2   1  109.59   15.90
   7  -2   1    6.80    6.60
   8  -2   1    0.80    7.30
   7   1  -1  135.49   21.00
  -7  -1   1  171.48   23.90
   6   1  -1   27.40    8.60
  -6  -1   1   16.00    6.90
  -6  -1   1   23.10    6.80
   5   1  -1   73.49   12.40
  -5  -1   1   79.89   13.00
  -5  -1   1   95.59   12.40
  -4  -1   1   40.40    8.10
  -4  -1   1   43.50    7.30
  -3  -1   1 1451.75   51.89
  -2  -1   1 4649.63  126.59
  -2  -1   1 3984.20  128.99
  -1  -1   1  203.28    9.80
  -1  -1   1  207.58    8.80
   0   1  -1 1067.69   31.70
   0   1  -1 1038.90   31.60
   0  -1   1 1061.59   32.70
   0  -1   1 1074.09   31.70
  -1   1  -1  562.94   17.60
   1  -1   1  563.94   19.10
   1  -1   1  560.94   17.50
  -2   1  -1 4943.21  142.09
  -2   1  -1 5004.00  144.99
   2  -1   1 4861.31  144.69
  -3   1  -1   90.09    8.60
  -3   1  -1  133.99   10.20
   3  -1   1  143.79   10.30
  -4   1  -1  485.15   24.90
   4  -1   1  500.25   25.10
  -5   1  -1  462.35   26.90
   5  -1   1  483.15   27.20
  -6   1  -1    6.10    5.00
   6  -1   1    9.80    5.90
  -7   1  -1    7.10    6.10
   7  -1   1   -1.40    6.10
   8  -1   1   68.89   15.50
   8   0  -1   88.89   18.40
  -8   0   1  106.29   20.50
   7   0  -1   31.50   10.40
  -7   0   1   28.90    8.80
  -7   0   1   21.90    8.90
   6   0  -1  123.29   17.60
  -6   0   1  176.78   18.90
  -6   0   1  144.39   18.60
   5   0  -1    1.30    3.90
  -5   0   1   -0.70    2.70
  -5   0   1    3.10    3.00
   4   0  -1  255.07   16.80
   3   0  -1   11.30    3.70
  -3   0   1   13.20    3.80
   2   0  -1   47.90    5.80
  -2   0   1   76.49    7.20
   1   0  -1 4922.11  140.69
   1   0  -1 4926.01  140.29
  -1   0   1 4852.71  140.69
  -1   0   1 4952.00  140.79
   0   0  -1   28.30    2.10
   0   0  -1   33.90    1.70
   0   0   1   32.20    2.30
   0   0   1   31.60    2.20
   0   0   1   36.30    1.70
  -1   0  -1 6945.81  199.88
  -1   0  -1 7079.89  199.58
  -2   0  -1   87.79    6.40
  -2   0  -1   70.09    7.30
  -3   0  -1  270.37   14.20
  -3   0  -1  252.07   15.30
   3   0   1  240.98   15.40
  -4   0  -1  383.46   22.30
   4   0   1  407.16   22.90
  -5   0  -1    1.80    3.80
   5   0   1   -1.70    3.20
  -6   0  -1    0.70    3.90
   6   0   1   12.10    7.10
  -7   0  -1   10.10    7.60
   7   0   1    2.30    7.40
   8  -1  -1   15.90    8.90
   7  -1  -1    3.30    5.90
  -7   1   1    2.70    4.70
  -7   1   1   10.90    5.90
   6  -1  -1  131.39   18.40
  -6   1   1  155.08   19.10
  -6   1   1  143.19   18.00
   5  -1  -1  144.69   16.50
  -5   1   1  142.29   15.30
   4  -1  -1    6.40    3.90
  -4   1   1    5.70    3.50
  -4   1   1   13.90    4.70
   3  -1  -1    0.50    1.90
  -3   1   1    4.30    2.60
  -3   1   1    0.70    2.50
   2  -1  -1 5225.28  160.38
   2  -1  -1 5689.13  157.18
  -2   1   1 5551.74  159.98
   1  -1  -1  398.76   14.70
   1  -1  -1  382.66   12.80
  -1   1   1  378.16   12.80
  -1   1   1  376.06   14.30
   0  -1  -1 2641.84   77.49
   0  -1  -1 2633.44   78.19
   0   1   1 2694.13   75.69
  -1  -1  -1 2848.42   85.89
  -1  -1  -1 2902.51   86.79
  -2  -1  -1  430.46   19.90
  -2  -1  -1  413.16   18.70
  -3  -1  -1 1096.59   40.70
  -3  -1  -1 1083.49   42.80
  -4  -1  -1   13.20    5.10
  -5  -1  -1  347.47   23.90
   5   1   1  286.17   22.80
  -6  -1  -1  523.25   33.80
   6   1   1  551.54   34.50
  -7  -1  -1  143.39   22.30
   7   1   1  165.88   25.10
   8  -2  -1   -1.60    5.90
   7  -2  -1  132.79   20.10
  -7   2   1  104.89   16.80
   6  -2  -1   55.29    8.90
   6  -2  -1   53.59   11.30
  -6   2   1   47.50   10.50
   5  -2  -1  727.93   29.20
   5  -2  -1  747.23   35.40
  -5   2   1  712.03   34.30
   4  -2  -1   86.59    8.10
   4  -2  -1   68.89    9.70
  -4   2   1   97.59   12.20
   3  -2  -1  157.28   11.30
   3  -2  -1  160.58    8.20
  -3   2   1  152.38   11.10
   2  -2  -1   36.20    3.50
  -2   2   1   42.40    5.90
   1  -2  -1   86.59    4.70
   1  -2  -1   69.39    5.90
  -1   2   1   81.99    5.50
   0  -2  -1 3351.96  100.29
   0  -2  -1 3315.97   98.59
   0   2   1 3359.56   94.99
  -1  -2  -1   -0.20    1.50
  -1  -2  -1   -2.80    1.30
  -2  -2  -1  986.30   37.60
  -2  -2  -1  938.21   36.40
  -3  -2  -1    2.30    2.80
  -3  -2  -1    1.50    3.00
  -4  -2  -1    2.50    3.30
  -5  -2  -1    2.00    4.10
  -6  -2  -1    4.00    5.60
   6   2   1    9.20    7.80
  -7  -2  -1    3.80    6.70
   7   2   1   11.40    9.10
   8  -3  -1   -0.80    5.90
   7  -3  -1   11.20    7.40
   6  -3  -1  113.69   16.00
  -6   3   1  116.79   16.40
   5  -3  -1  246.58   12.60
   5  -3  -1  215.98   17.10
   4  -3  -1  217.48   10.40
   4  -3  -1  218.68   15.90
  -4   3   1  218.28   15.60
   3  -3  -1  204.78    8.70
   3  -3  -1  221.48   14.30
  -3   3   1  202.38   13.70
   2  -3  -1   13.40    2.10
   2  -3  -1   13.90    4.30
  -2   3   1   12.50    3.70
   1  -3  -1 2405.16   71.39
  -1   3   1 2365.96   72.39
  -1  -3  -1  938.21   36.30
  -1  -3  -1  897.71   34.30
  -2  -3  -1    1.70    2.50
  -2  -3  -1    2.60    2.50
  -3  -3  -1   -1.00    1.90
  -3  -3  -1   -0.10    2.20
  -4  -3  -1    8.50    5.60
  -5  -3  -1   56.99   13.10
  -6  -3  -1   80.19   17.10
   6   3   1   87.59   19.20
   8  -4  -1    6.30    7.50
   7  -4  -1   11.80    7.40
   6  -4  -1   70.39   13.30
  -6   4   1   89.49   14.60
   5  -4  -1   38.10    9.20
  -5   4   1   23.50    7.40
   4  -4  -1   48.00    3.70
   4  -4  -1   49.20    9.10
  -4   4   1   50.19    9.70
   3  -4  -1    4.20    3.50
   3  -4  -1    5.70    1.40
  -3   4   1   10.00    4.40
   2  -4  -1  659.83   29.00
   2  -4  -1  633.94   22.30
  -2   4   1  700.63   27.60
   1  -4  -1  152.08    8.90
   1  -4  -1  141.79   11.60
   0  -4  -1 1053.09   37.70
   0  -4  -1 1044.20   41.30
  -1  -4  -1   27.70    5.60
  -1  -4  -1   36.20    7.30
  -3  -4  -1  483.45   28.60
  -3  -4  -1  500.95   27.60
  -4  -4  -1   48.00   11.40
  -5  -4  -1  277.27   31.60
  -6  -4  -1    4.40    6.80
   8  -5  -1   11.40    7.80
   7  -5  -1  214.48   25.10
   6  -5  -1   -0.60    4.70
   5  -5  -1  576.94   32.50
   4  -5  -1  293.07   20.30
  -4   5   1  292.57   20.10
   3  -5  -1  389.86   22.80
   3  -5  -1  392.56   13.40
   2  -5  -1   93.39   12.00
   2  -5  -1  127.49    7.50
   1  -5  -1  269.97   14.00
   1  -5  -1  274.27   17.90
   0  -5  -1  951.90   40.40
   0  -5  -1  909.31   35.90
   0  -5  -1  913.11   29.60
  -1  -5  -1    1.40    3.70
  -1  -5  -1    5.70    3.70
  -2  -5  -1  266.07   20.00
  -2  -5  -1  240.48   18.20
  -3  -5  -1   58.89   12.70
  -4  -5  -1   76.69   15.40
  -5  -5  -1   33.10   11.40
   8  -6  -1   39.50   13.00
   7  -6  -1   20.00    9.90
   6  -6  -1  560.54   34.60
   5  -6  -1   60.09   12.40
   4  -6  -1  168.78   19.80
   3  -6  -1  704.43   34.70
   2  -6  -1  407.46   17.10
   2  -6  -1  360.96   23.40
   1  -6  -1    1.90    3.60
   1  -6  -1    8.20    3.40
   0  -6  -1    1.60    2.90
   0  -6  -1    1.40    3.60
  -1  -6  -1   16.20    6.90
  -1  -6  -1   11.00    5.00
  -2  -6  -1   81.59   14.40
  -3  -6  -1    1.90    4.70
  -4  -6  -1    7.30    6.60
  -5  -6  -1    6.90    7.60
   7  -7  -1    0.70    6.50
   6  -7  -1   84.49   15.80
   5  -7  -1  184.18   23.10
   4  -7  -1   96.19   15.70
   3  -7  -1  118.49   17.20
   2  -7  -1    2.30    4.30
   1  -7  -1   25.60    6.50
   1  -7  -1   29.20    9.20
   0  -7  -1  612.94   29.70
   0  -7  -1  596.84   34.60
  -1  -7  -1   78.19   15.40
  -2  -7  -1  141.99   20.50
  -3  -7  -1   73.49   15.70
  -4  -7  -1   54.19   15.70
   7  -8  -1    8.50    9.30
   6  -8  -1   97.89   18.00
   5  -8  -1    3.30    5.60
   4  -8  -1   26.30    8.70
   3  -8  -1    0.50    5.10
   2  -8  -1  123.59   18.30
   1  -8  -1   89.49   16.40
   0  -8  -1   56.49   13.40
  -1  -8  -1  154.78   21.90
  -2  -8  -1   33.80   11.70
  -3  -8  -1   37.60   12.30
   6  -9  -1   -0.10    6.70
   5  -9  -1   47.60   13.30
   4  -9  -1   65.79   14.30
   3  -9  -1   74.39   14.90
   2  -9  -1   82.69   16.50
   1  -9  -1    5.10    6.40
   0  -9  -1   68.59   16.00
  -1  -9  -1   13.40    8.50
  -2  -9  -1    2.70    7.60
   4 -10  -1   72.59   16.60
   3 -10  -1   37.60   12.00
   2 -10  -1   93.89   18.30
   1 -10  -1    9.80    8.00
   0 -10  -1   13.30    9.90
   0 -10   2   -1.40    6.20
   1 -10   2    8.60    8.00
   2 -10   2   66.19   15.40
   3 -10   2   26.60   10.00
   4 -10   2   66.79   14.50
  -2  -9   2   54.69   14.20
  -1  -9   2    7.50    6.90
   0  -9   2  104.19   17.90
   1  -9   2   31.80   10.60
   2  -9   2   39.70   11.30
   3  -9   2    5.90    6.50
   3  -9   2   15.20    7.50
   4  -9   2   40.60   11.10
   5  -9   2    5.20    6.20
  -3  -8   2    9.20    6.00
  -2  -8   2    9.50    6.60
  -1  -8   2  204.98   23.60
   0  -8   2   41.90   11.20
   1  -8   2  184.58   21.30
   2  -8   2   23.50    8.40
   2  -8   2   21.00    7.10
   3  -8   2    3.60    5.50
   4  -8   2    5.60    5.40
   5  -8   2   90.59   15.70
   6  -8   2    0.50    5.10
  -4  -7   2  171.28   24.30
  -3  -7   2   16.80    7.30
  -2  -7   2   82.49   14.60
  -1  -7   2    8.30    5.50
   0  -7   2   87.79   13.70
   1  -7   2   51.69   10.50
   1  -7   2   49.40    8.90
   2  -7   2   45.10    9.80
   3  -7   2   68.79   12.00
   4  -7   2   30.20    8.70
   5  -7   2    4.40    5.40
   6  -7   2    3.30    6.10
   7  -7   2  146.69   21.30
  -5  -6   2   28.50   11.20
  -4  -6   2   84.59   15.70
  -3  -6   2  375.96   26.50
  -2  -6   2  229.38   19.00
  -1  -6   2  370.46   23.60
   0  -6   2  209.08   16.40
   0  -6   2  227.68   13.90
  -1   6  -2  508.05   21.40
   1  -6   2  550.14   25.50
   1  -6   2  478.65   26.20
   2  -6   2   25.70    6.70
   3  -6   2  190.78   15.30
   4  -6   2  314.17   21.00
   5  -6   2    7.00    5.40
   6  -6   2   32.90   10.30
   7  -6   2   56.79   13.90
  -6  -5   2    2.90    6.10
  -5  -5   2    4.30    5.80
  -4  -5   2    9.20    6.40
  -3  -5   2  370.26   24.90
  -2  -5   2  300.87   19.80
  -2  -5   2  249.97   18.60
  -1  -5   2   93.79    7.40
   0  -5   2  685.83   30.70
   0  -5   2  711.03   28.20
  -1   5  -2   58.89    6.20
   1  -5   2   70.69    9.30
   1  -5   2   57.89    8.70
  -2   5  -2   63.99    3.60
   2  -5   2   67.79    9.40
   3  -5   2  173.88   13.60
   4  -5   2    4.30    4.30
   5  -5   2   -2.20    3.30
   6  -5   2   34.60   10.00
   7  -5   2    0.90    5.60
   6   4  -2   19.50   10.10
  -6  -4   2   26.40   10.70
  -5  -4   2    3.70    5.60
  -4  -4   2   30.20    8.90
  -3  -4   2  133.09   16.20
  -2  -4   2  139.99   14.90
  -2  -4   2  152.38    9.20
  -1  -4   2    5.00    3.40
  -1  -4   2    8.40    2.80
   0  -4   2 1240.88   44.30
  -1   4  -2 3983.10  116.69
   1  -4   2 4062.79  122.19
   2  -4   2  208.08   13.00
   3  -4   2  308.67   17.70
   4  -4   2   12.40    4.60
   5  -4   2   37.50    8.90
   6  -4   2  152.28   19.10
   7  -4   2    0.00    5.40
   7   3  -2  113.69   20.00
  -7  -3   2  107.59   20.00
   6   3  -2  361.56   29.30
  -6  -3   2  368.86   28.70
  -5  -3   2   36.20   10.20
  -4  -3   2   15.80    4.60
  -4  -3   2   18.00    6.80
  -3  -3   2  333.87   19.80
  -3  -3   2  280.87   14.70
  -2  -3   2   54.69    6.50
  -2  -3   2   56.19    8.50
  -1  -3   2  416.16   19.10
  -1  -3   2  413.46   17.00
   0  -3   2 3814.82  113.59
   0  -3   2 3800.12  113.69
  -1   3  -2    3.40    1.50
   1  -3   2    3.80    2.30
  -2   3  -2  211.58    7.70
   2  -3   2  210.18   12.00
   2  -3   2  208.68    7.70
  -3   3  -2  300.77   11.40
   3  -3   2  277.17   16.10
   4  -3   2  167.68   13.20
   5  -3   2    3.20    4.10
   6  -3   2    2.00    4.40
   7  -3   2   -1.90    5.20
   8  -3   2   12.20    8.80
   7   2  -2   34.60   11.50
  -7  -2   2   62.39   15.20
   6   2  -2   39.20   10.90
  -6  -2   2   38.30   10.50
  -6  -2   2   37.00    8.70
   5   2  -2  438.96   28.90
  -5  -2   2  426.26   27.80
  -5  -2   2  493.25   24.40
  -4  -2   2   51.49   10.20
  -4  -2   2   47.00    7.60
  -3  -2   2 1225.28   46.70
  -3  -2   2 1195.18   41.90
  -2  -2   2   10.50    2.90
  -2  -2   2   14.30    4.20
  -1  -2   2 2669.73   80.99
  -1  -2   2 2662.43   80.09
   0   2  -2  945.11   30.10
   0  -2   2  913.21   30.00
   0  -2   2  934.21   31.80
  -1   2  -2   53.29    3.70
   1  -2   2   61.29    4.60
   1  -2   2   52.29    3.90
  -2   2  -2  113.99    6.20
   2  -2   2  139.09    8.60
  -3   2  -2  431.46   17.10
   3  -2   2  411.56   20.10
  -4   2  -2   11.10    3.60
   4  -2   2    5.50    3.50
  -5   2  -2  108.59   14.40
   5  -2   2  113.79   14.80
   6  -2   2   52.29   11.60
   7  -2   2   17.00    8.30
   8   1  -2   -1.90    6.70
   8   1  -2    8.30    8.60
  -8  -1   2    1.10    6.30
   7   1  -2   -0.10    5.40
  -7  -1   2    3.40    4.70
  -7  -1   2    1.10    5.80
   6   1  -2  203.58   23.00
  -6  -1   2  210.98   17.50
  -6  -1   2  249.58   26.50
   5   1  -2  278.87   20.50
  -5  -1   2  276.97   17.80
  -5  -1   2  275.87   20.60
   4   1  -2  913.61   38.90
  -4  -1   2  890.51   38.50
  -4  -1   2  872.91   35.10
   3   1  -2    9.40    4.40
  -3  -1   2   15.70    4.70
  -3  -1   2    7.00    2.80
  -2  -1   2 3343.97  101.39
  -2  -1   2 3454.05  102.79
   1   1  -2  760.62   26.10
  -1  -1   2  754.32   26.00
  -1  -1   2  762.32   25.30
   0   1  -2  487.25   14.40
   0   1  -2  469.85   16.50
   0  -1   2  474.65   14.40
   0  -1   2  468.25   17.80
  -1   1  -2  506.85   17.60
  -1   1  -2  508.55   17.70
   1  -1   2  516.75   17.60
  -2   1  -2 4546.15  130.49
  -2   1  -2 4405.46  131.89
   2  -1   2 4457.85  131.99
  -3   1  -2    8.20    3.80
  -3   1  -2    7.50    2.80
   3  -1   2    9.10    3.80
  -4   1  -2  225.58   15.60
  -4   1  -2  205.18   13.10
   4  -1   2  193.28   14.70
  -5   1  -2  248.88   18.60
   5  -1   2  209.98   17.30
  -6   1  -2  225.18   24.10
   6  -1   2  265.77   26.60
  -7   1  -2    9.70    7.10
   7  -1   2    4.00    7.30
   8   0  -2   80.19   15.10
   8   0  -2   60.09   15.70
  -8   0   2   39.50   10.90
  -8   0   2   35.20   12.20
   7   0  -2   41.50   11.60
  -7   0   2   33.40   10.70
  -7   0   2   28.60    8.60
   6   0  -2  417.66   27.10
  -6   0   2  364.46   25.70
  -6   0   2  352.86   23.70
  -5   0   2   31.10    7.00
  -5   0   2   33.80    8.20
   4   0  -2  761.82   33.80
  -4   0   2  775.82   34.00
  -4   0   2  784.12   32.20
   3   0  -2  892.31   34.90
  -3   0   2  944.31   35.30
  -3   0   2  893.01   34.10
   2   0  -2 1763.82   55.19
   2   0  -2 1700.13   53.99
  -2   0   2 1729.13   55.19
  -2   0   2 1721.83   55.29
   1   0  -2 3379.16   97.09
  -1   0   2 3312.27   98.29
   0   0  -2  367.76   13.40
   0   0  -2  353.66   11.80
   0   0   2  362.36   13.80
   0   0   2  361.66   11.80
  -1   0  -2  303.87   12.90
  -1   0  -2  276.97   12.10
  -3   0  -2 1226.18   45.90
  -3   0  -2 1248.08   44.40
   3   0   2 1292.57   47.00
  -4   0  -2    1.10    2.70
  -4   0  -2    1.40    3.00
   4   0   2    1.80    3.10
  -5   0  -2  316.77   22.10
   5   0   2  270.87   20.90
  -6   0  -2    4.90    5.60
   6   0   2    2.00    5.90
  -7   0  -2   15.70    9.50
   7   0   2   -5.20    5.70
   8  -1  -2   64.99   15.90
  -8   1   2   39.50   11.20
   7  -1  -2  120.19   15.20
   7  -1  -2   72.69   13.80
  -7   1   2  123.69   17.50
   6  -1  -2   74.09   13.60
   6  -1  -2   93.69   12.70
  -6   1   2   70.99   13.20
  -6   1   2   79.89   13.00
   5  -1  -2   -0.70    2.40
   5  -1  -2    0.80    2.50
  -5   1   2   -1.90    1.90
  -5   1   2    2.80    3.00
   4  -1  -2  889.31   37.30
   4  -1  -2  924.11   33.80
  -4   1   2  878.71   36.60
  -4   1   2  935.51   38.10
   3  -1  -2 1867.51   59.69
   3  -1  -2 1951.70   63.59
  -3   1   2 1895.71   62.89
   2  -1  -2  479.85   18.00
   2  -1  -2  491.25   19.90
   1  -1  -2  260.87   11.70
   1  -1  -2  259.57   11.00
  -1   1   2  281.97   11.80
   0  -1  -2 6236.58  177.98
   0   1   2 6171.48  176.38
  -1  -1  -2    5.00    2.40
  -1  -1  -2    4.30    2.30
   1   1   2    4.50    1.60
  -2  -1  -2  290.27   16.00
  -2  -1  -2  285.77   15.20
  -3  -1  -2 1282.57   47.40
  -3  -1  -2 1300.87   49.60
  -4  -1  -2  557.14   29.20
  -4  -1  -2  525.95   26.80
  -5  -1  -2    7.30    5.90
   5   1   2   40.50   11.30
  -6  -1  -2   11.90    7.40
   6   1   2   14.40    6.90
  -7  -1  -2    4.10    6.40
   7   1   2   -0.80    6.70
   8  -2  -2   26.30   10.00
  -8   2   2   46.10   12.90
   7  -2  -2   68.59   14.00
  -7   2   2   48.80   11.30
   6  -2  -2 1125.69   42.60
   6  -2  -2 1101.29   49.50
  -6   2   2 1087.69   49.00
   5  -2  -2   44.50    6.80
  -5   2   2   25.50    6.90
   4  -2  -2   34.80    5.20
  -4   2   2   42.10    8.10
   3  -2  -2  143.69   11.10
   3  -2  -2  152.48    8.60
   2  -2  -2  374.36   14.30
  -2   2   2  366.66   16.90
   1  -2  -2    7.90    2.90
   1  -2  -2    6.50    2.20
  -1   2   2    4.70    2.00
   0  -2  -2 2565.54   77.19
   0  -2  -2 2521.95   78.29
   0   2   2 2494.95   73.19
  -1  -2  -2  691.13   28.00
   1   2   2  690.93   21.70
  -2  -2  -2  466.75   22.40
  -2  -2  -2  477.45   23.20
  -3  -2  -2  202.28   14.90
  -3  -2  -2  218.28   16.20
  -4  -2  -2  649.93   32.60
  -4  -2  -2  679.33   35.20
  -5  -2  -2  306.07   23.60
  -6  -2  -2   13.90    7.90
   6   2   2    8.00    7.40
  -7  -2  -2   30.20   11.30
   7   2   2   24.70   11.00
   8  -3  -2   10.70    6.60
  -8   3   2   -1.50    4.50
   7  -3  -2   66.09   13.30
  -7   3   2   45.00   11.60
   6  -3  -2   86.29   13.60
   6  -3  -2  101.99   12.90
  -6   3   2   99.99   14.50
   5  -3  -2    3.70    4.60
   5  -3  -2    9.70    3.40
  -5   3   2   -2.90    1.60
   4  -3  -2  580.24   22.30
   4  -3  -2  601.24   29.30
  -4   3   2  620.94   29.10
   3  -3  -2  640.54   22.50
  -3   3   2  646.64   27.90
   2  -3  -2  139.09   10.50
   2  -3  -2  142.89    7.70
  -2   3   2  143.59    9.80
   1  -3  -2  624.74   22.90
   1  -3  -2  581.74   25.60
  -1   3   2  626.84   22.50
   0  -3  -2   70.89    9.20
   0  -3  -2   86.19    9.00
   0   3   2   66.39    3.90
  -1  -3  -2  124.39   13.10
  -1  -3  -2  137.99   10.60
  -2  -3  -2   64.79   10.50
  -2  -3  -2   70.69    9.90
  -3  -3  -2    0.30    2.60
  -3  -3  -2   12.20    5.90
  -4  -3  -2   66.99   12.40
  -4  -3  -2   53.49   11.00
  -5  -3  -2   31.50   10.30
  -6  -3  -2   25.90   10.20
   6   3   2   61.59   16.30
   8  -4  -2    8.60    8.40
   7  -4  -2  232.98   26.70
  -7   4   2  209.18   23.80
   6  -4  -2   77.89   14.10
  -6   4   2  102.19   16.60
   5  -4  -2    4.70    4.70
  -5   4   2    2.20    3.70
   4  -4  -2  359.96   22.20
   4  -4  -2  344.47   14.50
  -4   4   2  383.26   22.30
   3  -4  -2  365.06   20.80
   3  -4  -2  355.76   14.00
  -3   4   2  326.27   19.00
   2  -4  -2  422.66   17.10
  -2   4   2  424.56   19.90
   1  -4  -2   15.10    3.80
   1  -4  -2   11.20    4.10
  -1   4   2   23.90    4.10
   0  -4  -2   64.89    8.40
   0  -4  -2   59.79    9.40
  -1  -4  -2  343.77   20.60
  -1  -4  -2  336.37   19.00
  -2  -4  -2  703.73   33.10
  -3  -4  -2  248.58   18.70
  -3  -4  -2  252.07   24.90
  -4  -4  -2  195.68   23.30
  -4  -4  -2  197.38   21.70
  -5  -4  -2   16.80    8.20
  -6  -4  -2   21.50   10.70
   8  -5  -2   13.20    9.00
   7  -5  -2   29.30    9.80
  -7   5   2   58.09   12.80
   6  -5  -2    1.40    5.60
  -6   5   2   15.80    7.30
   5  -5  -2   39.00   10.40
  -5   5   2   25.10    8.20
   4  -5  -2    3.00    4.00
  -4   5   2    2.10    3.90
   3  -5  -2   23.60    3.80
   3  -5  -2    9.50    4.60
  -3   5   2   14.60    5.20
   2  -5  -2   40.90    5.70
   2  -5  -2   41.50    8.60
  -2   5   2   48.60    7.30
   1  -5  -2  191.28   12.30
   1  -5  -2  200.68   15.30
   0  -5  -2   28.20    6.00
  -1  -5  -2   25.30    6.90
  -2  -5  -2   31.60    8.20
  -2  -5  -2   37.20    9.40
  -3  -5  -2   10.70    6.10
  -3  -5  -2   11.90    6.10
  -4  -5  -2   40.80   11.70
  -5  -5  -2    7.30    7.60
   8  -6  -2    4.20    8.00
   7  -6  -2  188.38   24.40
   6  -6  -2    1.10    5.60
   5  -6  -2   12.70    7.80
  -5   6   2   23.30    8.20
   4  -6  -2  347.17   24.20
  -4   6   2  377.46   23.60
   3  -6  -2  311.17   21.80
   2  -6  -2 2277.57   81.89
   2  -6  -2 2224.18   71.59
   1  -6  -2  241.88   14.90
   1  -6  -2  236.78   18.90
   0  -6  -2  408.26   26.00
   0  -6  -2  392.36   22.20
  -1  -6  -2   51.89   11.70
  -1  -6  -2   40.30    9.10
  -2  -6  -2  183.68   21.60
  -2  -6  -2  148.69   17.30
  -3  -6  -2  124.09   18.80
  -4  -6  -2   -0.20    5.30
   7  -7  -2   26.40   10.20
   6  -7  -2    9.60    7.30
   5  -7  -2  212.58   23.90
   4  -7  -2  586.04   34.00
   3  -7  -2    1.80    4.10
   2  -7  -2   39.60    9.50
   2  -7  -2   38.90    7.00
   1  -7  -2   -1.20    2.90
   1  -7  -2   -4.40    3.20
   0  -7  -2    3.80    5.10
   0  -7  -2    7.80    4.20
  -1  -7  -2   57.19   13.30
  -1  -7  -2   47.30   10.60
  -2  -7  -2   -3.60    4.00
  -2  -7  -2    7.50    6.00
  -3  -7  -2    0.30    4.70
  -4  -7  -2  121.39   22.80
   7  -8  -2   57.29   14.80
   6  -8  -2   76.39   16.30
   5  -8  -2   -0.50    4.90
   4  -8  -2  100.99   16.90
   3  -8  -2   54.99   12.70
   2  -8  -2  286.77   29.20
   1  -8  -2   30.20   10.20
   1  -8  -2   33.10    8.00
   0  -8  -2  342.67   22.90
   0  -8  -2  330.27   27.30
  -1  -8  -2    5.90    6.90
  -2  -8  -2    3.20    6.10
  -3  -8  -2    6.20    7.20
   6  -9  -2   -1.70    6.10
   5  -9  -2   -7.10    4.90
   4  -9  -2    2.10    6.30
   3  -9  -2   34.60   11.30
   2  -9  -2  169.28   23.80
   1  -9  -2    6.40    7.20
   0  -9  -2   25.30   10.30
  -1  -9  -2  106.29   20.70
   4 -10  -2   17.30    9.60
   3 -10  -2  166.68   23.90
   2 -10  -2   60.89   15.90
   1 -10  -2    2.70    8.10
   0 -10   3    4.70    7.80
   1 -10   3  153.08   22.20
   2 -10   3   -3.50    5.80
   3 -10   3    7.40    7.30
   4 -10   3    0.40    5.50
  -2  -9   3   -3.50    5.10
  -1  -9   3   47.40   12.60
   0  -9   3    2.90    5.80
   1  -9   3   38.00   10.40
   2  -9   3    3.00    6.20
   3  -9   3  246.08   25.40
   3  -9   3  175.88   22.10
   4  -9   3    8.20    6.90
   5  -9   3   16.80    9.40
  -3  -8   3    4.50    6.20
  -2  -8   3   97.59   16.30
  -1  -8   3   -4.80    4.10
   0  -8   3   78.69   14.10
   1  -8   3  270.77   21.20
   2  -8   3   17.70    7.00
   2  -8   3   19.80    7.10
   3  -8   3   57.39   12.30
   3  -8   3   34.10    9.60
   4  -8   3    0.70    4.30
   5  -8   3    3.20    6.10
   6  -8   3  118.69   18.80
  -4  -7   3    3.10    6.10
  -3  -7   3   24.60    9.20
  -2  -7   3   -1.10    4.60
  -1  -7   3   16.10    6.80
   0   7  -3  199.08   14.50
   0  -7   3  190.18   20.40
   0  -7   3  219.08   15.30
   1  -7   3    5.00    3.90
   1  -7   3   12.40    5.70
   2  -7   3    5.40    4.30
   2  -7   3    6.50    4.50
   3  -7   3   84.49   13.20
   4  -7   3  411.96   25.70
   5  -7   3    1.80    5.40
   6  -7   3   17.30    7.90
  -5  -6   3  261.57   30.10
  -4  -6   3   10.40    7.30
  -3  -6   3   50.39   11.30
  -2  -6   3  401.46   25.30
  -1  -6   3   76.59   12.10
  -1  -6   3   87.69   10.10
   0   6  -3    4.10    3.00
   0  -6   3    1.40    2.90
   0  -6   3   -0.70    2.10
  -1   6  -3  668.83   25.70
   1  -6   3  650.03   30.80
   1  -6   3  687.13   31.20
   2  -6   3   74.19   10.90
   3  -6   3   -0.30    3.40
   4  -6   3   67.59   11.60
   5  -6   3    6.10    5.10
   6  -6   3   89.49   15.70
   7  -6   3    1.90    6.30
  -6  -5   3   64.09   16.10
  -5  -5   3    9.10    6.40
  -4  -5   3    9.20    5.90
  -3  -5   3   17.30    6.90
  -2  -5   3  632.74   31.20
  -2  -5   3  628.24   26.00
  -1  -5   3   22.70    5.10
  -1  -5   3   25.30    6.50
   0   5  -3  242.48   13.90
   0  -5   3  254.67   15.90
   0  -5   3  292.47   16.10
  -1   5  -3  576.24   21.60
   1  -5   3  551.84   26.60
   1  -5   3  561.44   25.30
  -2   5  -3  741.73   24.10
   2  -5   3  754.02   31.40
   3  -5   3  577.74   27.10
   4  -5   3  889.81   38.70
   5  -5   3  154.48   18.00
   6  -5   3  197.18   22.20
   7  -5   3    9.40    6.90
   6   4  -3   47.50   13.90
  -6  -4   3   50.19   14.00
  -5  -4   3  219.48   24.30
  -4  -4   3  261.57   20.80
  -3  -4   3  826.22   31.50
  -3  -4   3  771.12   36.70
  -2  -4   3   51.19    7.00
  -2  -4   3   50.39    8.60
  -1  -4   3  579.64   25.30
  -1  -4   3  546.65   23.80
   0  -4   3  375.16   19.00
   0  -4   3  408.36   18.60
  -1   4  -3 1014.90   33.40
   1  -4   3 1028.20   36.70
   1  -4   3 1010.00   39.30
  -2   4  -3 1541.55   46.80
   2  -4   3 1574.94   52.79
  -3   4  -3  489.55   16.30
   3  -4   3  490.75   23.40
   4  -4   3   26.90    6.90
   5  -4   3   39.60    9.20
   6  -4   3    2.00    4.80
   7  -4   3   31.70   10.30
   7   3  -3   27.90   11.20
  -7  -3   3   24.00   10.90
   6   3  -3   43.50   11.90
  -6  -3   3   74.49   15.30
   5   3  -3   36.70   10.70
  -5  -3   3   59.39    9.60
  -5  -3   3   55.19   11.90
  -4  -3   3  137.99   11.00
  -4  -3   3  118.89   15.50
  -3  -3   3  370.56   20.60
  -3  -3   3  299.87   16.30
  -2  -3   3   28.00    5.20
  -2  -3   3   20.10    5.10
   1   3  -3  724.73   28.60
  -1  -3   3  755.82   28.40
   0   3  -3  370.46   15.70
   0  -3   3  368.36   15.60
  -1   3  -3  468.25   17.10
   1  -3   3  446.26   17.90
   1  -3   3  448.16   21.50
  -2   3  -3   29.90    3.70
   2  -3   3   27.90    5.20
  -3   3  -3   22.90    3.60
   3  -3   3   17.00    4.80
  -4   3  -3    1.60    1.70
   4  -3   3   -1.90    2.40
   5  -3   3   22.20    7.00
   6  -3   3   26.50    8.60
   7  -3   3    0.40    5.40
   7   2  -3   33.10   11.70
  -7  -2   3   26.10   10.10
   6   2  -3    2.50    5.20
  -6  -2   3    6.00    5.90
  -6  -2   3    6.90    4.60
   5   2  -3   40.30    9.40
  -5  -2   3   43.50    8.30
  -5  -2   3   54.09   11.60
   4   2  -3   -1.00    3.50
  -4  -2   3   -1.50    2.00
  -4  -2   3   -0.80    3.00
  -3  -2   3  105.79   10.80
  -3  -2   3   77.49   10.10
   2   2  -3  505.95   22.90
  -2  -2   3  547.45   22.70
  -1  -2   3   88.49    6.40
  -1  -2   3   86.59    8.50
   0   2  -3 2561.54   77.69
   0   2  -3 2591.24   75.49
   0  -2   3 2588.74   75.49
   0  -2   3 2624.14   80.39
  -1   2  -3   10.20    2.40
   1  -2   3    8.50    2.10
  -2   2  -3   79.99    5.80
   2  -2   3   86.59    6.60
  -3   2  -3   -0.40    1.50
   3  -2   3   17.90    4.40
  -4   2  -3   74.29    8.80
  -4   2  -3   52.69    8.90
   4  -2   3   70.49   10.50
  -5   2  -3   31.30    6.60
  -5   2  -3   16.80    6.30
   5  -2   3   18.10    6.10
   6  -2   3   61.69   12.50
   7  -2   3   39.00   11.70
   8   1  -3    7.80    6.70
   8   1  -3   -0.50    7.20
  -8  -1   3   -0.90    5.70
   7   1  -3   36.00   11.70
   7   1  -3   52.69   12.20
  -7  -1   3   40.90   11.90
  -7  -1   3   55.89   12.00
   6   1  -3  268.27   22.20
  -6  -1   3  249.58   18.80
  -6  -1   3  244.18   25.50
   5   1  -3   63.69   11.10
  -5  -1   3   59.19   11.60
  -5  -1   3   83.09   11.10
   4   1  -3  501.15   25.60
  -4  -1   3  487.95   23.60
  -4  -1   3  471.45   25.30
   3   1  -3  192.58   12.70
   3   1  -3  198.48   13.10
  -3  -1   3  196.18   13.10
  -3  -1   3  177.08   12.20
   1   1  -3  206.28   10.70
   1   1  -3  223.88    9.40
  -1  -1   3  211.18    9.20
  -1  -1   3  218.08   11.40
   0   1  -3    4.80    1.90
   0  -1   3    5.00    1.90
  -1   1  -3 9820.82  278.57
  -1   1  -3 9847.12  280.57
   1  -1   3 9999.00  283.67
   1  -1   3 9757.72  278.47
  -2   1  -3    8.20    2.80
  -2   1  -3    8.60    2.70
   2  -1   3   12.10    3.20
  -3   1  -3  307.07   16.60
  -3   1  -3  280.87   15.10
   3  -1   3  292.97   16.20
  -4   1  -3    2.10    3.30
  -4   1  -3   -0.50    2.50
   4  -1   3   -0.80    2.20
  -5   1  -3  127.19   14.20
  -5   1  -3  124.19   16.10
   5  -1   3  152.58   18.00
  -6   1  -3   36.00   10.50
   6  -1   3   43.80   11.30
  -7   1  -3   34.80   11.90
   7  -1   3   33.40   11.60
   8   0  -3   36.50   11.70
   8   0  -3   37.70   11.20
  -8   0   3   34.70   12.20
  -8   0   3   27.50    9.60
   7   0  -3   87.09   13.70
   7   0  -3   95.79   17.40
  -7   0   3   82.39   14.40
  -7   0   3   68.79   14.10
   6   0  -3   -0.70    3.50
   6   0  -3    0.50    4.10
  -6   0   3    0.30    3.00
  -6   0   3    0.90    4.50
   5   0  -3   13.50    6.20
   5   0  -3   12.00    4.80
  -5   0   3   15.60    5.70
  -5   0   3   12.60    5.70
   4   0  -3   23.70    6.20
   4   0  -3   38.00    6.60
  -4   0   3   43.30    8.00
  -4   0   3   48.70    8.30
   3   0  -3  236.98   14.10
   3   0  -3  249.97   13.60
  -3   0   3  233.08   14.20
  -3   0   3  223.28   13.70
   2   0  -3  235.78   12.20
   2   0  -3  253.77   12.40
  -2   0   3  227.38   12.00
   0   0  -3  350.26   14.90
   0   0  -3  363.66   12.60
   0   0   3  364.26   12.50
   0   0   3  363.86   15.40
  -1   0  -3 2107.29   62.89
  -1   0  -3 2014.90   63.99
   1   0   3 2033.80   64.19
  -2   0  -3  333.77   16.50
  -3   0  -3   41.90    6.90
  -3   0  -3   49.80    8.10
  -4   0  -3 1256.77   50.09
  -4   0  -3 1238.78   47.80
   4   0   3 1259.27   50.49
  -5   0  -3   40.00    9.10
  -5   0  -3   48.00   10.40
   5   0   3   44.20    9.90
  -6   0  -3   11.00    6.20
   6   0   3    0.80    5.70
  -7   0  -3   -0.40    6.00
   7   0   3    5.40    8.70
   8  -1  -3    6.60    7.50
  -8   1   3    8.20    6.40
   7  -1  -3    3.10    4.60
   7  -1  -3   11.30    6.80
  -7   1   3   10.30    6.30
   6  -1  -3  233.18   19.20
   6  -1  -3  197.58   15.10
  -6   1   3  230.68   18.50
   5  -1  -3  211.48   14.10
  -5   1   3  203.98   15.90
   4  -1  -3    7.60    3.90
   4  -1  -3    5.80    3.10
  -4   1   3    6.20    3.60
   3  -1  -3 1484.75   48.70
   3  -1  -3 1505.45   51.49
  -3   1   3 1436.66   50.99
   2  -1  -3   29.90    4.70
   2  -1  -3   32.90    5.50
   1  -1  -3  460.65   18.00
   1  -1  -3  453.85   17.70
  -1   1   3  443.16   18.20
   0  -1  -3   -1.00    0.90
   0  -1  -3    3.50    2.10
   0   1   3    4.60    1.90
  -1  -1  -3   -0.20    1.60
  -1  -1  -3   -1.20    1.80
   1   1   3    2.50    1.60
  -2  -1  -3 1808.22   60.89
  -2  -1  -3 1803.32   61.39
  -3  -1  -3  208.38   15.50
  -3  -1  -3  236.58   15.40
  -4  -1  -3   16.70    5.50
  -4  -1  -3   14.00    6.00
  -5  -1  -3  298.97   23.10
  -5  -1  -3  346.67   22.80
   5   1   3  284.07   23.80
  -6  -1  -3   11.40    7.30
   6   1   3    6.70    7.00
  -7  -1  -3   50.29   13.80
   7   1   3   25.40   11.50
   8  -2  -3   14.80    8.90
  -8   2   3    1.00    4.60
   7  -2  -3   97.29   16.30
   7  -2  -3  103.29   13.40
  -7   2   3  103.69   16.50
   6  -2  -3   22.40    7.50
   6  -2  -3    5.30    3.90
  -6   2   3   15.10    6.60
   5  -2  -3   19.70    5.20
  -5   2   3   25.60    7.00
   4  -2  -3   16.80    4.10
   4  -2  -3   16.50    5.50
   3  -2  -3 1007.20   38.50
   3  -2  -3 1013.00   34.50
  -3   2   3  942.11   37.80
   2  -2  -3 1631.14   51.19
   2  -2  -3 1564.24   53.89
  -2   2   3 1640.74   53.69
   1  -2  -3  819.32   28.80
   1  -2  -3  780.92   30.00
  -1   2   3  819.02   28.60
   0  -2  -3  324.27   15.40
   0   2   3  309.47   12.70
  -1  -2  -3   10.10    3.80
   1   2   3   10.20    2.20
  -2  -2  -3  424.16   21.70
  -2  -2  -3  408.36   21.10
   2   2   3  374.56   16.20
  -3  -2  -3   56.99    9.70
  -3  -2  -3   80.59   12.50
  -4  -2  -3  206.08   22.30
  -4  -2  -3  170.68   18.70
  -5  -2  -3   24.20    8.30
  -5  -2  -3   13.00    7.00
  -6  -2  -3    9.90    7.50
   6   2   3   -2.90    6.10
   8  -3  -3   32.60   10.70
  -8   3   3   13.00    8.20
   7  -3  -3    3.10    4.90
  -7   3   3   -2.10    3.70
   6  -3  -3   98.59   15.60
   6  -3  -3  102.09   11.10
  -6   3   3   89.29   14.70
   5  -3  -3  127.69    9.50
  -5   3   3  112.09   15.20
   4  -3  -3  696.33   25.50
   4  -3  -3  510.75   29.00
  -4   3   3  711.83   31.40
   3  -3  -3   64.89    9.50
   3  -3  -3   67.59    7.00
  -3   3   3   67.49    8.90
   2  -3  -3  798.72   32.20
   2  -3  -3  746.33   27.80
  -2   3   3  786.92   30.10
   1  -3  -3  103.79   11.00
   1  -3  -3  115.69    8.30
  -1   3   3  114.19    7.50
   0  -3  -3    1.80    2.50
   0  -3  -3    5.80    3.40
   0   3   3    5.20    2.10
  -1  -3  -3    3.90    3.50
  -1  -3  -3    0.60    2.60
   1   3   3    1.70    1.00
  -2  -3  -3  145.79   16.00
   2   3   3  129.69    6.50
  -3  -3  -3   25.40    8.00
  -3  -3  -3   37.50    8.70
  -4  -3  -3   20.80    7.00
  -4  -3  -3   48.30   11.20
  -5  -3  -3   65.59   15.10
  -5  -3  -3   61.19   12.90
  -6  -3  -3   10.00    8.10
   6   3   3   56.19   16.50
   8  -4  -3    0.10    5.70
  -8   4   3   -1.20    4.80
   7  -4  -3   24.30    9.10
  -7   4   3   27.80    9.00
   6  -4  -3  331.87   24.60
  -6   4   3  306.07   23.60
   5  -4  -3   80.69    8.30
   5  -4  -3   77.19   13.20
  -5   4   3   89.39   13.80
   4  -4  -3  157.98    9.50
  -4   4   3  134.89   14.90
   3  -4  -3  232.58   16.10
   3  -4  -3  202.48   10.90
  -3   4   3  197.28   13.90
   2  -4  -3  141.39   14.30
   2  -4  -3  139.19    9.10
  -2   4   3  114.89    9.30
   1  -4  -3   31.70    5.80
   1  -4  -3   43.60    8.10
  -1   4   3   34.80    5.00
   0  -4  -3   27.30    6.10
   0  -4  -3   30.40    7.50
   0   4   3   30.30    3.30
  -1  -4  -3  182.08   18.80
  -1  -4  -3  164.58   15.80
  -2  -4  -3  538.15   29.70
  -2  -4  -3  539.35   28.40
  -3  -4  -3  153.58   17.70
  -3  -4  -3  163.68   20.30
  -4  -4  -3    5.30    6.00
  -4  -4  -3   16.60    8.10
  -5  -4  -3   87.59   17.10
   8  -5  -3    1.00    6.20
  -8   5   3    6.70    6.40
   7  -5  -3   91.19   16.30
  -7   5   3   92.49   17.40
   6  -5  -3  142.49   19.50
  -6   5   3  177.18   22.10
   5  -5  -3  171.58   20.40
  -5   5   3  166.78   19.40
   4  -5  -3  333.67   22.60
   4  -5  -3  331.97   14.80
  -4   5   3  330.27   21.50
   3  -5  -3  283.57   14.10
  -3   5   3  317.37   18.80
   2  -5  -3  876.71   32.50
  -2   5   3  833.82   33.30
   1  -5  -3    2.40    2.70
   1  -5  -3    4.30    3.20
  -1   5   3   -2.30    1.60
   0  -5  -3  149.79   14.30
  -1  -5  -3  289.27   20.90
  -1  -5  -3  291.77   19.40
  -2  -5  -3    8.40    4.90
  -2  -5  -3   16.50    6.50
  -3  -5  -3  172.48   21.40
  -3  -5  -3  206.28   22.60
  -4  -5  -3  108.19   18.20
  -4  -5  -3   83.29   15.10
  -5  -5  -3    1.80    5.50
   8  -6  -3   35.80   12.50
   7  -6  -3  110.39   18.40
  -7   6   3  135.29   20.70
   6  -6  -3  251.17   26.70
  -6   6   3  238.68   26.70
   5  -6  -3   41.20   11.00
  -5   6   3   30.60    8.80
   4  -6  -3    0.90    3.90
  -4   6   3    0.40    3.20
   3  -6  -3  844.12   31.60
   3  -6  -3  854.61   40.80
  -3   6   3  825.62   36.50
   2  -6  -3  406.16   20.10
   2  -6  -3  409.36   25.90
  -2   6   3  405.06   20.30
   1  -6  -3  225.78   15.40
   1  -6  -3  252.37   19.60
   0  -6  -3  109.99   15.70
   0  -6  -3  122.99   13.80
  -1  -6  -3   19.60    7.60
  -1  -6  -3    8.80    5.30
  -2  -6  -3  280.57   21.80
  -2  -6  -3  289.47   23.90
  -3  -6  -3    7.90    6.50
  -3  -6  -3    0.90    5.30
  -4  -6  -3    7.20    7.00
   7  -7  -3   22.80   10.40
   6  -7  -3    1.80    5.60
   5  -7  -3  120.79   18.10
  -5   7   3   92.59   15.60
   4  -7  -3  109.19   17.20
   3  -7  -3  629.24   35.70
   2  -7  -3  234.68   24.70
   2  -7  -3  206.48   14.40
   1  -7  -3   50.09   12.30
   1  -7  -3   57.49    9.80
   0  -7  -3  376.26   27.80
   0  -7  -3  424.96   25.10
  -1  -7  -3  129.39   17.30
  -1  -7  -3  161.28   22.10
  -2  -7  -3  111.39   17.00
  -2  -7  -3   94.99   17.90
  -3  -7  -3   -2.40    4.90
   7  -8  -3   67.09   17.80
   6  -8  -3   52.59   15.00
   5  -8  -3    5.00    6.70
   4  -8  -3    1.30    5.80
   3  -8  -3   45.50   11.50
   2  -8  -3   65.99   14.50
   1  -8  -3  207.68   24.80
   1  -8  -3  165.58   17.90
   0  -8  -3    6.70    5.10
   0  -8  -3    2.70    6.10
  -1  -8  -3  100.29   18.70
  -1  -8  -3   90.69   15.30
  -2  -8  -3   22.10   10.10
   6  -9  -3   -2.40    6.40
   5  -9  -3    3.50    6.90
   4  -9  -3   23.40   10.20
   3  -9  -3    3.70    5.80
   2  -9  -3    7.80    6.60
   1  -9  -3   12.40    8.60
   0  -9  -3    3.80    5.20
   0  -9  -3    0.20    6.20
  -1  -9  -3    0.30    6.80
   4 -10  -3   47.30   13.90
   3 -10  -3    1.10    6.90
   2 -10  -3   66.59   16.40
   0 -10   4   -0.10    6.80
   2   9  -4  172.38   21.10
  -2  -9   4  138.89   20.50
  -1  -9   4  114.99   18.00
   0  -9   4    7.90    7.30
   1  -9   4    5.40    6.10
   2  -9   4   -0.80    5.10
   2  -9   4    3.10    5.00
   3  -9   4    4.30    5.70
   4  -9   4   42.50   12.30
   3   8  -4   -4.30    6.10
  -3  -8   4    4.60    6.30
   2   8  -4    6.70    6.10
  -2  -8   4    4.90    5.90
   1   8  -4   10.90    5.80
  -1  -8   4    3.10    6.00
   0  -8   4   40.40    9.80
   1  -8   4    1.80    4.70
   1  -8   4    6.40    4.70
   2  -8   4   17.90    7.10
   2  -8   4   16.40    6.80
   3  -8   4   15.70    6.70
   3  -8   4   17.40    7.80
   4  -8   4   28.70   10.60
  -4  -7   4    2.80    4.80
  -3  -7   4   -0.50    5.30
   2   7  -4  262.57   24.80
  -2  -7   4  235.78   19.80
   1   7  -4   43.90    9.00
  -1  -7   4   24.50    7.60
   0   7  -4   28.70    7.00
   0  -7   4   36.90    8.70
   0  -7   4   40.70    8.60
   1  -7   4   10.90    5.40
   1  -7   4   10.80    5.60
   2  -7   4    1.50    4.20
   2  -7   4    4.80    4.20
   3  -7   4  507.35   27.90
   3  -7   4  543.35   32.40
   4  -7   4   60.29   11.00
   5  -7   4   38.00    9.80
  -5  -6   4   17.40    8.60
  -4  -6   4  131.79   18.40
  -3  -6   4   92.29   14.90
   2   6  -4  200.28   19.80
  -2  -6   4  199.68   16.60
   1   6  -4  165.08   16.20
  -1  -6   4  178.08   17.90
  -1  -6   4  158.58   15.60
   0   6  -4  118.59   12.20
   0  -6   4  100.29   12.30
   0  -6   4  119.69   13.70
  -1   6  -4   26.50    5.10
   1  -6   4   20.10    5.90
   1  -6   4   32.60    7.80
   2  -6   4  123.69   13.80
   2  -6   4  132.29   16.40
   3  -6   4   11.90    5.10
   4  -6   4   49.10    9.70
   5  -6   4    2.70    4.30
   6  -6   4    4.30    5.40
   6   5  -4    2.50    7.30
   6   5  -4   13.30    9.40
  -6  -5   4   -1.80    5.00
  -5  -5   4   90.89   16.60
  -4  -5   4  139.19   19.40
  -3  -5   4  488.45   23.60
  -3  -5   4  519.65   28.90
   2   5  -4   15.70    6.60
  -2  -5   4    4.80    4.00
  -2  -5   4   19.80    5.70
   1   5  -4 1077.59   42.20
  -1  -5   4 1109.79   42.90
  -1  -5   4 1139.19   43.10
   0   5  -4  375.36   18.10
   0  -5   4  347.77   19.80
   0  -5   4  366.26   19.00
  -1   5  -4   -0.40    1.40
   1  -5   4    3.90    3.10
   1  -5   4    9.40    4.20
  -2   5  -4   27.00    3.90
   2  -5   4   27.50    6.00
   2  -5   4   25.90    7.40
   3  -5   4   64.09    9.50
   4  -5   4   14.60    5.70
   5  -5   4   96.19   13.90
   6  -5   4   40.20   10.30
   7  -5   4   44.70   13.30
   6   4  -4    6.40    6.40
   6   4  -4    5.90    7.20
  -6  -4   4   14.00    8.90
  -5  -4   4    5.00    5.30
  -4  -4   4   16.60    6.70
  -4  -4   4   17.50    5.40
  -3  -4   4    7.30    3.80
  -3  -4   4   10.00    4.70
   2   4  -4   17.60    5.50
  -2  -4   4   22.60    5.90
  -2  -4   4   20.30    5.30
   1   4  -4  380.86   19.60
  -1  -4   4  430.76   19.90
  -1  -4   4  392.86   20.30
   0   4  -4   28.20    5.10
   0  -4   4   28.40    6.00
   0  -4   4   39.60    6.00
  -1   4  -4   48.70    5.80
   1  -4   4   57.99    9.20
   1  -4   4   46.70    6.30
  -2   4  -4  204.28    9.90
   2  -4   4  172.88   11.30
  -3   4  -4   33.80    4.40
   3  -4   4   46.10    7.70
   4  -4   4  425.76   22.80
   5  -4   4    8.40    5.30
   6  -4   4   38.20   10.10
   7  -4   4   19.20    9.00
   7   3  -4    8.80    8.70
   7   3  -4    6.00    6.40
  -7  -3   4    4.30    7.50
   6   3  -4   57.29   13.20
   6   3  -4   64.89   14.20
  -6  -3   4   70.19   14.80
   5   3  -4   43.90   11.30
   5   3  -4   44.30   10.90
  -5  -3   4   42.20    8.50
  -5  -3   4   29.80    8.90
   4   3  -4   67.89   11.60
  -4  -3   4   63.49   10.00
  -4  -3   4   58.69   10.40
  -3  -3   4   80.49   11.20
  -3  -3   4   82.69   10.20
   2   3  -4   42.50    7.40
  -2  -3   4   27.60    5.60
  -2  -3   4   25.20    5.50
   1   3  -4    8.00    3.40
  -1  -3   4    5.60    2.90
  -1  -3   4    4.00    2.40
   0  -3   4   62.49    8.30
   0  -3   4   74.69    5.50
  -1   3  -4   16.10    3.40
   1  -3   4    7.20    2.40
   1  -3   4   12.40    4.40
  -2   3  -4   42.50    5.20
   2  -3   4   38.00    5.50
   3  -3   4  645.64   26.90
  -4   3  -4   15.50    4.00
   4  -3   4   27.30    6.50
   5  -3   4  210.38   16.50
   6  -3   4    5.00    5.30
   7  -3   4   10.60    7.60
   7   2  -4  101.09   18.20
   7   2  -4  117.59   17.80
  -7  -2   4  150.48   23.10
   6   2  -4   -0.50    4.60
   6   2  -4    3.90    5.30
  -6  -2   4    4.80    5.10
  -6  -2   4   -1.40    3.00
   5   2  -4   23.70    7.40
   5   2  -4   23.70    7.90
  -5  -2   4   27.70    7.30
  -5  -2   4   22.00    7.50
   4   2  -4   94.39   12.20
   4   2  -4  108.69   13.80
  -4  -2   4  113.69   13.00
  -4  -2   4   93.39   13.00
   3   2  -4  430.26   22.30
  -3  -2   4  423.56   21.20
  -3  -2   4  471.65   22.40
   2   2  -4 1428.16   49.80
  -2  -2   4 1431.26   47.80
  -2  -2   4 1403.86   49.30
   1   2  -4  542.85   22.20
  -1  -2   4  541.35   23.40
  -1  -2   4  528.95   19.50
   0   2  -4  220.88    7.80
   0   2  -4  207.98   11.20
   0  -2   4  224.18   13.10
   0  -2   4  208.38    7.80
  -1   2  -4  173.98    9.90
   1  -2   4  173.48    7.70
  -3   2  -4  716.13   28.20
   3  -2   4  710.63   28.90
  -4   2  -4   18.90    4.90
  -4   2  -4   10.20    4.40
   4  -2   4   21.80    6.40
  -5   2  -4  377.06   23.50
  -5   2  -4  376.56   20.50
   5  -2   4  352.26   22.60
   6  -2   4    2.10    4.60
   7  -2   4   -1.00    5.90
   8   1  -4    5.30    6.70
   8   1  -4    7.60    8.50
  -8  -1   4    3.40    6.10
  -8  -1   4    3.50    6.60
   7   1  -4    2.70    5.50
   7   1  -4    2.60    6.00
  -7  -1   4   -0.30    5.10
  -7  -1   4    8.70    6.00
   6   1  -4   69.49   12.10
   6   1  -4   70.29   13.70
  -6  -1   4   79.09   13.80
  -6  -1   4   44.90    9.60
   5   1  -4    3.30    4.10
   5   1  -4    1.20    2.90
  -5  -1   4   -0.80    2.50
  -5  -1   4   -1.50    2.80
   4   1  -4  524.05   25.40
   4   1  -4  525.65   26.30
  -4  -1   4  492.75   25.70
  -4  -1   4  527.95   25.80
   3   1  -4  106.89   11.00
   3   1  -4   84.19    9.80
  -3  -1   4  104.79   11.00
  -3  -1   4  107.49   11.50
   2   1  -4   21.80    4.10
   2   1  -4   21.10    4.50
  -2  -1   4   26.10    4.50
  -2  -1   4   29.50    5.60
  -1   1  -4 5361.96  153.28
   1  -1   4 5284.27  153.18
   1  -1   4 5426.46  159.98
  -2   1  -4   -0.70    1.40
  -2   1  -4    0.70    2.00
   2  -1   4    3.70    2.10
   2  -1   4    1.10    2.40
  -3   1  -4    0.50    2.20
  -3   1  -4    0.90    2.10
   3  -1   4    1.20    2.40
  -4   1  -4  164.98   13.50
  -4   1  -4  135.09   13.90
   4  -1   4  142.89   15.20
  -5   1  -4   22.30    7.60
  -5   1  -4   18.50    5.80
   5  -1   4   14.20    6.50
  -6   1  -4  101.89   16.30
   6  -1   4   80.49   14.60
  -7   1  -4    5.20    6.20
   7  -1   4   23.00   10.50
   8   0  -4   52.09   12.20
   8   0  -4   52.29   13.30
  -8   0   4   54.59   13.40
   7   0  -4   83.99   13.60
   7   0  -4   72.39   14.50
  -7   0   4   73.39   14.80
  -7   0   4   81.59   14.10
   6   0  -4  130.29   15.30
   6   0  -4  142.69   18.90
  -6   0   4  109.69   16.20
  -6   0   4  120.89   15.80
   5   0  -4   66.89   10.00
   5   0  -4   54.29   10.30
  -5   0   4   77.99   11.90
  -5   0   4   92.69   13.30
   4   0  -4   96.79   10.70
   4   0  -4  102.39   12.10
  -4   0   4  114.19   12.80
  -4   0   4  132.99   13.90
   3   0  -4  160.88   11.20
   3   0  -4  144.59   10.60
  -3   0   4  156.18   11.10
  -3   0   4  145.39   11.40
   2   0  -4 2809.02   86.59
   2   0  -4 2836.82   87.89
  -2   0   4 2923.21   89.79
  -1   0   4 3319.67  101.19
   0   0  -4  479.75   16.60
   0   0   4  470.45   20.30
  -1   0  -4  904.01   31.00
  -1   0  -4  889.51   33.10
   1   0   4  906.51   33.50
  -2   0  -4 3967.40  122.89
  -2   0  -4 4093.49  122.29
   2   0   4 4006.40  123.19
  -3   0  -4    3.80    3.30
  -3   0  -4    4.50    3.20
  -4   0  -4  246.28   17.10
  -4   0  -4  238.98   17.80
   4   0   4  270.77   19.00
  -5   0  -4  267.47   19.20
  -5   0  -4  266.67   20.90
   5   0   4  254.47   20.50
  -6   0  -4   69.29   14.30
   6   0   4   82.29   15.80
  -7   0  -4    3.60    7.10
   7   0   4   21.40   10.70
   8  -1  -4  168.98   20.00
   8  -1  -4  158.78   22.60
  -8   1   4  175.98   23.30
   7  -1  -4   39.50    8.80
   7  -1  -4   56.39   12.80
  -7   1   4   51.69   11.90
   6  -1  -4  366.76   21.50
   6  -1  -4  372.96   25.40
  -6   1   4  371.06   24.40
   5  -1  -4    0.10    2.70
   5  -1  -4   -0.90    2.50
  -5   1   4    4.00    3.70
   4  -1  -4 1532.45   53.69
   4  -1  -4 1609.64   57.19
  -4   1   4 1548.95   57.09
   3  -1  -4  140.49    9.80
   3  -1  -4  139.09   10.50
  -3   1   4   81.99   10.80
   2  -1  -4 1362.16   45.30
  -2   1   4 1329.17   46.70
   1  -1  -4  267.37   13.40
   1  -1  -4  251.77   12.40
  -1   1   4  266.67   13.60
   0  -1  -4   35.10    4.90
   0   1   4   36.70    5.20
  -1  -1  -4  254.27   14.60
   1   1   4  251.67   12.90
  -2  -1  -4    5.50    3.40
  -2  -1  -4    6.60    3.80
   2   1   4    7.90    3.00
  -3  -1  -4   23.80    6.50
  -3  -1  -4   13.20    5.00
   3   1   4   36.10    6.80
  -4  -1  -4    1.80    3.60
  -4  -1  -4    6.30    4.80
  -5  -1  -4   87.19   14.80
  -5  -1  -4  116.29   15.70
   5   1   4  124.99   18.70
  -6  -1  -4   28.90   10.00
   6   1   4   35.60   11.20
   8  -2  -4    5.90    5.60
  -8   2   4    8.80    6.50
   7  -2  -4    2.10    4.30
   7  -2  -4    9.20    5.10
  -7   2   4    4.10    5.30
   6  -2  -4   71.29   12.20
   6  -2  -4  109.49   12.60
  -6   2   4  120.19   15.60
   5  -2  -4  357.36   22.40
   5  -2  -4  341.97   18.50
   4  -2  -4   55.69    9.90
   4  -2  -4   69.99    8.20
  -4   2   4   58.09    9.80
   3  -2  -4  428.66   19.10
   3  -2  -4  431.36   21.50
  -3   2   4  407.86   21.20
   2  -2  -4 1608.04   54.19
   2  -2  -4 1603.94   52.59
  -2   2   4 1558.74   54.19
   1  -2  -4 2444.36   77.89
  -1   2   4 2531.05   77.39
   0  -2  -4   70.79    8.50
   0  -2  -4   54.59    7.60
   0   2   4   64.19    6.60
  -1  -2  -4   42.50    7.20
   1   2   4   57.29    6.20
  -2  -2  -4  159.08   15.90
  -2  -2  -4  153.18   12.60
   2   2   4  151.78    9.60
  -3  -2  -4  316.47   20.90
  -3  -2  -4  289.77   19.80
   3   2   4  316.37   16.40
  -4  -2  -4   26.20    8.10
  -4  -2  -4   41.60   10.10
  -5  -2  -4   12.30    6.40
  -5  -2  -4    6.40    5.80
  -6  -2  -4    3.70    7.10
   6   2   4   12.60    9.30
   8  -3  -4   51.79   13.10
  -8   3   4   48.90   12.40
   7  -3  -4    9.90    5.90
  -7   3   4   25.50    9.20
   6  -3  -4   55.29   12.20
   6  -3  -4   65.09    9.50
  -6   3   4   68.39   13.00
   5  -3  -4   63.49   11.60
   5  -3  -4   46.20    7.30
  -5   3   4   75.39   12.70
   4  -3  -4   65.59    8.20
   4  -3  -4   65.19   10.40
  -4   3   4   54.79    9.60
   3  -3  -4  845.32   32.30
   3  -3  -4  888.31   37.00
  -3   3   4  898.51   36.30
   2  -3  -4 1011.60   35.80
   2  -3  -4 1025.80   39.00
  -2   3   4  921.81   36.30
   1  -3  -4    4.90    3.20
   1  -3  -4    3.30    2.60
  -1   3   4    3.30    2.20
   0  -3  -4   40.70    7.20
   0  -3  -4   74.19   10.20
   0   3   4   64.29    5.30
  -1  -3  -4 1153.08   45.00
  -1  -3  -4 1175.88   45.50
   1   3   4 1122.39   36.50
  -2  -3  -4   36.90    8.30
  -3  -3  -4   81.29   12.70
  -3  -3  -4   92.29   14.10
  -4  -3  -4   -2.90    3.50
  -4  -3  -4    2.10    4.00
  -5  -3  -4    3.20    5.30
  -5  -3  -4    9.40    5.80
  -6  -3  -4   -0.80    6.30
   6   3   4    6.20    9.70
   8  -4  -4    2.50    5.50
  -8   4   4    3.10    5.90
   7  -4  -4   -7.60    3.60
  -7   4   4    6.80    6.00
   6  -4  -4   12.00    6.50
  -6   4   4   12.80    6.40
   5  -4  -4  149.69   18.40
   5  -4  -4  175.58   11.70
  -5   4   4  184.88   19.00
   4  -4  -4  165.98   18.10
   4  -4  -4  301.47   14.60
  -4   4   4  258.87   18.10
   3  -4  -4   -2.70    2.20
   3  -4  -4    2.00    2.30
  -3   4   4   -0.90    2.00
   2  -4  -4  127.49    9.70
   2  -4  -4  116.59   13.30
  -2   4   4  131.49   10.20
   1  -4  -4  494.35   23.50
   1  -4  -4  537.05   26.50
  -1   4   4  515.25   21.10
   0  -4  -4   53.39    9.60
   0  -4  -4   53.79    8.90
   0   4   4   53.19    5.20
  -1  -4  -4  231.68   16.70
  -1  -4  -4  223.28   17.30
  -2  -4  -4    7.90    4.90
  -2  -4  -4    5.70    4.00
  -3  -4  -4  103.89   16.50
  -3  -4  -4  116.99   16.10
  -4  -4  -4   25.70    8.80
  -4  -4  -4   20.90    8.80
  -5  -4  -4   12.00    6.80
  -5  -4  -4    8.10    8.10
   8  -5  -4    7.10    7.70
  -8   5   4   15.50    8.00
   7  -5  -4   90.89   16.50
  -7   5   4  123.99   19.90
   6  -5  -4  284.47   23.50
  -6   5   4  254.67   26.40
   5  -5  -4   60.99   12.90
  -5   5   4   84.89   14.00
   4  -5  -4   11.20    5.50
   4  -5  -4    0.90    2.60
  -4   5   4    8.70    4.90
   3  -5  -4    4.40    3.50
   3  -5  -4   13.00    4.00
  -3   5   4   19.00    5.70
   2  -5  -4   72.39   12.00
   2  -5  -4   53.79    8.00
  -2   5   4   56.79    8.10
   1  -5  -4  152.58   17.00
   1  -5  -4  157.38   12.40
  -1   5   4  143.49    9.30
   0  -5  -4  125.69   16.30
   0  -5  -4  118.49   13.50
  -1  -5  -4   -2.10    3.30
  -1  -5  -4    6.00    4.60
  -2  -5  -4  101.19   14.50
  -2  -5  -4  104.79   16.20
  -3  -5  -4   47.00   11.90
  -3  -5  -4   56.59   12.20
  -4  -5  -4  114.49   19.70
  -4  -5  -4  145.09   21.20
   8  -6  -4    7.60    8.20
  -8   6   4    1.60    6.30
   7  -6  -4   35.20   12.00
  -7   6   4   42.10   12.50
   6  -6  -4    5.10    5.70
  -6   6   4   17.70    8.10
   5  -6  -4  385.06   27.50
  -5   6   4  398.06   26.30
   4  -6  -4   -0.10    3.20
  -4   6   4    4.30    4.00
   3  -6  -4   19.40    7.10
   3  -6  -4   30.50    6.20
  -3   6   4   23.40    6.40
   2  -6  -4  700.03   36.20
   2  -6  -4  702.93   30.60
  -2   6   4  689.53   29.30
   1  -6  -4  487.85   25.30
   1  -6  -4  485.45   29.60
   0  -6  -4   84.99   12.30
   0  -6  -4  126.99   17.40
  -1  -6  -4    0.70    4.70
  -1  -6  -4   -0.30    3.60
  -2  -6  -4   46.00   12.00
  -2  -6  -4   57.89   12.90
  -3  -6  -4   -3.20    4.20
  -3  -6  -4   -0.80    5.10
  -4  -6  -4    8.10    7.40
  -4  -6  -4   23.20   11.10
   7  -7  -4   10.10    8.10
  -7   7   4   16.30    8.60
   6  -7  -4    1.90    5.60
  -6   7   4    1.30    4.60
   5  -7  -4   74.19   15.40
  -5   7   4  116.49   17.50
   4  -7  -4    0.40    4.50
  -4   7   4    5.70    4.50
   3  -7  -4   35.80   10.00
  -3   7   4   22.90    6.50
   2  -7  -4  398.26   27.60
   2  -7  -4  394.86   22.00
   1  -7  -4  222.18   17.00
   1  -7  -4  226.48   25.80
   0  -7  -4    5.20    5.80
   0  -7  -4    9.40    5.80
  -1  -7  -4   67.39   12.70
  -1  -7  -4   53.79   13.40
  -2  -7  -4   44.90   12.80
  -2  -7  -4   28.40    8.90
  -3  -7  -4   67.59   15.50
  -3  -7  -4   68.19   15.90
   6  -8  -4    3.50    6.60
   5  -8  -4    2.30    6.20
   4  -8  -4  101.69   17.90
   3  -8  -4   19.50    8.50
   2  -8  -4    4.60    6.30
   1  -8  -4   -2.70    3.90
   1  -8  -4    4.70    6.40
   0  -8  -4   10.40    7.30
   0  -8  -4   16.30    8.80
  -1  -8  -4   43.00   10.90
  -1  -8  -4   52.59   14.60
  -2  -8  -4   -2.40    6.00
  -2  -8  -4   -3.20    5.80
   5  -9  -4   -1.20    6.20
   4  -9  -4   14.70    8.30
   3  -9  -4   -0.10    4.70
   2  -9  -4    0.30    5.80
   1  -9  -4    9.10    7.80
   0  -9  -4   15.60   10.40
   0  -9  -4   23.40    9.40
  -2  -9   5    8.70    8.10
   2  -9   5   50.39   11.90
   3  -9   5    0.80    5.10
   4  -9   5   36.30   10.70
   3   8  -5    3.60    6.50
  -3  -8   5   -1.80    5.20
   2   8  -5    6.10    6.10
  -2  -8   5   10.10    6.50
   1   8  -5   -0.30    4.80
  -1  -8   5    9.50    5.80
   0  -8   5   39.70   10.00
   1  -8   5   14.30    6.70
   1  -8   5   16.60    9.30
   2  -8   5    8.90    6.10
   3  -8   5   -1.00    4.50
   4  -8   5    9.00    7.40
   5  -8   5   23.50   10.50
   4   7  -5    2.00    6.30
  -4  -7   5    7.60    6.70
   3   7  -5  113.89   16.50
  -3  -7   5  164.68   20.40
   2   7  -5   49.00   11.10
  -2  -7   5   30.40    8.60
   1   7  -5   -3.10    3.70
  -1  -7   5    2.60    4.00
  -1  -7   5    3.90    4.10
   0   7  -5    5.90    4.30
   0  -7   5   12.40    5.60
   0  -7   5    1.70    4.00
   1  -7   5  258.37   19.80
   1  -7   5  259.07   17.70
   2  -7   5   22.50    7.60
   2  -7   5   10.60    5.10
   3  -7   5    7.20    5.60
   4  -7   5   60.99   14.00
   5   6  -5  164.48   22.60
  -5  -6   5  126.59   20.10
   4   6  -5   36.60   10.80
  -4  -6   5   51.79   12.60
   3   6  -5    6.60    5.20
  -3  -6   5   -0.90    3.70
   2   6  -5  188.28   18.60
  -2  -6   5  192.78   16.00
  -2  -6   5  176.18   14.50
   1   6  -5  200.38   18.70
  -1  -6   5  185.58   14.60
  -1  -6   5  195.78   15.60
   0   6  -5   69.99    9.70
   0  -6   5   67.59    9.80
   0  -6   5   60.29   10.40
  -1   6  -5  279.87   15.00
   1  -6   5  275.67   16.80
   1  -6   5  298.47   20.50
   2  -6   5  132.99   16.50
   2  -6   5  130.99   13.40
   3  -6   5   25.20    8.30
   3  -6   5   35.00    7.80
   6   5  -5  143.99   22.70
   6   5  -5  172.58   23.20
  -6  -5   5  190.28   26.10
   5   5  -5    0.40    5.50
  -5  -5   5    2.80    5.30
   4   5  -5   24.60    8.90
  -4  -5   5   38.70   10.30
   3   5  -5   -0.20    3.30
  -3  -5   5    7.50    4.40
  -3  -5   5    8.90    5.10
   2   5  -5 1246.48   48.20
  -2  -5   5 1150.18   46.10
  -2  -5   5 1185.08   47.10
   1   5  -5    4.40    3.00
  -1  -5   5    9.00    4.20
  -1  -5   5   11.70    4.80
   0   5  -5    4.10    2.90
   0  -5   5    3.40    3.60
   0  -5   5    9.70    3.40
  -1   5  -5   86.69    9.10
   1  -5   5  111.09   10.70
   1  -5   5   76.29   11.60
  -2   5  -5  418.26   18.90
   2  -5   5  508.95   28.20
   2  -5   5  539.75   22.50
   3  -5   5   80.69   10.40
   3  -5   5   85.09   14.00
   4  -5   5   64.29   10.10
   5  -5   5  131.29   18.20
   6   4  -5   31.20    9.80
   6   4  -5   26.60   10.00
  -6  -4   5   30.40   10.70
   5   4  -5   26.60    9.70
   5   4  -5   30.80    9.30
  -5  -4   5   36.60   10.10
   4   4  -5  159.88   18.40
  -4  -4   5  145.99   15.70
  -4  -4   5  175.78   19.20
   3   4  -5    9.30    5.10
  -3  -4   5   12.80    5.00
  -3  -4   5    7.60    4.50
   2   4  -5    3.60    3.80
  -2  -4   5    3.10    3.00
  -2  -4   5    1.50    2.80
   1   4  -5   78.89    9.70
  -1  -4   5   93.49    9.60
  -1  -4   5  103.49   12.60
   0   4  -5  560.94   23.40
   0  -4   5  520.05   21.00
   0  -4   5  537.95   26.40
  -1   4  -5   45.50    6.10
   1  -4   5   55.29    6.20
   1  -4   5   35.80    7.50
  -3   4  -5    2.90    1.80
   3  -4   5    1.70    2.70
   4  -4   5  133.49   14.10
   5  -4   5  225.18   17.60
   6  -4   5   41.30   12.90
   7   3  -5   17.90    9.40
   7   3  -5   16.50    8.90
  -7  -3   5    9.00    6.50
   6   3  -5   23.50    8.50
   6   3  -5   30.80   10.40
  -6  -3   5   33.20    8.40
  -6  -3   5   23.80    8.50
   5   3  -5   97.19   15.10
   5   3  -5  150.48   19.10
  -5  -3   5  145.59   15.90
  -5  -3   5  127.09   17.20
   4   3  -5   11.90    5.10
   4   3  -5    8.30    5.10
  -4  -3   5   25.50    7.50
  -4  -3   5    8.50    4.40
  -3  -3   5  112.39   13.10
  -3  -3   5  113.49   12.70
   2   3  -5  199.58   13.80
  -2  -3   5  213.48   14.30
  -2  -3   5  189.78   12.40
   1   3  -5   46.30    7.50
  -1  -3   5   42.90    5.40
  -1  -3   5   27.30    6.10
   0   3  -5  141.49    9.90
   0  -3   5  140.49   14.10
   0  -3   5  146.69    7.10
  -1   3  -5  356.56   16.90
   1  -3   5  371.46   21.00
   1  -3   5  367.06   13.90
  -2   3  -5  153.08   10.10
   2  -3   5  158.38    9.30
   2  -3   5  150.18   15.70
  -3   3  -5   15.60    4.20
   3  -3   5   16.60    4.60
  -4   3  -5   23.90    5.50
   4  -3   5   29.40    6.60
   5  -3   5   24.60    7.40
   6  -3   5  273.47   21.40
   7   2  -5   -0.80    4.70
   7   2  -5    1.60    6.30
  -7  -2   5    5.90    6.60
  -7  -2   5    5.00    5.00
   6   2  -5    0.70    3.90
   6   2  -5   -1.40    4.40
  -6  -2   5   -2.20    3.20
  -6  -2   5   -2.90    4.30
   5   2  -5  128.19   16.30
   5   2  -5  165.98   18.00
  -5  -2   5  100.19   13.70
  -5  -2   5  184.88   20.10
   4   2  -5   65.79   10.60
   4   2  -5   64.89   10.40
  -4  -2   5   60.89   10.10
  -4  -2   5   52.39    9.50
   3   2  -5  620.54   27.30
  -3  -2   5  615.94   28.70
  -3  -2   5  632.44   27.50
   2   2  -5   34.80    6.70
   2   2  -5   18.30    4.00
  -2  -2   5   30.90    5.10
  -2  -2   5   38.90    7.20
   1   2  -5 2691.63   84.09
   1   2  -5 2667.13   78.49
  -1  -2   5 2639.74   86.39
  -1  -2   5 2688.63   78.59
   0   2  -5  435.56   18.50
   0  -2   5  362.56   19.90
  -1   2  -5  512.75   21.00
   1  -2   5  463.55   15.70
   1  -2   5  462.15   15.70
   1  -2   5  442.06   23.10
  -2   2  -5   63.39    7.90
   2  -2   5   71.79    7.10
   2  -2   5   64.79   10.00
  -3   2  -5   -1.10    2.30
  -3   2  -5    1.10    2.10
   3  -2   5   -0.50    1.80
  -4   2  -5    7.50    4.20
  -4   2  -5   10.50    4.70
   4  -2   5    3.70    3.60
  -5   2  -5    3.90    3.80
  -5   2  -5    2.60    3.70
   5  -2   5   -0.60    3.70
   6  -2   5   14.00    7.20
   7  -2   5   -0.60    6.70
   8   1  -5    0.70    6.70
   8   1  -5    3.60    7.40
  -8  -1   5    4.40    7.20
  -8  -1   5   -1.40    5.70
   7   1  -5   12.30    7.80
   7   1  -5    5.00    6.00
  -7  -1   5   11.60    7.10
  -7  -1   5    4.00    5.30
   6   1  -5   29.70    9.10
   6   1  -5   15.50    6.90
  -6  -1   5   16.10    6.40
  -6  -1   5   13.80    6.90
   5   1  -5   24.20    6.80
   5   1  -5   27.30    7.80
  -5  -1   5   19.80    6.30
  -5  -1   5   20.70    7.10
   4   1  -5   10.60    4.90
   4   1  -5    7.20    3.90
  -4  -1   5    0.80    2.70
  -4  -1   5    3.50    3.30
   3   1  -5  944.71   37.10
   3   1  -5  939.31   35.80
  -3  -1   5  964.60   38.20
  -3  -1   5  917.71   35.70
   2   1  -5   81.39    6.80
   2   1  -5  111.19   11.00
  -2  -1   5  107.99   11.50
  -2  -1   5  106.19    7.40
   1   1  -5 2779.82   87.79
   1   1  -5 2798.82   81.79
   1   1  -5 2856.71   83.09
  -1  -1   5 2831.32   89.49
   0   1  -5  330.87   16.30
   0  -1   5  311.67   17.30
  -1   1  -5  146.09    7.30
  -1   1  -5  141.19   10.10
   1  -1   5  142.99    7.20
   1  -1   5  128.19   10.80
  -2   1  -5 1059.29   39.40
   2  -1   5 1044.50   41.70
   2  -1   5 1055.89   36.70
  -3   1  -5  111.79   11.90
  -3   1  -5  100.69   11.70
   3  -1   5  126.59   15.00
   3  -1   5  109.59   11.60
  -4   1  -5  120.69   13.80
  -4   1  -5  119.39   14.50
   4  -1   5  136.09   15.30
  -5   1  -5  283.87   21.20
  -5   1  -5  314.87   20.70
   5  -1   5  296.07   21.50
  -6   1  -5    1.40    5.00
   6  -1   5    5.00    6.00
  -7   1  -5   -3.30    6.20
   7  -1   5   -4.20    8.10
   8   0  -5   17.80    9.20
   8   0  -5   32.10   10.20
  -8   0   5   21.80    9.20
   7   0  -5   32.30    9.00
   7   0  -5   22.30    8.40
  -7   0   5   11.10    6.20
   6   0  -5   39.70    8.70
   6   0  -5   50.89   10.90
  -6   0   5   50.59   10.10
   5   0  -5   20.70    6.30
   5   0  -5   28.80    7.50
  -5   0   5   31.20    8.50
  -5   0   5   23.00    6.90
   4   0  -5   97.39   11.90
   4   0  -5  120.69   13.00
  -4   0   5  110.09   13.70
   3   0  -5    1.30    2.60
   3   0  -5    5.00    3.00
  -3   0   5    6.40    3.70
   2   0  -5  144.39   10.50
   2   0  -5  146.29    9.30
   1   0  -5  160.38    8.30
   1   0  -5  148.59   10.30
  -1   0   5  172.48   11.70
   0   0  -5  290.87   15.40
   0   0  -5  273.47   11.60
   0   0   5  299.77   15.90
  -1   0  -5 1132.09   41.30
  -1   0  -5 1139.09   37.90
   1   0   5 1091.39   41.10
  -2   0  -5   31.80    6.00
  -2   0  -5   20.10    5.30
   2   0   5   27.20    6.00
  -3   0  -5  206.08   15.20
  -3   0  -5  207.98   14.70
   3   0   5  223.68   15.70
  -4   0  -5   16.00    6.10
  -4   0  -5   26.40    7.30
   4   0   5   29.10    8.10
   4   0   5   22.60    6.70
  -5   0  -5    9.10    5.80
  -5   0  -5    8.80    5.50
   5   0   5    6.70    5.60
  -6   0  -5   33.80   10.00
  -6   0  -5   39.10   10.90
   6   0   5   59.99   14.40
   8  -1  -5   35.30   11.10
   8  -1  -5   36.10    9.90
  -8   1   5   50.59   13.00
   7  -1  -5   25.40    8.40
   7  -1  -5   30.80    8.60
  -7   1   5   21.50    7.90
   6  -1  -5  492.05   26.70
  -6   1   5  566.34   31.20
   5  -1  -5   85.19   12.30
   5  -1  -5  110.59   13.00
  -5   1   5   98.69   13.50
   4  -1  -5   52.49    8.20
   4  -1  -5   42.70    8.10
   3  -1  -5  197.88   12.80
   3  -1  -5  212.88   13.70
  -3   1   5  197.68   14.30
   2  -1  -5  631.74   25.30
  -2   1   5  566.44   26.20
   1  -1  -5   19.80    3.90
   1  -1  -5   18.30    4.30
  -1   1   5   17.40    4.60
   0  -1  -5   71.49    8.60
   0  -1  -5   98.69    7.30
   0   1   5   97.39    9.70
  -1  -1  -5  232.98   14.50
  -1  -1  -5  198.28   12.50
   1   1   5  229.88   13.30
  -2  -1  -5  354.26   19.70
  -2  -1  -5  370.96   20.70
   2   1   5  362.76   18.80
  -3  -1  -5   81.19   11.70
  -3  -1  -5  131.19   15.40
   3   1   5  119.49   12.90
  -4  -1  -5  783.02   38.70
  -4  -1  -5  852.31   39.10
   4   1   5  810.52   36.00
  -5  -1  -5   79.39   14.50
  -5  -1  -5   66.09   12.50
   5   1   5   74.89   14.90
  -6  -1  -5   94.29   17.80
  -6  -1  -5   65.59   13.90
   6   1   5   61.59   14.60
   8  -2  -5    5.60    6.80
  -8   2   5    4.30    6.10
   7  -2  -5   22.70    7.20
   7  -2  -5   14.30    6.30
  -7   2   5    9.30    6.60
   6  -2  -5  243.78   19.50
   6  -2  -5  204.88   15.80
  -6   2   5  203.08   22.00
   5  -2  -5  135.69   13.50
   5  -2  -5  136.69   16.00
  -5   2   5  143.89   17.20
   4  -2  -5   85.99   10.50
   4  -2  -5   65.39   10.30
  -4   2   5   83.39   11.90
   3  -2  -5   39.30    6.70
   3  -2  -5   35.00    7.20
  -3   2   5   41.20    7.60
   2  -2  -5 2691.13   86.09
   2  -2  -5 2725.73   85.39
  -2   2   5 2685.43   86.59
   1  -2  -5  538.45   23.40
   1  -2  -5  525.35   23.60
  -1   2   5  512.95   22.80
   0  -2  -5  214.58   14.10
   0  -2  -5  224.18   13.70
   0   2   5  244.18   12.90
  -1  -2  -5  828.32   34.40
   1   2   5  853.41   31.50
  -2  -2  -5  433.86   23.00
  -2  -2  -5  318.27   21.50
   2   2   5  470.75   20.10
  -3  -2  -5    1.70    3.20
  -3  -2  -5   -3.20    3.20
   3   2   5    0.40    2.70
  -4  -2  -5   46.00   11.50
  -4  -2  -5   32.70    8.60
  -5  -2  -5   28.30   10.00
  -5  -2  -5   18.20    8.00
  -6  -2  -5   22.20    9.20
  -6  -2  -5   18.40    9.10
   6   2   5   39.90   13.90
   8  -3  -5   21.30    9.10
  -8   3   5   10.10    7.80
   7  -3  -5  108.49   17.60
  -7   3   5  115.39   17.40
   6  -3  -5   15.70    5.70
   6  -3  -5   16.50    7.60
  -6   3   5   19.20    7.30
   5  -3  -5   75.69   10.10
   5  -3  -5   77.39   12.80
  -5   3   5   89.59   13.80
   4  -3  -5   13.70    4.40
   4  -3  -5    8.30    4.20
  -4   3   5    2.50    3.60
   3  -3  -5   -0.10    3.00
   3  -3  -5    0.70    2.10
  -3   3   5    1.90    2.60
   2  -3  -5  130.49   12.50
   2  -3  -5  138.29   14.00
  -2   3   5  144.29   11.40
   1  -3  -5 1329.97   48.50
   1  -3  -5 1280.97   47.20
  -1   3   5 1308.27   45.30
   0  -3  -5   81.79   10.70
   0  -3  -5   95.59   12.00
   0   3   5  101.79    7.70
  -1  -3  -5   86.39   12.10
  -1  -3  -5   60.19    9.40
   1   3   5   77.99    7.50
  -2  -3  -5   33.40    8.30
  -2  -3  -5   50.19    9.60
  -3  -3  -5   81.49   13.40
  -3  -3  -5  102.69   15.70
  -4  -3  -5   54.59   12.40
  -4  -3  -5   25.00    8.50
  -5  -3  -5    9.10    6.40
  -5  -3  -5   -1.90    5.40
   8  -4  -5    4.00    5.60
  -8   4   5   -0.30    5.50
   7  -4  -5    2.50    5.20
  -7   4   5   12.30    7.40
   6  -4  -5   69.99   13.90
  -6   4   5   87.59   15.30
   5  -4  -5  238.58   20.00
   5  -4  -5  244.38   15.20
  -5   4   5  230.98   19.10
   4  -4  -5  124.49   11.70
   4  -4  -5   83.59   12.80
  -4   4   5  102.29   14.00
   3  -4  -5   88.59   12.30
   3  -4  -5   95.59   10.30
  -3   4   5   91.39   12.00
   2  -4  -5    2.50    2.80
   2  -4  -5    6.10    4.10
  -2   4   5    6.30    3.30
   1  -4  -5   55.99   10.00
   1  -4  -5   50.79    8.60
  -1   4   5   63.19    7.90
   0  -4  -5  202.78   16.00
   0  -4  -5  225.88   15.90
   0   4   5  202.58   10.90
  -1  -4  -5   24.00    6.60
  -1  -4  -5   21.40    7.00
  -2  -4  -5   11.70    5.40
  -2  -4  -5    8.80    5.30
  -3  -4  -5   48.10   10.70
  -3  -4  -5   39.10   10.30
  -4  -4  -5   49.00   12.00
  -4  -4  -5   65.79   13.90
  -5  -4  -5    5.60    7.40
  -5  -4  -5    6.90    7.20
   8  -5  -5    3.60    7.10
  -8   5   5   10.60    8.20
   7  -5  -5  117.49   20.40
  -7   5   5  123.99   19.40
   6  -5  -5    3.40    5.30
  -6   5   5   -1.10    4.40
   5  -5  -5  531.35   32.60
  -5   5   5  571.34   31.90
   4  -5  -5   70.69    8.90
   4  -5  -5   78.99   12.90
  -4   5   5   61.29   11.10
   3  -5  -5   15.20    4.80
   3  -5  -5   13.40    5.80
  -3   5   5   19.40    5.90
   2  -5  -5   46.10   10.10
   2  -5  -5   33.40    6.90
  -2   5   5   32.50    6.30
   1  -5  -5   33.70    7.40
   1  -5  -5   31.50    8.80
  -1   5   5   44.10    6.20
   0  -5  -5   39.00    9.10
   0  -5  -5   32.60    8.50
  -1  -5  -5   15.40    7.20
  -1  -5  -5   19.40    7.20
  -2  -5  -5  188.48   22.40
  -2  -5  -5  155.18   18.70
  -3  -5  -5  108.69   16.80
  -3  -5  -5   96.89   16.80
  -4  -5  -5    0.40    5.60
  -4  -5  -5   -5.40    4.70
   7  -6  -5   20.80    9.80
  -7   6   5    7.00    6.50
   6  -6  -5   46.20   12.40
  -6   6   5   52.79   13.10
   5  -6  -5   43.50   11.10
  -5   6   5   26.00    9.00
   4  -6  -5  137.29   17.90
  -4   6   5  168.38   18.20
   3  -6  -5   62.59    9.30
   3  -6  -5   54.39   12.30
  -3   6   5   66.99   10.60
   2  -6  -5   89.29   13.90
   2  -6  -5  109.39   12.60
  -2   6   5   99.19   12.50
   1  -6  -5   82.79   11.80
   1  -6  -5   73.09   14.30
   0  -6  -5  118.89   17.90
   0  -6  -5  156.78   18.40
  -1  -6  -5  209.38   21.50
  -1  -6  -5  167.38   22.00
  -2  -6  -5   71.19   15.00
  -2  -6  -5   58.99   12.50
  -3  -6  -5    2.90    6.10
  -3  -6  -5    4.00    6.70
   7  -7  -5   77.99   16.90
  -7   7   5   73.19   17.10
   6  -7  -5    8.80    7.00
  -6   7   5   -2.50    4.50
   5  -7  -5   -0.70    4.80
  -5   7   5   -2.80    3.80
   4  -7  -5    6.70    6.00
  -4   7   5    4.40    4.40
   3  -7  -5   18.60    7.60
   2  -7  -5   66.59   13.70
   2  -7  -5   76.39   11.70
   1  -7  -5   95.99   14.20
   1  -7  -5   73.79   15.90
   0  -7  -5   24.70   10.10
   0  -7  -5   11.30    6.40
  -1  -7  -5   10.80    7.10
  -1  -7  -5    5.40    5.00
  -2  -7  -5   92.49   17.40
  -2  -7  -5   53.39   13.80
   6  -8  -5    9.40    8.10
  -6   8   5   12.80    7.40
   5  -8  -5   35.80   11.20
  -5   8   5   27.70    9.10
   4  -8  -5   88.19   16.70
   3  -8  -5   11.10    6.90
   2  -8  -5    9.90    6.50
   1  -8  -5    8.80    7.10
   0  -8  -5    2.50    5.40
   0  -8  -5    1.50    6.50
  -1  -8  -5   11.20    7.90
  -1  -8  -5    5.00    7.20
   5  -9  -5  113.39   21.30
   4  -9  -5   -0.90    5.40
   3  -9  -5   20.10    9.30
   2  -9  -5   -2.90    4.90
   1  -9  -5    7.20    8.90
   0  -9  -5   -2.50    6.20
   0  -9  -5    8.60    6.40
   2  -9   6   38.80   11.20
   3  -9   6   27.50   10.80
   4  -9   6   11.60    8.30
   3   8  -6    5.80    7.20
   2   8  -6   47.70   11.90
   0  -8   6   62.59   12.10
   1  -8   6   -0.20    4.40
   2  -8   6   10.60    6.40
   3  -8   6   13.60    8.00
   4  -8   6    8.00    6.40
   5  -8   6   84.89   18.30
   4   7  -6   19.30    8.90
  -4  -7   6   20.60    8.20
   3   7  -6   49.30   12.00
  -3  -7   6   47.50   10.70
   2   7  -6    4.10    5.80
  -2  -7   6    6.70    5.50
   1   7  -6   27.30    8.10
  -1  -7   6   15.70    7.30
  -1  -7   6   17.60    6.70
   0   7  -6   19.50    6.20
   0  -7   6   23.20    7.70
   1  -7   6    8.70    5.00
   2  -7   6   44.70   11.10
   3  -7   6  177.18   23.30
   4  -7   6    3.30    6.50
   5  -7   6  103.49   20.00
   5   6  -6   20.90    9.30
  -5  -6   6   14.70    7.80
   4   6  -6    0.90    5.00
  -4  -6   6    7.50    6.40
   3   6  -6   13.00    7.30
  -3  -6   6    2.30    3.70
   2   6  -6   -0.30    3.20
  -2  -6   6   17.80    6.20
  -2  -6   6   -1.40    3.10
   1   6  -6 1354.66   52.29
  -1  -6   6 1367.36   51.19
  -1  -6   6 1380.36   55.29
   0   6  -6   23.30    6.20
   0  -6   6   12.50    4.60
   0  -6   6   15.80    6.30
  -1   6  -6  159.28   12.80
   1  -6   6  202.68   21.10
   2  -6   6    4.90    4.40
   3  -6   6   39.90   11.00
   4  -6   6  240.18   26.70
   5  -6   6    5.30    6.30
   6   5  -6    0.10    6.80
   6   5  -6    4.20    7.20
  -6  -5   6    3.40    6.50
   5   5  -6    9.90    7.70
   5   5  -6   12.30    6.90
  -5  -5   6    0.90    5.10
   4   5  -6    0.90    4.20
  -4  -5   6    9.70    5.30
  -4  -5   6    8.10    4.90
   3   5  -6  169.48   19.60
  -3  -5   6  192.58   19.50
  -3  -5   6  193.58   19.10
   2   5  -6   69.29   11.10
  -2  -5   6   55.29   10.30
  -2  -5   6   54.69    9.40
   1   5  -6   26.80    6.50
  -1  -5   6   24.50    5.60
  -1  -5   6   19.20    6.40
   0   5  -6   48.80    8.10
   0  -5   6   40.30    8.60
   0  -5   6   51.29    7.00
  -1   5  -6   85.89    9.60
   1  -5   6   99.29   14.30
   1  -5   6   88.89    8.80
   2  -5   6 1314.57   55.79
   3  -5   6   24.10    8.10
   4  -5   6    8.10    6.20
   6   4  -6   99.89   17.40
   6   4  -6  121.59   18.60
  -6  -4   6   84.59   16.00
   5   4  -6   35.60    9.70
   5   4  -6   30.40   10.00
  -5  -4   6   33.40   10.00
  -5  -4   6   32.70    8.60
   4   4  -6   32.70    8.70
   4   4  -6   53.59   11.20
  -4  -4   6   24.30    7.20
  -4  -4   6   32.20    8.50
   3   4  -6   -0.40    3.80
  -3  -4   6    2.30    3.10
  -3  -4   6    1.10    3.10
   2   4  -6  187.48   14.60
  -2  -4   6  181.98   14.80
  -2  -4   6  175.48   12.50
   1   4  -6    5.70    3.50
  -1  -4   6   17.00    5.70
  -1  -4   6    6.80    3.10
   0   4  -6 2124.29   68.89
   0  -4   6 2092.19   63.39
   0  -4   6 1985.20   73.29
  -1   4  -6  137.99   10.40
   1  -4   6  156.48    8.30
   1  -4   6  155.28   17.10
  -2   4  -6  212.58   12.70
   2  -4   6  209.18   11.30
  -3   4  -6   68.99   12.30
   3  -4   6   97.69   11.90
   3  -4   6   72.39   13.40
   4  -4   6   35.10   10.00
   7   3  -6   71.69   15.40
   7   3  -6   87.49   16.40
  -7  -3   6   75.29   16.60
   6   3  -6   91.39   16.00
   6   3  -6   49.30   12.00
  -6  -3   6   88.59   14.10
  -6  -3   6   69.39   13.80
   5   3  -6   66.19   12.50
   5   3  -6   52.59   10.80
  -5  -3   6   68.59   12.20
  -5  -3   6   56.49   11.10
   4   3  -6   32.90    8.20
   4   3  -6   46.40    9.30
  -4  -3   6   51.29    9.40
  -4  -3   6   49.20    9.40
   3   3  -6  148.89   15.50
   3   3  -6  163.38   13.00
  -3  -3   6  174.58   12.90
  -3  -3   6  179.58   14.30
   2   3  -6    7.80    3.90
  -2  -3   6    6.20    2.80
  -2  -3   6    8.80    4.20
   1   3  -6   63.39    9.00
  -1  -3   6   74.29    5.30
  -1  -3   6   44.70    8.30
   0   3  -6   97.79   10.60
   0  -3   6  103.59   12.80
  -1   3  -6   76.89    9.10
  -2   3  -6  695.23   28.30
   2  -3   6  669.13   33.80
   2  -3   6  675.53   24.70
  -3   3  -6   40.60    7.00
   3  -3   6   40.30    6.60
   3  -3   6   38.30    8.90
   4  -3   6   -4.40    3.10
   4  -3   6    1.70    2.80
   7   2  -6   35.50   11.20
   7   2  -6    9.70    7.10
  -7  -2   6   32.80   10.90
  -7  -2   6   18.40    7.60
   6   2  -6    5.20    5.60
   6   2  -6    0.30    4.60
  -6  -2   6    0.60    4.80
  -6  -2   6    4.50    4.80
   5   2  -6    4.10    4.80
   5   2  -6    6.50    5.50
  -5  -2   6   10.30    5.80
  -5  -2   6   10.30    5.60
   4   2  -6  123.69   14.10
   4   2  -6  161.38   17.00
  -4  -2   6  128.79   14.30
  -4  -2   6  144.89   16.20
   3   2  -6   19.00    5.10
  -3  -2   6   15.20    5.40
  -3  -2   6   30.50    6.00
   2   2  -6  137.59    8.80
   2   2  -6  136.59   13.90
  -2  -2   6  157.28   12.60
  -2  -2   6  132.29    8.70
   1   2  -6  358.46   12.70
   1   2  -6  365.46   13.00
   1   2  -6  340.47   18.40
  -1  -2   6  359.76   20.30
  -1   2  -6  142.09   10.70
   1  -2   6  129.69   14.30
  -2   2  -6   91.19   10.50
   2  -2   6   85.59   12.00
   2  -2   6   87.09    6.50
  -3   2  -6  595.84   27.10
   3  -2   6  587.34   25.00
   3  -2   6  554.74   30.70
  -4   2  -6  146.89   15.40
   4  -2   6  128.99   17.70
   4  -2   6  166.78   16.30
   5  -2   6   81.39   14.20
   5  -2   6   96.99   14.00
   8   1  -6   26.80    9.80
   8   1  -6   24.90   11.30
  -8  -1   6   21.70    9.30
   7   1  -6   33.80    9.90
   7   1  -6   31.00    9.90
  -7  -1   6   51.59   11.90
  -7  -1   6   31.50   10.60
   6   1  -6  182.98   19.80
   6   1  -6  128.19   18.10
  -6  -1   6  129.69   17.30
  -6  -1   6  143.39   17.90
   5   1  -6   22.30    6.90
   5   1  -6   19.90    7.20
  -5  -1   6   12.00    5.70
  -5  -1   6   10.30    5.40
   4   1  -6    2.40    3.40
   4   1  -6    5.80    4.00
  -4  -1   6    0.00    2.90
  -4  -1   6   10.00    4.20
   3   1  -6  422.46   20.30
   3   1  -6  441.76   22.60
  -3  -1   6  437.66   23.70
   2   1  -6   76.69    6.20
   2   1  -6   70.29    9.00
  -2  -1   6   73.29   10.40
   1   1  -6  314.57   11.40
   1   1  -6  291.07   16.30
   1   1  -6  308.97   11.40
   0   1  -6  572.14   25.70
   0  -1   6  647.44   28.70
  -1   1  -6  142.39    7.40
  -1   1  -6  152.48   14.00
   1  -1   6  139.59    7.30
   1  -1   6  163.68   12.80
  -2   1  -6   84.09   10.60
   2  -1   6   89.39    7.30
   2  -1   6   83.49   11.90
  -3   1  -6  224.98   14.90
  -3   1  -6  239.78   16.50
   3  -1   6  249.38   15.30
   3  -1   6  258.07   18.50
  -4   1  -6    2.50    3.70
  -4   1  -6   11.50    5.50
   4  -1   6   17.20    6.20
   4  -1   6    9.00    5.40
  -5   1  -6  108.99   15.10
  -5   1  -6  125.69   17.30
   5  -1   6  114.69   16.10
   5  -1   6   92.09   15.10
   6  -1   6  231.48   25.90
   6  -1   6  229.08   26.20
   8   0  -6   21.00    9.80
   8   0  -6   20.80    9.00
  -8   0   6   24.70    9.20
   7   0  -6   13.80    7.40
   7   0  -6   25.30    9.20
  -7   0   6   22.00    8.10
   6   0  -6   59.89   11.70
   6   0  -6   75.49   11.90
  -6   0   6   50.89   10.70
   5   0  -6    2.10    3.50
   5   0  -6    0.20    3.60
  -5   0   6   -0.40    3.10
   4   0  -6 1038.20   41.60
   4   0  -6 1012.50   41.60
  -4   0   6 1087.79   44.90
   3   0  -6  117.19    9.50
   3   0  -6  122.59   13.00
  -3   0   6   92.79   11.60
   2   0  -6  294.77   16.70
   2   0  -6  292.47   14.10
  -2   0   6  271.97   17.10
   1   0  -6   27.10    5.80
   1   0  -6   15.60    3.20
  -1   0   6   12.30    4.40
   0   0  -6 1021.70   33.50
   0   0  -6 1029.70   39.30
   0   0   6 1019.20   39.80
  -1   0  -6   45.90    7.70
  -1   0  -6   33.00    5.30
   1   0   6   45.30    7.90
  -2   0  -6  231.88   16.00
  -2   0  -6  217.48   13.80
   2   0   6  233.98   15.90
  -3   0  -6   27.20    7.30
  -3   0  -6   25.70    6.70
   3   0   6   10.00    4.60
  -4   0  -6  181.58   19.70
  -4   0  -6  231.98   22.20
   4   0   6  207.08   17.10
   4   0   6  198.88   16.70
  -5   0  -6   -0.90    4.00
  -5   0  -6    0.30    4.50
   5   0   6    2.60    4.10
   5   0   6   -0.70    4.30
  -6   0  -6   35.00    9.80
  -6   0  -6   31.30   11.00
   6   0   6   24.10   10.20
   8  -1  -6   96.39   15.40
   8  -1  -6   46.90   12.40
  -8   1   6   59.59   13.50
   7  -1  -6    6.00    6.50
   7  -1  -6   18.60    7.70
  -7   1   6    8.30    5.80
   6  -1  -6  100.69   13.10
   6  -1  -6   90.89   14.10
  -6   1   6   86.29   14.20
   5  -1  -6 1691.43   64.59
   5  -1  -6 1747.93   62.59
  -5   1   6 1753.02   66.29
   4  -1  -6  487.75   24.60
   4  -1  -6  520.15   26.00
   3  -1  -6   10.10    4.00
   3  -1  -6    3.30    3.20
  -3   1   6    4.90    3.30
   2  -1  -6   13.50    4.00
   2  -1  -6   18.20    4.70
  -2   1   6   17.50    5.40
   1  -1  -6  204.08   11.70
   1  -1  -6  237.68   14.50
  -1   1   6  217.58   14.20
   0  -1  -6  563.94   26.20
   0   1   6  577.14   25.50
  -1  -1  -6  368.46   20.40
  -1  -1  -6  364.86   18.40
   1   1   6  347.47   19.00
  -2  -1  -6  321.37   19.40
  -2  -1  -6  344.67   21.20
   2   1   6  384.36   20.00
  -3  -1  -6    3.00    3.90
  -3  -1  -6    4.70    3.70
   3   1   6   -2.00    2.90
  -4  -1  -6    6.50    5.00
  -4  -1  -6    4.50    4.40
   4   1   6    1.30    3.90
  -5  -1  -6    7.60    6.30
  -5  -1  -6   -1.40    4.40
   5   1   6   -1.80    5.70
  -6  -1  -6   48.40   13.20
  -6  -1  -6   53.19   12.70
   6   1   6   33.60   12.70
   8  -2  -6    9.20    7.10
  -8   2   6   14.20    7.30
   7  -2  -6    3.20    5.10
   7  -2  -6    1.90    4.30
  -7   2   6    1.70    4.60
   6  -2  -6   29.60    8.90
   6  -2  -6   21.60    6.40
  -6   2   6   23.00    7.50
   5  -2  -6  222.68   18.10
   5  -2  -6  241.18   16.40
  -5   2   6  223.18   18.40
   4  -2  -6  754.32   34.50
   4  -2  -6  760.22   32.60
  -4   2   6  771.32   36.20
   3  -2  -6  447.56   22.00
   3  -2  -6  432.26   22.70
  -3   2   6  429.36   23.80
   2  -2  -6   28.80    6.30
   2  -2  -6   33.30    6.50
  -2   2   6   39.90    7.40
   1  -2  -6  117.29    9.60
   1  -2  -6  119.99   12.20
  -1   2   6  116.79    9.80
   0  -2  -6  295.57   17.80
   0  -2  -6  298.87   16.60
   0   2   6  275.87   15.70
  -1  -2  -6   11.70    4.40
  -1  -2  -6   -0.80    2.10
   1   2   6   11.00    3.60
  -2  -2  -6    5.90    4.20
  -2  -2  -6    6.50    4.60
   2   2   6    3.20    2.90
  -3  -2  -6  171.58   19.50
  -3  -2  -6  143.89   17.10
  -4  -2  -6  230.18   25.30
  -4  -2  -6  230.28   24.30
  -5  -2  -6   50.39   12.80
  -5  -2  -6   47.80   12.90
   8  -3  -6   22.90   10.30
  -8   3   6   24.90   10.00
   7  -3  -6    2.60    4.90
  -7   3   6   15.40    7.80
   6  -3  -6   36.60   10.00
   6  -3  -6   51.69    9.30
  -6   3   6   68.29   13.90
   5  -3  -6   75.49   10.40
   5  -3  -6   62.39   11.80
  -5   3   6   73.39   12.60
   4  -3  -6    2.70    3.60
   4  -3  -6   -2.00    2.70
  -4   3   6   -2.70    2.30
   3  -3  -6    1.50    2.50
   3  -3  -6    1.40    3.30
  -3   3   6    3.80    3.30
   2  -3  -6    0.00    2.40
   2  -3  -6    6.10    3.70
  -2   3   6    4.90    3.50
   1  -3  -6 1309.97   49.20
   1  -3  -6 1274.67   48.70
  -1   3   6 1312.17   46.60
   0  -3  -6   28.60    6.70
   0  -3  -6   39.20    8.20
   0   3   6   24.00    5.00
  -1  -3  -6   53.59    9.90
  -1  -3  -6   42.30    8.60
   1   3   6   44.60    6.40
  -2  -3  -6    6.80    4.50
  -2  -3  -6   15.70    6.30
  -3  -3  -6  209.98   24.10
  -3  -3  -6  242.08   23.80
  -4  -3  -6    8.60    6.10
  -4  -3  -6    1.10    5.00
  -5  -3  -6    4.90    6.10
  -5  -3  -6   15.20    8.50
   8  -4  -6   15.60    8.80
  -8   4   6   12.60    7.80
   7  -4  -6    0.00    5.20
  -7   4   6   -1.60    4.40
   6  -4  -6  376.16   27.10
  -6   4   6  333.17   25.50
   5  -4  -6  115.59   13.10
   5  -4  -6   82.89   13.90
  -5   4   6   92.59   14.30
   4  -4  -6    5.80    3.70
   4  -4  -6    7.50    5.30
  -4   4   6    3.70    4.40
   3  -4  -6  162.18   13.00
   3  -4  -6  184.58   19.00
  -3   4   6  180.88   14.50
   2  -4  -6   56.59    8.60
   2  -4  -6   51.19    9.60
  -2   4   6   51.89    8.60
   1  -4  -6  121.19   13.50
   1  -4  -6  121.29   15.20
  -1   4   6  124.59   10.30
   0  -4  -6  281.87   19.50
   0  -4  -6  314.87   20.90
  -1  -4  -6   89.19   13.80
  -1  -4  -6   86.29   13.50
  -2  -4  -6   22.60    8.20
  -2  -4  -6   20.70    7.40
  -3  -4  -6   -1.20    4.50
  -3  -4  -6    9.20    6.30
  -4  -4  -6   12.70    8.30
  -4  -4  -6   32.10   10.60
   8  -5  -6   -4.20    5.20
  -8   5   6   -3.60    5.30
   7  -5  -6    4.30    5.80
  -7   5   6   11.70    7.10
   6  -5  -6   75.89   14.50
  -6   5   6   67.39   13.50
   5  -5  -6   47.50   10.80
   5  -5  -6   38.40   10.00
  -5   5   6   42.60   10.70
   4  -5  -6   37.90    9.50
   4  -5  -6   36.10    7.30
  -4   5   6   46.50   10.10
   3  -5  -6   32.90    8.50
   3  -5  -6   47.60    8.20
  -3   5   6   36.50    8.40
   2  -5  -6   43.80   10.20
   2  -5  -6   46.40    8.80
  -2   5   6   47.60    8.10
   1  -5  -6  300.37   21.90
   1  -5  -6  277.67   19.20
   0  -5  -6   70.49   13.30
   0  -5  -6   35.40    9.30
  -1  -5  -6  149.19   19.30
  -1  -5  -6  190.38   22.90
  -2  -5  -6   33.50    9.70
  -2  -5  -6   35.60   10.70
  -3  -5  -6    3.80    6.40
  -3  -5  -6   12.40    6.40
  -4  -5  -6    1.90    6.10
  -4  -5  -6   -1.20    5.70
   7  -6  -6    4.80    7.30
  -7   6   6   10.80    7.70
   6  -6  -6    8.20    6.90
  -6   6   6   -1.60    4.00
   5  -6  -6   47.00   12.50
  -5   6   6   35.40    9.50
   4  -6  -6   27.00    9.40
   4  -6  -6   20.90    6.90
  -4   6   6   22.50    7.40
   3  -6  -6  146.89   19.40
   3  -6  -6  156.58   15.70
  -3   6   6  153.38   16.50
   2  -6  -6   97.99   13.00
   2  -6  -6   58.99   12.30
   1  -6  -6   14.50    6.10
   1  -6  -6   19.10    8.10
   0  -6  -6   59.59   13.00
   0  -6  -6   66.69   12.90
  -1  -6  -6  409.86   29.80
  -1  -6  -6  395.66   27.30
  -2  -6  -6   90.89   16.70
  -2  -6  -6   74.09   16.70
  -3  -6  -6   22.30   10.10
  -3  -6  -6   38.90   12.60
   7  -7  -6   27.90   12.20
  -7   7   6   35.10   11.40
   6  -7  -6  122.39   19.90
  -6   7   6  152.98   22.10
   5  -7  -6   88.89   17.00
  -5   7   6   98.49   15.80
   4  -7  -6   18.70    8.20
  -4   7   6   20.10    7.60
   3  -7  -6  234.68   25.70
   3  -7  -6  266.87   28.00
   2  -7  -6  212.48   21.00
   2  -7  -6  220.68   25.90
   1  -7  -6   15.30    8.10
   1  -7  -6   14.80    6.70
   0  -7  -6   58.99   14.00
   0  -7  -6   40.00   10.60
  -1  -7  -6  159.48   23.80
  -1  -7  -6  155.68   21.90
  -2  -7  -6   14.80    9.70
  -2  -7  -6   15.30    9.80
   6  -8  -6   35.60   12.30
  -6   8   6   58.59   14.20
   5  -8  -6    8.10    7.40
  -5   8   6   -1.40    4.40
   4  -8  -6   32.30   10.90
   3  -8  -6    9.40    7.10
   2  -8  -6   34.40   11.30
   1  -8  -6  115.99   20.30
   1  -8  -6  162.48   20.40
   0  -8  -6   22.90    8.50
   0  -8  -6   26.30   11.60
  -1  -8  -6    9.60    8.50
  -1  -8  -6   -0.80    6.70
   4  -9  -6   -2.70    5.30
   3  -9  -6    5.60    7.20
   2  -9  -6    8.00    8.20
   1  -9  -6   19.50   11.10
   1  -9   7    5.80    6.10
   2  -9   7    6.70    6.50
   3  -9   7   -1.60    5.90
   3   8  -7    6.60    7.50
   2   8  -7   13.40    7.80
   0  -8   7   12.50    7.20
   1  -8   7    9.90    6.70
   2  -8   7   -0.30    4.90
   3  -8   7    8.80    6.80
   4  -8   7   11.80    8.80
   4   7  -7    3.40    7.50
   3   7  -7   80.69   14.70
   2   7  -7   15.20    8.00
   1   7  -7   82.79   12.30
  -1  -7   7   62.09   12.10
   0  -7   7   58.59   12.40
   1  -7   7   64.09   12.60
   2  -7   7  323.97   25.70
   3  -7   7    1.80    4.90
   4  -7   7   22.90    9.20
   5  -7   7    4.10    7.30
   5   6  -7   17.30   10.30
   5   6  -7   28.30   16.00
  -5  -6   7   33.30   10.40
   4   6  -7    6.60    6.30
  -4  -6   7    1.40    5.20
   3   6  -7    7.80    5.30
  -3  -6   7    5.50    5.00
   2   6  -7   86.49   13.30
  -2  -6   7   80.99   13.40
   1   6  -7    1.60    4.00
  -1  -6   7    2.80    4.70
   0   6  -7 1433.86   53.39
   0  -6   7 1471.45   60.49
   1  -6   7    5.60    4.80
   2  -6   7  316.17   24.50
   3  -6   7   11.20    6.60
   4  -6   7    4.90    5.80
   5  -6   7    0.30    5.60
   6   5  -7   30.00   11.70
   6   5  -7   10.50    7.50
  -6  -5   7   25.20   10.30
   5   5  -7   11.00    7.90
   5   5  -7    7.10    7.70
  -5  -5   7    0.60    5.10
   4   5  -7   75.19   13.80
   4   5  -7   73.89   13.40
  -4  -5   7  100.49   14.90
  -4  -5   7  103.69   14.50
   3   5  -7   47.40   10.80
  -3  -5   7   57.09   10.30
  -3  -5   7   93.49   13.90
   2   5  -7  425.06   24.80
  -2  -5   7  419.56   25.70
  -2  -5   7  411.36   21.90
   1   5  -7    1.50    4.30
  -1  -5   7   -3.90    2.90
   0   5  -7  150.58   14.80
   0  -5   7  177.88   19.40
  -1   5  -7  271.57   16.10
   1  -5   7  242.98   19.70
   2  -5   7 1066.29   49.80
   3  -5   7  445.46   30.10
   4  -5   7  255.57   27.60
   5  -5   7  198.78   26.70
   6  -5   7  122.69   22.00
   6   4  -7   96.49   17.00
   6   4  -7   94.29   17.40
  -6  -4   7   76.99   15.20
   5   4  -7   35.50   10.30
   5   4  -7   33.70    9.50
  -5  -4   7   29.10    9.00
  -5  -4   7   31.80    9.40
   4   4  -7   -0.20    4.10
   4   4  -7   -2.60    3.70
  -4  -4   7    2.70    3.90
  -4  -4   7   -0.30    3.30
   3   4  -7   23.90    7.40
   3   4  -7   21.10    6.60
  -3  -4   7   31.70    8.20
  -3  -4   7   31.30    7.10
   2   4  -7  350.46   21.50
  -2  -4   7  350.46   22.60
  -2  -4   7  359.76   17.80
   1   4  -7  382.16   20.80
  -1  -4   7  338.27   16.20
  -1  -4   7  342.97   22.50
   0   4  -7  162.88   12.60
   0  -4   7  161.08   17.60
  -1   4  -7    7.10    3.70
   1  -4   7    0.00    3.20
  -2   4  -7  266.17   15.90
   2  -4   7  268.37   21.00
   3  -4   7   35.90    9.80
   4  -4   7   28.50    9.60
   5  -4   7    3.80    5.50
   6  -4   7    7.40    6.80
   7   3  -7   -3.50    6.10
   7   3  -7   -5.60    4.80
  -7  -3   7   10.30    8.30
   6   3  -7  129.89   18.60
   6   3  -7  115.29   17.40
  -6  -3   7  138.39   19.40
  -6  -3   7  116.89   16.90
   5   3  -7   93.99   14.40
   5   3  -7   87.19   13.80
  -5  -3   7   90.89   14.20
  -5  -3   7   87.19   13.80
   4   3  -7  104.89   13.70
   4   3  -7   56.39   10.50
  -4  -3   7   85.79   11.80
  -4  -3   7   63.99   11.10
   3   3  -7    3.30    3.50
   3   3  -7    5.20    4.50
  -3  -3   7    3.80    4.10
   2   3  -7  545.15   26.90
  -2  -3   7  542.85   21.70
  -2  -3   7  488.45   27.50
   1   3  -7   96.09    5.30
   1   3  -7   86.89   11.00
  -1  -3   7   80.19   11.50
  -1  -3   7   98.99    5.20
  -1   3  -7   18.40    5.00
  -2   3  -7   45.00    8.00
   2  -3   7   56.69   11.20
  -3   3  -7  408.16   21.90
   3  -3   7  426.26   27.70
   4  -3   7   47.60   11.40
   5  -3   7   36.00   10.90
   6  -3   7   -5.20    4.20
   7   2  -7    0.70    6.30
   7   2  -7    0.70    6.10
  -7  -2   7    0.70    5.10
  -7  -2   7   -0.30    4.60
   6   2  -7   20.40    8.00
   6   2  -7   24.70    8.70
  -6  -2   7   18.50    7.10
  -6  -2   7   23.90    8.10
   5   2  -7  162.38   18.00
   5   2  -7  163.78   18.40
  -5  -2   7  197.48   19.80
   4   2  -7   14.10    6.10
   4   2  -7   14.60    4.90
  -4  -2   7   23.40    6.70
  -4  -2   7   24.90    7.50
   3   2  -7   25.90    5.50
  -3  -2   7   24.10    5.40
  -3  -2   7   31.40    7.70
   2   2  -7   35.40    7.30
   2   2  -7   40.40    5.50
  -2  -2   7   43.50    9.00
   1   2  -7   21.40    5.90
  -1  -2   7   19.40    5.70
   0   2  -7   -1.90    1.90
   0  -2   7    3.10    3.00
  -1   2  -7   45.90    7.90
   1  -2   7   44.50    8.80
  -2   2  -7 1161.48   45.30
   2  -2   7 1204.38   50.19
  -3   2  -7    0.30    2.70
   3  -2   7    2.70    4.00
  -4   2  -7  202.78   16.00
   4  -2   7  178.68   21.50
   5  -2   7   90.09   15.90
   6  -2   7    5.90    6.00
   7   1  -7    5.50    6.70
   7   1  -7   -4.70    4.40
  -7  -1   7   -0.70    4.10
   6   1  -7   52.59   11.30
   6   1  -7   21.20    7.50
  -6  -1   7   13.50    6.20
   5   1  -7   25.60    8.30
   5   1  -7   25.00    7.30
  -5  -1   7   29.40    8.90
   4   1  -7  212.08   16.60
   4   1  -7  206.28   15.10
  -4  -1   7  205.88   16.90
   3   1  -7   44.70    7.00
  -3  -1   7   55.59   10.00
   2   1  -7   61.19    9.00
   2   1  -7   79.09    7.50
   1   1  -7 1478.15   52.79
   1   1  -7 1424.16   43.10
   1   1  -7 1448.85   43.20
  -1  -1   7 1490.65   54.89
   0   1  -7  727.83   31.60
   0  -1   7  736.63   33.60
  -1   1  -7   56.59    9.00
  -1   1  -7   46.30    4.80
   1  -1   7   29.40    7.20
   1  -1   7   54.49    5.00
  -2   1  -7   70.09   10.60
   2  -1   7   73.79    8.30
   2  -1   7   77.19   11.90
  -3   1  -7    0.30    2.80
  -3   1  -7    0.20    2.70
   3  -1   7   -2.10    2.80
   3  -1   7    1.70    3.60
  -4   1  -7   13.50    5.60
   4  -1   7   16.30    6.80
   4  -1   7    8.40    8.20
  -5   1  -7   54.89   11.20
   5  -1   7   26.60    8.80
   8   0  -7   46.60   11.80
   8   0  -7   36.90   11.70
  -8   0   7   12.50    8.00
   7   0  -7  191.88   22.70
   7   0  -7  178.68   20.30
  -7   0   7  182.18   22.60
   6   0  -7   94.19   13.80
   6   0  -7   93.89   14.90
  -6   0   7   83.59   13.90
   5   0  -7  235.38   18.30
   5   0  -7  286.87   19.50
  -5   0   7  289.07   21.60
   4   0  -7  112.99   13.20
   4   0  -7  113.19   13.40
  -4   0   7  129.39   16.10
   3   0  -7  133.69   12.90
   3   0  -7  110.79   13.00
   2   0  -7   -3.40    1.80
   2   0  -7    2.90    2.10
  -2   0   7    0.70    2.20
   1   0  -7   62.59    9.40
   1   0  -7   67.99    6.40
  -1   0   7   42.10    8.10
   0   0  -7  400.06   21.60
   0   0  -7  390.76   15.90
   0   0   7  387.46   21.90
  -1   0  -7  116.19   12.90
  -1   0  -7   91.39    7.60
   1   0   7  156.18   16.00
  -2   0  -7   85.39   10.20
  -2   0  -7   80.49   11.80
   2   0   7   86.49   12.20
  -3   0  -7  385.96   21.60
  -3   0  -7  397.16   24.30
   3   0   7  364.06   23.20
   3   0   7  375.36   22.10
  -4   0  -7    1.20    4.50
  -4   0  -7    2.40    4.80
   4   0   7    1.20    3.80
   4   0   7    1.10    4.50
  -5   0  -7   12.10    6.50
   8  -1  -7    6.80    7.70
   8  -1  -7   26.10    9.30
  -8   1   7    3.20    5.20
   7  -1  -7    1.40    5.50
   7  -1  -7   -0.50    4.60
  -7   1   7   -1.30    4.40
   6  -1  -7   56.69   11.10
   6  -1  -7  111.29   14.70
  -6   1   7   86.99   15.20
   5  -1  -7    2.70    4.20
   5  -1  -7   -3.50    3.00
  -5   1   7    1.80    3.90
   4  -1  -7  643.94   30.90
   4  -1  -7  668.43   31.00
  -4   1   7  659.03   33.60
   3  -1  -7  427.36   21.80
   3  -1  -7  446.16   23.00
  -3   1   7  435.26   24.40
   2  -1  -7   23.30    5.20
   2  -1  -7   27.70    6.30
  -2   1   7   22.70    6.00
   1  -1  -7  781.82   33.70
  -1   1   7  775.02   33.70
   0  -1  -7  300.27   15.90
   0   1   7  384.66   20.10
  -1  -1  -7   63.69   10.10
  -1  -1  -7   66.09    9.00
   1   1   7   50.79    8.70
  -2  -1  -7  696.33   31.40
  -2  -1  -7  666.23   33.90
   2   1   7  721.13   32.50
  -3  -1  -7  372.66   23.00
  -3  -1  -7  369.36   24.60
   3   1   7  328.77   21.00
  -4  -1  -7  119.19   17.70
  -4  -1  -7   99.39   15.30
  -5  -1  -7   -1.40    6.50
  -5  -1  -7    0.60    4.70
   5   1   7   -1.20    6.40
   8  -2  -7   48.30   13.90
  -8   2   7   52.99   13.50
   7  -2  -7   27.90    8.00
   7  -2  -7   21.40    8.90
  -7   2   7   32.20   10.70
   6  -2  -7   16.60    7.40
   6  -2  -7    9.10    5.30
  -6   2   7   13.90    6.40
   5  -2  -7  158.38   18.00
   5  -2  -7  199.38   18.80
  -5   2   7  170.68   19.70
   4  -2  -7   25.30    7.10
   4  -2  -7   14.80    5.40
  -4   2   7   26.70    8.20
   3  -2  -7    8.40    4.50
   3  -2  -7    3.00    3.40
  -3   2   7    3.40    3.80
   2  -2  -7   44.30    7.50
   2  -2  -7   55.09    9.20
  -2   2   7   66.99   10.80
   1  -2  -7   86.39   10.40
   1  -2  -7   96.79   12.00
  -1   2   7   93.59   11.20
   0  -2  -7   -0.60    2.50
   0  -2  -7   -0.50    2.20
   0   2   7   -0.30    2.00
  -1  -2  -7   67.49   11.50
  -1  -2  -7   61.89    9.70
   1   2   7   77.29   10.10
  -2  -2  -7  463.45   27.80
  -2  -2  -7  481.05   26.20
   2   2   7  468.35   23.70
  -3  -2  -7   89.59   13.70
  -3  -2  -7   67.99   12.40
  -4  -2  -7    4.80    6.10
  -4  -2  -7   14.10    7.50
  -5  -2  -7    3.90    5.80
  -5  -2  -7    5.70    5.90
   5   2   7   -2.10    7.80
   8  -3  -7   76.59   16.10
  -8   3   7   68.29   15.40
   7  -3  -7   -0.80    4.60
   7  -3  -7   -1.70    4.60
  -7   3   7   -2.10    4.10
   6  -3  -7   67.59   11.40
   6  -3  -7   79.79   13.90
  -6   3   7   77.99   14.50
   5  -3  -7  219.08   22.80
   5  -3  -7  196.28   15.30
  -5   3   7  204.78   23.00
   4  -3  -7    6.90    4.30
   4  -3  -7    6.60    4.00
  -4   3   7    5.20    4.10
   3  -3  -7   36.70    7.90
   3  -3  -7   31.00    7.80
  -3   3   7   44.60    9.40
   2  -3  -7   15.10    5.40
   2  -3  -7    9.20    4.50
  -2   3   7    9.30    4.20
   1  -3  -7  100.39   12.90
   1  -3  -7   90.59   12.30
  -1   3   7   75.89   10.40
   0  -3  -7    5.50    4.40
   0  -3  -7    6.20    4.30
   0   3   7    9.50    3.70
  -1  -3  -7  118.39   15.00
  -1  -3  -7  110.79   14.60
  -2  -3  -7  663.43   35.80
  -2  -3  -7  626.44   33.00
  -3  -3  -7   45.00   11.80
  -3  -3  -7   29.50    9.30
  -4  -3  -7  106.39   18.10
  -4  -3  -7   60.49   13.10
   8  -4  -7   -5.40    6.00
  -8   4   7    3.90    6.70
   7  -4  -7    5.60    6.40
  -7   4   7   -0.80    5.00
   6  -4  -7    2.20    4.90
   6  -4  -7    3.80    4.60
  -6   4   7   -0.60    4.10
   5  -4  -7   32.50    8.00
   5  -4  -7   27.20    8.90
  -5   4   7   33.00    9.10
   4  -4  -7  151.18   15.60
   4  -4  -7  183.18   19.80
  -4   4   7  148.59   18.10
   3  -4  -7   91.09   13.70
   3  -4  -7   98.69   12.30
  -3   4   7   79.49   11.50
   2  -4  -7   -2.70    2.70
   2  -4  -7   -0.20    3.10
  -2   4   7   -0.50    2.90
   1  -4  -7    5.40    4.10
   1  -4  -7   16.90    6.50
  -1   4   7    9.90    4.40
   0  -4  -7   42.10    9.60
   0  -4  -7   30.60    8.60
  -1  -4  -7   20.20    6.70
  -1  -4  -7   12.60    6.70
  -2  -4  -7   60.49   12.00
  -2  -4  -7   91.09   15.70
  -3  -4  -7   53.09   12.70
  -3  -4  -7   52.59   12.20
  -4  -4  -7    2.40    6.00
  -4  -4  -7    2.50    5.70
   7  -5  -7   -0.20    6.00
  -7   5   7    6.80    5.80
   6  -5  -7   19.60    8.70
  -6   5   7   37.50   10.90
   5  -5  -7   53.59   12.80
   5  -5  -7   69.99   11.10
  -5   5   7   58.89   12.60
   4  -5  -7    3.00    4.20
   4  -5  -7    1.50    4.30
  -4   5   7    7.30    4.80
   3  -5  -7  393.26   25.90
   3  -5  -7  376.06   22.30
  -3   5   7  381.96   23.30
   2  -5  -7  106.59   13.90
   2  -5  -7   89.79   14.80
  -2   5   7  109.29   12.90
   1  -5  -7    2.30    4.60
   1  -5  -7   15.40    6.50
   0  -5  -7  481.05   30.10
   0  -5  -7  499.35   29.50
  -1  -5  -7   21.10    7.80
  -1  -5  -7   14.90    7.80
  -2  -5  -7   74.89   14.20
  -2  -5  -7   95.29   16.50
  -3  -5  -7  204.98   25.80
  -3  -5  -7  267.17   28.40
   7  -6  -7    3.40    6.40
  -7   6   7   -0.90    5.40
   6  -6  -7   35.40   12.00
  -6   6   7   45.40   11.80
   5  -6  -7    6.90    7.00
  -5   6   7    5.90    5.20
   4  -6  -7    1.10    3.80
   4  -6  -7   -2.20    4.10
  -4   6   7    5.80    4.60
   3  -6  -7   29.70    7.70
   3  -6  -7   15.50    8.60
  -3   6   7   47.00    9.30
   2  -6  -7  117.39   15.50
   2  -6  -7  100.09   16.50
   1  -6  -7  314.37   25.20
   1  -6  -7  390.56   25.10
   0  -6  -7  140.89   20.20
   0  -6  -7  172.08   21.50
  -1  -6  -7   10.50    7.80
  -1  -6  -7   14.00    7.10
  -2  -6  -7   15.70    8.70
  -2  -6  -7   14.20    8.60
   6  -7  -7   -5.50    5.00
  -6   7   7    5.60    6.60
   5  -7  -7   53.19   13.80
  -5   7   7   51.29   11.80
   4  -7  -7   37.20   10.70
  -4   7   7   62.59   17.50
   3  -7  -7   -0.60    5.10
   3  -7  -7    6.70    5.40
   2  -7  -7    2.40    5.20
   2  -7  -7   -0.10    4.70
   1  -7  -7   11.60    6.80
   1  -7  -7   21.40    9.50
   0  -7  -7    7.70    6.50
   0  -7  -7    3.90    6.40
  -1  -7  -7   20.70   10.30
  -1  -7  -7   15.40    8.50
   5  -8  -7   12.40    7.70
   4  -8  -7  104.19   19.30
   3  -8  -7   13.60    8.60
   2  -8  -7   24.90   12.30
   2  -8  -7   15.70    8.90
   1  -8  -7   35.30   10.10
   1  -8  -7   30.70   11.40
   0  -8  -7   73.19   16.50
   0  -8  -7   67.09   14.60
   1  -9   8    3.60    6.40
   2  -9   8   15.80    8.70
   3   8  -8    8.90    8.10
   2   8  -8   18.50    8.40
  -1  -8   8   17.40    8.40
   0  -8   8    5.90    6.20
   1  -8   8    7.10    6.60
   2  -8   8    9.60    6.70
   3  -8   8   24.20    9.50
   4   7  -8   50.69   13.60
   3   7  -8   30.30   10.20
   2   7  -8   15.30    7.40
  -2  -7   8   27.00    9.30
   1   7  -8  108.19   14.70
  -1  -7   8  114.09   17.00
   0  -7   8   97.59   16.30
   1  -7   8   19.50    8.30
   2  -7   8   39.20   11.20
   3  -7   8    2.00    5.00
   4  -7   8  127.79   21.10
   5   6  -8   91.19   18.40
   4   6  -8   19.80    8.10
   3   6  -8   54.19   12.20
  -3  -6   8   51.59   11.10
   2   6  -8    6.00    5.20
  -2  -6   8   10.40    6.20
   1   6  -8  187.68   19.10
  -1  -6   8  157.28   19.30
   0   6  -8  296.97   19.00
   0  -6   8  286.57   22.90
   1  -6   8    0.90    4.00
   2  -6   8    0.60    4.20
   3  -6   8   45.00   12.10
   4  -6   8    2.70    5.10
   5  -6   8   29.00   11.30
   5   5  -8   21.60    9.00
   4   5  -8   62.69   13.00
  -4  -5   8   99.89   15.80
   3   5  -8   17.60    7.60
  -3  -5   8   10.50    6.20
   2   5  -8   94.69   14.30
  -2  -5   8   78.59   13.50
   1   5  -8  357.16   22.40
  -1  -5   8  430.16   27.00
   0   5  -8  161.68   16.10
   0  -5   8  135.29   17.80
  -1   5  -8   45.70    8.20
   1  -5   8   41.20    9.60
   2  -5   8  447.36   29.90
   3  -5   8   16.30    7.80
   4  -5   8  107.29   19.30
   5  -5   8    0.90    5.60
   6   4  -8    0.40    5.40
   6   4  -8   -7.70    4.80
  -6  -4   8    3.00    6.30
  -6  -4   8    7.70    6.50
   5   4  -8   18.00    8.00
   5   4  -8   11.30    7.80
  -5  -4   8   23.40    8.80
  -5  -4   8   15.20    6.80
   4   4  -8  277.27   21.50
  -4  -4   8  235.48   18.10
  -4  -4   8  252.17   20.70
   3   4  -8   27.30    8.60
  -3  -4   8   25.90    8.50
   2   4  -8    4.10    4.60
  -2  -4   8    0.80    3.90
   1   4  -8  194.68   18.40
  -1  -4   8  183.08   20.50
   0   4  -8    1.40    2.60
   0  -4   8    7.70    4.60
  -1   4  -8   83.99   11.10
   1  -4   8   71.09   12.20
  -2   4  -8  102.89   12.40
   2  -4   8   76.09   14.00
   3  -4   8   -3.10    3.50
   4  -4   8   -2.80    3.90
   5  -4   8   19.00    9.20
   7   3  -8   77.49   15.70
   7   3  -8   91.39   17.30
  -7  -3   8   84.89   16.50
  -7  -3   8  259.77   30.40
   6   3  -8   64.99   13.70
   6   3  -8   54.79   12.60
  -6  -3   8   86.69   15.40
  -6  -3   8   54.29   12.20
   5   3  -8    2.40    5.00
   5   3  -8    1.30    4.90
  -5  -3   8    0.70    3.70
  -5  -3   8   -0.70    4.00
   4   3  -8  377.46   21.70
   4   3  -8  382.56   24.90
  -4  -3   8  337.07   24.20
  -4  -3   8  361.46   21.30
   3   3  -8  231.38   21.40
   3   3  -8  189.48   13.10
  -3  -3   8  175.08   19.10
  -3  -3   8  177.88   12.40
   2   3  -8    4.00    3.50
  -2  -3   8    2.90    3.80
   1   3  -8   47.50    9.20
  -1  -3   8   44.20    9.80
   0   3  -8    5.90    3.70
   0  -3   8    0.20    1.90
  -1   3  -8   69.89   10.30
   1  -3   8   78.79   13.30
  -2   3  -8  147.19   15.10
   2  -3   8  105.39   15.90
  -3   3  -8   22.20    6.80
   3  -3   8   16.30    7.60
   4  -3   8   53.39   12.30
   5  -3   8   -0.10    4.40
   7   2  -8   29.10   11.10
   7   2  -8   33.80   10.60
  -7  -2   8   20.40    8.70
   6   2  -8    4.00    5.30
   6   2  -8    4.20    5.60
  -6  -2   8    8.50    6.50
  -6  -2   8    8.30    5.90
   5   2  -8  150.28   18.30
   5   2  -8  185.08   19.40
  -5  -2   8  163.78   17.80
  -5  -2   8  184.28   20.40
   4   2  -8   -0.90    4.10
   4   2  -8    6.80    4.10
  -4  -2   8    4.00    5.00
   3   2  -8  148.89   16.60
   3   2  -8  129.59   10.30
  -3  -2   8  167.88   18.50
   2   2  -8  199.78   12.20
   2   2  -8  178.58   17.30
  -2  -2   8  137.89   17.00
   1   2  -8   20.10    5.80
   0   2  -8  129.89   13.90
   0  -2   8  105.89   14.50
  -1   2  -8  380.46   21.70
   1  -2   8  351.96   23.50
  -2   2  -8   34.10    8.10
   2  -2   8   37.50    9.30
  -3   2  -8   22.70    6.90
   3  -2   8   10.00    5.70
  -4   2  -8    5.40    4.80
   4  -2   8    6.20    5.60
   5  -2   8   19.80    8.40
   7   1  -8    7.20    7.20
   7   1  -8    4.00    7.00
  -7  -1   8    8.30    6.00
   6   1  -8   95.59   14.90
   6   1  -8   65.79   12.30
  -6  -1   8  100.79   16.50
   5   1  -8   58.59   10.40
   5   1  -8   44.50   10.20
  -5  -1   8   58.89   11.90
   4   1  -8  185.98   14.00
   4   1  -8  163.18   17.90
  -4  -1   8  199.28   21.10
   3   1  -8    8.80    3.80
   3   1  -8    5.30    3.50
  -3  -1   8   -0.20    2.80
   1   1  -8  186.78   17.40
  -1  -1   8  178.48   18.80
   0   1  -8  195.28   14.90
   0  -1   8  191.18   16.00
  -1   1  -8   49.20    9.10
   1  -1   8   52.59   10.40
  -2   1  -8  114.19   14.30
   2  -1   8   97.99   13.80
  -3   1  -8  112.09   14.80
   3  -1   8  131.19   17.60
  -4   1  -8   15.70    6.40
   4  -1   8   19.10    7.70
  -5   1  -8    9.00    6.70
   5  -1   8    1.00    5.20
   8   0  -8    9.10    8.20
   8   0  -8   -2.30    6.80
  -8   0   8    4.80    5.90
   7   0  -8   14.00    7.80
   7   0  -8   39.90   10.80
  -7   0   8   35.40   10.70
   6   0  -8   67.79   12.60
   6   0  -8   40.90   10.20
  -6   0   8   59.59   13.30
   5   0  -8   43.10    9.30
   5   0  -8   43.60    9.10
  -5   0   8   35.90    9.90
   4   0  -8  312.37   19.00
   4   0  -8  273.77   19.60
  -4   0   8  306.17   21.70
   3   0  -8 1100.49   46.00
   3   0  -8 1162.58   42.20
  -3   0   8 1133.19   48.40
   2   0  -8   43.30    6.00
  -2   0   8  110.39   13.80
   1   0  -8  179.18    9.40
  -1   0   8  152.58   16.40
   0   0  -8  228.88   16.70
   0   0  -8  224.28   11.30
   0   0   8  230.48   17.10
  -1   0  -8   17.40    6.10
   1   0   8   24.70    6.90
  -2   0  -8  427.06   25.60
   2   0   8  438.46   25.90
  -3   0  -8   48.60   10.70
   3   0   8   82.19   13.60
  -4   0  -8   14.00    6.70
   4   0   8   12.90    6.90
  -5   0  -8   73.19   15.10
   8  -1  -8   -1.80    5.70
   8  -1  -8  -10.40    4.40
  -8   1   8    0.20    4.70
   7  -1  -8   11.70    6.90
   7  -1  -8   10.30    6.90
  -7   1   8    5.00    5.50
   6  -1  -8  493.95   27.90
   6  -1  -8  431.36   28.00
  -6   1   8  414.46   28.60
   5  -1  -8  459.15   26.20
   5  -1  -8  450.05   26.10
  -5   1   8  383.56   27.00
   4  -1  -8  687.73   32.20
   4  -1  -8  652.73   32.90
  -4   1   8  743.33   36.30
   3  -1  -8   -0.70    2.60
   3  -1  -8   -2.00    2.40
  -3   1   8    4.60    3.50
   2  -1  -8  172.38   17.40
   2  -1  -8  171.68   11.80
  -2   1   8  198.48   15.50
   1  -1  -8   16.90    4.30
   1  -1  -8    0.60    2.50
  -1   1   8    7.50    4.30
   0  -1  -8  372.26   18.30
   0   1   8  357.26   21.50
  -1  -1  -8  345.17   18.10
  -1  -1  -8  288.67   20.40
   1   1   8  320.07   20.50
  -2  -1  -8  126.59   13.80
  -2  -1  -8   90.19   14.30
   2   1   8  103.49   14.00
  -3  -1  -8   56.19   12.40
   3   1   8   51.69   10.30
  -4  -1  -8   -2.60    5.20
  -5  -1  -8   19.90    8.60
   8  -2  -8    9.60    8.10
  -8   2   8    4.40    6.60
   7  -2  -8    2.40    5.80
   7  -2  -8    2.50    5.70
  -7   2   8    6.80    6.30
   6  -2  -8   14.40    6.80
   6  -2  -8   23.20    7.70
  -6   2   8   26.60    9.30
   5  -2  -8    0.10    4.70
   5  -2  -8   -3.40    3.40
  -5   2   8    4.50    4.40
   4  -2  -8   57.19   10.40
   4  -2  -8   86.09   12.80
  -4   2   8  107.69   15.90
   3  -2  -8   65.19   10.80
   3  -2  -8   77.59   11.00
  -3   2   8   80.79   12.50
   2  -2  -8  668.03   32.30
   2  -2  -8  679.03   30.00
  -2   2   8  684.33   32.80
   1  -2  -8  373.96   19.80
   1  -2  -8  357.46   21.90
  -1   2   8  348.27   21.00
   0  -2  -8    5.10    3.60
   0  -2  -8    5.50    3.80
   0   2   8    5.60    3.90
  -1  -2  -8   43.80    9.00
  -1  -2  -8   59.99   11.50
   1   2   8   54.59    9.60
  -2  -2  -8   37.80    9.70
  -2  -2  -8   43.30    9.80
  -3  -2  -8  237.68   19.30
  -3  -2  -8  215.78   24.40
  -4  -2  -8   28.50    9.80
   8  -3  -8   -0.40    5.70
  -8   3   8    1.40    5.70
   7  -3  -8   84.39   14.20
   7  -3  -8   55.59   13.70
  -7   3   8   72.79   14.90
   6  -3  -8   23.00    8.90
   6  -3  -8    6.20    5.60
  -6   3   8    8.90    6.10
   5  -3  -8  122.69   16.70
   5  -3  -8  131.79   15.80
  -5   3   8  120.39   17.20
   4  -3  -8    4.80    4.40
   4  -3  -8   13.50    5.40
  -4   3   8    7.00    5.40
   3  -3  -8   53.59   10.00
   3  -3  -8   41.90    9.00
  -3   3   8   78.29   13.10
   2  -3  -8   85.79   12.50
   2  -3  -8   70.29   10.90
  -2   3   8   73.39   11.20
   1  -3  -8   43.30    8.70
   1  -3  -8   31.80    8.20
  -1   3   8   34.50    7.50
   0  -3  -8  341.27   21.20
   0  -3  -8  330.27   22.50
   0   3   8  335.67   19.30
  -1  -3  -8  185.48   20.70
  -1  -3  -8  143.99   16.70
  -2  -3  -8   19.40    8.70
  -2  -3  -8    8.20    6.00
  -3  -3  -8    9.50    6.70
  -3  -3  -8    6.90    5.70
  -4  -3  -8    0.70    6.20
  -4  -3  -8    2.80    8.90
   7  -4  -8   63.09   14.70
  -7   4   8   72.19   14.60
   6  -4  -8  113.89   15.10
   6  -4  -8   97.69   17.40
  -6   4   8   66.79   13.90
   5  -4  -8  119.09   15.00
   5  -4  -8  107.19   16.50
  -5   4   8  132.89   18.60
   4  -4  -8  114.29   14.40
   4  -4  -8  116.09   16.20
  -4   4   8  121.69   16.50
   3  -4  -8   19.90    7.00
   3  -4  -8   32.40    8.00
  -3   4   8   33.70    8.50
   2  -4  -8   62.79   11.10
   2  -4  -8   86.09   12.80
  -2   4   8   87.19   12.80
   1  -4  -8   -3.00    2.90
   1  -4  -8    0.40    4.00
  -1   4   8    1.40    3.10
   0  -4  -8  524.55   30.90
   0  -4  -8  562.54   30.90
  -1  -4  -8   62.59   12.40
  -1  -4  -8   97.09   14.90
  -2  -4  -8   30.60    9.70
  -2  -4  -8   32.50    9.90
  -3  -4  -8   28.20    9.60
  -3  -4  -8   21.40    9.10
   7  -5  -8   40.00   12.50
  -7   5   8   17.20    8.90
   6  -5  -8    2.20    5.60
  -6   5   8   -2.40    4.20
   5  -5  -8   32.60   10.20
   5  -5  -8   16.50    7.00
  -5   5   8    5.10    5.30
   4  -5  -8   88.09   14.70
   4  -5  -8   69.39   11.50
  -4   5   8  102.69   15.30
   3  -5  -8  165.08   18.10
   3  -5  -8  135.29   18.60
  -3   5   8  168.98   18.70
   2  -5  -8    0.90    4.80
   2  -5  -8   -4.50    2.90
  -2   5   8    1.30    3.30
   1  -5  -8  405.36   26.30
   1  -5  -8  411.56   27.30
   0  -5  -8   49.30   11.50
   0  -5  -8   39.70   10.20
  -1  -5  -8    6.90    6.20
  -1  -5  -8    6.50    6.10
  -2  -5  -8   63.59   14.00
  -2  -5  -8   43.90   12.90
  -3  -5  -8    3.40    5.90
  -3  -5  -8    1.70    6.50
   7  -6  -8   -4.30    6.00
  -7   6   8   -0.80    4.50
   6  -6  -8   61.19   15.20
  -6   6   8   50.39   12.90
   5  -6  -8   52.69   13.50
  -5   6   8   64.59   13.20
   4  -6  -8    6.70    6.10
   4  -6  -8    9.10    5.80
  -4   6   8    4.50    4.70
   3  -6  -8  154.38   20.90
   3  -6  -8  168.48   18.60
   2  -6  -8   95.39   16.90
   2  -6  -8  121.09   16.30
   1  -6  -8   -1.10    4.40
   1  -6  -8    6.90    6.30
   0  -6  -8  162.68   20.50
   0  -6  -8  125.59   20.10
  -1  -6  -8   15.20    8.70
  -1  -6  -8   23.10    9.10
  -2  -6  -8  169.98   24.50
  -2  -6  -8  166.58   23.90
   6  -7  -8   -1.80    6.60
  -6   7   8    2.30    5.30
   5  -7  -8   27.50   10.60
  -5   7   8   14.50    7.00
   4  -7  -8   90.29   18.10
   3  -7  -8   17.80    7.50
   3  -7  -8    5.60    6.00
   2  -7  -8   22.80    9.80
   2  -7  -8   20.70    8.40
   1  -7  -8   16.30    8.60
   1  -7  -8    4.40    5.40
   0  -7  -8   42.20   12.30
   0  -7  -8   56.69   14.70
   5  -8  -8   15.60    9.30
   4  -8  -8   23.70   10.40
   3  -8  -8   18.70    9.20
   2  -8  -8    4.10    7.30
   2  -8  -8   16.50    8.50
   1  -8  -8   18.80    9.30
   1  -8  -8    8.90    8.40
  -1  -8   9   67.09   14.10
   0  -8   9   31.80   10.60
   1  -8   9   28.60   10.60
   2  -8   9   75.19   16.60
   3  -8   9   45.30   13.90
   3   7  -9    5.60    7.20
   2   7  -9    1.10    5.60
  -2  -7   9   -1.00    5.20
   1   7  -9    7.80    5.50
  -1  -7   9   12.50    7.30
   0  -7   9   -4.20    3.90
   1  -7   9    0.10    4.30
   2  -7   9    1.80    5.40
   3  -7   9   30.00   10.90
   4  -7   9   14.20    9.10
   4   6  -9   10.70    7.60
  -4  -6   9   17.10   12.00
   3   6  -9   64.09   13.40
  -3  -6   9   42.90   11.20
   2   6  -9  193.68   21.90
  -2  -6   9  166.58   22.00
   1   6  -9   63.69   12.00
  -1  -6   9   69.79   14.20
   0   6  -9    1.60    3.60
   0  -6   9    0.60    4.20
   1  -6   9  134.99   19.80
   2  -6   9  146.69   21.90
   3  -6   9   98.59   18.10
   4  -6   9  142.69   23.20
   5   5  -9   -5.20    5.30
  -5  -5   9   -5.00    4.60
   4   5  -9  179.88   22.00
  -4  -5   9  188.08   22.20
   3   5  -9    0.80    4.70
  -3  -5   9    5.60    5.30
   2   5  -9    5.10    5.50
  -2  -5   9   23.70    8.80
   1   5  -9   26.60    7.90
  -1  -5   9   29.40    8.30
   0   5  -9  343.67   21.20
   0  -5   9  330.27   25.10
  -1   5  -9  359.16   21.40
   1  -5   9  398.46   28.10
   2  -5   9   12.20    6.90
   3  -5   9    7.40    6.40
   4  -5   9   22.50    9.40
   5  -5   9    0.10    6.00
   6   4  -9   10.60    8.00
  -6  -4   9    5.60    6.70
   5   4  -9   -5.70    4.50
  -5  -4   9    0.30    5.00
   4   4  -9   74.19   13.10
  -4  -4   9   61.69   12.90
   3   4  -9   15.80    7.70
  -3  -4   9   23.20    8.10
   2   4  -9   15.60    6.70
  -2  -4   9   26.20    8.60
   1   4  -9  164.28   17.30
  -1  -4   9  177.38   21.20
   0   4  -9   38.70    8.70
   0  -4   9   31.40    8.80
  -1   4  -9  168.08   17.50
   1  -4   9  153.68   20.20
  -2   4  -9  246.08   17.70
   2  -4   9  267.27   27.90
   3  -4   9   73.89   15.00
   4  -4   9    5.20    6.80
   5  -4   9   -2.10    5.60
   6   3  -9   43.60   11.90
  -6  -3   9   84.39   15.70
   5   3  -9  112.59   16.80
  -5  -3   9  129.89   18.60
   4   3  -9  245.68   23.80
  -4  -3   9  261.37   21.90
   3   3  -9  711.23   36.10
  -3  -3   9  776.92   39.20
   2   3  -9   65.19   11.00
  -2  -3   9   96.29   15.40
   1   3  -9    4.30    4.00
  -1  -3   9   -0.70    3.00
   0   3  -9   40.40    8.90
   0  -3   9   29.70    8.10
  -1   3  -9   10.70    4.70
   1  -3   9   11.70    6.30
  -2   3  -9  146.19   16.30
   2  -3   9  146.89   20.00
  -3   3  -9   10.90    6.00
   3  -3   9    2.10    5.10
   4  -3   9  195.88   25.00
   5  -3   9    2.40    6.10
   7   2  -9    7.10    7.30
   7   2  -9    2.00    6.70
  -7  -2   9   16.40    8.30
   6   2  -9    4.10    5.20
   6   2  -9   11.40    7.20
  -6  -2   9    5.10    5.90
   5   2  -9   62.69   14.80
   5   2  -9   74.99   13.60
  -5  -2   9   94.89   16.00
   4   2  -9   -0.60    4.30
  -4  -2   9    9.50    6.10
   3   2  -9    2.10    4.00
  -3  -2   9    2.40    3.40
   2   2  -9   43.50    8.90
  -2  -2   9   62.09   11.40
   1   2  -9   17.70    6.00
  -1  -2   9    6.90    4.60
   0   2  -9   74.69   11.60
   0  -2   9   63.89   11.70
  -1   2  -9  281.77   19.00
   1  -2   9  197.08   21.50
  -2   2  -9    7.90    4.80
   2  -2   9    7.20    5.10
  -3   2  -9   35.10    9.30
   3  -2   9   50.59   11.80
  -4   2  -9   23.60   10.40
   4  -2   9   19.70    8.00
   5  -2   9   25.70    9.90
   7   1  -9   15.70    8.90
   7   1  -9   35.00   10.60
  -7  -1   9   42.90   11.50
   6   1  -9    9.10    6.10
   6   1  -9   21.20    8.10
  -6  -1   9    6.30    6.00
   5   1  -9   56.59   11.00
   5   1  -9   58.99   10.90
  -5  -1   9   67.19   13.40
   4   1  -9    2.80    4.20
   4   1  -9    0.90    3.60
  -4  -1   9   -5.10    3.00
   3   1  -9  127.19   15.90
  -3  -1   9   95.49   14.00
   2   1  -9  359.46   22.10
  -2  -1   9  346.57   23.50
   1   1  -9    5.00    3.90
  -1  -1   9    0.50    3.30
   0   1  -9  233.68   17.80
   0  -1   9  258.17   19.90
  -1   1  -9  230.58   17.90
   1  -1   9  223.48   18.80
  -2   1  -9  348.97   23.00
   2  -1   9  360.26   25.10
  -3   1  -9    4.50    5.30
   3  -1   9    9.20    6.00
  -4   1  -9   -2.80    4.90
   4  -1   9   -2.90    3.70
   5  -1   9  164.58   22.70
   7   0  -9   37.80   10.40
   7   0  -9   52.19   12.20
  -7   0   9   60.49   13.70
   6   0  -9   21.00    8.30
   6   0  -9   12.80    6.60
  -6   0   9    5.50    5.80
   5   0  -9  338.07   23.40
   5   0  -9  298.57   20.90
  -5   0   9  325.67   25.00
   4   0  -9  719.93   36.20
   4   0  -9  788.02   33.80
  -4   0   9  755.62   38.70
   3   0  -9   16.40    6.00
   3   0  -9   24.00    5.70
  -3   0   9   31.60    9.10
   2   0  -9   14.40    5.10
  -2   0   9   23.30    7.80
   1   0  -9  164.18   17.90
  -1   0   9  194.38   20.20
   0   0  -9   99.29   14.20
   0   0   9   79.09   12.90
  -1   0  -9   41.70    9.10
   1   0   9   50.49   10.10
  -2   0  -9  465.75   28.10
   2   0   9  427.76   27.10
  -3   0  -9   24.10    8.30
   3   0   9   16.00    6.70
  -4   0  -9    4.60    5.60
   7  -1  -9    2.80    5.70
   7  -1  -9    4.20    6.60
  -7   1   9    3.70    5.20
   6  -1  -9   37.20    9.70
   6  -1  -9   37.20    9.80
  -6   1   9   50.29   12.30
   5  -1  -9   58.09   11.40
   5  -1  -9   50.29   10.20
  -5   1   9  114.19   17.90
   4  -1  -9 1022.70   42.40
   4  -1  -9  984.10   43.70
  -4   1   9 1014.40   46.90
   3  -1  -9    9.50    4.40
   3  -1  -9   10.50    5.10
  -3   1   9   15.10    6.60
   2  -1  -9  262.67   15.20
   2  -1  -9  235.88   18.10
  -2   1   9  263.67   19.20
   1  -1  -9  345.87   17.30
   1  -1  -9  326.27   21.70
  -1   1   9  300.17   21.00
   0  -1  -9  595.24   31.40
   0   1   9  584.44   30.70
  -1  -1  -9  392.16   25.20
   1   1   9  374.86   23.80
  -2  -1  -9   -0.90    3.80
   2   1   9    2.40    3.50
  -3  -1  -9   23.40    8.70
  -4  -1  -9  111.59   18.00
   7  -2  -9   43.70   11.40
   7  -2  -9   43.40   11.10
  -7   2   9   25.20    9.80
   6  -2  -9   10.30    6.60
   6  -2  -9    7.50    6.10
  -6   2   9    8.70    6.20
   5  -2  -9   11.70    5.70
   5  -2  -9   12.90    6.50
  -5   2   9   -1.10    3.70
   4  -2  -9    0.40    4.00
   4  -2  -9    3.10    5.10
  -4   2   9    4.10    4.90
   3  -2  -9  645.14   30.20
   3  -2  -9  615.84   32.00
  -3   2   9  645.94   33.80
   2  -2  -9  108.39   14.20
   2  -2  -9  106.89   12.60
  -2   2   9  107.89   15.10
   1  -2  -9    8.30    4.30
   1  -2  -9    9.40    5.20
  -1   2   9    4.80    4.50
   0  -2  -9 1413.06   54.29
   0  -2  -9 1555.84   60.49
   0   2   9 1515.45   57.29
  -1  -2  -9   18.00    7.20
   1   2   9   20.80    6.10
  -2  -2  -9  325.07   24.90
  -3  -2  -9   -4.10    4.70
  -4  -2  -9   -6.60    4.80
   7  -3  -9    9.60    6.90
   7  -3  -9    2.60    6.20
  -7   3   9   11.30    7.40
   6  -3  -9    1.60    5.20
   6  -3  -9    4.60    4.80
  -6   3   9    3.60    4.60
   5  -3  -9  124.39   16.20
   5  -3  -9  122.79   16.90
  -5   3   9  116.59   17.70
   4  -3  -9  354.86   23.10
   4  -3  -9  329.97   22.70
  -4   3   9  351.86   25.30
   3  -3  -9   61.59   11.20
   3  -3  -9   74.49   11.70
  -3   3   9   59.59   12.00
   2  -3  -9  133.29   15.40
   2  -3  -9  146.99   16.80
  -2   3   9  153.88   17.00
   1  -3  -9   53.89   10.30
   1  -3  -9   55.59   10.40
  -1   3   9   72.09   11.80
   0  -3  -9   11.10    6.10
   0  -3  -9   11.80    5.50
   0   3   9   13.20    5.00
  -1  -3  -9  261.07   19.90
  -1  -3  -9  305.17   23.50
  -2  -3  -9  298.97   29.90
  -3  -3  -9   20.60    9.40
   7  -4  -9   72.29   15.40
  -7   4   9   60.79   14.00
   6  -4  -9   38.50   11.20
   6  -4  -9   35.50    9.30
  -6   4   9   27.50    9.70
   5  -4  -9   44.20   10.40
   5  -4  -9   35.10   10.40
  -5   4   9   48.50   12.10
   4  -4  -9    5.70    4.80
   4  -4  -9   10.00    5.90
  -4   4   9    5.60    5.40
   3  -4  -9   -1.10    3.50
   3  -4  -9    1.80    4.90
  -3   4   9   -1.20    3.80
   2  -4  -9   74.49   12.60
   2  -4  -9   67.29   12.40
  -2   4   9   72.99   12.20
   1  -4  -9  111.89   15.50
   1  -4  -9   95.49   14.70
   0  -4  -9    6.50    6.10
   0  -4  -9    0.70    4.60
  -1  -4  -9   60.09   12.60
  -1  -4  -9   59.99   12.70
  -2  -4  -9   69.59   13.90
  -2  -4  -9   76.49   15.60
  -3  -4  -9   -2.50    5.30
   7  -5  -9    3.90    7.70
  -7   5   9   17.20    9.10
   6  -5  -9   54.89   13.60
  -6   5   9   39.40   11.10
   5  -5  -9   -5.00    4.20
   5  -5  -9    3.20    5.90
  -5   5   9   -3.30    3.40
   4  -5  -9  331.47   23.00
   4  -5  -9  286.47   23.20
  -4   5   9  314.87   23.70
   3  -5  -9  104.89   16.20
   3  -5  -9  112.99   16.20
  -3   5   9  107.09   14.70
   2  -5  -9    4.30    4.40
   2  -5  -9    4.00    5.00
   1  -5  -9    6.50    6.20
   1  -5  -9    8.00    5.90
   0  -5  -9   73.89   14.80
   0  -5  -9   63.49   13.00
  -1  -5  -9   34.20   11.30
  -1  -5  -9   44.90   11.70
  -2  -5  -9   51.99   13.60
  -2  -5  -9   40.30   11.60
   6  -6  -9   26.70   10.80
  -6   6   9   64.39   14.70
   5  -6  -9   -0.70    5.00
  -5   6   9   -2.70    4.50
   4  -6  -9  135.19   20.30
   4  -6  -9  153.18   18.00
  -4   6   9  104.89   16.10
   3  -6  -9    3.40    5.60
   3  -6  -9   -2.00    5.00
   2  -6  -9    2.70    5.30
   2  -6  -9   11.10    6.10
   1  -6  -9   33.00    9.80
   1  -6  -9   35.70   11.60
   0  -6  -9    2.90    5.50
   0  -6  -9   11.70    8.40
  -1  -6  -9   59.19   14.30
  -1  -6  -9   31.00   10.70
   5  -7  -9   27.40   10.10
   4  -7  -9   23.40   10.00
   3  -7  -9   44.40   13.10
   3  -7  -9   63.09   12.80
   2  -7  -9   10.00    7.20
   2  -7  -9    8.70    7.50
   1  -7  -9   63.19   15.30
   1  -7  -9   37.50   11.10
  -1  -8  10   24.70    9.40
   0  -8  10   43.70   13.40
   1  -8  10    4.80    7.20
   3   7 -10    3.40    6.70
  -3  -7  10   -3.70    5.90
   2   7 -10   56.79   12.60
  -2  -7  10   59.59   13.90
  -1  -7  10   18.10    8.50
   0  -7  10   -0.80    4.80
   1  -7  10   20.10    9.60
   2  -7  10    5.20    6.40
   3  -7  10  130.19   21.30
   4   6 -10   -1.40    7.00
  -4  -6  10    5.80    6.80
   3   6 -10   26.50    9.10
  -3  -6  10   24.70    9.20
   2   6 -10  101.39   16.30
  -2  -6  10  160.78   22.50
   1   6 -10    4.30    5.20
  -1  -6  10   -0.70    4.60
   0  -6  10    3.10    5.90
   1  -6  10   57.69   13.70
   2  -6  10   22.20    9.40
   3  -6  10  369.96   31.10
   5   5 -10   32.10   12.30
  -5  -5  10   40.50   12.10
   4   5 -10   64.19   14.00
  -4  -5  10   46.90   12.30
   3   5 -10   20.60    8.40
  -3  -5  10   18.40    8.20
   2   5 -10   11.40    6.70
  -2  -5  10    9.50    6.30
   1   5 -10   51.09   10.90
  -1  -5  10   68.19   13.90
   0   5 -10   89.39   13.50
   0  -5  10  118.49   18.60
   1  -5  10    2.00    4.60
   2  -5  10   42.10   12.00
   3  -5  10    3.60    5.60
   4  -5  10   -5.90    4.50
   5   4 -10    3.00    6.00
  -5  -4  10    1.30    5.70
   4   4 -10   -5.90    4.90
  -4  -4  10    5.10    6.20
   3   4 -10   13.00    6.40
   2   4 -10    4.90    4.90
  -2  -4  10    0.80    4.60
   1   4 -10   89.39   13.70
  -1  -4  10   93.09   16.00
   0   4 -10   15.70    5.80
   0  -4  10    3.80    4.20
  -1   4 -10    2.70    4.50
   1  -4  10    8.30    5.90
   3  -4  10   29.10   10.70
   4  -4  10   72.79   16.00
   6   3 -10   68.69   15.40
  -6  -3  10   26.20   10.20
   5   3 -10   -3.80    4.00
  -5  -3  10   -2.20    4.60
   4   3 -10  655.73   35.40
  -4  -3  10  533.25   34.40
   3   3 -10   26.70    8.80
  -3  -3  10   33.60   10.40
   2   3 -10   12.30    6.60
  -2  -3  10   12.30    7.20
   1   3 -10  155.18   17.80
  -1  -3  10  153.58   19.90
   0   3 -10  140.89   16.80
   0  -3  10   86.69   14.50
  -1   3 -10   33.40    8.80
   1  -3  10   17.50    7.20
  -2   3 -10   21.50    7.50
   2  -3  10   54.29   12.40
   3  -3  10   57.59   12.90
   4  -3  10    8.00    6.60
   6   2 -10   -5.50    4.70
  -6  -2  10   -3.80    5.00
   5   2 -10    2.10    5.90
  -5  -2  10   10.40    6.40
   4   2 -10  170.68   19.80
  -4  -2  10  138.59   20.00
   3   2 -10    1.50    4.40
  -3  -2  10   -1.70    3.40
   2   2 -10   14.50    6.00
  -2  -2  10   21.40    7.20
   1   2 -10   -0.70    3.20
  -1  -2  10    2.00    3.40
   0   2 -10   -2.70    3.50
   0  -2  10    4.00    4.10
  -1   2 -10   14.50    6.70
   1  -2  10   11.30    6.40
  -2   2 -10   -3.50    3.40
   2  -2  10   -0.10    3.80
  -3   2 -10    5.30    5.40
   3  -2  10   -1.10    3.80
   4  -2  10    8.20    7.30
   7   1 -10   68.69   14.80
  -7  -1  10   42.60   12.20
   6   1 -10    2.80    6.10
  -6  -1  10   17.50    8.70
   5   1 -10    4.50    5.50
  -5  -1  10   -3.80    4.10
   4   1 -10   46.70   10.40
  -4  -1  10   63.89   13.00
   3   1 -10  422.36   26.10
  -3  -1  10  457.55   28.60
   2   1 -10   93.79   14.70
  -2  -1  10  115.79   16.40
   1   1 -10  177.98   19.30
  -1  -1  10  209.78   23.10
   0   1 -10   12.50    5.90
   0  -1  10   11.60    6.40
  -1   1 -10  320.67   22.80
   1  -1  10  326.37   24.10
  -2   1 -10   21.70    7.80
   2  -1  10    5.70    5.50
  -3   1 -10    0.30    4.70
   3  -1  10    0.40    4.10
  -4   1 -10  219.28   24.60
   4  -1  10  224.88   25.60
   7   0 -10   47.30   12.10
   7   0 -10   41.90   14.40
  -7   0  10   26.60   10.00
   6   0 -10   30.90   10.20
  -6   0  10   31.90   10.20
   5   0 -10   11.00    6.90
  -5   0  10    5.30    4.80
   4   0 -10    0.30    4.10
  -4   0  10   -1.30    3.30
   3   0 -10   43.10    9.50
  -3   0  10   24.10    8.20
   2   0 -10  603.24   32.40
  -2   0  10  633.04   34.40
   1   0 -10    8.10    5.20
  -1   0  10    3.00    4.20
   0   0 -10  204.48   21.20
   0   0  10  159.78   19.10
  -1   0 -10   37.70    9.90
   1   0  10   40.50   10.10
  -2   0 -10   40.70   10.60
   2   0  10   58.39   12.70
  -3   0 -10   59.29   13.40
   3   0  10   65.59   13.20
  -4   0 -10    4.60    6.20
   7  -1 -10    6.90    6.40
   7  -1 -10    9.20    6.80
  -7   1  10    2.10    4.50
   6  -1 -10   70.19   13.00
   6  -1 -10   87.29   15.30
  -6   1  10   87.49   17.00
   5  -1 -10   23.00    7.80
   5  -1 -10   42.70   10.10
  -5   1  10   67.89   14.80
   4  -1 -10   97.49   14.20
   4  -1 -10   81.79   18.00
  -4   1  10   83.19   14.40
   3  -1 -10  713.83   36.30
  -3   1  10  670.03   36.90
   2  -1 -10   13.30    6.40
  -2   1  10    5.40    5.10
   1  -1 -10  165.08   19.10
  -1   1  10  183.08   20.30
   0  -1 -10  663.53   35.60
   0   1  10  696.23   35.70
  -1  -1 -10   75.59   13.80
   1   1  10   65.79   12.50
  -2  -1 -10  215.38   24.60
   2   1  10  140.19   18.10
  -3  -1 -10   27.90   10.40
   7  -2 -10   28.30   10.60
   7  -2 -10   32.20   10.00
  -7   2  10   18.40    9.40
   6  -2 -10    7.40    6.00
   6  -2 -10   -0.40    4.90
  -6   2  10    5.90    5.60
   5  -2 -10   26.70    8.60
   5  -2 -10   38.80    9.60
  -5   2  10   36.20   11.00
   4  -2 -10    2.40    4.80
   4  -2 -10    2.50    4.50
  -4   2  10    1.20    4.40
   3  -2 -10  127.79   14.50
   3  -2 -10  114.79   15.60
  -3   2  10  122.29   16.90
   2  -2 -10    1.40    3.90
  -2   2  10    3.10    4.10
   1  -2 -10  271.57   21.30
  -1   2  10  262.67   19.90
   0  -2 -10  175.78   20.30
   0   2  10  152.88   17.80
  -1  -2 -10    5.20    5.20
   1   2  10    2.90    4.30
  -2  -2 -10    2.30    5.40
  -3  -2 -10    0.30    5.80
   7  -3 -10  142.39   21.10
   7  -3 -10  150.88   19.90
  -7   3  10  133.39   21.20
   6  -3 -10   -4.90    4.70
   6  -3 -10    1.00    4.90
  -6   3  10    2.60    4.70
   5  -3 -10   23.50    8.70
   5  -3 -10   19.30    7.80
  -5   3  10   36.30   10.90
   4  -3 -10   32.00    8.60
   4  -3 -10   25.50    8.40
  -4   3  10   29.50   10.10
   3  -3 -10    5.20    5.80
   3  -3 -10    1.70    3.80
  -3   3  10   -1.40    3.70
   2  -3 -10  126.09   17.20
   2  -3 -10  128.19   15.70
  -2   3  10  195.58   20.70
   1  -3 -10   36.30   10.30
  -1   3  10   27.20    7.60
   0  -3 -10  116.59   17.40
  -1  -3 -10    4.60    5.30
  -2  -3 -10    3.50    5.90
  -3  -3 -10    0.20    6.00
   7  -4 -10   17.10    9.30
  -7   4  10   33.40   12.40
   6  -4 -10    6.40    6.30
   6  -4 -10    1.20    6.10
  -6   4  10    2.30    5.90
   5  -4 -10    8.70    6.60
   5  -4 -10   10.70    7.30
  -5   4  10    5.10    6.20
   4  -4 -10   40.90   10.50
   4  -4 -10   26.00    9.30
  -4   4  10   40.60   11.00
   3  -4 -10    4.80    5.80
   3  -4 -10    0.60    4.10
  -3   4  10    1.90    4.60
   2  -4 -10    7.50    5.30
   2  -4 -10   14.70    6.80
  -2   4  10   16.50    6.60
   1  -4 -10  203.48   21.90
   1  -4 -10  251.27   24.90
   0  -4 -10   31.00   11.00
  -1  -4 -10   35.90   11.30
  -2  -4 -10   -2.70    6.10
   6  -5 -10   34.70   11.30
  -6   5  10    8.40    7.10
   5  -5 -10   11.70    7.70
   5  -5 -10   30.00   10.60
  -5   5  10   22.80    9.00
   4  -5 -10   14.40    7.70
   4  -5 -10   37.50   10.70
  -4   5  10   18.20    7.70
   3  -5 -10    0.20    4.90
   3  -5 -10   -0.80    4.70
  -3   5  10    0.30    4.50
   2  -5 -10   79.99   14.60
   2  -5 -10   58.59   12.80
   1  -5 -10   43.60   11.30
   1  -5 -10   48.50   11.80
   0  -5 -10    4.70    6.40
   0  -5 -10   -1.10    5.50
  -1  -5 -10   41.90   13.00
   6  -6 -10   91.09   17.90
   5  -6 -10   53.69   14.00
  -5   6  10   83.29   15.70
   4  -6 -10    1.70    6.60
   4  -6 -10   19.90    8.50
   3  -6 -10   10.30    7.80
   3  -6 -10   12.40    6.80
   2  -6 -10   -6.50    4.50
   2  -6 -10    9.80    7.10
   1  -6 -10   49.40   12.60
   1  -6 -10   45.40   12.80
   0  -6 -10   77.29   16.40
   0  -6 -10  115.29   20.40
   4  -7 -10    6.90    7.20
   3  -7 -10    1.40    5.80
   3  -7 -10   -0.40    5.70
   2  -7 -10   -0.40    6.00
   2  -7 -10    3.90    6.50
   2   7 -11    4.70    6.20
  -2  -7  11    2.90    6.50
  -1  -7  11    4.70    6.60
   0  -7  11   -2.90    5.60
   1  -7  11  232.58   29.00
   3   6 -11   50.89   13.00
  -3  -6  11   96.49   17.90
   2   6 -11   69.79   14.40
  -2  -6  11   68.89   15.90
   1   6 -11   99.69   15.40
  -1  -6  11   98.39   18.20
   0  -6  11    1.40    5.30
   1  -6  11  147.39   22.80
   2  -6  11   21.70    9.30
   4   5 -11   -3.80    5.70
  -4  -5  11   -2.70    5.30
   3   5 -11   -3.50    4.90
  -3  -5  11    0.00    4.40
   2   5 -11   60.49   12.60
  -2  -5  11   71.29   14.90
   1   5 -11   -2.90    3.80
  -1  -5  11    8.10    6.40
   0   5 -11   -1.40    4.60
   0  -5  11    8.20    6.10
   1  -5  11   19.70    8.30
   2  -5  11    4.30    5.60
   3  -5  11  183.18   26.70
   5   4 -11   12.20    7.80
  -5  -4  11    9.50    7.70
   4   4 -11   17.50    8.50
  -4  -4  11    9.00    7.20
   3   4 -11   17.80    8.00
  -3  -4  11   22.50    8.70
   2   4 -11  452.65   28.90
  -2  -4  11  495.65   33.20
   1   4 -11   16.30    6.60
  -1  -4  11    8.90    6.30
   0   4 -11  332.27   22.60
   0  -4  11  243.88   27.70
  -1   4 -11   22.70    8.10
   1  -4  11    8.70    6.70
   2  -4  11   87.29   16.80
   3  -4  11   -0.70    5.80
   6   3 -11    5.60    7.90
  -6  -3  11    2.60    6.60
   5   3 -11    1.10    6.00
  -5  -3  11    1.30    5.40
   4   3 -11   17.80    8.20
  -4  -3  11   13.00    7.90
   3   3 -11   42.50   11.00
  -3  -3  11   40.60   11.90
   2   3 -11   42.50   10.00
  -2  -3  11   55.79   12.80
   1   3 -11   36.10    9.80
  -1  -3  11   27.50    8.60
   0   3 -11   83.39   13.90
   0  -3  11   69.79   14.10
  -1   3 -11    5.90    5.50
   1  -3  11    4.10    4.90
  -2   3 -11    1.40    4.70
   2  -3  11   -0.20    5.30
   3  -3  11   -0.90    4.90
   6   2 -11   66.99   14.00
  -6  -2  11   39.00   12.20
   5   2 -11  105.59   17.00
  -5  -2  11  143.59   20.30
   4   2 -11   -1.00    5.10
  -4  -2  11    4.30    6.00
   3   2 -11   41.80   10.30
  -3  -2  11   35.90   11.00
   2   2 -11   24.90    8.00
  -2  -2  11   31.50   10.00
   1   2 -11   14.80    6.70
  -1  -2  11   19.10    8.10
   0   2 -11   67.99   13.00
   0  -2  11   66.59   13.80
  -1   2 -11  303.37   23.00
   1  -2  11  343.77   26.40
  -2   2 -11    4.20    5.10
   2  -2  11    1.60    4.50
  -3   2 -11  102.49   16.80
   3  -2  11   59.69   14.00
   6   1 -11   62.39   14.10
  -6  -1  11   55.99   14.50
   5   1 -11    2.70    5.20
  -5  -1  11   -2.50    3.50
   4   1 -11   13.20    6.80
  -4  -1  11   10.50    6.80
   3   1 -11    0.90    4.00
  -3  -1  11    1.20    3.80
   2   1 -11    9.00    5.70
  -2  -1  11   11.90    6.80
   1   1 -11   10.80    6.60
  -1  -1  11   22.70    8.60
   0   1 -11    7.10    5.20
   0  -1  11    8.90    6.00
  -1   1 -11   17.90    7.50
   1  -1  11   16.80    8.30
  -2   1 -11   15.00    7.10
   2  -1  11   12.00    7.00
  -3   1 -11    0.10    5.10
   3  -1  11   -1.70    4.10
   7   0 -11    0.50    6.20
  -7   0  11   -6.10    4.40
   6   0 -11    1.30    5.30
  -6   0  11   -2.40    4.70
   5   0 -11  279.77   27.50
  -5   0  11  256.07   27.90
   4   0 -11   98.69   15.80
  -4   0  11   84.19   16.40
   3   0 -11  448.76   28.60
  -3   0  11  428.16   29.50
   2   0 -11    8.10    5.50
  -2   0  11    0.50    4.20
   1   0 -11  195.58   20.80
  -1   0  11  189.48   22.10
   0   0 -11   62.69   12.30
   0   0  11   69.09   13.30
  -1   0 -11   21.30    8.30
   1   0  11    9.60    5.80
  -2   0 -11   72.79   15.10
   2   0  11   56.69   12.40
  -3   0 -11    1.80    6.40
   3   0  11    7.70    9.90
   7  -1 -11   -0.90    7.10
  -7   1  11    1.80    4.80
   6  -1 -11    6.80    6.10
  -6   1  11    5.60    7.20
   5  -1 -11   42.10   10.40
  -5   1  11   37.30   11.40
   4  -1 -11  134.79   18.30
  -4   1  11   98.29   16.20
   3  -1 -11  162.38   19.70
  -3   1  11  116.99   17.60
   2  -1 -11  160.88   19.20
  -2   1  11  130.19   18.30
   1  -1 -11  244.08   23.70
  -1   1  11  239.98   24.70
   0  -1 -11   34.10    9.90
   0   1  11   51.79   11.50
  -1  -1 -11    1.10    4.80
   1   1  11    2.80    4.30
  -2  -1 -11   48.90   12.80
  -3  -1 -11    2.70    6.70
   7  -2 -11    4.50    6.30
  -7   2  11    0.60    5.60
   6  -2 -11   52.29   12.90
  -6   2  11   49.00   12.70
   5  -2 -11   60.09   12.80
  -5   2  11   35.20   12.00
   4  -2 -11  300.17   22.80
  -4   2  11  224.38   25.30
   3  -2 -11   44.80   10.50
  -3   2  11   24.50    8.50
   2  -2 -11  197.78   21.90
  -2   2  11  198.38   22.90
   1  -2 -11   25.10    8.80
  -1   2  11   32.60    9.10
   0  -2 -11   71.79   14.30
   0   2  11   65.49   12.60
  -1  -2 -11    1.40    5.40
  -2  -2 -11    0.80    6.10
   6  -3 -11  234.28   25.80
   6  -3 -11  236.38   35.90
  -6   3  11  257.17   29.60
   5  -3 -11   53.99   12.20
  -5   3  11   52.39   13.40
   4  -3 -11   44.00   11.30
  -4   3  11   53.89   12.50
   3  -3 -11   -1.80    4.00
  -3   3  11   -1.40    3.40
   2  -3 -11   37.20   10.60
  -2   3  11   54.59   11.90
   1  -3 -11   12.60    7.10
  -1   3  11   10.70    5.80
   0  -3 -11    1.70    5.10
  -1  -3 -11   22.40    9.30
  -2  -3 -11   15.60    8.60
   6  -4 -11    3.50    6.70
   6  -4 -11    6.10    7.10
  -6   4  11   13.10    8.30
   5  -4 -11    5.10    7.10
   5  -4 -11    6.60    6.40
  -5   4  11   18.20    8.40
   4  -4 -11   12.20   10.00
   4  -4 -11   22.90    9.40
  -4   4  11   20.00    8.40
   3  -4 -11   12.70    7.90
  -3   4  11   11.10    6.70
   2  -4 -11    4.20    6.50
  -2   4  11    1.60    5.30
   1  -4 -11   88.99   15.40
   0  -4 -11   72.39   16.00
  -1  -4 -11   -3.70    5.10
   5  -5 -11    7.00    6.80
   5  -5 -11    1.10    6.40
  -5   5  11   -2.00    4.60
   4  -5 -11   59.79   13.60
   4  -5 -11   80.39   15.40
  -4   5  11   81.49   14.80
   3  -5 -11   19.10    8.90
   3  -5 -11    7.90   10.50
   2  -5 -11  155.48   20.30
   1  -5 -11  121.59   20.00
   0  -5 -11   14.10    8.30
   4  -6 -11   25.20   10.00
   4  -6 -11   45.20   12.70
   3  -6 -11   10.60    8.00
   3  -6 -11   30.60   10.70
   2  -6 -11   78.49   16.00
   2   6 -12   42.90   12.10
  -2  -6  12   58.89   15.80
   1   6 -12   67.39   13.10
  -1  -6  12   76.39   16.00
   0  -6  12    5.90    6.70
   1  -6  12   27.00   10.20
   4   5 -12    0.80    6.90
   3   5 -12   25.10    9.60
  -3  -5  12   43.00   13.10
   2   5 -12   11.40    7.30
  -2  -5  12    9.30    8.00
   1   5 -12   -5.50    4.30
  -1  -5  12    1.80    5.40
   0   5 -12   28.70    9.20
   0  -5  12   16.80    8.30
   1  -5  12   -2.40    4.70
   2  -5  12    2.10    5.70
   4   4 -12   36.70   11.50
  -4  -4  12   87.19   18.30
   3   4 -12  195.38   24.10
  -3  -4  12  213.78   27.60
   2   4 -12  110.89   17.60
  -2  -4  12  156.58   22.70
   1   4 -12    7.50    5.50
  -1  -4  12    1.70    5.10
   0   4 -12  179.48   21.60
   0  -4  12  113.89   20.20
  -1   4 -12  111.39   16.50
   1  -4  12   99.69   18.10
   2  -4  12    4.10    6.40
   5   3 -12   -5.30    5.40
  -5  -3  12   10.20    7.50
   4   3 -12   20.80    9.00
  -4  -3  12   34.00   11.50
   3   3 -12   16.50    7.90
  -3  -3  12   26.60   10.40
   2   3 -12  217.88   23.50
  -2  -3  12  289.17   30.80
   1   3 -12   13.60    6.50
  -1  -3  12    7.20    6.10
   0   3 -12   44.10   11.00
   0  -3  12   24.40    9.30
  -1   3 -12   17.00    7.80
   1  -3  12   11.00    7.00
  -2   3 -12   14.50    7.30
   2  -3  12   11.80    8.40
   3  -3  12   38.20   12.80
   5   2 -12   48.20   12.10
  -5  -2  12   60.99   14.40
   4   2 -12   30.00   10.20
  -4  -2  12   53.19   12.80
   3   2 -12  166.88   21.00
  -3  -2  12  129.89   19.90
   2   2 -12    2.10    4.40
  -2  -2  12    1.80    5.00
   1   2 -12   20.60    8.50
  -1  -2  12   31.00   10.00
   0   2 -12   24.60    8.80
   0  -2  12   33.10   10.60
  -1   2 -12    7.00    5.50
   1  -2  12   19.40    8.60
  -2   2 -12   64.69   13.40
   2  -2  12   77.39   16.90
   3  -2  12   14.70    8.50
   6   1 -12    0.60    6.30
  -6  -1  12    0.90    6.40
   5   1 -12   32.20   10.10
  -5  -1  12   27.50   10.30
   4   1 -12  140.29   19.00
  -4  -1  12  116.59   19.00
   3   1 -12   19.90    7.80
  -3  -1  12   14.40    8.20
   2   1 -12    8.50    5.60
  -2  -1  12   29.20    9.90
   1   1 -12  213.58   23.80
  -1  -1  12  219.78   26.00
   0   1 -12    3.90    5.60
   0  -1  12    1.90    5.00
  -1   1 -12   -3.40    4.30
   1  -1  12    1.30    4.70
  -2   1 -12    9.30    7.70
   2  -1  12    8.50    7.10
   6   0 -12   31.60   10.90
  -6   0  12   18.60   10.00
   5   0 -12    1.20    5.40
  -5   0  12   -0.40    5.60
   4   0 -12   15.60    8.60
  -4   0  12    9.10    6.40
   3   0 -12    3.70    4.60
  -3   0  12    3.70    5.40
   2   0 -12   36.30    9.40
  -2   0  12   30.60    9.90
   1   0 -12   11.00    7.10
  -1   0  12   19.70    8.40
   0   0 -12   26.40    8.60
   0   0  12    8.80    6.60
  -1   0 -12   57.39   12.60
   1   0  12   83.99   15.40
  -2   0 -12    5.50    5.70
   2   0  12    3.10    5.50
   6  -1 -12    7.90    7.40
  -6   1  12   -2.20    5.10
   5  -1 -12   39.10   11.70
  -5   1  12   41.40   12.10
   4  -1 -12   21.70    8.70
  -4   1  12   19.40    8.30
   3  -1 -12    6.00    5.70
  -3   1  12    8.20    6.20
   2  -1 -12  235.18   25.10
  -2   1  12  292.27   28.80
   1  -1 -12    4.00    5.60
  -1   1  12    0.90    4.80
   0  -1 -12    0.30    5.30
   0   1  12    3.00    4.90
  -1  -1 -12   30.50   10.20
   1   1  12   30.90   10.10
  -2  -1 -12   23.60   10.50
   6  -2 -12   25.90   10.40
  -6   2  12   18.40    9.60
   5  -2 -12   29.00   10.40
  -5   2  12   32.70   12.30
   4  -2 -12    9.50    7.30
  -4   2  12    1.30    5.50
   3  -2 -12    4.00    6.50
  -3   2  12    0.80    5.00
   2  -2 -12  117.49   18.20
  -2   2  12   94.39   15.60
   1  -2 -12    2.90    4.90
  -1   2  12    5.00    5.40
   0  -2 -12   16.80    8.30
   0   2  12   50.09   11.20
  -1  -2 -12    1.50    5.80
   6  -3 -12  116.29   18.30
  -6   3  12  100.79   18.80
   5  -3 -12   87.09   16.30
  -5   3  12   69.09   15.30
   4  -3 -12    9.70    7.40
  -4   3  12    3.40    5.40
   3  -3 -12   24.60    9.80
  -3   3  12   44.80   11.00
   2  -3 -12   27.80    9.90
  -2   3  12   26.70    8.50
   1  -3 -12    8.40    7.10
   0  -3 -12   30.30   11.00
  -1  -3 -12    6.90    6.30
   5  -4 -12   13.50    9.20
  -5   4  12   12.20    7.80
   4  -4 -12    7.80    7.30
  -4   4  12   17.10    8.40
   3  -4 -12   19.50    9.00
  -3   4  12    3.00    5.80
   2  -4 -12    5.30    5.90
   1  -4 -12   71.09   15.10
   0  -4 -12   -1.30    6.10
   4  -5 -12    0.90    6.50
  -4   5  12    8.10    6.60
   3  -5 -12   83.99   16.60
   2  -5 -12   40.30   12.20
   2   5 -13   21.40    8.80
  -2  -5  13   10.50    7.40
   1   5 -13    1.40    6.50
  -1  -5  13    4.10    5.70
   0  -5  13   32.90   12.00
   3   4 -13   34.70   10.80
  -3  -4  13   26.90   10.60
   2   4 -13   76.49   14.80
  -2  -4  13   64.89   15.40
   1   4 -13    8.50    6.70
  -1  -4  13    2.50    5.40
   0   4 -13   39.30   11.30
   0  -4  13   57.09   14.20
   1  -4  13  159.78   24.80
   4   3 -13    0.50    6.90
  -4  -3  13   -4.60    5.60
   3   3 -13   71.29   14.20
  -3  -3  13   91.49   19.00
   2   3 -13    4.60    6.90
  -2  -3  13   12.60    8.30
   1   3 -13  100.79   16.90
  -1  -3  13   91.49   18.20
   0   3 -13   -4.60    4.80
   0  -3  13   -2.30    4.80
  -1   3 -13    0.80    5.90
   1  -3  13   10.90    7.50
   5   2 -13   -0.80    6.50
  -5  -2  13    6.40    7.70
   4   2 -13   13.90    7.60
  -4  -2  13    4.30    6.30
   3   2 -13   10.10    7.70
  -3  -2  13   15.80    8.60
   2   2 -13   13.20    7.20
  -2  -2  13   10.60    7.00
   1   2 -13   -0.30    4.90
  -1  -2  13    2.40    5.20
   0   2 -13    7.40    6.60
   0  -2  13   18.00    9.20
  -1   2 -13   -8.80    4.00
   1  -2  13   -1.00    4.50
   5   1 -13   11.70    7.50
  -5  -1  13   20.80    9.50
   4   1 -13   79.69   15.00
  -4  -1  13   76.09   16.40
   3   1 -13   40.10   10.70
  -3  -1  13   16.50    9.00
   2   1 -13   20.80    8.50
  -2  -1  13   18.40    9.40
   1   1 -13  110.79   17.50
  -1  -1  13  102.19   18.80
   0   1 -13   18.80    8.80
   0  -1  13   42.70   11.90
  -1   1 -13   19.60    8.50
   1  -1  13   22.40    9.80
   5   0 -13   26.40   11.20
  -5   0  13   38.40   12.50
   4   0 -13    2.30    6.20
  -4   0  13   -0.40    5.40
   3   0 -13   68.69   14.20
  -3   0  13   64.49   14.50
   2   0 -13   39.30   11.30
  -2   0  13   56.59   14.10
   1   0 -13   50.49   12.80
  -1   0  13   26.20    9.90
   0   0 -13   38.70   10.90
   0   0  13   28.10    9.60
  -1   0 -13   11.50    7.70
   1   0  13    8.30    6.80
   5  -1 -13    1.00    5.60
  -5   1  13   -4.50    4.60
   4  -1 -13   19.10    8.80
  -4   1  13   18.20    8.80
   3  -1 -13    7.70    7.10
  -3   1  13   10.00    7.90
   2  -1 -13   -1.70    4.90
  -2   1  13   -1.00    4.60
   1  -1 -13   -2.00    5.40
  -1   1  13    2.80    5.50
   0  -1 -13  151.58   20.90
   0   1  13  150.48   21.10
  -1  -1 -13  146.99   21.80
   5  -2 -13    5.60    6.30
  -5   2  13   -1.50    5.80
   4  -2 -13   29.50   10.50
  -4   2  13    8.60    6.50
   3  -2 -13    6.40    7.80
  -3   2  13   -1.10    5.00
   2  -2 -13  147.49   20.90
  -2   2  13  123.59   19.50
   1  -2 -13  333.57   32.50
  -1   2  13  368.16   27.40
   0  -2 -13   20.20    8.80
   5  -3 -13   -1.70    6.50
  -5   3  13    1.10    6.00
   4  -3 -13    4.90    6.70
  -4   3  13    9.40    7.00
   3  -3 -13   21.10    8.90
  -3   3  13   20.90    8.50
   2  -3 -13    7.70    6.80
  -2   3  13   12.60    6.70
   1  -3 -13   -3.60    6.20
   3  -4 -13    4.00    7.20
  -3   4  13   19.20   12.90
   2  -4 -13   71.39   16.10
   3   3 -14   -2.60    5.10
  -3  -3  14    4.20    6.70
   2   3 -14   13.30    8.20
  -2  -3  14   37.00   12.50
   1   3 -14   23.60    9.90
  -1  -3  14   35.00   12.00
   0   3 -14   -0.40    6.10
   0  -3  14    0.70    5.90
   3   2 -14   27.40   11.00
  -3  -2  14   18.70    9.10
   2   2 -14   13.90    8.40
  -2  -2  14   14.50    8.90
   1   2 -14   32.30   11.10
  -1  -2  14   13.00    8.60
   0   2 -14   -6.60    5.20
   0  -2  14   -5.20    5.10
   4   1 -14    1.30    6.30
  -4  -1  14   -7.90    4.50
   3   1 -14   14.10    8.50
  -3  -1  14   33.90   11.60
   2   1 -14  107.49   19.00
  -2  -1  14  147.19   23.40
   1   1 -14   18.30    9.10
  -1  -1  14    5.20    7.40
   0   1 -14   60.79   14.70
   0  -1  14   31.30   10.90
   4   0 -14   75.69   14.10
  -4   0  14   63.59   15.00
   3   0 -14   14.50    8.90
  -3   0  14   31.30   12.40
   2   0 -14    2.70    7.30
  -2   0  14   12.80    7.60
   1   0 -14   32.60   11.30
  -1   0  14   39.10   12.60
   0   0 -14   -1.10    6.00
   0   0  14   -0.50    5.50
   4  -1 -14   -4.60    6.00
  -4   1  14    8.80    7.50
   3  -1 -14   11.00    7.60
  -3   1  14   16.00    8.80
   2  -1 -14    7.00    7.30
  -2   1  14    7.20    6.60
   1  -1 -14   88.89   17.20
  -1   1  14   85.49   16.90
   3  -2 -14   13.10    8.30
  -3   2  14    2.10    6.50
   2  -2 -14    2.80    5.90
  -2   2  14    1.30    6.10
   0   0   0    0.00    0.00

_computing_structure_solution     'SHELXT 2014/5 (Sheldrick, 2014)'
;
_shelx_hkl_checksum              3034
_shelx_shelxl_version_number     2014/7
_olex2_submission_special_instructions 'No special instructions were received'
loop_
_space_group_symop_operation_xyz
'x, y, z'
'-x, -y, -z'
loop_
_atom_site_label
_atom_site_type_symbol
_atom_site_fract_x
_atom_site_fract_y
_atom_site_fract_z
_atom_site_U_iso_or_equiv
_atom_site_adp_type
_atom_site_occupancy
_atom_site_site_symmetry_order
_atom_site_calc_flag
_atom_site_refinement_flags_posn
O2 O -0.0495(3) 0.6863(3) 0.1385(2) 0.0335(6) Uani 1 1 d .
O1 O 0.0882(4) 0.6786(3) -0.01654(19) 0.0306(6) Uani 1 1 d .
O6 O 0.6148(4) 0.3389(3) 0.4174(2) 0.0332(6) Uani 1 1 d .
O8 O 0.2295(4) 0.0766(3) 0.0395(2) 0.0333(6) Uani 1 1 d .
N3 N 0.2491(4) 0.4880(3) 0.2966(2) 0.0184(5) Uani 1 1 d .
O7 O 0.5646(4) 0.1421(3) 0.1386(2) 0.0379(6) Uani 1 1 d .
N1 N 0.1012(4) 0.6887(3) 0.0940(2) 0.0223(6) Uani 1 1 d .
N8 N 0.4570(4) 0.4759(3) 0.1547(2) 0.0210(5) Uani 1 1 d .
N2 N 0.3032(4) 0.7171(3) 0.1759(2) 0.0212(6) Uani 1 1 d .
N7 N 0.3803(4) 0.1373(3) 0.1300(2) 0.0233(6) Uani 1 1 d .
N6 N 0.5038(4) 0.2089(3) 0.3526(2) 0.0250(6) Uani 1 1 d .
N4 N 0.0434(4) 0.2279(3) 0.3398(2) 0.0254(6) Uani 1 1 d .
O5 O 0.5169(5) 0.0664(3) 0.3673(3) 0.0478(7) Uani 1 1 d .
O3 O 0.0976(4) 0.3106(3) 0.5414(2) 0.0433(7) Uani 1 1 d .
N5 N 0.1178(5) 0.2095(4) 0.4640(3) 0.0328(7) Uani 1 1 d .
C3 C 0.1010(5) 0.1248(3) 0.2496(3) 0.0186(6) Uani 1 1 d .
H3A H -0.0066 0.1055 0.1682 0.022 Uiso 1 1 calc R
H3B H 0.1052 0.0130 0.2766 0.022 Uiso 1 1 calc R
O4 O 0.1980(5) 0.0939(4) 0.4871(3) 0.0543(8) Uani 1 1 d .
C5 C 0.3469(4) 0.4091(4) 0.2243(2) 0.0181(6) Uani 1 1 d .
C4 C 0.3282(4) 0.2232(4) 0.2391(2) 0.0179(6) Uani 1 1 d .
C1 C 0.2998(5) 0.6709(4) 0.2993(3) 0.0221(6) Uani 1 1 d .
H1A H 0.4418 0.7243 0.3587 0.026 Uiso 1 1 calc R
H1B H 0.1913 0.7146 0.3279 0.026 Uiso 1 1 calc R
C6 C 0.4579(5) 0.6482(4) 0.1294(3) 0.0263(7) Uani 1 1 d .
H6A H 0.4258 0.6491 0.0388 0.032 Uiso 1 1 calc R
H6B H 0.6039 0.7242 0.1674 0.032 Uiso 1 1 calc R
C2 C 0.0396(5) 0.3976(4) 0.3132(3) 0.0255(7) Uani 1 1 d .
H2A H 0.0095 0.4608 0.3822 0.031 Uiso 1 1 calc R
H2B H -0.0758 0.3909 0.2369 0.031 Uiso 1 1 calc R
loop_
_atom_site_aniso_label
_atom_site_aniso_U_11
_atom_site_aniso_U_22
_atom_site_aniso_U_33
_atom_site_aniso_U_23
_atom_site_aniso_U_13
_atom_site_aniso_U_12
O2 0.0248(12) 0.0445(15) 0.0363(13) 0.0090(10) 0.0112(10) 0.0146(10)
O1 0.0408(14) 0.0327(13) 0.0166(10) 0.0050(9) 0.0041(9) 0.0100(11)
O6 0.0335(13) 0.0307(13) 0.0249(12) -0.0003(9) -0.0055(9) 0.0044(10)
O8 0.0341(13) 0.0356(14) 0.0233(11) -0.0094(9) 0.0016(9) 0.0072(10)
N3 0.0232(12) 0.0159(12) 0.0168(11) 0.0025(9) 0.0072(9) 0.0046(10)
O7 0.0269(12) 0.0412(15) 0.0469(15) -0.0047(11) 0.0141(11) 0.0106(11)
N1 0.0276(14) 0.0203(13) 0.0206(12) 0.0054(9) 0.0062(10) 0.0092(11)
N8 0.0173(12) 0.0219(13) 0.0237(12) 0.0052(10) 0.0049(9) 0.0054(10)
N2 0.0248(13) 0.0197(13) 0.0190(12) 0.0056(9) 0.0050(10) 0.0060(10)
N7 0.0268(14) 0.0210(13) 0.0236(13) 0.0016(10) 0.0083(10) 0.0084(11)
N6 0.0263(13) 0.0264(15) 0.0202(13) 0.0059(10) 0.0013(10) 0.0074(11)
N4 0.0271(13) 0.0273(15) 0.0226(13) 0.0051(10) 0.0087(10) 0.0061(11)
O5 0.0515(17) 0.0301(15) 0.0527(17) 0.0132(12) -0.0082(13) 0.0149(13)
O3 0.0558(17) 0.0492(16) 0.0261(12) -0.0001(11) 0.0151(12) 0.0139(13)
N5 0.0368(16) 0.0380(17) 0.0275(14) 0.0131(12) 0.0106(12) 0.0130(14)
C3 0.0260(14) 0.0123(13) 0.0188(13) 0.0037(10) 0.0081(11) 0.0054(11)
O4 0.067(2) 0.061(2) 0.0498(17) 0.0268(14) 0.0221(15) 0.0325(17)
C5 0.0158(13) 0.0195(15) 0.0154(13) 0.0012(10) 0.0001(10) 0.0027(11)
C4 0.0181(13) 0.0183(14) 0.0155(13) 0.0009(10) 0.0013(10) 0.0052(11)
C1 0.0295(15) 0.0177(15) 0.0173(13) 0.0032(11) 0.0034(11) 0.0059(12)
C6 0.0236(15) 0.0276(17) 0.0339(17) 0.0133(13) 0.0137(13) 0.0101(13)
C2 0.0267(16) 0.0275(17) 0.0273(15) 0.0077(12) 0.0124(13) 0.0101(13)
loop_
_atom_type_symbol
_atom_type_description
_atom_type_scat_dispersion_real
_atom_type_scat_dispersion_imag
_atom_type_scat_source
C C 0.0033 0.0016 'International Tables Vol C Tables 4.2.6.8 and 6.1.1.4'
H H 0.0000 0.0000 'International Tables Vol C Tables 4.2.6.8 and 6.1.1.4'
N N 0.0061 0.0033 'International Tables Vol C Tables 4.2.6.8 and 6.1.1.4'
O O 0.0106 0.0060 'International Tables Vol C Tables 4.2.6.8 and 6.1.1.4'
loop_
_geom_angle_atom_site_label_1
_geom_angle_atom_site_label_2
_geom_angle_atom_site_label_3
_geom_angle
C5 N3 C1 113.7(2)
C5 N3 C2 120.6(2)
C1 N3 C2 118.7(2)
O2 N1 N2 117.3(2)
O1 N1 O2 124.7(3)
O1 N1 N2 117.8(2)
C5 N8 C6 118.8(2)
N1 N2 C1 114.1(2)
N1 N2 C6 115.9(2)
C6 N2 C1 110.5(2)
O8 N7 C4 115.8(2)
O7 N7 O8 126.0(3)
O7 N7 C4 118.1(2)
O6 N6 O5 126.4(3)
O6 N6 C4 117.5(2)
O5 N6 C4 116.1(2)
N5 N4 C3 117.0(3)
N5 N4 C2 116.7(2)
C2 N4 C3 115.5(2)
O3 N5 N4 117.8(3)
O4 N5 N4 117.8(3)
O4 N5 O3 124.4(3)
N4 C3 H3A 110.1
N4 C3 H3B 110.1
N4 C3 C4 107.9(2)
H3A C3 H3B 108.4
C4 C3 H3A 110.1
C4 C3 H3B 110.1
N3 C5 C4 114.1(2)
N8 C5 N3 127.6(3)
N8 C5 C4 118.3(2)
N7 C4 N6 104.0(2)
N7 C4 C3 110.4(2)
N6 C4 C3 110.0(2)
C5 C4 N7 108.9(2)
C5 C4 N6 110.2(2)
C5 C4 C3 113.0(2)
N3 C1 N2 110.8(2)
N3 C1 H1A 109.5
N3 C1 H1B 109.5
N2 C1 H1A 109.5
N2 C1 H1B 109.5
H1A C1 H1B 108.1
N8 C6 N2 114.2(2)
N8 C6 H6A 108.7
N8 C6 H6B 108.7
N2 C6 H6A 108.7
N2 C6 H6B 108.7
H6A C6 H6B 107.6
N3 C2 H2A 109.8
N3 C2 H2B 109.8
N4 C2 N3 109.6(2)
N4 C2 H2A 109.8
N4 C2 H2B 109.8
H2A C2 H2B 108.2
loop_
_geom_bond_atom_site_label_1
_geom_bond_atom_site_label_2
_geom_bond_distance
O2 N1 1.227(3)
O1 N1 1.221(3)
O6 N6 1.205(3)
O8 N7 1.215(3)
N3 C5 1.378(3)
N3 C1 1.448(4)
N3 C2 1.477(4)
O7 N7 1.201(3)
N1 N2 1.388(3)
N8 C5 1.266(4)
N8 C6 1.458(4)
N2 C1 1.471(4)
N2 C6 1.471(4)
N7 C4 1.525(3)
N6 O5 1.210(3)
N6 C4 1.540(4)
N4 N5 1.395(4)
N4 C3 1.455(4)
N4 C2 1.447(4)
O3 N5 1.212(4)
N5 O4 1.209(4)
C3 H3A 0.9900
C3 H3B 0.9900
C3 C4 1.572(4)
C5 C4 1.521(4)
C1 H1A 0.9900
C1 H1B 0.9900
C6 H6A 0.9900
C6 H6B 0.9900
C2 H2A 0.9900
C2 H2B 0.9900
