#------------------------------------------------------------------------------
#$Date: 2019-03-14 01:10:15 +0200 (Thu, 14 Mar 2019) $
#$Revision: 214109 $
#$URL: file:///home/coder/svn-repositories/cod/cif/7/12/31/7123136.cif $
#------------------------------------------------------------------------------
#
# This file is available in the Crystallography Open Database (COD),
# http://www.crystallography.net/
#
# All data on this site have been placed in the public domain by the
# contributors.
#
data_7123136
loop_
_publ_author_name
'Shi, Min'
'Zhang, Yan-Yan'
'Wei, Yin'
_publ_section_title
;
 Gold(I)-Catalyzed Enantioselective Synthesis of Polycyclic Indoline
 Skeletons and Enantiomerically Enriched \b-Substituted Tryptamine-Allenes
 by Kinetic Resolution
;
_journal_name_full               'Chemical Communications'
_journal_paper_doi               10.1039/C9CC00412B
_journal_year                    2019
_chemical_absolute_configuration rmad
_chemical_formula_moiety         'C26 H26 N2 O2 S2'
_chemical_formula_sum            'C26 H26 N2 O2 S2'
_chemical_formula_weight         462.61
_space_group_crystal_system      triclinic
_space_group_IT_number           1
_space_group_name_Hall           'P 1'
_space_group_name_H-M_alt        'P 1'
_symmetry_space_group_name_Hall  'P 1'
_symmetry_space_group_name_H-M   'P 1'
_atom_sites_solution_hydrogens   geom
_atom_sites_solution_primary     dual
_audit_creation_date             2018-04-20
_audit_creation_method
;
Olex2 1.2
(compiled 2018.04.03 svn.r3497 for OlexSys, GUI svn.r5486)
;
_audit_update_record
;
2018-04-20 deposited with the CCDC.    2019-03-12 downloaded from the CCDC.
;
_cell_angle_alpha                108.3570(10)
_cell_angle_beta                 103.5550(10)
_cell_angle_gamma                93.6680(10)
_cell_formula_units_Z            1
_cell_length_a                   6.42400(10)
_cell_length_b                   8.1480(2)
_cell_length_c                   11.8965(3)
_cell_measurement_reflns_used    9956
_cell_measurement_temperature    170(2)
_cell_measurement_theta_max      54.951
_cell_measurement_theta_min      7.079
_cell_volume                     568.10(2)
_computing_cell_refinement       'SAINT v8.37A (Bruker, 2015)'
_computing_data_reduction        'SAINT v8.37A (Bruker, 2015)'
_computing_molecular_graphics    'Olex2 (Dolomanov et al., 2009)'
_computing_publication_material  'Olex2 (Dolomanov et al., 2009)'
_computing_structure_refinement  'ShelXL (Sheldrick, 2015)'
_computing_structure_solution    'ShelXT (Sheldrick, 2015)'
_diffrn_ambient_temperature      170.01
_diffrn_measured_fraction_theta_full 0.982
_diffrn_measured_fraction_theta_max 0.982
_diffrn_measurement_device_type  'Bruker D8 Venture'
_diffrn_measurement_method       '\f and \w scans'
_diffrn_radiation_type           GaK\a
_diffrn_radiation_wavelength     1.34139
_diffrn_reflns_av_R_equivalents  0.0339
_diffrn_reflns_av_unetI/netI     0.0364
_diffrn_reflns_Laue_measured_fraction_full 0.982
_diffrn_reflns_Laue_measured_fraction_max 0.982
_diffrn_reflns_limit_h_max       7
_diffrn_reflns_limit_h_min       -7
_diffrn_reflns_limit_k_max       9
_diffrn_reflns_limit_k_min       -9
_diffrn_reflns_limit_l_max       14
_diffrn_reflns_limit_l_min       -14
_diffrn_reflns_number            13704
_diffrn_reflns_point_group_measured_fraction_full 0.952
_diffrn_reflns_point_group_measured_fraction_max 0.951
_diffrn_reflns_theta_full        53.594
_diffrn_reflns_theta_max         54.926
_diffrn_reflns_theta_min         7.076
_diffrn_standards_number         0
_exptl_absorpt_coefficient_mu    1.516
_exptl_absorpt_correction_T_max  0.7508
_exptl_absorpt_correction_T_min  0.5916
_exptl_absorpt_correction_type   multi-scan
_exptl_absorpt_process_details
'SADABS-2016/2 (Bruker,2016/2) was used for absorption correction. wR2(int) was 0.1016 before and 0.0670 after correction. The Ratio of minimum to maximum transmission is 0.7880. The \l/2 correction factor is Not present.'
_exptl_crystal_colour            colourless
_exptl_crystal_density_diffrn    1.352
_exptl_crystal_description       block
_exptl_crystal_F_000             244
_exptl_crystal_size_max          0.1
_exptl_crystal_size_mid          0.08
_exptl_crystal_size_min          0.05
_refine_diff_density_max         0.430
_refine_diff_density_min         -0.388
_refine_diff_density_rms         0.051
_refine_ls_abs_structure_details
;
 Flack x determined using 1931 quotients [(I+)-(I-)]/[(I+)+(I-)]
 (Parsons, Flack and Wagner, Acta Cryst. B69 (2013) 249-259).
;
_refine_ls_abs_structure_Flack   0.073(6)
_refine_ls_extinction_method     none
_refine_ls_goodness_of_fit_ref   1.026
_refine_ls_hydrogen_treatment    constr
_refine_ls_matrix_type           full
_refine_ls_number_parameters     291
_refine_ls_number_reflns         4110
_refine_ls_number_restraints     3
_refine_ls_restrained_S_all      1.026
_refine_ls_R_factor_all          0.0370
_refine_ls_R_factor_gt           0.0369
_refine_ls_shift/su_max          0.003
_refine_ls_shift/su_mean         0.000
_refine_ls_structure_factor_coef Fsqd
_refine_ls_weighting_details
'w=1/[\s^2^(Fo^2^)+(0.0684P)^2^+0.1838P] where P=(Fo^2^+2Fc^2^)/3'
_refine_ls_weighting_scheme      calc
_refine_ls_wR_factor_gt          0.1009
_refine_ls_wR_factor_ref         0.1010
_reflns_Friedel_coverage         0.938
_reflns_Friedel_fraction_full    0.921
_reflns_Friedel_fraction_max     0.921
_reflns_number_gt                4080
_reflns_number_total             4110
_reflns_threshold_expression     'I > 2\s(I)'
_cod_data_source_file            c9cc00412b2.cif
_cod_data_source_block           mjl18153_0m
_cod_database_code               7123136
_shelx_shelxl_version_number     2016/6
_shelx_space_group_comment
;
The symmetry employed for this shelxl refinement is uniquely defined
by the following loop, which should always be used as a source of
symmetry information in preference to the above space-group names.
They are only intended as comments.
;
_shelx_estimated_absorpt_t_max   0.928
_shelx_estimated_absorpt_t_min   0.863
_olex2_refinement_description
;
1. Fixed Uiso
 At 1.2 times of:
  All C(H) groups, All C(H,H) groups
 At 1.5 times of:
  All C(H,H,H) groups
2.a Ternary CH refined with riding coordinates:
 C1(H1), C3(H3), C6(H6)
2.b Secondary CH2 refined with riding coordinates:
 C14(H14A,H14B), C19(H19A,H19B)
2.c Aromatic/amide H refined with riding coordinates:
 C4(H4), C5(H5), C8(H8), C9(H9), C10(H10), C11(H11), C16(H16), C17(H17),
 C18(H18), C21(H21), C22(H22), C24(H24), C25(H25)
2.d Idealised Me refined as rotating group:
 C13(H13A,H13B,H13C), C26(H26A,H26B,H26C)
;
_shelx_res_file
;
TITL mjl18153_0m_a.res in P1
    mjl18153_0m.res
    created by SHELXL-2016/6 at 13:52:04 on 20-Apr-2018
REM Old TITL mjl18153_0m in P1
REM SHELXT solution in P1
REM R1 0.094, Rweak 0.049, Alpha 0.000, Orientation as input
REM Flack x = 0.216 ( 0.005 ) from Parsons' quotients
REM Formula found by SHELXT: C26 N2 O2 S2
CELL 1.34139 6.424 8.148 11.8965 108.357 103.555 93.668
ZERR 1 0.0001 0.0002 0.0003 0.001 0.001 0.001
LATT -1
SFAC C H N O S
DISP C 0.0148 0.007 57.7477
DISP H -0 0 0.6481
DISP N 0.0253 0.0136 110.5121
DISP O 0.0412 0.025 193.9543
DISP S 0.2924 0.4247 3241.7632
UNIT 26 26 2 2 2

L.S. 4
PLAN  20
SIZE 0.05 0.08 0.1
TEMP -103.14
BOND $H
list 4
fmap 2
ACTA
REM <olex2.extras>
REM <HklSrc "%.\\mjl18153_0m.hkl">
REM </olex2.extras>

WGHT    0.068400    0.183800
FVAR       2.72855
S1    5    0.112602    1.013603    0.474231    11.00000    0.04853    0.03408 =
         0.06305    0.02232    0.01867    0.01591
S2    5    0.879440    0.525906    0.762327    11.00000    0.02373    0.02501 =
         0.02628    0.01489    0.00020    0.00144
O1    4    0.876103    0.696928    0.845200    11.00000    0.04280    0.02413 =
         0.02992    0.01161   -0.00583   -0.00154
O2    4    1.081766    0.474984    0.743904    11.00000    0.02295    0.04853 =
         0.04420    0.02860    0.00544    0.00871
N1    3    0.101421    0.430572    0.245951    11.00000    0.02301    0.03010 =
         0.01889    0.00791    0.00183    0.00164
N2    3    0.730631    0.513592    0.627186    11.00000    0.02544    0.02411 =
         0.02168    0.01074    0.00321    0.00556
C1    1    0.485679    0.644569    0.506150    11.00000    0.02180    0.01893 =
         0.01799    0.00799    0.00472    0.00301
AFIX  13
H1    2    0.622482    0.719271    0.515249    11.00000   -1.20000
AFIX   0
C2    1    0.456552    0.486818    0.386507    11.00000    0.02328    0.01769 =
         0.01895    0.00812    0.00568    0.00235
C3    1    0.633712    0.367859    0.401125    11.00000    0.02933    0.02232 =
         0.02233    0.01005    0.00917    0.00832
AFIX  13
H3    2    0.765092    0.409766    0.380659    11.00000   -1.20000
AFIX   0
C4    1    0.521705    0.193414    0.307063    11.00000    0.04532    0.02024 =
         0.02592    0.01045    0.01362    0.01046
AFIX  43
H4    2    0.595475    0.099318    0.275407    11.00000   -1.20000
AFIX   0
C5    1    0.307857    0.186695    0.273643    11.00000    0.04354    0.01868 =
         0.02492    0.00838    0.00903   -0.00052
AFIX  43
H5    2    0.210444    0.085318    0.218817    11.00000   -1.20000
AFIX   0
C6    1    0.237964    0.359842    0.333348    11.00000    0.02801    0.02315 =
         0.01982    0.01062    0.00564   -0.00047
AFIX  13
H6    2    0.169311    0.354989    0.399711    11.00000   -1.20000
AFIX   0
C7    1    0.242231    0.524016    0.206611    11.00000    0.03410    0.02252 =
         0.01878    0.00857    0.00649    0.00725
C8    1    0.189775    0.587419    0.108903    11.00000    0.04309    0.03625 =
         0.01938    0.01155    0.00234    0.01200
AFIX  43
H8    2    0.045701    0.565725    0.058124    11.00000   -1.20000
AFIX   0
C9    1    0.354089    0.682871    0.088255    11.00000    0.06259    0.03319 =
         0.02533    0.01939    0.01265    0.01512
AFIX  43
H9    2    0.321525    0.728897    0.023091    11.00000   -1.20000
AFIX   0
C10   1    0.566145    0.712703    0.161162    11.00000    0.05610    0.02598 =
         0.02805    0.01268    0.02036    0.00485
AFIX  43
H10   2    0.677055    0.776731    0.144530    11.00000   -1.20000
AFIX   0
C11   1    0.615916    0.648875    0.258373    11.00000    0.03443    0.02109 =
         0.02726    0.00959    0.01200    0.00515
AFIX  43
H11   2    0.760327    0.669185    0.308501    11.00000   -1.20000
AFIX   0
C12   1    0.453330    0.555924    0.281031    11.00000    0.03327    0.01971 =
         0.01980    0.01093    0.01110    0.00840
C13   1   -0.083566    0.312533    0.153075    11.00000    0.02922    0.04226 =
         0.02398    0.00327    0.00047   -0.00246
AFIX 137
H13A  2   -0.173425    0.378923    0.110304    11.00000   -1.50000
H13B  2   -0.169574    0.256786    0.192799    11.00000   -1.50000
H13C  2   -0.032005    0.222570    0.093714    11.00000   -1.50000
AFIX   0
C14   1    0.695659    0.343457    0.527333    11.00000    0.03396    0.02248 =
         0.02694    0.01213    0.00695    0.01083
AFIX  23
H14A  2    0.578640    0.264023    0.533240    11.00000   -1.20000
H14B  2    0.829546    0.289383    0.536059    11.00000   -1.20000
AFIX   0
C15   1    0.313533    0.762614    0.504524    11.00000    0.02372    0.01742 =
         0.01942    0.00649    0.00480    0.00188
C16   1    0.310298    0.888428    0.450565    11.00000    0.03521    0.02626 =
         0.04058    0.01813    0.01681    0.01112
AFIX  43
H16   2    0.408189    0.904052    0.404770    11.00000   -1.20000
AFIX   0
C17   1    0.017613    0.909579    0.557834    11.00000    0.01184    0.01635 =
         0.01892    0.00176    0.00557   -0.00287
AFIX  43
H17   2   -0.098368    0.937334    0.594047    11.00000   -1.20000
AFIX   0
C18   1    0.146453    0.767224    0.565070    11.00000    0.02603    0.02476 =
         0.02729    0.00940    0.00982    0.00263
AFIX  43
H18   2    0.120425    0.687691    0.605679    11.00000   -1.20000
AFIX   0
C19   1    0.527707    0.590873    0.620447    11.00000    0.02312    0.02284 =
         0.02211    0.01146    0.00339    0.00475
AFIX  23
H19A  2    0.543372    0.694000    0.694954    11.00000   -1.20000
H19B  2    0.406179    0.504215    0.613856    11.00000   -1.20000
AFIX   0
C20   1    0.752078    0.368073    0.806649    11.00000    0.02604    0.02447 =
         0.01883    0.01047    0.00096    0.00189
C21   1    0.570411    0.401973    0.850118    11.00000    0.03024    0.03210 =
         0.03050    0.01611    0.00720    0.01024
AFIX  43
H21   2    0.518108    0.510293    0.857512    11.00000   -1.20000
AFIX   0
C22   1    0.467179    0.277271    0.882300    11.00000    0.03084    0.03924 =
         0.02979    0.01659    0.00767    0.00155
AFIX  43
H22   2    0.342491    0.299696    0.911295    11.00000   -1.20000
AFIX   0
C23   1    0.544174    0.117465    0.872727    11.00000    0.04106    0.02922 =
         0.02070    0.01067    0.00109   -0.00776
C24   1    0.724598    0.086292    0.829050    11.00000    0.05075    0.02060 =
         0.02467    0.00829    0.00536    0.00254
AFIX  43
H24   2    0.777620   -0.021724    0.821849    11.00000   -1.20000
AFIX   0
C25   1    0.829554    0.210847    0.795509    11.00000    0.03494    0.02316 =
         0.02221    0.00678    0.00582    0.00467
AFIX  43
H25   2    0.952986    0.188102    0.765314    11.00000   -1.20000
AFIX   0
C26   1    0.435843   -0.015281    0.912541    11.00000    0.07334    0.04087 =
         0.04301    0.02044    0.01371   -0.01325
AFIX 137
H26A  2    0.542037   -0.085572    0.939622    11.00000   -1.50000
H26B  2    0.318418   -0.091735    0.843355    11.00000   -1.50000
H26C  2    0.376444    0.044918    0.980601    11.00000   -1.50000
AFIX   0
HKLF 4




REM  mjl18153_0m_a.res in P1
REM R1 =  0.0369 for    4080 Fo > 4sig(Fo)  and  0.0370 for all    4110 data
REM    291 parameters refined using      3 restraints

END

WGHT      0.0683      0.1847

REM Highest difference peak  0.430,  deepest hole -0.388,  1-sigma level  0.051
Q1    1   0.0563  0.8884  0.5755  11.00000  0.05    0.43
Q2    1   0.8012  0.5171  0.6971  11.00000  0.05    0.25
Q3    1   0.4987  0.1760  0.8660  11.00000  0.05    0.20
Q4    1   0.3467  0.8873  0.5159  11.00000  0.05    0.19
Q5    1   0.4750  0.0050  1.0154  11.00000  0.05    0.19
Q6    1   0.4967  0.6596  0.3016  11.00000  0.05    0.18
Q7    1   0.0726  1.1452  0.4827  11.00000  0.05    0.18
Q8    1   0.1964  1.1404  0.4839  11.00000  0.05    0.18
Q9    1   0.1864  0.8950  0.4666  11.00000  0.05    0.16
Q10   1   0.5206  0.6193  0.5687  11.00000  0.05    0.16
Q11   1   0.2178  0.5696  0.1708  11.00000  0.05    0.16
Q12   1   0.3200  0.7038  0.2719  11.00000  0.05    0.16
Q13   1   0.4347 -0.1441  0.8855  11.00000  0.05    0.16
Q14   1   0.1777  1.1112  0.4273  11.00000  0.05    0.16
Q15   1   0.5435  0.7175  0.3617  11.00000  0.05    0.16
Q16   1   0.5898  0.1295  0.8449  11.00000  0.05    0.16
Q17   1   0.2806  0.2749  0.3009  11.00000  0.05    0.16
Q18   1   0.5332  0.3255  0.8562  11.00000  0.05    0.16
Q19   1   0.8933  0.6580  0.7986  11.00000  0.05    0.16
Q20   1   0.6761  0.3629  0.4668  11.00000  0.05    0.15
;
_shelx_res_checksum              33041
_shelx_hkl_file
;
  -2   0   0  530.85   32.60
  -2   0   0  552.84   32.70
  -2   0   0  571.94   33.30
  -2   0   0  596.34   33.40
  -2   0   0  576.14   33.30
  -2   0   0  539.75   32.80
   2   0   0  588.44   34.10
   2   0   0  604.04   32.90
   2   0   0  622.34   32.90
   2   0   0  648.94   33.40
   2   0   0  608.24   33.40
   2   0   0  604.74   33.50
   2   0   0  555.84   32.50
  -3   0   0 2859.61  156.78
  -3   0   0 2725.03  155.88
  -3   0   0 2748.93  156.38
  -3   0   0 2857.71  158.88
  -3   0   0 2650.63  155.58
  -3   0   0 2651.03  155.38
  -3   0   0 2890.31  156.68
  -3   0   0 2810.52  155.78
   3   0   0 2818.52  156.68
   3   0   0 2946.61  157.58
   3   0   0 2625.24  155.38
   3   0   0 2869.21  157.78
   3   0   0 2828.82  156.18
   3   0   0 3085.49  156.88
   3   0   0 2935.01  156.08
   3   0   0 2957.10  156.18
  -4   0   0  620.34   37.00
  -4   0   0  651.23   37.60
  -4   0   0  709.23   39.60
  -4   0   0  692.73   39.30
  -4   0   0  661.03   37.90
  -4   0   0  713.03   39.70
  -4   0   0  709.93   39.10
  -4   0   0  685.23   38.20
   4   0   0  644.94   37.30
   4   0   0  651.93   39.10
   4   0   0  642.34   38.20
   4   0   0  621.84   38.00
   4   0   0  659.03   40.10
   4   0   0  583.54   37.20
   4   0   0  654.73   39.10
  -5   0   0 2185.38  127.69
  -5   0   0 2236.98  128.29
  -5   0   0 2329.87  130.39
  -5   0   0 2233.88  129.69
  -5   0   0 2167.18  129.99
  -5   0   0 2337.47  129.79
   5   0   0 2273.87  130.89
   5   0   0 2333.97  127.39
   5   0   0 2332.97  128.59
   5   0   0 2368.06  130.09
   5   0   0 2390.96  129.99
   5   0   0 2406.76  128.69
  -6   0   0  110.09    9.40
  -6   0   0  114.09   11.30
  -6   0   0   98.59   13.00
  -6   0   0  105.89   10.60
   6   0   0  121.99   11.10
   6   0   0  111.39    8.10
   6   0   0  125.79   12.60
   6   0   0  126.29    9.70
  -7   0   0  283.97   21.10
   7   0   0  302.07   22.50
   7   0   0  298.27   21.00
   7  -1   0  125.89   10.50
  -7   1   0  135.59   10.60
  -7   1   0  137.69   12.90
  -7   1   0  144.99   12.90
   6  -1   0  238.48   15.90
   6  -1   0  228.68   15.30
   6  -1   0  245.38   17.20
   6  -1   0  237.48   16.80
   6  -1   0  211.88   13.80
   6  -1   0  237.48   15.50
  -6   1   0  183.28   14.80
  -6   1   0  192.28   16.90
  -6   1   0  183.58   16.40
   5  -1   0  645.64   37.80
   5  -1   0  637.04   39.10
   5  -1   0  628.14   36.90
   5  -1   0  635.84   36.50
   5  -1   0  681.23   37.80
  -5   1   0  569.44   35.00
  -5   1   0  561.04   37.40
  -5   1   0  588.54   36.20
  -5   1   0  610.84   37.80
  -5   1   0  625.14   37.80
  -5   1   0  563.94   37.70
   4  -1   0    0.20    2.30
   4  -1   0    3.10    1.80
   4  -1   0    2.90    1.90
   4  -1   0    0.50    1.50
  -4   1   0    1.00    2.10
  -4   1   0    1.50    1.40
  -4   1   0    1.70    1.80
  -4   1   0    1.80    2.20
  -4   1   0    1.80    2.30
  -4   1   0    0.70    2.20
   3  -1   0 3193.78  173.28
   3  -1   0 3228.28  172.38
   3  -1   0 2965.20  172.98
   3  -1   0 3061.29  173.08
   3  -1   0 3030.00  173.38
   3  -1   0 3152.88  175.08
   3  -1   0 3364.16  174.88
  -3   1   0 3228.18  173.78
  -3   1   0 3152.18  173.38
  -3   1   0 3104.49  173.28
  -3   1   0 3071.39  172.58
  -3   1   0 3091.99  172.18
  -3   1   0 3032.10  172.08
  -3   1   0 3227.18  173.58
   2  -1   0  743.93   46.70
   2  -1   0  844.82   47.30
   2  -1   0  780.02   47.40
   2  -1   0  922.31   48.50
   2  -1   0  803.62   47.80
   2  -1   0  767.02   47.00
   2  -1   0  817.62   48.70
  -2   1   0  889.31   47.40
  -2   1   0  882.81   46.70
  -2   1   0  874.81   47.00
  -2   1   0  968.60   47.90
  -2  -1   0   65.69    4.80
  -2  -1   0   73.99    5.70
  -2  -1   0   73.69    5.50
  -2  -1   0   63.69    4.40
  -2  -1   0   75.19    5.60
  -2  -1   0   72.09    5.00
  -2  -1   0   70.69    4.90
  -2  -1   0   65.69    4.80
  -3  -1   0  756.32   43.10
  -3  -1   0  865.41   44.60
  -3  -1   0  802.02   44.30
  -3  -1   0  816.62   43.30
  -3  -1   0  760.72   43.50
  -3  -1   0  739.43   42.50
  -3  -1   0  861.61   44.40
  -3  -1   0  801.22   43.10
  -3  -1   0  733.23   42.90
   3   1   0  769.62   44.10
   3   1   0  781.02   42.90
   3   1   0  680.53   43.10
   3   1   0  692.13   42.50
   3   1   0  725.33   44.00
   3   1   0  721.83   43.10
   3   1   0  691.83   43.50
  -4  -1   0 1109.49   64.49
  -4  -1   0 1125.09   64.39
  -4  -1   0 1093.29   63.59
  -4  -1   0 1084.69   62.89
  -4  -1   0 1122.59   63.09
  -4  -1   0 1129.79   64.59
  -4  -1   0  993.60   62.29
  -4  -1   0 1082.69   62.69
   4   1   0 1204.38   85.49
   4   1   0 1141.89   64.19
   4   1   0 1162.18   64.29
   4   1   0 1190.98   63.19
   4   1   0 1131.89   62.09
   4   1   0 1112.29   64.99
   4   1   0 1052.09   62.19
   4   1   0 1091.99   62.79
  -5  -1   0  699.43   40.90
  -5  -1   0  714.03   41.20
  -5  -1   0  709.83   43.30
  -5  -1   0  718.43   42.90
  -5  -1   0  739.03   43.60
  -5  -1   0  646.64   40.80
  -5  -1   0  715.23   42.40
   5   1   0  647.04   44.00
   5   1   0  643.24   40.00
   5   1   0  688.13   40.00
   5   1   0  740.83   40.50
   5   1   0  707.53   42.80
   5   1   0  746.73   42.90
   5   1   0  703.63   41.20
  -6  -1   0  986.00   59.19
  -6  -1   0  998.70   58.19
  -6  -1   0  925.91   59.19
  -6  -1   0  910.81   57.19
  -6  -1   0 1099.79   61.29
   6   1   0 1076.69   59.99
   6   1   0  941.01   56.09
   6   1   0 1028.90   58.09
   6   1   0  989.70   59.69
  -7  -1   0  498.75   35.30
   7   1   0  580.64   33.90
   7   1   0  610.14   36.30
   7  -2   0   36.10    8.50
   7  -2   0   46.60    5.80
  -7   2   0   49.90    5.70
  -7   2   0   53.89    7.80
  -7   2   0   52.59    7.90
   6  -2   0  216.78   14.20
   6  -2   0  236.68   15.90
   6  -2   0  233.88   15.90
   6  -2   0  233.98   16.50
  -6   2   0  241.18   19.00
  -6   2   0  213.38   15.50
  -6   2   0  213.18   16.90
  -6   2   0  196.08   16.80
   5  -2   0 1105.39   63.79
   5  -2   0 1094.69   62.59
   5  -2   0 1123.49   64.19
   5  -2   0 1138.49   64.29
   5  -2   0 1092.89   66.59
   5  -2   0 1133.99   65.09
   5  -2   0 1062.09   64.29
  -5   2   0 1109.59   63.49
  -5   2   0 1172.58   65.29
  -5   2   0 1098.49   64.69
  -5   2   0 1076.79   64.89
  -4   2   0  115.39    8.70
  -4   2   0  121.19   10.00
  -4   2   0  125.29   10.10
  -4   2   0  119.89    9.40
  -4   2   0  123.59    9.70
   2  -2   0  138.79    9.00
   2  -2   0  141.69    8.30
   2  -2   0  145.99   10.60
   2  -2   0  156.58    8.30
   2  -2   0  129.89    8.60
  -2   2   0  128.99    8.30
  -2   2   0  128.29    8.70
  -2   2   0  127.69    8.40
  -2   2   0  126.29    8.40
  -1  -2   0 3616.84  198.98
   1   2   0 3611.44  198.58
  -2  -2   0 3507.85  191.88
  -2  -2   0 3654.73  191.98
  -2  -2   0 3525.55  192.58
  -2  -2   0 3431.16  192.08
  -2  -2   0 3257.57  191.68
  -2  -2   0 3194.08  191.58
   2   2   0 3797.72  192.08
   2   2   0 3386.76  192.18
   2   2   0 3645.74  192.68
  -3  -2   0   21.00    3.30
  -3  -2   0   23.50    3.30
  -3  -2   0   26.50    4.10
  -3  -2   0   22.00    3.00
  -3  -2   0   22.30    2.40
  -3  -2   0   27.80    4.10
  -3  -2   0   22.50    3.00
  -3  -2   0   24.10    3.20
  -3  -2   0   25.70    4.20
   3   2   0   17.30    2.70
  -4  -2   0  299.27   18.70
  -4  -2   0  275.77   19.70
  -4  -2   0  243.98   17.60
  -4  -2   0  253.67   18.40
  -4  -2   0  253.57   17.80
  -4  -2   0  286.57   18.30
  -4  -2   0  269.47   19.30
   4   2   0  319.27   18.50
   4   2   0  311.77   18.90
   4   2   0  317.37   17.70
   4   2   0  315.57   17.40
   4   2   0  320.07   19.70
  -5  -2   0  223.38   17.00
  -5  -2   0  231.38   15.20
  -5  -2   0  229.78   15.60
  -5  -2   0  215.08   14.10
  -5  -2   0  220.18   16.10
  -5  -2   0  236.88   14.90
  -5  -2   0  207.78   14.00
   5   2   0  194.28   13.20
   5   2   0  208.18   14.50
   5   2   0  178.08   13.30
   5   2   0  199.78   14.30
   5   2   0  203.28   16.00
   5   2   0  196.38   21.30
  -6  -2   0 1011.10   61.09
  -6  -2   0 1055.69   59.99
  -6  -2   0  960.90   61.59
   6   2   0 1081.89   60.19
   6   2   0 1001.40   62.09
   6   2   0 1108.59   62.29
  -7  -2   0   11.20    6.20
  -7  -2   0   18.90    5.60
   7   2   0   12.50    3.80
   7   2   0   20.30    4.70
   7  -3   0  408.56   29.30
   7  -3   0  513.15   31.80
  -7   3   0  504.05   29.60
  -7   3   0  450.05   30.10
  -7   3   0  518.75   32.20
   6  -3   0   89.39    9.70
   6  -3   0   90.19   11.10
   6  -3   0   81.69    7.40
  -6   3   0  122.19   11.20
  -6   3   0  110.59   10.20
   5  -3   0  189.38   13.20
   5  -3   0  180.08   16.60
   5  -3   0  207.98   15.00
   5  -3   0  191.08   15.00
   5  -3   0  198.48   14.40
  -5   3   0  220.78   15.90
  -5   3   0  225.88   14.30
  -5   3   0  202.98   15.70
  -5   3   0  202.58   15.90
  -5   3   0  204.38   14.80
   4  -3   0  132.19   10.20
   4  -3   0  125.89    9.60
   4  -3   0  134.19    8.90
   4  -3   0  132.19   10.00
   4  -3   0  105.09    7.70
   4  -3   0  138.59   12.40
  -4   3   0  108.69   10.20
  -4   3   0  131.39   11.80
  -4   3   0  115.69    8.90
   3  -3   0  497.35   31.50
   3  -3   0  448.96   28.70
   3  -3   0  462.85   29.00
   3  -3   0  443.66   28.40
  -3   3   0  564.84   28.30
   1  -3   0  627.04   35.50
   1  -3   0  615.44   36.10
   1  -3   0  673.53   36.80
   1  -3   0  655.03   36.60
   1  -3   0  653.93   36.60
   1  -3   0  661.23   36.40
   1  -3   0  726.83   39.30
  -1   3   0  536.35   35.80
   0  -3   0  322.37   18.60
   0  -3   0  317.97   19.10
   0  -3   0  327.47   18.70
   0  -3   0  294.47   18.80
   0  -3   0  316.77   19.10
   0  -3   0  303.47   18.70
   0  -3   0  321.77   19.20
   0  -3   0  304.27   18.50
   0  -3   0  338.57   21.30
   0   3   0  328.77   18.50
   0   3   0  357.96   19.10
   0   3   0  334.47   19.30
   0   3   0  340.97   19.70
   0   3   0  333.47   18.40
  -1  -3   0  190.98   12.00
  -1  -3   0  177.48   11.40
  -1  -3   0  178.08   11.40
  -1  -3   0  178.78   11.70
  -1  -3   0  174.98   11.40
  -1  -3   0  161.18   11.20
  -1  -3   0  179.68   11.30
   1   3   0  219.78   11.60
  -2  -3   0 2250.47  136.09
  -2  -3   0 2415.96  136.49
  -2  -3   0 2335.37  136.59
  -2  -3   0 2495.65  137.59
  -2  -3   0 2499.45  137.19
  -2  -3   0 2256.37  135.89
  -2  -3   0 2365.56  136.19
  -2  -3   0 2502.55  136.29
  -2  -3   0 2433.76  136.89
   2   3   0 2650.93  136.99
   2   3   0 2542.95  137.99
   2   3   0 2650.73  137.49
   2   3   0 2527.45  136.79
   2   3   0 2567.34  135.99
  -3  -3   0  296.67   21.60
  -3  -3   0  297.77   19.70
  -3  -3   0  302.57   18.90
  -3  -3   0  303.57   18.60
  -3  -3   0  299.07   20.00
  -3  -3   0  297.27   18.00
  -3  -3   0  294.57   18.60
  -3  -3   0  253.27   17.70
  -3  -3   0  285.87   18.80
   3   3   0  310.17   18.10
   3   3   0  306.17   19.50
   3   3   0  312.47   19.90
   3   3   0  318.17   18.70
   3   3   0  301.17   18.90
  -4  -3   0 1007.10   60.89
  -4  -3   0 1004.90   58.99
  -4  -3   0  984.40   57.69
  -4  -3   0 1039.50   60.79
  -4  -3   0  963.30   58.69
  -4  -3   0 1066.69   59.19
  -4  -3   0 1011.00   60.29
  -4  -3   0 1054.19   59.49
   4   3   0 1021.20   58.19
   4   3   0 1045.70   58.89
   4   3   0 1098.79   60.79
   4   3   0 1020.30   59.39
   4   3   0 1020.50   57.89
  -5  -3   0  896.61   50.39
  -5  -3   0  904.21   49.99
  -5  -3   0  798.32   49.70
  -5  -3   0  844.82   49.60
  -5  -3   0  804.72   50.99
   5   3   0  824.62   48.40
   5   3   0  898.21   49.60
   5   3   0  868.71   51.49
   5   3   0  840.12   48.20
   5   3   0  898.31   49.80
   5   3   0  732.23   51.59
  -6  -3   0  599.44   35.90
   6   3   0  600.84   37.60
   6   3   0  572.94   35.60
   7  -4   0  204.28   15.70
   7  -4   0  238.18   15.70
  -7   4   0  231.78   18.20
  -7   4   0  243.48   16.10
   6  -4   0   23.30    4.70
   6  -4   0   18.80    4.50
   6  -4   0   31.00    6.60
  -6   4   0   20.40    4.60
  -6   4   0   18.60    5.50
  -6   4   0   18.30    5.80
   5  -4   0 1004.30   57.09
   5  -4   0 1045.60   59.19
   5  -4   0  914.91   61.29
   5  -4   0  994.20   57.99
   5  -4   0  998.60   59.29
  -5   4   0 1024.20   59.19
  -5   4   0 1017.80   59.99
  -5   4   0  911.71   56.89
  -5   4   0 1019.30   57.39
   4  -4   0 5197.58  273.67
   4  -4   0 4444.16  270.77
   4  -4   0 5212.88  271.77
   4  -4   0 5349.06  277.77
   4  -4   0 5272.77  273.67
   4  -4   0 5087.19  272.67
  -4   4   0 4310.37  271.07
  -4   4   0 4779.92  274.17
  -4   4   0 4887.71  271.77
  -4   4   0 4759.02  272.87
   3  -4   0 2891.21  159.78
   3  -4   0 2844.82  156.18
   3  -4   0 2708.63  155.48
   3  -4   0 2841.62  156.08
   3  -4   0 2911.31  154.88
   3  -4   0 2621.54  154.48
  -3   4   0 2826.72  154.58
  -3   4   0 2729.53  155.38
   2  -4   0  112.29   10.70
   2  -4   0  107.49    7.70
   2  -4   0  109.19    8.00
   2  -4   0  110.19    8.30
   2  -4   0   96.09    6.80
   2  -4   0  108.39    8.30
  -2   4   0  109.99    7.20
  -2   4   0  105.49    7.50
   1  -4   0 1489.95   82.29
   1  -4   0 1362.06   81.29
   1  -4   0 1499.45   82.79
   1  -4   0 1459.75   81.39
   1  -4   0 1577.74   86.29
   1  -4   0 1484.95   82.49
   1  -4   0 1488.55   82.49
   1  -4   0 1558.94   82.99
  -1   4   0 1374.26   81.69
   0  -4   0 1144.89   60.69
   0  -4   0 1110.39   61.09
   0  -4   0 1041.30   60.29
   0  -4   0 1152.38   61.39
   0  -4   0 1144.09   61.39
   0  -4   0 1101.79   61.19
   0  -4   0 1095.19   60.49
   0   4   0  987.80   61.19
   0   4   0  984.80   60.29
  -1  -4   0 2761.12  149.69
  -1  -4   0 2672.53  149.59
  -1  -4   0 2639.14  149.88
  -1  -4   0 2563.44  149.39
  -1  -4   0 2660.13  149.19
   1   4   0 2741.83  149.09
   1   4   0 2653.13  149.88
   1   4   0 2919.31  149.69
  -2  -4   0 2134.99  115.69
  -2  -4   0 2004.50  115.39
  -2  -4   0 2120.29  116.89
  -2  -4   0 2051.79  116.19
  -2  -4   0 2229.48  116.09
  -2  -4   0 2183.68  115.79
  -2  -4   0 2101.99  116.29
   2   4   0 2091.19  116.99
   2   4   0 2069.09  115.79
   2   4   0 2016.40  115.19
   2   4   0 1978.90  116.09
   2   4   0 1935.71  115.89
  -3  -4   0  615.54   34.90
  -3  -4   0  605.54   34.20
  -3  -4   0  614.84   36.40
  -3  -4   0  639.84   35.40
  -3  -4   0  626.54   34.90
  -3  -4   0  604.24   35.30
   3   4   0  514.55   34.70
   3   4   0  560.94   34.70
   3   4   0  545.65   35.90
   3   4   0  544.45   35.30
   3   4   0  557.14   34.00
  -4  -4   0    4.50    3.60
  -4  -4   0    6.30    3.30
  -4  -4   0    3.60    2.70
   4   4   0   15.00    5.00
   4   4   0    8.50    2.40
   4   4   0   11.60    3.60
   4   4   0    9.50    4.30
   4   4   0   12.50    2.80
   4   4   0    8.70    2.80
  -5  -4   0  423.06   25.70
  -5  -4   0  412.86   25.50
  -5  -4   0  359.26   30.60
  -5  -4   0  437.56   28.00
   5   4   0  399.06   25.00
   5   4   0  420.16   27.30
   5   4   0  389.96   25.10
   5   4   0  359.76   23.60
   5   4   0  358.56   23.90
  -6  -4   0  194.68   16.00
   6   4   0  202.58   14.00
   6  -5   0  488.75   31.40
   6  -5   0  491.05   30.50
  -6   5   0  468.45   31.70
  -6   5   0  492.25   30.10
   5  -5   0  247.88   17.00
   5  -5   0  185.38   18.10
   5  -5   0  226.68   15.70
   5  -5   0  224.58   17.00
  -5   5   0  197.28   16.00
  -5   5   0  203.58   14.70
  -5   5   0  186.18   16.70
   4  -5   0  476.75   29.60
   4  -5   0  441.66   29.40
   4  -5   0  405.46   26.80
   4  -5   0  465.15   28.50
  -4   5   0  455.85   28.70
  -4   5   0  438.16   30.30
  -4   5   0  484.65   27.70
   3  -5   0  373.16   28.90
   3  -5   0  397.66   25.00
   3  -5   0  390.56   24.20
   3  -5   0  384.56   23.50
   3  -5   0  379.76   24.80
  -3   5   0  361.36   23.60
  -3   5   0  392.96   23.10
   2  -5   0  631.04   36.30
   2  -5   0  612.44   37.50
   2  -5   0  603.44   36.40
   2  -5   0  632.84   36.00
   2  -5   0  571.94   34.90
   2  -5   0  638.34   41.10
  -2   5   0  560.04   34.90
  -2   5   0  634.64   35.20
   1  -5   0  772.92   45.90
   1  -5   0  811.22   46.00
   1  -5   0  822.42   46.60
   1  -5   0  857.91   46.80
   1  -5   0  744.83   44.60
   1  -5   0  816.32   46.30
  -1   5   0  798.72   46.20
  -1   5   0  786.12   45.30
   0  -5   0 1231.28   70.49
   0  -5   0 1266.67   70.79
   0  -5   0 1260.37   69.69
   0  -5   0 1266.77   70.69
   0  -5   0 1120.69   69.19
   0  -5   0 1273.07   70.79
   0  -5   0 1250.77   69.89
   0   5   0 1253.77   70.99
   0   5   0 1308.17   70.49
   0   5   0 1222.28   69.69
  -1  -5   0 1211.98   66.59
  -1  -5   0 1248.18   66.99
  -1  -5   0 1190.48   66.99
  -1  -5   0 1152.18   66.89
   1   5   0 1242.98   73.99
   1   5   0 1052.49   66.09
   1   5   0 1119.59   67.39
   1   5   0 1193.58   69.09
   1   5   0 1195.88   67.09
  -2  -5   0 3110.99  177.08
  -2  -5   0 2794.02  177.28
  -2  -5   0 3315.47  177.48
  -2  -5   0 3320.77  177.48
  -2  -5   0 3363.46  178.38
  -2  -5   0 3381.26  177.98
   2   5   0 3249.07  177.58
   2   5   0 3295.47  179.28
   2   5   0 3057.59  177.38
   2   5   0 3007.70  178.68
   2   5   0 3250.47  176.88
  -3  -5   0 1192.98   69.19
  -3  -5   0 1189.58   68.69
  -3  -5   0 1124.29   70.09
  -3  -5   0 1187.38   69.79
  -3  -5   0 1167.48   69.29
  -3  -5   0 1200.18   70.09
   3   5   0 1211.78   69.99
   3   5   0 1300.27   71.49
   3   5   0 1242.18   69.49
   3   5   0 1187.08   69.59
   3   5   0 1267.37   68.69
  -4  -5   0  120.39   11.40
  -4  -5   0  127.09   11.20
  -4  -5   0  131.79   12.70
  -4  -5   0  126.19   12.10
   4   5   0  133.39    9.80
   4   5   0  136.89   11.00
   4   5   0  133.49   10.80
   4   5   0  136.69   11.90
   4   5   0  142.89   12.90
  -5  -5   0  112.59   11.50
  -5  -5   0  134.79   10.80
  -5  -5   0  120.79   10.50
   5   5   0  107.39    8.50
   5   5   0  125.99    9.90
   5   5   0  109.99    8.80
   5   5   0  118.99    9.80
   5   5   0  125.09   11.80
   6  -6   0   10.00    5.40
   6  -6   0    8.70    4.20
  -6   6   0    8.90    3.20
  -6   6   0    7.40    4.00
   5  -6   0  502.25   32.30
   5  -6   0  446.56   32.30
   5  -6   0  489.35   31.00
  -5   6   0  474.85   33.10
  -5   6   0  487.95   31.30
  -5   6   0  527.75   30.40
   4  -6   0  150.58   11.80
   4  -6   0  133.29   10.20
   4  -6   0  158.58   12.90
   4  -6   0  147.29   12.70
   4  -6   0  130.39   14.90
  -4   6   0  123.19   10.40
   3  -6   0  646.14   39.40
   3  -6   0  673.33   38.90
   3  -6   0  679.83   40.40
   3  -6   0  640.34   40.10
   3  -6   0  638.74   45.10
  -3   6   0  621.74   38.10
   2  -6   0  583.14   34.60
   2  -6   0  602.14   35.50
   2  -6   0  547.75   34.70
   2  -6   0  576.14   34.80
   2  -6   0  539.55   33.30
  -2   6   0  578.34   33.50
   1  -6   0  399.66   26.60
   1  -6   0  406.06   26.50
   1  -6   0  399.76   26.70
  -1   6   0  447.36   27.50
  -1   6   0  464.75   26.70
  -1   6   0  445.46   25.60
   0  -6   0 2578.24  146.89
   0  -6   0 2553.34  145.69
   0  -6   0 2634.24  147.09
   0  -6   0 2617.94  147.39
   0   6   0 2597.44  147.49
   0   6   0 2714.13  146.89
   0   6   0 2712.63  146.09
  -1  -6   0  469.65   28.40
  -1  -6   0  468.95   28.30
  -1  -6   0  468.05   27.90
  -1  -6   0  490.25   29.50
  -1  -6   0  459.75   28.20
   1   6   0  442.16   28.70
   1   6   0  419.46   28.70
   1   6   0  440.56   27.60
   1   6   0  458.55   30.10
  -2  -6   0 1053.19   60.49
  -2  -6   0 1052.39   60.89
  -2  -6   0 1087.29   61.89
  -2  -6   0 1047.80   60.29
  -2  -6   0 1079.99   60.39
   2   6   0 1041.10   59.89
   2   6   0  991.90   60.99
   2   6   0 1005.90   60.59
   2   6   0 1032.30   62.49
  -3  -6   0   64.69    7.10
  -3  -6   0   68.79   10.00
  -3  -6   0   64.99    8.50
  -3  -6   0   62.99    6.90
  -3  -6   0   64.49    7.80
   3   6   0   81.79    7.90
   3   6   0   83.79    9.70
   3   6   0   76.09    9.90
   3   6   0   81.29    7.80
  -4  -6   0  511.05   37.70
  -4  -6   0  572.44   34.10
  -4  -6   0  561.34   34.90
   4   6   0  552.34   32.80
   4   6   0  515.95   32.40
   4   6   0  587.34   36.00
   4   6   0  529.85   33.50
  -5  -6   0  346.67   22.40
  -5  -6   0  361.76   22.20
   5   6   0  334.67   23.20
   5   6   0  311.47   21.30
   5  -7   0  177.68   15.00
   5  -7   0  165.08   13.60
  -5   7   0  203.18   13.50
   4  -7   0   41.40    7.20
   4  -7   0   46.00    7.20
   4  -7   0   39.80    6.00
   4  -7   0   37.70    5.20
  -4   7   0   44.00    5.30
   3  -7   0    0.20    2.60
   3  -7   0    3.50    2.90
   3  -7   0    1.60    3.60
   3  -7   0    0.50    2.20
  -3   7   0    3.10    2.20
  -3   7   0    5.20    2.90
   2  -7   0 1385.26   86.59
   2  -7   0 1611.44   88.49
   2  -7   0 1566.44   89.09
   2  -7   0 1325.47   87.59
   2  -7   0 1552.64   88.39
  -2   7   0 1619.54   87.09
  -2   7   0 1628.04   88.29
  -2   7   0 1635.64   89.59
   1  -7   0 1451.95   83.79
   1  -7   0 1440.66   83.39
   1  -7   0 1488.25   83.69
  -1   7   0 1466.05   83.29
  -1   7   0 1462.95   82.29
  -1   7   0 1424.36   84.19
   0  -7   0  268.87   18.20
   0  -7   0  254.57   17.20
   0  -7   0  226.58   15.30
   0  -7   0  255.67   17.40
   0   7   0  242.98   17.10
   0   7   0  225.08   17.60
   0   7   0  234.58   16.10
  -1  -7   0 1163.48   68.09
  -1  -7   0 1181.68   68.89
  -1  -7   0 1180.58   68.69
  -1  -7   0 1238.88   70.39
   1   7   0 1108.49   69.39
   1   7   0 1249.57   68.29
   1   7   0 1155.48   68.89
   1   7   0 1239.78   71.29
   2   7   0   77.19    8.10
   2   7   0   82.19    7.60
   2   7   0   80.29    9.80
   2   7   0   70.99    8.10
  -3  -7   0  555.94   34.50
  -3  -7   0  538.05   33.80
  -3  -7   0  579.44   36.10
   3   7   0  569.84   36.60
   3   7   0  537.65   34.50
   3   7   0  552.94   34.50
   3   7   0  582.64   33.80
  -4  -7   0  361.26   25.10
  -4  -7   0  360.46   24.20
   4   7   0  406.86   26.20
   4   7   0  389.56   23.40
   4  -8   0  162.88   13.20
   4  -8   0  166.08   13.60
   4  -8   0  170.88   14.70
  -4   8   0  184.78   13.90
  -4   8   0  201.18   13.30
  -4   8   0  203.48   15.60
   3  -8   0   84.19    8.60
   3  -8   0   76.59    8.30
   3  -8   0   82.79    9.30
  -3   8   0   82.39    7.50
  -3   8   0   84.09    9.50
  -3   8   0   74.79    8.00
   2  -8   0  299.37   20.10
   2  -8   0  274.77   20.00
  -2   8   0  273.07   20.30
  -2   8   0  283.87   19.90
  -2   8   0  269.27   18.30
   1  -8   0  165.98   13.40
   1  -8   0  153.88   12.50
   1  -8   0  161.08   13.00
  -1   8   0  168.88   12.00
  -1   8   0  142.39   13.20
  -1   8   0  160.68   13.40
   0  -8   0  443.46   28.80
   0  -8   0  478.55   30.10
   0  -8   0  471.85   29.40
   0   8   0  477.85   31.10
   0   8   0  451.75   28.10
   0   8   0  416.16   29.40
   0   8   0  446.16   31.00
  -1  -8   0  261.67   19.90
  -1  -8   0  279.27   20.60
  -1  -8   0  285.67   21.90
   1   8   0  332.37   21.80
   1   8   0  335.77   20.20
   1   8   0  310.87   20.80
   1   8   0  335.47   23.10
  -2  -8   0  175.48   18.50
  -2  -8   0  208.88   15.30
  -2  -8   0  200.68   16.70
   2   8   0  236.98   17.70
   2   8   0  218.78   15.70
   2   8   0  211.48   15.50
   2   8   0  235.28   15.10
  -3  -8   0   14.60    3.60
  -3  -8   0   11.50    4.40
   3   8   0   18.20    5.60
   3   8   0   14.90    3.50
   3  -9   0  203.68   15.00
   3  -9   0  194.88   14.20
  -3   9   0  184.78   15.00
  -3   9   0  185.88   13.30
   2  -9   0  290.17   19.80
   2  -9   0  281.57   19.80
  -2   9   0  235.98   18.30
  -2   9   0  246.18   18.80
   1  -9   0  249.97   19.40
  -1   9   0  290.57   21.10
  -1   9   0  286.37   18.30
  -1   9   0  264.57   19.70
   0  -9   0  155.08   13.40
   0  -9   0  164.98   12.80
   0   9   0  195.28   16.20
   0   9   0  200.58   14.10
   0   9   0  171.68   13.80
   0   9   0  159.18   13.00
  -1  -9   0  116.29    9.40
  -1  -9   0  102.69   10.10
  -1  -9   0   95.59    8.20
   1   9   0   92.39    8.10
   1   9   0   89.09    9.90
   1   9  -1  444.46   32.20
   1   9  -1  415.66   28.90
   1   9  -1  410.66   26.60
  -1  -9   1  429.06   27.00
  -1  -9   1  450.25   28.60
   0   9  -1  147.19   11.10
   0   9  -1  143.69   12.40
   0   9  -1  128.19   11.80
   0   9  -1  131.69   13.10
   0  -9   1  156.98   11.90
   0  -9   1  168.18   12.80
  -1   9  -1  112.59    9.00
  -1   9  -1  105.59   10.50
  -1   9  -1  111.89   11.40
  -1   9  -1   96.39    9.60
   1  -9   1  115.89   10.10
   1  -9   1  120.19   10.50
   1  -9   1  100.99   10.50
  -2   9  -1  323.17   23.90
  -2   9  -1  331.77   20.10
  -2   9  -1  293.87   20.80
   2  -9   1  310.87   21.30
   2  -9   1  297.77   21.50
  -3   9  -1  207.98   15.30
  -3   9  -1  226.38   16.50
  -3   9  -1  225.38   14.70
   3  -9   1  202.38   16.10
   3   8  -1  103.49   10.10
   3   8  -1   98.99    8.00
  -3  -8   1   76.79    7.80
  -3  -8   1   85.29    9.70
   2   8  -1  159.58   12.30
   2   8  -1  167.98   14.40
   2   8  -1  170.58   12.00
  -2  -8   1  155.88   12.50
  -2  -8   1  139.89   11.90
  -2  -8   1  142.69   13.60
   1   8  -1  366.86   22.20
   1   8  -1  348.37   23.10
   1   8  -1  366.96   25.10
   1   8  -1  326.97   23.10
  -1  -8   1  340.07   24.30
  -1  -8   1  319.57   22.50
   0   8  -1  678.93   42.70
   0   8  -1  698.03   41.70
   0   8  -1  665.73   43.20
   0   8  -1  715.93   45.00
   0  -8   1  707.63   42.90
   0  -8   1  727.63   43.80
   0  -8   1  762.32   43.30
  -1   8  -1  453.85   29.10
  -1   8  -1  459.45   28.10
  -1   8  -1  445.56   29.80
   1  -8   1  458.75   29.70
   1  -8   1  464.75   29.50
   1  -8   1  470.25   29.40
  -2   8  -1   48.20    5.60
  -2   8  -1   45.80    6.50
  -2   8  -1   44.70    7.10
   2  -8   1   63.39    7.60
   2  -8   1   58.39    7.10
   2  -8   1   64.29    7.20
  -3   8  -1   74.19    7.70
  -3   8  -1   67.09    8.50
  -3   8  -1   71.89    6.80
   3  -8   1   80.19    9.00
   3  -8   1   74.59    7.60
   3  -8   1   74.89    8.10
  -4   8  -1  191.28   13.70
  -4   8  -1  202.08   16.10
  -4   8  -1  171.88   14.30
   4  -8   1  221.88   16.40
   4  -8   1  202.08   15.10
  -5   8  -1   82.69    7.80
  -5   8  -1   84.99    9.50
   5  -8   1  114.89    9.30
   5  -8   1  116.69   10.10
   4   7  -1   54.39    8.50
   4   7  -1   61.69    9.60
   4   7  -1   68.79    7.30
   4   7  -1   58.29    6.40
  -4  -7   1   62.19    8.10
  -4  -7   1   73.49    9.60
  -4  -7   1   69.89    7.00
   3   7  -1  215.68   14.10
   3   7  -1  206.28   16.50
   3   7  -1  202.88   14.30
  -3  -7   1  186.48   14.30
  -3  -7   1  183.38   14.00
  -3  -7   1  183.48   14.40
  -3  -7   1  188.58   15.70
   2   7  -1  490.15   29.20
   2   7  -1  457.35   29.50
   2   7  -1  514.65   34.00
   2   7  -1  464.65   29.40
  -2  -7   1  472.55   31.20
  -2  -7   1  393.36   33.40
  -2  -7   1  470.25   32.80
  -2  -7   1  477.65   30.10
   1   7  -1 1303.37   83.19
   1   7  -1 1377.16   82.99
   1   7  -1 1452.15   85.29
   1   7  -1 1487.55   82.49
  -1  -7   1 1489.95   83.39
  -1  -7   1 1535.25   83.39
  -1  -7   1 1555.14   84.69
  -1  -7   1 1427.86   82.19
   0   7  -1 3802.82  205.08
   0   7  -1 3647.93  205.88
   0  -7   1 3696.63  206.18
   0  -7   1 3625.94  206.18
   0  -7   1 3738.23  206.78
  -1   7  -1  275.07   18.20
  -1   7  -1  270.07   17.10
  -1   7  -1  266.77   18.90
   1  -7   1  260.07   18.60
   1  -7   1  267.57   18.30
   1  -7   1  272.17   18.30
   1  -7   1  248.78   18.20
  -2   7  -1  736.63   44.10
  -2   7  -1  730.23   45.10
  -2   7  -1  719.93   42.80
   2  -7   1  775.52   45.30
   2  -7   1  704.53   42.80
   2  -7   1  796.32   44.40
   2  -7   1  765.12   44.70
   2  -7   1  680.93   43.90
  -3   7  -1 1503.15   80.19
   3  -7   1 1404.36   81.79
   3  -7   1 1283.57   81.99
   3  -7   1 1404.86   80.89
   3  -7   1 1480.55   82.89
  -4   7  -1  586.54   33.20
   4  -7   1  543.05   34.40
   4  -7   1  577.74   35.60
   4  -7   1  480.45   32.20
  -5   7  -1  316.57   20.30
   5  -7   1  308.17   21.20
   5  -7   1  306.07   22.00
   5   6  -1   96.29    7.70
   5   6  -1  111.79   10.40
   5   6  -1   96.29    8.30
  -5  -6   1   93.29   10.10
  -5  -6   1   93.49    9.20
  -5  -6   1   76.99    9.60
   4   6  -1  346.77   20.90
   4   6  -1  356.66   23.70
   4   6  -1  315.57   21.10
   4   6  -1  316.87   22.40
   4   6  -1  333.17   20.60
  -4  -6   1  278.97   21.50
  -4  -6   1  327.37   22.50
  -4  -6   1  308.27   20.60
  -4  -6   1  326.87   21.80
   3   6  -1  557.64   34.30
   3   6  -1  553.54   36.80
   3   6  -1  500.15   35.00
   3   6  -1  518.55   34.70
   3   6  -1  498.45   34.50
  -3  -6   1  656.93   36.90
  -3  -6   1  665.63   35.80
  -3  -6   1  627.94   35.70
  -3  -6   1  655.73   35.30
  -3  -6   1  543.75   35.10
   2   6  -1  976.50   58.29
   2   6  -1  943.71   56.29
   2   6  -1  900.01   55.89
   2   6  -1 1008.70   55.79
   2   6  -1  891.01   56.49
  -2  -6   1 1018.40   56.69
  -2  -6   1  971.50   56.29
  -2  -6   1 1021.30   57.69
  -2  -6   1 1009.60   56.39
   1   6  -1 4249.08  228.68
   1   6  -1 4349.96  231.28
   1   6  -1 4210.18  229.48
   1   6  -1 3830.22  229.58
  -1  -6   1 4263.67  230.38
  -1  -6   1 4084.49  229.38
  -1  -6   1 4088.39  228.78
  -1  -6   1 4054.39  229.48
   0   6  -1  333.97   18.40
   0   6  -1  328.37   19.30
   0   6  -1  328.47   19.90
   0  -6   1  287.77   19.60
   0  -6   1  268.37   19.20
   0  -6   1  284.67   19.40
   0  -6   1  272.07   19.00
   0  -6   1  265.87   17.80
  -1   6  -1 2234.38  121.39
  -1   6  -1 2346.67  122.69
  -1   6  -1 2283.97  123.39
   1  -6   1 2169.58  122.49
   1  -6   1 1898.91  121.69
   1  -6   1 2191.78  123.09
   1  -6   1 2131.79  122.79
   1  -6   1 2246.58  122.49
  -2   6  -1  217.48   14.90
   2  -6   1  231.18   15.10
   2  -6   1  243.68   16.60
   2  -6   1  250.57   16.20
   2  -6   1  234.28   16.50
   2  -6   1  261.97   17.30
  -3   6  -1  542.45   36.30
  -3   6  -1  540.85   33.30
  -3   6  -1  581.64   33.20
   3  -6   1  554.84   35.20
   3  -6   1  563.64   34.60
   3  -6   1  604.84   35.50
   3  -6   1  546.65   33.50
  -4   6  -1  962.30   56.89
  -4   6  -1  913.11   57.59
   4  -6   1 1034.70   59.79
   4  -6   1  905.71   56.09
   4  -6   1 1075.09   59.59
   4  -6   1 1044.10   58.59
  -5   6  -1  305.87   19.70
  -5   6  -1  272.77   22.00
  -5   6  -1  301.27   20.90
   5  -6   1  304.57   20.80
   5  -6   1  291.67   22.00
   5  -6   1  309.87   21.50
  -6   6  -1  421.46   28.90
  -6   6  -1  455.05   27.80
   6  -6   1  462.35   29.90
   6   5  -1  163.98   13.10
  -6  -5   1  150.28   13.10
   5   5  -1  521.35   32.20
   5   5  -1  533.55   33.20
   5   5  -1  517.85   32.20
   5   5  -1  595.34   35.70
   5   5  -1  519.35   32.40
  -5  -5   1  545.85   34.10
  -5  -5   1  552.34   35.50
  -5  -5   1  595.14   34.10
   4   5  -1   43.80    5.00
   4   5  -1   42.60    7.00
   4   5  -1   40.50    5.10
   4   5  -1   37.90    5.20
   4   5  -1   39.80    4.90
   4   5  -1   40.80    6.40
  -4  -5   1   45.30    6.50
  -4  -5   1   42.80    5.00
  -4  -5   1   50.49    6.10
  -4  -5   1   42.60    7.00
   3   5  -1  646.14   42.20
   3   5  -1  737.63   42.00
   3   5  -1  744.73   44.30
   3   5  -1  704.93   42.40
  -3  -5   1  743.73   43.00
  -3  -5   1  724.83   42.30
  -3  -5   1  748.23   42.90
  -3  -5   1  699.43   43.50
  -3  -5   1  736.63   43.20
  -3  -5   1  730.33   43.40
   2   5  -1  890.01   51.49
   2   5  -1  901.51   52.99
   2   5  -1  938.41   51.09
   2   5  -1  848.02   51.69
   2   5  -1  849.81   51.59
  -2  -5   1  918.11   51.79
  -2  -5   1  900.01   51.59
  -2  -5   1  929.31   51.99
  -2  -5   1  933.41   52.49
  -2  -5   1  862.61   51.59
  -2  -5   1  866.21   51.29
   1   5  -1 3182.88  167.48
   1   5  -1 3116.39  166.78
   1   5  -1 2876.31  166.78
   1   5  -1 2975.20  167.68
  -1  -5   1 3044.00  167.08
  -1  -5   1 2997.90  167.98
  -1  -5   1 2920.31  167.38
  -1  -5   1 3042.00  167.68
  -1  -5   1 3032.80  167.38
   0   5  -1  751.02   43.00
   0   5  -1  733.33   44.20
   0   5  -1  764.32   43.80
   0  -5   1  679.13   42.80
   0  -5   1  790.92   44.00
   0  -5   1  772.62   44.20
   0  -5   1  779.32   43.10
   0  -5   1  801.22   44.30
   0  -5   1  785.52   44.30
  -1   5  -1  161.38   10.10
   1  -5   1  149.49   11.10
   1  -5   1  164.98   10.80
   1  -5   1  166.28   11.50
   1  -5   1  156.98   10.80
   1  -5   1  161.48   11.00
   2  -5   1   56.39    5.90
   2  -5   1   58.19    5.40
   2  -5   1   57.59    8.00
   2  -5   1   52.99    4.50
   2  -5   1   64.39    6.30
   2  -5   1   57.99    5.90
  -3   5  -1  466.75   29.20
  -3   5  -1  469.15   28.40
  -3   5  -1  470.25   31.20
   3  -5   1  504.55   30.50
   3  -5   1  507.35   33.60
   3  -5   1  506.75   30.40
   3  -5   1  462.65   28.60
   3  -5   1  496.05   29.90
  -4   5  -1  265.27   19.30
  -4   5  -1  276.67   17.00
  -4   5  -1  261.37   19.80
  -4   5  -1  275.77   18.30
   4  -5   1  265.07   18.20
   4  -5   1  227.68   15.70
   4  -5   1  257.47   18.80
   4  -5   1  259.77   20.80
   4  -5   1  261.87   18.60
  -5   5  -1  599.04   35.10
  -5   5  -1  560.74   37.20
  -5   5  -1  566.34   36.20
   5  -5   1  593.44   36.20
   5  -5   1  576.64   35.70
   5  -5   1  538.85   36.60
  -6   5  -1   35.70    6.70
  -6   5  -1   39.60    5.60
   6  -5   1   39.60    5.80
   6  -5   1   38.80    5.70
   6   4  -1   10.90    3.90
   6   4  -1    9.20    4.30
   6   4  -1   15.20    5.40
   6   4  -1    5.30    5.40
  -6  -4   1   15.90    4.10
  -6  -4   1   10.40    4.50
   5   4  -1  521.15   34.40
   5   4  -1  511.15   33.60
   5   4  -1  563.34   34.00
   5   4  -1  526.45   31.70
  -5  -4   1  536.65   34.50
  -5  -4   1  471.85   33.20
  -5  -4   1  526.65   32.30
  -5  -4   1  497.55   35.50
   4   4  -1 1302.47   80.19
   4   4  -1 1398.86   78.39
   4   4  -1 1366.16   78.19
   4   4  -1 1410.16   80.79
   4   4  -1 1273.77   78.79
  -4  -4   1 1409.76   79.69
  -4  -4   1 1476.65   79.99
  -4  -4   1 1379.96   78.49
  -4  -4   1 1410.06   80.79
  -4  -4   1 1486.65   79.59
   3   4  -1  571.34   37.60
   3   4  -1  578.24   37.20
   3   4  -1  587.84   38.90
   3   4  -1  582.64   38.50
  -3  -4   1  675.63   38.20
  -3  -4   1  683.73   37.70
  -3  -4   1  681.63   38.60
  -3  -4   1  684.93   38.60
  -3  -4   1  710.73   39.60
  -3  -4   1  683.43   38.40
  -3  -4   1  689.93   39.50
   2   4  -1 1592.44   94.59
   2   4  -1 1651.13   93.59
   2   4  -1 1683.13   93.19
   2   4  -1 1599.64   93.99
   2   4  -1 1516.45   93.69
  -2  -4   1 1769.72   94.09
  -2  -4   1 1589.64   94.19
  -2  -4   1 1815.82   93.99
  -2  -4   1 1702.63   94.19
  -2  -4   1 1659.53   93.49
  -2  -4   1 1704.63   93.69
  -2  -4   1 1831.12   94.89
   1   4  -1  915.31   49.20
   1   4  -1  845.52   49.10
   1   4  -1  867.61   48.70
   1   4  -1  850.71   49.40
  -1  -4   1  865.11   49.60
  -1  -4   1  860.21   49.00
  -1  -4   1  839.12   49.10
  -1  -4   1  899.21   49.20
  -1  -4   1  870.61   49.40
   0   4  -1  846.52   50.99
   0   4  -1  871.71   51.19
   0   4  -1  913.31   51.89
   0  -4   1  882.21   51.29
   0  -4   1  942.41   52.09
   0  -4   1  958.00   52.29
   0  -4   1  922.81   52.19
   0  -4   1  981.80   51.59
   0  -4   1  958.10   51.39
   0  -4   1  937.11   51.99
   1  -4   1 1782.42  100.19
   1  -4   1 1758.62  100.49
   1  -4   1 1833.82  100.49
   1  -4   1 1854.71  100.99
   1  -4   1 1848.32  103.59
   1  -4   1 1815.92  100.79
   1  -4   1 1772.62  102.09
  -2   4  -1  744.03   48.50
  -2   4  -1  782.72   48.00
   2  -4   1  911.21   49.50
   2  -4   1  924.51   49.60
   2  -4   1  934.31   51.79
   2  -4   1  868.71   49.20
   2  -4   1  768.92   47.90
   2  -4   1  932.31   52.19
   2  -4   1  875.51   48.60
  -3   4  -1  425.86   26.80
  -3   4  -1  424.56   25.50
  -3   4  -1  426.26   24.60
  -3   4  -1  390.66   24.20
   3  -4   1  372.76   24.20
   3  -4   1  420.06   28.70
   3  -4   1  430.66   26.10
   3  -4   1  433.16   25.90
   3  -4   1  439.36   28.30
   3  -4   1  422.46   25.60
  -4   4  -1  109.89    8.10
  -4   4  -1  105.49    9.80
  -4   4  -1  108.89    9.30
   4  -4   1  100.19    9.00
   4  -4   1   88.39    9.90
   4  -4   1   97.09    9.30
   4  -4   1   92.19    8.70
  -5   4  -1 3502.85  189.18
  -5   4  -1 3162.78  191.68
  -5   4  -1 3456.45  190.88
  -5   4  -1 3257.27  191.28
   5  -4   1 3525.85  190.18
   5  -4   1 3327.07  190.88
   5  -4   1 3591.94  190.48
  -6   4  -1  130.49   12.20
  -6   4  -1  139.69   10.60
  -6   4  -1  115.69   12.10
   6  -4   1  118.39   10.50
   6  -4   1  120.29   10.40
   6  -4   1  118.99   11.60
  -7   4  -1   28.00    4.70
  -7   4  -1   31.10    6.40
   7  -4   1   35.60    5.10
   6   3  -1  124.89    9.50
   6   3  -1   95.29   10.80
   6   3  -1  123.79   11.20
   6   3  -1  115.69    8.30
  -6  -3   1  110.39    9.60
   5   3  -1  329.97   21.00
   5   3  -1  311.17   20.20
   5   3  -1  317.47   22.60
   5   3  -1  320.67   20.10
   5   3  -1  318.17   20.80
  -5  -3   1  377.96   24.30
  -5  -3   1  313.37   23.00
  -5  -3   1  344.87   21.40
  -5  -3   1  346.37   21.50
  -5  -3   1  326.67   21.70
   4   3  -1 1982.10  117.59
   4   3  -1 2107.99  118.99
   4   3  -1 2118.99  117.09
   4   3  -1 2138.39  117.49
   4   3  -1 2126.89  116.89
   4   3  -1 2121.39  119.09
  -4  -3   1 2360.56  121.89
  -4  -3   1 1974.90  117.69
  -4  -3   1 2107.39  118.99
  -4  -3   1 2066.89  116.99
  -4  -3   1 2013.60  117.79
  -4  -3   1 2105.29  118.09
  -4  -3   1 2133.19  117.89
  -4  -3   1 2112.29  119.59
   3   3  -1  104.29    9.00
   3   3  -1  102.29    7.70
   3   3  -1  108.69    8.10
   3   3  -1  100.69    8.00
   3   3  -1  106.09    9.00
  -3  -3   1  120.09    9.50
  -3  -3   1  113.89    8.40
  -3  -3   1  110.59    7.80
  -3  -3   1  119.19    8.80
  -3  -3   1  112.19    8.00
  -3  -3   1  116.79    9.50
  -3  -3   1  123.89    9.30
  -3  -3   1  127.09    8.80
  -3  -3   1  106.89    8.40
   2   3  -1 2194.18  112.99
   2   3  -1 2121.19  113.09
   2   3  -1 2104.59  111.89
   2   3  -1 2162.38  112.19
   2   3  -1 2024.00  112.29
  -2  -3   1 2056.39  112.29
  -2  -3   1 1930.71  112.09
  -2  -3   1 1840.32  112.29
  -2  -3   1 2144.79  113.69
  -2  -3   1 1866.61  111.89
  -2  -3   1 2053.99  112.89
  -2  -3   1 1797.22  111.59
   1   3  -1 4641.04  238.18
  -1  -3   1 4005.30  237.48
   0   3  -1  627.94   33.30
   0   3  -1  588.04   33.10
   0  -3   1  624.44   33.50
   0  -3   1  599.34   33.90
   0  -3   1  585.04   33.70
   0  -3   1  586.54   33.40
   0  -3   1  574.14   33.70
   0  -3   1  606.04   33.40
   0  -3   1  613.04   34.00
   0  -3   1  562.84   34.60
  -1   3  -1 3029.80  167.98
  -1   3  -1 3007.00  168.38
   1  -3   1 3187.08  170.48
   1  -3   1 3046.10  168.48
  -2   3  -1 7551.04  419.36
  -2   3  -1 7766.72  419.06
  -3   3  -1  293.97   20.10
  -3   3  -1  291.87   20.80
  -3   3  -1  300.97   21.70
   3  -3   1  374.76   21.30
   3  -3   1  311.87   19.70
   3  -3   1  374.56   21.60
   3  -3   1  366.86   20.20
   3  -3   1  384.96   24.30
   3  -3   1  355.46   21.10
   3  -3   1  393.86   23.30
  -4   3  -1 2303.77  129.99
  -4   3  -1 2206.18  129.29
  -4   3  -1 2286.47  128.89
  -4   3  -1 2309.67  132.79
   4  -3   1 2263.17  128.19
   4  -3   1 2370.96  133.59
   4  -3   1 2314.97  129.69
   4  -3   1 2544.25  132.59
   4  -3   1 2260.17  129.99
   4  -3   1 2320.57  131.59
  -5   3  -1   21.10    4.70
  -5   3  -1   19.60    5.30
  -5   3  -1   18.60    5.10
  -5   3  -1   22.30    4.10
  -5   3  -1   25.10    5.40
   5  -3   1   14.10    2.70
   5  -3   1   17.10    4.30
   5  -3   1   14.40    4.20
   5  -3   1   12.10    3.80
  -6   3  -1   25.70    6.60
  -6   3  -1   31.70    6.40
  -6   3  -1   24.20    4.60
  -6   3  -1   29.90    5.60
   6  -3   1   16.50    4.50
   6  -3   1   20.00    5.40
   6  -3   1   19.00    4.60
  -7   3  -1   70.19    9.60
  -7   3  -1   75.29    9.10
  -7   3  -1   60.79    7.70
   7  -3   1   57.29    6.60
   7   2  -1  302.27   21.50
  -7  -2   1  284.37   25.10
   6   2  -1  402.56   24.50
   6   2  -1  457.85   25.90
   6   2  -1  431.06   28.20
   6   2  -1  454.05   27.90
   6   2  -1  361.06   30.10
  -6  -2   1  391.36   26.90
  -6  -2   1  416.96   25.70
  -6  -2   1  381.66   27.00
   5   2  -1  690.43   44.30
   5   2  -1  776.52   43.20
   5   2  -1  738.03   41.10
   5   2  -1  722.83   43.00
   5   2  -1  695.73   40.40
  -5  -2   1  697.23   42.60
  -5  -2   1  705.33   43.40
  -5  -2   1  687.83   42.20
  -5  -2   1  708.83   41.20
  -5  -2   1  639.64   40.50
  -5  -2   1  652.73   40.70
   4   2  -1  170.48   12.50
   4   2  -1  162.68   11.60
   4   2  -1  168.58   11.80
   4   2  -1  168.38   13.40
   4   2  -1  172.78   12.20
  -4  -2   1  201.88   13.20
  -4  -2   1  199.58   13.00
  -4  -2   1  201.98   14.40
  -4  -2   1  179.38   12.00
  -4  -2   1  199.18   14.30
  -4  -2   1  189.08   12.40
  -4  -2   1  207.58   14.10
  -4  -2   1  209.08   14.20
   3   2  -1 3749.22  195.08
   3   2  -1 3484.75  195.18
   3   2  -1 3742.43  196.08
   3   2  -1 4029.50  193.98
  -3  -2   1 3409.26  194.68
  -3  -2   1 3758.92  196.18
  -3  -2   1 3095.39  194.58
  -3  -2   1 3581.14  195.38
  -3  -2   1 3264.47  194.98
  -3  -2   1 3684.73  196.38
  -3  -2   1 3502.35  196.18
  -3  -2   1 3258.77  196.08
  -3  -2   1 3463.25  195.08
   2   2  -1  131.89    9.10
   2   2  -1  132.99    9.90
   2   2  -1  132.49    9.70
   2   2  -1  140.79    9.30
   2   2  -1  142.29   10.00
  -2  -2   1  150.98   10.10
  -2  -2   1  162.78    9.50
  -2  -2   1  168.58    9.40
  -2  -2   1  167.98    9.60
  -2  -2   1  157.88    9.70
  -2  -2   1  177.08    9.90
   1   2  -1 3864.51  212.28
  -2   2  -1 2370.16  136.59
  -2   2  -1 2619.64  137.29
  -2   2  -1 2644.24  136.89
   2  -2   1 2397.56  139.69
   2  -2   1 2197.18  136.69
   2  -2   1 2385.86  137.39
   2  -2   1 2525.85  136.79
   2  -2   1 2769.12  137.19
   2  -2   1 2606.24  139.49
   2  -2   1 2399.26  137.39
  -3   2  -1 3645.84  199.48
  -3   2  -1 3407.36  198.58
  -3   2  -1 3591.64  199.58
  -3   2  -1 3473.25  198.08
   3  -2   1 3739.03  200.18
   3  -2   1 3677.83  201.48
   3  -2   1 3557.04  198.58
   3  -2   1 3910.21  198.68
   3  -2   1 3562.34  197.68
   3  -2   1 3444.66  199.08
  -4   2  -1 1564.04   87.39
  -4   2  -1 1531.25   87.19
  -4   2  -1 1465.65   87.59
  -4   2  -1 1530.75   87.99
  -4   2  -1 1527.35   86.29
  -4   2  -1 1375.16   85.09
   4  -2   1 1573.94   88.39
   4  -2   1 1486.85   85.49
   4  -2   1 1534.15   87.59
   4  -2   1 1654.13   87.19
   4  -2   1 1542.45   86.79
   4  -2   1 1646.34   90.69
   4  -2   1 1586.44   87.29
   4  -2   1 1559.04   86.79
  -5   2  -1  605.44   37.70
  -5   2  -1  630.84   37.50
  -5   2  -1  583.04   37.90
  -5   2  -1  646.14   37.70
  -5   2  -1  629.54   36.20
   5  -2   1  573.94   36.70
   5  -2   1  618.04   37.70
   5  -2   1  568.14   34.60
   5  -2   1  631.14   37.10
   5  -2   1  602.74   36.50
   5  -2   1  571.24   36.00
  -6   2  -1 1425.16   77.09
  -6   2  -1 1236.88   77.49
  -6   2  -1 1383.06   78.09
   6  -2   1 1438.06   80.99
   6  -2   1 1235.68   76.39
   6  -2   1 1360.86   77.89
   6  -2   1 1192.18   75.19
  -7   2  -1  121.09   12.10
  -7   2  -1  127.09   13.90
  -7   2  -1  118.99   10.00
   7   1  -1   24.80    5.50
  -7  -1   1   38.40    7.50
  -7  -1   1   27.80    5.60
   6   1  -1  923.21   63.09
   6   1  -1 1110.09   62.99
   6   1  -1 1111.19   60.69
   6   1  -1 1087.29   59.69
   6   1  -1  890.71   66.59
  -6  -1   1 1155.68   63.09
  -6  -1   1 1104.49   62.69
  -6  -1   1 1035.50   60.19
   5   1  -1 1106.79   57.59
   5   1  -1 1099.19   59.89
   5   1  -1  967.90   56.99
   5   1  -1 1083.79   57.99
   5   1  -1 1047.00   61.19
   5   1  -1 1116.69   59.69
   5   1  -1 1064.39   57.09
  -5  -1   1  938.81   59.59
  -5  -1   1  983.70   60.09
  -5  -1   1  920.71   57.49
  -5  -1   1  958.20   59.19
  -5  -1   1  915.71   57.69
  -5  -1   1  942.21   58.99
   4   1  -1  770.12   44.90
   4   1  -1  761.52   47.50
   4   1  -1  784.52   45.10
   4   1  -1  725.23   44.60
   4   1  -1  753.12   46.10
   4   1  -1  792.22   46.80
   4   1  -1  739.13   44.90
   4   1  -1  767.62   44.50
  -4  -1   1  827.82   46.20
  -4  -1   1  834.62   45.40
  -4  -1   1  841.52   46.80
  -4  -1   1  759.02   44.80
  -4  -1   1  838.92   47.00
  -4  -1   1  862.11   46.60
  -4  -1   1  784.72   45.10
  -4  -1   1  817.22   45.20
   3   1  -1  800.22   46.10
   3   1  -1  870.31   45.70
   3   1  -1  834.62   45.50
   3   1  -1  780.82   45.50
   3   1  -1  852.41   45.90
   3   1  -1  877.11   47.00
  -3  -1   1  821.92   46.90
  -3  -1   1  768.72   45.80
  -3  -1   1  733.83   45.60
  -3  -1   1  836.12   46.60
  -3  -1   1  793.92   45.80
  -3  -1   1  848.42   46.90
  -3  -1   1  802.22   46.00
  -3  -1   1  808.12   46.30
  -3  -1   1  779.52   45.50
   2   1  -1  218.78   12.60
   2   1  -1  236.98   13.10
   2   1  -1  238.18   13.30
   2   1  -1  232.28   12.30
   2   1  -1  225.88   12.30
   2   1  -1  233.28   12.50
   2   1  -1  234.68   12.20
   2   1  -1  228.88   13.00
  -2  -1   1  192.08   12.80
  -2  -1   1  198.98   12.90
  -2  -1   1  178.58   12.30
  -2  -1   1  186.78   12.60
  -2  -1   1  189.98   12.30
  -2  -1   1  183.58   12.90
  -2  -1   1  188.48   12.50
  -1   1  -1 1025.70   53.99
   1  -1   1  923.21   54.49
   1  -1   1 1080.79   54.39
   1  -1   1  923.81   54.39
   1  -1   1  958.10   55.39
   1  -1   1  990.80   53.99
  -2   1  -1 2766.92  165.28
  -2   1  -1 3272.67  166.28
  -2   1  -1 2920.51  165.38
   2  -1   1 3078.99  167.68
   2  -1   1 3048.69  165.98
  -3   1  -1  298.67   18.30
  -3   1  -1  267.87   17.00
  -3   1  -1  275.87   17.10
  -3   1  -1  295.47   17.60
  -3   1  -1  302.97   18.60
  -3   1  -1  294.77   18.70
   3  -1   1  282.27   17.80
   3  -1   1  318.17   18.40
   3  -1   1  297.47   18.50
   3  -1   1  298.47   20.10
   3  -1   1  310.87   17.10
   3  -1   1  308.97   18.20
  -4   1  -1 3841.52  214.88
  -4   1  -1 3922.81  214.58
  -4   1  -1 3740.53  213.38
  -4   1  -1 3611.74  212.58
  -4   1  -1 3755.32  214.28
  -4   1  -1 3648.33  212.68
  -4   1  -1 3825.42  214.58
   4  -1   1 3883.61  213.78
   4  -1   1 4207.18  214.68
   4  -1   1 3954.60  214.88
   4  -1   1 3967.70  216.88
   4  -1   1 3888.31  213.98
   4  -1   1 4027.40  215.28
  -5   1  -1  271.17   16.50
  -5   1  -1  293.37   19.50
  -5   1  -1  279.37   19.20
  -5   1  -1  275.67   19.60
  -5   1  -1  301.67   19.30
  -5   1  -1  293.67   17.90
   5  -1   1  256.47   18.00
   5  -1   1  256.07   17.70
   5  -1   1  248.58   18.70
   5  -1   1  252.17   18.60
   5  -1   1  233.48   16.00
  -6   1  -1  641.54   39.50
  -6   1  -1  584.94   38.80
  -6   1  -1  621.44   41.20
  -6   1  -1  619.34   41.20
   6  -1   1  638.54   39.10
   6  -1   1  577.24   36.20
   6  -1   1  627.14   37.60
  -7   1  -1   30.50    6.40
  -7   1  -1   38.00    6.90
   7  -1   1   25.00    6.50
   7   0  -1  339.67   24.10
   7   0  -1  405.56   26.50
   7   0  -1  381.96   24.30
  -7   0   1  421.96   27.10
  -7   0   1  423.26   27.80
   6   0  -1 1962.20  107.19
   6   0  -1 1936.91  108.69
   6   0  -1 1924.01  106.89
   6   0  -1 1722.33  109.99
   6   0  -1 1995.50  109.09
  -6   0   1 2032.80  110.09
  -6   0   1 1826.02  108.49
  -6   0   1 1782.22  106.59
  -6   0   1 1917.61  109.09
   5   0  -1  764.62   47.50
   5   0  -1  914.31   49.99
   5   0  -1  896.21   48.70
   5   0  -1  837.22   48.20
   5   0  -1  873.71   49.80
  -5   0   1  816.42   49.80
  -5   0   1  857.21   50.29
  -5   0   1  800.42   49.40
  -5   0   1  796.42   47.60
  -5   0   1  796.92   48.10
  -5   0   1  841.22   49.70
   4   0  -1  351.46   24.00
   4   0  -1  348.87   22.70
   4   0  -1  334.07   21.70
   4   0  -1  341.87   21.10
   4   0  -1  320.57   21.50
   4   0  -1  348.17   22.60
   4   0  -1  308.77   21.00
  -4   0   1  394.56   21.90
  -4   0   1  394.96   22.90
  -4   0   1  397.26   23.00
  -4   0   1  381.26   21.60
  -4   0   1  412.56   23.40
  -4   0   1  391.06   21.50
   3   0  -1 4933.11  276.47
  -3   0   1 5208.78  276.37
  -3   0   1 4976.60  276.07
   2   0  -1 4480.55  249.97
  -2   0   1 4648.13  250.27
   2   0   1 5618.84  309.27
  -3   0  -1   47.80    5.50
  -3   0  -1   48.10    5.10
  -3   0  -1   43.40    5.10
  -3   0  -1   43.40    4.20
  -3   0  -1   42.80    4.10
  -3   0  -1   43.00    4.30
   3   0   1   63.89    5.40
   3   0   1   57.89    5.20
   3   0   1   61.79    5.50
   3   0   1   61.49    4.70
   3   0   1   53.59    3.90
   3   0   1   63.39    6.40
  -4   0  -1   77.49    7.30
  -4   0  -1   68.99    5.80
  -4   0  -1   82.19    7.60
  -4   0  -1   77.09    6.80
  -4   0  -1   66.29    5.60
  -4   0  -1   71.89    6.10
  -4   0  -1   68.59    5.00
   4   0   1   65.99    6.20
   4   0   1   64.69    4.90
   4   0   1   68.89    6.80
   4   0   1   64.09    6.00
   4   0   1   60.69    7.90
   4   0   1   64.79    6.90
   4   0   1   70.59    7.10
  -5   0  -1  661.33   39.00
  -5   0  -1  619.04   38.10
  -5   0  -1  607.24   40.60
  -5   0  -1  693.63   40.30
  -5   0  -1  638.64   40.40
  -5   0  -1  640.84   38.50
  -5   0  -1  689.83   41.10
   5   0   1  676.23   39.30
   5   0   1  686.93   40.70
   5   0   1  652.63   40.40
   5   0   1  677.03   39.00
  -6   0  -1  552.74   36.10
  -6   0  -1  589.64   37.30
  -6   0  -1  536.45   37.10
  -6   0  -1  602.84   38.20
  -6   0  -1  608.84   36.70
   6   0   1  603.74   35.90
   6   0   1  586.34   37.40
   6   0   1  619.74   37.60
  -7   0  -1  160.08   12.80
   7   0   1  154.88   11.80
   7   0   1  157.58   13.30
   7  -1  -1  173.18   12.70
   7  -1  -1  171.08   12.50
  -7   1   1  180.58   15.10
  -7   1   1  173.58   14.90
  -7   1   1  174.78   12.60
   6  -1  -1  109.59    9.50
   6  -1  -1  119.59   11.20
   6  -1  -1  122.49   10.30
  -6   1   1  139.39   10.20
  -6   1   1  136.89   11.60
   5  -1  -1 1672.03   89.99
   5  -1  -1 1660.03   87.89
   5  -1  -1 1689.33   92.79
   5  -1  -1 1656.93   89.79
   5  -1  -1 1599.44   88.49
   5  -1  -1 1616.84   89.19
  -5   1   1 1521.25   89.89
  -5   1   1 1409.76   89.69
  -5   1   1 1468.85   88.29
  -5   1   1 1415.86   89.39
   4  -1  -1 4350.16  229.88
   4  -1  -1 3565.54  229.28
   4  -1  -1 4116.99  230.18
   4  -1  -1 4152.38  230.68
   4  -1  -1 4400.56  231.18
   4  -1  -1 4502.75  233.78
   4  -1  -1 4082.89  231.08
  -4   1   1 4103.19  231.08
  -4   1   1 4156.18  230.18
  -4   1   1 4149.58  231.38
  -4   1   1 4251.47  231.28
  -4   1   1 4305.37  231.28
   3  -1  -1 2021.00  118.29
   3  -1  -1 2141.89  118.99
   3  -1  -1 2082.99  119.09
   3  -1  -1 2268.17  119.19
   3  -1  -1 2091.19  118.49
   3  -1  -1 2384.36  121.29
   3  -1  -1 1928.91  118.59
  -3   1   1 2172.58  119.39
  -3   1   1 2081.59  118.49
  -3   1   1 2209.08  119.49
  -3   1   1 2144.79  119.99
  -3   1   1 2222.88  119.29
   2  -1  -1 2128.89  120.69
   2  -1  -1 2135.59  120.39
   2  -1  -1 2356.06  120.69
  -2   1   1 2117.39  120.39
  -2   1   1 2127.39  120.69
  -2   1   1 2265.87  120.89
   0  -1  -1 1095.09   58.29
   0  -1  -1 1083.39   58.39
   0   1   1 1054.59   58.69
   0   1   1 1054.19   58.39
   0   1   1 1007.90   58.59
  -2  -1  -1 1635.64   86.19
  -2  -1  -1 1418.96   84.99
  -2  -1  -1 1581.74   85.99
  -2  -1  -1 1438.86   85.09
  -2  -1  -1 1378.66   85.09
   2   1   1 1757.92   85.09
   2   1   1 1466.05   84.79
   2   1   1 1503.05   85.59
   2   1   1 1471.45   85.89
   2   1   1 1637.34   85.89
   2   1   1 1577.74   85.89
   2   1   1 1585.34   85.29
   3   1   1  139.09    9.80
   3   1   1  137.79    8.90
   3   1   1  132.09    9.00
   3   1   1  124.49    8.00
   3   1   1  124.49    9.30
   3   1   1  124.99    9.70
   3   1   1  130.79    9.80
  -4  -1  -1  529.95   31.60
  -4  -1  -1  533.15   30.90
  -4  -1  -1  527.95   31.00
  -4  -1  -1  505.55   30.40
  -4  -1  -1  545.95   32.70
  -4  -1  -1  552.54   31.20
  -4  -1  -1  572.04   32.70
   4   1   1  522.85   31.10
   4   1   1  499.35   29.80
   4   1   1  556.14   30.70
   4   1   1  520.05   33.80
   4   1   1  531.35   32.30
   4   1   1  476.55   30.00
   4   1   1  508.75   31.80
   4   1   1  486.65   32.20
  -5  -1  -1 1401.16   80.59
  -5  -1  -1 1317.17   82.49
  -5  -1  -1 1393.66   82.19
  -5  -1  -1 1416.96   81.59
  -5  -1  -1 1354.86   80.39
  -5  -1  -1 1414.26   80.29
   5   1   1 1522.65   80.99
   5   1   1 1368.26   78.89
   5   1   1 1561.84   82.69
   5   1   1 1432.36   82.29
  -6  -1  -1  122.79   11.40
  -6  -1  -1  138.29   13.20
  -6  -1  -1  118.09   10.00
  -6  -1  -1  144.29   15.70
  -6  -1  -1  127.09    9.90
   6   1   1  100.29   12.10
   6   1   1  133.49   10.60
   6   1   1  136.09   12.10
  -7  -1  -1  285.27   20.40
   7   1   1  295.17   19.50
   7   1   1  313.17   21.10
   7  -2  -1   75.49    6.80
   7  -2  -1   69.29    7.10
  -7   2   1   49.10    8.10
   6  -2  -1   71.69    5.90
   6  -2  -1   70.99    7.60
   6  -2  -1   69.79    7.30
   6  -2  -1   66.59    6.50
   6  -2  -1   72.89    7.30
   6  -2  -1   50.49    8.40
  -6   2   1   54.19    7.60
  -6   2   1   56.69    8.10
  -6   2   1   48.20    7.10
  -6   2   1   51.29    6.30
   5  -2  -1  386.36   24.90
   5  -2  -1  423.06   24.70
   5  -2  -1  399.16   23.40
   5  -2  -1  387.96   28.10
   5  -2  -1  400.56   24.10
   5  -2  -1  411.76   25.50
  -5   2   1  378.46   23.90
  -5   2   1  356.66   25.00
  -5   2   1  353.06   25.30
  -5   2   1  373.16   25.00
  -5   2   1  392.16   25.60
   4  -2  -1  468.25   28.10
   4  -2  -1  410.46   30.80
   4  -2  -1  449.56   28.60
   4  -2  -1  426.06   28.40
   4  -2  -1  482.95   32.10
   4  -2  -1  441.56   29.30
  -4   2   1  518.35   28.60
  -4   2   1  529.85   30.10
  -4   2   1  528.85   29.50
  -4   2   1  526.45   30.20
  -4   2   1  532.85   29.90
   3  -2  -1 2790.22  153.48
   3  -2  -1 2688.93  152.88
  -3   2   1 2825.42  153.48
  -3   2   1 2766.92  153.08
  -3   2   1 2757.02  153.88
  -3   2   1 2783.92  152.68
   2  -2  -1  858.11   48.80
   2  -2  -1  938.41   51.69
   2  -2  -1  893.61   49.50
   2  -2  -1  893.61   48.60
   2  -2  -1  802.12   49.00
  -2   2   1  858.21   48.80
  -2   2   1  884.81   49.30
  -1   2   1 5161.38  282.87
   0  -2  -1 1053.39   58.89
   0  -2  -1 1129.19   58.79
   0  -2  -1 1125.89   59.09
   0  -2  -1 1096.29   58.79
   0  -2  -1 1207.68   61.09
   0   2   1 1004.70   59.39
   0   2   1 1000.10   59.19
   0   2   1 1014.60   58.59
   0   2   1 1035.60   58.89
   0   2   1  948.91   58.59
  -1  -2  -1 1425.46   69.39
  -1  -2  -1 1318.27   67.79
  -1  -2  -1 1191.98   68.19
  -1  -2  -1 1277.27   68.29
  -1  -2  -1 1197.78   68.19
  -1  -2  -1 1278.67   68.49
  -1  -2  -1 1337.27   68.49
  -1  -2  -1 1413.36   69.09
  -1  -2  -1 1277.97   68.19
   1   2   1 1110.39   68.09
   1   2   1 1092.59   68.59
   1   2   1 1205.18   68.49
   1   2   1 1144.99   68.99
   1   2   1 1074.59   69.09
   1   2   1 1122.29   68.79
  -2  -2  -1 3259.27  190.88
  -2  -2  -1 3675.23  190.98
  -2  -2  -1 3562.94  191.08
  -2  -2  -1 3549.54  191.78
  -2  -2  -1 3336.57  190.68
  -2  -2  -1 3002.70  190.18
   2   2   1 3508.05  191.78
   2   2   1 3657.23  190.88
   2   2   1 3699.93  192.18
  -3  -2  -1  587.04   33.80
  -3  -2  -1  589.44   35.30
  -3  -2  -1  570.24   34.90
  -3  -2  -1  531.35   32.80
  -3  -2  -1  532.85   33.50
  -3  -2  -1  582.54   34.90
  -3  -2  -1  606.64   34.10
  -3  -2  -1  555.34   33.80
   3   2   1  573.14   33.20
   3   2   1  568.64   34.50
   3   2   1  615.14   35.10
   3   2   1  643.84   34.20
   3   2   1  609.74   34.90
  -4  -2  -1   30.40    4.00
  -4  -2  -1   27.70    4.50
  -4  -2  -1   31.10    5.20
  -4  -2  -1   29.90    4.20
  -4  -2  -1   30.00    4.40
   4   2   1   19.80    2.90
   4   2   1   22.40    4.50
   4   2   1   20.40    4.70
   4   2   1   20.30    3.10
   4   2   1   19.20    4.00
  -5  -2  -1  813.42   48.90
  -5  -2  -1  803.42   46.40
  -5  -2  -1  729.53   46.70
  -5  -2  -1  743.53   47.80
  -5  -2  -1  729.13   45.60
  -5  -2  -1  679.93   45.50
  -5  -2  -1  694.43   48.20
  -5  -2  -1  776.62   46.70
   5   2   1  902.61   48.80
   5   2   1  737.53   47.70
   5   2   1  914.31   47.00
   5   2   1  897.91   46.80
   5   2   1  826.92   48.30
  -6  -2  -1  795.32   48.10
  -6  -2  -1  753.82   48.90
  -6  -2  -1  857.41   51.59
   6   2   1  832.72   48.60
   6   2   1  865.01   50.49
   7  -3  -1  326.87   21.80
   7  -3  -1  303.57   20.50
  -7   3   1  308.27   22.20
  -7   3   1  265.77   21.60
  -7   3   1  305.27   19.80
   6  -3  -1  492.95   29.10
   6  -3  -1  437.86   33.20
   6  -3  -1  509.15   31.50
   6  -3  -1  432.86   33.00
   6  -3  -1  525.35   30.10
  -6   3   1  482.65   31.70
  -6   3   1  482.65   32.90
  -6   3   1  491.95   32.40
   5  -3  -1  251.67   17.90
   5  -3  -1  248.18   21.60
   5  -3  -1  263.97   18.90
   5  -3  -1  264.57   17.40
   5  -3  -1  255.77   18.90
  -5   3   1  314.17   20.50
  -5   3   1  319.97   20.20
   4  -3  -1 2142.69  118.29
   4  -3  -1 2132.19  119.29
   4  -3  -1 2234.68  118.79
   4  -3  -1 2199.28  120.29
   4  -3  -1 1939.01  117.99
  -4   3   1 2307.67  120.89
  -4   3   1 2051.49  120.19
  -4   3   1 2194.48  120.89
  -4   3   1 2168.78  118.89
  -4   3   1 1973.90  118.89
   3  -3  -1  132.49   12.00
   3  -3  -1  125.59    9.30
   3  -3  -1  120.09    9.30
   3  -3  -1  129.39    8.50
   3  -3  -1  119.99    8.70
   3  -3  -1  124.69    7.40
  -3   3   1  116.49    9.00
  -3   3   1  116.39    8.30
  -3   3   1  113.89    8.10
   2  -3  -1 3906.01  227.58
   2  -3  -1 4480.25  228.68
  -2   3   1 4070.59  228.48
  -1   3   1 8081.39  442.56
   0  -3  -1 1289.67   70.09
   0  -3  -1 1310.47   69.69
   0  -3  -1 1327.87   69.69
   0  -3  -1 1262.87   69.49
   0  -3  -1 1255.57   75.69
   0   3   1 1208.78   69.89
   0   3   1 1128.69   70.19
  -1  -3  -1  925.81   54.49
  -1  -3  -1 1063.69   56.49
  -1  -3  -1 1037.40   55.59
  -1  -3  -1  977.90   55.49
  -1  -3  -1  949.60   54.49
  -1  -3  -1 1010.90   55.49
  -1  -3  -1 1020.90   55.69
  -1  -3  -1 1026.10   55.69
   1   3   1  953.80   55.29
   1   3   1  968.20   56.39
   1   3   1 1026.80   55.79
   1   3   1  930.71   55.99
   1   3   1  971.70   55.59
  -2  -3  -1  395.56   23.00
  -2  -3  -1  416.16   23.40
  -2  -3  -1  356.66   22.40
  -2  -3  -1  421.86   24.50
  -2  -3  -1  400.46   23.70
  -2  -3  -1  414.86   24.10
  -2  -3  -1  376.16   22.50
  -2  -3  -1  412.66   22.80
   2   3   1  374.06   23.20
   2   3   1  369.56   22.60
   2   3   1  374.66   24.00
   2   3   1  354.96   23.30
   2   3   1  346.57   23.40
  -3  -3  -1  946.11   59.09
  -3  -3  -1 1000.20   60.89
  -3  -3  -1 1041.40   59.79
  -3  -3  -1 1001.90   61.39
  -3  -3  -1 1059.69   61.09
  -3  -3  -1 1037.10   60.09
  -3  -3  -1  976.70   59.89
   3   3   1 1134.59   60.19
   3   3   1 1093.39   61.39
   3   3   1 1094.59   59.29
   3   3   1 1075.69   60.59
   3   3   1 1130.29   60.99
  -4  -3  -1  353.66   23.20
  -4  -3  -1  388.86   24.00
  -4  -3  -1  383.16   22.50
  -4  -3  -1  345.07   23.70
  -4  -3  -1  398.26   22.20
  -4  -3  -1  320.97   23.70
  -4  -3  -1  355.76   21.90
   4   3   1  324.27   23.10
   4   3   1  316.67   21.50
   4   3   1  301.37   20.50
   4   3   1  304.97   22.50
   4   3   1  296.97   22.00
  -5  -3  -1  282.77   18.30
  -5  -3  -1  252.77   19.30
  -5  -3  -1  245.78   17.60
  -5  -3  -1  291.87   21.00
  -5  -3  -1  269.97   18.50
  -5  -3  -1  269.77   18.00
   5   3   1  283.07   19.90
   5   3   1  233.58   16.60
   5   3   1  255.17   19.30
   5   3   1  274.07   18.10
   5   3   1  276.07   19.10
   5   3   1  237.08   16.00
  -6  -3  -1  704.33   45.30
  -6  -3  -1  715.93   42.70
   6   3   1  707.43   42.60
   6   3   1  735.93   44.50
   7  -4  -1  113.79    9.10
   7  -4  -1  108.09    9.60
  -7   4   1  114.59    9.90
  -7   4   1   94.19   12.30
   6  -4  -1  226.08   16.10
   6  -4  -1  241.38   17.60
   6  -4  -1  203.48   15.20
  -6   4   1  256.47   18.50
   5  -4  -1  320.17   26.40
   5  -4  -1  338.17   23.30
   5  -4  -1  343.27   22.10
   5  -4  -1  325.07   23.20
   5  -4  -1  330.17   21.30
  -5   4   1  327.67   24.10
  -5   4   1  347.57   23.40
  -5   4   1  361.86   21.80
   4  -4  -1 1899.01  102.09
   4  -4  -1 1859.41  106.89
   4  -4  -1 1757.32  101.89
   4  -4  -1 1862.51  100.29
   4  -4  -1 1672.73   99.69
   4  -4  -1 1773.92  100.79
  -4   4   1 1734.93  101.39
  -4   4   1 1809.72  100.19
  -4   4   1 1713.63  102.39
   3  -4  -1 1376.46   76.09
   3  -4  -1 1300.07   74.69
   3  -4  -1 1392.36   74.89
   3  -4  -1 1486.75   81.19
   3  -4  -1 1366.66   76.09
   3  -4  -1 1330.77   75.29
  -3   4   1 1204.88   74.39
  -3   4   1 1176.08   75.09
   2  -4  -1 2046.50  110.89
   2  -4  -1 2147.69  111.39
   2  -4  -1 2005.70  110.59
   2  -4  -1 1843.92  109.69
   2  -4  -1 2073.99  111.29
  -2   4   1 1947.01  109.99
  -2   4   1 1834.82  110.19
   1  -4  -1 1172.28   64.69
   1  -4  -1 1036.70   59.29
   1  -4  -1 1007.60   59.19
   1  -4  -1 1082.59   60.59
   1  -4  -1 1064.49   60.29
   1  -4  -1 1051.39   60.19
   1  -4  -1 1109.49   60.29
   1  -4  -1 1099.39   60.49
  -1   4   1 1078.29   59.69
  -1   4   1  968.10   59.19
   0  -4  -1 1185.28   73.09
   0  -4  -1 1285.17   73.39
   0  -4  -1 1277.87   72.89
   0  -4  -1 1357.16   73.09
   0  -4  -1 1300.27   73.59
   0   4   1 1330.17   73.99
   0   4   1 1425.06   73.59
   0   4   1 1309.67   72.99
  -1  -4  -1 3881.91  199.88
  -1  -4  -1 3607.74  198.88
  -1  -4  -1 3790.32  199.18
  -1  -4  -1 3713.33  198.88
  -1  -4  -1 3545.25  198.88
  -1  -4  -1 3569.24  198.78
   1   4   1 3698.23  199.28
   1   4   1 3554.74  200.18
   1   4   1 3341.57  198.68
   1   4   1 3527.95  198.58
   1   4   1 3417.36  199.58
  -2  -4  -1    8.20    3.30
  -2  -4  -1    7.50    2.70
  -2  -4  -1    4.40    2.20
  -2  -4  -1   11.00    2.60
  -2  -4  -1    6.30    3.80
   2   4   1    6.20    2.60
   2   4   1    3.30    4.70
  -3  -4  -1   41.80    5.00
  -3  -4  -1   40.90    5.90
  -3  -4  -1   39.30    6.00
  -3  -4  -1   39.80    5.80
  -3  -4  -1   40.70    6.40
   3   4   1   56.69    6.50
   3   4   1   55.39    6.30
   3   4   1   55.99    6.20
   3   4   1   51.69    7.10
   3   4   1   54.69    5.30
  -4  -4  -1 1306.67   81.89
  -4  -4  -1 1492.55   82.09
  -4  -4  -1 1445.56   80.79
  -4  -4  -1 1425.26   80.89
  -4  -4  -1 1451.75   82.19
   4   4   1 1407.46   80.99
   4   4   1 1318.87   81.29
   4   4   1 1309.47   78.59
   4   4   1 1388.06   80.29
   4   4   1 1500.65   82.49
  -5  -4  -1  280.97   19.30
  -5  -4  -1  306.07   19.70
  -5  -4  -1  282.17   19.80
   5   4   1  289.87   19.20
   5   4   1  301.77   21.10
   5   4   1  252.67   18.10
   5   4   1  284.87   19.10
   5   4   1  267.37   18.30
  -6  -4  -1  177.28   12.70
   6   4   1  165.08   13.70
   6   4   1  165.78   12.30
   7  -5  -1   38.20    5.50
  -7   5   1   35.80    6.20
  -7   5   1   35.20    5.00
   6  -5  -1  245.38   17.90
   6  -5  -1  249.48   19.20
  -6   5   1  281.67   20.00
  -6   5   1  284.27   18.20
   5  -5  -1 2410.66  128.49
   5  -5  -1 2334.27  128.69
   5  -5  -1 2069.79  132.19
   5  -5  -1 2287.77  126.59
  -5   5   1 2503.35  127.69
  -5   5   1 1954.70  127.99
  -5   5   1 2141.89  127.29
   4  -5  -1  830.82   49.50
   4  -5  -1  873.41   51.69
   4  -5  -1  881.81   50.49
   4  -5  -1  874.21   51.79
  -4   5   1  805.62   52.39
  -4   5   1  826.02   50.59
  -4   5   1  893.81   49.80
   3  -5  -1  520.35   32.60
   3  -5  -1  534.65   32.30
   3  -5  -1  533.65   33.60
   3  -5  -1  545.55   33.50
  -3   5   1  557.34   31.90
   2  -5  -1   92.99   13.60
   2  -5  -1  100.59    8.70
   2  -5  -1  105.89   11.30
   2  -5  -1   95.89    9.30
   2  -5  -1   94.69    7.20
  -2   5   1  109.89    7.20
   1  -5  -1  618.24   37.00
   1  -5  -1  600.24   36.80
   1  -5  -1  614.14   35.80
   1  -5  -1  633.14   37.30
   1  -5  -1  656.03   37.60
   1  -5  -1  656.63   37.50
   1  -5  -1  585.14   35.60
   1  -5  -1  661.23   42.40
  -1   5   1  655.13   37.20
  -1   5   1  633.84   36.40
  -1   5   1  636.94   37.90
   0  -5  -1 1858.61  109.59
   0  -5  -1 1703.53  103.79
   0  -5  -1 1928.51  104.59
   0  -5  -1 2013.70  105.79
   0  -5  -1 1940.51  104.39
   0  -5  -1 1906.61  105.19
   0   5   1 1842.72  105.09
   0   5   1 1813.52  105.69
  -1  -5  -1 1056.69   58.69
  -1  -5  -1 1052.49   58.99
  -1  -5  -1 1032.70   59.69
  -1  -5  -1 1012.10   58.69
  -1  -5  -1 1013.00   58.79
   1   5   1 1035.40   60.49
   1   5   1 1037.20   59.19
   1   5   1 1028.90   58.39
   1   5   1  976.80   59.79
  -2  -5  -1  307.97   19.30
  -2  -5  -1  335.87   21.00
  -2  -5  -1  332.37   20.10
  -2  -5  -1  337.27   20.40
  -2  -5  -1  294.97   19.90
  -2  -5  -1  302.17   19.40
   2   5   1  286.57   20.50
   2   5   1  291.47   19.10
   2   5   1  283.67   19.90
   2   5   1  280.97   21.20
  -3  -5  -1  487.85   31.40
  -3  -5  -1  496.45   30.80
  -3  -5  -1  474.65   31.10
  -3  -5  -1  443.06   29.70
  -3  -5  -1  428.76   31.00
   3   5   1  517.85   31.50
   3   5   1  544.35   32.90
   3   5   1  534.45   29.90
   3   5   1  526.85   31.00
  -4  -5  -1  998.80   59.19
  -4  -5  -1 1045.00   59.39
   4   5   1 1036.90   60.69
   4   5   1  976.10   57.29
   4   5   1  985.50   58.49
   4   5   1 1033.00   59.29
   4   5   1  924.41   56.79
  -5  -5  -1  163.28   13.00
  -5  -5  -1  139.49   13.60
  -5  -5  -1  172.68   14.70
   5   5   1  184.18   14.50
   5   5   1  161.48   14.60
   5   5   1  190.48   15.20
   6  -6  -1   95.19    8.60
   6  -6  -1   93.99   10.10
  -6   6   1  110.39    9.10
   5  -6  -1   93.59    9.90
   5  -6  -1   78.49   11.30
   5  -6  -1   84.89   10.10
   5  -6  -1   88.09    8.50
  -5   6   1   97.39    8.80
  -5   6   1   80.19   10.00
   4  -6  -1  116.99    9.80
   4  -6  -1  116.09   11.40
   4  -6  -1  122.49   11.50
   4  -6  -1  109.89   14.50
   4  -6  -1  130.99   10.70
  -4   6   1  140.29   10.30
   3  -6  -1  449.06   30.80
   3  -6  -1  474.25   30.30
   3  -6  -1  479.35   30.10
   3  -6  -1  492.75   31.40
   3  -6  -1  488.65   37.00
  -3   6   1  520.15   29.40
   2  -6  -1 2481.75  146.29
   2  -6  -1 2269.57  137.59
   2  -6  -1 2485.35  139.49
   2  -6  -1 2549.84  139.09
   2  -6  -1 2250.27  138.69
   2  -6  -1 2540.15  139.09
  -2   6   1 2536.05  138.79
  -2   6   1 2594.44  137.89
  -2   6   1 2569.34  139.99
   1  -6  -1 1104.99   63.39
   1  -6  -1 1143.89   63.79
   1  -6  -1 1079.79   63.59
   1  -6  -1 1125.89   63.69
  -1   6   1 1053.89   62.39
  -1   6   1 1080.19   64.19
  -1   6   1 1096.89   63.39
   0  -6  -1   78.09    7.90
   0  -6  -1   89.59    8.00
   0  -6  -1   87.29    8.60
   0  -6  -1   80.19    7.00
   0  -6  -1   89.59    7.80
   0   6   1   71.59    6.90
   0   6   1   68.79    8.30
  -1  -6  -1 2571.64  146.59
  -1  -6  -1 2528.25  146.09
  -1  -6  -1 2534.05  146.29
  -1  -6  -1 2552.24  146.89
  -1  -6  -1 2634.34  147.79
   1   6   1 2647.04  146.89
   1   6   1 2738.03  148.79
   1   6   1 2810.12  146.29
   1   6   1 2564.64  147.59
  -2  -6  -1 1191.38   70.89
  -2  -6  -1 1199.88   70.39
  -2  -6  -1 1265.87   71.99
  -2  -6  -1 1206.78   69.99
   2   6   1 1214.18   70.79
   2   6   1 1268.07   73.29
   2   6   1 1209.38   71.49
   2   6   1 1230.98   69.79
  -3  -6  -1  279.47   20.50
  -3  -6  -1  277.97   19.20
  -3  -6  -1  281.87   20.20
  -3  -6  -1  284.67   21.10
   3   6   1  312.37   20.40
   3   6   1  318.97   22.30
   3   6   1  314.57   19.30
   3   6   1  298.17   20.70
  -4  -6  -1  621.64   37.40
  -4  -6  -1  617.94   36.60
   4   6   1  555.44   34.70
   4   6   1  600.94   35.20
   4   6   1  659.83   38.80
   4   6   1  511.65   38.50
   4   6   1  599.24   36.30
   5  -7  -1  332.77   21.70
   5  -7  -1  340.57   23.20
  -5   7   1  304.97   21.00
   4  -7  -1  108.69   10.40
   4  -7  -1  118.69   10.00
   4  -7  -1  108.99   11.50
   4  -7  -1  118.59   11.90
  -4   7   1  150.08   12.80
  -4   7   1  149.29   10.60
  -4   7   1  132.49   11.00
   3  -7  -1  707.33   41.90
   3  -7  -1  711.23   42.90
   3  -7  -1  620.64   42.10
   3  -7  -1  717.23   42.30
  -3   7   1  666.03   41.50
  -3   7   1  692.03   40.70
  -3   7   1  679.33   43.00
   2  -7  -1  327.17   22.90
   2  -7  -1  356.26   24.40
   2  -7  -1  343.77   24.60
   2  -7  -1  374.46   24.70
  -2   7   1  395.86   25.80
  -2   7   1  406.66   23.70
  -2   7   1  397.16   24.60
   1  -7  -1 1630.94   94.49
   1  -7  -1 1759.72   95.09
   1  -7  -1 1629.54   94.39
  -1   7   1 1681.03   93.69
  -1   7   1 1570.64   95.19
   0  -7  -1  382.56   27.30
   0  -7  -1  347.57   26.00
   0  -7  -1  387.56   26.80
   0   7   1  440.16   28.10
   0   7   1  456.15   27.30
   0   7   1  462.75   26.30
   0   7   1  457.65   29.10
  -1  -7  -1 1024.30   62.29
  -1  -7  -1 1126.99   64.59
  -1  -7  -1 1101.99   63.09
   1   7   1  993.40   62.89
   1   7   1 1049.30   62.09
   1   7   1 1066.79   64.99
   1   7   1 1203.18   67.79
  -2  -7  -1   50.29    5.60
  -2  -7  -1   56.49    6.40
  -2  -7  -1   58.19    8.20
   2   7   1   54.89    8.20
   2   7   1   53.89    6.30
   2   7   1   53.89    7.20
   2   7   1   45.80    6.60
  -3  -7  -1    6.80    4.10
  -3  -7  -1    6.60    3.80
  -3  -7  -1    8.00    5.20
   3   7   1   14.20    3.50
   3   7   1   13.10    4.60
   3   7   1   11.20    3.50
   3   7   1   16.30    5.50
   4  -8  -1   57.09    6.40
   4  -8  -1   59.49    7.80
  -4   8   1   61.29    7.70
  -4   8   1   67.69    8.90
  -4   8   1   66.09    7.20
   3  -8  -1  916.61   54.09
   3  -8  -1  882.31   54.79
  -3   8   1  937.11   53.09
  -3   8   1  933.71   55.49
  -3   8   1  881.21   53.99
   2  -8  -1  185.78   13.40
  -2   8   1  135.89   12.00
  -2   8   1  141.19   13.30
  -2   8   1  147.99   11.50
   1  -8  -1  113.89   10.30
   1  -8  -1  102.79   10.40
   1  -8  -1  130.49   11.40
  -1   8   1  126.69   10.70
  -1   8   1  125.99   11.80
  -1   8   1  128.89    9.90
   0  -8  -1  827.62   50.69
   0  -8  -1  931.71   51.89
   0  -8  -1  884.71   52.39
   0   8   1  874.41   53.39
   0   8   1  818.52   52.09
   0   8   1  808.92   51.19
   0   8   1  888.31   50.59
  -1  -8  -1  248.68   18.70
  -1  -8  -1  232.98   16.40
  -1  -8  -1  254.97   17.40
   1   8   1  247.88   16.60
   1   8   1  245.48   19.20
   1   8   1  248.18   18.10
   1   8   1  231.18   17.30
  -2  -8  -1  252.07   18.90
  -2  -8  -1  248.78   17.00
  -2  -8  -1  213.58   16.20
   2   8   1  242.38   17.40
   2   8   1  272.77   16.70
   2   8   1  268.67   18.00
   2  -9  -1    9.00    3.80
   2  -9  -1   13.20    3.90
  -2   9   1   13.30    5.30
  -2   9   1   15.40    4.70
  -2   9   1    8.20    2.70
  -2   9   1    6.00    3.40
   1  -9  -1   79.19    7.50
   1  -9  -1   91.99    8.60
  -1   9   1   70.59    8.20
  -1   9   1   77.59    9.20
  -1   9   1   84.39    7.50
  -1   9   1   83.59    8.80
   0  -9  -1  170.38   12.20
   0  -9  -1  160.88   13.10
   0  -9  -1  182.98   13.20
   0   9   1  167.78   14.30
   0   9   1  164.98   12.00
   0   9   1  165.28   13.50
   2   9  -2    3.00    2.10
   2   9  -2   -0.20    3.10
  -2  -9   2    7.80    4.00
  -2  -9   2    3.30    2.80
  -2  -9   2    1.50    2.70
   1   9  -2  304.27   19.70
   1   9  -2  275.77   20.20
   1   9  -2  330.47   23.60
  -1  -9   2  322.97   24.70
  -1  -9   2  303.17   21.00
  -1  -9   2  307.17   22.40
   0   9  -2  677.23   51.49
   0   9  -2  846.22   47.40
   0   9  -2  761.22   48.10
   0   9  -2  830.02   50.49
   0  -9   2  830.92   49.30
   0  -9   2  831.12   48.70
   0  -9   2  893.11   49.20
  -1   9  -2   97.19    8.60
  -1   9  -2   99.79    9.20
   1  -9   2   69.09    8.30
   1  -9   2   67.99    9.40
   1  -9   2   67.79    8.10
  -2   9  -2   65.29    7.80
  -2   9  -2   67.49    6.40
  -2   9  -2   63.79    7.10
   2  -9   2   73.89    8.10
   2  -9   2   71.79    7.70
  -3   9  -2   47.50    6.10
  -3   9  -2   45.30    5.20
  -3   9  -2   52.99    6.90
   3  -9   2   52.19    6.40
   3  -9   2   62.29    8.40
   3  -9   2   65.79    8.40
   3   8  -2  382.26   27.20
   3   8  -2  381.46   23.40
   3   8  -2  371.26   25.50
  -3  -8   2  351.76   24.50
  -3  -8   2  380.46   25.70
   2   8  -2  331.57   23.60
   2   8  -2  322.77   21.50
   2   8  -2  357.66   21.20
  -2  -8   2  299.37   21.60
  -2  -8   2  323.97   23.30
  -2  -8   2  313.37   21.70
   1   8  -2  413.26   24.10
   1   8  -2  397.56   27.00
   1   8  -2  358.46   24.40
   1   8  -2  345.67   24.50
  -1  -8   2  369.06   25.00
  -1  -8   2  391.06   26.40
  -1  -8   2  395.26   25.30
   0   8  -2  835.52   48.20
   0   8  -2  840.32   51.49
   0   8  -2  793.42   49.10
   0  -8   2  855.01   49.70
   0  -8   2  811.42   49.60
   0  -8   2  840.52   50.59
  -1   8  -2  967.70   56.69
  -1   8  -2  914.71   57.69
   1  -8   2  935.61   58.09
   1  -8   2 1046.00   58.49
   1  -8   2 1043.70   58.99
   1  -8   2 1025.70   58.29
  -2   8  -2  289.57   18.60
  -2   8  -2  291.97   17.30
  -2   8  -2  282.47   19.50
   2  -8   2  240.78   18.00
   2  -8   2  247.38   19.00
   2  -8   2  219.88   18.10
  -3   8  -2  407.06   28.60
  -3   8  -2  427.56   29.90
  -3   8  -2  440.16   27.60
   3  -8   2  472.05   28.40
   3  -8   2  484.45   29.70
   3  -8   2  502.55   30.50
  -4   8  -2  141.49   10.90
   4  -8   2  153.48   12.70
   4  -8   2  161.68   13.40
  -5   8  -2  424.46   25.80
   5  -8   2  425.66   27.30
   5  -8   2  419.96   27.00
   4   7  -2  130.19   12.70
   4   7  -2  127.79    9.70
   4   7  -2  117.49    9.40
   4   7  -2  123.79   11.70
  -4  -7   2  101.39   10.80
   3   7  -2  485.45   33.20
   3   7  -2  507.95   30.90
   3   7  -2  529.45   33.70
  -3  -7   2  491.25   32.00
  -3  -7   2  507.85   31.50
  -3  -7   2  521.65   33.20
  -3  -7   2  518.15   31.70
   2   7  -2   62.79    6.50
   2   7  -2   67.39    8.90
   2   7  -2   65.59    6.90
  -2  -7   2   67.19    8.60
  -2  -7   2   63.19    7.20
  -2  -7   2   65.69    7.00
  -2  -7   2   70.59    7.40
   1   7  -2  287.97   21.10
   1   7  -2  247.68   19.00
   1   7  -2  268.07   19.10
   1   7  -2  281.17   18.50
  -1  -7   2  309.77   19.90
  -1  -7   2  318.17   20.90
  -1  -7   2  314.77   19.70
   0   7  -2 1757.12  107.59
   0   7  -2 1844.72  107.29
   0   7  -2 1894.81  106.39
   0  -7   2 1947.61  107.69
   0  -7   2 2026.90  108.49
   0  -7   2 1954.10  108.09
  -1   7  -2 1668.13   95.19
  -1   7  -2 1732.23   96.49
  -1   7  -2 1649.23   97.09
   1  -7   2 1631.14   96.69
   1  -7   2 1711.83   97.19
   1  -7   2 1753.12   96.79
   1  -7   2 1767.62   96.59
  -2   7  -2  267.67   16.70
   2  -7   2  265.27   18.60
   2  -7   2  239.98   17.90
   2  -7   2  292.97   19.30
   2  -7   2  286.17   18.20
   2  -7   2  241.98   16.80
  -3   7  -2  164.18   12.30
   3  -7   2  196.48   14.50
   3  -7   2  186.88   14.60
  -4   7  -2  638.84   37.60
  -4   7  -2  626.24   42.20
   4  -7   2  676.53   40.20
   4  -7   2  577.04   44.40
   4  -7   2  643.04   39.40
  -5   7  -2  278.67   17.00
   5  -7   2  238.08   18.00
   5  -7   2  224.78   17.60
   5   6  -2   17.00    3.70
   5   6  -2    9.00    3.90
   5   6  -2   15.70    3.60
   5   6  -2   10.00    2.80
  -5  -6   2    4.30    3.30
  -5  -6   2    8.00    4.40
   4   6  -2  249.28   17.80
   4   6  -2  285.77   20.40
   4   6  -2  275.37   21.50
   4   6  -2  273.17   17.90
   4   6  -2  280.37   18.00
  -4  -6   2  277.27   19.70
  -4  -6   2  284.17   19.00
  -4  -6   2  246.18   19.10
  -4  -6   2  275.57   18.40
   3   6  -2 1892.01  122.29
   3   6  -2 2079.39  121.99
   3   6  -2 2205.98  123.19
   3   6  -2 2196.48  120.59
   3   6  -2 2087.69  120.79
  -3  -6   2 1999.60  121.39
  -3  -6   2 2239.18  121.49
  -3  -6   2 2250.57  121.29
  -3  -6   2 2352.56  122.19
  -3  -6   2 2244.88  122.59
   2   6  -2 1953.80  108.99
   2   6  -2 1823.02  109.29
   2   6  -2 1880.91  111.19
  -2  -6   2 1995.00  109.59
  -2  -6   2 1958.00  109.69
  -2  -6   2 2018.60  110.99
  -2  -6   2 2016.00  110.19
   1   6  -2 3203.48  171.88
   1   6  -2 2933.41  170.18
   1   6  -2 2790.32  168.88
   1   6  -2 3199.58  169.38
   1   6  -2 3113.39  170.08
  -1  -6   2 3038.60  170.48
  -1  -6   2 3145.19  171.08
   0   6  -2  759.92   42.00
   0   6  -2  733.23   40.90
   0   6  -2  713.83   42.30
   0  -6   2  773.62   42.70
   0  -6   2  684.43   42.10
   0  -6   2  718.53   42.10
   0  -6   2  623.34   40.30
   0  -6   2  732.23   42.50
   1  -6   2  120.39    9.30
   1  -6   2  127.09    9.20
   1  -6   2  116.69    9.50
   1  -6   2  116.29    9.60
   1  -6   2  106.49    8.60
  -2   6  -2 3337.07  180.88
   2  -6   2 3455.25  183.28
   2  -6   2 3411.56  181.98
   2  -6   2 3147.89  182.58
   2  -6   2 3255.17  182.68
   2  -6   2 3064.79  180.98
  -3   6  -2 1403.66   79.59
  -3   6  -2 1365.86   83.09
  -3   6  -2 1327.17   80.39
   3  -6   2 1462.95   81.59
   3  -6   2 1385.96   79.89
   3  -6   2 1430.86   82.09
   3  -6   2 1547.95   82.19
  -4   6  -2  166.08   12.80
  -4   6  -2  170.18   11.80
  -4   6  -2  162.18   14.20
   4  -6   2  158.18   13.00
   4  -6   2  147.69   13.50
   4  -6   2  172.08   13.60
  -5   6  -2  160.68   14.90
  -5   6  -2  155.78   13.20
  -5   6  -2  158.28   12.10
   5  -6   2  162.28   14.40
   5  -6   2  173.18   13.60
   5  -6   2  175.88   13.60
  -6   6  -2  429.06   30.10
  -6   6  -2  539.75   31.80
   6  -6   2  438.46   29.30
   6  -6   2  489.55   31.80
   6   5  -2  224.78   19.50
   6   5  -2  305.67   19.20
   6   5  -2  275.57   16.70
  -6  -5   2  251.77   17.60
  -6  -5   2  247.38   19.00
   5   5  -2  182.98   15.50
   5   5  -2  193.88   15.70
   5   5  -2  191.38   13.50
   5   5  -2  185.58   13.80
   5   5  -2  177.58   13.30
  -5  -5   2  210.98   16.70
  -5  -5   2  226.18   15.40
  -5  -5   2  236.58   15.30
   4   5  -2  463.35   30.60
   4   5  -2  438.56   28.50
   4   5  -2  463.15   28.40
   4   5  -2  472.45   28.50
   4   5  -2  433.86   30.10
  -4  -5   2  504.55   29.70
  -4  -5   2  490.45   31.10
  -4  -5   2  491.95   30.10
  -4  -5   2  492.55   29.00
   3   5  -2  272.87   19.00
   3   5  -2  266.27   17.30
   3   5  -2  269.87   18.30
   3   5  -2  285.57   17.10
   3   5  -2  242.08   16.80
  -3  -5   2  256.87   18.40
  -3  -5   2  284.27   18.30
  -3  -5   2  257.97   18.60
  -3  -5   2  267.67   17.70
   2   5  -2  466.65   28.80
   2   5  -2  444.36   28.20
   2   5  -2  511.55   28.00
   2   5  -2  482.25   28.30
  -2  -5   2  481.95   29.40
  -2  -5   2  442.66   28.60
  -2  -5   2  495.75   29.40
   1   5  -2  466.45   28.90
   1   5  -2  454.55   29.10
   1   5  -2  483.45   29.10
   1   5  -2  501.25   28.60
  -1  -5   2  526.85   29.70
  -1  -5   2  509.55   29.40
  -1  -5   2  548.75   30.20
  -1  -5   2  443.46   28.30
  -1  -5   2  527.85   29.10
   0   5  -2  824.32   44.50
   0   5  -2  811.92   45.70
   0   5  -2  877.71   45.50
   0   5  -2  779.02   44.10
   0  -5   2  798.02   44.60
   0  -5   2  770.42   45.70
   0  -5   2  807.72   45.80
   0  -5   2  773.42   45.40
   0  -5   2  700.33   44.50
   0  -5   2  785.82   45.80
   1  -5   2  348.27   21.60
   1  -5   2  367.96   21.20
   1  -5   2  331.97   21.20
   1  -5   2  365.36   21.30
   1  -5   2  327.87   22.80
   1  -5   2  359.46   21.80
  -2   5  -2  322.07   17.60
  -2   5  -2  300.87   18.10
   2  -5   2  293.77   19.00
   2  -5   2  294.27   18.20
   2  -5   2  272.87   17.60
   2  -5   2  298.27   19.20
   2  -5   2  301.57   21.50
   2  -5   2  294.77   19.20
  -3   5  -2  468.25   31.80
  -3   5  -2  471.15   30.10
  -3   5  -2  489.75   29.20
   3  -5   2  538.15   31.50
   3  -5   2  523.55   30.90
   3  -5   2  483.85   29.00
   3  -5   2  504.35   30.80
   3  -5   2  521.35   34.40
  -4   5  -2  665.63   40.60
  -4   5  -2  616.94   42.80
  -4   5  -2  632.94   41.70
   4  -5   2  752.42   42.40
   4  -5   2  763.32   42.50
   4  -5   2  749.62   43.20
  -5   5  -2  314.57   21.80
  -5   5  -2  287.77   22.00
   5  -5   2  296.67   20.40
   5  -5   2  286.27   21.30
  -6   5  -2  361.76   25.10
  -6   5  -2  393.46   23.40
   6  -5   2  332.27   23.10
   6  -5   2  357.96   24.00
   6   4  -2  110.09    8.50
   6   4  -2  115.19    8.40
   6   4  -2  121.99   10.00
   6   4  -2  104.59   11.50
   6   4  -2  134.19   11.20
  -6  -4   2  102.69   11.30
  -6  -4   2   97.99   10.80
   5   4  -2  845.02   49.60
   5   4  -2  845.32   49.70
   5   4  -2  840.82   49.90
   5   4  -2  875.31   50.19
   5   4  -2  807.12   52.09
   5   4  -2  915.11   52.99
  -5  -4   2  834.42   51.79
  -5  -4   2  945.31   53.69
  -5  -4   2  893.31   53.69
  -5  -4   2  842.12   50.89
   4   4  -2  459.75   27.40
   4   4  -2  478.95   29.40
   4   4  -2  438.56   27.40
   4   4  -2  456.35   29.30
   4   4  -2  428.96   27.10
  -4  -4   2  459.85   29.20
  -4  -4   2  450.75   27.70
  -4  -4   2  440.36   28.40
  -4  -4   2  481.45   28.30
  -4  -4   2  476.85   30.20
   3   4  -2 1532.85   80.69
   3   4  -2 1479.95   79.09
   3   4  -2 1360.46   78.89
   3   4  -2 1531.85   80.79
   3   4  -2 1555.24   78.99
  -3  -4   2 1264.27   80.39
  -3  -4   2 1418.56   80.29
  -3  -4   2 1415.76   79.89
  -3  -4   2 1354.56   79.09
  -3  -4   2 1410.66   79.79
  -3  -4   2 1417.76   80.79
  -3  -4   2 1406.76   79.49
  -3  -4   2 1357.06   79.09
  -3  -4   2 1192.48   81.49
   2   4  -2 3540.25  193.98
   2   4  -2 3199.08  194.18
   2   4  -2 3490.35  195.08
   2   4  -2 3492.45  195.38
  -2  -4   2 3591.34  195.18
  -2  -4   2 3731.63  194.88
  -2  -4   2 3551.64  195.08
  -2  -4   2 3600.14  194.58
   1   4  -2 1796.82   92.89
   1   4  -2 1615.54   92.79
   1   4  -2 1643.24   92.99
   1   4  -2 1734.63   92.29
  -1  -4   2 1693.23   93.19
  -1  -4   2 1542.65   92.69
  -1  -4   2 1683.73   93.39
  -1  -4   2 1596.64   92.89
  -1  -4   2 1704.43   92.79
  -1  -4   2 1697.23   93.09
   0   4  -2  155.88    9.90
   0   4  -2  156.68    9.50
   0  -4   2  150.38   11.00
   0  -4   2  165.88   10.50
   0  -4   2  157.88    9.80
   0  -4   2  172.38   10.70
   0  -4   2  180.08   10.80
   0  -4   2  159.08   10.00
   0  -4   2  168.88   10.80
  -1   4  -2  576.54   30.20
  -1   4  -2  585.64   29.60
   1  -4   2  498.75   30.40
   1  -4   2  518.75   30.50
   1  -4   2  508.95   30.90
   1  -4   2  528.45   33.20
   1  -4   2  534.75   31.00
   1  -4   2  503.85   30.80
  -2   4  -2   24.40    3.20
   2  -4   2   32.60    5.70
   2  -4   2   36.20    4.00
   2  -4   2   30.40    2.90
   2  -4   2   35.00    4.80
   2  -4   2   34.40    4.00
   2  -4   2   39.70    4.30
   2  -4   2   35.70    3.20
  -3   4  -2  801.62   44.90
  -3   4  -2  736.13   44.90
  -3   4  -2  793.82   46.00
  -3   4  -2  818.62   47.40
   3  -4   2  822.22   49.70
   3  -4   2  730.93   44.50
   3  -4   2  818.22   46.70
   3  -4   2  798.42   46.10
   3  -4   2  782.82   47.60
   3  -4   2  818.22   46.20
  -4   4  -2  348.77   21.10
  -4   4  -2  319.07   21.10
  -4   4  -2  346.37   22.40
  -4   4  -2  336.87   23.60
  -4   4  -2  343.17   23.30
   4  -4   2  336.07   22.60
   4  -4   2  298.87   22.00
   4  -4   2  364.76   22.40
   4  -4   2  347.87   21.90
   4  -4   2  367.56   26.50
  -5   4  -2  203.78   16.10
  -5   4  -2  207.28   14.50
  -5   4  -2  192.98   14.70
  -5   4  -2  192.58   16.50
   5  -4   2  218.58   16.20
   5  -4   2  224.98   15.30
   5  -4   2  223.48   15.80
  -6   4  -2 1054.79   58.99
  -6   4  -2 1031.80   63.19
  -6   4  -2 1028.80   60.89
   6  -4   2  901.31   58.29
   6  -4   2 1015.40   59.69
   6  -4   2 1039.80   63.09
  -7   4  -2  156.48   13.40
  -7   4  -2  164.38   11.70
   7  -4   2  135.59   11.40
   7   3  -2   13.70    4.50
  -7  -3   2    7.80    4.60
   6   3  -2  165.78   11.50
   6   3  -2  169.68   14.50
   6   3  -2  175.28   11.80
   6   3  -2  191.88   14.20
   6   3  -2  175.98   13.10
   6   3  -2  156.88   15.00
  -6  -3   2  148.29   12.90
  -6  -3   2  159.18   13.60
   5   3  -2 2107.19  118.89
   5   3  -2 2141.19  118.59
   5   3  -2 2085.39  121.19
   5   3  -2 2121.49  118.59
   5   3  -2 2137.19  120.79
   5   3  -2 2079.69  118.69
  -5  -3   2 2118.59  121.49
  -5  -3   2 2143.99  120.69
  -5  -3   2 2251.17  119.69
  -5  -3   2 2124.69  119.49
  -5  -3   2 2110.49  120.09
   4   3  -2  528.75   32.50
   4   3  -2  533.05   30.60
   4   3  -2  549.54   32.30
   4   3  -2  544.65   30.50
  -4  -3   2  514.95   32.40
  -4  -3   2  501.05   30.60
  -4  -3   2  499.35   31.00
  -4  -3   2  508.85   31.90
  -4  -3   2  498.85   31.30
   3   3  -2  987.80   63.49
   3   3  -2  991.90   64.59
   3   3  -2 1045.40   64.99
  -3  -3   2 1139.59   64.19
  -3  -3   2 1241.48   65.49
  -3  -3   2 1184.68   64.59
  -3  -3   2 1247.38   64.89
  -3  -3   2 1206.18   64.99
  -3  -3   2 1185.68   64.39
  -3  -3   2 1121.99   64.49
  -3  -3   2 1175.18   64.09
   2   3  -2 4712.53  270.97
   2   3  -2 5052.29  271.77
  -2  -3   2 5051.39  270.97
   1   3  -2 3768.92  203.08
  -1  -3   2 3628.84  203.08
   0  -3   2 3100.69  175.88
   0  -3   2 3265.57  174.58
   1  -3   2 1080.29   62.59
   1  -3   2 1188.48   61.19
   1  -3   2 1061.59   60.59
   1  -3   2 1054.09   60.59
   1  -3   2 1093.89   60.99
   1  -3   2 1072.49   60.99
  -2   3  -2  604.54   33.30
  -2   3  -2  520.95   31.20
  -2   3  -2  483.75   31.60
   2  -3   2  590.04   34.80
   2  -3   2  583.44   33.40
   2  -3   2  565.34   32.30
   2  -3   2  615.04   32.80
   2  -3   2  512.35   31.30
  -3   3  -2 2604.44  138.19
  -3   3  -2 2613.54  140.29
  -3   3  -2 2665.43  140.09
   3  -3   2 2560.74  139.59
   3  -3   2 2459.95  139.09
   3  -3   2 2349.96  139.59
   3  -3   2 2500.15  142.29
   3  -3   2 2398.16  138.79
   3  -3   2 2366.46  137.69
  -4   3  -2 2715.73  159.28
  -4   3  -2 2857.11  158.68
  -4   3  -2 2855.81  160.88
  -4   3  -2 2912.61  160.68
  -4   3  -2 2849.22  159.88
   4  -3   2 2610.44  157.58
   4  -3   2 2811.92  159.08
   4  -3   2 2980.70  159.78
   4  -3   2 2933.11  160.08
   4  -3   2 3099.19  164.08
  -5   3  -2 1156.98   68.89
  -5   3  -2 1264.17   72.19
  -5   3  -2 1228.98   67.99
  -5   3  -2 1234.28   69.69
   5  -3   2 1105.19   67.69
   5  -3   2 1192.58   68.69
   5  -3   2 1115.29   68.99
  -6   3  -2   18.70    6.00
  -6   3  -2   19.00    5.50
  -6   3  -2   20.40    5.20
  -6   3  -2   24.70    4.60
   6  -3   2   16.40    4.10
   6  -3   2   21.40    8.20
   6  -3   2   24.90    5.00
  -7   3  -2  132.89   12.10
  -7   3  -2  125.29   10.00
   7  -3   2  113.39   10.00
   7   2  -2  302.87   20.70
  -7  -2   2  305.07   21.90
  -7  -2   2  261.37   19.80
   6   2  -2 1187.38   64.29
   6   2  -2 1006.30   61.09
   6   2  -2 1112.49   61.79
   6   2  -2 1090.99   61.19
   6   2  -2 1005.70   67.59
   6   2  -2 1126.59   64.69
  -6  -2   2 1211.08   65.99
  -6  -2   2 1050.79   63.59
  -6  -2   2  921.71   66.89
   5   2  -2 1911.21  102.29
   5   2  -2 1865.91   99.99
   5   2  -2 1687.63  104.29
   5   2  -2 1835.62  102.59
   5   2  -2 1752.52   99.99
   5   2  -2 1802.22  100.19
  -5  -2   2 1733.13  101.89
  -5  -2   2 1725.53  101.79
  -5  -2   2 1773.42  100.69
  -5  -2   2 1893.61  103.59
  -5  -2   2 1733.93  102.39
   4   2  -2  369.96   22.80
   4   2  -2  392.86   24.40
   4   2  -2  397.86   24.80
   4   2  -2  383.66   23.00
   4   2  -2  408.86   22.20
  -4  -2   2  387.06   23.10
  -4  -2   2  349.27   22.70
  -4  -2   2  421.66   24.90
  -4  -2   2  391.86   24.20
  -4  -2   2  361.36   23.30
  -4  -2   2  429.96   24.60
  -4  -2   2  402.06   23.50
  -4  -2   2  344.07   26.80
   3   2  -2 1387.46   76.19
   3   2  -2 1379.16   75.69
   3   2  -2 1335.07   74.69
   3   2  -2 1434.96   74.79
   3   2  -2 1291.17   74.79
   3   2  -2 1381.56   74.69
   3   2  -2 1457.15   74.19
  -3  -2   2 1203.88   74.99
  -3  -2   2 1267.77   74.99
  -3  -2   2 1307.27   75.19
  -3  -2   2 1366.16   75.89
  -3  -2   2 1315.57   76.29
  -3  -2   2 1374.46   75.69
  -3  -2   2 1309.87   76.19
   2   2  -2 4952.90  301.87
  -2  -2   2 6048.90  301.97
   0   2  -2 1125.99   58.39
   0  -2   2 1128.49   58.39
   0  -2   2  981.90   59.09
   0  -2   2 1036.90   58.39
   0  -2   2  994.40   58.29
  -1   2  -2 1251.57   73.79
   1  -2   2 1433.06   74.29
   1  -2   2 1489.65   74.39
   1  -2   2 1236.78   73.59
   1  -2   2 1270.07   73.99
   1  -2   2 1339.97   75.49
  -2   2  -2  365.26   18.30
  -2   2  -2  368.46   18.00
  -2   2  -2  375.26   18.90
   2  -2   2  294.87   17.90
   2  -2   2  268.97   21.50
   2  -2   2  309.57   19.10
   2  -2   2  283.57   19.10
   2  -2   2  278.37   18.90
  -3   2  -2 1498.95   76.79
  -3   2  -2 1317.67   74.49
  -3   2  -2 1304.67   74.39
  -3   2  -2 1396.16   75.19
  -3   2  -2 1519.45   77.09
   3  -2   2 1298.67   76.19
   3  -2   2 1270.47   74.49
   3  -2   2 1341.27   75.79
   3  -2   2 1217.18   75.59
   3  -2   2 1388.16   78.69
   3  -2   2 1427.16   76.29
   3  -2   2 1214.78   75.79
  -4   2  -2  577.14   32.80
  -4   2  -2  503.85   31.40
  -4   2  -2  570.94   33.90
  -4   2  -2  567.64   34.60
  -4   2  -2  569.04   33.90
  -4   2  -2  564.04   34.40
  -4   2  -2  516.55   31.60
   4  -2   2  594.84   34.00
   4  -2   2  545.95   32.60
   4  -2   2  553.74   31.50
   4  -2   2  577.14   33.70
   4  -2   2  580.64   34.30
   4  -2   2  525.25   43.40
  -5   2  -2  254.07   19.50
  -5   2  -2  263.47   18.90
  -5   2  -2  272.67   19.00
  -5   2  -2  249.88   19.10
  -5   2  -2  272.17   17.70
   5  -2   2  268.27   18.10
   5  -2   2  283.77   19.30
   5  -2   2  243.78   16.80
   5  -2   2  269.67   18.40
  -6   2  -2  159.48   13.60
  -6   2  -2  183.88   14.20
   6  -2   2  132.79   11.80
   6  -2   2  140.69   13.10
   6  -2   2  125.69   11.90
  -7   2  -2  197.98   13.20
  -7   2  -2  162.88   17.90
   7  -2   2  160.58   12.90
   7   1  -2  267.17   19.10
   7   1  -2  270.97   17.90
  -7  -1   2  269.97   20.50
  -7  -1   2  254.67   19.30
   6   1  -2 1415.26   80.69
   6   1  -2 1525.25   83.49
   6   1  -2 1444.46   81.09
   6   1  -2 1418.46   83.59
  -6  -1   2 1527.85   84.99
  -6  -1   2 1368.56   82.89
  -6  -1   2 1346.17   83.29
  -6  -1   2 1439.66   83.59
   5   1  -2  844.42   50.69
   5   1  -2  888.51   52.59
   5   1  -2  908.01   51.19
   5   1  -2  873.71   53.09
   5   1  -2  874.61   54.89
   5   1  -2  867.01   50.69
   5   1  -2  850.91   50.99
  -5  -1   2  944.61   52.89
  -5  -1   2  957.40   53.49
  -5  -1   2  861.41   51.09
  -5  -1   2  935.01   53.19
  -5  -1   2  934.21   51.29
   4   1  -2 1455.05   80.69
   4   1  -2 1465.75   79.29
   4   1  -2 1395.46   79.39
   4   1  -2 1437.06   79.49
   4   1  -2 1489.25   81.79
   4   1  -2 1362.66   79.19
  -4  -1   2 1352.06   79.49
  -4  -1   2 1437.06   80.69
  -4  -1   2 1396.76   79.59
  -4  -1   2 1456.35   80.79
   3   1  -2  255.97   15.90
   3   1  -2  243.18   16.70
   3   1  -2  256.47   16.70
   3   1  -2  261.97   16.00
   3   1  -2  238.58   15.80
   3   1  -2  259.27   17.10
   3   1  -2  245.38   16.60
  -3  -1   2  287.87   16.30
  -3  -1   2  300.97   16.40
  -3  -1   2  311.67   17.60
  -3  -1   2  299.07   17.10
  -3  -1   2  287.27   16.20
  -3  -1   2  298.47   16.30
   2   1  -2 2713.73  144.79
   2   1  -2 2551.24  144.89
   2   1  -2 2672.63  144.39
  -2  -1   2 2636.84  144.99
  -2  -1   2 2551.04  144.59
  -2  -1   2 2685.13  145.39
  -2  -1   2 2724.03  144.79
  -2  -1   2 2507.75  144.69
   0   1  -2 1813.42   99.79
  -2   1  -2 2133.19  119.09
  -2   1  -2 1997.20  118.99
  -2   1  -2 2099.49  119.19
   2  -1   2 2336.97  119.99
   2  -1   2 2098.89  120.39
   2  -1   2 2313.07  119.69
   2  -1   2 2179.28  120.09
   2  -1   2 2185.68  121.49
   2  -1   2 2183.48  119.69
   2  -1   2 2144.09  118.69
   2  -1   2 2155.48  119.99
  -3   1  -2  133.99    8.90
  -3   1  -2  147.09    9.50
  -3   1  -2  142.19    9.10
  -3   1  -2  157.48   10.80
  -3   1  -2  155.48   10.70
   3  -1   2  140.09   10.30
   3  -1   2  141.89    9.80
   3  -1   2  133.79    8.50
   3  -1   2  149.49   10.20
   3  -1   2  138.79   11.80
   3  -1   2  139.39    9.90
  -4   1  -2 4207.18  249.38
  -4   1  -2 4437.86  251.97
  -4   1  -2 4893.51  254.77
  -4   1  -2 4585.14  250.67
  -4   1  -2 4466.45  251.67
  -4   1  -2 4228.48  249.58
   4  -1   2 4814.62  251.67
   4  -1   2 4819.92  252.57
   4  -1   2 4678.23  254.27
   4  -1   2 4273.07  248.88
  -5   1  -2 1929.81  114.59
  -5   1  -2 1996.80  114.89
  -5   1  -2 2182.98  116.19
  -5   1  -2 2015.50  117.39
  -5   1  -2 2204.68  117.59
  -5   1  -2 1938.81  117.79
  -5   1  -2 2259.47  118.19
   5  -1   2 2080.29  116.29
   5  -1   2 2186.48  117.89
   5  -1   2 2081.99  116.39
   5  -1   2 1835.52  114.69
  -6   1  -2  193.68   16.50
  -6   1  -2  218.38   17.40
  -6   1  -2  219.18   16.90
  -6   1  -2  208.58   15.20
   6  -1   2  205.38   15.50
   6  -1   2  207.28   15.40
   6  -1   2  223.58   16.90
  -7   1  -2   41.10    6.70
  -7   1  -2   44.00    7.60
  -7   1  -2   46.40    5.50
   7  -1   2   41.60    5.60
   7   0  -2   11.20    3.40
   7   0  -2   18.80    5.30
  -7   0   2   26.80    6.80
  -7   0   2   17.00    5.10
   6   0  -2 1802.72  115.59
   6   0  -2 2092.09  111.39
   6   0  -2 2147.19  113.79
   6   0  -2 2158.38  112.09
   6   0  -2 2166.58  113.49
  -6   0   2 1901.91  112.99
  -6   0   2 1984.10  113.89
  -6   0   2 1826.82  111.09
  -6   0   2 1794.42  113.39
   5   0  -2 1031.30   66.39
   5   0  -2 1089.89   63.19
   5   0  -2 1068.69   62.59
   5   0  -2  970.00   61.89
   5   0  -2 1128.89   64.49
   5   0  -2 1101.09   64.19
  -5   0   2 1211.48   64.99
  -5   0   2 1125.29   63.79
  -5   0   2 1121.89   64.09
  -5   0   2 1220.38   65.39
   4   0  -2  243.88   14.80
   4   0  -2  258.47   18.10
   4   0  -2  231.18   15.30
   4   0  -2  246.58   16.30
   4   0  -2  218.28   14.60
   4   0  -2  243.88   16.00
   4   0  -2  225.78   14.80
  -4   0   2  244.38   15.90
  -4   0   2  244.48   14.80
  -4   0   2  252.67   16.20
  -4   0   2  249.97   15.00
  -4   0   2  237.48   15.10
  -4   0   2  254.77   16.40
  -4   0   2  261.27   16.80
   3   0  -2 1039.00   64.09
   3   0  -2 1069.19   64.09
   3   0  -2 1178.08   65.29
   3   0  -2 1137.39   64.19
   3   0  -2 1092.09   64.59
   3   0  -2 1171.38   65.29
  -3   0   2 1191.78   64.49
  -3   0   2 1229.18   65.09
  -3   0   2 1218.08   65.29
  -3   0   2 1181.68   64.89
  -3   0   2 1142.99   64.09
  -3   0   2 1221.68   64.29
   2   0  -2 3096.09  183.58
  -2   0   2 3156.58  183.38
  -2   0   2 3513.55  184.18
  -2   0   2 3610.04  184.08
   1   0  -2   72.99    4.10
  -1   0   2   55.89    4.50
  -2   0  -2  455.55   29.70
  -2   0  -2  432.76   28.90
  -2   0  -2  425.96   28.70
  -2   0  -2  487.85   29.90
   2   0   2  542.75   29.90
   2   0   2  556.24   30.90
   2   0   2  566.24   30.00
   2   0   2  577.04   29.40
   2   0   2  558.24   28.40
  -3   0  -2 4165.88  228.68
  -3   0  -2 4062.09  227.58
  -3   0  -2 4054.09  227.78
  -3   0  -2 3937.71  227.38
   3   0   2 4220.88  228.48
   3   0   2 4472.15  228.18
   3   0   2 4084.19  229.98
   3   0   2 4207.98  228.08
   3   0   2 4088.59  228.68
   3   0   2 4029.70  226.78
   3   0   2 4192.08  227.98
  -4   0  -2  299.77   17.70
  -4   0  -2  317.27   18.20
  -4   0  -2  295.47   17.40
  -4   0  -2  270.37   16.80
  -4   0  -2  288.77   20.60
  -4   0  -2  325.47   19.70
  -4   0  -2  306.27   19.40
   4   0   2  252.27   20.00
   4   0   2  253.37   16.30
   4   0   2  271.87   19.00
   4   0   2  269.17   17.90
   4   0   2  258.27   18.70
   4   0   2  267.07   17.90
   4   0   2  261.37   18.00
  -5   0  -2  615.24   42.70
  -5   0  -2  645.84   38.70
  -5   0  -2  656.43   39.80
  -5   0  -2  589.44   38.40
  -5   0  -2  613.94   39.20
  -5   0  -2  594.64   36.70
  -5   0  -2  615.04   37.50
   5   0   2  671.53   39.40
   5   0   2  654.03   38.00
   5   0   2  598.54   38.80
   5   0   2  641.84   37.50
  -6   0  -2  255.57   18.00
  -6   0  -2  303.17   22.00
  -6   0  -2  255.07   20.60
  -6   0  -2  282.17   19.10
  -6   0  -2  283.37   20.70
   6   0   2  312.67   19.70
   6   0   2  311.07   21.20
  -7   0  -2   64.69    8.10
  -7   0  -2   73.39    9.40
  -7   0  -2   52.79   10.50
   7   0   2   80.69    7.30
   7   0   2   79.19    8.40
   7  -1  -2  196.08   13.80
   7  -1  -2  207.28   15.00
  -7   1   2  225.08   17.10
  -7   1   2  210.18   16.60
  -7   1   2  201.88   14.20
   6  -1  -2  289.57   24.40
   6  -1  -2  339.77   20.80
   6  -1  -2  338.47   20.50
   6  -1  -2  353.86   22.50
   6  -1  -2  346.77   21.90
   6  -1  -2  350.66   22.80
  -6   1   2  313.17   20.80
  -6   1   2  337.37   23.20
  -6   1   2  337.47   23.40
  -6   1   2  296.97   22.70
  -6   1   2  306.07   22.20
   5  -1  -2  569.54   32.60
   5  -1  -2  540.25   31.00
   5  -1  -2  581.94   32.50
   5  -1  -2  535.15   35.70
   5  -1  -2  546.15   31.90
  -5   1   2  486.85   32.00
  -5   1   2  489.75   32.30
  -5   1   2  454.75   32.30
  -5   1   2  499.65   31.00
  -5   1   2  522.15   32.80
   4  -1  -2 4406.06  246.38
   4  -1  -2 4348.17  245.38
   4  -1  -2 3929.31  244.78
   4  -1  -2 4306.27  246.08
   4  -1  -2 4629.34  246.48
  -4   1   2 4541.75  246.68
  -4   1   2 4750.12  246.88
  -4   1   2 4519.05  245.58
  -4   1   2 4722.13  246.98
  -4   1   2 4449.06  246.48
   3  -1  -2 3675.23  208.28
   3  -1  -2 3470.35  207.38
   3  -1  -2 3737.53  207.68
   3  -1  -2 3988.50  208.48
  -3   1   2 3672.03  207.78
  -3   1   2 3965.50  209.28
  -3   1   2 3950.50  208.78
   2  -1  -2 2284.27  113.79
   2  -1  -2 1963.10  111.09
   2  -1  -2 1909.21  110.99
   2  -1  -2 2114.59  111.59
  -2   1   2 1866.31  111.09
  -2   1   2 1946.81  111.49
  -2   1   2 2045.20  111.79
   1   1   2 7078.99  388.46
  -2  -1  -2 5169.78  296.67
   2   1   2 5670.63  298.77
  -3  -1  -2  294.47   17.90
  -3  -1  -2  275.47   17.50
  -3  -1  -2  269.37   16.40
  -3  -1  -2  298.97   18.20
  -3  -1  -2  282.17   16.60
  -3  -1  -2  273.67   16.30
   3   1   2  264.37   17.60
   3   1   2  273.57   16.20
   3   1   2  252.97   17.60
   3   1   2  239.98   15.30
   3   1   2  246.98   17.10
   3   1   2  235.78   15.60
   3   1   2  246.98   16.50
  -4  -1  -2   21.40    3.80
  -4  -1  -2   20.40    3.90
  -4  -1  -2   22.20    4.10
  -4  -1  -2   23.10    4.70
  -4  -1  -2   16.60    3.10
  -4  -1  -2   22.80    4.90
  -4  -1  -2   16.40    4.40
  -4  -1  -2   20.50    3.90
  -5  -1  -2 1837.72  101.19
  -5  -1  -2 1959.60  104.09
  -5  -1  -2 1519.85  102.29
  -5  -1  -2 1871.91  102.19
  -5  -1  -2 1881.71  100.89
  -5  -1  -2 1815.42  101.19
  -5  -1  -2 1661.53  103.19
  -5  -1  -2 1740.13  102.69
   5   1   2 1634.74  102.39
   5   1   2 1896.71  103.19
   5   1   2 1869.41  101.59
  -6  -1  -2  124.79   10.60
  -6  -1  -2  127.49   11.80
  -6  -1  -2  124.39   10.40
   6   1   2  165.38   11.90
   6   1   2  158.58   13.20
   7  -2  -2   22.20    4.70
   7  -2  -2   20.00    4.00
  -7   2   2   30.90    4.70
   6  -2  -2  162.88   15.70
   6  -2  -2  192.68   13.50
   6  -2  -2  182.78   11.70
  -6   2   2  135.29   13.50
  -6   2   2  134.39   12.80
   5  -2  -2  128.29   10.90
   5  -2  -2  133.59   13.60
   5  -2  -2  134.59   10.30
   5  -2  -2  130.79   10.80
   5  -2  -2  132.39    9.50
  -5   2   2  135.99   11.70
  -5   2   2  125.09    9.70
  -5   2   2  127.89   11.00
   4  -2  -2  449.95   27.70
   4  -2  -2  478.25   28.90
   4  -2  -2  484.75   27.70
   4  -2  -2  500.15   32.30
   4  -2  -2  482.15   28.10
  -4   2   2  445.96   28.70
  -4   2   2  462.25   29.00
  -4   2   2  487.05   29.10
  -4   2   2  464.05   27.70
  -4   2   2  445.96   28.30
   3  -2  -2 1651.83   98.19
   3  -2  -2 1883.81   97.39
   3  -2  -2 1711.33   96.89
   3  -2  -2 1921.61  100.59
   3  -2  -2 1782.02   96.39
   3  -2  -2 1510.15   95.69
  -3   2   2 1656.63   96.49
  -3   2   2 1745.53   97.09
  -3   2   2 1777.52   97.39
  -3   2   2 1699.43   96.19
   2  -2  -2 1963.80  107.19
   2  -2  -2 1819.32  107.39
   2  -2  -2 1718.13  106.99
   2  -2  -2 2116.29  110.69
   2  -2  -2 1943.31  107.29
   2  -2  -2 1781.92  106.59
  -2   2   2 2086.79  107.99
  -2   2   2 2035.50  107.69
  -2   2   2 2029.40  107.69
   1  -2  -2 5521.05  307.37
  -1   2   2 5702.83  307.77
   0  -2  -2 4769.52  261.57
  -1  -2  -2  285.37   16.10
  -1  -2  -2  280.97   15.80
  -1  -2  -2  263.57   14.60
  -1  -2  -2  257.27   14.90
  -1  -2  -2  243.88   14.70
  -1  -2  -2  251.87   15.10
  -1  -2  -2  277.87   15.20
   1   2   2  245.98   15.20
   1   2   2  211.58   15.10
   1   2   2  237.98   15.20
   1   2   2  237.88   15.70
   1   2   2  233.28   14.80
   1   2   2  230.78   17.60
  -2  -2  -2  300.77   16.40
  -2  -2  -2  286.47   16.80
  -2  -2  -2  305.57   17.10
  -2  -2  -2  317.17   18.40
  -2  -2  -2  293.77   16.80
  -2  -2  -2  276.77   16.20
  -2  -2  -2  313.07   18.00
   2   2   2  233.88   16.30
   2   2   2  249.78   16.90
   2   2   2  245.78   17.20
   2   2   2  241.58   17.30
   2   2   2  258.77   17.70
  -3  -2  -2  112.49    9.50
  -3  -2  -2  109.09    9.60
  -3  -2  -2  102.29    7.00
  -3  -2  -2  107.79    8.20
  -3  -2  -2  117.99    8.80
  -3  -2  -2  112.19    8.40
  -3  -2  -2  117.39    9.60
  -4  -2  -2  464.35   30.70
  -4  -2  -2  484.25   30.90
  -4  -2  -2  501.45   33.10
  -4  -2  -2  537.85   31.30
  -4  -2  -2  538.45   33.20
  -4  -2  -2  499.45   31.30
  -4  -2  -2  499.65   32.60
  -4  -2  -2  526.65   31.50
   4   2   2  534.65   32.60
   4   2   2  557.84   32.70
   4   2   2  479.55   29.90
   4   2   2  585.44   33.40
  -5  -2  -2  125.09   11.50
  -5  -2  -2  124.79   10.50
  -5  -2  -2  117.79    9.70
  -5  -2  -2  116.39   10.30
  -5  -2  -2  127.69   12.30
  -5  -2  -2  115.59    9.30
  -5  -2  -2  127.69   10.20
   5   2   2  106.29   11.00
   5   2   2  122.79   10.30
   5   2   2  141.49   13.20
   5   2   2  123.89   10.30
  -6  -2  -2  120.79    9.90
  -6  -2  -2  116.09   10.50
  -6  -2  -2  138.49   12.90
   6   2   2  123.19   11.80
   6   2   2  118.29   10.30
   7  -3  -2  159.78   13.30
  -7   3   2  178.68   12.70
  -7   3   2  184.78   15.40
   6  -3  -2   73.29    6.50
   6  -3  -2   70.69    6.60
   6  -3  -2   66.79    8.30
   6  -3  -2   60.99    9.70
   6  -3  -2   77.39    9.90
  -6   3   2   70.49    9.10
  -6   3   2   63.29    8.20
  -6   3   2   65.79    7.30
   5  -3  -2 1079.79   65.29
   5  -3  -2 1209.08   65.69
   5  -3  -2 1108.69   65.39
   5  -3  -2 1001.90   62.49
   5  -3  -2 1160.08   64.19
   5  -3  -2 1119.29   63.99
  -5   3   2 1176.78   65.99
  -5   3   2 1095.79   66.09
  -5   3   2 1068.89   64.09
  -5   3   2 1087.79   65.49
  -5   3   2 1160.48   63.99
   4  -3  -2  478.75   30.30
   4  -3  -2  518.95   35.70
   4  -3  -2  505.75   31.50
   4  -3  -2  473.55   29.30
   4  -3  -2  500.15   30.10
   4  -3  -2  497.65   31.40
  -4   3   2  556.64   32.30
  -4   3   2  521.05   30.30
  -4   3   2  501.25   35.30
  -4   3   2  548.65   30.40
   3  -3  -2 3482.75  181.78
   3  -3  -2 3128.69  176.08
   3  -3  -2 3306.07  175.98
   3  -3  -2 3348.57  177.18
   3  -3  -2 3254.77  176.88
   3  -3  -2 3056.39  174.78
  -3   3   2 3122.19  175.78
  -3   3   2 3129.09  176.68
  -3   3   2 2845.12  175.38
   2  -3  -2 1339.77   71.99
   2  -3  -2 1257.77   70.09
   2  -3  -2 1279.67   71.29
   2  -3  -2 1295.97   71.69
   2  -3  -2 1330.67   71.19
  -2   3   2 1242.88   70.79
  -2   3   2 1158.58   71.19
   1  -3  -2 1607.64   86.19
   1  -3  -2 1412.86   86.09
   1  -3  -2 1586.74   85.29
   1  -3  -2 1682.93   86.29
   1  -3  -2 1625.24   85.49
  -1   3   2 1388.96   85.59
  -1   3   2 1515.25   85.59
   0  -3  -2 9248.87  509.75
   0  -3  -2 9371.16  509.65
  -1  -3  -2 1553.44   83.19
  -1  -3  -2 1544.45   83.59
  -1  -3  -2 1657.73   84.69
  -1  -3  -2 1429.76   83.09
  -1  -3  -2 1647.94   83.69
  -1  -3  -2 1491.15   83.29
  -1  -3  -2 1579.84   83.39
   1   3   2 1474.65   83.69
   1   3   2 1416.66   84.39
   1   3   2 1364.46   83.49
   1   3   2 1413.06   83.19
   1   3   2 1381.16   84.09
  -2  -3  -2 2440.66  139.99
  -2  -3  -2 2591.84  140.39
  -2  -3  -2 2343.27  139.49
  -2  -3  -2 2479.25  144.59
  -2  -3  -2 2523.55  142.19
  -2  -3  -2 2497.45  140.69
   2   3   2 2510.15  140.69
   2   3   2 2567.04  141.39
   2   3   2 2738.63  140.59
   2   3   2 2538.25  141.09
   2   3   2 2540.65  139.69
  -3  -3  -2  104.29    9.10
  -3  -3  -2  100.09    9.80
  -3  -3  -2  109.49    9.20
  -3  -3  -2  109.09    9.80
  -3  -3  -2  117.69   10.00
  -3  -3  -2   94.29    7.90
  -3  -3  -2  102.29    7.40
  -3  -3  -2   89.59    7.90
  -3  -3  -2  111.19    9.00
   3   3   2  118.49    8.20
   3   3   2  117.69    9.60
   3   3   2  117.49   10.30
   3   3   2  123.19    9.40
   3   3   2  117.09    9.80
  -4  -3  -2  215.88   15.90
  -4  -3  -2  204.68   15.20
  -4  -3  -2  230.38   21.00
  -4  -3  -2  228.78   16.30
  -4  -3  -2  217.38   15.80
  -4  -3  -2  230.58   17.60
  -4  -3  -2  199.28   17.30
   4   3   2  251.17   17.10
   4   3   2  251.67   16.30
   4   3   2  262.17   18.20
   4   3   2  228.48   14.70
   4   3   2  237.48   20.00
  -5  -3  -2  394.16   26.10
  -5  -3  -2  404.06   26.40
  -5  -3  -2  410.06   28.60
  -5  -3  -2  415.36   27.20
  -5  -3  -2  440.66   31.00
   5   3   2  415.66   28.10
   5   3   2  416.76   26.50
   5   3   2  423.16   26.70
  -6  -3  -2  632.44   40.80
  -6  -3  -2  635.14   38.30
   6   3   2  688.83   41.00
   6   3   2  603.54   38.40
   7  -4  -2  135.49   11.90
  -7   4   2  163.38   11.60
  -7   4   2  150.08   15.10
   6  -4  -2  404.36   33.90
   6  -4  -2  463.75   29.30
   6  -4  -2  456.85   29.20
   6  -4  -2  484.15   31.30
   6  -4  -2  485.85   33.10
  -6   4   2  498.85   29.70
  -6   4   2  539.95   35.00
  -6   4   2  492.35   31.80
   5  -4  -2  572.74   34.20
   5  -4  -2  514.55   38.40
   5  -4  -2  480.45   30.90
   5  -4  -2  535.55   34.00
   5  -4  -2  538.05   32.10
   5  -4  -2  538.45   32.30
  -5   4   2  517.65   34.10
  -5   4   2  493.35   34.40
  -5   4   2  549.85   34.00
  -5   4   2  548.45   32.20
   4  -4  -2  614.34   37.00
   4  -4  -2  620.24   37.20
   4  -4  -2  615.24   35.50
   4  -4  -2  622.24   42.20
   4  -4  -2  592.84   35.60
   4  -4  -2  578.64   36.10
  -4   4   2  562.04   36.30
  -4   4   2  583.14   37.50
  -4   4   2  580.24   35.20
   3  -4  -2  602.14   39.60
   3  -4  -2  580.54   34.70
   3  -4  -2  561.84   33.50
   3  -4  -2  562.74   35.70
   3  -4  -2  556.24   33.60
   3  -4  -2  569.14   33.30
  -3   4   2  537.75   33.80
  -3   4   2  563.04   34.10
   2  -4  -2 6536.45  377.96
   2  -4  -2 7033.60  375.66
  -2   4   2 7027.00  377.16
   1  -4  -2 1813.52   94.19
   1  -4  -2 1753.22   94.09
   1  -4  -2 1814.72   94.19
   1  -4  -2 1678.13   92.89
   1  -4  -2 1772.92   94.09
   1  -4  -2 1750.12   93.09
  -1   4   2 1427.46   92.89
  -1   4   2 1561.44   93.19
  -1   4   2 1590.94   94.39
  -1   4   2 1625.64   93.69
   0  -4  -2 1214.18   67.29
   0  -4  -2 1094.99   61.89
   0  -4  -2 1111.99   62.49
   0  -4  -2 1165.18   65.19
   0  -4  -2 1031.80   61.79
   0  -4  -2 1086.99   62.39
   0   4   2 1077.89   61.99
   0   4   2 1090.79   62.49
   0   4   2 1059.09   63.09
  -1  -4  -2  458.55   27.00
  -1  -4  -2  480.35   27.40
  -1  -4  -2  397.96   25.40
  -1  -4  -2  466.95   26.80
  -1  -4  -2  479.55   27.10
  -1  -4  -2  400.46   29.60
   1   4   2  470.85   27.50
   1   4   2  451.65   28.10
   1   4   2  466.45   26.80
   1   4   2  463.15   28.50
  -2  -4  -2 2467.55  138.79
  -2  -4  -2 2282.87  138.19
  -2  -4  -2 2533.05  139.29
  -2  -4  -2 2486.45  139.69
  -2  -4  -2 2296.07  139.19
  -2  -4  -2 2400.66  138.09
   2   4   2 2612.24  140.59
   2   4   2 2581.84  140.19
   2   4   2 2674.73  139.39
   2   4   2 2574.94  138.39
  -3  -4  -2 1931.21  113.99
  -3  -4  -2 2076.19  113.69
  -3  -4  -2 2160.18  112.69
  -3  -4  -2 1946.41  111.19
  -3  -4  -2 2107.19  113.29
  -3  -4  -2 2100.09  113.09
   3   4   2 1873.21  111.39
   3   4   2 1929.81  112.49
   3   4   2 1933.41  113.39
   3   4   2 1916.71  113.99
  -4  -4  -2  279.67   23.00
  -4  -4  -2  268.57   21.00
  -4  -4  -2  287.87   20.40
  -4  -4  -2  248.48   20.80
  -4  -4  -2  297.27   22.00
   4   4   2  318.27   21.20
   4   4   2  348.07   25.20
   4   4   2  309.57   20.10
   4   4   2  295.07   18.60
  -5  -4  -2  922.31   52.69
  -5  -4  -2  839.82   54.09
  -5  -4  -2  875.91   52.89
  -5  -4  -2  911.01   52.59
   5   4   2  869.31   52.29
   5   4   2  897.21   52.29
   5   4   2  901.31   54.09
   6  -5  -2   26.80    6.50
   6  -5  -2   38.40    5.00
   6  -5  -2   36.10    6.20
   6  -5  -2   26.80    6.50
  -6   5   2   39.90    6.80
  -6   5   2   40.40    5.60
   5  -5  -2  236.38   22.90
   5  -5  -2  234.38   16.40
   5  -5  -2  286.87   20.90
   5  -5  -2  255.57   17.40
   5  -5  -2  244.98   19.30
  -5   5   2  271.97   21.30
  -5   5   2  247.38   19.20
  -5   5   2  263.27   19.00
   4  -5  -2 1818.02   99.59
   4  -5  -2 1848.62  100.09
   4  -5  -2 1778.52   98.09
   4  -5  -2 1737.13   97.59
   4  -5  -2 1842.22  106.69
  -4   5   2 1704.13  102.69
  -4   5   2 1468.45   97.79
  -4   5   2 1626.64   97.29
   3  -5  -2 2931.31  162.28
   3  -5  -2 3000.00  163.28
   3  -5  -2 2913.81  163.38
   3  -5  -2 2990.40  162.38
  -3   5   2 3001.80  161.58
  -3   5   2 2618.34  161.48
   2  -5  -2 1201.68   68.09
   2  -5  -2 1238.68   68.59
   2  -5  -2 1135.89   66.99
   2  -5  -2 1193.48   68.39
   2  -5  -2 1287.37   74.89
   2  -5  -2 1249.88   68.09
  -2   5   2 1168.38   67.09
  -2   5   2 1174.38   68.69
  -2   5   2 1193.28   67.79
  -2   5   2 1032.50   66.59
   1  -5  -2  991.10   58.59
   1  -5  -2 1083.89   60.09
   1  -5  -2 1004.00   59.59
   1  -5  -2 1006.10   58.49
   1  -5  -2 1118.39   66.19
   1  -5  -2 1063.19   60.09
  -1   5   2 1021.60   59.19
  -1   5   2 1043.10   60.69
  -1   5   2 1059.79   59.89
   0  -5  -2  438.66   27.90
   0  -5  -2  499.95   28.80
   0  -5  -2  530.55   30.20
   0  -5  -2  505.65   29.40
   0  -5  -2  483.15   29.00
   0  -5  -2  502.85   28.60
   0   5   2  454.45   29.10
   0   5   2  454.85   28.50
   0   5   2  465.25   30.00
  -1  -5  -2  607.54   34.70
  -1  -5  -2  593.14   34.50
  -1  -5  -2  632.74   35.80
  -1  -5  -2  609.94   34.40
   1   5   2  533.05   34.60
   1   5   2  523.55   35.30
   1   5   2  562.14   34.00
   1   5   2  551.84   35.90
  -2  -5  -2 1123.49   64.99
  -2  -5  -2 1041.20   62.99
  -2  -5  -2 1129.09   63.99
  -2  -5  -2 1072.59   63.29
  -2  -5  -2 1107.09   64.29
   2   5   2 1143.59   65.89
   2   5   2 1136.09   64.39
   2   5   2 1084.69   65.09
   2   5   2 1139.29   63.29
  -3  -5  -2  877.51   49.90
  -3  -5  -2  847.42   50.59
  -3  -5  -2  847.92   50.19
   3   5   2  828.52   50.59
   3   5   2  816.12   49.70
   3   5   2  799.82   48.40
   3   5   2  854.81   51.69
  -4  -5  -2   65.59    7.90
  -4  -5  -2   68.29    8.10
  -4  -5  -2   58.39    8.00
  -4  -5  -2   68.19    7.70
   4   5   2   70.99    9.10
   4   5   2   62.89    6.10
   4   5   2   72.29    8.10
   4   5   2   67.09    7.40
  -5  -5  -2  476.15   29.30
  -5  -5  -2  401.66   29.20
  -5  -5  -2  479.75   29.10
   5   5   2  482.05   30.40
   5   5   2  483.35   28.90
   6  -6  -2   78.59    7.20
  -6   6   2   84.99   10.70
  -6   6   2   81.79    8.40
   5  -6  -2  609.34   37.50
   5  -6  -2  581.84   35.40
   5  -6  -2  513.75   41.50
   5  -6  -2  540.05   34.30
   5  -6  -2  579.24   39.10
  -5   6   2  650.53   35.50
  -5   6   2  554.44   35.60
  -5   6   2  612.24   43.20
   4  -6  -2   57.69   11.00
   4  -6  -2   72.99    7.50
   4  -6  -2   69.99    7.30
   4  -6  -2   74.69    8.70
   4  -6  -2   79.49   12.50
  -4   6   2   68.29    6.80
   3  -6  -2  294.47   20.30
   3  -6  -2  277.37   19.90
   3  -6  -2  272.27   20.70
   3  -6  -2  254.67   25.80
  -3   6   2  342.47   22.00
  -3   6   2  317.47   20.30
  -3   6   2  333.97   19.70
   2  -6  -2 1280.77   75.49
   2  -6  -2 1316.27   82.99
   2  -6  -2 1364.76   75.69
   2  -6  -2 1231.58   75.29
   2  -6  -2 1227.08   74.09
   2  -6  -2 1363.96   75.39
  -2   6   2 1357.56   76.49
  -2   6   2 1324.77   75.09
  -2   6   2 1300.47   74.29
   1  -6  -2   20.10    4.70
   1  -6  -2   25.70    4.80
   1  -6  -2   21.70    4.30
   1  -6  -2   20.10    3.20
   0  -6  -2 1001.50   56.99
   0  -6  -2  929.41   54.89
   0  -6  -2  915.51   55.19
   0  -6  -2  953.70   55.59
   0  -6  -2  973.90   56.19
   0   6   2  961.70   55.19
   0   6   2  977.30   57.69
   0   6   2  956.40   57.09
  -1  -6  -2   88.29    9.50
  -1  -6  -2   85.29    7.60
  -1  -6  -2   91.59    8.30
  -1  -6  -2   82.99    8.30
  -1  -6  -2   79.19    8.00
   1   6   2   96.19    8.10
   1   6   2   95.79   10.20
   1   6   2   94.09    8.90
   1   6   2   93.89    9.60
  -2  -6  -2  540.55   36.40
  -2  -6  -2  521.35   35.00
  -2  -6  -2  649.24   39.30
  -2  -6  -2  605.54   38.10
   2   6   2  576.14   36.50
   2   6   2  645.44   41.40
   2   6   2  624.94   39.70
  -3  -6  -2 1928.21  111.29
  -3  -6  -2 2009.50  109.69
  -3  -6  -2 2071.29  112.09
  -3  -6  -2 2064.19  110.99
   3   6   2 1909.01  110.79
   3   6   2 1771.42  109.69
   3   6   2 1902.11  111.49
   3   6   2 1965.20  112.59
  -4  -6  -2  109.99   10.30
  -4  -6  -2   91.99    9.90
   4   6   2  114.69    9.50
   4   6   2  115.09    9.90
   4   6   2  108.99    8.60
   5  -7  -2   17.20    4.10
   5  -7  -2   12.50    4.70
   5  -7  -2    8.30    5.30
  -5   7   2   18.90    5.30
  -5   7   2   22.00    4.30
  -5   7   2   19.10    4.30
   4  -7  -2  393.66   25.60
   4  -7  -2  387.26   26.80
   4  -7  -2  380.16   25.40
  -4   7   2  409.96   25.20
  -4   7   2  422.06   27.70
  -4   7   2  379.26   25.60
   3  -7  -2  389.86   24.70
   3  -7  -2  363.26   24.90
   3  -7  -2  326.47   24.50
  -3   7   2  374.46   23.40
  -3   7   2  355.86   24.00
  -3   7   2  372.16   25.70
   2  -7  -2  356.06   23.50
   2  -7  -2  412.96   26.40
   2  -7  -2  420.86   26.10
   2  -7  -2  335.47   24.20
  -2   7   2  387.96   24.00
  -2   7   2  359.06   24.50
   1  -7  -2   38.00    5.70
   1  -7  -2   30.70    5.50
   1  -7  -2   32.20    7.10
  -1   7   2   31.70    5.50
   0  -7  -2  729.03   53.09
   0  -7  -2  885.91   51.29
   0  -7  -2  878.21   52.29
   0  -7  -2  731.33   49.10
   0   7   2  917.01   50.39
   0   7   2  916.81   53.29
   0   7   2  904.31   52.49
   0   7   2  899.91   51.39
  -1  -7  -2  313.87   20.50
  -1  -7  -2  320.27   22.10
  -1  -7  -2  273.67   19.90
  -1  -7  -2  274.07   19.50
  -1  -7  -2  293.07   19.50
   1   7   2  340.87   22.50
   1   7   2  295.37   19.70
   1   7   2  310.47   21.90
   1   7   2  295.87   22.30
  -2  -7  -2  305.57   20.80
  -2  -7  -2  266.27   18.60
  -2  -7  -2  265.47   18.90
   2   7   2  266.57   19.00
   2   7   2  280.77   20.80
   2   7   2  259.07   19.60
   2   7   2  277.07   18.10
  -3  -7  -2  153.18   12.60
  -3  -7  -2  170.98   14.10
   3   7   2  176.38   14.50
   3   7   2  178.88   13.50
   3   7   2  176.78   12.00
   3   7   2  177.78   13.10
   4  -8  -2    4.30    3.40
  -4   8   2    3.00    3.00
  -4   8   2    5.50    2.40
  -4   8   2    3.20    2.60
   3  -8  -2   78.39    8.10
   3  -8  -2   67.79    8.10
  -3   8   2   74.39    7.20
  -3   8   2   74.29    9.00
  -3   8   2   71.19    7.60
   2  -8  -2  437.36   27.80
   2  -8  -2  380.96   26.80
  -2   8   2  400.96   27.00
  -2   8   2  440.56   26.50
  -2   8   2  442.46   28.70
   1  -8  -2   65.59    6.60
  -1   8   2   49.30    6.00
  -1   8   2   48.70    7.80
  -1   8   2   46.80    6.60
  -1   8   2   56.59    8.20
   0  -8  -2  220.28   15.80
   0  -8  -2  216.98   17.30
   0  -8  -2  232.48   16.90
   0   8   2  245.88   18.60
   0   8   2  243.68   16.10
   0   8   2  242.28   16.90
   0   8   2  222.78   17.60
  -1  -8  -2  439.96   29.50
  -1  -8  -2  337.87   28.80
  -1  -8  -2  421.46   25.10
   1   8   2  434.96   28.10
   1   8   2  344.87   27.00
   1   8   2  430.36   27.30
   2   9  -3  421.96   24.10
   2   9  -3  398.76   26.30
  -2  -9   3  384.46   26.40
  -2  -9   3  350.96   24.80
  -2  -9   3  378.86   25.00
   1   9  -3  283.57   21.50
   1   9  -3  295.77   18.80
   1   9  -3  288.57   21.40
  -1  -9   3  296.07   21.30
  -1  -9   3  297.37   20.30
  -1  -9   3  287.47   20.00
   0   9  -3   26.00    4.20
   0   9  -3   30.70    5.10
   0   9  -3   26.70    6.20
  -1   9  -3  899.51   50.49
  -1   9  -3  836.92   51.59
  -1   9  -3  856.01   52.19
  -1   9  -3  863.31   52.19
   1  -9   3  946.31   52.49
   1  -9   3  872.01   52.39
   1  -9   3  850.61   51.49
  -2   9  -3  169.18   12.70
  -2   9  -3  168.58   13.30
  -2   9  -3  179.48   11.70
   2  -9   3  154.08   13.20
   2  -9   3  152.98   12.90
  -3   9  -3   79.59    6.70
  -3   9  -3   76.19    7.70
  -3   9  -3   78.29    8.40
   3  -9   3   57.89    8.70
   3  -9   3   99.19   10.20
   3   8  -3  105.29   10.50
   3   8  -3  106.89    8.60
  -3  -8   3   97.69    9.60
  -3  -8   3  102.09   10.60
  -3  -8   3   95.89    9.20
   2   8  -3 1464.25   78.99
   2   8  -3 1291.37   79.09
   2   8  -3 1372.16   81.49
  -2  -8   3 1421.76   80.19
  -2  -8   3 1391.46   80.29
  -2  -8   3 1387.06   81.49
   1   8  -3 1983.30  108.99
   1   8  -3 1849.02  106.39
   1   8  -3 1954.40  105.79
  -1  -8   3 1840.92  106.99
  -1  -8   3 1776.92  107.09
  -1  -8   3 1883.81  108.19
   0   8  -3  839.22   53.69
   0   8  -3  825.92   53.99
   0   8  -3  913.11   54.49
   0  -8   3  992.20   55.09
   0  -8   3  906.01   60.59
   0  -8   3 1049.49   55.09
  -1   8  -3  426.66   28.40
  -1   8  -3  416.96   28.40
  -1   8  -3  418.16   27.30
   1  -8   3  463.65   27.80
   1  -8   3  466.35   28.60
   1  -8   3  407.36   27.70
  -2   8  -3  158.78   13.40
  -2   8  -3  158.38   12.60
  -2   8  -3  165.88   11.30
   2  -8   3  164.38   13.30
   2  -8   3  168.78   13.70
  -3   8  -3  693.63   47.20
  -3   8  -3  740.33   45.80
   3  -8   3  848.02   46.90
   3  -8   3  831.92   48.40
   3  -8   3  869.01   48.90
  -4   8  -3  677.23   39.30
   4  -8   3  674.93   41.40
   4  -8   3  658.23   41.20
   4   7  -3  293.47   19.60
   4   7  -3  310.07   21.70
   4   7  -3  318.27   19.70
  -4  -7   3  302.07   21.50
  -4  -7   3  293.17   20.20
   3   7  -3  135.59   11.20
   3   7  -3  157.28   11.60
   3   7  -3  144.29   13.30
  -3  -7   3  159.68   12.90
  -3  -7   3  168.08   12.50
  -3  -7   3  177.38   14.20
   2   7  -3  753.72   44.50
   2   7  -3  828.62   44.30
   2   7  -3  779.82   46.80
  -2  -7   3  724.13   45.30
  -2  -7   3  731.93   46.20
  -2  -7   3  708.03   44.90
   1   7  -3  311.67   21.90
   1   7  -3  311.07   19.20
   1   7  -3  272.97   19.60
   1   7  -3  296.47   19.90
  -1  -7   3  313.97   20.50
  -1  -7   3  311.37   20.70
  -1  -7   3  328.57   21.50
   0   7  -3  405.46   26.50
   0  -7   3  504.95   29.00
   0  -7   3  455.15   28.10
   0  -7   3  420.96   28.00
   0  -7   3  465.55   28.50
  -1   7  -3 1840.82  107.29
  -1   7  -3 1862.71  105.19
  -1   7  -3 1931.11  106.79
   1  -7   3 1903.41  106.79
   1  -7   3 1813.92  107.09
   1  -7   3 1924.21  107.59
   1  -7   3 1966.80  106.89
  -2   7  -3 1044.80   63.99
  -2   7  -3 1123.39   69.09
   2  -7   3 1244.58   66.99
   2  -7   3 1086.09   65.19
   2  -7   3 1229.08   65.59
   2  -7   3 1060.19   65.79
   2  -7   3 1185.18   66.49
  -3   7  -3 1557.84   83.79
   3  -7   3 1574.94   86.39
   3  -7   3 1455.05   84.09
   3  -7   3 1481.15   85.89
   3  -7   3 1374.26   85.99
  -4   7  -3  686.63   39.40
  -4   7  -3  665.93   43.00
   4  -7   3  684.63   41.60
   4  -7   3  628.74   42.00
   4  -7   3  680.13   41.40
  -5   7  -3  348.37   23.20
   5  -7   3  389.06   25.20
   5  -7   3  388.96   25.00
   5   6  -3   49.80    5.50
   5   6  -3   48.00    6.70
   5   6  -3   48.80    5.50
  -5  -6   3   54.49    7.40
  -5  -6   3   63.39    7.30
   4   6  -3  939.61   59.19
   4   6  -3 1012.80   57.59
   4   6  -3 1015.90   59.69
   4   6  -3  921.81   57.09
   4   6  -3 1059.79   57.59
  -4  -6   3  999.20   58.19
  -4  -6   3  986.80   59.29
  -4  -6   3 1052.89   58.49
  -4  -6   3  989.60   60.39
   3   6  -3   56.29    7.70
   3   6  -3   63.39    6.90
   3   6  -3   72.29    6.50
   3   6  -3   65.39    6.10
  -3  -6   3   52.69    6.90
  -3  -6   3   69.69    7.50
  -3  -6   3   59.39    7.00
  -3  -6   3   64.49    6.90
  -3  -6   3   65.89    8.10
   2   6  -3  610.84   38.60
   2   6  -3  632.54   38.20
   2   6  -3  670.63   40.30
   2   6  -3  581.54   37.80
   2   6  -3  686.83   38.00
  -2  -6   3  713.43   39.60
  -2  -6   3  587.54   38.00
  -2  -6   3  666.63   39.00
  -2  -6   3  691.13   40.20
  -2  -6   3  699.73   38.80
   1   6  -3 2662.03  161.48
   1   6  -3 2970.20  163.88
   1   6  -3 2957.70  162.18
   1   6  -3 2661.13  162.08
   1   6  -3 2958.10  161.48
  -1  -6   3 3154.18  163.68
  -1  -6   3 3060.39  163.18
  -1  -6   3 2958.20  162.68
   0   6  -3 2389.16  122.69
   0   6  -3 2205.38  122.89
   0   6  -3 2279.57  121.49
   0  -6   3 1925.91  121.39
   0  -6   3 2078.69  122.79
   0  -6   3 2158.38  122.69
   0  -6   3 2165.68  123.09
   0  -6   3 2365.36  124.69
  -1   6  -3  546.95   32.90
   1  -6   3  626.14   34.60
   1  -6   3  579.94   34.80
   1  -6   3  606.44   34.40
   1  -6   3  529.75   34.10
   1  -6   3  596.64   35.10
  -2   6  -3  260.97   14.70
  -2   6  -3  264.17   17.90
   2  -6   3  226.48   15.10
   2  -6   3  233.48   16.50
   2  -6   3  216.18   16.40
   2  -6   3  230.78   18.90
   2  -6   3  247.88   16.80
  -3   6  -3 1233.78   72.69
  -3   6  -3 1299.87   71.89
  -3   6  -3 1267.67   75.49
   3  -6   3 1274.97   74.39
   3  -6   3 1262.47   73.89
   3  -6   3 1323.27   73.99
  -4   6  -3 1150.88   67.39
  -4   6  -3 1173.38   65.49
  -4   6  -3 1206.08   64.09
   4  -6   3 1067.89   65.29
   4  -6   3 1012.20   66.19
   4  -6   3 1103.49   65.79
  -5   6  -3  213.18   14.90
  -5   6  -3  215.58   18.70
  -5   6  -3  209.08   16.20
   5  -6   3  228.08   16.70
   5  -6   3  208.78   18.30
   5  -6   3  228.98   15.90
  -6   6  -3   33.40    4.60
  -6   6  -3   24.40    5.40
   6  -6   3   27.10    5.10
   6   5  -3   21.70    3.40
   6   5  -3   16.60    4.90
   6   5  -3   22.60    4.80
   6   5  -3   21.30    3.60
  -6  -5   3   27.80    6.20
  -6  -5   3   21.60    4.90
   5   5  -3  304.47   19.70
   5   5  -3  325.97   20.20
   5   5  -3  343.77   21.10
   5   5  -3  310.07   21.90
   5   5  -3  304.87   22.40
   5   5  -3  301.67   20.00
  -5  -5   3  319.97   20.60
  -5  -5   3  317.67   22.80
  -5  -5   3  316.87   21.50
   4   5  -3  500.75   33.30
   4   5  -3  523.45   33.40
   4   5  -3  518.45   31.50
   4   5  -3  487.55   31.20
   4   5  -3  528.35   31.50
  -4  -5   3  528.55   33.10
  -4  -5   3  564.54   32.60
  -4  -5   3  546.95   32.30
  -4  -5   3  558.74   34.20
   3   5  -3  416.86   27.60
   3   5  -3  439.86   26.00
   3   5  -3  394.16   25.80
   3   5  -3  417.96   27.50
  -3  -5   3  453.85   26.90
  -3  -5   3  432.06   26.70
  -3  -5   3  474.25   27.70
  -3  -5   3  450.95   27.70
  -3  -5   3  436.06   27.80
   2   5  -3 1671.33  100.39
   2   5  -3 1747.63  100.99
   2   5  -3 1673.23   99.49
  -2  -5   3 1742.53  100.39
  -2  -5   3 1867.41  101.09
  -2  -5   3 1920.01  101.59
  -2  -5   3 1884.01  100.79
  -2  -5   3 1792.92   99.99
   1   5  -3  637.64   36.80
   1   5  -3  620.34   36.80
   1   5  -3  670.83   36.60
   1   5  -3  655.93   35.90
  -1  -5   3  634.04   37.40
  -1  -5   3  629.84   36.40
  -1  -5   3  602.84   36.80
  -1  -5   3  607.94   36.90
  -1  -5   3  646.34   37.20
   0   5  -3  398.26   25.40
   0   5  -3  419.86   25.90
   0   5  -3  466.45   26.60
   0  -5   3  480.95   27.30
   0  -5   3  480.25   27.20
   0  -5   3  429.06   27.50
   0  -5   3  470.95   26.80
   0  -5   3  459.85   26.30
   0  -5   3  466.55   27.10
  -1   5  -3 1019.50   51.79
  -1   5  -3  998.40   52.39
   1  -5   3  896.51   53.29
   1  -5   3  885.81   55.39
   1  -5   3  914.51   53.09
   1  -5   3  878.11   53.49
   1  -5   3  950.40   53.09
   1  -5   3  937.81   53.69
  -2   5  -3  754.92   46.70
  -2   5  -3  733.03   43.90
  -2   5  -3  708.73   44.80
   2  -5   3  846.02   46.20
   2  -5   3  837.12   49.10
   2  -5   3  782.82   44.70
   2  -5   3  793.62   46.20
   2  -5   3  762.82   44.50
   2  -5   3  851.41   46.00
  -3   5  -3  377.26   23.00
  -3   5  -3  378.86   24.20
  -3   5  -3  388.06   25.90
   3  -5   3  341.27   22.60
   3  -5   3  409.36   24.90
   3  -5   3  420.16   28.70
   3  -5   3  401.96   24.50
   3  -5   3  396.16   25.20
  -4   5  -3 1580.94   90.49
  -4   5  -3 1568.44   92.29
  -4   5  -3 1579.94   88.99
   4  -5   3 1623.94   91.79
   4  -5   3 1578.34   90.69
   4  -5   3 1603.84   95.39
   4  -5   3 1536.35   89.99
  -5   5  -3  193.88   15.70
  -5   5  -3  196.78   14.30
  -5   5  -3  181.18   16.50
   5  -5   3  226.38   16.60
   5  -5   3  230.28   18.70
  -6   5  -3  356.56   25.10
  -6   5  -3  342.57   23.20
   6  -5   3  405.76   24.80
   6   4  -3  297.37   18.60
   6   4  -3  299.17   18.60
   6   4  -3  271.97   22.80
   6   4  -3  317.77   20.80
  -6  -4   3  287.97   19.40
  -6  -4   3  294.87   21.90
   5   4  -3  398.96   23.30
   5   4  -3  385.16   25.70
   5   4  -3  377.56   22.90
   5   4  -3  389.96   23.30
  -5  -4   3  356.16   24.20
  -5  -4   3  367.26   23.60
  -5  -4   3  369.36   24.10
  -5  -4   3  375.56   26.30
  -5  -4   3  371.96   26.40
   4   4  -3  300.97   21.30
   4   4  -3  290.77   19.60
   4   4  -3  308.27   19.90
   4   4  -3  298.67   20.50
   4   4  -3  304.97   21.90
  -4  -4   3  359.16   21.50
  -4  -4   3  336.77   21.30
  -4  -4   3  345.67   21.00
  -4  -4   3  312.97   21.00
  -4  -4   3  370.66   23.10
  -4  -4   3  337.87   20.80
   3   4  -3  127.39   10.60
   3   4  -3  124.59    8.90
   3   4  -3  123.49   10.20
   3   4  -3  127.39    9.10
  -3  -4   3  138.19   10.00
  -3  -4   3  142.19   11.10
  -3  -4   3  113.19    9.50
  -3  -4   3  148.09   10.10
  -3  -4   3  136.69   11.20
  -3  -4   3  151.88   11.00
  -3  -4   3  135.49    9.70
   2   4  -3  763.42   41.60
   2   4  -3  765.72   41.40
   2   4  -3  756.02   40.00
   2   4  -3  741.83   40.10
   2   4  -3  673.63   39.80
  -2  -4   3  655.43   40.50
  -2  -4   3  668.83   40.50
  -2  -4   3  667.23   41.10
  -2  -4   3  670.03   41.00
  -2  -4   3  711.13   41.00
   1   4  -3 5305.07  288.07
   1   4  -3 4940.11  287.37
   1   4  -3 5603.44  288.87
  -1  -4   3 5146.29  288.37
   0   4  -3  674.53   37.20
   0  -4   3  656.93   37.40
   0  -4   3  662.63   37.00
   0  -4   3  645.84   37.40
   0  -4   3  614.44   38.30
   0  -4   3  658.93   37.50
  -1   4  -3  184.98   10.30
   1  -4   3  162.98   10.30
   1  -4   3  157.08   12.50
   1  -4   3  145.99   10.70
   1  -4   3  173.18   11.00
   1  -4   3  165.28   10.80
   1  -4   3  154.38   10.40
  -2   4  -3  464.05   26.50
  -2   4  -3  358.16   24.10
  -2   4  -3  403.36   23.70
   2  -4   3  441.96   28.20
   2  -4   3  391.16   24.20
   2  -4   3  455.65   25.80
   2  -4   3  428.06   25.10
   2  -4   3  430.76   25.40
  -3   4  -3  198.78   15.20
  -3   4  -3  193.18   12.90
  -3   4  -3  191.88   14.90
   3  -4   3  200.68   12.30
   3  -4   3  230.48   16.80
   3  -4   3  225.08   14.90
   3  -4   3  227.68   14.00
  -4   4  -3  729.33   41.60
  -4   4  -3  707.33   42.50
  -4   4  -3  702.03   44.20
  -4   4  -3  711.53   43.90
  -4   4  -3  725.63   43.10
   4  -4   3  705.43   43.40
   4  -4   3  661.03   41.90
   4  -4   3  744.93   47.40
   4  -4   3  762.42   43.30
  -5   4  -3  932.61   55.89
  -5   4  -3 1034.50   57.39
  -5   4  -3  983.90   55.39
  -5   4  -3  955.20   57.79
   5  -4   3 1006.10   56.79
   5  -4   3  899.61   56.69
   5  -4   3  856.21   54.79
  -6   4  -3  108.39   11.40
  -6   4  -3  116.09   10.00
   6  -4   3  122.59   10.70
   7   3  -3  338.07   21.40
  -7  -3   3  289.17   22.40
   6   3  -3   15.40    3.20
   6   3  -3   13.10    4.60
   6   3  -3   10.10    2.70
   6   3  -3   14.10    6.10
  -6  -3   3   22.60    5.90
  -6  -3   3   18.50    4.50
   5   3  -3  603.14   43.70
   5   3  -3  664.73   39.60
   5   3  -3  645.44   39.30
   5   3  -3  700.63   41.50
   5   3  -3  697.93   44.80
   5   3  -3  706.03   39.70
  -5  -3   3  677.03   41.60
  -5  -3   3  672.23   41.00
  -5  -3   3  672.13   40.50
  -5  -3   3  684.83   40.00
  -5  -3   3  727.03   40.60
  -5  -3   3  741.23   43.30
   4   3  -3 2033.40  117.09
   4   3  -3 2159.98  119.59
   4   3  -3 2207.58  117.39
   4   3  -3 2149.48  117.29
  -4  -3   3 2034.70  118.39
  -4  -3   3 2165.68  118.89
  -4  -3   3 2113.29  117.89
  -4  -3   3 2137.99  117.89
  -4  -3   3 2114.29  118.39
  -4  -3   3 1913.41  117.89
  -4  -3   3 2198.08  120.09
   3   3  -3 2506.05  140.69
   3   3  -3 2466.15  140.59
   3   3  -3 2341.27  141.49
   3   3  -3 2523.75  142.39
   3   3  -3 2313.57  140.39
  -3  -3   3 2658.83  141.29
  -3  -3   3 2509.85  141.49
  -3  -3   3 2649.53  142.59
  -3  -3   3 2737.33  141.59
  -3  -3   3 2587.44  141.29
  -3  -3   3 2556.74  141.59
  -3  -3   3 2731.83  141.99
   2   3  -3 2985.60  167.38
   2   3  -3 3081.99  166.58
   2   3  -3 3264.27  168.18
   2   3  -3 3000.50  166.98
  -2  -3   3 3091.99  167.88
  -2  -3   3 2974.00  167.08
  -2  -3   3 2941.71  167.38
  -2  -3   3 3116.39  167.18
  -2  -3   3 2822.22  166.88
   1   3  -3 4234.78  218.98
  -1  -3   3 3626.74  219.68
  -1  -3   3 3991.30  219.68
  -1  -3   3 4117.99  219.28
   0  -3   3 3070.99  170.28
   1  -3   3 2313.97  126.89
   1  -3   3 2287.67  126.59
   1  -3   3 2311.47  126.69
   1  -3   3 2352.76  128.89
   1  -3   3 2210.98  126.29
  -2   3  -3 2768.02  159.28
  -2   3  -3 3121.89  161.28
  -2   3  -3 2840.32  159.08
   2  -3   3 3071.09  163.38
   2  -3   3 2842.52  159.68
   2  -3   3 3013.20  160.68
   2  -3   3 2718.53  159.38
   2  -3   3 2853.41  160.08
  -3   3  -3  229.18   13.90
  -3   3  -3  235.98   14.80
  -3   3  -3  206.38   12.90
  -3   3  -3  245.08   16.00
   3  -3   3  207.18   14.10
   3  -3   3  221.68   15.00
   3  -3   3  249.78   16.40
   3  -3   3  226.28   17.90
  -4   3  -3  642.64   40.80
  -4   3  -3  663.43   38.80
  -4   3  -3  629.74   39.80
   4  -3   3  687.23   40.30
   4  -3   3  704.13   40.00
   4  -3   3  685.13   44.00
   4  -3   3  610.74   38.50
   4  -3   3  695.33   40.80
  -5   3  -3 4421.86  262.37
  -5   3  -3 5029.70  260.07
  -5   3  -3 4927.21  261.67
  -5   3  -3 4844.72  261.17
   5  -3   3 4878.41  260.97
   5  -3   3 4006.10  258.57
   5  -3   3 4404.96  260.77
   5  -3   3 5056.89  266.37
  -6   3  -3  140.99   12.20
  -6   3  -3  151.98   13.20
  -6   3  -3  152.38   11.30
  -6   3  -3  145.59   13.80
   6  -3   3  113.79   11.10
   6  -3   3  113.69   14.30
  -7   3  -3    5.30    3.40
  -7   3  -3    5.60    2.70
   7  -3   3    8.90    3.20
   7   2  -3  186.08   14.70
   7   2  -3  189.98   17.10
  -7  -2   3  254.67   18.00
  -7  -2   3  206.48   17.80
   6   2  -3  192.68   13.40
   6   2  -3  182.28   17.70
   6   2  -3  209.18   16.40
   6   2  -3  215.48   13.70
  -6  -2   3  201.18   15.10
  -6  -2   3  232.88   17.70
  -6  -2   3  216.58   17.00
   5   2  -3 1202.28   70.99
   5   2  -3 1270.77   72.79
   5   2  -3 1221.58   71.09
   5   2  -3 1162.58   75.59
   5   2  -3 1237.88   73.69
  -5  -2   3 1232.48   71.59
  -5  -2   3 1292.37   73.29
  -5  -2   3 1269.57   72.69
  -5  -2   3 1382.36   74.79
  -5  -2   3 1383.06   75.29
   4   2  -3  482.45   28.60
   4   2  -3  500.15   26.60
   4   2  -3  471.75   27.60
   4   2  -3  444.46   26.10
   4   2  -3  480.55   27.30
   4   2  -3  474.25   26.50
  -4  -2   3  409.56   26.80
  -4  -2   3  447.86   27.40
  -4  -2   3  436.66   27.80
  -4  -2   3  431.46   26.80
  -4  -2   3  454.85   27.80
  -4  -2   3  398.06   28.40
   3   2  -3 4050.59  239.58
   3   2  -3 4247.48  238.88
   3   2  -3 4227.98  239.78
   3   2  -3 4186.28  238.78
  -3  -2   3 4078.49  239.58
  -3  -2   3 4257.67  239.38
  -3  -2   3 4731.63  240.08
  -3  -2   3 4513.55  239.68
  -3  -2   3 4441.76  240.78
  -3  -2   3 4493.25  240.18
  -3  -2   3 4659.93  239.78
   2   2  -3 2952.50  152.48
   2   2  -3 2637.64  152.68
   2   2  -3 2783.52  152.08
  -2  -2   3 2745.83  152.98
  -2  -2   3 2695.03  153.28
  -2  -2   3 2971.70  152.48
  -2  -2   3 2612.44  152.88
  -2  -2   3 2686.53  152.58
  -2  -2   3 2864.41  152.88
   0  -2   3 1263.37   70.19
   0  -2   3 1430.66   70.49
   0  -2   3 1313.57   70.49
   0  -2   3 1149.39   69.99
   0  -2   3 1185.68   71.29
  -1   2  -3  737.43   38.10
  -1   2  -3  774.32   38.40
   1  -2   3  602.54   37.40
   1  -2   3  715.53   38.20
   1  -2   3  613.44   37.70
   1  -2   3  651.23   37.70
   1  -2   3  656.43   39.50
   1  -2   3  641.94   37.70
   1  -2   3  641.84   37.30
  -2   2  -3 2244.48  113.19
  -2   2  -3 2250.57  113.49
  -2   2  -3 2031.70  111.59
  -2   2  -3 1960.10  111.49
  -2   2  -3 1968.60  111.59
   2  -2   3 2185.68  112.99
   2  -2   3 1743.53  111.69
   2  -2   3 1921.01  112.39
   2  -2   3 1950.01  114.69
  -3   2  -3 1398.86   75.59
  -3   2  -3 1291.37   74.89
  -3   2  -3 1446.76   77.19
  -3   2  -3 1249.77   74.79
  -3   2  -3 1181.48   76.09
  -3   2  -3 1467.65   77.39
   3  -2   3 1376.26   79.39
   3  -2   3 1467.35   76.79
   3  -2   3 1233.78   75.19
   3  -2   3 1376.06   76.39
   3  -2   3 1390.06   76.89
  -4   2  -3 2213.48  129.49
  -4   2  -3 2472.35  132.29
  -4   2  -3 2152.88  129.09
  -4   2  -3 2520.15  130.59
   4  -2   3 2417.46  132.09
   4  -2   3 2354.56  131.29
   4  -2   3 2029.30  129.49
   4  -2   3 2464.75  131.29
   4  -2   3 2449.16  135.39
  -5   2  -3  627.34   39.50
  -5   2  -3  663.73   37.80
  -5   2  -3  660.73   39.50
  -5   2  -3  671.93   39.40
  -5   2  -3  610.74   40.00
   5  -2   3  598.14   38.10
   5  -2   3  628.74   42.50
   5  -2   3  563.64   38.10
   5  -2   3  618.14   39.30
  -6   2  -3  116.59   11.20
  -6   2  -3  106.59   11.10
  -6   2  -3  114.99    9.60
  -6   2  -3   92.99   10.40
   6  -2   3   96.69    9.70
   6  -2   3   96.99    9.50
   6  -2   3   98.39   10.50
  -7   2  -3   84.39    9.40
  -7   2  -3   85.19    9.20
  -7   2  -3   93.39    8.00
   7  -2   3   72.79    7.80
   7   1  -3  670.33   39.30
   7   1  -3  592.94   36.90
  -7  -1   3  638.74   40.60
   6   1  -3  445.16   28.50
   6   1  -3  458.35   26.80
   6   1  -3  451.95   29.30
   6   1  -3  411.56   26.30
  -6  -1   3  472.55   30.30
  -6  -1   3  420.36   29.20
  -6  -1   3  432.56   28.30
  -6  -1   3  465.35   29.50
   5   1  -3   63.89    5.80
   5   1  -3   57.69    5.20
   5   1  -3   60.59    5.60
   5   1  -3   68.29    7.60
   5   1  -3   62.99    6.90
   5   1  -3   59.59    5.60
   5   1  -3   65.29    8.60
  -5  -1   3   68.69    7.00
  -5  -1   3   74.19    7.30
  -5  -1   3   63.29    5.70
  -5  -1   3   70.09    7.80
   4   1  -3  863.71   52.19
   4   1  -3  886.31   53.39
   4   1  -3  887.41   52.59
   4   1  -3  933.71   52.49
   4   1  -3  900.91   54.49
   4   1  -3  884.91   52.39
  -4  -1   3 1009.10   53.79
  -4  -1   3  922.41   53.29
  -4  -1   3 1008.70   53.59
  -4  -1   3  955.90   52.89
  -4  -1   3 1000.60   54.29
   3   1  -3 2629.84  144.49
   3   1  -3 2689.93  146.09
   3   1  -3 2494.35  144.69
   3   1  -3 2544.65  145.09
  -3  -1   3 2758.62  145.19
  -3  -1   3 2720.43  145.09
  -3  -1   3 2439.36  144.49
  -3  -1   3 2469.95  145.09
  -3  -1   3 2714.83  145.79
  -3  -1   3 2674.73  144.99
  -3  -1   3 2741.03  146.09
  -2  -1   3 3045.80  175.88
  -2  -1   3 3205.58  175.88
  -2  -1   3 3349.96  175.68
  -2  -1   3 3162.38  175.58
   1   1  -3 1710.23  104.69
  -1  -1   3 1815.82  105.39
  -1  -1   3 2038.20  105.39
  -1  -1   3 1956.40  105.39
  -1  -1   3 2024.80  105.99
   0  -1   3 3755.72  206.98
  -2   1  -3 1734.63  102.29
  -2   1  -3 1997.60  103.89
  -2   1  -3 1974.00  103.69
  -2   1  -3 1839.22  102.49
  -2   1  -3 1757.22  102.49
   2  -1   3 1861.21  103.39
   2  -1   3 1873.31  102.99
   2  -1   3 1925.11  103.29
   2  -1   3 1779.82  103.49
   2  -1   3 1830.42  103.09
  -3   1  -3 2829.62  159.18
  -3   1  -3 2682.13  157.58
  -3   1  -3 2620.34  157.38
  -3   1  -3 2805.22  157.98
  -3   1  -3 2997.80  159.58
  -3   1  -3 2793.72  158.88
   3  -1   3 2859.41  159.08
   3  -1   3 2864.61  159.18
   3  -1   3 2823.42  161.18
   3  -1   3 3085.39  158.48
   3  -1   3 2988.10  158.78
   3  -1   3 2956.80  158.58
  -4   1  -3   58.19    5.40
  -4   1  -3   60.99    6.20
  -4   1  -3   61.89    5.60
  -4   1  -3   62.49    7.50
  -4   1  -3   62.19    7.50
   4  -1   3   72.19    6.80
   4  -1   3   70.89    7.60
   4  -1   3   74.69    7.00
  -5   1  -3 1485.45   90.59
  -5   1  -3 1534.95   90.99
  -5   1  -3 1668.23   94.09
  -5   1  -3 1752.32   95.89
  -5   1  -3 1583.44   93.69
  -5   1  -3 1674.53   93.49
  -5   1  -3 1669.53   92.09
   5  -1   3 1574.64   92.29
   5  -1   3 1665.63   96.39
   5  -1   3 1650.43   93.79
   5  -1   3 1577.54   92.39
  -6   1  -3  293.37   20.30
  -6   1  -3  287.97   20.90
  -6   1  -3  257.47   20.10
  -6   1  -3  293.77   18.60
   6  -1   3  238.48   18.30
   6  -1   3  233.88   19.40
  -7   1  -3  229.58   15.80
  -7   1  -3  229.18   17.30
   7  -1   3  236.58   16.10
   7   0  -3    7.20    4.90
   7   0  -3   11.80    2.90
  -7   0   3    8.00    4.70
  -7   0   3    5.80    3.50
   6   0  -3  102.99    9.50
   6   0  -3   88.59    8.30
   6   0  -3  121.49   10.10
  -6   0   3  115.59   11.10
  -6   0   3  100.29   10.40
  -6   0   3   83.19    9.70
  -6   0   3   85.09    7.80
   5   0  -3 1263.07   72.59
   5   0  -3 1233.98   70.99
   5   0  -3 1159.58   70.79
   5   0  -3 1285.27   72.09
   5   0  -3 1321.77   76.39
   5   0  -3 1314.17   73.29
  -5   0   3 1297.97   72.99
  -5   0   3 1265.27   72.59
  -5   0   3 1223.58   71.39
  -5   0   3 1339.37   73.79
  -5   0   3 1220.78   73.49
   4   0  -3 1493.05   86.39
   4   0  -3 1517.65   87.19
   4   0  -3 1566.24   87.59
   4   0  -3 1590.94   88.19
   4   0  -3 1523.25   86.39
   4   0  -3 1660.53   86.69
   4   0  -3 1716.33   91.09
  -4   0   3 1563.34   87.49
  -4   0   3 1564.54   87.59
  -4   0   3 1568.64   88.29
  -4   0   3 1471.85   86.69
  -4   0   3 1440.06   86.19
   3   0  -3  285.77   17.60
   3   0  -3  311.87   20.00
   3   0  -3  294.87   17.10
   3   0  -3  283.57   17.10
   3   0  -3  268.27   16.80
   3   0  -3  287.37   17.70
   3   0  -3  309.57   18.40
  -3   0   3  301.07   17.30
  -3   0   3  297.27   17.60
  -3   0   3  284.97   17.20
  -3   0   3  304.87   18.40
  -3   0   3  308.57   17.80
  -3   0   3  264.27   18.10
   2   0  -3 1795.72   98.09
   2   0  -3 1556.34   96.99
   2   0  -3 1857.81   99.19
   2   0  -3 1658.93   96.89
  -2   0   3 1726.03   97.59
  -2   0   3 1825.92   97.19
  -2   0   3 1868.41   97.39
  -2   0   3 1716.53   96.99
  -2   0   3 1836.32   97.79
  -2   0  -3 2191.38  115.29
  -2   0  -3 1943.61  113.99
  -2   0  -3 2182.08  115.29
  -2   0  -3 2146.69  115.09
  -2   0  -3 1954.50  113.79
  -2   0  -3 2078.89  114.09
   2   0   3 2212.18  114.69
   2   0   3 2075.19  114.99
   2   0   3 1972.30  114.89
   2   0   3 2040.00  114.29
   2   0   3 1994.10  116.09
   2   0   3 1973.60  112.99
  -3   0  -3  543.85   36.30
  -3   0  -3  528.55   36.30
  -3   0  -3  518.25   35.30
  -3   0  -3  532.15   35.20
   3   0   3  681.73   36.00
   3   0   3  688.73   36.10
   3   0   3  610.84   34.10
   3   0   3  658.13   36.90
   3   0   3  647.44   38.30
   3   0   3  682.43   36.90
   3   0   3  670.33   36.10
  -4   0  -3 2052.59  124.19
  -4   0  -3 2184.18  126.99
  -4   0  -3 2260.27  125.29
  -4   0  -3 2218.88  126.69
  -4   0  -3 2237.08  124.99
  -4   0  -3 2216.08  124.69
   4   0   3 2190.78  128.29
   4   0   3 2280.97  126.69
   4   0   3 2335.97  125.79
   4   0   3 2352.56  125.59
   4   0   3 2238.78  126.49
   4   0   3 2322.17  125.49
  -5   0  -3   40.80    6.30
  -5   0  -3   43.90    5.20
  -5   0  -3   38.50    7.10
  -5   0  -3   45.90    5.80
  -5   0  -3   41.50    6.50
  -5   0  -3   32.10    9.50
  -5   0  -3   39.10    4.90
  -6   0  -3   64.79    9.40
  -6   0  -3   70.29    7.30
  -6   0  -3   61.09    6.00
  -6   0  -3   62.19    8.00
   6   0   3   67.79    8.40
   6   0   3   70.59    7.40
   7  -1  -3  260.17   15.90
   7  -1  -3  216.08   19.50
  -7   1   3  247.08   18.30
  -7   1   3  253.17   19.00
  -7   1   3  228.18   16.10
   6  -1  -3  420.66   26.10
   6  -1  -3  422.16   26.40
   6  -1  -3  383.06   24.80
   6  -1  -3  413.16   24.70
   6  -1  -3  368.26   29.30
  -6   1   3  386.36   26.10
  -6   1   3  394.46   26.90
  -6   1   3  441.66   27.80
  -6   1   3  391.56   24.80
   5  -1  -3  259.67   17.80
   5  -1  -3  304.87   19.80
   5  -1  -3  319.77   20.10
   5  -1  -3  322.87   23.70
   5  -1  -3  281.47   18.20
   5  -1  -3  309.37   20.00
  -5   1   3  305.97   23.30
  -5   1   3  294.37   20.70
  -5   1   3  287.17   18.70
  -5   1   3  287.67   19.70
  -5   1   3  308.77   20.50
   4  -1  -3  434.86   25.00
   4  -1  -3  441.76   28.20
   4  -1  -3  423.06   25.00
   4  -1  -3  389.06   23.50
   4  -1  -3  424.86   24.90
  -4   1   3  384.56   25.00
  -4   1   3  377.56   23.90
  -4   1   3  393.86   25.30
  -4   1   3  369.16   24.50
   3  -1  -3 2723.93  161.08
   3  -1  -3 3001.80  162.28
   3  -1  -3 2924.71  162.18
   3  -1  -3 3162.38  165.18
   3  -1  -3 2686.23  161.08
  -3   1   3 3030.70  162.58
  -3   1   3 2926.21  161.38
  -3   1   3 2982.10  162.08
   2  -1  -3 1535.35   80.29
   2  -1  -3 1408.36   79.29
   2  -1  -3 1390.26   79.39
  -2   1   3 1445.06   80.29
  -2   1   3 1415.26   79.89
  -2   1   3 1429.26   79.49
   1  -1  -3 2457.45  136.69
  -1   1   3 2409.26  137.19
  -1   1   3 2488.85  137.19
  -1   1   3 2583.14  137.19
  -1   1   3 2501.85  136.79
   0  -1  -3 1378.56   73.39
   0  -1  -3 1401.16   73.19
   0  -1  -3 1399.66   73.49
   0  -1  -3 1479.15   75.49
   0  -1  -3 1335.17   73.49
   0  -1  -3 1367.06   73.89
   0   1   3 1123.79   73.89
   0   1   3 1236.88   73.79
   0   1   3 1405.86   73.59
   0   1   3 1307.47   74.09
   0   1   3 1237.08   74.29
   0   1   3 1270.27   73.39
   1   1   3 6779.62  372.76
  -2  -1  -3 3720.13  208.98
  -2  -1  -3 3867.11  209.18
  -2  -1  -3 3661.53  209.28
  -2  -1  -3 3735.93  209.88
   2   1   3 3651.43  208.68
   2   1   3 3917.31  210.28
   2   1   3 3944.51  211.08
   2   1   3 3913.31  210.28
  -3  -1  -3  496.75   32.10
  -3  -1  -3  482.65   31.70
  -3  -1  -3  468.95   30.50
  -3  -1  -3  476.15   30.30
  -3  -1  -3  488.75   30.60
   3   1   3  579.04   32.10
   3   1   3  569.84   32.30
   3   1   3  550.24   31.90
   3   1   3  496.65   29.60
   3   1   3  543.65   32.60
   3   1   3  574.44   31.20
  -4  -1  -3  213.78   14.70
  -4  -1  -3  203.68   15.90
  -4  -1  -3  220.78   16.50
  -4  -1  -3  217.38   14.50
  -4  -1  -3  206.18   14.60
  -4  -1  -3  196.08   15.70
  -4  -1  -3  195.78   16.00
   4   1   3  211.48   16.20
   4   1   3  212.88   15.90
   4   1   3  240.98   15.50
   4   1   3  223.78   15.00
   4   1   3  208.08   15.70
  -5  -1  -3   10.40    3.80
  -5  -1  -3   11.40    3.40
   5   1   3    7.80    5.10
   5   1   3    8.20    3.40
  -6  -1  -3  432.66   29.80
  -6  -1  -3  496.55   32.10
  -6  -1  -3  435.06   28.60
  -6  -1  -3  441.26   28.50
   6   1   3  498.05   29.90
   6   1   3  502.55   31.30
   7  -2  -3   97.79    9.10
   7  -2  -3   93.79    7.90
  -7   2   3   95.39    8.10
  -7   2   3   94.99    9.30
  -7   2   3   96.49   10.80
   6  -2  -3  161.88   13.30
   6  -2  -3  144.69   16.10
   6  -2  -3  157.68   11.50
   6  -2  -3  149.29   11.80
  -6   2   3  190.48   14.10
  -6   2   3  184.18   13.80
  -6   2   3  192.78   15.00
  -6   2   3  187.08   12.50
   5  -2  -3  980.90   52.19
   5  -2  -3  977.70   50.49
   5  -2  -3  959.00   51.09
   5  -2  -3  913.91   50.19
   5  -2  -3  882.91   56.29
  -5   2   3  795.72   51.19
  -5   2   3  782.12   51.29
  -5   2   3  806.62   50.19
  -5   2   3  853.51   52.29
  -5   2   3  781.82   51.49
   4  -2  -3 1046.90   68.09
   4  -2  -3 1235.48   68.79
   4  -2  -3 1273.37   74.29
   4  -2  -3 1284.97   70.29
   4  -2  -3 1270.87   69.29
   4  -2  -3 1297.57   68.99
  -4   2   3 1184.48   69.79
  -4   2   3 1240.78   70.39
  -4   2   3 1192.88   69.49
  -4   2   3 1203.88   68.89
   3  -2  -3  334.67   22.80
   3  -2  -3  315.77   18.50
   3  -2  -3  278.17   18.20
   3  -2  -3  278.17   18.70
   3  -2  -3  341.07   19.90
  -3   2   3  304.47   18.90
  -3   2   3  329.57   19.70
  -3   2   3  314.57   18.60
   2  -2  -3 1861.61  102.59
   2  -2  -3 2073.69  106.79
   2  -2  -3 1785.62  102.49
   2  -2  -3 1938.61  102.69
   2  -2  -3 1778.42  102.09
   2  -2  -3 1914.51  102.89
  -2   2   3 1705.33  102.49
  -2   2   3 1786.52  104.39
   0  -2  -3 2288.27  119.29
   0  -2  -3 2070.59  118.99
   0  -2  -3 2303.77  119.89
   0  -2  -3 2229.38  119.09
   0  -2  -3 2119.89  119.19
   0  -2  -3 2468.95  122.39
   0   2   3 1900.81  118.99
   0   2   3 2007.40  119.89
   0   2   3 2046.40  119.29
  -1  -2  -3 3378.16  190.48
  -1  -2  -3 3648.33  190.58
  -1  -2  -3 3175.38  190.18
   1   2   3 3284.37  191.38
   1   2   3 3715.33  191.58
   1   2   3 3564.04  191.58
  -2  -2  -3  133.19    8.90
  -2  -2  -3  136.79    9.20
  -2  -2  -3  115.79    9.40
  -2  -2  -3  130.19    8.90
  -2  -2  -3  119.69    8.00
  -2  -2  -3  133.79   10.20
  -2  -2  -3  139.29   10.00
   2   2   3  121.79    9.80
   2   2   3  132.19    9.30
   2   2   3  114.79    8.30
   2   2   3  109.99    9.30
   2   2   3  119.29    9.80
  -3  -2  -3  308.97   17.90
  -3  -2  -3  285.07   17.70
  -3  -2  -3  312.27   18.30
  -3  -2  -3  296.37   19.20
  -3  -2  -3  295.17   19.60
  -3  -2  -3  301.07   19.20
   3   2   3  252.17   18.70
   3   2   3  275.57   18.10
   3   2   3  244.88   18.40
   3   2   3  260.77   18.90
   3   2   3  257.57   18.60
   3   2   3  241.78   16.60
  -4  -2  -3  407.96   25.40
  -4  -2  -3  390.46   26.50
  -4  -2  -3  420.36   27.10
  -4  -2  -3  398.46   25.20
  -4  -2  -3  417.66   28.60
  -4  -2  -3  377.46   24.70
  -4  -2  -3  422.36   25.20
  -4  -2  -3  390.16   24.90
   4   2   3  408.46   26.90
   4   2   3  380.36   25.20
   4   2   3  381.36   26.30
  -5  -2  -3  378.56   24.30
  -5  -2  -3  403.86   27.00
  -5  -2  -3  364.56   24.50
  -5  -2  -3  376.16   24.70
  -5  -2  -3  410.56   24.60
  -5  -2  -3  368.56   23.70
  -5  -2  -3  362.46   25.90
   5   2   3  367.16   24.50
   5   2   3  374.06   24.60
   5   2   3  380.66   26.10
  -6  -2  -3   60.59    7.70
  -6  -2  -3   78.89   10.80
  -6  -2  -3   75.29    7.30
   6   2   3   83.79    9.50
   6   2   3   73.89   10.00
   7  -3  -3  107.09    9.70
   7  -3  -3   90.79    8.30
  -7   3   3   97.19    8.60
  -7   3   3  111.29   11.10
   6  -3  -3   69.89    6.90
   6  -3  -3   77.49    8.90
   6  -3  -3   82.39    8.60
   6  -3  -3   75.09    6.50
  -6   3   3   76.99    7.50
  -6   3   3   70.69    8.30
  -6   3   3   72.89    9.20
  -6   3   3   74.49    7.50
   5  -3  -3  350.46   27.10
   5  -3  -3  330.37   20.60
   5  -3  -3  341.67   22.50
   5  -3  -3  328.27   22.10
   5  -3  -3  319.07   20.30
  -5   3   3  321.37   20.60
  -5   3   3  315.27   22.50
  -5   3   3  312.77   22.10
  -5   3   3  316.77   22.50
  -5   3   3  306.07   20.70
   4  -3  -3  607.04   37.40
   4  -3  -3  666.03   40.00
   4  -3  -3  610.24   38.20
   4  -3  -3  654.23   39.70
   4  -3  -3  643.94   38.40
  -4   3   3  715.33   38.60
  -4   3   3  671.63   40.20
  -4   3   3  723.93   40.20
  -4   3   3  640.84   38.20
   3  -3  -3 3557.44  194.38
   3  -3  -3 3647.44  199.68
   3  -3  -3 3455.95  193.38
   3  -3  -3 3493.35  192.48
   3  -3  -3 3403.56  195.78
   3  -3  -3 3678.73  193.58
   3  -3  -3 3178.78  191.88
  -3   3   3 3620.04  193.48
   2  -3  -3  975.70   57.59
   2  -3  -3 1033.00   58.59
   2  -3  -3 1007.70   57.69
   2  -3  -3 1053.59   58.39
   2  -3  -3 1103.59   63.49
   2  -3  -3  988.30   57.69
   2  -3  -3 1113.79   59.69
   2  -3  -3  942.31   57.49
   2  -3  -3 1047.80   58.99
  -2   3   3 1078.79   58.29
  -2   3   3 1085.09   58.89
   1  -3  -3 5887.41  305.97
   1  -3  -3 5388.06  306.07
  -1   3   3 5459.05  306.37
   0  -3  -3 3496.25  189.28
   0  -3  -3 3417.76  189.68
   0  -3  -3 3620.24  189.68
   0  -3  -3 3302.77  189.38
   0  -3  -3 3851.11  193.88
   0  -3  -3 3178.98  189.18
   0   3   3 3375.66  189.38
   0   3   3 3087.79  189.98
   0   3   3 3532.95  189.78
   0   3   3 3518.65  190.48
  -1  -3  -3  937.61   51.29
  -1  -3  -3  886.51   49.40
  -1  -3  -3  946.31   50.09
  -1  -3  -3  871.71   49.90
  -1  -3  -3  985.60   50.49
  -1  -3  -3  978.90   50.89
   1   3   3  741.53   50.19
   1   3   3  880.91   50.39
   1   3   3  808.12   50.89
   1   3   3  809.72   49.70
   1   3   3  838.92   50.99
  -2  -3  -3 1909.71  116.09
  -2  -3  -3 2067.79  117.89
  -2  -3  -3 2166.28  116.59
  -2  -3  -3 2023.80  115.79
  -2  -3  -3 2081.49  115.49
  -2  -3  -3 2086.69  117.19
  -2  -3  -3 2215.78  116.99
   2   3   3 2038.50  115.89
   2   3   3 2205.98  117.09
  -3  -3  -3  396.76   25.50
  -3  -3  -3  467.25   27.40
  -3  -3  -3  433.16   28.50
  -3  -3  -3  401.16   26.50
  -3  -3  -3  424.96   29.00
  -3  -3  -3  449.36   28.50
   3   3   3  484.45   29.00
   3   3   3  445.96   26.20
   3   3   3  468.15   28.60
  -4  -3  -3  443.86   31.50
  -4  -3  -3  553.54   32.80
  -4  -3  -3  475.95   31.30
  -4  -3  -3  571.94   32.60
  -4  -3  -3  531.95   32.40
  -4  -3  -3  494.05   33.50
  -4  -3  -3  554.44   34.30
   4   3   3  539.35   32.50
   4   3   3  545.55   33.70
  -5  -3  -3  332.97   21.60
  -5  -3  -3  340.27   21.40
  -5  -3  -3  324.17   21.90
  -5  -3  -3  323.27   23.50
   5   3   3  307.67   21.40
   5   3   3  314.77   22.90
   5   3   3  319.17   21.60
   7  -4  -3   10.50    4.00
  -7   4   3   14.20    3.50
  -7   4   3   16.10    4.90
   6  -4  -3  290.87   20.90
   6  -4  -3  252.07   23.80
   6  -4  -3  294.67   21.30
   6  -4  -3  292.57   20.70
   6  -4  -3  284.87   18.10
  -6   4   3  297.77   19.00
  -6   4   3  249.97   20.20
  -6   4   3  295.27   21.10
   5  -4  -3  702.43   41.70
   5  -4  -3  630.04   39.60
   5  -4  -3  662.43   39.50
   5  -4  -3  612.34   39.00
   5  -4  -3  647.94   41.70
   5  -4  -3  623.64   46.70
  -5   4   3  744.23   40.10
  -5   4   3  652.33   42.10
  -5   4   3  669.33   41.60
  -5   4   3  731.23   42.00
   4  -4  -3 3897.71  214.58
   4  -4  -3 3903.51  213.28
   4  -4  -3 3783.92  212.88
   4  -4  -3 4042.90  214.98
   4  -4  -3 3669.23  212.98
   4  -4  -3 3781.42  220.98
  -4   4   3 3788.22  214.08
  -4   4   3 3714.93  215.18
  -4   4   3 4022.60  213.08
   3  -4  -3 2018.30  111.89
   3  -4  -3 2014.20  110.99
   3  -4  -3 2047.70  110.89
   3  -4  -3 2124.29  112.49
  -3   4   3 1797.12  110.99
  -3   4   3 1888.31  110.49
   2  -4  -3 2726.33  141.19
   2  -4  -3 2625.84  141.99
   2  -4  -3 2573.74  141.49
   2  -4  -3 2370.66  139.49
   2  -4  -3 2458.65  139.59
   2  -4  -3 2824.22  148.19
  -2   4   3 2480.55  140.59
  -2   4   3 2267.37  140.59
  -2   4   3 2504.55  141.89
  -2   4   3 2534.15  140.99
   1  -4  -3 5840.92  319.37
   1  -4  -3 5843.52  318.37
   1  -4  -3 5791.12  319.07
   1  -4  -3 5705.23  318.07
   0  -4  -3  484.55   29.60
   0  -4  -3  571.54   35.00
   0  -4  -3  514.55   29.50
   0  -4  -3  489.45   29.60
   0  -4  -3  461.95   29.00
   0  -4  -3  535.55   29.90
   0  -4  -3  507.25   30.00
   0   4   3  519.35   31.10
   0   4   3  530.95   30.20
   0   4   3  444.96   29.80
   0   4   3  496.35   29.60
  -1  -4  -3  436.26   27.70
  -1  -4  -3  439.96   28.30
  -1  -4  -3  472.45   28.80
  -1  -4  -3  416.26   27.60
  -1  -4  -3  447.56   28.40
   1   4   3  543.05   29.30
   1   4   3  534.45   30.40
   1   4   3  527.05   30.20
  -2  -4  -3  798.72   48.20
  -2  -4  -3  906.61   49.30
  -2  -4  -3  796.02   47.70
  -2  -4  -3  698.83   53.49
  -2  -4  -3  904.51   49.70
  -2  -4  -3  818.12   50.39
   2   4   3  854.91   48.30
   2   4   3  869.71   50.69
   2   4   3  854.81   50.39
   2   4   3  901.11   49.60
  -3  -4  -3  375.16   24.40
  -3  -4  -3  428.96   26.70
  -3  -4  -3  379.66   24.40
  -3  -4  -3  390.46   26.90
  -3  -4  -3  429.86   26.30
  -3  -4  -3  365.86   27.10
  -3  -4  -3  414.26   26.80
   3   4   3  437.76   28.00
   3   4   3  454.75   26.80
   3   4   3  444.86   27.60
   3   4   3  411.76   24.90
  -4  -4  -3  523.85   31.10
  -4  -4  -3  527.05   32.10
  -4  -4  -3  511.35   31.30
  -4  -4  -3  482.25   32.20
   4   4   3  475.15   32.50
   4   4   3  470.15   30.80
   4   4   3  460.15   31.70
  -5  -4  -3  135.79   10.90
  -5  -4  -3  130.49   10.60
  -5  -4  -3  123.09   12.00
  -5  -4  -3  134.89   12.10
   5   4   3  115.69   11.30
   5   4   3  106.99   11.40
   5   4   3  121.39   11.80
   6  -5  -3  241.88   23.60
   6  -5  -3  290.37   20.90
  -6   5   3  297.47   20.80
  -6   5   3  325.37   19.40
   5  -5  -3   57.39   10.30
   5  -5  -3   63.79    8.10
  -5   5   3   56.89    7.60
  -5   5   3   58.09    6.50
  -5   5   3   54.09    7.80
   4  -5  -3  205.78   15.80
   4  -5  -3  196.88   16.00
   4  -5  -3  190.58   14.40
   4  -5  -3  189.68   14.20
  -4   5   3  217.98   14.40
  -4   5   3  210.48   14.90
  -4   5   3  201.98   16.60
   3  -5  -3 3435.36  202.28
   3  -5  -3 3650.33  210.28
   3  -5  -3 3550.94  201.88
   3  -5  -3 3616.24  202.98
   3  -5  -3 3621.44  201.58
  -3   5   3 3879.11  202.98
  -3   5   3 3667.63  202.98
  -3   5   3 3611.24  201.08
   2  -5  -3  738.63   41.50
   2  -5  -3  733.93   42.70
   2  -5  -3  804.12   42.70
   2  -5  -3  795.72   42.20
   2  -5  -3  728.13   42.30
  -2   5   3  630.74   42.50
  -2   5   3  624.34   41.00
  -2   5   3  613.74   41.30
   1  -5  -3 2090.99  122.89
   1  -5  -3 2150.98  119.39
   1  -5  -3 2195.08  125.99
   1  -5  -3 2062.69  117.99
   1  -5  -3 2000.90  117.69
   1  -5  -3 2029.50  118.89
  -1   5   3 2165.58  120.09
  -1   5   3 2149.78  118.39
  -1   5   3 2246.78  119.09
   0  -5  -3  221.38   15.50
   0  -5  -3  225.68   15.50
   0  -5  -3  238.88   15.90
   0  -5  -3  248.08   16.40
   0  -5  -3  209.68   14.90
   0   5   3  256.87   16.60
   0   5   3  251.07   17.50
   0   5   3  253.97   15.70
   0   5   3  255.67   17.60
  -1  -5  -3  350.66   23.70
  -1  -5  -3  366.26   24.80
  -1  -5  -3  355.06   24.40
  -1  -5  -3  367.86   24.50
  -1  -5  -3  387.16   25.90
   1   5   3  423.16   24.40
   1   5   3  430.36   26.70
   1   5   3  431.16   25.40
   1   5   3  433.26   26.60
  -2  -5  -3  978.70   55.79
  -2  -5  -3  946.31   54.89
  -2  -5  -3  804.72   55.09
  -2  -5  -3  967.10   56.09
  -2  -5  -3  995.40   57.09
   2   5   3  953.50   54.79
   2   5   3  960.00   57.09
   2   5   3  984.00   56.09
   2   5   3  980.80   57.49
  -3  -5  -3  352.66   24.20
  -3  -5  -3  337.87   24.00
  -3  -5  -3  334.97   23.70
  -3  -5  -3  345.57   23.40
   3   5   3  368.36   25.20
   3   5   3  375.96   24.70
   3   5   3  352.46   22.00
   3   5   3  370.76   23.80
  -4  -5  -3   94.79    9.30
  -4  -5  -3   82.59   11.30
  -4  -5  -3   84.79    9.20
  -4  -5  -3   98.99    9.20
   4   5   3   89.29    8.70
   4   5   3   98.39   10.40
   6  -6  -3   18.50    5.20
  -6   6   3   19.20    5.10
  -6   6   3   14.40    3.60
  -6   6   3   21.00    5.00
  -6   6   3   13.30    4.70
   5  -6  -3  316.07   28.70
   5  -6  -3  353.36   22.10
   5  -6  -3  375.96   24.50
   5  -6  -3  375.66   22.40
  -5   6   3  307.07   22.40
  -5   6   3  354.56   24.40
  -5   6   3  317.27   22.40
  -5   6   3  350.56   22.40
   4  -6  -3  776.02   55.69
   4  -6  -3  812.52   47.60
   4  -6  -3  758.92   48.90
   4  -6  -3  825.62   47.20
   4  -6  -3  790.82   48.60
  -4   6   3  832.12   49.30
  -4   6   3  850.71   47.10
  -4   6   3  716.13   48.40
  -4   6   3  779.62   47.30
   3  -6  -3  822.42   47.20
   3  -6  -3  752.42   48.10
   3  -6  -3  790.92   47.90
   3  -6  -3  824.32   47.80
  -3   6   3  780.02   46.50
  -3   6   3  806.12   48.70
  -3   6   3  757.82   46.90
   2  -6  -3  543.15   34.60
   2  -6  -3  628.24   36.30
   2  -6  -3  595.34   42.90
   2  -6  -3  554.24   35.60
   2  -6  -3  585.24   35.70
  -2   6   3  565.94   35.30
  -2   6   3  590.84   36.80
  -2   6   3  570.64   34.70
   1  -6  -3  103.69    8.00
   1  -6  -3  102.69    8.70
   1  -6  -3  120.39   10.00
   1  -6  -3   92.09    7.70
   1  -6  -3  123.19   10.20
   1  -6  -3  108.89    9.10
   0  -6  -3  444.46   27.60
   0  -6  -3  439.46   27.30
   0  -6  -3  477.95   28.60
   0  -6  -3  443.06   27.50
   0  -6  -3  471.05   29.40
   0   6   3  441.26   29.70
   0   6   3  448.56   27.50
   0   6   3  435.86   29.50
   0   6   3  431.16   28.40
  -1  -6  -3  754.62   45.80
  -1  -6  -3  766.52   45.60
  -1  -6  -3  807.82   47.40
  -1  -6  -3  732.03   44.60
  -1  -6  -3  767.92   45.50
   1   6   3  781.62   47.50
   1   6   3  764.42   47.60
   1   6   3  749.73   46.00
   1   6   3  792.42   45.10
  -2  -6  -3  603.84   37.50
  -2  -6  -3  631.14   39.10
  -2  -6  -3  590.24   38.00
   2   6   3  618.94   39.10
   2   6   3  639.44   38.40
   2   6   3  607.94   36.60
   2   6   3  625.94   39.50
  -3  -6  -3  132.29   11.80
  -3  -6  -3  148.49   12.60
  -3  -6  -3  151.88   11.70
   3   6   3  125.99   12.40
   3   6   3  123.89    9.80
   3   6   3  140.19   12.20
   3   6   3  134.99   11.40
   5  -7  -3  139.89   10.80
   5  -7  -3  152.68   12.70
  -5   7   3  153.98   11.40
  -5   7   3  141.49   11.50
  -5   7   3  146.09   12.90
   4  -7  -3  172.28   13.30
   4  -7  -3  174.58   14.00
  -4   7   3  170.48   14.70
  -4   7   3  152.38   12.90
  -4   7   3  171.88   12.70
   3  -7  -3   25.00    5.20
   3  -7  -3   25.70    5.50
  -3   7   3   35.40    6.80
  -3   7   3   35.60    5.50
   2  -7  -3  283.07   20.10
   2  -7  -3  308.67   21.20
   2  -7  -3  344.47   22.30
  -2   7   3  298.07   21.10
  -2   7   3  326.77   20.70
  -2   7   3  324.97   22.90
   1  -7  -3  134.79   11.00
   1  -7  -3  146.29   11.80
   1  -7  -3  151.18   12.40
  -1   7   3  130.39   12.80
  -1   7   3  141.19   10.90
  -1   7   3  142.59   13.10
  -1   7   3  141.29   11.80
   0  -7  -3   19.90    4.90
   0  -7  -3   16.40    4.60
   0  -7  -3   12.90    3.20
   0  -7  -3   17.40    3.60
   0   7   3   12.80    3.40
   0   7   3   13.40    5.20
   0   7   3    8.10    4.30
  -1  -7  -3  302.27   22.70
  -1  -7  -3  373.96   23.40
  -1  -7  -3  376.66   25.00
  -1  -7  -3  324.67   22.60
   1   7   3  362.16   25.30
   1   7   3  385.46   22.80
   1   7   3  362.86   23.90
   1   7   3  367.86   25.10
  -2  -7  -3  489.05   28.20
  -2  -7  -3  513.05   30.30
  -2  -7  -3  428.46   29.50
   2   7   3  432.66   28.60
   2   7   3  451.75   30.00
   2   7   3  386.66   29.10
   2   7   3  451.05   31.50
   4  -8  -3   71.19    7.30
   4  -8  -3   65.09    7.40
  -4   8   3   91.19    9.20
   3  -8  -3  169.08   13.80
   3  -8  -3  166.88   13.10
  -3   8   3  179.18   13.70
  -3   8   3  137.59   15.80
  -3   8   3  177.68   13.50
   2  -8  -3  162.78   13.60
   2  -8  -3  176.48   13.80
  -2   8   3  159.98   13.20
  -2   8   3  172.78   12.50
  -2   8   3  170.78   14.50
  -2   8   3  180.58   14.80
   1  -8  -3  169.28   13.50
   1  -8  -3  147.39   12.80
   1  -8  -3  176.28   13.20
  -1   8   3  150.98   13.60
  -1   8   3  156.88   13.90
  -1   8   3  164.48   12.00
  -1   8   3  142.69   12.30
   0  -8  -3   30.60    8.30
   0  -8  -3   23.30    5.20
   0  -8  -3   26.20    4.00
   0   8   3   20.90    5.70
   0   8   3   22.30    5.00
   0   8   3   30.70   11.30
  -1  -8  -3  198.28   15.30
  -1  -8  -3  198.28   14.10
   1   8   3  193.28   15.20
   1   8   3  197.18   15.70
   1   8   3  203.88   13.60
   2   9  -4  323.37   20.60
   2   9  -4  304.07   21.40
  -2  -9   4  319.17   22.90
  -2  -9   4  270.17   21.50
   1   9  -4  252.87   20.60
   1   9  -4  280.47   18.50
  -1  -9   4  324.57   20.80
  -1  -9   4  284.97   20.20
  -1  -9   4  329.77   21.80
   0   9  -4  945.11   58.19
   0   9  -4  979.40   55.19
   0   9  -4  888.21   55.99
   0  -9   4 1011.10   57.19
   0  -9   4  952.50   57.19
   0  -9   4  998.00   57.59
  -1   9  -4   63.09    6.50
  -1   9  -4   63.79    5.40
   1  -9   4   44.80    6.70
   1  -9   4   45.10    7.20
   1  -9   4   46.90    6.60
  -2   9  -4  299.97   22.50
  -2   9  -4  292.67   20.90
  -2   9  -4  302.47   19.50
   2  -9   4  348.87   22.20
   2  -9   4  302.07   21.40
   2  -9   4  362.96   21.50
  -3   9  -4  620.94   37.20
  -3   9  -4  609.34   39.30
  -3   9  -4  621.64   39.50
   3  -9   4  653.53   39.40
   3  -9   4  698.43   40.50
   4   8  -4  383.46   23.00
   4   8  -4  350.46   24.20
  -4  -8   4  378.76   23.90
  -4  -8   4  366.56   24.90
   3   8  -4  516.55   29.40
   3   8  -4  492.75   31.40
   3   8  -4  488.05   29.60
  -3  -8   4  467.25   30.80
  -3  -8   4  472.05   30.50
  -3  -8   4  458.85   31.70
   2   8  -4  628.94   40.10
   2   8  -4  653.23   39.30
   2   8  -4  661.73   37.90
  -2  -8   4  647.24   40.60
  -2  -8   4  626.94   39.50
  -2  -8   4  616.34   39.10
   1   8  -4   28.30    4.00
   1   8  -4   21.30    4.20
   1   8  -4   22.80    5.80
   0   8  -4 2380.86  134.99
   0   8  -4 2505.45  135.09
   0  -8   4 2324.07  135.79
   0  -8   4 2437.16  137.89
   0  -8   4 2373.66  135.99
  -1   8  -4  495.55   34.70
  -1   8  -4  496.65   35.30
   1  -8   4  646.04   35.70
   1  -8   4  647.54   36.40
   1  -8   4  608.14   36.00
   1  -8   4  570.04   36.50
  -2   8  -4  277.77   18.90
  -2   8  -4  272.77   17.10
  -2   8  -4  268.17   19.50
   2  -8   4  296.17   18.80
   2  -8   4  275.67   19.50
   2  -8   4  300.27   19.90
   2  -8   4  233.18   18.70
  -3   8  -4  189.28   13.50
   3  -8   4  209.68   16.10
   3  -8   4  212.88   14.30
   3  -8   4  225.58   16.20
  -4   8  -4  636.04   39.30
   4  -8   4  719.33   42.30
   4  -8   4  677.43   41.70
   5   7  -4  501.55   28.40
   5   7  -4  470.45   29.60
  -5  -7   4  435.46   29.70
   4   7  -4   54.29    7.00
   4   7  -4   60.49    6.20
   4   7  -4   58.49    6.20
  -4  -7   4   47.30    7.50
  -4  -7   4   44.10    6.30
   3   7  -4  946.61   61.19
   3   7  -4 1034.70   61.79
   3   7  -4 1117.39   59.89
   3   7  -4  948.81   61.29
   3   7  -4  933.71   61.19
  -3  -7   4 1111.79   61.19
  -3  -7   4 1114.59   61.89
  -3  -7   4 1113.89   62.39
   2   7  -4 1174.38   63.49
   2   7  -4 1108.89   65.79
   2   7  -4 1046.70   63.59
  -2  -7   4 1140.69   65.29
  -2  -7   4 1084.79   64.69
  -2  -7   4 1132.39   65.99
   1   7  -4  284.17   18.80
   1   7  -4  277.07   21.00
   1   7  -4  281.67   19.80
  -1  -7   4  360.36   21.90
  -1  -7   4  335.97   21.00
   0   7  -4 2173.88  120.29
   0   7  -4 2064.59  121.59
   0   7  -4 2136.69  121.39
   0  -7   4 2400.46  122.99
   0  -7   4 2073.39  121.89
   0  -7   4 2138.19  122.29
   0  -7   4 2202.18  122.09
  -1   7  -4  621.64   36.80
  -1   7  -4  660.23   38.60
   1  -7   4  576.94   38.00
   1  -7   4  634.84   39.10
   1  -7   4  687.33   38.80
   1  -7   4  649.43   38.70
   1  -7   4  692.23   39.50
  -2   7  -4 1648.94   95.29
  -2   7  -4 1608.34   99.19
   2  -7   4 1770.52   97.99
   2  -7   4 1664.13   97.59
   2  -7   4 1880.41   98.19
  -3   7  -4 1020.80   54.59
  -3   7  -4  941.61   57.79
   3  -7   4 1046.30   57.09
   3  -7   4  940.61   57.19
   3  -7   4  863.61   60.79
   3  -7   4  927.11   54.69
  -4   7  -4  850.91   52.89
  -4   7  -4  900.31   49.40
   4  -7   4  867.81   50.89
   4  -7   4  750.82   51.79
   4  -7   4  894.61   51.89
  -5   7  -4  161.38   16.80
  -5   7  -4  198.48   13.40
   5  -7   4  169.58   13.00
   5  -7   4  198.28   14.80
   5   6  -4  119.09    9.30
   5   6  -4  116.89    9.20
  -5  -6   4  112.39   10.40
  -5  -6   4  119.09   11.40
  -5  -6   4  113.39   10.00
   4   6  -4   69.49    8.20
   4   6  -4   69.99    7.10
   4   6  -4   75.69    7.00
   4   6  -4   80.49    8.80
   3   6  -4 1426.46   86.39
   3   6  -4 1386.86   84.39
   3   6  -4 1552.74   84.79
   3   6  -4 1471.25   86.59
  -3  -6   4 1541.65   85.99
  -3  -6   4 1461.65   86.29
  -3  -6   4 1665.53   87.09
  -3  -6   4 1549.14   87.09
   2   6  -4  268.17   17.20
   2   6  -4  278.87   18.90
   2   6  -4  259.57   18.00
   2   6  -4  284.47   17.00
  -2  -6   4  281.87   18.60
  -2  -6   4  275.37   18.20
  -2  -6   4  262.97   19.00
   1   6  -4   16.70    2.60
   1   6  -4   14.60    3.00
   1   6  -4   16.60    3.10
   1   6  -4   12.60    2.60
   1   6  -4   14.40    4.10
   0   6  -4 2592.84  137.59
   0   6  -4 2534.55  136.29
   0   6  -4 2433.56  137.69
   0  -6   4 2153.28  138.19
   0  -6   4 2544.65  138.29
   0  -6   4 2465.05  138.09
   0  -6   4 2413.36  136.99
   0  -6   4 2650.43  138.59
  -1   6  -4 1474.85   81.59
   1  -6   4 1501.35   83.99
   1  -6   4 1426.06   83.49
   1  -6   4 1519.55   83.59
   1  -6   4 1370.36   85.79
   1  -6   4 1577.14   84.19
  -2   6  -4  323.77   19.10
  -2   6  -4  327.67   22.10
  -2   6  -4  322.47   19.70
   2  -6   4  299.37   19.60
   2  -6   4  308.37   21.00
   2  -6   4  333.77   21.30
   2  -6   4  317.87   24.00
   2  -6   4  320.97   19.90
   2  -6   4  340.87   21.10
  -3   6  -4  498.15   30.20
  -3   6  -4  501.95   31.90
  -3   6  -4  503.15   28.90
  -3   6  -4  480.05   32.30
   3  -6   4  449.06   28.70
   3  -6   4  488.65   31.40
   3  -6   4  498.75   30.60
   3  -6   4  511.05   35.10
   3  -6   4  507.15   31.40
  -4   6  -4  296.27   22.30
  -4   6  -4  326.57   20.80
  -4   6  -4  305.77   20.80
   4  -6   4  314.07   22.10
   4  -6   4  264.17   25.40
   4  -6   4  330.27   20.70
  -5   6  -4  184.88   12.90
  -5   6  -4  182.78   14.30
   5  -6   4  163.18   12.80
   5  -6   4  187.48   14.70
  -6   6  -4  295.07   18.20
  -6   6  -4  269.07   19.50
   6  -6   4  269.87   19.20
   6   5  -4  266.47   18.10
   6   5  -4  283.37   18.70
   6   5  -4  219.38   18.60
  -6  -5   4  294.47   18.50
   5   5  -4    4.10    6.60
   5   5  -4   12.90    3.30
   5   5  -4   15.60    4.30
   5   5  -4   12.80    3.20
   5   5  -4   15.80    3.60
  -5  -5   4   21.80    5.50
  -5  -5   4   24.80    5.00
   4   5  -4   94.79    7.40
   4   5  -4  107.39    8.30
   4   5  -4  121.09   12.90
   4   5  -4  102.49    8.40
   4   5  -4   92.49    9.30
  -4  -5   4  105.09    9.30
  -4  -5   4  108.69    9.70
  -4  -5   4  107.79   10.90
   3   5  -4  732.73   45.20
   3   5  -4  760.52   45.90
   3   5  -4  713.33   43.50
   3   5  -4  782.62   44.00
  -3  -5   4  826.42   45.90
  -3  -5   4  783.02   46.10
  -3  -5   4  775.92   45.00
  -3  -5   4  747.53   45.60
  -3  -5   4  774.72   44.80
   2   5  -4 1703.43   93.09
   2   5  -4 1479.25   91.89
   2   5  -4 1710.23   92.99
   2   5  -4 1713.53   91.59
  -2  -5   4 1563.24   92.59
  -2  -5   4 1729.63   92.89
  -2  -5   4 1598.44   92.99
   1   5  -4  697.13   41.10
   1   5  -4  679.03   40.10
   1   5  -4  718.53   40.30
   1   5  -4  723.03   39.70
  -1  -5   4  763.62   41.50
  -1  -5   4  613.84   40.70
  -1  -5   4  729.93   40.90
  -1  -5   4  741.63   41.70
   0  -5   4   19.50    3.80
   0  -5   4   18.00    3.20
   0  -5   4   19.30    3.60
   0  -5   4   19.70    2.70
   0  -5   4   21.70    3.20
   0  -5   4   25.10    3.40
  -1   5  -4  875.51   48.70
   1  -5   4  895.21   49.80
   1  -5   4  834.22   51.99
   1  -5   4  841.32   49.40
   1  -5   4  874.31   49.70
   1  -5   4  864.61   49.80
  -2   5  -4 2855.31  145.79
  -2   5  -4 2562.64  145.89
  -2   5  -4 2754.82  146.39
  -2   5  -4 2962.90  149.19
   2  -5   4 2645.04  148.09
   2  -5   4 2332.97  146.39
   2  -5   4 2563.54  147.39
   2  -5   4 2595.84  151.18
   2  -5   4 2582.94  147.89
  -3   5  -4 1370.66   74.99
  -3   5  -4 1340.17   76.59
  -3   5  -4 1278.47   73.59
  -3   5  -4 1301.97   73.29
  -3   5  -4 1342.77   76.29
   3  -5   4 1366.56   74.79
   3  -5   4 1326.47   75.49
   3  -5   4 1236.58   74.39
   3  -5   4 1220.88   75.49
   3  -5   4 1314.97   79.49
  -4   5  -4  324.47   22.30
  -4   5  -4  309.57   23.50
  -4   5  -4  308.77   21.50
  -4   5  -4  334.07   20.80
  -4   5  -4  310.07   23.50
  -4   5  -4  332.57   23.40
   4  -5   4  337.47   21.40
   4  -5   4  389.76   23.40
   4  -5   4  357.76   23.20
  -5   5  -4   87.69    9.20
  -5   5  -4   92.89    7.80
   5  -5   4   68.69    6.90
   5  -5   4   82.49    9.10
  -6   5  -4  141.69   15.60
  -6   5  -4  173.38   12.40
   6  -5   4  172.08   13.60
   6   4  -4  384.86   23.50
   6   4  -4  392.36   29.00
   6   4  -4  377.36   23.50
   6   4  -4  401.46   25.20
  -6  -4   4  359.76   24.30
  -6  -4   4  377.06   26.80
   5   4  -4  311.57   19.90
   5   4  -4  308.17   21.20
   5   4  -4  298.87   22.30
   5   4  -4  312.67   20.00
  -5  -4   4  313.37   21.10
  -5  -4   4  332.57   23.20
  -5  -4   4  343.57   21.00
   4   4  -4  363.36   25.70
   4   4  -4  390.56   24.70
   4   4  -4  383.06   26.80
  -4  -4   4  474.55   26.60
  -4  -4   4  458.55   25.60
   3   4  -4  830.72   48.20
   3   4  -4  826.92   46.10
   3   4  -4  778.42   47.00
   3   4  -4  834.32   46.30
   3   4  -4  750.92   45.60
  -3  -4   4  850.01   48.30
  -3  -4   4  844.22   47.10
  -3  -4   4  836.82   48.60
  -3  -4   4  848.22   46.90
  -3  -4   4  745.43   46.20
  -3  -4   4  787.72   49.30
   2   4  -4  486.35   27.20
   2   4  -4  459.45   28.20
   2   4  -4  447.36   27.70
   2   4  -4  461.85   27.10
   2   4  -4  474.35   29.00
  -2  -4   4  410.96   27.30
  -2  -4   4  533.75   28.70
  -2  -4   4  490.95   28.70
  -2  -4   4  494.65   28.80
  -2  -4   4  510.65   28.30
   1   4  -4 1197.48   75.29
   1   4  -4 1412.66   75.49
   1   4  -4 1503.15   76.39
   1   4  -4 1345.17   75.09
   1   4  -4 1395.06   76.99
  -1  -4   4 1405.86   76.29
  -1  -4   4 1435.46   76.59
  -1  -4   4 1226.48   76.79
  -1  -4   4 1345.57   76.59
   0   4  -4 1233.68   66.79
   0  -4   4 1131.29   67.99
   0  -4   4 1197.48   66.39
   0  -4   4 1114.39   66.19
   0  -4   4 1257.47   66.39
   0  -4   4 1149.19   66.19
   0  -4   4 1194.68   66.59
  -1   4  -4  463.55   31.50
   1  -4   4  546.35   31.30
   1  -4   4  538.65   31.00
   1  -4   4  529.75   31.10
   1  -4   4  565.54   33.80
   1  -4   4  567.84   31.50
  -2   4  -4  896.41   49.10
  -2   4  -4  825.52   46.50
  -2   4  -4  809.02   46.60
   2  -4   4  853.21   51.69
   2  -4   4  795.82   47.40
   2  -4   4  820.02   47.90
   2  -4   4  863.91   48.60
   2  -4   4  867.11   48.90
  -3   4  -4  161.18   11.70
  -3   4  -4  191.48   14.30
   3  -4   4  200.68   13.80
   3  -4   4  183.48   12.50
   3  -4   4  197.98   17.00
   3  -4   4  205.78   14.10
  -4   4  -4 1045.30   62.49
  -4   4  -4 1134.89   63.49
  -4   4  -4 1081.69   64.09
  -4   4  -4 1046.70   64.29
  -4   4  -4 1089.59   61.69
   4  -4   4  987.20   61.39
   4  -4   4 1040.20   63.39
   4  -4   4 1156.68   68.39
   4  -4   4 1156.68   63.59
  -5   4  -4   56.49    6.80
  -5   4  -4   57.19    8.10
  -5   4  -4   61.19    6.60
  -5   4  -4   54.49    8.30
  -6   4  -4  546.15   31.70
  -6   4  -4  516.15   33.40
   6  -4   4  470.45   32.20
   7   3  -4  140.39   11.90
   7   3  -4  127.49   10.80
  -7  -3   4  130.29   14.00
   6   3  -4  231.08   20.30
   6   3  -4  252.37   17.40
   6   3  -4  251.17   15.80
   6   3  -4  241.48   23.10
   6   3  -4  257.47   15.90
  -6  -3   4  207.88   16.90
  -6  -3   4  242.78   19.10
   5   3  -4 1724.83   97.19
   5   3  -4 1727.43   98.49
   5   3  -4 1749.12   97.19
  -5  -3   4 1718.23   98.79
  -5  -3   4 1809.92  100.69
  -5  -3   4 1731.83   97.99
  -5  -3   4 1669.53   97.99
  -5  -3   4 1754.72   97.89
   4   3  -4 1348.27   74.99
   4   3  -4 1295.67   74.89
   4   3  -4 1302.47   77.19
   4   3  -4 1317.37   75.89
  -4  -3   4 1419.46   77.79
  -4  -3   4 1273.17   77.49
  -4  -3   4 1355.06   76.29
  -4  -3   4 1358.96   75.89
  -4  -3   4 1359.56   75.49
   3   3  -4 1170.38   62.99
   3   3  -4 1054.99   63.29
   3   3  -4 1200.28   64.89
   3   3  -4 1064.49   62.19
   3   3  -4 1132.59   62.69
   3   3  -4 1090.69   61.89
  -3  -3   4 1095.89   63.59
  -3  -3   4 1142.69   63.59
  -3  -3   4 1151.48   62.89
  -3  -3   4 1090.99   63.69
  -3  -3   4 1178.38   64.19
  -3  -3   4 1092.89   64.49
  -2  -3   4 8146.58  497.45
  -2  -3   4 9999.00  497.55
  -1  -3   4 6687.03  375.36
  -1  -3   4 6619.64  374.16
  -1  -3   4 7171.28  374.06
   0   3  -4 1234.68   61.69
   0  -3   4 1002.90   63.09
   0  -3   4 1039.80   61.49
   0  -3   4 1209.48   61.99
   0  -3   4 1016.00   61.39
   0  -3   4 1116.59   61.89
  -1   3  -4  611.54   32.90
   1  -3   4  539.55   32.50
   1  -3   4  537.55   32.20
   1  -3   4  550.24   32.00
   1  -3   4  545.25   34.70
   1  -3   4  558.04   32.50
   1  -3   4  624.94   33.10
  -2   3  -4  169.78   11.40
  -2   3  -4  187.58   13.20
  -2   3  -4  193.08   13.50
  -2   3  -4  168.28   11.30
   2  -3   4  221.38   15.70
   2  -3   4  192.38   12.00
   2  -3   4  206.88   12.10
   2  -3   4  199.08   11.80
   2  -3   4  216.58   13.00
  -3   3  -4 3540.05  191.68
  -3   3  -4 3753.72  193.88
  -3   3  -4 3817.12  194.18
  -3   3  -4 3179.98  190.88
  -3   3  -4 3114.79  192.48
  -3   3  -4 3109.19  190.78
   3  -3   4 3666.43  193.48
   3  -3   4 3656.33  193.58
   3  -3   4 3655.63  197.18
   3  -3   4 3705.03  193.28
   3  -3   4 3065.79  191.48
  -4   3  -4  681.03   40.10
  -4   3  -4  676.33   41.30
  -4   3  -4  714.13   39.00
  -4   3  -4  699.23   41.10
   4  -3   4  640.84   40.60
   4  -3   4  638.04   44.00
   4  -3   4  643.14   40.00
   4  -3   4  600.24   39.80
  -5   3  -4  281.87   18.60
  -5   3  -4  291.17   20.30
  -5   3  -4  278.17   20.60
  -5   3  -4  282.87   20.00
   5  -3   4  246.18   19.20
   5  -3   4  276.87   23.70
   5  -3   4  274.67   19.60
  -6   3  -4  598.54   35.00
  -6   3  -4  549.15   36.10
  -6   3  -4  565.64   36.80
   6  -3   4  560.54   35.60
   7   2  -4   35.60    5.30
   7   2  -4   31.50    6.80
   7   2  -4   31.80    4.40
  -7  -2   4   24.70    5.50
  -7  -2   4   31.50    7.00
   6   2  -4  228.38   22.30
   6   2  -4  238.68   15.90
   6   2  -4  265.97   18.10
   6   2  -4  251.97   19.00
   6   2  -4  241.28   16.10
  -6  -2   4  257.87   19.90
  -6  -2   4  269.77   19.20
   5   2  -4 2608.64  148.49
   5   2  -4 2688.23  151.18
   5   2  -4 2736.73  149.59
   5   2  -4 2626.44  149.79
   5   2  -4 2568.14  153.88
  -5  -2   4 2645.04  150.18
  -5  -2   4 2865.01  151.88
  -5  -2   4 2723.43  149.88
  -5  -2   4 2636.04  150.68
  -5  -2   4 2696.03  149.39
   4   2  -4 2932.91  169.18
   4   2  -4 3077.29  168.28
   4   2  -4 2834.72  167.68
   4   2  -4 3105.59  170.68
   4   2  -4 3050.59  168.38
  -4  -2   4 3085.29  169.18
  -4  -2   4 3186.48  170.28
  -4  -2   4 2747.72  172.38
  -4  -2   4 3197.58  168.98
  -4  -2   4 3294.17  169.38
   3   2  -4 1430.26   77.49
   3   2  -4 1441.76   79.59
   3   2  -4 1356.16   77.99
   3   2  -4 1211.88   76.79
   3   2  -4 1459.15   77.69
  -3  -2   4 1382.16   79.19
  -3  -2   4 1334.47   78.29
  -3  -2   4 1399.66   78.79
  -3  -2   4 1443.06   78.49
  -3  -2   4 1449.65   77.59
  -3  -2   4 1453.25   77.79
   2   2  -4 3475.75  176.68
  -2  -2   4 3107.49  176.18
  -2  -2   4 3175.18  175.58
  -2  -2   4 2967.40  175.68
   1   2  -4  667.43   36.30
   1   2  -4  606.94   35.90
  -1  -2   4  606.74   37.60
  -1  -2   4  641.74   37.10
  -1  -2   4  675.13   36.80
  -1  -2   4  680.33   37.20
  -1  -2   4  689.53   37.00
  -1  -2   4  641.84   37.00
   1  -2   4 5781.42  339.67
   1  -2   4 6630.34  340.47
  -2   2  -4  734.63   41.20
  -2   2  -4  769.42   42.80
  -2   2  -4  689.73   41.10
  -2   2  -4  756.12   42.60
  -2   2  -4  719.63   41.20
   2  -2   4  730.53   42.20
   2  -2   4  782.82   42.60
   2  -2   4  721.43   42.20
   2  -2   4  707.53   44.60
  -3   2  -4 1455.45   78.39
  -3   2  -4 1325.27   75.89
  -3   2  -4 1429.36   82.79
  -3   2  -4 1339.57   76.29
  -3   2  -4 1423.16   77.59
  -3   2  -4 1291.07   75.69
   3  -2   4 1370.46   80.59
   3  -2   4 1367.06   77.39
   3  -2   4 1259.17   81.49
   3  -2   4 1375.16   77.69
  -4   2  -4 3084.09  187.78
  -4   2  -4 3347.87  191.18
  -4   2  -4 3441.86  190.88
  -4   2  -4 3487.45  190.48
  -4   2  -4 3484.85  189.08
  -4   2  -4 3089.09  187.88
   4  -2   4 3545.35  190.88
   4  -2   4 3534.45  190.28
   4  -2   4 3533.45  190.08
   4  -2   4 3552.74  194.38
  -5   2  -4  615.34   37.90
  -5   2  -4  613.94   38.10
  -5   2  -4  610.44   36.20
  -5   2  -4  587.74   38.00
   5  -2   4  601.04   37.10
   5  -2   4  590.74   37.90
   5  -2   4  550.44   36.70
   5  -2   4  610.04   41.20
  -6   2  -4  613.24   37.20
  -6   2  -4  588.74   39.00
  -6   2  -4  599.54   38.90
   6  -2   4  642.54   38.10
   7   1  -4  186.98   17.10
   7   1  -4  208.88   12.90
  -7  -1   4  174.88   15.40
  -7  -1   4  160.48   14.60
   6   1  -4  212.38   14.20
   6   1  -4  190.78   13.60
   6   1  -4  210.58   16.50
   6   1  -4  195.88   15.10
  -6  -1   4  215.08   16.80
  -6  -1   4  227.18   15.60
  -6  -1   4  237.28   17.60
   5   1  -4 2077.29  110.59
   5   1  -4 2067.19  111.19
   5   1  -4 2031.30  111.79
   5   1  -4 2085.69  113.09
   5   1  -4 1938.71  110.39
   5   1  -4 1964.50  115.89
  -5  -1   4 1765.92  111.19
  -5  -1   4 1822.32  110.29
  -5  -1   4 2010.70  112.89
  -5  -1   4 2078.69  113.39
   4   1  -4 1492.15   84.19
   4   1  -4 1439.06   84.09
   4   1  -4 1642.54   88.09
   4   1  -4 1540.15   85.09
   4   1  -4 1601.24   84.39
   4   1  -4 1542.85   84.69
  -4  -1   4 1343.27   83.99
  -4  -1   4 1463.45   84.59
  -4  -1   4 1548.45   86.29
  -4  -1   4 1487.85   84.69
  -4  -1   4 1538.25   86.09
   3   1  -4 1171.68   63.89
   3   1  -4 1171.68   62.19
   3   1  -4 1167.38   60.39
   3   1  -4 1063.69   60.59
   3   1  -4 1122.59   60.29
  -3  -1   4 1048.50   61.49
  -3  -1   4 1035.50   60.79
  -3  -1   4 1101.99   60.39
  -3  -1   4 1011.70   61.49
  -3  -1   4 1075.79   60.29
  -3  -1   4  932.71   59.99
  -3  -1   4 1065.59   60.99
   2   1  -4  993.70   57.99
   2   1  -4 1245.48   58.09
  -2  -1   4  923.01   58.59
  -2  -1   4  994.20   58.89
  -2  -1   4 1041.80   58.99
  -2  -1   4 1036.00   58.99
  -2  -1   4 1083.49   58.79
   0   1  -4  416.46   26.10
   0   1  -4  462.05   26.60
   0   1  -4  410.26   26.20
   0   1  -4  474.25   26.70
   0  -1   4  477.25   26.70
   0  -1   4  492.25   26.50
   0  -1   4  510.35   27.10
   0  -1   4  512.65   26.90
   0  -1   4  455.95   28.20
   0  -1   4  523.65   27.50
   1  -1   4 2616.44  146.69
   1  -1   4 2855.21  146.99
   1  -1   4 2577.74  148.59
   1  -1   4 2738.03  146.59
   1  -1   4 2520.75  147.09
  -2   1  -4 3568.24  197.18
  -2   1  -4 3467.45  197.18
  -2   1  -4 3437.06  196.98
   2  -1   4 3642.04  200.28
   2  -1   4 3781.92  198.18
   2  -1   4 3609.84  198.48
  -3   1  -4 1080.89   59.09
  -3   1  -4 1032.70   57.59
  -3   1  -4 1157.68   60.29
  -3   1  -4  994.40   57.29
  -3   1  -4 1041.40   57.79
   3  -1   4  988.50   58.89
   3  -1   4 1001.60   58.49
   3  -1   4  965.80   58.99
   3  -1   4 1031.70   58.19
   3  -1   4  976.90   58.39
   3  -1   4  947.31   60.99
  -4   1  -4 2417.76  131.49
  -4   1  -4 2281.57  129.29
  -4   1  -4 2377.76  129.89
  -4   1  -4 2200.38  128.89
  -4   1  -4 2274.57  131.69
  -4   1  -4 2333.87  131.49
   4  -1   4 2332.97  130.69
   4  -1   4 2302.47  134.09
   4  -1   4 2326.77  130.49
   4  -1   4 2382.56  131.59
  -5   1  -4  190.08   14.90
  -5   1  -4  192.28   13.80
  -5   1  -4  181.18   15.00
  -5   1  -4  204.08   15.80
  -5   1  -4  174.68   12.30
  -5   1  -4  176.48   12.50
   5  -1   4  183.28   15.00
   5  -1   4  173.48   14.00
   5  -1   4  172.28   13.50
   5  -1   4  179.28   16.90
  -6   1  -4   70.49    9.60
  -6   1  -4   60.59    8.50
  -6   1  -4   66.39    7.50
   6  -1   4   84.69    8.50
   6  -1   4   91.39    9.50
   7   0  -4  148.79   11.50
  -7   0   4  176.88   14.60
  -7   0   4  176.28   14.60
   6   0  -4  796.92   47.00
   6   0  -4  772.62   51.29
   6   0  -4  810.72   47.80
  -6   0   4  716.83   45.20
  -6   0   4  804.92   48.30
  -6   0   4  776.82   46.70
  -6   0   4  808.42   48.40
   5   0  -4 1366.06   78.09
   5   0  -4 1279.47   76.59
   5   0  -4 1423.36   79.09
   5   0  -4 1381.16   77.89
  -5   0   4 1434.16   79.49
  -5   0   4 1403.26   78.29
  -5   0   4 1352.36   77.89
  -5   0   4 1308.97   76.89
   4   0  -4 1506.95   90.19
   4   0  -4 1760.82   95.79
   4   0  -4 1503.55   90.59
   4   0  -4 1663.43   92.49
   4   0  -4 1708.93   90.89
   4   0  -4 1576.14   91.49
   4   0  -4 1592.54   91.59
  -4   0   4 1678.63   92.59
  -4   0   4 1588.64   90.79
  -4   0   4 1656.33   91.39
  -4   0   4 1700.13   92.69
  -4   0   4 1674.93   91.59
  -4   0   4 1606.84   90.59
   3   0  -4  801.42   44.90
   3   0  -4  725.03   45.10
   3   0  -4  788.92   46.40
   3   0  -4  840.82   48.50
   3   0  -4  708.63   44.70
  -3   0   4  850.11   46.20
  -3   0   4  859.01   46.40
  -3   0   4  896.91   45.40
  -3   0   4  833.62   45.00
  -3   0   4  694.63   45.10
   2   0  -4 1491.65   81.39
   2   0  -4 1389.76   81.29
   2   0  -4 1625.34   84.29
   2   0  -4 1462.25   82.79
  -2   0   4 1449.06   82.29
  -2   0   4 1386.56   81.69
  -2   0   4 1563.04   81.99
  -2   0   4 1413.36   82.19
   1   0  -4 1503.15   87.89
   1   0  -4 1726.33   89.89
   1   0  -4 1480.15   87.79
  -1   0   4 1510.65   88.79
  -1   0   4 1730.03   88.19
  -1   0   4 1605.04   87.99
  -1   0   4 1561.54   88.59
  -1   0   4 1651.73   87.79
   0   0  -4 4551.14  250.67
  -2   0  -4  205.68   13.00
  -2   0  -4  203.28   13.20
  -2   0  -4  195.88   11.90
  -2   0  -4  184.88   11.60
   2   0   4  167.08   11.90
   2   0   4  170.48   12.70
   2   0   4  171.48   13.80
  -3   0  -4   61.99    5.70
  -3   0  -4   63.19    6.90
  -3   0  -4   57.69    5.30
  -3   0  -4   64.59    7.10
  -3   0  -4   59.19    5.70
  -3   0  -4   57.59    6.70
   3   0   4   59.79    5.90
   3   0   4   58.19    6.10
   3   0   4   58.79    6.60
   3   0   4   57.59    5.80
   3   0   4   58.09    7.80
  -4   0  -4 1982.60  109.09
  -4   0  -4 1913.81  107.19
  -4   0  -4 1910.31  106.99
  -4   0  -4 1834.02  109.19
  -4   0  -4 1920.31  108.89
  -4   0  -4 1875.01  106.59
   4   0   4 1934.31  107.89
   4   0   4 1906.61  108.69
   4   0   4 1860.41  108.59
   4   0   4 1826.22  110.39
   4   0   4 1994.90  107.89
  -5   0  -4  860.61   50.39
  -5   0  -4  829.52   52.79
  -5   0  -4  889.31   51.69
  -5   0  -4  923.21   53.89
  -5   0  -4  845.92   50.69
  -6   0  -4  187.58   16.50
  -6   0  -4  187.18   13.80
  -6   0  -4  181.28   15.00
   6   0   4  202.88   15.50
   6   0   4  197.28   14.60
  -7   1   4  180.88   14.60
  -7   1   4  172.98   15.20
   6  -1  -4 1092.29   57.79
   6  -1  -4 1100.49   59.29
   6  -1  -4 1107.29   59.49
   6  -1  -4  994.60   64.09
  -6   1   4  903.91   59.19
  -6   1   4  942.81   59.09
  -6   1   4  911.41   57.39
  -6   1   4  991.50   59.69
  -6   1   4  984.70   60.29
   5  -1  -4  858.41   53.69
   5  -1  -4 1027.50   60.79
   5  -1  -4 1003.80   55.89
   5  -1  -4  999.10   55.79
   5  -1  -4  992.70   54.39
  -5   1   4  927.21   55.99
  -5   1   4  966.90   56.69
  -5   1   4  925.11   54.29
  -5   1   4  919.71   55.49
  -5   1   4  896.11   55.09
   4  -1  -4  704.33   42.70
   4  -1  -4  685.03   43.00
   4  -1  -4  783.22   44.70
   4  -1  -4  868.51   46.30
  -4   1   4  794.82   45.30
  -4   1   4  743.03   44.10
  -4   1   4  759.52   44.70
  -4   1   4  748.83   43.50
  -4   1   4  773.12   44.50
   3  -1  -4  125.19    9.80
  -3   1   4  143.19    9.60
  -3   1   4  140.79    9.10
  -3   1   4  142.69    9.90
  -3   1   4  141.49   10.30
   2  -1  -4 1069.49   63.39
   2  -1  -4 1076.99   63.09
   2  -1  -4 1159.38   63.49
   2  -1  -4 1268.17   67.09
  -2   1   4 1122.49   63.49
  -2   1   4 1155.78   64.39
   1  -1  -4   12.10    1.80
   1  -1  -4   13.10    1.90
   1  -1  -4   16.00    3.20
  -1   1   4   19.70    2.80
  -1   1   4   16.70    2.00
   0  -1  -4 1337.97   71.19
   0  -1  -4 1203.68   68.89
   0  -1  -4 1191.28   68.49
   0  -1  -4 1239.18   69.29
   0  -1  -4 1251.57   68.99
   0  -1  -4 1227.88   68.79
   0   1   4 1336.87   69.19
   0   1   4 1169.78   70.19
   0   1   4 1243.98   69.79
   0   1   4 1260.87   69.29
   0   1   4 1186.88   68.69
   0   1   4 1234.98   69.69
   1   1   4 3662.03  213.08
   1   1   4 4108.39  213.08
   1   1   4 3942.01  212.58
   1   1   4 3667.73  210.98
  -2  -1  -4   70.49    6.00
  -2  -1  -4   63.49    4.60
  -2  -1  -4   72.79    6.80
  -2  -1  -4   69.19    6.60
  -2  -1  -4   63.69    5.70
  -2  -1  -4   72.39    5.70
  -3  -1  -4  371.96   23.90
  -3  -1  -4  397.06   25.30
  -3  -1  -4  376.16   25.10
  -3  -1  -4  382.96   23.70
  -3  -1  -4  369.86   25.40
  -3  -1  -4  397.86   24.10
   3   1   4  409.76   24.40
   3   1   4  404.66   25.40
   3   1   4  409.66   26.30
  -4  -1  -4   89.89   10.00
  -4  -1  -4   84.89    9.40
  -4  -1  -4   79.29    7.70
  -4  -1  -4   89.49    8.20
  -4  -1  -4   84.49    8.20
  -4  -1  -4   83.29    9.90
  -4  -1  -4   89.99    8.40
   4   1   4  115.29   10.20
   4   1   4  108.29    9.90
   4   1   4  103.69   10.20
   4   1   4  111.29    9.00
  -5  -1  -4  199.98   14.50
  -5  -1  -4  180.38   16.00
  -5  -1  -4  220.58   17.20
  -5  -1  -4  188.68   14.20
  -5  -1  -4  188.38   14.00
  -5  -1  -4  191.38   14.90
   5   1   4  201.88   15.10
   5   1   4  200.98   16.00
  -6  -1  -4   53.49    9.00
  -6  -1  -4   40.60    5.80
  -6  -1  -4   48.70    5.50
  -6  -1  -4   40.60    6.20
   6   1   4   31.90    8.80
   6   1   4   45.00    7.40
   7  -2  -4  534.15   32.90
   7  -2  -4  471.05   37.70
   7  -2  -4  562.64   34.60
  -7   2   4  601.14   36.30
  -7   2   4  545.45   33.00
  -7   2   4  595.04   34.80
   6  -2  -4  767.82   45.20
   6  -2  -4  826.72   47.30
  -6   2   4  770.42   45.30
  -6   2   4  805.42   46.80
  -6   2   4  697.63   46.20
   5  -2  -4  103.69    7.80
   5  -2  -4  109.29    8.80
   5  -2  -4  103.39    8.90
   5  -2  -4  110.29   13.00
   5  -2  -4  117.39   10.20
   5  -2  -4  109.59    8.80
  -5   2   4  111.59    8.70
  -5   2   4  102.19    9.50
  -5   2   4  119.99    9.90
  -5   2   4  117.09   10.70
  -5   2   4  114.09    9.70
   4  -2  -4 1560.84   90.89
   4  -2  -4 1444.56   85.89
   4  -2  -4 1614.84   86.19
   4  -2  -4 1498.45   84.99
   4  -2  -4 1483.15   83.99
  -4   2   4 1494.85   85.69
  -4   2   4 1513.05   84.49
  -4   2   4 1489.05   86.19
  -4   2   4 1465.65   85.09
   3  -2  -4 3154.38  172.58
   3  -2  -4 3107.69  173.68
   3  -2  -4 3305.17  177.48
   3  -2  -4 3141.39  172.08
   3  -2  -4 3050.99  171.68
   3  -2  -4 3317.77  173.58
  -3   2   4 2934.41  171.98
  -3   2   4 2930.11  172.98
   2  -2  -4   18.30    2.50
   2  -2  -4   17.00    2.30
   2  -2  -4   20.00    4.40
   2  -2  -4   15.70    2.00
   1  -2  -4 2262.67  137.69
   1  -2  -4 2590.14  136.79
   1  -2  -4 2582.94  136.89
   1  -2  -4 2506.25  136.99
   1  -2  -4 2406.26  136.89
  -1   2   4 2500.05  136.89
  -1   2   4 2575.64  136.99
  -1   2   4 2468.45  137.69
  -1   2   4 2431.16  137.49
   0  -2  -4  751.22   42.80
   0  -2  -4  861.21   44.10
   0  -2  -4  826.02   43.20
   0  -2  -4  846.92   43.40
   0  -2  -4  779.12   43.30
   0   2   4  669.03   43.90
   0   2   4  660.53   43.50
   0   2   4  711.23   43.30
   1   2   4 8459.55  465.55
  -2  -2  -4 2290.07  125.39
  -2  -2  -4 2211.38  126.19
  -2  -2  -4 2046.80  123.99
  -2  -2  -4 2184.88  126.59
  -2  -2  -4 2147.29  124.89
  -2  -2  -4 2219.88  124.89
   2   2   4 2334.37  126.39
   2   2   4 2325.07  126.59
   2   2   4 2143.99  124.19
   2   2   4 2361.26  127.09
   2   2   4 2447.96  125.69
  -3  -2  -4   49.10    5.80
  -3  -2  -4   55.19    6.20
  -3  -2  -4   52.99    5.70
  -3  -2  -4   51.49    6.70
  -3  -2  -4   51.79    6.90
  -3  -2  -4   56.49    7.10
   3   2   4   55.29    7.10
   3   2   4   58.49    7.30
   3   2   4   52.89    6.40
   3   2   4   45.50    4.70
  -4  -2  -4   51.59    6.10
  -4  -2  -4   52.79    7.70
  -4  -2  -4   51.59    6.40
  -4  -2  -4   51.19    5.90
  -4  -2  -4   54.09    6.70
   4   2   4   51.89    7.40
   4   2   4   48.50    6.60
   4   2   4   53.89    6.50
   4   2   4   50.79    7.40
  -5  -2  -4  650.03   39.10
  -5  -2  -4  585.74   35.60
  -5  -2  -4  637.64   36.40
  -5  -2  -4  616.44   36.80
  -5  -2  -4  569.94   36.20
  -5  -2  -4  568.14   35.70
   5   2   4  559.04   36.30
   5   2   4  602.74   36.90
   5   2   4  569.74   37.70
  -6  -2  -4  143.49   11.20
  -6  -2  -4  168.48   13.80
   6   2   4  156.78   12.80
   6   2   4  152.18   12.10
   7  -3  -4   13.10    3.90
   7  -3  -4   16.90    7.00
   7  -3  -4   18.20    5.20
  -7   3   4   18.40    3.90
   6  -3  -4  184.68   19.00
   6  -3  -4  214.58   15.90
   6  -3  -4  214.28   15.50
   6  -3  -4  204.88   13.80
  -6   3   4  168.38   13.40
  -6   3   4  170.28   15.60
   5  -3  -4   14.30    4.30
   5  -3  -4    6.20    4.00
  -5   3   4    7.60    4.10
  -5   3   4    7.40    2.90
  -5   3   4    5.90    2.60
  -5   3   4    6.20    3.20
   4  -3  -4  736.23   42.30
   4  -3  -4  754.72   49.50
   4  -3  -4  785.92   44.60
   4  -3  -4  730.43   43.90
   4  -3  -4  688.83   41.70
   4  -3  -4  752.62   42.80
  -4   3   4  714.63   42.60
  -4   3   4  710.23   44.00
   3  -3  -4  572.04   33.60
   3  -3  -4  557.84   33.50
   3  -3  -4  608.34   35.60
   3  -3  -4  640.34   36.50
   3  -3  -4  619.84   34.90
   3  -3  -4  603.94   34.60
  -3   3   4  590.54   35.70
  -3   3   4  585.84   34.60
   2  -3  -4 6353.16  375.46
   2  -3  -4 7590.14  374.86
   2  -3  -4 6202.08  376.66
   2  -3  -4 7171.98  374.16
   2  -3  -4 6601.84  374.36
  -2   3   4 7012.90  375.26
   1  -3  -4  342.67   21.70
   1  -3  -4  315.77   21.90
   1  -3  -4  372.86   26.20
   1  -3  -4  340.67   21.90
  -1   3   4  406.66   22.10
  -1   3   4  408.46   22.60
  -1   3   4  413.66   23.40
   0  -3  -4  794.32   42.60
   0  -3  -4  709.73   42.50
   0  -3  -4  856.51   47.00
   0  -3  -4  742.63   42.20
   0  -3  -4  765.92   42.20
   0   3   4  705.83   43.10
   0   3   4  639.04   43.00
   0   3   4  704.53   42.00
   0   3   4  752.72   42.60
   0   3   4  713.73   43.40
  -1  -3  -4 1987.50  104.29
  -1  -3  -4 1746.33  103.59
  -1  -3  -4 1867.01  103.79
  -1  -3  -4 1835.82  104.89
  -1  -3  -4 1809.92  102.79
  -1  -3  -4 1772.72  103.49
  -1  -3  -4 1822.72  104.09
   1   3   4 1775.52  104.79
   1   3   4 2020.20  104.39
   1   3   4 1945.91  105.49
   1   3   4 1834.92  103.39
   1   3   4 1887.81  105.09
  -2  -3  -4  302.27   19.50
  -2  -3  -4  288.37   17.70
  -2  -3  -4  308.87   18.10
  -2  -3  -4  305.87   18.50
  -2  -3  -4  294.27   17.10
   2   3   4  237.98   16.90
   2   3   4  254.97   18.20
   2   3   4  254.27   19.20
   2   3   4  240.88   18.80
  -3  -3  -4 1564.04   93.59
  -3  -3  -4 1426.46   86.89
  -3  -3  -4 1582.74   87.69
  -3  -3  -4 1554.54   88.99
  -3  -3  -4 1569.34   88.09
   3   3   4 1369.46   85.99
   3   3   4 1599.34   89.39
   3   3   4 1588.44   89.29
   3   3   4 1620.74   88.19
  -4  -3  -4  553.34   34.80
  -4  -3  -4  575.24   33.20
  -4  -3  -4  496.65   32.00
  -4  -3  -4  552.14   33.50
  -4  -3  -4  545.75   33.10
  -4  -3  -4  482.95   34.20
   4   3   4  522.05   33.10
   4   3   4  526.55   34.50
   4   3   4  535.15   34.60
  -5  -3  -4  208.98   17.10
  -5  -3  -4  221.48   16.10
  -5  -3  -4  235.98   16.80
  -5  -3  -4  228.68   15.80
   5   3   4  228.18   16.10
   5   3   4  208.68   15.70
   5   3   4  212.28   16.80
   7  -4  -4  493.75   32.00
  -7   4   4  522.65   30.70
  -7   4   4  503.85   32.70
  -7   4   4  505.45   31.30
   6  -4  -4   15.80    6.10
   6  -4  -4   19.40    4.10
   6  -4  -4   23.10    5.50
   6  -4  -4    9.90    5.70
  -6   4   4   25.30    6.10
  -6   4   4   22.70    4.30
   5  -4  -4    6.20    3.10
   5  -4  -4    6.10    2.60
   5  -4  -4    7.90    6.50
   5  -4  -4   10.20    3.30
   5  -4  -4   11.30    2.70
   5  -4  -4   11.40    4.70
  -5   4   4    6.80    2.90
  -5   4   4    2.80    3.00
  -5   4   4    7.50    3.80
   4  -4  -4 4387.76  235.98
   4  -4  -4 4223.68  242.58
   4  -4  -4 4236.98  233.88
   4  -4  -4 4188.38  233.48
   4  -4  -4 4176.48  235.18
  -4   4   4 4183.28  234.98
  -4   4   4 4306.27  233.68
  -4   4   4 4092.99  235.98
   3  -4  -4 1334.47   79.89
   3  -4  -4 1288.87   72.99
   3  -4  -4 1337.07   73.69
   3  -4  -4 1328.97   72.09
   3  -4  -4 1395.56   72.99
  -3   4   4 1110.79   75.99
  -3   4   4 1172.18   72.89
  -3   4   4 1164.28   71.59
   2  -4  -4 1232.88   68.29
   2  -4  -4 1123.79   65.79
   2  -4  -4 1282.77   74.19
   2  -4  -4 1132.99   65.99
  -2   4   4 1114.09   66.89
  -2   4   4 1180.18   66.99
  -2   4   4 1168.98   66.69
  -2   4   4 1199.78   68.19
   1  -4  -4  536.05   31.50
   1  -4  -4  553.54   32.30
   1  -4  -4  510.95   31.70
   1  -4  -4  528.75   31.20
   1  -4  -4  578.24   37.60
  -1   4   4  526.05   32.90
  -1   4   4  527.45   31.90
   0  -4  -4 1745.93   94.19
   0  -4  -4 1806.92   94.69
   0  -4  -4 1788.22   94.79
   0  -4  -4 1697.73   93.99
   0   4   4 1731.13   94.69
   0   4   4 1620.44   95.49
   0   4   4 1415.06   94.69
   0   4   4 1640.54   95.79
   0   4   4 1693.53   94.79
  -1  -4  -4 2034.90  117.39
  -1  -4  -4 2172.98  118.09
  -1  -4  -4 2035.30  116.39
  -1  -4  -4 1916.71  117.39
  -1  -4  -4 2177.68  117.59
   1   4   4 2162.18  119.49
   1   4   4 2073.59  117.09
   1   4   4 2179.08  118.19
   1   4   4 2155.78  119.19
  -2  -4  -4  949.60   56.59
  -2  -4  -4 1062.29   58.29
  -2  -4  -4  985.20   59.09
  -2  -4  -4 1060.59   57.79
  -2  -4  -4  957.30   58.09
   2   4   4  987.40   57.99
   2   4   4  999.10   59.19
   2   4   4 1007.40   59.39
   2   4   4  929.21   56.49
  -3  -4  -4  772.82   50.79
  -3  -4  -4  920.11   54.09
  -3  -4  -4  806.72   50.29
  -3  -4  -4  837.62   49.99
   3   4   4  913.31   53.79
   3   4   4  844.82   49.80
   3   4   4  897.01   53.99
   3   4   4  709.03   47.60
  -4  -4  -4  247.88   17.60
  -4  -4  -4  236.58   17.20
  -4  -4  -4  262.87   17.40
  -4  -4  -4  230.28   17.80
   4   4   4  240.08   18.50
   4   4   4  225.38   16.90
  -5  -4  -4  131.59   11.00
  -5  -4  -4  116.29   10.20
   5   4   4  124.69   11.10
   5   4   4  135.49   10.60
   6  -5  -4  296.27   21.10
  -6   5   4  275.27   20.50
  -6   5   4  313.77   20.90
  -6   5   4  293.47   19.40
   5  -5  -4 1182.08   68.19
   5  -5  -4 1189.08   75.79
   5  -5  -4 1181.68   70.59
   5  -5  -4 1108.69   68.59
  -5   5   4 1159.28   69.89
  -5   5   4 1304.67   69.19
  -5   5   4 1245.98   70.69
   4  -5  -4  371.76   23.40
   4  -5  -4  363.16   24.20
   4  -5  -4  364.76   24.80
   4  -5  -4  377.16   22.70
  -4   5   4  320.97   23.10
  -4   5   4  348.97   22.60
  -4   5   4  346.57   24.20
  -4   5   4  340.37   22.80
   3  -5  -4 2043.00  124.79
   3  -5  -4 2117.09  117.89
   3  -5  -4 2149.48  116.99
   3  -5  -4 2064.49  117.09
  -3   5   4 2024.90  116.09
  -3   5   4 2080.29  115.89
  -3   5   4 2176.58  117.99
  -3   5   4 1864.11  115.69
   2  -5  -4  838.62   54.19
   2  -5  -4  848.02   54.79
   2  -5  -4  905.31   54.69
   2  -5  -4  910.31   61.19
  -2   5   4 1002.90   54.49
  -2   5   4 1011.30   53.99
  -2   5   4 1013.40   55.89
   1  -5  -4  985.00   57.59
   1  -5  -4  937.01   58.39
   1  -5  -4 1054.09   58.99
   1  -5  -4  995.30   58.19
   1  -5  -4 1081.39   65.59
  -1   5   4 1015.00   57.89
  -1   5   4  856.81   58.59
  -1   5   4 1129.09   61.49
  -1   5   4 1043.10   59.89
   0  -5  -4  758.92   46.40
   0  -5  -4  733.83   46.00
   0  -5  -4  724.23   45.70
   0  -5  -4  694.33   45.30
   0   5   4  856.31   48.30
   0   5   4  831.82   45.90
   0   5   4  851.51   48.10
   0   5   4  855.11   47.00
  -1  -5  -4   70.89    6.10
  -1  -5  -4   74.19    7.70
  -1  -5  -4   74.49    7.40
  -1  -5  -4   75.19    7.10
   1   5   4   79.99    9.20
   1   5   4   79.19    9.00
   1   5   4   76.99    7.00
   1   5   4   78.39    8.10
  -2  -5  -4  647.14   42.50
  -2  -5  -4  636.64   40.30
  -2  -5  -4  645.54   39.10
   2   5   4  665.23   38.90
   2   5   4  718.63   40.70
  -3  -5  -4  101.79    9.60
  -3  -5  -4   94.89    8.80
  -3  -5  -4   96.49    9.10
  -3  -5  -4   94.49    8.90
   3   5   4   75.89    9.30
   3   5   4   73.49    8.40
   3   5   4   76.69    9.30
   3   5   4   69.29    6.90
  -4  -5  -4   62.79    7.50
  -4  -5  -4   64.69    7.30
  -4  -5  -4   64.29    7.60
   4   5   4   77.19    8.50
   4   5   4   74.69    8.20
   4   5   4   71.19    7.40
   6  -6  -4   87.09    9.00
  -6   6   4   97.99    8.10
  -6   6   4   96.29    9.40
   5  -6  -4   34.80    6.20
   5  -6  -4   33.20    4.90
  -5   6   4   35.30    5.00
  -5   6   4   40.30    6.80
  -5   6   4   36.80    5.10
   4  -6  -4  277.97   20.00
   4  -6  -4  277.57   26.40
   4  -6  -4  261.67   20.60
   4  -6  -4  268.87   19.30
  -4   6   4  297.47   18.90
  -4   6   4  281.77   20.70
   3  -6  -4  270.17   18.60
   3  -6  -4  242.78   23.80
   3  -6  -4  231.88   17.60
   3  -6  -4  270.77   17.80
  -3   6   4  218.68   16.70
  -3   6   4  201.18   16.20
  -3   6   4  212.08   17.70
   2  -6  -4 1702.83  104.99
   2  -6  -4 1795.62   97.29
   2  -6  -4 1669.73   96.29
   2  -6  -4 1623.14   95.69
   2  -6  -4 1519.15   96.39
  -2   6   4 1814.32   98.19
  -2   6   4 1714.83   96.29
   1  -6  -4   91.39    7.90
   1  -6  -4   98.59    9.20
   1  -6  -4   88.19    8.00
   1  -6  -4   93.89    7.50
   1  -6  -4   98.09    9.40
  -1   6   4   91.99    8.10
  -1   6   4  100.49   10.40
  -1   6   4   99.79    9.10
   0  -6  -4    5.00    2.80
   0  -6  -4   12.50    4.40
   0  -6  -4   10.40    4.70
   0  -6  -4    6.70    2.80
   0  -6  -4   10.60    2.70
   0   6   4    7.20    6.10
   0   6   4    6.50    3.00
   0   6   4    4.70    2.50
   0   6   4   13.60    6.60
  -1  -6  -4   26.10    4.50
  -1  -6  -4   30.80    6.30
  -1  -6  -4   34.20    5.20
  -1  -6  -4   28.90    5.30
   1   6   4   25.10    6.20
   1   6   4   28.40    5.40
   1   6   4   27.80    4.50
  -2  -6  -4  978.10   56.99
  -2  -6  -4  960.40   56.09
  -2  -6  -4  949.11   57.39
  -2  -6  -4 1016.60   58.59
   2   6   4  987.20   58.79
   2   6   4  964.50   57.49
   2   6   4 1014.00   58.89
   2   6   4  916.81   55.69
  -3  -6  -4  244.08   17.80
  -3  -6  -4  252.37   16.80
  -3  -6  -4  242.58   17.20
   3   6   4  236.48   18.10
   3   6   4  239.08   17.70
   3   6   4  223.68   16.70
   5  -7  -4  121.59    9.70
   5  -7  -4  121.39   10.90
  -5   7   4  133.19   10.00
   4  -7  -4   18.80    4.60
   4  -7  -4   21.60    5.10
  -4   7   4   20.00    4.00
  -4   7   4   17.80    4.00
  -4   7   4   22.50    5.80
   3  -7  -4   77.39    8.40
   3  -7  -4   61.49    7.50
  -3   7   4   82.39    9.40
  -3   7   4   73.59    7.30
  -3   7   4   72.89    7.70
   2  -7  -4   47.50    5.90
   2  -7  -4   61.59    7.40
   2  -7  -4   47.40    5.70
  -2   7   4   45.30    6.10
  -2   7   4   43.80    5.60
  -2   7   4   39.80    7.40
   1  -7  -4  495.65   31.90
   1  -7  -4  546.15   33.40
   1  -7  -4  480.65   32.70
  -1   7   4  517.35   32.90
  -1   7   4  549.05   34.60
  -1   7   4  551.24   32.20
  -1   7   4  541.15   34.60
   0  -7  -4  211.28   14.30
   0  -7  -4  200.08   14.90
   0  -7  -4  192.38   13.20
   0   7   4  166.68   14.80
   0   7   4  162.38   12.70
   0   7   4  160.98   13.60
   0   7   4  170.28   15.20
  -1  -7  -4   63.49    8.20
  -1  -7  -4   69.79    7.10
  -1  -7  -4   65.29    8.00
  -1  -7  -4   58.79    6.80
   1   7   4   80.49    8.90
   1   7   4   71.79    7.50
   1   7   4   74.89    8.80
   1   7   4   69.89    7.70
  -2  -7  -4   96.99    9.70
  -2  -7  -4   93.89    9.10
  -2  -7  -4   83.99    8.00
   2   7   4  100.69    9.70
   2   7   4   94.89    9.70
   2   7   4  109.49    9.90
   3  -8  -4  293.37   19.40
   3  -8  -4  272.27   18.60
  -3   8   4  270.37   19.80
  -3   8   4  275.57   18.20
  -3   8   4  295.47   20.60
   2  -8  -4  236.98   15.60
   2  -8  -4  204.98   14.20
  -2   8   4  200.48   16.10
  -2   8   4  198.88   14.00
  -2   8   4  194.48   15.80
  -2   8   4  184.68   15.00
   1  -8  -4  103.59    9.10
   1  -8  -4   93.09    8.60
   1  -8  -4   90.29    8.40
  -1   8   4   98.09    9.30
  -1   8   4   91.19    7.90
  -1   8   4   91.29    9.60
   2   9  -5  232.68   15.60
  -2  -9   5  174.98   16.60
  -2  -9   5  189.38   19.20
  -2  -9   5  195.58   21.80
   1   9  -5 1623.64   90.59
   1   9  -5 1604.04   93.29
  -1  -9   5 1533.95   92.69
  -1  -9   5 1694.23   93.99
  -1  -9   5 1628.94   92.79
   0   9  -5  220.68   16.80
   0  -9   5  299.67   20.00
   0  -9   5  286.27   19.60
   0  -9   5  304.37   19.70
  -1   9  -5  264.07   16.50
  -1   9  -5  255.17   17.80
   1  -9   5  244.58   18.70
   1  -9   5  294.07   19.00
   1  -9   5  279.87   19.10
   1  -9   5  258.97   18.50
  -2   9  -5  938.11   58.69
   2  -9   5  938.81   57.99
   2  -9   5 1029.40   58.39
   2  -9   5 1033.80   61.09
  -3   9  -5  777.02   43.90
  -3   9  -5  710.83   46.00
   3  -9   5  807.72   46.10
   3  -9   5  772.52   46.30
   4   8  -5  271.27   17.10
   4   8  -5  267.57   19.20
   4   8  -5  266.57   18.50
  -4  -8   5  251.77   19.10
  -4  -8   5  258.77   18.00
   3   8  -5  380.56   25.20
   3   8  -5  404.16   23.80
   3   8  -5  362.06   24.00
  -3  -8   5  388.46   26.50
  -3  -8   5  372.26   25.20
  -3  -8   5  394.06   25.80
   2   8  -5  116.29    8.70
   2   8  -5  114.19   10.40
  -2  -8   5  113.69   11.50
  -2  -8   5  102.19   10.10
  -2  -8   5   98.59   10.10
   1   8  -5 1352.96   77.29
   1   8  -5 1357.06   74.59
   1   8  -5 1244.78   74.99
  -1  -8   5 1273.37   76.59
  -1  -8   5 1297.67   76.49
  -1  -8   5 1414.96   77.99
   0   8  -5  120.89    9.40
   0  -8   5  112.69   10.40
  -1   8  -5  510.75   32.60
  -1   8  -5  491.25   33.60
   1  -8   5  556.34   33.60
   1  -8   5  581.64   33.80
   1  -8   5  534.25   33.50
  -2   8  -5 1181.28   66.59
  -2   8  -5 1221.68   64.59
   2  -8   5 1171.28   67.09
   2  -8   5 1033.70   68.49
   2  -8   5 1138.29   65.99
   2  -8   5 1128.69   67.19
  -3   8  -5  117.99    8.00
   3  -8   5   95.29   10.00
   3  -8   5  102.29    9.60
  -4   8  -5    6.70    2.10
   4  -8   5    8.70    3.20
   4  -8   5    6.60    3.60
   5   7  -5  503.45   31.30
   5   7  -5  455.15   26.90
   5   7  -5  456.35   31.70
  -5  -7   5  412.96   27.40
  -5  -7   5  394.86   28.10
   4   7  -5  554.54   31.60
   4   7  -5  485.25   32.60
  -4  -7   5  515.25   33.70
  -4  -7   5  536.45   32.90
   3   7  -5  139.09   11.70
   3   7  -5  133.89   11.20
   3   7  -5  141.89   10.00
   3   7  -5  140.39   10.50
  -3  -7   5  128.39   11.80
  -3  -7   5  123.09   11.30
  -3  -7   5  119.99   12.20
   2   7  -5   93.79    9.10
   2   7  -5   90.99    8.20
   2   7  -5  100.29    7.60
   2   7  -5   95.09    7.90
  -2  -7   5   93.59    9.20
  -2  -7   5   88.59    8.90
  -2  -7   5  103.99   10.30
   1   7  -5  839.42   46.80
   1   7  -5  810.22   47.40
   1   7  -5  844.72   49.40
  -1  -7   5  799.12   48.80
  -1  -7   5  815.12   49.50
   0   7  -5 2769.92  163.58
   0   7  -5 2875.11  163.48
   0   7  -5 2840.32  162.28
   0  -7   5 2888.91  164.28
   0  -7   5 3083.09  164.88
   0  -7   5 3060.29  164.58
   0  -7   5 3096.19  165.18
  -1   7  -5 1458.65   91.79
  -1   7  -5 1681.93   90.69
  -1   7  -5 1579.74   88.59
   1  -7   5 1676.73   91.09
   1  -7   5 1653.63   91.39
   1  -7   5 1703.93   90.89
   1  -7   5 1699.33   91.39
   1  -7   5 1447.06   92.59
   1  -7   5 1498.25   90.49
  -2   7  -5  617.54   34.80
  -2   7  -5  575.84   38.40
   2  -7   5  613.34   38.80
   2  -7   5  655.13   37.50
   2  -7   5  619.34   37.70
   2  -7   5  596.44   36.10
   2  -7   5  592.14   40.30
  -3   7  -5 1272.37   77.49
   3  -7   5 1389.06   77.29
   3  -7   5 1307.27   77.29
   3  -7   5 1310.47   82.39
  -4   7  -5   84.99    8.20
  -4   7  -5   90.39    7.00
   4  -7   5   69.09    8.80
  -5   7  -5  829.12   46.90
  -5   7  -5  792.52   49.10
   5   6  -5  209.88   13.90
   5   6  -5  196.28   13.90
   5   6  -5  189.78   14.50
  -5  -6   5  199.38   15.90
  -5  -6   5  202.88   15.50
   4   6  -5   47.60    8.60
   4   6  -5   51.79    7.30
   4   6  -5   56.39    5.80
   4   6  -5   55.29    6.10
  -4  -6   5   56.69    7.00
  -4  -6   5   60.29    7.70
   3   6  -5  501.85   29.50
   3   6  -5  458.45   31.10
   3   6  -5  461.35   30.70
   3   6  -5  496.75   29.90
  -3  -6   5  498.65   31.30
  -3  -6   5  499.85   31.00
  -3  -6   5  515.55   32.00
  -3  -6   5  544.35   31.90
   2   6  -5  101.99    9.00
   2   6  -5  114.29    7.70
   2   6  -5  104.19    9.00
   2   6  -5   95.99    7.30
   1   6  -5 1114.09   67.19
   1   6  -5 1188.08   66.49
   1   6  -5 1199.78   67.19
   1   6  -5 1217.58   67.99
  -1  -6   5 1206.98   68.39
  -1  -6   5 1164.58   67.29
  -1  -6   5 1174.48   67.59
  -1  -6   5 1185.18   67.79
   0   6  -5  785.42   43.30
   0   6  -5  742.73   41.90
   0   6  -5  688.33   43.00
   0  -6   5  779.82   44.20
   0  -6   5  778.72   44.60
   0  -6   5  769.82   44.10
   0  -6   5  806.12   44.10
   0  -6   5  668.73   45.00
  -1   6  -5 1158.28   63.59
  -1   6  -5 1080.49   60.09
   1  -6   5 1036.90   62.49
   1  -6   5 1121.49   62.69
   1  -6   5 1090.99   63.49
   1  -6   5 1092.49   62.19
   1  -6   5 1049.00   62.69
  -2   6  -5 1034.10   65.09
  -2   6  -5 1041.90   63.59
  -2   6  -5 1074.89   62.39
   2  -6   5 1128.99   63.49
   2  -6   5 1184.08   65.29
   2  -6   5 1059.29   63.39
   2  -6   5 1175.78   69.09
   2  -6   5 1182.68   65.49
   2  -6   5 1213.78   64.69
  -3   6  -5  372.16   21.10
  -3   6  -5  365.86   24.90
  -3   6  -5  360.76   22.60
   3  -6   5  320.67   22.10
   3  -6   5  347.17   23.60
   3  -6   5  340.87   23.70
   3  -6   5  340.57   27.20
  -4   6  -5   91.39    7.20
  -4   6  -5   86.89    8.50
  -4   6  -5   88.59    9.70
   4  -6   5   82.39    9.10
   4  -6   5   83.69   12.40
   4  -6   5   72.69    8.90
  -5   6  -5  321.27   20.90
  -5   6  -5  299.07   22.30
   5  -6   5  376.76   23.60
   6   5  -5  199.08   14.10
   6   5  -5  190.88   14.80
   6   5  -5  205.08   13.50
   6   5  -5  175.78   17.90
  -6  -5   5  200.08   16.40
  -6  -5   5  206.58   14.60
   5   5  -5  112.29    9.00
   5   5  -5   86.59   12.80
   5   5  -5  105.29    9.60
  -5  -5   5  116.99   10.40
  -5  -5   5  133.69   10.50
  -5  -5   5  125.89   12.00
   4   5  -5  767.72   42.70
   4   5  -5  708.63   43.60
   4   5  -5  741.43   45.40
  -4  -5   5  707.53   44.30
  -4  -5   5  737.83   45.40
  -4  -5   5  739.23   43.90
   3   5  -5   25.70    3.50
   3   5  -5   25.80    2.50
   3   5  -5   26.40    5.00
   3   5  -5   26.80    4.10
  -3  -5   5   22.60    5.10
  -3  -5   5   22.70    4.60
  -3  -5   5   26.30    5.40
  -3  -5   5   25.20    5.00
   2   5  -5 1261.67   72.69
   2   5  -5 1236.18   71.19
   2   5  -5 1305.57   71.69
  -2  -5   5 1299.87   73.59
  -2  -5   5 1262.97   72.79
  -2  -5   5 1328.57   73.29
   1   5  -5 2925.31  154.78
   1   5  -5 2795.42  156.48
   1   5  -5 2849.51  154.28
  -1  -5   5 2898.61  156.18
  -1  -5   5 2783.32  155.48
  -1  -5   5 2911.91  156.58
  -1  -5   5 2842.22  155.98
  -1  -5   5 2465.25  156.28
   0   5  -5 1481.75   82.49
   0  -5   5 1421.66   82.09
   0  -5   5 1501.55   82.09
   0  -5   5 1487.85   82.59
   0  -5   5 1497.85   82.19
   0  -5   5 1395.56   84.09
   0  -5   5 1445.26   82.19
  -1   5  -5  226.78   13.60
   1  -5   5  199.38   16.20
   1  -5   5  196.48   13.70
   1  -5   5  191.08   13.50
   1  -5   5  203.48   13.40
   1  -5   5  194.38   13.60
  -2   5  -5 1298.87   73.39
  -2   5  -5 1420.26   75.39
  -2   5  -5 1298.07   72.29
   2  -5   5 1200.78   73.09
   2  -5   5 1275.17   73.89
   2  -5   5 1331.57   78.59
   2  -5   5 1243.08   73.39
   2  -5   5 1350.86   75.19
   2  -5   5 1355.56   74.89
  -3   5  -5  789.72   49.70
  -3   5  -5  875.41   51.99
  -3   5  -5  868.61   49.20
  -3   5  -5  872.81   52.29
   3  -5   5  927.01   51.79
   3  -5   5  906.41   55.99
   3  -5   5  811.12   49.80
   3  -5   5  891.41   51.89
  -4   5  -5 1350.16   73.99
  -4   5  -5 1227.78   72.49
  -4   5  -5 1294.27   74.89
  -4   5  -5 1334.57   72.09
   4  -5   5 1173.98   74.19
   4  -5   5 1266.97   74.19
   4  -5   5 1230.38   78.69
  -5   5  -5  135.29   15.40
  -5   5  -5  117.69   10.00
  -5   5  -5  121.19   11.40
   5  -5   5  138.89   13.90
   5  -5   5  130.39   15.60
   5  -5   5  132.59   11.80
  -6   5  -5   59.19    7.30
  -6   5  -5   69.49    6.70
   6  -5   5   62.69    7.50
   6   4  -5   93.49    8.70
   6   4  -5   99.39    8.10
   6   4  -5   98.59    8.10
   6   4  -5   96.69   12.10
  -6  -4   5  110.19   11.40
   5   4  -5  563.24   35.30
   5   4  -5  548.75   38.60
   5   4  -5  569.94   32.40
   5   4  -5  545.15   33.30
   5   4  -5  570.94   32.50
  -5  -4   5  480.95   33.00
  -5  -4   5  553.14   35.50
  -5  -4   5  506.45   33.30
  -5  -4   5  549.65   33.40
   4   4  -5  739.73   47.10
   4   4  -5  715.93   45.30
   4   4  -5  769.52   44.60
  -4  -4   5  779.72   46.20
  -4  -4   5  832.22   47.80
  -4  -4   5  778.72   45.70
  -4  -4   5  831.92   46.20
   3   4  -5  477.85   27.30
   3   4  -5  542.85   30.90
   3   4  -5  526.05   28.20
   3   4  -5  482.75   28.80
   3   4  -5  530.65   28.60
  -3  -4   5  438.06   28.70
  -3  -4   5  444.56   29.60
  -3  -4   5  454.15   29.60
  -3  -4   5  492.25   29.90
  -3  -4   5  460.95   30.20
   2   4  -5 1208.58   68.09
   2   4  -5 1307.47   68.19
   2   4  -5 1261.67   68.09
   2   4  -5 1306.47   70.79
  -2  -4   5 1148.39   69.79
  -2  -4   5 1160.48   69.79
  -2  -4   5 1224.78   69.69
  -2  -4   5 1205.58   69.49
   1   4  -5  825.82   49.10
   1   4  -5  885.01   51.69
   1   4  -5  920.51   49.90
   1   4  -5  862.51   49.40
  -1  -4   5  905.01   50.19
  -1  -4   5  919.11   51.19
  -1  -4   5  953.80   50.79
  -1  -4   5  807.42   51.69
  -1  -4   5  937.71   50.79
   0   4  -5 1648.44   91.79
   0  -4   5 1574.34   91.69
   0  -4   5 1653.43   91.79
   0  -4   5 1597.54   91.69
   0  -4   5 1614.64   94.09
   0  -4   5 1802.02   92.29
   0  -4   5 1643.84   92.29
  -1   4  -5 2303.87  113.09
  -1   4  -5 2243.18  112.79
   1  -4   5 2074.49  112.89
   1  -4   5 1915.61  115.19
   1  -4   5 1916.71  112.29
   1  -4   5 1912.41  111.79
   1  -4   5 1858.51  111.89
   1  -4   5 1919.81  112.39
  -2   4  -5   36.60    5.20
  -2   4  -5   37.70    5.20
   2  -4   5   47.00    4.20
   2  -4   5   49.70    5.40
   2  -4   5   48.10    7.80
   2  -4   5   49.80    5.60
   2  -4   5   43.60    3.80
  -3   4  -5 1737.13   96.89
  -3   4  -5 1729.83   96.59
  -3   4  -5 1620.94   95.19
  -3   4  -5 1722.73   94.19
   3  -4   5 1481.95   93.99
   3  -4   5 1813.42   96.39
   3  -4   5 1732.43  100.39
   3  -4   5 1686.83   96.29
  -4   4  -5 2813.82  149.39
  -4   4  -5 2651.03  152.28
   4  -4   5 2693.63  151.08
   4  -4   5 2565.74  151.38
   4  -4   5 2676.83  155.98
  -5   4  -5  327.57   23.30
  -5   4  -5  325.17   22.30
  -5   4  -5  330.57   24.00
   5  -4   5  389.86   29.10
   5  -4   5  395.66   24.60
   5  -4   5  328.17   26.80
  -6   4  -5  377.46   25.90
  -6   4  -5  360.96   22.60
  -6   4  -5  326.87   22.90
  -6   4  -5  326.87   22.90
   7   3  -5    7.80    5.00
   7   3  -5    3.70    2.40
  -7  -3   5   17.60    7.70
   6   3  -5  291.97   18.00
   6   3  -5  279.87   18.80
   6   3  -5  274.07   17.80
   6   3  -5  286.47   24.00
   6   3  -5  278.07   23.20
  -6  -3   5  290.57   21.50
  -6  -3   5  247.58   19.10
   5   3  -5  246.78   16.20
   5   3  -5  246.08   21.40
   5   3  -5  227.48   16.70
   5   3  -5  247.88   16.30
   5   3  -5  260.27   19.50
  -5  -3   5  296.07   18.50
   4   3  -5 4163.58  246.18
   4   3  -5 4410.26  248.38
   4   3  -5 4539.65  245.98
   4   3  -5 4590.24  245.58
   4   3  -5 4548.94  245.98
   4   3  -5 4499.15  245.78
  -4  -3   5 4623.84  247.08
  -4  -3   5 4482.35  248.38
  -4  -3   5 4315.67  246.88
  -4  -3   5 4458.15  247.38
   3   3  -5   46.60    4.00
   3   3  -5   44.50    4.20
   3   3  -5   50.69    4.40
  -3  -3   5   45.10    5.20
  -3  -3   5   45.10    5.10
  -3  -3   5   36.70    4.80
  -3  -3   5   48.80    5.50
  -3  -3   5   43.60    6.00
   2   3  -5  118.49    7.50
   2   3  -5  138.39    9.90
   2   3  -5  134.59    7.90
  -2  -3   5  110.39    8.50
  -2  -3   5  103.39    8.70
  -2  -3   5  106.89    8.30
  -2  -3   5  108.79    8.40
  -2  -3   5  107.29    8.60
  -1  -3   5 9724.53  532.25
   0   3  -5 1144.49   66.79
   0   3  -5 1109.79   66.69
   0  -3   5 1343.87   67.69
   0  -3   5 1186.88   66.89
   0  -3   5 1236.68   67.69
   0  -3   5 1126.29   66.79
   0  -3   5 1267.07   67.29
   0  -3   5 1189.48   69.29
  -1   3  -5 1728.93   82.49
   1  -3   5 1388.56   81.89
   1  -3   5 1303.97   81.19
   1  -3   5 1400.16   81.49
   1  -3   5 1441.16   82.09
   1  -3   5 1428.26   84.69
   1  -3   5 1581.94   82.69
  -2   3  -5 1246.58   67.59
  -2   3  -5 1265.77   69.49
  -2   3  -5 1180.48   67.39
  -2   3  -5 1225.78   69.19
   2  -3   5 1024.20   67.29
   2  -3   5 1223.88   68.89
   2  -3   5 1298.57   69.49
   2  -3   5 1250.37   72.29
   2  -3   5 1213.28   68.09
  -3   3  -5 1739.63   92.49
  -3   3  -5 1603.64   90.19
  -3   3  -5 1687.83   92.89
  -3   3  -5 1660.93   92.09
  -3   3  -5 1466.25   89.39
  -3   3  -5 1513.15   89.59
   3  -3   5 1700.43   91.99
   3  -3   5 1363.96   89.69
   3  -3   5 1692.43   92.19
   3  -3   5 1680.83   95.89
   3  -3   5 1679.33   92.09
  -4   3  -5 1794.72  103.59
  -4   3  -5 1872.41  103.19
  -4   3  -5 1910.51  100.99
  -4   3  -5 1865.41  102.39
   4  -3   5 1643.44  101.99
   4  -3   5 1709.33  106.39
   4  -3   5 1751.52  102.19
  -5   3  -5  571.54   38.40
  -5   3  -5  610.24   38.10
  -5   3  -5  626.94   38.40
  -5   3  -5  624.34   36.60
   5  -3   5  645.24   38.10
   5  -3   5  534.45   37.30
  -6   3  -5  272.97   17.90
  -6   3  -5  236.18   21.30
  -6   3  -5  279.97   19.70
   6  -3   5  241.78   18.40
   7   2  -5  233.08   15.50
  -7  -2   5  247.88   18.60
  -7  -2   5  228.18   17.30
   6   2  -5  501.45   32.70
   6   2  -5  557.54   33.50
   6   2  -5  574.64   32.50
   6   2  -5  564.14   35.60
   6   2  -5  468.85   40.70
  -6  -2   5  603.34   36.20
   5   2  -5 1981.40  109.09
   5   2  -5 1781.02  103.49
   5   2  -5 1812.82  102.39
   5   2  -5 1828.02  105.49
   5   2  -5 1863.31  102.69
   5   2  -5 1839.72  102.69
  -5  -2   5 1736.33  104.99
  -5  -2   5 1893.21  104.99
  -5  -2   5 1752.72  103.19
  -5  -2   5 1888.51  105.79
   4   2  -5 1370.86   80.19
   4   2  -5 1486.95   82.79
   4   2  -5 1377.86   80.59
   4   2  -5 1535.45   80.39
   4   2  -5 1461.95   80.29
  -4  -2   5 1408.76   81.19
  -4  -2   5 1435.46   82.49
  -4  -2   5 1372.26   79.89
  -4  -2   5 1473.15   82.09
   3   2  -5 2957.90  161.18
   3   2  -5 3015.50  163.68
   3   2  -5 2784.32  161.28
  -3  -2   5 2900.71  162.58
  -3  -2   5 2868.81  162.88
  -3  -2   5 2877.11  162.18
  -3  -2   5 3081.69  162.48
  -2  -2   5 4298.57  236.68
  -2  -2   5 4271.57  235.58
  -2  -2   5 4446.56  235.88
  -2  -2   5 4079.49  235.68
   1   2  -5  860.51   43.80
  -1  -2   5  825.22   46.00
  -1  -2   5  739.23   46.10
  -1  -2   5  768.82   45.10
  -1  -2   5  771.12   44.60
  -1  -2   5  785.22   45.20
   1  -2   5 4664.83  263.47
   1  -2   5 4548.65  263.07
   1  -2   5 5089.89  264.27
   1  -2   5 5034.00  266.87
   1  -2   5 4673.13  263.67
  -2   2  -5 4877.91  256.57
  -2   2  -5 4674.03  256.37
  -2   2  -5 4817.12  256.47
   2  -2   5 4523.15  260.47
   2  -2   5 4494.85  257.37
   2  -2   5 4625.34  258.07
  -3   2  -5  130.59    9.70
  -3   2  -5  137.19   10.00
  -3   2  -5  148.49   12.20
  -3   2  -5  145.99   11.60
  -3   2  -5  140.69   10.30
  -3   2  -5  146.39   11.90
   3  -2   5  178.88   15.20
   3  -2   5  183.68   12.10
  -4   2  -5  697.03   41.00
  -4   2  -5  654.23   40.60
  -4   2  -5  743.83   43.80
  -4   2  -5  709.93   44.10
  -4   2  -5  748.33   42.00
   4  -2   5  710.03   43.40
   4  -2   5  692.03   42.80
   4  -2   5  702.33   46.80
   4  -2   5  729.33   43.30
  -5   2  -5  498.55   33.10
  -5   2  -5  511.55   32.80
  -5   2  -5  469.65   32.90
  -5   2  -5  515.35   31.30
   5  -2   5  528.55   36.50
   5  -2   5  469.55   31.80
   5  -2   5  509.15   32.90
   5  -2   5  511.25   32.30
  -6   2  -5  621.34   37.40
  -6   2  -5  610.34   39.00
   6  -2   5  608.84   38.10
   7   1  -5    6.70    2.50
   7   1  -5    2.20    4.40
  -7  -1   5    6.10    4.00
  -7  -1   5    4.10    3.60
   6   1  -5  722.13   49.20
   6   1  -5  757.52   44.50
   6   1  -5  745.73   46.00
   6   1  -5  673.43   42.80
  -6  -1   5  783.52   46.60
  -6  -1   5  786.22   46.30
   5   1  -5 1269.17   74.29
   5   1  -5 1332.07   76.99
   5   1  -5 1321.07   74.99
   5   1  -5 1280.27   75.09
   5   1  -5 1436.76   81.09
  -5  -1   5 1357.36   76.99
  -5  -1   5 1308.67   74.59
  -5  -1   5 1351.56   77.09
  -5  -1   5 1245.58   74.29
  -5  -1   5 1315.97   74.89
   4   1  -5  638.34   37.90
   4   1  -5  589.04   36.10
   4   1  -5  626.14   35.70
   4   1  -5  651.23   40.30
   4   1  -5  579.84   35.80
   4   1  -5  601.24   35.60
  -4  -1   5  628.04   37.50
  -4  -1   5  624.24   37.70
  -4  -1   5  629.24   35.50
  -4  -1   5  623.84   36.20
  -4  -1   5  626.34   35.70
   3   1  -5 2125.79  113.29
   3   1  -5 2099.09  113.19
   3   1  -5 2129.19  115.49
   3   1  -5 1918.01  113.09
   3   1  -5 2247.98  117.29
  -3  -1   5 1938.31  114.49
  -3  -1   5 1912.61  114.49
  -3  -1   5 2010.50  113.99
   2   1  -5  446.66   26.30
   2   1  -5  475.95   26.40
   2   1  -5  465.35   28.30
   2   1  -5  493.05   29.20
  -2  -1   5  442.36   27.50
  -2  -1   5  495.55   27.90
  -2  -1   5  433.36   27.40
   1   1  -5  421.76   20.20
  -1  -1   5  322.77   21.20
  -1  -1   5  339.47   21.20
  -1  -1   5  331.97   22.30
   0   1  -5 2130.89  128.39
   0   1  -5 2252.07  129.69
   0   1  -5 2415.76  128.99
   0   1  -5 2088.29  128.09
   0   1  -5 2380.46  128.89
   0  -1   5 2338.97  129.39
   0  -1   5 2524.35  128.69
   0  -1   5 2270.07  129.19
   0  -1   5 2370.76  128.89
   0  -1   5 2633.84  131.29
  -1   1  -5 2674.33  148.19
  -1   1  -5 2795.52  149.09
  -1   1  -5 2828.02  149.29
  -1   1  -5 2808.92  148.49
   1  -1   5 2574.64  149.29
   1  -1   5 2653.53  148.79
   1  -1   5 2660.43  148.59
   1  -1   5 2604.64  148.69
   1  -1   5 2638.54  151.18
  -2   1  -5  710.43   42.20
  -2   1  -5  708.13   42.40
  -2   1  -5  733.03   43.50
  -2   1  -5  703.33   42.40
  -2   1  -5  729.83   43.60
   2  -1   5  796.72   43.00
   2  -1   5  765.02   43.20
   2  -1   5  730.93   45.80
   2  -1   5  768.62   43.30
   2  -1   5  811.42   43.70
  -3   1  -5  542.15   34.20
  -3   1  -5  523.95   32.80
  -3   1  -5  495.05   32.20
  -3   1  -5  521.55   33.90
  -3   1  -5  509.25   32.60
  -3   1  -5  511.85   34.30
   3  -1   5  602.74   37.80
   3  -1   5  582.94   34.60
   3  -1   5  604.34   34.40
   3  -1   5  627.14   33.60
   3  -1   5  578.64   33.90
   3  -1   5  598.14   34.00
  -4   1  -5  340.37   23.10
  -4   1  -5  354.16   23.40
  -4   1  -5  351.16   25.90
  -4   1  -5  379.56   24.10
  -4   1  -5  366.96   25.60
   4  -1   5  417.16   26.00
   4  -1   5  389.56   24.80
   4  -1   5  421.66   25.40
   4  -1   5  418.86   28.80
  -5   1  -5 1117.69   65.39
  -5   1  -5  990.70   61.79
  -5   1  -5 1118.09   64.49
  -5   1  -5  977.20   64.39
  -5   1  -5 1144.59   63.19
   5  -1   5 1104.29   67.39
   5  -1   5 1092.49   64.49
   5  -1   5 1104.69   63.79
  -6   1  -5   93.69    9.80
  -6   1  -5  104.49   10.90
   6  -1   5   92.19    9.70
   6  -1   5   89.89    9.20
   7   0  -5   24.00    4.10
   7   0  -5   14.40    6.60
  -7   0   5   23.20    6.00
   6   0  -5 1093.39   63.79
   6   0  -5  953.10   60.79
   6   0  -5 1059.29   68.19
   6   0  -5 1093.49   61.49
   6   0  -5 1117.89   62.69
  -6   0   5 1129.39   64.29
  -6   0   5 1086.39   64.39
   5   0  -5  185.68   14.40
   5   0  -5  177.98   16.90
   5   0  -5  207.78   13.80
   5   0  -5  164.88   12.10
   5   0  -5  184.08   13.50
  -5   0   5  189.18   13.00
  -5   0   5  182.28   12.30
  -5   0   5  189.98   13.20
  -5   0   5  201.38   15.20
  -5   0   5  199.48   15.00
   4   0  -5  411.36   25.00
   4   0  -5  375.06   22.90
   4   0  -5  399.06   22.90
  -4   0   5  360.26   22.70
  -4   0   5  397.06   24.70
  -4   0   5  403.76   25.20
  -4   0   5  366.96   22.80
  -4   0   5  376.46   23.00
  -4   0   5  388.96   23.20
   3   0  -5  611.94   35.80
   3   0  -5  661.43   35.90
   3   0  -5  649.93   37.70
   3   0  -5  675.53   40.10
  -3   0   5  597.84   35.70
  -3   0   5  622.24   35.90
  -3   0   5  611.14   37.00
  -3   0   5  640.44   37.40
  -3   0   5  606.64   35.70
   2   0  -5   72.79    5.70
   2   0  -5   93.29    5.90
  -2   0   5   87.19    5.60
  -2   0   5   89.49    7.00
  -2   0   5   87.69    6.10
  -2   0   5   80.99    5.70
  -2   0   5   88.29    5.40
  -2   0   5   90.79    5.70
  -2   0   5   78.19    7.10
   1   0  -5 2978.60  164.18
  -1   0   5 2797.72  162.88
  -1   0   5 2872.51  162.48
  -1   0   5 3114.39  161.78
  -1   0   5 3074.29  162.18
  -1   0   5 2835.02  163.98
   0   0  -5  459.65   24.90
   0   0  -5  462.55   25.10
   0   0  -5  441.76   24.80
   0   0  -5  406.76   24.40
   0   0  -5  462.75   26.20
   0   0  -5  437.86   24.60
   0   0   5  397.56   26.50
   0   0   5  419.46   25.50
   0   0   5  387.66   24.60
   0   0   5  429.96   25.40
   0   0   5  429.76   24.80
  -2   0  -5 2382.16  128.09
  -2   0  -5 2252.47  126.59
  -2   0  -5 2396.76  127.79
  -2   0  -5 2374.26  126.79
  -2   0  -5 2304.67  126.39
   2   0   5 2167.58  127.79
   2   0   5 2282.67  126.89
   2   0   5 2266.87  127.49
   2   0   5 2095.09  129.39
  -3   0  -5  320.97   20.90
  -3   0  -5  318.97   21.00
  -3   0  -5  307.87   19.60
  -3   0  -5  319.77   19.60
  -3   0  -5  304.77   21.10
  -3   0  -5  305.37   19.10
   3   0   5  310.37   20.10
   3   0   5  294.17   20.50
   3   0   5  288.67   22.40
   3   0   5  303.47   19.70
  -4   0  -5  236.18   19.30
  -4   0  -5  262.27   19.50
  -4   0  -5  255.27   17.70
  -4   0  -5  266.57   21.30
  -4   0  -5  247.88   17.40
  -4   0  -5  239.18   17.00
   4   0   5  271.47   18.10
   4   0   5  277.27   19.30
   4   0   5  266.67   21.00
   4   0   5  268.47   19.40
   4   0   5  290.87   18.80
  -5   0  -5  610.64   38.70
  -5   0  -5  610.04   36.30
  -5   0  -5  577.94   35.30
  -5   0  -5  562.84   35.70
  -5   0  -5  584.04   37.20
  -5   0  -5  641.44   39.40
   5   0   5  576.14   36.90
   5   0   5  562.24   37.60
  -6   0  -5   86.19   10.10
  -6   0  -5   80.79    8.70
  -6   0  -5   82.69    7.80
   6   0   5   90.69    8.70
   6   0   5   88.69    9.10
   7  -1  -5   31.90    7.20
   7  -1  -5   39.40    4.60
   6  -1  -5   54.89    9.30
   6  -1  -5   59.99    6.00
   6  -1  -5   51.29    6.50
   6  -1  -5   62.89    7.00
  -6   1   5   52.69    7.50
  -6   1   5   58.59    9.10
  -6   1   5   51.09    7.00
  -6   1   5   49.99    5.40
   5  -1  -5 1157.18   71.29
   5  -1  -5 1368.26   73.59
   5  -1  -5 1361.56   79.09
   5  -1  -5 1288.07   73.39
  -5   1   5 1224.78   71.79
  -5   1   5 1203.88   72.29
  -5   1   5 1329.67   74.59
  -5   1   5 1211.98   72.59
  -5   1   5 1296.17   73.69
   4  -1  -5  341.27   24.60
   4  -1  -5  328.37   20.60
   4  -1  -5  301.47   18.90
   4  -1  -5  341.47   19.40
   4  -1  -5  354.36   20.90
  -4   1   5  273.97   18.90
  -4   1   5  277.67   19.40
  -4   1   5  325.07   20.60
  -4   1   5  284.87   19.60
  -4   1   5  325.17   21.10
   3  -1  -5  481.15   30.60
   3  -1  -5  497.55   29.30
   3  -1  -5  525.65   33.70
   3  -1  -5  452.45   29.10
  -3   1   5  526.25   30.30
  -3   1   5  530.45   30.80
  -3   1   5  527.55   29.90
  -3   1   5  527.65   29.40
   2  -1  -5 1916.71   99.19
   2  -1  -5 1615.74   94.99
   2  -1  -5 1771.72   95.09
  -2   1   5 1670.73   94.99
  -2   1   5 1716.63   94.79
  -2   1   5 1622.44   95.39
  -2   1   5 1700.73   96.19
   1  -1  -5 1453.25   78.39
   1  -1  -5 1449.76   78.39
   1  -1  -5 1422.06   78.09
   1  -1  -5 1568.54   81.59
  -1   1   5 1287.87   78.19
  -1   1   5 1366.66   78.99
  -1   1   5 1432.06   78.39
  -1   1   5 1305.47   79.19
  -1   1   5 1413.96   79.19
   0  -1  -5 2448.06  129.59
   0  -1  -5 2247.68  126.99
   0  -1  -5 2278.67  127.39
   0  -1  -5 2239.38  126.79
   0   1   5 2444.86  127.19
   0   1   5 2360.16  128.09
   0   1   5 2158.58  126.59
   0   1   5 2304.27  127.29
   0   1   5 2194.88  128.79
  -1  -1  -5  524.75   30.30
  -1  -1  -5  534.85   30.00
  -1  -1  -5  531.45   29.20
  -1  -1  -5  529.15   29.40
  -1  -1  -5  551.34   29.60
   1   1   5  456.25   29.70
   1   1   5  461.65   30.20
   1   1   5  481.55   29.50
   1   1   5  444.46   31.00
  -2  -1  -5 2465.35  134.49
  -2  -1  -5 2191.58  133.29
  -2  -1  -5 2407.66  134.69
  -2  -1  -5 2527.15  134.99
  -2  -1  -5 2513.75  135.89
  -2  -1  -5 2417.66  135.49
  -2  -1  -5 2476.35  136.29
   2   1   5 2353.66  136.09
   2   1   5 2419.16  135.69
   2   1   5 2314.47  137.19
   2   1   5 2558.54  135.19
  -3  -1  -5  393.76   25.90
  -3  -1  -5  391.86   24.70
  -3  -1  -5  399.86   24.40
  -3  -1  -5  391.46   24.70
  -3  -1  -5  374.36   26.30
  -3  -1  -5  404.96   26.10
   3   1   5  409.66   26.10
   3   1   5  406.46   25.00
   3   1   5  389.96   27.00
   3   1   5  399.36   26.20
  -4  -1  -5 1078.19   59.39
  -4  -1  -5 1091.19   59.69
  -4  -1  -5  982.70   60.99
  -4  -1  -5 1069.09   59.79
   4   1   5 1012.60   61.19
   4   1   5 1045.00   60.09
   4   1   5 1010.70   60.99
   4   1   5  935.51   61.19
   4   1   5  981.40   59.69
  -5  -1  -5   33.70    5.70
  -5  -1  -5   32.80    5.10
  -5  -1  -5   32.60    7.20
  -5  -1  -5   34.50    5.30
  -5  -1  -5   28.50    5.30
   5   1   5   32.70    5.80
   5   1   5   26.10    5.90
   7  -2  -5  460.45   35.40
   7  -2  -5  535.15   31.60
   7  -2  -5  493.95   29.80
  -7   2   5  475.15   32.30
   6  -2  -5  238.08   17.60
   6  -2  -5  212.48   15.50
  -6   2   5  247.78   15.60
  -6   2   5  223.68   16.40
   5  -2  -5 1171.98   64.09
   5  -2  -5 1102.99   62.09
   5  -2  -5 1159.18   69.79
   5  -2  -5 1106.09   62.59
  -5   2   5 1127.19   64.49
  -5   2   5 1031.40   61.79
  -5   2   5 1003.00   62.69
  -5   2   5 1070.79   62.99
  -5   2   5  999.20   62.99
   4  -2  -5  204.08   14.50
   4  -2  -5  208.08   13.00
   4  -2  -5  209.58   18.20
   4  -2  -5  196.38   13.40
   4  -2  -5  179.58   12.30
  -4   2   5  173.18   12.50
  -4   2   5  174.88   13.40
   3  -2  -5  533.15   31.90
   3  -2  -5  582.74   32.20
   3  -2  -5  553.04   32.90
   3  -2  -5  512.05   31.30
   3  -2  -5  604.54   37.80
  -3   2   5  555.14   33.40
  -3   2   5  545.75   32.10
  -3   2   5  539.75   32.70
   2  -2  -5  949.60   50.59
   2  -2  -5 1010.50   55.69
   2  -2  -5  899.61   50.29
   2  -2  -5  888.81   50.49
  -2   2   5  872.31   50.49
  -2   2   5  831.92   51.49
  -2   2   5  853.51   50.49
  -2   2   5  863.51   51.29
   1  -2  -5  724.33   42.00
   1  -2  -5  710.93   42.10
   1  -2  -5  690.73   41.70
   1  -2  -5  784.22   46.10
   1  -2  -5  722.83   42.30
  -1   2   5  777.02   43.20
  -1   2   5  737.53   41.90
  -1   2   5  779.22   42.20
  -1   2   5  732.13   42.80
   0  -2  -5  313.77   19.60
   0  -2  -5  307.07   18.80
   0  -2  -5  325.07   19.10
   0  -2  -5  287.67   18.10
   0  -2  -5  334.87   22.10
   0  -2  -5  316.47   19.10
   0   2   5  302.47   18.60
   0   2   5  315.57   20.20
   0   2   5  333.67   19.30
   0   2   5  288.87   20.40
   0   2   5  317.97   19.60
  -1  -2  -5  800.02   44.10
  -1  -2  -5  865.41   44.60
  -1  -2  -5  839.62   44.80
   1   2   5  736.93   45.30
   1   2   5  697.03   46.10
   1   2   5  793.82   45.00
   1   2   5  752.72   46.00
   1   2   5  715.13   43.80
  -2  -2  -5 2450.95  138.89
  -2  -2  -5 2669.03  139.39
  -2  -2  -5 2422.96  140.49
  -2  -2  -5 2495.85  139.79
  -2  -2  -5 2321.07  137.59
  -2  -2  -5 2523.35  138.79
  -2  -2  -5 2522.75  140.19
   2   2   5 2482.05  140.89
   2   2   5 2320.77  137.79
   2   2   5 2520.75  140.59
   2   2   5 2535.05  140.09
   2   2   5 2640.44  139.39
  -3  -2  -5  111.79    9.90
  -3  -2  -5  118.59   10.80
  -3  -2  -5  109.99   10.60
  -3  -2  -5  106.29   10.90
  -3  -2  -5  113.49    9.50
  -3  -2  -5  110.39    9.50
   3   2   5  126.49   11.50
   3   2   5  128.09   11.20
   3   2   5  125.49   10.20
  -4  -2  -5  207.88   16.30
  -4  -2  -5  196.08   17.50
  -4  -2  -5  215.58   16.90
  -4  -2  -5  201.58   14.80
  -4  -2  -5  185.28   15.70
  -4  -2  -5  213.48   14.60
   4   2   5  185.58   15.80
   4   2   5  179.68   14.30
   4   2   5  183.68   15.40
   4   2   5  184.68   14.60
  -5  -2  -5   24.10    4.90
  -5  -2  -5   26.40    6.50
  -5  -2  -5   22.10    5.50
  -5  -2  -5   14.40    4.00
   5   2   5   13.50    3.90
   5   2   5   22.50    6.20
   7  -3  -5   35.50    6.00
   7  -3  -5   25.60    4.80
   7  -3  -5   24.80    6.40
   6  -3  -5   62.99   10.80
   6  -3  -5   63.29    7.80
   6  -3  -5   72.69    8.70
   6  -3  -5   70.19    8.00
   6  -3  -5   56.69    5.90
  -6   3   5   81.49    9.40
  -6   3   5   75.79   11.20
  -6   3   5   75.09    6.90
   5  -3  -5  407.66   27.90
   5  -3  -5  368.76   32.30
   5  -3  -5  400.66   27.40
   5  -3  -5  396.86   26.00
  -5   3   5  419.76   27.30
  -5   3   5  492.25   28.80
  -5   3   5  439.56   30.90
  -5   3   5  455.75   26.20
   4  -3  -5 1366.46   73.89
   4  -3  -5 1406.36   76.09
   4  -3  -5 1402.36   76.79
   4  -3  -5 1332.57   74.49
  -4   3   5 1261.07   74.49
  -4   3   5 1240.38   75.99
  -4   3   5 1214.18   75.99
   3  -3  -5 1166.48   68.79
   3  -3  -5 1213.58   68.09
   3  -3  -5 1148.59   67.69
   3  -3  -5 1259.27   69.99
   3  -3  -5 1134.79   67.19
   3  -3  -5 1128.89   66.99
   3  -3  -5 1288.77   75.19
  -3   3   5 1253.67   69.29
  -3   3   5 1249.18   68.09
   2  -3  -5  151.18   10.40
   2  -3  -5  169.58   10.60
   2  -3  -5  155.48   10.90
   2  -3  -5  158.68   10.20
   2  -3  -5  159.68   10.00
   2  -3  -5  178.08   15.80
  -2   3   5  145.39   10.40
  -2   3   5  144.49   11.60
  -2   3   5  150.28   10.60
  -2   3   5  137.39   11.20
   1  -3  -5 1540.75   85.29
   1  -3  -5 1331.37   79.59
   1  -3  -5 1409.16   79.79
   1  -3  -5 1305.17   79.59
   1  -3  -5 1380.56   79.49
  -1   3   5 1486.15   80.09
  -1   3   5 1435.96   79.69
  -1   3   5 1492.45   81.19
   0  -3  -5 2212.18  129.39
   0  -3  -5 2312.07  129.69
   0  -3  -5 2110.49  129.69
   0  -3  -5 2399.46  130.19
   0  -3  -5 2454.05  134.79
   0   3   5 2338.47  129.59
   0   3   5 2379.86  130.89
   0   3   5 2576.94  134.99
   0   3   5 2132.69  131.19
   0   3   5 2452.05  130.39
  -1  -3  -5  903.01   49.40
  -1  -3  -5  797.72   48.60
  -1  -3  -5  799.62   49.00
  -1  -3  -5  822.52   48.40
  -1  -3  -5  877.01   48.90
  -1  -3  -5  854.51   49.99
   1   3   5  896.61   49.40
   1   3   5  848.82   49.99
   1   3   5  787.42   49.99
   1   3   5  823.62   48.10
   1   3   5  880.41   50.79
  -2  -3  -5  533.55   35.20
  -2  -3  -5  591.84   34.00
  -2  -3  -5  536.65   33.50
  -2  -3  -5  571.94   34.30
  -2  -3  -5  554.54   34.60
   2   3   5  594.74   36.00
   2   3   5  533.65   32.70
   2   3   5  576.34   35.40
   2   3   5  569.14   34.40
  -3  -3  -5  513.75   32.00
  -3  -3  -5  579.54   33.00
  -3  -3  -5  571.64   33.40
  -3  -3  -5  499.25   34.10
  -3  -3  -5  559.94   34.10
   3   3   5  517.55   34.40
   3   3   5  508.25   32.90
   3   3   5  492.75   33.80
  -4  -3  -5  480.85   31.20
  -4  -3  -5  497.35   30.90
  -4  -3  -5  491.95   32.40
  -4  -3  -5  455.55   30.70
   4   3   5  499.45   31.10
   4   3   5  509.65   32.80
   4   3   5  517.65   31.30
  -5  -3  -5  149.88   12.10
  -5  -3  -5  151.08   12.70
  -5  -3  -5  152.38   11.40
   5   3   5  135.09   12.00
   5   3   5  139.49   11.60
   5   3   5  141.29   11.60
   7  -4  -5  215.18   15.40
  -7   4   5  190.68   15.70
  -7   4   5  200.28   15.50
   6  -4  -5  202.18   14.80
   6  -4  -5  224.18   17.30
   6  -4  -5  192.88   21.00
   6  -4  -5  211.18   15.70
  -6   4   5  251.37   15.80
  -6   4   5  255.07   18.10
  -6   4   5  260.57   16.90
   5  -4  -5  274.57   25.60
   5  -4  -5  276.57   20.50
   5  -4  -5  283.57   18.60
   5  -4  -5  279.37   21.60
   5  -4  -5  283.17   20.10
  -5   4   5  295.07   22.50
  -5   4   5  250.77   19.40
   4  -4  -5 1266.27   73.09
   4  -4  -5 1327.67   75.19
   4  -4  -5 1255.67   81.49
   4  -4  -5 1291.37   74.39
  -4   4   5 1265.77   72.89
  -4   4   5 1292.27   72.89
  -4   4   5 1214.78   74.99
  -4   4   5 1326.37   74.49
  -4   4   5 1268.47   74.19
   3  -4  -5 2165.78  121.79
   3  -4  -5 2108.29  123.19
   3  -4  -5 2162.78  129.79
   3  -4  -5 2113.09  122.49
  -3   4   5 2216.68  121.59
  -3   4   5 2108.19  122.39
  -3   4   5 2239.28  121.79
  -3   4   5 2287.77  123.29
   2  -4  -5  428.56   29.00
   2  -4  -5  441.36   30.00
   2  -4  -5  500.75   35.50
   2  -4  -5  421.66   28.10
   2  -4  -5  421.16   27.90
  -2   4   5  510.25   29.50
  -2   4   5  542.15   29.30
  -2   4   5  522.55   28.90
  -2   4   5  549.74   30.80
   1  -4  -5  673.03   41.50
   1  -4  -5  559.74   35.80
   1  -4  -5  587.74   34.80
   1  -4  -5  631.14   35.70
   1  -4  -5  615.74   35.00
  -1   4   5  534.75   36.30
  -1   4   5  588.04   36.50
  -1   4   5  576.14   35.10
  -1   4   5  558.84   34.60
   0  -4  -5  340.17   23.40
   0  -4  -5  374.76   23.10
   0  -4  -5  389.06   23.90
   0  -4  -5  394.66   24.30
   0  -4  -5  381.66   24.20
   0   4   5  425.16   24.80
   0   4   5  388.16   23.70
   0   4   5  408.46   26.00
   0   4   5  405.46   25.50
  -1  -4  -5   48.80    5.40
  -1  -4  -5   48.60    5.80
  -1  -4  -5   43.90    5.70
  -1  -4  -5   51.89    6.20
  -2  -4  -5 1041.60   57.89
  -2  -4  -5  930.31   57.99
  -2  -4  -5  981.30   56.59
  -2  -4  -5 1056.59   58.49
   2   4   5  999.20   59.19
   2   4   5 1004.50   58.19
   2   4   5  903.31   56.19
   2   4   5 1006.70   59.69
  -3  -4  -5  610.64   40.60
  -3  -4  -5  676.93   40.90
  -3  -4  -5  758.02   45.40
  -3  -4  -5  686.93   40.30
   3   4   5  650.93   41.50
   3   4   5  650.03   41.80
   3   4   5  619.74   42.40
  -4  -4  -5  183.78   13.70
  -4  -4  -5  163.08   14.30
  -4  -4  -5  187.08   13.50
  -4  -4  -5  195.68   17.20
   4   4   5  176.68   14.70
   4   4   5  164.78   14.00
   4   4   5  158.68   13.10
   4   4   5  171.98   13.30
   6  -5  -5   66.99   11.20
   6  -5  -5   71.49    8.30
  -6   5   5   55.39    7.80
  -6   5   5   70.39    7.80
  -6   5   5   69.39    6.70
  -6   5   5   56.29    6.70
   5  -5  -5  414.36   27.90
   5  -5  -5  406.36   26.50
   5  -5  -5  397.26   34.10
  -5   5   5  415.56   27.70
  -5   5   5  455.15   26.60
  -5   5   5  447.56   28.20
  -5   5   5  408.26   26.30
   4  -5  -5  797.92   50.59
   4  -5  -5  838.52   49.99
   4  -5  -5  959.30   50.89
   4  -5  -5  836.02   57.99
  -4   5   5  797.92   49.20
  -4   5   5  740.53   52.19
  -4   5   5  871.81   50.99
  -4   5   5  772.12   48.50
   3  -5  -5  110.79    9.70
   3  -5  -5   98.19    9.70
   3  -5  -5   88.99    7.80
   3  -5  -5  102.79    9.30
   3  -5  -5   98.49   14.20
  -3   5   5  103.29   10.20
  -3   5   5  103.79    8.60
  -3   5   5   97.79    8.70
   2  -5  -5  437.36   30.80
   2  -5  -5  539.85   38.80
   2  -5  -5  498.05   32.30
   2  -5  -5  530.15   31.50
   2  -5  -5  534.45   32.20
  -2   5   5  519.75   31.00
  -2   5   5  507.25   31.30
  -2   5   5  531.85   33.00
   1  -5  -5  467.05   30.70
   1  -5  -5  497.85   30.10
   1  -5  -5  547.95   31.40
   1  -5  -5  565.44   37.80
   1  -5  -5  506.85   30.10
   1  -5  -5  492.15   29.70
  -1   5   5  490.65   32.20
  -1   5   5  480.95   30.70
  -1   5   5  466.05   29.90
  -1   5   5  474.75   31.50
   0  -5  -5 1660.43   93.89
   0  -5  -5 1484.45   92.19
   0  -5  -5 1615.24   93.59
   0  -5  -5 1640.14   93.29
   0   5   5 1770.72   95.99
   0   5   5 1687.23   95.09
   0   5   5 1663.73   93.09
   0   5   5 1687.13   93.99
  -1  -5  -5  453.95   30.50
  -1  -5  -5  461.15   29.90
  -1  -5  -5  477.95   30.30
   1   5   5  488.95   29.50
   1   5   5  530.55   35.00
   1   5   5  513.95   31.10
   1   5   5  511.45   32.10
  -2  -5  -5  182.68   13.00
  -2  -5  -5  171.98   11.60
  -2  -5  -5  174.28   16.90
  -2  -5  -5  177.78   14.20
   2   5   5  134.39   11.10
   2   5   5  163.28   14.20
   2   5   5  158.08   13.80
  -3  -5  -5  105.99   10.60
  -3  -5  -5  108.99   10.10
  -3  -5  -5  110.69   10.40
   3   5   5  123.89   10.40
   3   5   5  126.59   11.40
   3   5   5  128.69   11.60
   5  -6  -5  150.38   12.60
   5  -6  -5  149.69   12.00
   5  -6  -5  129.59   16.40
  -5   6   5  123.69   13.70
  -5   6   5  178.88   13.70
  -5   6   5  170.98   12.50
   4  -6  -5   85.89    8.80
   4  -6  -5   86.59    8.70
   4  -6  -5   93.09   13.50
  -4   6   5   77.79    7.80
  -4   6   5   83.89    7.80
  -4   6   5   79.79    9.50
   3  -6  -5  612.94   38.60
   3  -6  -5  682.13   39.60
   3  -6  -5  591.24   40.50
   3  -6  -5  551.04   45.50
  -3   6   5  664.53   39.20
  -3   6   5  657.93   38.00
  -3   6   5  667.23   40.30
   2  -6  -5   18.80    4.00
   2  -6  -5   23.30    5.50
   2  -6  -5   15.20    3.70
   2  -6  -5   14.40    3.90
  -2   6   5    7.10    5.70
   1  -6  -5  274.57   20.20
   1  -6  -5  322.57   21.90
   1  -6  -5  312.77   20.70
   1  -6  -5  321.57   22.00
  -1   6   5  332.77   22.80
  -1   6   5  347.07   23.50
  -1   6   5  325.67   21.60
  -1   6   5  337.57   20.90
   0  -6  -5   42.60    5.20
   0  -6  -5   31.30    5.30
   0  -6  -5   30.00    4.70
   0  -6  -5   36.70    6.20
   0   6   5   38.00    7.30
   0   6   5   37.40    6.60
   0   6   5   36.50    5.00
   0   6   5   43.40    6.50
  -1  -6  -5   32.60    5.00
  -1  -6  -5   25.40    4.60
  -1  -6  -5   28.00    6.00
   1   6   5   37.40    5.60
   1   6   5   36.30    6.70
   1   6   5   38.60    6.50
   1   6   5   30.80    4.50
  -2  -6  -5  174.58   16.10
  -2  -6  -5  190.38   13.80
  -2  -6  -5  211.28   15.90
  -2  -6  -5  198.08   15.30
   2   6   5  204.88   15.80
   2   6   5  189.48   15.40
   2   6   5  190.78   14.40
   4  -7  -5  177.08   13.10
   4  -7  -5  172.98   13.20
  -4   7   5  161.28   12.20
  -4   7   5  171.48   14.20
   3  -7  -5  343.57   22.20
   3  -7  -5  341.47   23.20
  -3   7   5  321.47   21.00
  -3   7   5  322.47   23.10
  -3   7   5  289.57   21.10
   2  -7  -5  153.18   11.50
   2  -7  -5  130.49   13.30
   2  -7  -5  165.78   13.00
  -2   7   5  147.09   12.20
  -2   7   5  160.58   13.40
  -2   7   5  157.38   13.90
  -2   7   5  153.18   11.40
   1  -7  -5   20.00    4.40
  -1   7   5   14.60    3.50
  -1   7   5   12.40    3.50
  -1   7   5   14.80    4.90
  -1   7   5   11.80    4.50
   0  -7  -5  111.39   11.00
   0  -7  -5  120.19   10.50
   0   7   5   96.79    9.40
   0   7   5   96.29    8.40
   0   7   5  102.69   10.70
  -1  -7  -5  168.38   12.90
  -1  -7  -5  202.58   14.90
  -1  -7  -5  192.28   13.40
   1   7   5  206.88   15.10
   1   7   5  187.38   13.50
   1   7   5  213.68   15.60
   1   7   5  174.58   16.30
   2   9  -6  345.37   20.50
   2   9  -6  331.87   19.30
  -2  -9   6  247.18   23.00
  -2  -9   6  264.27   22.40
   1   9  -6    1.30    1.50
   1   9  -6    2.60    3.70
  -1  -9   6    2.10    3.70
  -1  -9   6    5.20    3.80
  -1  -9   6    5.70    3.60
   0   9  -6  274.37   17.30
   0   9  -6  272.47   19.80
   0  -9   6  309.57   20.30
   0  -9   6  298.17   20.50
   0  -9   6  285.47   19.80
  -1   9  -6  977.00   56.09
   1  -9   6 1024.60   58.69
   1  -9   6  972.80   58.59
   1  -9   6 1024.70   58.99
  -2   9  -6  306.97   17.90
   2  -9   6  317.97   21.90
   2  -9   6  278.07   19.50
   2  -9   6  292.17   20.70
  -3   9  -6  139.79   12.50
  -3   9  -6  153.38   10.00
   3  -9   6  162.58   12.70
   3  -9   6  163.88   11.90
   4   8  -6  397.76   23.30
   4   8  -6  372.86   22.40
  -4  -8   6  347.47   23.60
  -4  -8   6  331.47   24.30
   3   8  -6  504.25   31.00
   3   8  -6  537.25   30.50
  -3  -8   6  501.85   32.70
  -3  -8   6  495.35   32.30
  -3  -8   6  512.75   33.50
   2   8  -6  319.17   21.60
   2   8  -6  340.57   20.10
  -2  -8   6  334.77   23.40
  -2  -8   6  322.37   22.40
  -2  -8   6  314.57   22.20
   1   8  -6 1424.06   87.59
   1   8  -6 1442.96   85.29
  -1  -8   6 1670.93   89.39
  -1  -8   6 1531.75   87.89
  -1  -8   6 1581.64   88.09
   0   8  -6  355.26   21.90
   0   8  -6  396.56   21.50
   0  -8   6  337.07   22.80
   0  -8   6  325.57   23.40
   0  -8   6  314.97   22.20
   0  -8   6  325.77   22.80
  -1   8  -6  232.48   15.50
  -1   8  -6  232.98   13.80
  -1   8  -6  191.68   17.00
   1  -8   6  235.48   16.50
   1  -8   6  228.48   16.40
   1  -8   6  234.28   16.20
   1  -8   6  223.78   16.20
  -2   8  -6  341.77   19.80
  -2   8  -6  343.67   22.00
  -2   8  -6  287.77   22.50
   2  -8   6  337.67   21.50
   2  -8   6  312.87   22.50
   2  -8   6  355.56   23.10
   2  -8   6  365.16   22.50
  -3   8  -6  355.86   20.60
   3  -8   6  341.67   23.40
   3  -8   6  328.77   22.10
  -4   8  -6  672.73   41.50
   4  -8   6  785.82   44.80
   5   7  -6    9.90    6.10
   5   7  -6   13.60    3.40
  -5  -7   6   18.70    4.70
   4   7  -6  652.23   37.00
   4   7  -6  625.04   37.30
  -4  -7   6  628.14   39.40
  -4  -7   6  596.24   38.40
   3   7  -6   69.29    6.90
   3   7  -6   70.39    6.30
   3   7  -6   80.09    9.70
   3   7  -6   71.39    8.30
   2   7  -6  130.49   10.30
   2   7  -6  128.89   10.30
   2   7  -6  134.29    9.00
  -2  -7   6  118.79   10.90
  -2  -7   6  121.19   10.90
  -2  -7   6  125.39   11.90
   1   7  -6  425.96   26.20
   1   7  -6  416.66   28.20
  -1  -7   6  465.85   28.70
  -1  -7   6  490.35   29.80
  -1  -7   6  475.85   28.80
   0   7  -6  266.17   14.80
   0   7  -6  227.98   16.30
   0  -7   6  214.58   15.70
   0  -7   6  203.88   15.50
   0  -7   6  203.18   15.20
   0  -7   6  215.78   16.30
  -1   7  -6 2366.06  126.99
  -1   7  -6 2274.27  124.79
  -1   7  -6 2133.19  128.09
   1  -7   6 2333.37  127.89
   1  -7   6 2381.16  127.69
   1  -7   6 2330.47  127.19
   1  -7   6 2221.38  127.49
   1  -7   6 2078.29  129.99
   1  -7   6 2290.07  127.59
  -2   7  -6  232.28   21.60
  -2   7  -6  230.58   13.80
  -2   7  -6  225.78   16.80
   2  -7   6  221.98   15.30
   2  -7   6  237.68   16.10
   2  -7   6  246.38   17.20
   2  -7   6  231.68   19.70
   2  -7   6  218.98   16.70
  -3   7  -6    9.70    4.20
  -3   7  -6    8.80    2.10
   3  -7   6   11.60    6.10
   3  -7   6    9.00    2.90
   3  -7   6    9.40    3.80
   3  -7   6    4.90    2.90
  -4   7  -6 1102.59   68.39
  -4   7  -6 1155.08   66.99
   4  -7   6 1305.77   70.49
  -5   7  -6  437.26   25.50
   5  -7   6  409.66   27.50
   5   6  -6  560.04   30.40
  -5  -6   6  506.65   31.50
  -5  -6   6  459.45   31.70
  -5  -6   6  475.55   32.40
   4   6  -6  262.87   16.30
   4   6  -6  219.88   18.10
   4   6  -6  238.08   17.00
   4   6  -6  243.58   16.50
  -4  -6   6  265.47   18.00
  -4  -6   6  257.87   18.60
   3   6  -6  272.77   16.80
   3   6  -6  277.67   19.20
   3   6  -6  277.87   16.20
   3   6  -6  244.48   16.80
  -3  -6   6  223.88   17.50
  -3  -6   6  247.48   18.30
  -3  -6   6  232.88   18.30
   2   6  -6 2043.00  123.29
   2   6  -6 2137.09  121.09
  -2  -6   6 2286.97  124.19
  -2  -6   6 2205.68  123.19
  -2  -6   6 2266.57  123.49
   1   6  -6  751.12   48.80
   1   6  -6  735.63   47.80
  -1  -6   6  768.82   49.40
  -1  -6   6  931.21   49.70
  -1  -6   6  927.21   50.49
  -1  -6   6  927.11   49.70
  -1  -6   6  885.61   49.99
   0   6  -6 1816.82   95.39
   0   6  -6 1694.33   97.69
   0   6  -6 1884.01   96.99
   0  -6   6 1533.35   99.69
   0  -6   6 1745.93   98.59
   0  -6   6 1747.13   98.09
   0  -6   6 1768.62   97.99
   0  -6   6 1714.33   97.79
  -1   6  -6  603.74   34.90
  -1   6  -6  583.14   34.40
  -1   6  -6  553.34   33.30
   1  -6   6  562.74   34.00
   1  -6   6  548.05   37.50
   1  -6   6  557.84   33.70
   1  -6   6  589.14   34.70
   1  -6   6  569.44   34.50
   1  -6   6  557.54   34.30
  -2   6  -6 1594.84   89.99
  -2   6  -6 1655.03   93.29
  -2   6  -6 1672.43   93.79
   2  -6   6 1628.44   97.19
   2  -6   6 1530.95   91.09
   2  -6   6 1716.03   93.39
   2  -6   6 1626.94   93.29
   2  -6   6 1608.94   91.89
  -3   6  -6  449.46   25.40
  -3   6  -6  435.86   28.30
  -3   6  -6  451.05   27.30
   3  -6   6  391.96   26.10
   3  -6   6  403.16   28.10
   3  -6   6  424.46   32.20
   3  -6   6  455.25   28.50
  -4   6  -6  570.14   34.90
  -4   6  -6  581.14   33.20
  -4   6  -6  559.54   36.10
   4  -6   6  577.94   36.00
   4  -6   6  506.25   35.60
  -5   6  -6   10.70    4.90
  -5   6  -6    9.20    2.70
   5  -6   6    8.20    3.60
   6   5  -6  357.76   21.00
   6   5  -6  290.17   25.00
   6   5  -6  329.57   20.30
  -6  -5   6  329.87   23.80
  -6  -5   6  291.17   20.80
   5   5  -6  344.97   23.70
   5   5  -6  398.06   23.70
   5   5  -6  366.76   29.50
   5   5  -6  393.16   23.90
  -5  -5   6  404.66   25.30
  -5  -5   6  368.26   25.00
  -5  -5   6  401.06   26.80
   4   5  -6   75.49    6.80
   4   5  -6   64.59    6.30
   4   5  -6   67.29    8.20
   4   5  -6   73.59    6.30
  -4  -5   6   67.19    8.00
  -4  -5   6   73.59    8.00
  -4  -5   6   70.09    8.50
   3   5  -6 1303.87   75.39
   3   5  -6 1131.29   72.89
   3   5  -6 1337.37   72.59
  -3  -5   6 1319.57   74.79
  -3  -5   6 1299.17   74.29
  -3  -5   6 1339.47   75.19
  -3  -5   6 1331.37   74.99
   2   5  -6  492.35   28.80
  -2  -5   6  517.65   30.00
  -2  -5   6  496.45   30.40
  -2  -5   6  424.96   30.40
  -2  -5   6  507.55   29.90
   1   5  -6   22.80    2.10
   1   5  -6   23.10    3.00
   1   5  -6   21.20    2.50
   1   5  -6   21.10    4.30
  -1  -5   6   18.70    4.90
  -1  -5   6   16.10    3.70
  -1  -5   6   15.50    4.50
  -1  -5   6   17.60    4.20
   0   5  -6 1418.56   79.19
   0   5  -6 1492.65   79.19
   0  -5   6 1322.57   77.89
   0  -5   6 1390.86   78.09
   0  -5   6 1400.66   78.19
   0  -5   6 1298.47   80.69
   0  -5   6 1372.06   78.69
  -1   5  -6   39.20    5.10
  -1   5  -6   39.60    5.00
   1  -5   6   51.49    5.80
   1  -5   6   58.09    5.60
   1  -5   6   51.59    4.80
   1  -5   6   64.49    9.50
   1  -5   6   48.50    4.90
   1  -5   6   52.19    5.70
  -2   5  -6 2521.95  135.19
  -2   5  -6 2363.96  127.69
  -2   5  -6 2208.68  124.79
   2  -5   6 2101.89  125.99
   2  -5   6 2310.67  131.89
   2  -5   6 2108.19  125.59
   2  -5   6 2136.19  125.99
   2  -5   6 2297.07  127.89
   2  -5   6 2371.56  127.69
  -3   5  -6 2281.27  124.69
  -3   5  -6 2286.27  126.69
  -3   5  -6 2214.68  123.29
  -3   5  -6 2248.58  126.19
   3  -5   6 2201.68  126.59
   3  -5   6 1947.31  123.39
   3  -5   6 2283.77  130.79
   3  -5   6 2331.87  126.29
  -4   5  -6   82.99   10.40
  -4   5  -6   72.59    7.50
  -4   5  -6   79.79    9.40
  -4   5  -6   70.09    9.00
   4  -5   6   70.09    8.50
   4  -5   6   79.19   12.30
   4  -5   6   87.69    9.20
  -5   5  -6  131.99   11.40
  -5   5  -6  132.99    9.90
   5  -5   6  109.59   11.10
   5  -5   6  106.89   14.40
   6   4  -6  760.22   44.60
   6   4  -6  795.22   44.70
  -6  -4   6  717.83   45.30
  -6  -4   6  789.62   48.00
   5   4  -6  713.83   40.10
   5   4  -6  691.33   43.20
   5   4  -6  677.13   46.90
   5   4  -6  708.83   40.20
   5   4  -6  635.04   40.20
  -5  -4   6  641.84   41.10
  -5  -4   6  691.23   41.60
  -5  -4   6  717.63   43.50
   4   4  -6  239.78   16.10
   4   4  -6  259.07   16.00
   4   4  -6  264.57   18.90
  -4  -4   6  241.38   17.60
  -4  -4   6  251.97   17.60
  -4  -4   6  255.17   18.80
   3   4  -6  389.26   26.00
   3   4  -6  385.46   23.20
  -3  -4   6  397.26   25.70
  -3  -4   6  389.06   24.50
  -3  -4   6  390.76   25.10
  -3  -4   6  410.66   25.30
  -3  -4   6  410.16   24.90
   2   4  -6 2613.54  154.08
   2   4  -6 3046.00  154.58
   2   4  -6 2997.80  157.28
   2   4  -6 2889.51  153.88
  -2  -4   6 2435.06  156.18
  -2  -4   6 2816.32  155.58
  -2  -4   6 2750.02  155.88
  -2  -4   6 2832.12  155.58
   1   4  -6 2202.28  121.59
   1   4  -6 2014.30  118.39
   1   4  -6 2008.20  118.79
  -1  -4   6 2255.57  119.89
  -1  -4   6 2299.17  120.19
  -1  -4   6 2220.48  120.59
  -1  -4   6 2132.09  119.19
  -1  -4   6 2108.99  121.99
   0   4  -6 1121.49   58.19
   0  -4   6 1035.70   59.19
   0  -4   6 1022.10   61.49
   0  -4   6 1038.20   58.69
   0  -4   6  971.40   58.29
   0  -4   6 1022.90   58.39
  -1   4  -6  386.16   23.20
  -1   4  -6  396.86   23.40
   1  -4   6  345.27   22.30
   1  -4   6  378.16   23.20
   1  -4   6  387.46   23.40
   1  -4   6  383.96   26.60
   1  -4   6  370.96   22.70
   1  -4   6  402.96   24.20
  -2   4  -6  613.34   35.80
  -2   4  -6  627.54   35.90
  -2   4  -6  689.23   38.90
  -2   4  -6  633.44   36.00
  -2   4  -6  629.14   38.10
   2  -4   6  632.54   36.90
   2  -4   6  664.53   38.00
   2  -4   6  661.83   38.40
   2  -4   6  549.54   36.00
   2  -4   6  651.13   41.80
  -3   4  -6 4106.59  223.08
  -3   4  -6 4211.98  225.48
  -3   4  -6 4175.58  225.88
  -3   4  -6 4188.78  224.58
   3  -4   6 3845.42  229.38
   3  -4   6 3997.90  225.18
   3  -4   6 3785.82  225.08
  -4   4  -6  825.92   53.79
  -4   4  -6  854.91   51.59
  -4   4  -6  843.82   52.89
   4  -4   6 1004.90   54.39
   4  -4   6  869.41   53.69
   4  -4   6  969.20   59.29
  -5   4  -6   25.80    6.10
  -5   4  -6   19.50    4.20
  -5   4  -6   21.10    5.40
   5  -4   6   15.20    6.50
   5  -4   6   28.20    6.00
  -6   4  -6  155.78   12.10
  -6   4  -6  150.78   13.50
   6  -4   6  190.68   13.70
   7   3  -6   95.39    7.70
   7   3  -6   82.59   10.80
   7   3  -6   87.49    7.40
  -7  -3   6  107.59   11.20
   6   3  -6   47.10    8.90
   6   3  -6   51.89    5.40
   6   3  -6   46.60    6.80
   6   3  -6   54.29    5.40
   6   3  -6   47.60    7.80
  -6  -3   6   42.20    8.20
   5   3  -6  913.11   57.79
   5   3  -6  820.72   51.39
   5   3  -6  929.51   51.39
   5   3  -6  904.51   51.29
   5   3  -6  876.71   54.29
  -5  -3   6  891.41   53.19
  -5  -3   6  949.71   54.69
  -5  -3   6  861.91   52.29
   4   3  -6  730.93   46.60
   4   3  -6  703.83   46.90
   4   3  -6  811.72   47.30
   4   3  -6  805.82   47.10
   4   3  -6  803.32   52.49
  -4  -3   6  901.91   50.09
  -4  -3   6  793.32   49.20
  -4  -3   6  951.10   50.49
  -4  -3   6  925.71   49.10
  -4  -3   6  852.91   48.70
   3   3  -6 1984.80  107.69
   3   3  -6 1994.80  110.69
   3   3  -6 1825.92  107.49
   3   3  -6 2016.00  107.99
  -3  -3   6 1982.00  109.29
  -3  -3   6 1937.81  109.89
  -3  -3   6 1935.81  109.29
  -3  -3   6 1775.52  109.99
  -3  -3   6 2051.39  109.69
   2   3  -6  105.89    7.00
   2   3  -6  102.09    6.50
   2   3  -6  110.59    9.40
  -2  -3   6   93.19    7.90
  -2  -3   6   90.59    8.10
  -2  -3   6  105.29    8.00
  -2  -3   6   92.49    7.90
   1   3  -6  118.29    7.50
   1   3  -6  122.89    7.70
  -1  -3   6  128.49    8.50
  -1  -3   6  113.39    7.60
  -1  -3   6  118.49   10.40
  -1  -3   6  127.59    9.00
  -1  -3   6  123.69    9.30
  -1   3  -6 1852.61  112.89
  -1   3  -6 2117.09  114.79
  -1   3  -6 2112.19  114.09
  -1   3  -6 2099.89  114.39
   1  -3   6 2111.99  118.09
   1  -3   6 2224.88  115.39
   1  -3   6 2034.40  114.49
   1  -3   6 2100.19  114.69
   1  -3   6 1857.41  113.39
  -2   3  -6  358.86   21.00
  -2   3  -6  355.96   22.60
  -2   3  -6  360.26   22.40
  -2   3  -6  350.46   20.70
  -2   3  -6  341.47   20.70
   2  -3   6  314.57   31.90
   2  -3   6  370.66   22.80
   2  -3   6  365.96   22.40
  -3   3  -6 2301.67  134.19
  -3   3  -6 2479.65  134.79
  -3   3  -6 2289.87  133.99
  -3   3  -6 2465.25  137.19
  -3   3  -6 2519.35  136.39
  -3   3  -6 2528.85  136.89
   3  -3   6 2379.56  140.49
   3  -3   6 2487.35  136.49
   3  -3   6 2366.46  136.49
  -4   3  -6  198.88   16.30
  -4   3  -6  208.48   14.70
  -4   3  -6  196.68   16.80
   4  -3   6  235.78   20.70
   4  -3   6  232.88   16.70
   4  -3   6  215.08   16.20
  -5   3  -6 1321.77   77.09
  -5   3  -6 1285.87   76.89
  -5   3  -6 1179.78   76.99
  -5   3  -6 1341.47   75.19
   5  -3   6 1395.56   76.99
   5  -3   6 1413.46   81.79
   5  -3   6 1217.68   76.29
  -6   3  -6  480.85   30.90
  -6   3  -6  448.96   30.30
  -6   3  -6  503.55   29.30
   6  -3   6  442.26   29.80
   7   2  -6   56.09    6.10
  -7  -2   6   67.49    8.40
  -7  -2   6   64.49    8.70
   6   2  -6  186.48   12.70
   6   2  -6  192.98   15.50
   6   2  -6  173.58   17.60
   6   2  -6  190.48   13.70
   6   2  -6  186.78   12.50
  -6  -2   6  163.38   14.50
  -6  -2   6  171.88   15.40
   5   2  -6 2563.34  151.88
   5   2  -6 2713.13  151.88
   5   2  -6 2719.43  154.78
   5   2  -6 2829.22  151.88
  -5  -2   6 2652.23  152.48
  -5  -2   6 2927.81  155.08
  -5  -2   6 2744.53  154.18
   4   2  -6  727.13   40.30
   4   2  -6  643.54   39.90
   4   2  -6  662.23   40.40
   4   2  -6  699.23   42.80
   4   2  -6  713.83   40.10
   4   2  -6  778.92   45.80
  -4  -2   6  671.53   42.30
  -4  -2   6  687.23   41.20
  -4  -2   6  712.93   41.70
  -4  -2   6  690.53   42.20
   3   2  -6  637.24   35.60
   3   2  -6  641.44   38.90
   3   2  -6  672.33   35.80
   3   2  -6  690.53   40.20
  -3  -2   6  585.04   37.10
  -3  -2   6  544.45   37.00
  -3  -2   6  635.04   37.00
  -3  -2   6  594.04   36.80
  -3  -2   6  610.34   38.50
  -2  -2   6 4980.90  273.47
  -2  -2   6 4966.50  275.07
  -2  -2   6 4928.71  273.57
   1   2  -6 1512.75   86.39
   1   2  -6 1384.86   83.69
   1   2  -6 1385.66   83.79
  -1  -2   6 1658.33   85.39
  -1  -2   6 1598.34   85.59
  -1  -2   6 1534.65   86.99
  -1  -2   6 1575.24   85.49
  -1   2  -6  331.77   20.00
  -1   2  -6  371.36   21.30
  -1   2  -6  359.36   21.00
  -1   2  -6  348.47   20.50
   1  -2   6  351.86   21.00
   1  -2   6  314.37   20.30
   1  -2   6  357.86   21.40
   1  -2   6  350.76   24.10
  -2   2  -6   53.19    5.80
  -2   2  -6   51.79    5.90
  -2   2  -6   52.29    4.60
  -2   2  -6   53.39    4.70
  -2   2  -6   52.69    4.80
  -3   2  -6 3211.08  177.48
  -3   2  -6 3299.07  179.48
  -3   2  -6 3135.39  179.58
  -3   2  -6 3334.77  177.88
  -3   2  -6 3246.78  179.78
  -3   2  -6 3251.37  179.78
  -3   2  -6 3396.96  179.38
   3  -2   6 3105.19  182.78
   3  -2   6 3204.18  178.98
   3  -2   6 3037.10  178.78
   3  -2   6 3045.70  178.98
  -4   2  -6  238.28   16.60
  -4   2  -6  222.68   15.80
  -4   2  -6  237.28   19.20
  -4   2  -6  262.27   17.40
  -4   2  -6  242.48   18.80
  -4   2  -6  263.37   19.00
   4  -2   6  274.57   22.50
   4  -2   6  253.87   18.20
   4  -2   6  283.17   18.70
   4  -2   6  269.27   18.70
  -5   2  -6  165.68   14.30
  -5   2  -6  173.58   13.20
  -5   2  -6  152.78   14.30
  -5   2  -6  168.88   14.80
   5  -2   6  167.08   14.20
   5  -2   6  174.98   14.10
   5  -2   6  161.78   16.60
  -6   2  -6  329.87   21.40
  -6   2  -6  322.77   22.80
   7   1  -6  121.09    9.30
   7   1  -6  108.59   13.20
  -7  -1   6  132.89   12.10
  -7  -1   6  120.29   11.40
   6   1  -6   37.40    6.50
   6   1  -6   28.50    9.00
   6   1  -6   38.20    4.40
   6   1  -6   37.60    4.90
  -6  -1   6   50.39   13.40
  -6  -1   6   51.29    8.30
   5   1  -6  486.55   30.10
   5   1  -6  513.95   36.30
   5   1  -6  502.35   32.70
   5   1  -6  527.85   30.40
   5   1  -6  502.25   30.90
  -5  -1   6  477.75   30.20
  -5  -1   6  537.35   32.90
  -5  -1   6  531.75   32.90
   4   1  -6 1468.75   77.59
   4   1  -6 1351.96   77.39
   4   1  -6 1454.25   83.19
   4   1  -6 1336.97   79.79
  -4  -1   6 1348.47   79.29
  -4  -1   6 1352.46   79.39
  -4  -1   6 1356.36   78.09
   3   1  -6  592.44   36.60
   3   1  -6  632.94   36.70
   3   1  -6  583.14   38.80
  -3  -1   6  674.53   38.30
  -3  -1   6  670.93   38.50
  -3  -1   6  716.23   38.10
   2   1  -6  532.25   32.50
   2   1  -6  507.65   32.50
   2   1  -6  562.94   35.70
  -2  -1   6  629.94   34.10
  -2  -1   6  600.64   34.30
  -2  -1   6  629.94   36.00
   1   1  -6  753.22   42.70
   1   1  -6  745.53   42.90
  -1  -1   6  788.12   44.50
  -1  -1   6  798.62   46.10
  -1  -1   6  808.32   44.40
  -1  -1   6  717.23   43.40
   0   1  -6 1729.33  102.09
   0   1  -6 1699.23  101.59
   0   1  -6 1893.11  103.69
   0   1  -6 1872.51  102.79
   0   1  -6 1916.41  102.69
   0   1  -6 1957.40  104.49
   0  -1   6 1849.21  102.99
   0  -1   6 1889.31  102.29
   0  -1   6 1797.62  102.49
   0  -1   6 1827.42  103.29
   0  -1   6 1947.11  103.59
  -1   1  -6  832.92   47.00
  -1   1  -6  894.61   47.60
  -1   1  -6  862.21   47.70
  -1   1  -6  819.82   46.70
  -1   1  -6  819.52   46.70
   1  -1   6  787.32   50.09
   1  -1   6  854.21   47.00
   1  -1   6  813.72   48.00
   1  -1   6  774.52   46.90
   1  -1   6  823.62   47.30
  -2   1  -6 2149.78  122.39
  -2   1  -6 2134.29  122.59
  -2   1  -6 2146.89  122.69
  -2   1  -6 2209.98  123.69
   2  -1   6 2258.67  126.99
   2  -1   6 2371.76  123.19
   2  -1   6 2331.87  123.49
   2  -1   6 1870.41  123.79
   2  -1   6 2385.16  123.69
  -3   1  -6   40.80    4.70
  -3   1  -6   45.60    6.50
  -3   1  -6   48.80    5.00
  -3   1  -6   45.30    6.40
  -3   1  -6   38.90    6.00
  -3   1  -6   43.40    5.20
   3  -1   6   30.70    6.00
   3  -1   6   34.30    5.70
   3  -1   6   34.80    5.60
   3  -1   6   30.60    7.60
  -4   1  -6  935.91   56.29
  -4   1  -6  859.51   53.79
  -4   1  -6  979.20   54.79
  -4   1  -6  862.41   53.49
   4  -1   6  942.61   59.19
   4  -1   6  956.60   55.99
   4  -1   6  992.50   55.89
  -5   1  -6  295.17   20.70
  -5   1  -6  350.26   22.20
  -5   1  -6  301.67   20.40
  -5   1  -6  301.47   26.80
  -5   1  -6  345.87   24.20
  -5   1  -6  343.97   23.30
   5  -1   6  349.67   22.90
   5  -1   6  328.37   25.40
   5  -1   6  329.37   23.00
  -6   1  -6  244.68   16.10
  -6   1  -6  234.68   17.10
   6  -1   6  210.28   16.50
   6  -1   6  226.38   16.60
   7   0  -6   96.09    8.10
   7   0  -6   85.39   11.80
  -7   0   6   96.29   10.30
  -7   0   6  107.29   10.40
   6   0  -6   12.30    3.50
   6   0  -6   13.30    3.90
   6   0  -6   18.60    3.50
   6   0  -6   20.50    4.20
   5   0  -6 1824.02  103.89
   5   0  -6 1739.33   98.99
   5   0  -6 1746.43   98.19
   5   0  -6 1623.14   96.49
  -5   0   6 1717.63   99.29
  -5   0   6 1719.53   98.99
   4   0  -6  631.84   35.50
   4   0  -6  598.24   32.70
   4   0  -6  632.54   35.00
  -4   0   6  513.95   31.90
  -4   0   6  523.05   32.50
  -4   0   6  550.74   34.10
  -4   0   6  506.75   32.00
  -4   0   6  528.75   32.00
  -4   0   6  562.04   34.50
  -4   0   6  538.35   32.10
   3   0  -6  852.21   49.10
   3   0  -6  777.42   44.40
   3   0  -6  849.02   46.90
   3   0  -6  778.12   44.40
  -3   0   6  801.42   45.20
  -3   0   6  766.62   44.40
  -3   0   6  746.43   43.90
  -3   0   6  754.72   43.90
  -3   0   6  743.93   44.00
  -3   0   6  776.32   46.00
   2   0  -6  385.26   23.60
   2   0  -6  357.26   21.30
   2   0  -6  347.77   20.00
  -2   0   6  331.17   19.80
  -2   0   6  323.77   20.40
  -2   0   6  332.07   19.50
  -2   0   6  342.07   21.00
  -2   0   6  322.17   21.40
  -1   0   6  179.58   12.30
  -1   0   6  192.28   14.30
  -1   0   6  193.78   11.90
  -1   0   6  183.38   12.90
  -1   0   6  191.88   11.40
  -1   0   6  192.18   12.80
   0   0  -6  880.71   49.60
   0   0  -6  854.51   47.80
   0   0  -6  841.72   47.90
   0   0  -6  813.42   46.90
   0   0  -6  841.62   47.60
   0   0   6  797.92   47.50
   0   0   6  821.72   50.29
   0   0   6  878.61   48.90
   0   0   6  886.31   47.80
  -1   0  -6 1803.22  100.89
  -1   0  -6 1797.32  101.59
  -1   0  -6 1848.62  101.29
  -1   0  -6 1778.72  101.89
  -1   0  -6 1761.02  101.09
   1   0   6 1752.42  104.19
   1   0   6 1825.62  102.39
   1   0   6 1956.50  101.39
  -2   0  -6 1295.87   77.59
  -2   0  -6 1272.57   76.29
  -2   0  -6 1341.67   76.39
  -2   0  -6 1309.97   77.29
  -2   0  -6 1415.76   78.09
   2   0   6 1380.76   78.09
   2   0   6 1335.57   79.99
   2   0   6 1366.16   77.09
   2   0   6 1466.85   76.89
  -3   0  -6   34.80    5.00
  -3   0  -6   28.40    5.60
  -3   0  -6   41.30    5.20
  -3   0  -6   31.80    5.60
  -3   0  -6   38.00    4.80
  -3   0  -6   41.80    6.50
   3   0   6   32.60    5.40
  -4   0  -6 1028.70   58.49
  -4   0  -6 1074.29   60.79
  -4   0  -6  999.60   57.89
  -4   0  -6  987.70   58.29
  -4   0  -6 1005.10   60.09
   4   0   6  974.40   60.19
   4   0   6  944.71   61.89
   4   0   6 1024.10   59.39
   4   0   6  972.80   59.69
  -5   0  -6  128.79   11.50
  -5   0  -6  127.59   10.00
  -5   0  -6  125.79   12.90
  -5   0  -6  132.69   10.80
  -5   0  -6  115.39   10.10
   5   0   6  130.69   11.50
   5   0   6  118.29   11.30
   7  -1  -6   96.49    8.20
  -7   1   6  107.39   10.90
   6  -1  -6  531.25   32.60
   6  -1  -6  511.65   30.80
   6  -1  -6  440.56   36.50
   6  -1  -6  502.15   32.00
  -6   1   6  536.45   34.30
  -6   1   6  528.55   33.60
   5  -1  -6 1001.60   56.59
   5  -1  -6 1039.20   56.89
   5  -1  -6  896.71   54.39
   5  -1  -6 1010.40   55.19
  -5   1   6  883.81   56.99
  -5   1   6 1025.70   57.69
  -5   1   6  897.51   54.79
  -5   1   6  858.31   55.69
  -5   1   6 1004.00   56.69
   4  -1  -6 3150.58  162.98
   4  -1  -6 2999.10  164.48
   4  -1  -6 2857.81  162.48
   4  -1  -6 3056.09  164.48
  -4   1   6 2928.91  163.08
  -4   1   6 2870.81  162.88
  -4   1   6 2834.22  162.78
  -4   1   6 2951.70  164.78
  -4   1   6 2801.22  162.38
   3  -1  -6  619.64   40.90
   3  -1  -6  684.33   41.10
   3  -1  -6  733.53   46.30
   3  -1  -6  668.63   42.80
  -3   1   6  752.72   41.20
  -3   1   6  784.42   41.90
  -3   1   6  756.42   40.70
  -3   1   6  774.52   43.00
   2  -1  -6  242.68   16.10
   2  -1  -6  278.07   19.90
   2  -1  -6  244.68   15.90
  -2   1   6  263.27   16.00
  -2   1   6  277.27   17.00
  -2   1   6  272.87   17.60
  -2   1   6  280.67   16.00
  -2   1   6  283.67   17.60
   1  -1  -6  573.84   32.20
   1  -1  -6  582.24   32.60
   1  -1  -6  565.94   32.70
   1  -1  -6  512.05   32.20
  -1   1   6  602.64   33.90
  -1   1   6  577.34   35.30
  -1   1   6  598.04   32.70
  -1   1   6  560.84   33.80
  -1   1   6  576.44   32.70
  -1   1   6  538.75   32.30
   0  -1  -6 1085.99   61.69
   0  -1  -6 1065.79   61.89
   0  -1  -6 1119.49   64.49
   0  -1  -6 1051.89   62.19
   0  -1  -6 1098.49   61.99
   0   1   6 1196.38   65.09
   0   1   6 1039.60   61.19
   0   1   6 1102.89   62.09
   0   1   6 1141.29   63.39
  -1  -1  -6 5140.99  287.17
  -1  -1  -6 5084.49  286.47
  -1  -1  -6 4998.90  287.47
  -1  -1  -6 5292.67  286.37
   1   1   6 5161.48  289.47
   1   1   6 5203.08  286.97
   1   1   6 5487.35  286.87
   1   1   6 5253.97  288.17
  -2  -1  -6   66.09    6.90
  -2  -1  -6   59.79    6.90
  -2  -1  -6   62.79    6.40
  -2  -1  -6   63.29    6.90
  -2  -1  -6   68.49    6.30
  -2  -1  -6   62.89    6.20
   2   1   6   44.10    7.70
   2   1   6   43.80    8.00
  -3  -1  -6   60.59    6.40
  -3  -1  -6   55.99    7.60
  -3  -1  -6   61.49    6.30
  -3  -1  -6   59.09    7.30
  -3  -1  -6   58.69    6.60
  -3  -1  -6   61.69    8.30
   3   1   6   47.90    6.40
   3   1   6   54.09    7.70
   3   1   6   56.39    6.80
   3   1   6   51.59    8.00
   3   1   6   49.90    6.90
  -4  -1  -6  375.76   24.00
  -4  -1  -6  372.36   25.70
  -4  -1  -6  378.66   24.20
  -4  -1  -6  393.06   23.90
   4   1   6  341.87   24.80
   4   1   6  350.16   24.10
   4   1   6  371.66   24.70
  -5  -1  -6  181.38   15.40
  -5  -1  -6  193.98   15.50
  -5  -1  -6  186.88   13.50
  -5  -1  -6  175.98   13.70
  -5  -1  -6  181.78   13.20
   5   1   6  156.48   13.70
   7  -2  -6   15.50    3.30
   7  -2  -6   19.00    7.90
  -7   2   6   22.80    5.90
   6  -2  -6  338.67   28.90
   6  -2  -6  382.76   22.70
  -6   2   6  353.36   22.70
  -6   2   6  329.97   22.20
  -6   2   6  360.86   25.00
   5  -2  -6 1014.20   54.49
   5  -2  -6 1002.90   54.99
   5  -2  -6 1052.59   56.69
  -5   2   6  867.81   53.79
  -5   2   6  954.30   56.59
  -5   2   6  816.52   54.29
  -5   2   6  876.21   54.39
   4  -2  -6  918.61   51.09
   4  -2  -6  992.20   58.49
   4  -2  -6  835.02   50.59
   4  -2  -6  787.32   49.80
   4  -2  -6  969.30   53.09
   4  -2  -6  914.81   52.09
  -4   2   6  860.31   51.49
  -4   2   6  883.61   52.79
  -4   2   6  836.12   51.59
   3  -2  -6  411.26   26.00
   3  -2  -6  463.85   26.30
   3  -2  -6  447.36   27.40
   3  -2  -6  411.16   25.60
   3  -2  -6  473.35   32.20
  -3   2   6  453.65   27.90
  -3   2   6  433.96   26.10
  -3   2   6  447.56   27.10
  -3   2   6  438.06   25.90
   2  -2  -6  432.36   24.60
   2  -2  -6  393.46   24.70
   2  -2  -6  465.85   29.90
   2  -2  -6  430.46   24.50
  -2   2   6  388.96   24.40
  -2   2   6  405.56   24.50
  -2   2   6  405.16   25.60
  -2   2   6  413.86   26.00
   1  -2  -6  430.26   25.80
   1  -2  -6  475.75   26.10
   1  -2  -6  468.25   25.90
   1  -2  -6  511.45   30.90
   1  -2  -6  485.85   26.40
   1  -2  -6  472.95   26.40
  -1   2   6  401.26   25.70
  -1   2   6  434.26   26.30
  -1   2   6  397.06   26.30
  -1   2   6  417.76   27.30
  -1   2   6  424.36   27.10
  -1   2   6  410.76   28.40
   0  -2  -6  375.66   22.10
   0  -2  -6  362.26   22.00
   0  -2  -6  366.76   21.70
   0   2   6  333.47   21.20
   0   2   6  376.16   22.20
   0   2   6  348.07   22.40
  -1  -2  -6  335.07   20.20
  -1  -2  -6  348.47   20.70
  -1  -2  -6  354.26   21.10
  -1  -2  -6  295.47   19.50
  -1  -2  -6  324.27   21.20
   1   2   6  330.17   20.70
   1   2   6  317.37   21.00
   1   2   6  305.07   22.50
   1   2   6  296.47   19.70
   1   2   6  334.57   22.10
  -2  -2  -6 2244.18  122.59
  -2  -2  -6 2133.99  122.49
  -2  -2  -6 2184.28  124.09
  -2  -2  -6 1980.30  121.09
  -2  -2  -6 2314.37  123.19
  -2  -2  -6 2179.08  123.59
   2   2   6 2161.98  125.09
   2   2   6 2145.79  123.69
   2   2   6 2242.28  126.69
   2   2   6 2298.17  124.89
  -3  -2  -6  426.26   25.60
  -3  -2  -6  396.56   26.80
  -3  -2  -6  397.86   27.10
  -3  -2  -6  413.66   26.00
  -3  -2  -6  391.26   25.30
   3   2   6  400.06   27.50
   3   2   6  390.66   25.80
   3   2   6  402.06   26.80
  -4  -2  -6   84.39    8.40
  -4  -2  -6   93.99    9.00
  -4  -2  -6   88.39   10.30
  -4  -2  -6   86.59    8.90
  -4  -2  -6   79.09    8.50
   4   2   6  110.49    9.40
   4   2   6  101.79   10.00
   4   2   6  117.49    9.90
   4   2   6  105.39   10.80
  -5  -2  -6   49.10    7.10
  -5  -2  -6   54.29    6.00
   5   2   6   48.20    6.40
   5   2   6   48.60    6.50
   7  -3  -6  491.25   31.30
   7  -3  -6  413.36   34.60
   7  -3  -6  532.85   32.30
  -7   3   6  543.65   32.40
   6  -3  -6   40.00    6.20
   6  -3  -6   41.00    8.90
   6  -3  -6   40.70    5.30
  -6   3   6   47.50    6.00
  -6   3   6   53.89    5.50
  -6   3   6   52.99    7.70
   5  -3  -6  320.77   28.00
   5  -3  -6  322.97   21.70
   5  -3  -6  324.07   20.50
   5  -3  -6  316.67   22.20
  -5   3   6  300.17   19.90
  -5   3   6  284.87   20.70
  -5   3   6  335.57   22.50
  -5   3   6  326.87   21.20
  -5   3   6  294.87   19.50
  -4   3   6   99.99    8.10
  -4   3   6  108.99    9.60
  -4   3   6  104.59    8.40
  -4   3   6  103.29   10.10
  -4   3   6  108.29    9.60
   3  -3  -6  967.50   58.69
   3  -3  -6  894.91   51.49
   3  -3  -6  846.72   50.79
   3  -3  -6  896.21   52.69
   3  -3  -6  860.21   49.80
   3  -3  -6  853.71   49.99
   3  -3  -6  922.01   50.89
   3  -3  -6  838.12   50.49
  -3   3   6  880.41   50.59
  -3   3   6  884.01   52.19
  -3   3   6  873.91   50.69
  -3   3   6  891.61   51.99
   2  -3  -6  841.22   50.29
   2  -3  -6  835.62   49.50
   2  -3  -6  889.51   49.99
   2  -3  -6  817.82   49.99
   2  -3  -6  936.11   56.59
   2  -3  -6  847.42   49.80
  -2   3   6  904.81   50.09
  -2   3   6  911.21   51.49
  -2   3   6  881.81   49.90
   1  -3  -6  277.47   17.00
   1  -3  -6  290.67   21.80
   1  -3  -6  260.17   16.80
   1  -3  -6  255.77   16.40
  -1   3   6  257.07   17.40
  -1   3   6  270.17   18.50
  -1   3   6  245.98   16.40
  -1   3   6  270.07   17.20
  -1   3   6  256.47   19.10
   0  -3  -6 1079.39   61.79
   0  -3  -6 1087.79   66.19
   0  -3  -6 1008.20   61.29
   0  -3  -6  965.90   61.29
   0   3   6 1100.29   65.29
   0   3   6 1156.48   62.09
   0   3   6 1076.09   60.99
   0   3   6 1162.58   63.69
  -1  -3  -6 3657.23  204.18
  -1  -3  -6 3953.60  205.08
  -1  -3  -6 3665.33  203.88
  -1  -3  -6 3659.63  204.78
  -1  -3  -6 3970.30  204.48
   1   3   6 3501.45  206.18
   1   3   6 3821.12  206.58
   1   3   6 3605.54  205.28
   1   3   6 3430.76  203.28
   1   3   6 3594.04  208.08
  -2  -3  -6  993.90   59.59
  -2  -3  -6 1067.99   60.49
  -2  -3  -6  996.00   58.49
  -2  -3  -6 1101.39   60.09
  -2  -3  -6 1019.10   61.49
   2   3   6  982.00   60.89
   2   3   6 1083.09   62.39
   2   3   6 1032.50   60.39
  -3  -3  -6  160.88   13.60
  -3  -3  -6  153.48   12.70
  -3  -3  -6  204.28   18.30
  -3  -3  -6  180.68   13.60
  -3  -3  -6  157.28   14.10
   3   3   6  182.98   13.70
   3   3   6  186.58   14.80
   3   3   6  199.28   15.60
  -4  -3  -6    8.70    3.80
  -4  -3  -6    9.40    4.20
  -4  -3  -6    6.60    3.30
   4   3   6   13.40    4.90
   4   3   6   12.10    3.30
   4   3   6   14.50    4.20
   4   3   6   12.30    4.90
   6  -4  -6  232.48   17.00
   6  -4  -6  238.38   18.40
   6  -4  -6  248.78   19.00
  -6   4   6  277.27   19.30
  -6   4   6  276.87   21.10
  -6   4   6  250.67   17.90
   5  -4  -6   86.49   13.10
   5  -4  -6   88.19    7.80
   5  -4  -6   88.89    9.00
   5  -4  -6   97.69   12.50
  -5   4   6   70.89    8.70
  -5   4   6   70.49    7.00
  -5   4   6   73.49   11.40
  -5   4   6   70.39    8.10
  -5   4   6   69.09    6.70
   4  -4  -6  218.68   17.60
   4  -4  -6  224.88   16.10
   4  -4  -6  234.38   22.90
   4  -4  -6  214.68   16.80
  -4   4   6  249.97   17.60
  -4   4   6  241.78   15.80
  -4   4   6  261.57   17.70
  -4   4   6  250.47   16.10
  -4   4   6  227.18   18.00
   3  -4  -6  834.12   54.39
   3  -4  -6  730.33   46.20
   3  -4  -6  713.53   48.60
  -3   4   6  837.82   47.50
  -3   4   6  766.12   45.60
  -3   4   6  804.32   46.90
  -3   4   6  796.12   45.60
   2  -4  -6  971.30   57.09
   2  -4  -6  970.70   57.79
   2  -4  -6  957.40   56.79
   2  -4  -6 1001.80   59.19
   2  -4  -6 1066.79   65.59
  -2   4   6 1038.20   59.39
  -2   4   6  989.00   57.39
  -2   4   6 1031.20   59.39
   1  -4  -6 1072.59   67.59
   1  -4  -6 1208.78   74.29
   1  -4  -6 1094.29   67.29
   1  -4  -6 1178.78   68.39
   1  -4  -6 1069.69   67.19
  -1   4   6 1337.37   68.99
  -1   4   6 1265.07   69.09
  -1   4   6 1294.57   70.09
  -1   4   6 1201.68   67.49
  -1   4   6 1172.88   70.09
   0  -4  -6   26.50    4.20
   0  -4  -6   20.40    4.20
   0  -4  -6   20.90    4.40
   0   4   6   18.30    4.90
   0   4   6   18.80    3.60
   0   4   6   22.00    4.60
  -1  -4  -6  292.27   21.00
  -1  -4  -6  351.16   21.40
  -1  -4  -6  341.37   21.80
  -1  -4  -6  329.17   20.80
   1   4   6  337.47   21.80
   1   4   6  344.17   23.50
   1   4   6  323.37   22.30
   1   4   6  305.17   20.10
  -2  -4  -6   24.60    4.90
  -2  -4  -6   28.00    5.90
   2   4   6   17.10    5.00
   2   4   6   15.70    4.80
   2   4   6   15.60    4.20
  -3  -4  -6  269.07   18.50
  -3  -4  -6  261.67   17.90
  -3  -4  -6  250.77   18.10
  -3  -4  -6  235.58   18.00
   3   4   6  247.18   17.70
   3   4   6  261.47   19.40
  -4  -4  -6  183.08   14.10
  -4  -4  -6  189.88   14.00
   4   4   6  216.58   15.60
   4   4   6  201.88   14.30
   4   4   6  193.58   14.70
   6  -5  -6   74.69    7.80
   6  -5  -6   63.09    6.50
  -6   5   6   73.09    7.20
  -6   5   6   66.69    7.70
  -6   5   6   68.29    7.30
   5  -5  -6   13.90    3.60
   5  -5  -6   17.30    4.50
   5  -5  -6   23.70    9.40
  -5   5   6   17.40    4.60
  -5   5   6   17.60    3.70
  -5   5   6   11.30    3.10
   4  -5  -6 1097.29   64.09
   4  -5  -6 1108.29   63.89
   4  -5  -6 1097.89   65.29
   4  -5  -6  923.21   70.89
  -4   5   6 1114.09   62.79
  -4   5   6 1171.28   64.89
  -4   5   6 1108.89   63.89
  -4   5   6 1099.79   63.39
   3  -5  -6    9.50    5.80
   3  -5  -6    8.70    3.60
   3  -5  -6    7.80    2.60
   3  -5  -6    5.90    3.00
  -3   5   6    2.90    3.00
  -3   5   6    3.60    4.00
   2  -5  -6  351.26   29.50
   2  -5  -6  335.87   22.50
   2  -5  -6  367.56   23.70
   2  -5  -6  321.57   23.50
  -2   5   6  362.46   23.00
  -2   5   6  372.86   22.50
  -2   5   6  389.96   25.00
  -2   5   6  348.77   24.90
   1  -5  -6   57.19    5.50
   1  -5  -6   64.29    7.00
   1  -5  -6   49.80    6.20
   1  -5  -6   55.79    5.80
   1  -5  -6   49.90    6.00
  -1   5   6   62.29    6.20
  -1   5   6   65.49    8.50
  -1   5   6   65.49    7.70
  -1   5   6   63.19    6.90
  -1   5   6   63.49    7.60
   0  -5  -6  368.26   24.50
   0  -5  -6  321.97   21.90
   0  -5  -6  338.37   21.00
   0   5   6  287.17   20.80
   0   5   6  315.67   22.80
   0   5   6  272.47   19.50
  -1  -5  -6  671.03   39.00
  -1  -5  -6  583.44   41.60
  -1  -5  -6  645.54   38.40
   1   5   6  599.14   37.50
   1   5   6  714.53   41.60
   1   5   6  651.23   40.10
  -2  -5  -6  105.99   10.10
  -2  -5  -6  113.29   10.90
  -2  -5  -6  111.89    9.90
   2   5   6  114.09   10.80
   2   5   6  127.49   11.80
   2   5   6  124.49   10.40
  -3  -5  -6   69.79    7.60
  -3  -5  -6   68.09    6.90
   3   5   6   62.49    7.40
   3   5   6   67.99    7.90
   5  -6  -6  236.18   17.00
   5  -6  -6  248.98   17.80
  -5   6   6  263.17   18.30
  -5   6   6  263.07   16.80
   4  -6  -6  146.49   11.70
   4  -6  -6  119.19   16.00
   4  -6  -6  148.59   11.70
  -4   6   6  140.79   10.70
  -4   6   6  155.18   12.90
  -4   6   6  133.99   10.90
   3  -6  -6  940.91   55.09
   3  -6  -6  989.10   55.99
  -3   6   6  894.61   54.79
  -3   6   6  910.01   54.29
  -3   6   6  981.90   56.99
  -3   6   6  911.51   57.39
   2  -6  -6  400.76   26.70
   2  -6  -6  451.95   28.30
   2  -6  -6  375.36   26.80
  -2   6   6  447.16   26.80
  -2   6   6  447.16   28.60
  -2   6   6  471.25   29.70
  -2   6   6  439.86   27.60
   1  -6  -6  472.45   28.70
   1  -6  -6  437.66   28.50
  -1   6   6  425.16   28.10
  -1   6   6  436.56   28.90
  -1   6   6  444.46   27.20
  -1   6   6  447.46   30.00
   0  -6  -6  281.37   20.40
   0  -6  -6  265.97   18.50
   0  -6  -6  287.87   19.40
   0  -6  -6  261.97   19.00
   0   6   6  316.27   20.80
   0   6   6  312.87   20.10
   0   6   6  299.07   18.60
  -1  -6  -6   28.30    5.60
  -1  -6  -6   30.60    8.10
  -1  -6  -6   27.00    4.50
  -1  -6  -6   28.30    6.20
   1   6   6   25.80    5.90
   1   6   6   25.30    4.70
   1   6   6   27.20    5.90
   3  -7  -6  368.46   22.10
   3  -7  -6  330.67   20.80
  -3   7   6  301.87   20.40
  -3   7   6  322.77   22.80
  -3   7   6  301.27   21.60
   2  -7  -6  233.48   16.40
  -2   7   6  215.58   16.40
  -2   7   6  221.28   16.00
  -2   7   6  234.08   17.50
  -2   7   6  219.88   15.00
   1  -7  -6  164.28   12.30
   1  -7  -6  144.69   11.80
  -1   7   6  165.68   13.90
  -1   7   6  151.58   11.20
  -1   7   6  155.48   12.70
  -1   7   6  173.18   13.10
   0  -7  -6   28.00    4.30
   0  -7  -6   22.80    4.80
   0   7   6   24.00    5.40
   0   7   6   20.30    4.50
   2   9  -7  662.33   38.00
   2   9  -7  645.34   38.80
  -2  -9   7  694.83   41.90
  -2  -9   7  629.84   41.00
  -2  -9   7  675.63   41.30
   1   9  -7  363.86   26.30
  -1  -9   7  417.56   26.70
  -1  -9   7  445.56   27.90
  -1  -9   7  402.36   26.70
   0  -9   7  118.69   10.50
   0  -9   7  112.19   10.00
   0  -9   7  113.99   10.60
  -1   9  -7  322.97   19.80
   1  -9   7  309.37   21.70
   1  -9   7  347.27   21.90
   1  -9   7  332.77   24.20
   2  -9   7  472.45   29.20
   2  -9   7  465.65   29.70
   4   8  -7   88.89    7.00
  -4  -8   7   77.49    9.10
  -4  -8   7   74.99    8.30
   3   8  -7   63.79    6.00
   3   8  -7   64.09    6.60
  -3  -8   7   79.79    8.60
  -3  -8   7   70.79    8.30
  -3  -8   7   76.79    9.20
   2   8  -7  331.17   21.50
   2   8  -7  325.87   22.30
  -2  -8   7  385.16   24.60
  -2  -8   7  369.06   24.40
  -2  -8   7  403.16   25.80
   1   8  -7 1451.75   80.49
  -1  -8   7 1467.45   84.49
  -1  -8   7 1437.56   83.39
  -1  -8   7 1423.16   83.39
   0   8  -7  479.15   29.60
   0   8  -7  479.15   31.90
   0  -8   7  547.45   32.70
   0  -8   7  529.75   32.10
   0  -8   7  555.04   33.00
   0  -8   7  549.95   33.50
  -1   8  -7  115.09    7.60
   1  -8   7  124.99   10.30
   1  -8   7  121.39   10.40
   1  -8   7  123.19   10.20
   1  -8   7  127.09   10.50
  -2   8  -7  214.88   14.40
  -2   8  -7  214.38   12.50
   2  -8   7  210.48   14.90
   2  -8   7  189.08   14.00
   2  -8   7  208.08   15.60
  -3   8  -7   37.60    4.20
   3  -8   7   49.20    5.50
   3  -8   7   53.19    6.90
   5   7  -7  114.09   14.00
   5   7  -7  156.58   10.30
   5   7  -7  140.19   13.50
  -5  -7   7  150.78   11.60
  -5  -7   7  136.99   11.80
   4   7  -7  149.29   10.90
   4   7  -7  159.68   10.60
  -4  -7   7  124.79   12.50
  -4  -7   7  131.29   12.10
   3   7  -7   95.69   10.10
   3   7  -7  103.79    7.90
   3   7  -7  103.79    8.60
  -3  -7   7   98.99   10.20
  -3  -7   7  107.39   11.00
  -3  -7   7  101.09    9.90
   2   7  -7  605.84   42.60
   2   7  -7  678.03   40.90
   2   7  -7  641.24   41.60
  -2  -7   7  838.62   45.60
  -2  -7   7  764.82   44.20
  -2  -7   7  794.32   44.60
   1   7  -7 1062.69   58.39
   1   7  -7 1035.80   60.09
  -1  -7   7 1028.20   60.89
  -1  -7   7 1040.70   61.09
  -1  -7   7 1053.69   61.99
   0   7  -7  276.47   15.70
   0  -7   7  269.07   18.40
   0  -7   7  272.47   18.60
   0  -7   7  281.67   19.40
   0  -7   7  265.47   18.10
  -1   7  -7  856.71   55.19
  -1   7  -7  914.71   54.49
   1  -7   7 1021.10   55.69
   1  -7   7  914.51   58.99
   1  -7   7  987.60   55.39
   1  -7   7  997.00   55.99
   1  -7   7  969.80   55.79
  -2   7  -7  740.23   45.20
  -2   7  -7  754.62   42.10
   2  -7   7  702.33   43.50
   2  -7   7  753.42   45.80
   2  -7   7  814.42   47.50
   2  -7   7  742.83   44.40
  -3   7  -7  270.17   20.50
  -3   7  -7  252.67   17.70
  -3   7  -7  250.07   16.10
   3  -7   7  291.37   19.70
   3  -7   7  283.07   23.10
   3  -7   7  249.68   17.00
   3  -7   7  263.97   19.70
  -4   7  -7  103.09    8.90
   4  -7   7  105.19   10.30
   4  -7   7  102.39   13.10
   5   6  -7  156.38   16.90
   5   6  -7  182.58   11.70
   5   6  -7  172.38   12.00
  -5  -6   7  135.79   12.80
  -5  -6   7  153.68   13.00
   4   6  -7  828.62   52.89
   4   6  -7  878.61   50.39
   4   6  -7  925.41   50.09
  -4  -6   7  852.91   52.39
  -4  -6   7  854.71   51.99
   3   6  -7   71.09    8.10
   3   6  -7   73.19    6.10
   3   6  -7   76.89    6.90
  -3  -6   7   71.59    8.10
  -3  -6   7   71.59    8.70
  -3  -6   7   79.09    8.50
   2   6  -7  169.68   10.70
   2   6  -7  160.18   13.10
   2   6  -7  170.08   11.60
  -2  -6   7  169.08   13.10
  -2  -6   7  165.48   12.80
  -2  -6   7  166.08   13.70
   1   6  -7 2464.85  137.09
   1   6  -7 2508.95  140.29
   1   6  -7 2423.86  138.89
  -1  -6   7 2583.04  139.79
  -1  -6   7 2531.55  140.49
  -1  -6   7 2486.25  139.49
  -1  -6   7 2445.66  139.19
   0   6  -7  955.60   61.59
   0   6  -7 1059.59   59.79
   0   6  -7 1034.70   60.69
   0   6  -7 1011.50   60.29
   0  -6   7 1129.89   61.39
   0  -6   7 1030.40   64.29
   0  -6   7 1088.89   61.19
   0  -6   7 1135.69   62.29
   0  -6   7 1153.88   61.69
  -1   6  -7 3182.08  175.68
  -1   6  -7 3281.57  178.98
  -1   6  -7 3178.98  177.38
   1  -6   7 3207.58  177.88
   1  -6   7 3221.58  177.78
   1  -6   7 3126.09  177.08
   1  -6   7 3229.98  177.18
   1  -6   7 3096.59  181.88
  -2   6  -7  824.62   46.60
  -2   6  -7  846.52   49.99
  -2   6  -7  849.41   49.50
  -2   6  -7  837.62   48.40
   2  -6   7  764.92   47.70
   2  -6   7  802.92   48.10
   2  -6   7  782.82   48.00
   2  -6   7  878.91   50.09
   2  -6   7  885.21   54.59
   2  -6   7  869.51   50.39
  -3   6  -7 1343.57   79.99
  -3   6  -7 1352.56   80.69
   3  -6   7 1351.56   81.29
   3  -6   7 1430.16   86.29
   3  -6   7 1480.95   81.59
  -4   6  -7  127.09    9.30
  -4   6  -7  130.49   11.00
   4  -6   7  126.49   15.10
   4  -6   7  118.29   11.60
  -5   6  -7   61.69    7.20
  -5   6  -7   69.69    6.20
   5  -6   7   72.39    8.10
   6   5  -7  440.66   26.60
   6   5  -7  404.76   33.10
   5   5  -7  172.48   14.90
   5   5  -7  144.29   16.40
   5   5  -7  152.38   14.00
   5   5  -7  171.28   11.50
  -5  -5   7  164.58   14.20
  -5  -5   7  148.49   12.90
  -5  -5   7  151.78   13.00
   4   5  -7  170.78   12.50
   4   5  -7  157.98   14.50
   4   5  -7  176.48   12.20
  -4  -5   7  188.28   14.60
  -4  -5   7  206.78   15.60
  -4  -5   7  194.98   14.40
   3   5  -7 2398.26  126.89
   3   5  -7 2339.77  126.39
   3   5  -7 2250.17  129.59
  -3  -5   7 2220.68  128.19
  -3  -5   7 2284.37  128.59
  -3  -5   7 2168.68  128.59
   2   5  -7  177.08   13.20
  -2  -5   7  240.88   15.80
  -2  -5   7  211.58   15.50
   1   5  -7  783.62   40.60
   1   5  -7  740.63   39.60
   1   5  -7  774.92   43.60
  -1  -5   7  708.33   41.90
  -1  -5   7  640.64   40.50
  -1  -5   7  701.53   42.50
  -1  -5   7  648.64   43.70
  -1  -5   7  687.63   41.50
   0   5  -7  661.23   36.30
   0   5  -7  644.44   36.30
   0   5  -7  628.24   35.80
   0  -5   7  641.64   38.10
   0  -5   7  624.14   37.70
   0  -5   7  625.24   40.70
   0  -5   7  613.14   36.90
   0  -5   7  621.04   36.90
  -1   5  -7  706.73   39.10
  -1   5  -7  666.33   40.10
  -1   5  -7  670.73   40.30
   1  -5   7  686.93   40.60
   1  -5   7  657.53   39.60
   1  -5   7  676.43   39.90
   1  -5   7  723.63   41.30
   1  -5   7  703.13   44.80
   1  -5   7  683.83   40.60
  -2   5  -7 3043.70  160.88
  -2   5  -7 3041.20  159.18
  -2   5  -7 3195.08  161.98
   2  -5   7 2860.91  162.28
   2  -5   7 3075.79  162.18
   2  -5   7 2928.61  166.68
   2  -5   7 2549.94  159.68
   2  -5   7 2774.42  160.48
   2  -5   7 2550.64  159.58
  -3   5  -7  112.29    9.70
  -3   5  -7  106.69   10.10
  -3   5  -7  105.69   10.40
  -3   5  -7  109.59    8.00
   3  -5   7  112.09   13.80
   3  -5   7   97.09   10.10
   3  -5   7  116.69   10.60
  -4   5  -7   86.19    8.20
  -4   5  -7   92.39    9.70
  -4   5  -7   80.39    7.30
   4  -5   7   93.19    9.70
   4  -5   7   75.89   12.20
  -5   5  -7   93.59    9.90
  -5   5  -7   99.59    8.20
   5  -5   7   80.99   12.50
   5  -5   7   86.99    9.40
   6   4  -7  220.88   22.00
   6   4  -7  272.87   17.00
   6   4  -7  259.17   17.00
  -6  -4   7  246.78   17.60
  -6  -4   7  298.37   20.60
   5   4  -7  504.35   35.70
   5   4  -7  427.56   28.50
   5   4  -7  433.76   29.60
  -5  -4   7  402.66   27.70
  -5  -4   7  440.36   30.40
  -5  -4   7  401.46   33.30
  -5  -4   7  410.66   27.60
   4   4  -7  375.56   28.10
   4   4  -7  352.36   22.10
   4   4  -7  337.17   25.10
  -4  -4   7  357.46   24.20
  -4  -4   7  395.46   25.40
  -4  -4   7  378.96   24.10
   3   4  -7  480.55   30.10
   3   4  -7  486.75   27.00
   3   4  -7  475.05   26.60
  -3  -4   7  425.26   28.60
  -3  -4   7  423.16   28.00
  -3  -4   7  433.76   28.40
   2   4  -7 1627.24   87.69
   2   4  -7 1607.24   84.39
   2   4  -7 1541.45   83.79
  -2  -4   7 1469.95   86.19
  -2  -4   7 1464.35   85.59
  -2  -4   7 1533.65   85.79
  -2  -4   7 1340.97   87.09
   1   4  -7  843.82   50.49
   1   4  -7  841.62   47.30
   1   4  -7  825.42   46.70
  -1  -4   7  829.42   48.30
  -1  -4   7  800.12   47.30
  -1  -4   7  840.12   51.39
  -1  -4   7  884.71   48.90
  -1  -4   7  875.91   49.40
   0   4  -7 5077.29  271.77
   0   4  -7 5102.79  271.57
   0   4  -7 5031.80  271.17
   0  -4   7 4897.41  276.37
   0  -4   7 4826.22  272.07
   0  -4   7 5044.70  273.47
   0  -4   7 4990.50  272.67
   0  -4   7 4603.14  272.07
  -1   4  -7 1863.31   95.09
  -1   4  -7 1820.02   94.79
  -1   4  -7 1691.23   92.89
  -1   4  -7 1886.91   94.09
   1  -4   7 1470.55   93.69
   1  -4   7 1649.83   94.99
   1  -4   7 1536.65   94.19
   1  -4   7 1704.13   95.79
   1  -4   7 1649.44   99.19
   1  -4   7 1621.04   95.09
  -2   4  -7  371.86   21.40
  -2   4  -7  366.36   21.20
  -2   4  -7  370.16   23.30
  -2   4  -7  363.86   21.10
  -2   4  -7  371.36   23.10
   2  -4   7  343.57   23.40
   2  -4   7  328.27   26.60
   2  -4   7  348.07   23.10
  -3   4  -7  128.79    8.90
  -3   4  -7  129.49   10.90
  -3   4  -7  128.19   10.40
  -3   4  -7  128.39   11.20
   3  -4   7   93.29   13.20
   3  -4   7   91.69   12.90
   3  -4   7  102.29   10.30
  -4   4  -7  638.64   40.90
  -4   4  -7  643.14   40.20
  -4   4  -7  692.73   38.90
   4  -4   7  659.73   40.90
   4  -4   7  625.14   45.20
  -5   4  -7  217.08   17.00
  -5   4  -7  224.78   17.40
  -5   4  -7  240.48   15.90
   5  -4   7  222.78   17.40
   7   3  -7    2.00    2.60
   7   3  -7    2.50    1.80
   7   3  -7    2.50    3.70
  -7  -3   7   -0.20    4.10
  -7  -3   7    1.80    3.00
   6   3  -7 1219.88   70.59
   6   3  -7 1216.98   74.09
   6   3  -7 1263.47   70.79
  -6  -3   7 1315.77   74.29
  -6  -3   7 1207.08   72.79
   5   3  -7  581.34   33.50
   5   3  -7  574.44   33.50
   5   3  -7  564.34   36.60
  -5  -3   7  569.64   36.50
  -5  -3   7  567.74   35.70
  -5  -3   7  529.75   34.50
   4   3  -7  553.64   37.00
   4   3  -7  583.84   35.70
   4   3  -7  561.04   39.60
   4   3  -7  563.24   34.00
   4   3  -7  517.35   33.90
  -4  -3   7  631.14   37.00
  -4  -3   7  645.14   36.70
  -4  -3   7  599.34   35.80
  -4  -3   7  630.74   36.20
  -4  -3   7  563.64   37.00
   3   3  -7 2759.82  157.68
   3   3  -7 2794.72  161.08
   3   3  -7 2868.61  157.98
  -3  -3   7 2904.51  159.78
  -3  -3   7 2780.02  161.18
  -3  -3   7 2833.72  159.98
  -3  -3   7 3060.09  160.08
  -2  -3   7  166.28   12.20
  -2  -3   7  159.88   13.70
  -2  -3   7  170.88   12.50
  -2  -3   7  167.18   12.20
  -1  -3   7 8526.75  466.85
   0   3  -7 1912.01  109.29
   0   3  -7 2135.09  109.89
   0   3  -7 2091.99  111.59
   0   3  -7 2143.39  109.99
   0   3  -7 1959.40  109.39
   0  -3   7 2023.50  111.69
   0  -3   7 1800.92  110.29
   0  -3   7 2001.90  114.59
   0  -3   7 1843.82  110.59
  -1   3  -7 1314.97   70.49
  -1   3  -7 1290.77   69.79
  -1   3  -7 1243.98   68.99
  -1   3  -7 1263.57   70.19
   1  -3   7 1090.09   69.19
   1  -3   7 1263.47   70.79
   1  -3   7 1257.57   74.69
   1  -3   7 1235.38   70.49
  -2   3  -7   83.49    6.20
  -2   3  -7   82.29    7.60
  -2   3  -7   80.29    6.20
  -2   3  -7   85.89    6.50
  -2   3  -7   87.19    7.70
   2  -3   7   64.39    7.20
   2  -3   7   71.59   10.30
   2  -3   7   67.09    7.60
  -3   3  -7  917.81   55.09
  -3   3  -7  870.41   52.89
  -3   3  -7  858.11   55.29
  -3   3  -7  941.61   53.39
  -3   3  -7  960.00   55.19
  -3   3  -7  857.11   52.49
   3  -3   7 1031.00   55.59
   3  -3   7  958.90   55.39
   3  -3   7  961.70   59.79
  -4   3  -7  251.77   17.20
  -4   3  -7  220.78   17.40
   4  -3   7  217.48   18.30
   4  -3   7  197.08   23.70
  -5   3  -7  483.55   32.20
  -5   3  -7  493.45   32.30
  -5   3  -7  494.35   30.60
   5  -3   7  484.35   35.60
   5  -3   7  497.65   32.00
   7   2  -7   67.19   12.80
   7   2  -7   82.29    8.70
  -7  -2   7   89.09   10.00
  -7  -2   7   88.49    9.10
   6   2  -7  280.77   24.00
   6   2  -7  258.97   17.90
   6   2  -7  284.07   18.30
  -6  -2   7  304.37   21.50
  -6  -2   7  295.57   20.70
  -6  -2   7  266.57   20.50
   5   2  -7  350.86   22.80
   5   2  -7  375.66   22.70
   5   2  -7  370.16   28.70
   5   2  -7  366.36   22.60
   5   2  -7  369.46   25.60
  -5  -2   7  376.66   25.50
  -5  -2   7  375.56   25.10
  -5  -2   7  367.56   25.90
  -5  -2   7  357.16   23.40
   4   2  -7 3313.87  190.58
   4   2  -7 3449.85  187.58
   4   2  -7 3562.14  187.68
  -4  -2   7 3457.25  191.58
  -4  -2   7 3372.56  189.78
  -4  -2   7 3355.76  188.88
  -4  -2   7 3244.18  189.68
   3   2  -7  506.45   30.50
   3   2  -7  531.25   35.00
   3   2  -7  509.15   33.50
  -3  -2   7  534.65   32.70
  -3  -2   7  540.15   34.40
  -3  -2   7  535.65   32.30
  -3  -2   7  543.35   32.90
   2   2  -7  419.96   27.60
   2   2  -7  425.26   24.50
   2   2  -7  451.55   28.20
   2   2  -7  418.26   24.50
  -2  -2   7  427.36   26.40
  -2  -2   7  431.06   28.40
  -2  -2   7  405.16   26.40
   1   2  -7 4924.01  263.27
  -1  -2   7 4699.33  261.67
  -1  -2   7 4607.74  264.17
   0   2  -7 2209.38  134.09
   0   2  -7 2445.16  136.39
   0   2  -7 2420.96  134.79
   0   2  -7 2441.66  136.39
   0   2  -7 2482.05  134.99
   0   2  -7 2517.95  135.09
   0  -2   7 2572.64  136.69
   0  -2   7 2395.46  135.99
   0  -2   7 2657.73  139.89
   0  -2   7 2352.96  135.69
  -1   2  -7  618.24   35.80
  -1   2  -7  599.44   35.20
  -1   2  -7  603.34   35.50
   1  -2   7  601.14   36.40
   1  -2   7  622.54   35.80
   1  -2   7  616.94   39.60
  -2   2  -7  804.02   46.30
  -2   2  -7  769.92   45.90
  -2   2  -7  787.92   44.70
  -2   2  -7  809.82   46.00
  -2   2  -7  782.82   44.80
   2  -2   7  789.32   46.70
   2  -2   7  712.83   44.90
   2  -2   7  779.92   45.80
   2  -2   7  756.92   49.60
  -3   2  -7  390.26   25.30
  -3   2  -7  415.96   27.30
  -3   2  -7  392.86   25.60
  -3   2  -7  396.56   25.00
  -3   2  -7  399.46   27.10
  -3   2  -7  396.46   27.60
   3  -2   7  436.26   26.70
   3  -2   7  473.45   27.40
   3  -2   7  451.55   31.40
  -4   2  -7  153.98   11.80
  -4   2  -7  179.28   18.40
  -4   2  -7  189.28   14.20
  -4   2  -7  174.18   14.30
  -4   2  -7  169.28   11.60
   4  -2   7  164.58   15.10
   4  -2   7  149.49   13.20
  -5   2  -7  440.26   27.40
  -5   2  -7  424.76   28.70
  -5   2  -7  425.06   29.30
   5  -2   7  413.06   31.20
   5  -2   7  431.86   28.40
   7   1  -7  142.39   10.30
   7   1  -7  138.79   15.00
  -7  -1   7  131.59   12.20
  -7  -1   7  126.39   11.90
   6   1  -7  490.25   37.90
   6   1  -7  507.95   31.50
   6   1  -7  544.85   34.60
  -6  -1   7  543.95   34.50
  -6  -1   7  566.24   34.80
   5   1  -7  177.78   14.20
   5   1  -7  183.68   11.70
   5   1  -7  179.08   12.60
  -5  -1   7  151.18   13.60
  -5  -1   7  139.99   11.40
  -5  -1   7  158.08   13.70
   4   1  -7  345.97   25.10
   4   1  -7  340.17   19.50
   4   1  -7  327.17   19.50
   4   1  -7  317.47   22.10
  -4  -1   7  291.67   20.20
  -4  -1   7  296.27   21.30
  -4  -1   7  285.57   21.00
   3   1  -7  634.24   38.60
   3   1  -7  620.44   35.60
   3   1  -7  661.63   35.70
  -3  -1   7  593.54   37.50
  -3  -1   7  590.44   36.90
   2   1  -7 1890.01  109.39
   2   1  -7 2076.79  113.39
   2   1  -7 1949.30  109.29
  -2  -1   7 1902.21  111.19
  -2  -1   7 2064.89  113.39
  -2  -1   7 1981.40  110.89
   1   1  -7  290.77   15.50
  -1  -1   7  265.37   17.50
  -1  -1   7  262.47   19.30
  -1  -1   7  263.97   17.30
  -1  -1   7  243.28   16.30
   0   1  -7  645.74   39.00
   0   1  -7  676.23   38.00
   0   1  -7  653.73   37.80
   0   1  -7  655.53   37.70
   0   1  -7  599.44   36.60
   0   1  -7  659.23   37.60
   0  -1   7  694.43   39.00
   0  -1   7  650.43   38.50
   0  -1   7  718.93   37.60
   0  -1   7  671.83   37.90
  -1   1  -7  383.86   21.00
  -1   1  -7  388.16   21.00
  -1   1  -7  369.46   21.20
  -1   1  -7  366.46   21.40
  -1   1  -7  363.36   21.70
   1  -1   7  308.07   21.20
   1  -1   7  308.87   22.10
   1  -1   7  314.97   20.80
   1  -1   7  318.67   24.50
  -2   1  -7 1321.97   74.29
  -2   1  -7 1293.37   75.19
  -2   1  -7 1251.07   75.39
  -2   1  -7 1324.97   74.29
  -2   1  -7 1291.67   73.89
   2  -1   7 1331.97   75.09
   2  -1   7 1280.27   74.59
   2  -1   7 1303.27   78.99
   2  -1   7 1370.36   76.39
   2  -1   7 1350.66   74.59
  -3   1  -7 1208.28   77.19
  -3   1  -7 1311.67   77.19
  -3   1  -7 1285.17   74.99
  -3   1  -7 1267.37   76.89
  -3   1  -7 1342.97   75.69
  -3   1  -7 1274.87   75.39
   3  -1   7 1428.56   77.99
   3  -1   7 1336.47   80.69
   3  -1   7 1346.07   76.59
   3  -1   7 1445.96   77.09
  -4   1  -7  434.06   28.20
  -4   1  -7  437.96   30.20
  -4   1  -7  483.75   29.10
  -4   1  -7  451.35   30.70
   4  -1   7  462.55   29.90
   4  -1   7  468.75   36.00
  -5   1  -7  277.47   22.30
  -5   1  -7  313.97   21.20
  -5   1  -7  318.47   22.40
  -5   1  -7  326.97   23.50
   5  -1   7  314.67   21.90
   5  -1   7  327.27   30.90
   5  -1   7  343.27   22.40
   7   0  -7   25.00    6.50
   6   0  -7  248.68   16.50
   6   0  -7  255.27   17.90
   6   0  -7  225.28   18.90
   6   0  -7  250.57   18.40
   6   0  -7  245.08   22.70
  -6   0   7  257.47   18.60
  -6   0   7  244.78   18.90
   5   0  -7  489.15   35.50
   5   0  -7  492.65   35.60
   5   0  -7  479.05   28.60
   5   0  -7  475.75   30.90
   5   0  -7  483.95   30.10
  -5   0   7  460.45   31.10
  -5   0   7  466.55   30.70
   4   0  -7  217.38   14.50
   4   0  -7  233.88   19.70
   4   0  -7  218.88   16.80
  -4   0   7  237.98   16.80
   3   0  -7  245.48   14.50
   3   0  -7  257.37   14.50
   3   0  -7  255.57   17.20
  -3   0   7  186.68   14.10
  -3   0   7  204.48   15.10
   2   0  -7  451.85   29.10
   2   0  -7  413.86   24.90
   2   0  -7  401.96   25.10
  -2   0   7  443.26   26.50
  -2   0   7  442.16   24.50
  -2   0   7  453.75   29.00
  -2   0   7  407.76   24.70
  -2   0   7  447.66   27.10
  -2   0   7  431.36   28.60
   1   0  -7  355.06   19.70
   1   0  -7  351.86   22.50
   1   0  -7  333.57   19.10
   1   0  -7  358.36   19.90
  -1   0   7  295.67   19.20
  -1   0   7  311.37   22.70
  -1   0   7  302.17   20.90
   0   0  -7  122.59    8.60
   0   0  -7  127.09    8.70
   0   0  -7  131.89   10.10
   0   0   7  116.49    9.60
   0   0   7  106.69    7.90
   0   0   7  119.59   11.40
   0   0   7  121.69    8.50
  -1   0  -7  386.36   24.10
  -1   0  -7  395.26   24.40
  -1   0  -7  347.07   24.70
  -1   0  -7  375.16   24.20
  -1   0  -7  357.06   24.50
   1   0   7  438.06   26.10
   1   0   7  451.55   24.70
   1   0   7  421.96   28.20
   1   0   7  451.45   24.80
  -2   0  -7 2128.59  117.99
  -2   0  -7 2160.08  118.49
  -2   0  -7 1973.90  119.49
  -2   0  -7 2134.79  118.39
  -2   0  -7 2082.49  119.19
   2   0   7 2213.68  118.99
   2   0   7 2090.29  118.69
   2   0   7 2030.60  122.39
   2   0   7 2165.08  120.29
   2   0   7 2143.39  118.59
  -3   0  -7 1369.56   74.19
  -3   0  -7 1257.27   71.29
  -3   0  -7 1246.18   70.69
  -3   0  -7 1236.28   71.19
  -3   0  -7 1127.09   72.89
   3   0   7 1209.38   75.29
   3   0   7 1309.17   72.29
   3   0   7 1239.78   71.49
   3   0   7 1238.98   73.29
   3   0   7 1159.08   71.69
  -4   0  -7   78.19   14.40
  -4   0  -7  117.39    9.00
  -4   0  -7  118.49    9.60
  -4   0  -7  117.19    9.50
   4   0   7   79.29   10.80
   4   0   7   86.99    9.70
   4   0   7   79.19    9.20
  -5   0  -7  475.55   30.40
  -5   0  -7  404.66   28.50
  -5   0  -7  446.26   27.20
  -5   0  -7  474.15   32.00
   5   0   7  447.56   28.70
   5   0   7  404.06   28.30
   7  -1  -7  152.98   17.40
   7  -1  -7  156.18   11.90
  -7   1   7  196.18   14.70
   6  -1  -7  700.13   38.50
   6  -1  -7  583.54   44.90
   6  -1  -7  649.54   41.00
  -6   1   7  638.24   40.80
   5  -1  -7  605.84   37.70
   5  -1  -7  632.54   38.10
   5  -1  -7  628.24   43.70
   5  -1  -7  642.84   36.50
   5  -1  -7  554.84   35.70
  -5   1   7  612.14   38.70
   4  -1  -7  470.65   26.60
   4  -1  -7  444.66   28.20
   4  -1  -7  467.05   33.10
   4  -1  -7  447.26   26.30
  -4   1   7  402.66   26.30
  -4   1   7  412.86   25.80
  -4   1   7  425.56   25.50
  -4   1   7  453.85   28.60
  -4   1   7  429.06   26.10
   3  -1  -7  686.53   37.70
   3  -1  -7  750.92   44.00
   3  -1  -7  682.03   40.00
  -3   1   7  598.44   36.80
  -3   1   7  648.84   39.60
  -3   1   7  587.94   37.20
  -3   1   7  617.74   38.10
   2  -1  -7  504.95   33.20
   2  -1  -7  504.45   33.30
   2  -1  -7  555.64   37.60
   2  -1  -7  503.85   33.50
  -2   1   7  659.73   33.50
  -2   1   7  605.04   33.50
  -2   1   7  661.13   35.70
  -2   1   7  662.03   35.00
  -2   1   7  579.84   33.80
   1  -1  -7 1707.33   91.99
   1  -1  -7 1665.33   87.89
   1  -1  -7 1550.24   87.09
   1  -1  -7 1442.36   86.99
  -1   1   7 1641.84   87.89
  -1   1   7 1446.76   87.29
  -1   1   7 1535.75   90.99
  -1   1   7 1579.74   89.09
   0  -1  -7  361.86   24.20
   0  -1  -7  392.56   26.00
   0  -1  -7  351.66   24.90
   0  -1  -7  386.56   23.70
   0  -1  -7  364.66   23.70
   0   1   7  387.76   23.50
   0   1   7  430.86   25.40
   0   1   7  440.16   23.90
   0   1   7  388.56   26.60
  -1  -1  -7 3782.02  209.48
  -1  -1  -7 3685.93  210.08
  -1  -1  -7 3801.32  209.18
  -1  -1  -7 3734.43  209.48
   1   1   7 3698.33  209.68
   1   1   7 3814.72  211.18
   1   1   7 3965.90  209.68
  -2  -1  -7 1522.55   84.59
  -2  -1  -7 1470.15   86.19
  -2  -1  -7 1529.95   85.69
  -2  -1  -7 1576.84   84.89
  -2  -1  -7 1525.05   84.29
   2   1   7 1471.25   86.49
   2   1   7 1561.54   86.69
   2   1   7 1392.86   84.89
   2   1   7 1343.77   87.59
   3   1   7   13.10    5.10
   3   1   7   17.30    4.60
   3   1   7   10.00    3.70
   3   1   7   14.20    5.30
   3   1   7   18.40    4.30
  -4  -1  -7   92.19    8.40
  -4  -1  -7  100.49   10.40
  -4  -1  -7   97.39    8.50
  -4  -1  -7   88.49    8.60
   4   1   7   74.89    8.70
   4   1   7   71.29    8.50
   4   1   7   82.29    9.90
   4   1   7   79.29    8.20
  -5  -1  -7   39.90    6.70
  -5  -1  -7   38.40    5.30
  -5  -1  -7   34.50    5.10
  -5  -1  -7   34.50    5.40
   5   1   7   32.50    5.40
   7  -2  -7  112.59    9.90
   7  -2  -7  108.79    8.90
  -7   2   7  110.09   11.00
   6  -2  -7  183.58   16.30
   6  -2  -7  158.68   12.10
   6  -2  -7  159.68   13.30
  -6   2   7  157.98   14.20
   5  -2  -7  902.91   49.70
   5  -2  -7  860.21   54.59
   5  -2  -7  903.01   51.59
   5  -2  -7  820.42   57.19
  -5   2   7  898.21   51.99
  -5   2   7  759.42   49.50
  -5   2   7  796.32   49.30
   4  -2  -7  946.21   52.19
   4  -2  -7  930.61   50.19
   4  -2  -7  836.02   49.60
   4  -2  -7  834.62   48.90
  -4   2   7  850.11   49.10
  -4   2   7  917.81   52.29
  -4   2   7  842.22   50.29
  -4   2   7  759.32   52.19
   3  -2  -7  704.33   44.80
   3  -2  -7  606.04   39.10
   3  -2  -7  592.04   38.20
   3  -2  -7  601.94   37.30
   3  -2  -7  635.24   37.80
  -3   2   7  666.03   37.50
  -3   2   7  641.24   37.60
  -3   2   7  691.23   39.00
  -3   2   7  722.93   40.10
   2  -2  -7  278.87   16.50
   2  -2  -7  268.47   16.60
   2  -2  -7  292.57   22.00
   2  -2  -7  253.27   18.80
   2  -2  -7  267.77   16.90
   2  -2  -7  248.18   16.60
  -2   2   7  263.07   18.30
  -2   2   7  247.78   16.20
  -2   2   7  267.37   16.60
   1  -2  -7  297.27   20.40
   1  -2  -7  335.27   25.30
   1  -2  -7  333.87   21.40
   1  -2  -7  327.57   21.10
  -1   2   7  386.46   23.20
  -1   2   7  348.07   21.50
  -1   2   7  389.96   21.60
  -1   2   7  356.56   20.80
  -1   2   7  365.46   24.70
   0  -2  -7 1469.65   84.69
   0  -2  -7 1385.96   80.89
   0  -2  -7 1429.36   81.09
   0  -2  -7 1426.86   80.69
   0   2   7 1324.37   83.59
   0   2   7 1394.46   81.19
   0   2   7 1545.15   83.09
   0   2   7 1488.05   81.19
  -1  -2  -7 1008.80   58.69
  -1  -2  -7  950.20   56.69
  -1  -2  -7 1066.29   58.09
  -1  -2  -7 1075.59   57.69
  -1  -2  -7 1012.10   57.69
   1   2   7  937.21   57.99
   1   2   7  943.71   60.49
   1   2   7  991.40   57.89
   1   2   7 1019.70   59.79
  -2  -2  -7  652.53   41.50
  -2  -2  -7  654.03   40.00
  -2  -2  -7  716.93   40.20
  -2  -2  -7  681.83   40.60
   2   2   7  633.64   40.90
   2   2   7  703.03   42.50
   2   2   7  648.24   42.60
   2   2   7  693.83   40.70
  -3  -2  -7  251.87   17.90
  -3  -2  -7  268.67   18.30
  -3  -2  -7  268.27   18.70
  -3  -2  -7  265.97   19.60
  -3  -2  -7  252.97   19.90
   3   2   7  281.77   20.60
   3   2   7  268.47   18.60
   3   2   7  264.07   19.00
   3   2   7  279.57   18.90
  -4  -2  -7  167.78   12.20
  -4  -2  -7  170.88   12.90
  -4  -2  -7  169.48   13.80
  -4  -2  -7  149.69   14.70
  -4  -2  -7  133.39   12.30
  -4  -2  -7  159.58   12.40
   4   2   7  142.19   11.90
   4   2   7  131.39   12.10
   4   2   7  153.58   13.70
   4   2   7  152.48   12.50
   6  -3  -7  394.46   33.10
   6  -3  -7  437.36   27.70
   6  -3  -7  415.06   26.10
  -6   3   7  424.96   28.40
   5  -3  -7  285.17   18.40
   5  -3  -7  282.17   20.20
   5  -3  -7  303.57   19.80
   5  -3  -7  261.17   25.10
  -5   3   7  267.57   20.20
  -5   3   7  247.58   17.60
   4  -3  -7   93.19    8.60
   4  -3  -7   92.69   14.00
   4  -3  -7   91.69    7.80
   4  -3  -7   93.39    9.50
  -4   3   7   85.79    9.20
  -4   3   7   90.59    9.70
  -4   3   7   84.39    7.40
  -4   3   7   92.99    8.70
  -4   3   7   91.49    7.20
   3  -3  -7   81.69    7.90
   3  -3  -7   88.09   12.10
   3  -3  -7   80.79    7.50
   3  -3  -7   94.99    6.80
   3  -3  -7   85.19    7.70
   3  -3  -7   86.39    7.30
   3  -3  -7   94.19    6.60
  -3   3   7   77.09    6.90
  -3   3   7   73.69    6.70
  -3   3   7   83.79    8.70
   2  -3  -7  810.32   49.40
   2  -3  -7  791.32   49.80
   2  -3  -7  920.51   56.89
   2  -3  -7  802.42   49.60
  -2   3   7  905.21   53.59
  -2   3   7  900.01   50.09
  -2   3   7  942.31   51.79
   1  -3  -7 1475.25   86.19
   1  -3  -7 1425.26   85.29
   1  -3  -7 1530.35   86.29
   1  -3  -7 1528.15   85.89
   1  -3  -7 1572.74   92.19
  -1   3   7 1576.94   86.39
  -1   3   7 1519.35   89.29
  -1   3   7 1528.05   85.69
  -1   3   7 1493.85   86.59
  -1   3   7 1635.44   88.29
   0  -3  -7  410.76   24.40
   0  -3  -7  415.06   24.90
   0  -3  -7  364.16   24.30
   0  -3  -7  398.76   24.50
   0   3   7  423.46   26.90
   0   3   7  363.16   23.50
   0   3   7  402.56   25.00
   0   3   7  381.56   25.00
  -1  -3  -7  814.92   48.70
  -1  -3  -7  869.11   49.90
  -1  -3  -7  875.51   49.40
  -1  -3  -7  779.82   49.00
   1   3   7  820.72   50.09
   1   3   7  890.31   51.89
   1   3   7  873.81   49.90
   1   3   7  825.12   51.59
  -2  -3  -7  422.06   30.60
  -2  -3  -7  380.46   24.50
  -2  -3  -7  396.96   24.20
  -2  -3  -7  368.06   24.00
   2   3   7  333.57   27.90
   2   3   7  376.96   26.10
   2   3   7  346.37   24.20
  -3  -3  -7  704.13   45.80
  -3  -3  -7  778.22   45.10
  -3  -3  -7  727.93   45.30
   3   3   7  746.93   45.20
   3   3   7  809.92   47.40
  -4  -3  -7  137.79   12.30
  -4  -3  -7  157.88   11.80
  -4  -3  -7  149.79   11.50
   4   3   7  167.58   13.30
   4   3   7  141.99   11.70
   4   3   7  151.08   11.90
   6  -4  -7   29.10    6.60
   6  -4  -7   45.30    4.90
   6  -4  -7   32.50    9.10
   6  -4  -7   43.40    7.60
  -6   4   7   52.99    7.00
  -6   4   7   39.80    5.90
   5  -4  -7  138.59   11.10
   5  -4  -7  129.69   16.70
   5  -4  -7  131.39   11.80
  -5   4   7  146.29   11.80
  -5   4   7  149.99   10.60
  -5   4   7  168.58   13.30
  -5   4   7  131.29   10.80
   4  -4  -7   20.60    4.20
   4  -4  -7   15.60    4.10
   4  -4  -7   24.70    4.70
   4  -4  -7   21.90    7.70
  -4   4   7   19.00    5.00
  -4   4   7   18.70    5.10
  -4   4   7   19.30    3.70
   3  -4  -7  608.44   39.80
   3  -4  -7  675.13   46.80
   3  -4  -7  628.94   38.60
  -3   4   7  637.04   38.00
  -3   4   7  623.64   37.70
  -3   4   7  682.93   40.00
  -3   4   7  636.54   39.10
   2  -4  -7  195.68   19.10
   2  -4  -7  173.78   12.80
   2  -4  -7  164.58   14.20
   2  -4  -7  181.98   12.50
   2  -4  -7  185.78   13.10
  -2   4   7  208.18   15.40
  -2   4   7  194.18   13.90
  -2   4   7  197.48   16.30
  -2   4   7  198.38   13.60
  -2   4   7  186.08   12.80
   1  -4  -7  620.64   36.70
   1  -4  -7  602.34   36.20
   1  -4  -7  610.14   35.80
   1  -4  -7  640.94   42.70
  -1   4   7  603.84   38.80
  -1   4   7  595.54   36.30
  -1   4   7  624.64   38.20
  -1   4   7  559.04   35.30
  -1   4   7  578.54   36.60
   0  -4  -7 1117.69   70.79
   0  -4  -7 1280.07   69.89
   0  -4  -7 1230.08   69.49
   0  -4  -7 1222.08   69.99
   0   4   7 1228.88   69.99
   0   4   7 1197.18   71.99
   0   4   7 1144.19   68.49
   0   4   7 1337.37   72.49
   0   4   7 1174.18   70.29
  -1  -4  -7   66.69    7.10
  -1  -4  -7   70.59    6.90
   1   4   7   48.10    6.80
   1   4   7   50.19    6.60
   1   4   7   50.79    7.90
  -2  -4  -7  212.88   16.60
  -2  -4  -7  255.67   16.90
  -2  -4  -7  234.18   17.00
   2   4   7  260.17   18.90
   2   4   7  238.88   16.90
   2   4   7  229.98   17.30
  -3  -4  -7  218.78   15.80
  -3  -4  -7  221.58   16.20
  -3  -4  -7  223.28   16.10
   3   4   7  217.78   15.80
   3   4   7  223.28   15.70
   3   4   7  239.78   17.60
   5  -5  -7   23.80    5.60
   5  -5  -7   32.20    6.80
  -5   5   7   38.50    5.50
  -5   5   7   35.00    5.90
  -5   5   7   40.30    6.10
  -5   5   7   40.20    6.10
   4  -5  -7  121.19   10.50
   4  -5  -7  126.09   10.60
   4  -5  -7  125.39   16.00
  -4   5   7  120.89    9.40
  -4   5   7  105.89    9.30
  -4   5   7  117.39   10.30
  -4   5   7  128.19   11.40
   3  -5  -7  434.76   35.30
   3  -5  -7  466.15   28.70
   3  -5  -7  404.46   26.90
   3  -5  -7  448.16   27.70
   3  -5  -7  415.86   29.00
  -3   5   7  457.75   31.00
  -3   5   7  492.85   29.90
  -3   5   7  416.96   29.30
  -3   5   7  444.46   27.00
   2  -5  -7   14.70    3.40
   2  -5  -7   17.00    7.10
   2  -5  -7   17.30    4.60
   2  -5  -7   16.10    4.80
  -2   5   7   21.80    5.90
  -2   5   7   24.90    4.90
  -2   5   7   26.00    6.20
  -2   5   7   26.10    4.50
   1  -5  -7   22.50    4.30
   1  -5  -7   20.90    4.00
   1  -5  -7   25.10    4.70
  -1   5   7   20.70    6.00
   0  -5  -7   32.90    5.10
   0  -5  -7   36.70    5.00
   0  -5  -7   43.10    5.20
   0   5   7   30.90    5.20
   0   5   7   28.90    6.70
   0   5   7   30.40    5.30
  -1  -5  -7   35.20    5.40
  -1  -5  -7   38.90    5.20
  -1  -5  -7   37.40    6.40
  -1  -5  -7   35.90    4.60
   1   5   7   27.80    6.30
   1   5   7   25.70    5.00
   1   5   7   22.70    4.80
  -2  -5  -7   85.99    8.70
  -2  -5  -7   84.19    8.20
  -2  -5  -7   86.89    8.00
   2   5   7   97.99    9.80
   2   5   7   99.89    8.60
   2   5   7   81.59    8.40
   4  -6  -7   56.99   10.20
   4  -6  -7   62.09    6.40
   4  -6  -7   64.69    6.90
  -4   6   7   45.30    7.90
  -4   6   7   55.69    7.30
  -4   6   7   55.09    6.60
  -4   6   7   55.79    6.00
   3  -6  -7  259.17   17.80
   3  -6  -7  281.37   19.00
  -3   6   7  271.67   17.50
  -3   6   7  277.57   18.70
  -3   6   7  266.97   20.30
  -3   6   7  288.47   20.10
  -3   6   7  245.38   19.00
   2  -6  -7  123.89   10.70
  -2   6   7  127.99   12.70
  -2   6   7  115.79   10.00
  -2   6   7  130.99   11.90
  -2   6   7  114.99   11.90
   1  -6  -7  122.99    9.90
   1  -6  -7  116.79   10.00
  -1   6   7  101.39    9.50
  -1   6   7  101.19   11.00
   0  -6  -7  314.57   20.60
   0  -6  -7  346.97   21.40
   0  -6  -7  372.46   23.00
   0   6   7  308.97   21.70
   0   6   7  310.67   21.60
   2   9  -8  760.62   46.70
  -2  -9   8  880.31   50.69
  -2  -9   8  821.92   49.50
  -2  -9   8  851.51   49.60
   1   9  -8  833.92   48.90
  -1  -9   8  980.90   56.79
  -1  -9   8  813.72   55.69
   0  -9   8  437.36   33.80
   0  -9   8  581.34   34.10
   0  -9   8  534.55   33.00
   1  -9   8   29.50    4.60
   1  -9   8   31.40    4.80
   1  -9   8   27.00    4.40
   2  -9   8  493.55   30.70
   2  -9   8  519.35   31.60
   4   8  -8   67.59    5.70
  -4  -8   8   60.89    7.40
  -4  -8   8   58.19    7.90
   3   8  -8  297.17   18.10
   3   8  -8  284.97   18.60
  -3  -8   8  291.77   20.50
  -3  -8   8  295.87   21.50
   2   8  -8  529.55   31.40
   2   8  -8  545.55   30.50
  -2  -8   8  513.45   33.20
  -2  -8   8  500.65   33.10
  -2  -8   8  530.45   34.40
   1   8  -8   77.99    6.90
   1   8  -8   75.19    5.70
  -1  -8   8   87.59    8.50
  -1  -8   8   95.49    9.90
  -1  -8   8   90.49    9.10
   0   8  -8  339.47   19.70
   0   8  -8  347.77   21.10
   0  -8   8  350.36   23.70
   0  -8   8  348.97   23.10
   0  -8   8  357.36   22.90
   0  -8   8  336.67   22.10
   1  -8   8  249.68   20.00
   1  -8   8  263.67   17.60
   1  -8   8  264.57   18.00
   1  -8   8  256.47   17.80
   1  -8   8  255.57   17.50
   2  -8   8  172.78   12.70
   2  -8   8  187.88   16.80
   2  -8   8  185.18   14.10
   3  -8   8   86.49    8.80
   5   7  -8  397.56   24.80
   5   7  -8  402.36   30.70
  -5  -7   8  404.36   26.80
  -5  -7   8  445.66   26.70
   4   7  -8  122.29    8.90
  -4  -7   8  110.39   10.80
  -4  -7   8  114.79   11.40
   3   7  -8  153.98   10.10
   3   7  -8  143.49   12.60
  -3  -7   8  135.49   12.30
  -3  -7   8  142.09   13.30
   2   7  -8  450.85   29.50
   2   7  -8  481.95   28.50
   2   7  -8  481.45   27.80
  -2  -7   8  440.56   29.30
  -2  -7   8  453.35   30.50
  -2  -7   8  440.46   29.50
   1   7  -8  239.58   17.00
   1   7  -8  244.18   16.00
  -1  -7   8  305.77   20.50
  -1  -7   8  288.97   19.40
  -1  -7   8  306.47   19.20
   0   7  -8  127.59    8.90
   0  -7   8  171.18   12.00
   0  -7   8  145.79   13.70
   0  -7   8  164.18   13.10
   0  -7   8  163.78   11.60
   0  -7   8  166.58   12.40
   1  -7   8   28.80    5.40
   1  -7   8   26.40    4.20
   1  -7   8   31.50    5.00
   1  -7   8   29.70    7.10
   1  -7   8   29.70    4.70
  -2   7  -8  219.88   14.30
   2  -7   8  242.28   16.00
   2  -7   8  254.67   21.80
   2  -7   8  268.47   18.10
  -3   7  -8  268.77   18.00
  -3   7  -8  272.57   16.10
   3  -7   8  265.87   19.20
   3  -7   8  248.98   22.50
  -4   7  -8  457.05   28.50
  -4   7  -8  432.56   30.00
   4  -7   8  528.25   35.70
   4  -7   8  545.75   32.00
   5   6  -8  106.19   13.20
   5   6  -8   98.49    8.40
   5   6  -8  101.29    8.30
  -5  -6   8  102.49   10.00
  -5  -6   8  110.99   10.40
   4   6  -8  699.53   38.30
   4   6  -8  640.64   41.50
  -4  -6   8  639.44   40.40
  -4  -6   8  630.64   40.80
   3   6  -8    4.10    2.60
   3   6  -8    5.10    2.80
   3   6  -8    3.20    1.70
  -3  -6   8   13.50    4.70
   2   6  -8  134.09    9.00
   2   6  -8  123.99   11.20
   2   6  -8  126.99    8.10
  -2  -6   8  104.39    9.90
  -2  -6   8  103.79   10.20
  -2  -6   8  110.89   11.20
   1   6  -8   15.60    2.90
   1   6  -8   16.30    4.10
   1   6  -8   14.00    1.90
  -1  -6   8   21.80    5.90
  -1  -6   8   16.90    3.80
  -1  -6   8   17.10    4.20
  -1  -6   8   13.90    2.80
  -1  -6   8   15.70    4.30
   0   6  -8  707.73   47.60
   0   6  -8  735.23   44.90
   0  -6   8  792.42   46.20
   0  -6   8  821.32   50.79
   0  -6   8  855.01   48.00
   0  -6   8  840.82   47.10
   0  -6   8  821.92   46.50
  -1   6  -8 3572.24  184.08
  -1   6  -8 3201.78  186.68
   1  -6   8 3406.16  185.98
   1  -6   8 3200.08  185.08
   1  -6   8 3352.16  185.98
   1  -6   8 3192.38  184.78
   1  -6   8 3429.56  191.18
  -2   6  -8   17.40    4.40
  -2   6  -8   21.00    3.70
  -2   6  -8   17.00    2.20
  -3   6  -8   75.09    6.10
   3  -6   8   87.29    8.90
   3  -6   8   70.09   11.70
  -4   6  -8  316.57   20.00
  -4   6  -8  305.67   21.70
   4  -6   8  327.77   26.90
   4  -6   8  346.07   23.10
   6   5  -8  539.55   31.50
   6   5  -8  527.45   38.10
   6   5  -8  539.95   31.30
  -6  -5   8  491.95   32.10
   5   5  -8  445.76   26.10
   5   5  -8  377.06   31.60
   5   5  -8  432.66   32.60
   5   5  -8  468.15   26.00
  -5  -5   8  424.66   27.80
  -5  -5   8  379.56   27.30
   4   5  -8  811.82   44.90
   4   5  -8  737.63   47.80
   4   5  -8  796.62   44.60
   4   5  -8  802.52   51.69
  -4  -5   8  742.83   46.60
  -4  -5   8  718.73   46.60
   3   5  -8 1084.89   60.19
   3   5  -8 1055.49   63.99
  -3  -5   8 1052.19   62.49
  -3  -5   8 1072.69   63.09
   2   5  -8 4728.73  251.37
   2   5  -8 4648.63  255.67
  -2  -5   8 4084.39  256.37
  -2  -5   8 4692.23  254.57
  -2  -5   8 4575.44  253.57
  -2  -5   8 4726.53  253.97
   1   5  -8 1640.74   91.79
   1   5  -8 1646.44   92.19
   1   5  -8 1627.14   95.89
  -1  -5   8 1795.22   95.09
  -1  -5   8 1610.24   97.19
  -1  -5   8 1743.33   94.19
  -1  -5   8 1638.14   93.59
  -1  -5   8 1577.04   92.29
   0   5  -8 1536.65   86.29
   0   5  -8 1466.65   81.89
   0   5  -8 1526.45   81.29
   0  -5   8 1551.94   84.79
   0  -5   8 1465.15   83.89
   0  -5   8 1432.06   83.29
   0  -5   8 1372.16   83.09
   0  -5   8 1486.05   88.39
  -1   5  -8  554.84   31.50
  -1   5  -8  550.44   31.70
  -1   5  -8  589.74   31.00
   1  -5   8  510.65   32.00
   1  -5   8  478.15   30.80
   1  -5   8  510.95   32.30
   1  -5   8  493.55   31.40
   1  -5   8  543.25   37.20
  -2   5  -8 1074.59   59.69
  -2   5  -8 1075.89   61.49
  -2   5  -8 1025.40   59.99
  -2   5  -8 1082.49   61.99
  -2   5  -8 1077.49   59.29
   2  -5   8 1021.60   66.69
   2  -5   8 1039.00   61.89
  -3   5  -8  703.23   45.40
   3  -5   8  795.52   48.00
   3  -5   8  762.22   51.29
  -4   5  -8  194.98   13.80
  -4   5  -8  191.18   15.00
   4  -5   8  218.38   16.40
   4  -5   8  202.98   20.10
  -5   5  -8  274.17   17.70
  -5   5  -8  263.47   19.20
   5  -5   8  277.47   19.60
   5  -5   8  269.87   22.80
   6   4  -8  496.15   27.80
   6   4  -8  440.26   33.90
  -6  -4   8  419.66   31.70
   5   4  -8  419.76   24.70
   5   4  -8  408.26   31.60
   5   4  -8  401.16   28.20
   5   4  -8  401.86   24.70
  -5  -4   8  371.66   26.00
   4   4  -8  408.06   24.40
   4   4  -8  407.86   27.80
   4   4  -8  436.66   30.80
   4   4  -8  417.76   24.30
  -4  -4   8  335.57   26.30
  -4  -4   8  408.06   26.50
  -4  -4   8  388.46   26.30
   3   4  -8  236.28   18.70
   3   4  -8  206.48   15.30
   3   4  -8  272.77   20.90
   3   4  -8  240.58   15.20
  -3  -4   8  255.77   17.70
  -3  -4   8  255.37   17.40
  -3  -4   8  255.27   17.90
   2   4  -8 1695.53   94.69
   2   4  -8 1673.63   90.19
  -2  -4   8 1539.65   94.89
  -2  -4   8 1621.64   92.79
  -2  -4   8 1595.14   92.39
   1   4  -8 1570.44   84.39
   1   4  -8 1442.96   79.89
   1   4  -8 1522.55   84.69
   1   4  -8 1471.55   80.29
  -1  -4   8 1451.75   82.19
  -1  -4   8 1387.96   81.39
  -1  -4   8 1233.48   81.09
  -1  -4   8 1475.35   82.79
  -1  -4   8 1451.25   86.29
   0   4  -8  939.71   53.19
   0   4  -8  984.00   55.79
   0   4  -8  876.11   53.09
   0  -4   8 1008.50   56.09
   0  -4   8  909.61   54.39
   0  -4   8 1027.00   60.19
   0  -4   8 1006.40   55.39
   0  -4   8  934.61   54.39
  -1   4  -8 1121.09   60.69
  -1   4  -8 1096.19   60.89
  -1   4  -8 1141.39   60.39
  -1   4  -8 1139.69   60.19
   1  -4   8 1043.20   61.49
   1  -4   8 1089.89   66.49
   1  -4   8 1058.59   61.29
   1  -4   8  953.30   60.79
   1  -4   8  965.30   60.49
  -2   4  -8 1774.72  101.69
  -2   4  -8 1864.11  100.29
  -2   4  -8 1843.22  100.49
  -2   4  -8 1785.12  100.09
  -2   4  -8 1815.62  102.19
   2  -4   8 1770.92  102.19
   2  -4   8 1734.33  107.19
  -3   4  -8  163.08   11.70
  -3   4  -8  154.28   13.10
  -3   4  -8  157.38   13.20
   3  -4   8  186.38   14.10
   3  -4   8  182.18   18.20
  -4   4  -8  239.68   19.80
  -4   4  -8  222.78   17.40
  -4   4  -8  226.88   16.00
   4  -4   8  238.78   22.10
   4  -4   8  250.47   18.30
  -5   4  -8  679.73   43.50
  -5   4  -8  726.83   42.00
  -5   4  -8  681.93   43.40
   5  -4   8  747.53   44.00
   7   3  -8   16.10    5.20
   7   3  -8   11.80    2.70
  -7  -3   8   14.90    6.80
   6   3  -8  527.15   31.00
   6   3  -8  530.45   38.10
   6   3  -8  533.55   31.20
  -6  -3   8  513.05   34.00
  -6  -3   8  471.85   32.70
   5   3  -8  430.06   26.20
   5   3  -8  433.46   26.30
   5   3  -8  432.26   29.60
  -5  -3   8  424.86   28.60
  -5  -3   8  409.56   27.40
  -5  -3   8  453.15   29.50
   4   3  -8  660.73   38.70
   4   3  -8  642.54   38.60
   4   3  -8  622.24   42.00
  -4  -3   8  728.63   41.60
  -4  -3   8  681.73   40.70
  -4  -3   8  658.13   42.50
   3   3  -8  212.98   17.70
   3   3  -8  232.48   14.30
   3   3  -8  216.88   14.40
   3   3  -8  234.88   19.10
  -3  -3   8  244.78   17.00
  -3  -3   8  239.38   16.90
  -3  -3   8  215.28   21.70
  -3  -3   8  225.48   16.60
   2   3  -8 1604.34   97.29
   2   3  -8 1596.74   93.39
   2   3  -8 1704.23   97.99
  -2  -3   8 1711.13   95.79
  -2  -3   8 1723.13   95.89
  -2  -3   8 1765.82   95.59
   1   3  -8 4414.76  255.97
   1   3  -8 4892.31  259.77
  -1  -3   8 4609.64  257.97
  -1  -3   8 4752.42  261.87
   0   3  -8 2083.59  117.69
   0   3  -8 2154.38  115.79
   0   3  -8 2100.99  115.99
   0  -3   8 2054.09  117.49
   0  -3   8 2327.87  123.99
   0  -3   8 1903.51  116.59
  -1   3  -8   49.10    4.90
  -1   3  -8   51.79    5.10
  -1   3  -8   50.99    5.10
   1  -3   8   53.39    9.40
   1  -3   8   53.39    5.50
   1  -3   8   51.79    6.50
  -2   3  -8  525.35   31.80
  -2   3  -8  537.95   32.00
  -2   3  -8  539.15   33.20
  -2   3  -8  533.85   33.50
  -2   3  -8  521.65   32.10
   2  -3   8  581.04   38.80
   2  -3   8  576.64   33.70
  -3   3  -8  243.18   16.30
  -3   3  -8  271.77   18.90
  -3   3  -8  256.77   18.50
  -3   3  -8  249.38   16.60
  -3   3  -8  267.67   17.20
  -4   3  -8 1408.96   85.89
  -4   3  -8 1502.15   86.09
  -4   3  -8 1520.45   84.09
   4  -3   8 1521.25   85.99
   4  -3   8 1412.66   90.09
  -5   3  -8  422.96   28.50
  -5   3  -8  444.26   31.30
  -5   3  -8  350.56   29.70
   5  -3   8  504.65   31.50
   5  -3   8  414.06   31.10
   7   2  -8  138.89   10.30
   7   2  -8  138.99   10.50
  -7  -2   8  156.48   12.60
   6   2  -8  109.29   11.00
   6   2  -8  108.89   13.30
   6   2  -8   94.19    8.20
   6   2  -8  107.59    8.20
  -6  -2   8   82.49   10.20
  -6  -2   8  101.19   10.90
  -6  -2   8   89.09   10.30
   5   2  -8   17.10    6.90
   5   2  -8   13.10    3.10
   5   2  -8   14.90    4.30
   5   2  -8   14.30    3.80
   5   2  -8   16.40    3.30
  -5  -2   8   20.60    4.80
  -5  -2   8   15.90    5.60
  -5  -2   8   10.00    4.50
  -5  -2   8   17.00    5.30
   4   2  -8 1986.80  119.69
   4   2  -8 2018.20  122.69
   4   2  -8 2005.70  116.29
   4   2  -8 2148.89  117.49
  -4  -2   8 2160.88  121.29
  -4  -2   8 2210.68  119.29
  -4  -2   8 2089.99  117.89
   3   2  -8  560.04   33.20
   3   2  -8  554.14   33.20
   3   2  -8  599.14   38.60
   3   2  -8  543.65   36.70
  -3  -2   8  585.34   35.80
  -3  -2   8  590.94   38.00
  -3  -2   8  584.14   35.20
   2   2  -8  478.55   29.80
   2   2  -8  508.05   30.30
   2   2  -8  548.15   34.30
  -2  -2   8  516.35   34.10
  -2  -2   8  523.65   32.40
  -2  -2   8  561.04   35.10
   1   2  -8   34.10    4.80
   1   2  -8   32.90    3.20
   1   2  -8   32.10    2.80
  -1  -2   8   26.60    3.10
  -1  -2   8   38.70    5.90
   0   2  -8 2339.87  132.99
   0   2  -8 2452.35  131.69
   0   2  -8 2589.04  132.39
   0   2  -8 2471.35  132.49
   0  -2   8 2462.05  133.59
   0  -2   8 2110.29  131.79
   0  -2   8 2260.27  132.79
  -1   2  -8  522.45   31.20
  -1   2  -8  524.55   31.00
  -1   2  -8  520.95   30.80
  -1   2  -8  485.35   31.10
  -1   2  -8  474.65   31.30
   1  -2   8  549.35   31.60
   1  -2   8  581.34   36.90
   1  -2   8  578.44   32.90
  -2   2  -8 1485.25   88.69
  -2   2  -8 1523.45   88.39
  -2   2  -8 1519.25   87.19
  -2   2  -8 1520.85   87.49
  -2   2  -8 1574.94   87.49
   2  -2   8 1674.03   94.09
   2  -2   8 1684.33   88.79
   2  -2   8 1440.36   87.19
  -3   2  -8 1200.68   68.39
  -3   2  -8 1300.17   70.79
  -3   2  -8 1226.28   70.09
  -3   2  -8 1212.48   67.99
  -3   2  -8 1186.68   70.69
  -3   2  -8 1277.87   68.79
   3  -2   8 1163.48   69.69
   3  -2   8 1142.09   74.19
   3  -2   8 1034.80   68.39
  -4   2  -8    6.50    2.30
  -4   2  -8    3.70    3.10
  -4   2  -8    8.40    4.60
  -4   2  -8    6.10    3.70
  -4   2  -8    7.30    3.10
   4  -2   8   13.40    4.70
   4  -2   8    5.10    5.40
  -5   2  -8  448.36   28.70
  -5   2  -8  449.36   30.50
  -5   2  -8  469.75   30.20
   5  -2   8  449.66   29.70
   7   1  -8  143.29   12.70
   7   1  -8  142.39   16.10
  -7  -1   8  171.08   14.00
   6   1  -8  509.55   29.70
   6   1  -8  490.55   37.20
   6   1  -8  524.45   32.80
  -6  -1   8  496.65   32.60
  -6  -1   8  435.96   33.00
   5   1  -8  962.20   55.39
   5   1  -8  870.51   50.29
   5   1  -8  857.71   57.49
   5   1  -8  886.11   50.49
  -5  -1   8  787.92   50.29
  -5  -1   8  874.41   53.19
   4   1  -8  780.12   44.90
   4   1  -8  774.52   48.00
   4   1  -8  798.52   51.29
  -4  -1   8  749.53   45.80
  -4  -1   8  784.12   49.60
  -4  -1   8  780.02   47.40
   3   1  -8  109.39    8.80
   3   1  -8  131.99    9.20
   3   1  -8  138.99   13.30
   3   1  -8  132.19   12.10
  -3  -1   8  135.29   11.50
  -3  -1   8  141.79   13.60
  -3  -1   8  130.79   10.80
   2   1  -8 1675.13   90.39
   2   1  -8 1605.34   85.49
  -2  -1   8 1286.07   85.39
  -2  -1   8 1592.34   87.49
   1   1  -8  752.82   45.50
   1   1  -8  739.53   48.20
  -1  -1   8  876.01   47.60
  -1  -1   8  809.22   46.40
  -1  -1   8  854.31   50.49
   0   1  -8 1375.46   74.59
   0   1  -8 1341.47   74.99
   0   1  -8 1404.76   74.89
   0   1  -8 1352.56   76.09
   0  -1   8 1299.37   75.89
   0  -1   8 1216.68   74.39
   0  -1   8 1280.17   74.09
   0  -1   8 1371.06   80.09
  -1   1  -8   82.59    7.30
  -1   1  -8   74.99    7.10
  -1   1  -8   78.79    6.90
  -1   1  -8   77.19    7.10
  -1   1  -8   86.59    7.10
   1  -1   8   90.39    7.00
   1  -1   8   87.09    7.40
   1  -1   8   96.29    8.90
   1  -1   8   90.19   11.30
  -2   1  -8  795.52   45.30
  -2   1  -8  715.53   45.10
  -2   1  -8  752.12   44.20
  -2   1  -8  701.23   45.60
  -2   1  -8  770.72   44.70
   2  -1   8  808.22   45.60
   2  -1   8  763.92   49.90
   2  -1   8  797.42   46.90
   2  -1   8  688.33   44.20
   2  -1   8  819.82   44.90
  -3   1  -8  721.43   40.50
  -3   1  -8  682.63   40.10
  -3   1  -8  734.63   42.40
  -3   1  -8  683.53   41.50
  -3   1  -8  684.63   39.70
   3  -1   8  620.54   42.00
   3  -1   8  581.34   44.30
   3  -1   8  647.04   41.10
  -4   1  -8  278.37   21.40
  -4   1  -8  285.97   19.70
  -4   1  -8  252.97   18.50
  -4   1  -8  263.87   19.20
   4  -1   8  286.37   19.90
   4  -1   8  322.57   24.10
   4  -1   8  338.77   21.20
  -5   1  -8  121.69   11.10
  -5   1  -8  123.49   12.00
  -5   1  -8  124.29   10.30
   5  -1   8  125.39   10.90
   7   0  -8  226.38   14.80
   7   0  -8  187.88   19.30
  -7   0   8  189.08   16.30
  -7   0   8  173.18   17.10
   6   0  -8  131.59   15.80
   6   0  -8  152.58   11.20
   6   0  -8  127.09   12.30
   6   0  -8  123.79    9.80
   6   0  -8  143.89   11.90
  -6   0   8  144.59   13.20
   5   0  -8  157.98   13.00
   5   0  -8  165.08   11.90
   5   0  -8  159.08   11.60
   5   0  -8  163.38   17.70
  -5   0   8  175.28   14.50
   4   0  -8 1164.88   66.79
   4   0  -8 1220.18   74.09
   4   0  -8 1148.19   69.49
  -4   0   8 1179.18   69.39
   3   0  -8  574.24   33.30
   3   0  -8  556.84   36.20
   3   0  -8  571.04   33.10
   3   0  -8  605.84   39.10
  -3   0   8  522.25   33.10
  -3   0   8  582.64   35.60
  -3   0   8  577.84   37.80
   2   0  -8  280.87   19.90
   2   0  -8  261.17   15.80
   2   0  -8  254.27   15.30
  -2   0   8  223.38   17.40
  -2   0   8  231.88   19.50
   1   0  -8 2173.88  123.69
   1   0  -8 2125.89  120.29
   1   0  -8 2166.38  120.39
  -1   0   8 1897.01  119.39
  -1   0   8 2345.17  125.09
  -1   0   8 2273.77  121.69
  -1   0   8 2180.18  119.69
   0   0  -8 1626.64   90.59
   0   0  -8 1529.15   90.39
   0   0  -8 1571.24   92.29
   0   0  -8 1634.64   90.39
   0   0  -8 1644.34   90.69
   0   0   8 1548.15   90.19
   0   0   8 1654.13   90.29
   0   0   8 1632.44   94.99
   0   0   8 1692.53   92.19
  -1   0  -8 1096.49   58.89
  -1   0  -8 1036.60   59.49
  -1   0  -8 1080.99   59.29
  -1   0  -8 1102.09   59.19
   1   0   8  908.61   58.19
   1   0   8  995.90   58.99
   1   0   8 1039.20   60.99
   1   0   8 1000.90   58.89
   1   0   8 1008.30   63.49
  -2   0  -8 1417.86   88.59
  -2   0  -8 1393.46   89.19
  -2   0  -8 1514.25   87.69
  -2   0  -8 1548.95   88.29
  -2   0  -8 1524.25   88.19
   2   0   8 1716.43   90.79
   2   0   8 1567.84   93.09
   2   0   8 1630.94   88.39
   2   0   8 1502.15   87.99
   2   0   8 1719.73   89.09
  -3   0  -8  126.19   10.20
  -3   0  -8  116.59   10.70
  -3   0  -8  108.09   11.50
  -3   0  -8  117.59   11.00
   3   0   8  110.89    9.80
   3   0   8  120.89   12.40
   3   0   8  117.09   11.90
   3   0   8   99.09    9.50
   3   0   8  106.99   12.70
  -4   0  -8   44.70    5.70
  -4   0  -8   48.90    6.30
  -4   0  -8   49.80    7.90
  -4   0  -8   45.40    6.10
   4   0   8   40.70    5.90
   4   0   8   49.60    7.00
   4   0   8   40.60    8.40
   7  -1  -8  182.58   18.90
   7  -1  -8  209.58   14.50
   7  -1  -8  213.88   15.40
  -7   1   8  234.18   17.00
   6  -1  -8   47.10    9.30
   6  -1  -8   59.69    6.10
   5  -1  -8 1035.50   63.19
   5  -1  -8 1049.79   61.49
   5  -1  -8 1079.09   63.69
   5  -1  -8 1093.79   69.99
   5  -1  -8 1109.79   61.89
  -5   1   8 1090.49   64.69
   4  -1  -8  449.95   25.70
   4  -1  -8  429.96   25.70
   4  -1  -8  457.95   32.80
   4  -1  -8  435.56   27.70
  -4   1   8  355.96   25.40
  -4   1   8  397.86   27.80
   3  -1  -8  195.08   13.10
   3  -1  -8  206.18   18.50
   3  -1  -8  195.78   13.10
   3  -1  -8  192.28   13.40
   3  -1  -8  201.38   15.70
  -3   1   8  209.18   13.30
  -3   1   8  215.28   15.80
  -3   1   8  202.68   14.00
   2  -1  -8  220.48   15.00
   2  -1  -8  228.68   14.60
   2  -1  -8  242.98   19.40
   2  -1  -8  206.48   14.60
   2  -1  -8  231.28   14.90
  -2   1   8  249.58   19.20
  -2   1   8  241.98   14.50
  -2   1   8  237.88   17.00
  -2   1   8  256.07   16.40
   1  -1  -8  451.65   28.50
   1  -1  -8  447.96   31.90
   1  -1  -8  446.86   28.40
   1  -1  -8  444.86   28.20
  -1   1   8  531.55   28.40
  -1   1   8  552.24   33.20
   0  -1  -8 3836.02  211.58
   0  -1  -8 3985.60  209.08
   0  -1  -8 3974.40  208.68
   0  -1  -8 3817.22  208.98
   0   1   8 3769.42  210.58
   0   1   8 3676.53  208.58
   0   1   8 3352.76  207.98
  -1  -1  -8 1661.33   96.49
  -1  -1  -8 1739.73   96.09
  -1  -1  -8 1762.82   95.79
  -1  -1  -8 1775.72   96.19
   1   1   8 1739.93   97.99
   1   1   8 1707.23   95.99
   1   1   8 1639.44   99.89
   1   1   8 1565.44   95.69
  -2  -1  -8  518.25   33.50
  -2  -1  -8  546.35   32.80
  -2  -1  -8  517.15   33.50
  -2  -1  -8  540.95   32.60
  -2  -1  -8  544.95   32.40
   2   1   8  527.05   32.70
   2   1   8  557.14   34.80
   2   1   8  535.85   32.60
   2   1   8  490.85   32.30
   2   1   8  521.15   36.10
  -3  -1  -8  121.39    9.80
  -3  -1  -8  121.69    9.60
  -3  -1  -8  127.69   11.30
  -3  -1  -8  116.39   10.00
   3   1   8   95.69   11.00
   3   1   8   91.39    9.70
   3   1   8   84.59    9.00
   3   1   8   98.59   11.30
  -4  -1  -8  180.28   13.10
  -4  -1  -8  200.48   13.60
  -4  -1  -8  190.08   14.30
  -4  -1  -8  192.28   15.40
   4   1   8  170.38   13.90
   4   1   8  148.59   13.20
   7  -2  -8  388.06   26.20
  -7   2   8  435.56   27.80
   6  -2  -8   62.29   11.00
   6  -2  -8   74.09    7.90
   6  -2  -8   68.09    6.70
  -6   2   8   60.89    8.70
   5  -2  -8  175.78   14.70
   5  -2  -8  184.08   13.20
   5  -2  -8  178.18   14.00
   5  -2  -8  192.88   20.10
  -5   2   8  189.18   15.50
  -5   2   8  163.88   16.20
   4  -2  -8 1205.18   72.79
   4  -2  -8 1182.48   70.89
   4  -2  -8 1326.37   71.99
   4  -2  -8 1273.17   73.89
   4  -2  -8 1306.67   72.79
   4  -2  -8 1327.97   80.49
  -4   2   8 1322.97   74.39
  -4   2   8 1152.28   71.99
   3  -2  -8  979.40   59.49
   3  -2  -8  993.30   58.69
   3  -2  -8  989.50   60.99
   3  -2  -8 1050.09   66.59
   3  -2  -8  986.20   59.29
   3  -2  -8  995.20   58.89
   3  -2  -8 1028.50   59.19
  -3   2   8 1185.18   61.99
  -3   2   8 1123.59   60.69
  -3   2   8 1053.49   58.69
   2  -2  -8  853.81   49.40
   2  -2  -8  834.92   49.00
   2  -2  -8  872.61   49.10
   2  -2  -8  802.52   49.90
   2  -2  -8  832.82   49.50
  -2   2   8  885.41   50.89
  -2   2   8  856.91   49.00
  -2   2   8  882.61   51.19
  -2   2   8  894.21   53.59
   1  -2  -8  303.97   19.20
   1  -2  -8  318.87   19.40
   1  -2  -8  327.47   18.90
  -1   2   8  285.07   18.80
  -1   2   8  262.27   18.40
  -1   2   8  295.17   20.70
  -1   2   8  297.47   22.60
   0  -2  -8  831.72   46.80
   0  -2  -8  791.12   46.90
   0  -2  -8  801.62   50.19
   0  -2  -8  809.42   47.10
   0   2   8  786.22   50.39
   0   2   8  782.32   50.39
   0   2   8  788.12   46.90
   0   2   8  832.12   48.90
  -1  -2  -8 1303.87   70.39
  -1  -2  -8 1272.67   70.89
  -1  -2  -8 1189.28   69.29
  -1  -2  -8 1291.77   71.19
   1   2   8 1249.18   72.59
   1   2   8 1210.68   74.19
   1   2   8 1207.38   70.49
   1   2   8 1100.79   70.29
  -2  -2  -8  544.75   35.00
  -2  -2  -8  541.75   34.90
  -2  -2  -8  504.05   35.50
  -2  -2  -8  570.54   34.70
  -2  -2  -8  524.75   35.90
   2   2   8  638.84   37.80
   2   2   8  595.34   37.80
   2   2   8  586.94   35.00
   2   2   8  599.44   39.00
   2   2   8  607.34   35.20
  -3  -2  -8   16.10    3.40
  -3  -2  -8   19.80    4.60
  -3  -2  -8   20.40    5.10
   3   2   8   12.20    4.50
   3   2   8    8.50    3.00
   3   2   8   10.80    3.50
  -4  -2  -8   73.99    8.20
  -4  -2  -8   72.89    7.10
  -4  -2  -8   62.79    6.90
   4   2   8   78.29    8.60
   4   2   8   64.59    7.30
   4   2   8   73.79    7.40
   6  -3  -8   92.69    8.90
   6  -3  -8   86.59    7.90
  -6   3   8   89.49   10.40
   5  -3  -8   44.20    9.50
   5  -3  -8   51.39    8.20
   5  -3  -8   50.99    6.40
   5  -3  -8   51.39    5.80
  -5   3   8   34.50    6.70
   4  -3  -8  150.08   17.00
   4  -3  -8  140.29   12.20
   4  -3  -8  155.48   10.70
   4  -3  -8  132.39   13.20
  -4   3   8  108.09   10.70
  -4   3   8  127.19   11.10
  -4   3   8  122.19   12.40
   3  -3  -8  653.73   40.60
   3  -3  -8  642.04   41.00
   3  -3  -8  734.73   49.40
   3  -3  -8  660.43   40.30
   3  -3  -8  688.63   41.50
   3  -3  -8  714.83   41.30
  -3   3   8  739.23   42.90
  -3   3   8  679.83   40.80
  -3   3   8  763.92   46.10
  -3   3   8  740.83   43.10
   2  -3  -8  560.04   35.40
   2  -3  -8  575.74   35.80
   2  -3  -8  579.64   35.40
   2  -3  -8  622.34   42.60
   2  -3  -8  556.04   35.70
  -2   3   8  675.33   38.10
  -2   3   8  654.03   40.30
  -2   3   8  639.74   35.90
  -2   3   8  590.34   35.80
   1  -3  -8  128.79    9.80
   1  -3  -8  120.29    9.50
   1  -3  -8  125.89    9.30
   1  -3  -8  137.59   13.90
  -1   3   8  104.59    9.20
  -1   3   8  114.29    9.50
  -1   3   8  122.19   11.50
   0  -3  -8  162.18   12.50
   0  -3  -8  154.78   11.90
   0  -3  -8  149.69   12.00
   0  -3  -8  166.08   12.20
   0  -3  -8  148.59   11.90
   0   3   8  182.98   12.70
   0   3   8  168.38   12.50
   0   3   8  184.38   15.60
   0   3   8  196.08   14.80
  -1  -3  -8   75.89    9.70
  -1  -3  -8   64.59    6.80
  -1  -3  -8   56.69    7.70
  -1  -3  -8   56.99    6.80
   1   3   8   65.19    7.10
   1   3   8   61.19    9.00
   1   3   8   64.39    8.50
  -2  -3  -8   56.09    7.10
  -2  -3  -8   58.29    6.90
  -2  -3  -8   62.39    6.90
  -2  -3  -8   50.69    6.30
   2   3   8   54.39    6.60
   2   3   8   57.39    6.60
   2   3   8   63.09    8.50
  -3  -3  -8  282.07   19.90
  -3  -3  -8  310.27   20.20
   3   3   8  283.27   19.30
   3   3   8  266.47   19.10
   3   3   8  303.87   20.50
   6  -4  -8  244.18   17.10
   6  -4  -8  220.78   21.50
   6  -4  -8  235.68   15.90
  -6   4   8  275.07   18.10
   5  -4  -8   24.20    7.40
   5  -4  -8   21.00    4.60
   5  -4  -8   25.00    4.50
  -5   4   8   25.50    5.60
   4  -4  -8  185.38   19.80
   4  -4  -8  187.48   13.70
  -4   4   8  159.28   14.80
  -4   4   8  192.28   14.60
  -4   4   8  192.28   14.60
   3  -4  -8  479.65   31.10
   3  -4  -8  495.75   38.40
   3  -4  -8  455.45   33.80
  -3   4   8  565.34   35.80
  -3   4   8  512.65   30.90
  -3   4   8  564.44   33.30
   2  -4  -8 1507.05   87.89
   2  -4  -8 1556.44   89.79
   2  -4  -8 1642.64   89.29
   2  -4  -8 1417.66   89.59
   2  -4  -8 1625.44   95.99
  -2   4   8 1456.15   88.19
  -2   4   8 1632.14   92.39
  -2   4   8 1502.85   88.09
  -2   4   8 1676.83   90.59
   1  -4  -8  133.09   11.10
   1  -4  -8  145.09   11.50
   1  -4  -8  141.59   10.80
  -1   4   8  140.79   13.50
  -1   4   8  164.78   15.60
  -1   4   8  165.08   13.70
  -1   4   8  149.39   11.40
   0  -4  -8  174.38   12.90
   0  -4  -8  171.08   14.00
   0  -4  -8  171.28   12.80
   0   4   8  165.48   13.10
   0   4   8  188.18   13.70
   0   4   8  202.08   15.50
  -1  -4  -8  152.98   11.90
  -1  -4  -8  160.38   11.70
  -1  -4  -8  156.78   10.80
   1   4   8  130.49   11.40
   1   4   8  148.39   13.40
   1   4   8  146.19   11.70
  -2  -4  -8   69.89    8.10
  -2  -4  -8   78.79   10.00
   2   4   8   86.29    9.60
   2   4   8   70.19    7.40
   2   4   8   88.59    8.30
   5  -5  -8  127.39    9.80
   5  -5  -8  125.29   10.10
  -5   5   8  115.29   10.00
  -5   5   8  115.89   12.50
   4  -5  -8   66.69   11.20
   4  -5  -8   74.69    7.60
   4  -5  -8   72.99    7.30
  -4   5   8   78.09   14.50
   3  -5  -8  633.64   37.60
   3  -5  -8  603.74   44.20
   3  -5  -8  650.13   36.80
  -3   5   8  593.64   39.80
  -3   5   8  562.94   36.20
  -3   5   8  614.54   38.30
   2  -5  -8  103.39    8.90
  -2   5   8   75.29    8.00
  -2   5   8   85.39    7.80
  -2   5   8   84.79   10.00
   1  -5  -8  235.88   16.50
   1  -5  -8  263.47   17.20
   1  -5  -8  247.58   16.00
  -1   5   8  244.28   16.80
  -1   5   8  234.88   16.80
   0  -5  -8   45.80    6.10
   0  -5  -8   43.70    5.40
   0  -5  -8   45.30    5.40
   0   5   8   53.39    6.10
  -1  -5  -8   29.00    4.50
  -1  -5  -8   28.70    5.30
   1   5   8   32.70    7.20
   1   5   8   21.20    5.10
   1   5   8   26.50    5.70
   3  -6  -8   19.30    4.10
  -3   6   8   14.70    4.70
   2  -6  -8   42.70    5.90
   2  -6  -8   42.60    5.70
  -2   6   8   48.00    6.90
   1  -6  -8   37.10    4.90
   1  -6  -8   39.70    5.40
  -1   6   8   37.60    6.10
   2   9  -9   71.89    5.30
  -2  -9   9   72.29    8.90
  -2  -9   9   69.89    8.00
   1   9  -9  277.07   17.50
  -1  -9   9  311.57   21.50
  -1  -9   9  318.37   21.00
  -1  -9   9  316.47   20.70
   0  -9   9  324.77   20.90
   0  -9   9  307.77   21.10
   0  -9   9  307.67   20.90
   1  -9   9  174.08   14.30
   1  -9   9  190.08   13.20
   3   8  -9  197.98   13.00
   3   8  -9  174.18   12.80
  -3  -8   9  204.18   16.40
   2   8  -9  515.85   30.00
   2   8  -9  529.45   29.10
  -2  -8   9  463.55   31.60
  -2  -8   9  497.45   32.20
  -2  -8   9  509.95   33.10
   1   8  -9  651.73   37.50
   1   8  -9  634.44   38.40
  -1  -8   9  681.73   41.00
  -1  -8   9  659.83   40.50
  -1  -8   9  709.73   42.00
   0  -8   9   90.49    9.30
   0  -8   9   84.09    8.10
   0  -8   9   95.99    8.90
   1  -8   9   96.59    8.60
   1  -8   9  100.79    8.80
   1  -8   9  107.79    9.10
   1  -8   9   97.29    8.30
   1  -8   9   98.19   11.00
   2  -8   9  116.59   13.40
   2  -8   9  133.39   11.60
   4   7  -9  112.69   13.40
   4   7  -9  119.99    8.40
   4   7  -9  116.69    8.70
  -4  -7   9   91.29   10.30
  -4  -7   9   95.29   10.60
   3   7  -9   53.69    5.70
   3   7  -9   52.39    5.00
  -3  -7   9   64.59    8.10
  -3  -7   9   66.99    8.50
   2   7  -9  232.08   14.00
   2   7  -9  221.38   14.70
   2   7  -9  226.68   18.00
  -2  -7   9  226.08   17.10
  -2  -7   9  223.28   16.60
  -2  -7   9  233.98   17.90
   1   7  -9  129.09    8.60
  -1  -7   9  113.39   11.50
  -1  -7   9  114.99   10.10
  -1  -7   9  122.29   10.90
   0  -7   9  712.43   45.30
   0  -7   9  793.72   46.60
   0  -7   9  786.92   45.70
   0  -7   9  773.52   45.80
   1  -7   9  286.97   18.90
   1  -7   9  274.97   18.10
   1  -7   9  260.47   18.40
   1  -7   9  302.57   23.60
   1  -7   9  284.67   19.20
  -2   7  -9    1.50    1.50
   2  -7   9    3.70    2.70
   2  -7   9    1.10    4.00
  -3   7  -9   19.10    4.50
  -3   7  -9   12.10    2.40
   3  -7   9   22.80    7.20
   5   6  -9  693.03   39.70
   5   6  -9  641.94   38.90
   4   6  -9  496.05   28.60
   4   6  -9  478.85   28.80
   4   6  -9  483.35   35.30
  -4  -6   9  477.85   30.90
  -4  -6   9  444.66   31.00
   3   6  -9  149.09   10.60
   3   6  -9  160.38   10.10
  -3  -6   9  133.09   12.90
  -3  -6   9  125.69   12.30
   2   6  -9  415.66   29.90
   2   6  -9  428.46   26.20
   2   6  -9  416.86   26.70
  -2  -6   9  499.05   29.60
  -2  -6   9  478.05   28.90
  -2  -6   9  521.95   30.50
  -2  -6   9  415.46   29.70
   1   6  -9  473.25   25.60
   1   6  -9  497.15   24.90
  -1  -6   9  417.96   27.70
  -1  -6   9  403.36   27.00
  -1  -6   9  380.56   29.80
  -1  -6   9  422.76   28.50
   0   6  -9  422.56   22.90
   0   6  -9  437.16   27.90
   0  -6   9  428.36   26.90
   0  -6   9  394.66   29.90
   0  -6   9  386.96   25.10
   0  -6   9  392.56   24.80
   0  -6   9  393.06   25.80
  -1   6  -9  305.17   19.10
  -1   6  -9  301.67   18.00
  -1   6  -9  289.87   23.00
   1  -6   9  311.47   20.10
   1  -6   9  346.77   26.30
   1  -6   9  324.27   20.60
   1  -6   9  335.77   21.20
   1  -6   9  304.27   19.50
  -2   6  -9 1044.70   60.99
  -2   6  -9 1037.50   59.09
   2  -6   9 1066.69   67.79
   2  -6   9 1068.89   62.09
  -3   6  -9   59.19    5.30
   3  -6   9   67.39   11.30
   3  -6   9   63.59    7.70
  -4   6  -9  245.08   17.00
  -4   6  -9  246.88   15.40
   4  -6   9  235.38   17.60
   4  -6   9  224.98   21.10
   6   5  -9  131.89    9.50
   6   5  -9  120.39   13.90
   6   5  -9  140.59   13.40
  -6  -5   9  120.99   10.60
   5   5  -9  302.87   18.90
   5   5  -9  289.47   24.70
   5   5  -9  286.17   18.80
  -5  -5   9  298.07   20.70
   4   5  -9  438.06   29.30
   4   5  -9  463.05   25.30
   4   5  -9  444.56   25.50
   4   5  -9  400.86   31.50
  -4  -5   9  358.36   27.20
  -4  -5   9  377.56   27.30
   3   5  -9  553.34   31.70
   3   5  -9  534.45   35.80
   3   5  -9  538.95   32.00
   3   5  -9  578.34   38.30
  -3  -5   9  472.05   34.80
  -3  -5   9  578.94   35.00
   2   5  -9  674.73   43.80
   2   5  -9  682.33   38.20
   2   5  -9  646.84   42.70
  -2  -5   9  690.53   41.00
  -2  -5   9  628.84   43.20
  -2  -5   9  694.63   41.70
   1   5  -9 2882.71  158.38
   1   5  -9 3098.39  163.68
   1   5  -9 2898.21  163.78
   1   5  -9 2962.00  158.78
  -1  -5   9 2673.83  160.18
  -1  -5   9 2939.31  161.88
  -1  -5   9 2737.33  165.08
  -1  -5   9 2842.52  161.08
   0   5  -9 1870.61   99.89
   0  -5   9 1799.02  102.29
   0  -5   9 1668.13  101.19
   0  -5   9 1954.60  108.39
   0  -5   9 1896.51  103.39
   0  -5   9 1687.13  101.29
   1  -5   9  476.15   29.50
   1  -5   9  489.55   35.00
   1  -5   9  449.56   28.90
  -2   5  -9   33.20    3.90
  -2   5  -9   37.90    3.90
   2  -5   9   35.30    9.10
   2  -5   9   47.30    6.20
  -3   5  -9  617.14   34.90
   3  -5   9  592.64   37.40
   3  -5   9  562.94   42.10
  -4   5  -9  871.11   50.19
  -4   5  -9  826.72   51.29
   4  -5   9  906.31   52.49
   4  -5   9  850.91   56.99
   6   4  -9  126.49   14.70
   6   4  -9  159.38   10.50
  -6  -4   9  120.19   10.70
   5   4  -9  363.86   29.50
   5   4  -9  370.26   26.60
   5   4  -9  410.46   23.10
  -5  -4   9  344.77   24.50
  -5  -4   9  343.07   24.20
   4   4  -9  243.58   21.10
   4   4  -9  250.87   15.70
   4   4  -9  228.28   15.50
   4   4  -9  227.48   19.00
  -4  -4   9  247.98   17.80
  -4  -4   9  215.38   18.80
  -4  -4   9  248.28   18.00
  -4  -4   9  256.77   18.40
   3   4  -9  272.87   20.70
   3   4  -9  259.77   16.30
   3   4  -9  257.17   21.40
   3   4  -9  251.97   16.40
  -3  -4   9  268.97   19.10
  -3  -4   9  260.17   19.00
  -3  -4   9  259.17   21.10
   2   4  -9 1381.26   81.79
   2   4  -9 1458.45   86.99
   2   4  -9 1480.95   86.89
   2   4  -9 1476.35   81.79
  -2  -4   9 1533.55   84.39
  -2  -4   9 1472.45   84.79
  -2  -4   9 1479.25   88.19
   1   4  -9   75.39    5.50
   1   4  -9   85.99    8.70
   1   4  -9   79.09    5.60
  -1  -4   9   75.19    8.20
  -1  -4   9   79.59   11.30
  -1  -4   9   76.19    8.80
   0   4  -9  212.48   12.20
   0  -4   9  211.68   19.10
   0  -4   9  197.28   14.30
   0  -4   9  176.48   12.80
   0  -4   9  208.58   15.30
  -1   4  -9  664.03   39.20
  -1   4  -9  654.83   38.40
   1  -4   9  722.53   46.40
   1  -4   9  667.63   40.50
   1  -4   9  659.83   39.80
  -2   4  -9  361.26   20.50
  -2   4  -9  350.16   20.30
  -2   4  -9  353.16   21.50
  -2   4  -9  351.96   20.70
   2  -4   9  272.97   25.90
   2  -4   9  274.67   21.50
  -3   4  -9  785.02   49.60
  -3   4  -9  837.02   50.19
  -3   4  -9  824.52   48.20
   3  -4   9  833.02   55.79
   3  -4   9  862.01   50.39
  -4   4  -9  100.69   10.50
  -4   4  -9  115.39    9.40
   4  -4   9  117.79   14.40
   4  -4   9  126.39   11.50
   6   3  -9   58.69    5.60
   6   3  -9   60.79    6.10
   6   3  -9   41.50    8.70
  -6  -3   9   46.50    6.80
   5   3  -9  103.69    8.20
   5   3  -9   99.09    8.10
   5   3  -9  102.09   13.30
   5   3  -9  105.19   11.20
  -5  -3   9   77.79    8.90
  -5  -3   9   90.19   10.10
   4   3  -9  810.42   48.60
   4   3  -9  771.42   52.29
   4   3  -9  810.52   48.60
  -4  -3   9  850.71   53.49
  -4  -3   9  935.21   51.99
  -4  -3   9  903.11   50.99
   3   3  -9 1808.42  102.19
   3   3  -9 1716.23   95.69
   3   3  -9 1708.43   95.69
   3   3  -9 1674.33  100.09
  -3  -3   9 1667.73  101.09
  -3  -3   9 1739.03   98.49
  -3  -3   9 1680.43   97.99
   2   3  -9   36.40    3.70
   2   3  -9   36.10    6.40
   2   3  -9   38.60    3.90
   2   3  -9   36.70    7.20
  -2  -3   9   38.70    6.70
  -2  -3   9   31.30    8.40
   1   3  -9  203.18   13.50
   1   3  -9  206.48   16.10
  -1  -3   9  264.27   17.00
   0   3  -9 2871.81  162.08
   0   3  -9 3053.69  163.08
   0  -3   9 3020.70  164.48
   0  -3   9 2562.24  162.28
   0  -3   9 3195.98  169.88
  -1   3  -9 1859.01   98.39
  -1   3  -9 1625.54   98.29
  -1   3  -9 1834.72   98.69
  -1   3  -9 1855.91   98.09
  -1   3  -9 1667.03   97.99
   1  -3   9 1819.52  105.59
   1  -3   9 1631.84   98.69
  -2   3  -9   56.79    6.10
  -2   3  -9   61.79    5.80
  -2   3  -9   54.99    6.40
  -2   3  -9   61.89    6.00
  -2   3  -9   54.59    5.50
  -3   3  -9  385.16   25.10
  -3   3  -9  394.86   26.40
  -3   3  -9  379.66   24.40
  -3   3  -9  373.16   25.50
  -3   3  -9  358.76   23.90
   3  -3   9  405.76   31.00
   3  -3   9  413.36   26.20
  -4   3  -9  458.55   29.00
  -4   3  -9  450.45   30.80
   4  -3   9  455.45   34.50
   4  -3   9  502.25   30.80
   7   2  -9   12.10    3.70
  -7  -2   9   12.60    4.50
   6   2  -9  287.37   17.80
   6   2  -9  285.67   17.60
   6   2  -9  276.87   24.20
  -6  -2   9  231.68   20.10
  -6  -2   9  263.77   20.00
   5   2  -9  316.07   23.90
   5   2  -9  318.97   20.70
   5   2  -9  323.37   27.50
   5   2  -9  307.07   21.30
  -5  -2   9  357.96   21.80
  -5  -2   9  341.17   25.20
   4   2  -9  301.57   19.40
   4   2  -9  310.47   19.50
   4   2  -9  303.17   25.00
  -4  -2   9  309.07   24.40
  -4  -2   9  326.27   22.40
  -4  -2   9  308.57   21.10
   3   2  -9 4158.38  237.88
   3   2  -9 4316.07  239.68
   3   2  -9 4189.78  233.58
   3   2  -9 4162.88  233.38
  -3  -2   9 4179.18  235.48
  -3  -2   9 4406.56  239.68
   2   2  -9   91.39    6.60
   2   2  -9   90.09   11.60
   2   2  -9   95.89    7.00
   1   2  -9 1717.73   95.59
   1   2  -9 1702.73   92.29
   1   2  -9 1487.95   91.39
  -1  -2   9 1719.73   94.49
   0   2  -9  151.68   10.30
   0   2  -9  156.28   10.90
   0  -2   9  169.88   16.50
   0  -2   9  135.69   10.10
   0  -2   9  159.08   11.50
  -1   2  -9  503.85   33.30
  -1   2  -9  600.94   36.10
  -1   2  -9  582.94   33.40
  -1   2  -9  535.45   33.30
  -1   2  -9  569.64   33.30
   1  -2   9  591.84   39.80
   1  -2   9  578.74   35.10
   1  -2   9  546.55   33.60
  -2   2  -9  507.95   32.40
  -2   2  -9  546.55   31.10
  -2   2  -9  533.65   31.40
  -2   2  -9  514.15   31.80
  -2   2  -9  550.24   31.50
   2  -2   9  487.25   36.90
   2  -2   9  463.45   31.70
  -3   2  -9  378.76   24.30
  -3   2  -9  341.17   23.70
  -3   2  -9  348.07   25.00
  -3   2  -9  338.17   23.20
  -3   2  -9  375.96   26.10
   3  -2   9  433.66   30.90
   3  -2   9  439.96   26.00
  -4   2  -9  725.83   44.70
  -4   2  -9  746.93   42.80
  -4   2  -9  666.33   43.10
   4  -2   9  700.23   47.50
   4  -2   9  714.03   43.70
   7   1  -9   15.30    5.40
  -7  -1   9   15.90    5.00
   6   1  -9   87.79    7.60
   6   1  -9   80.59    7.20
   6   1  -9   72.89   11.70
  -6  -1   9   86.09   10.00
  -6  -1   9   91.49   11.20
   5   1  -9  153.38   21.40
   5   1  -9  179.38   13.70
   5   1  -9  185.58   15.40
   5   1  -9  197.88   13.50
   5   1  -9  162.88   21.40
  -5  -1   9  170.58   17.00
   4   1  -9  770.62   43.30
   4   1  -9  764.62   47.30
   4   1  -9  750.82   43.40
  -4  -1   9  730.63   46.00
  -4  -1   9  715.43   44.40
  -4  -1   9  737.73   48.40
   3   1  -9  268.77   21.30
   3   1  -9  287.87   18.20
   3   1  -9  292.97   23.20
   3   1  -9  269.97   17.70
  -3  -1   9  303.07   20.00
  -3  -1   9  293.07   20.70
  -3  -1   9  307.77   23.60
   2   1  -9  336.87   21.30
   2   1  -9  345.47   25.40
   2   1  -9  325.97   20.70
  -2  -1   9  391.66   27.30
  -2  -1   9  373.76   23.50
  -2  -1   9  349.96   23.70
   1   1  -9 1038.60   62.39
   1   1  -9  974.20   58.29
   1   1  -9 1090.59   59.49
   1   1  -9 1130.69   59.89
  -1  -1   9 1071.29   64.99
  -1  -1   9  986.60   59.99
   0   1  -9 1384.96   77.99
   0   1  -9 1415.46   78.29
   0  -1   9 1346.57   83.69
  -1   1  -9  605.64   36.00
  -1   1  -9  597.94   35.60
  -1   1  -9  544.75   35.50
  -1   1  -9  599.84   35.80
   1  -1   9  641.54   41.80
   1  -1   9  621.24   36.10
  -2   1  -9  740.43   42.50
  -2   1  -9  742.33   43.00
  -2   1  -9  703.03   44.90
  -2   1  -9  775.22   43.10
   2  -1   9  681.73   48.10
   2  -1   9  693.23   43.30
   2  -1   9  708.83   44.80
  -3   1  -9  277.37   19.80
  -3   1  -9  310.47   22.10
  -3   1  -9  299.37   20.30
  -3   1  -9  281.57   19.40
   3  -1   9  319.67   21.20
   3  -1   9  316.57   25.10
  -4   1  -9  290.47   19.40
  -4   1  -9  284.77   21.20
  -4   1  -9  247.38   21.10
   4  -1   9  308.97   25.00
   4  -1   9  292.07   20.20
   7   0  -9   34.00    7.20
  -7   0   9   22.70    6.10
  -7   0   9   27.30    5.90
   6   0  -9  600.34   37.70
   6   0  -9  653.33   46.10
   6   0  -9  650.33   38.30
  -6   0   9  659.83   41.20
  -6   0   9  653.73   43.00
   5   0  -9    6.20    5.30
   5   0  -9    6.90    3.50
   5   0  -9    9.60    3.10
  -5   0   9   10.50    6.00
  -5   0   9   14.00    5.30
   4   0  -9   43.90    8.80
   4   0  -9   38.10    4.90
   4   0  -9   40.40    7.60
   4   0  -9   46.40    5.10
  -4   0   9   44.00    9.30
  -4   0   9   38.70    7.30
   3   0  -9  342.77   24.60
   3   0  -9  341.77   21.50
   3   0  -9  341.67   21.10
   3   0  -9  344.87   26.80
  -3   0   9  354.16   23.90
  -3   0   9  361.76   26.60
   2   0  -9   44.20    4.70
   2   0  -9   41.60    7.00
   2   0  -9   43.70    4.70
   2   0  -9   39.60    3.80
  -2   0   9   36.30    4.90
  -2   0   9   32.70    6.30
  -2   0   9   35.90    8.50
   1   0  -9 1954.00  113.09
   1   0  -9 2166.08  118.39
   1   0  -9 2202.08  114.69
  -1   0   9 1871.11  113.09
   0   0  -9  365.16   21.60
   0   0  -9  362.46   21.80
   0   0  -9  371.96   21.40
   0   0   9  317.97   20.50
   0   0   9  325.47   22.70
   0   0   9  302.77   20.60
   0   0   9  334.27   26.10
  -1   0  -9  884.61   50.99
  -1   0  -9  901.61   50.99
  -1   0  -9  819.02   50.89
  -1   0  -9  881.51   50.59
   1   0   9  866.71   50.79
   1   0   9  877.01   52.79
   1   0   9  872.01   50.49
   1   0   9  868.11   55.99
  -2   0  -9  549.25   33.40
  -2   0  -9  544.45   32.90
  -2   0  -9  560.34   34.70
  -2   0  -9  576.94   33.60
  -2   0  -9  532.35   33.90
   2   0   9  513.85   37.60
   2   0   9  523.85   33.40
   2   0   9  519.35   32.90
  -3   0  -9  745.73   43.60
  -3   0  -9  747.83   45.40
  -3   0  -9  685.23   43.30
  -3   0  -9  705.53   42.90
   3   0   9  742.03   44.20
   3   0   9  765.72   46.00
   3   0   9  679.53   47.10
  -4   0  -9   27.00    6.50
  -4   0  -9   20.70    6.80
  -4   0  -9   27.50    4.60
  -4   0  -9   21.90    4.70
   6  -1  -9  169.48   12.40
   6  -1  -9  154.98   17.80
  -6   1   9  184.58   15.20
  -6   1   9  173.78   16.50
   5  -1  -9  546.95   34.80
   5  -1  -9  530.95   34.20
   5  -1  -9  516.85   31.50
   5  -1  -9  565.84   32.70
   5  -1  -9  477.85   39.30
  -5   1   9  591.14   35.70
   4  -1  -9  289.67   19.10
   4  -1  -9  282.87   21.00
   4  -1  -9  272.87   18.60
   4  -1  -9  303.07   25.70
   4  -1  -9  283.97   19.10
  -4   1   9  330.37   24.70
  -4   1   9  339.47   22.30
   3  -1  -9  686.13   44.30
   3  -1  -9  637.34   40.20
   3  -1  -9  642.94   37.50
   3  -1  -9  638.34   37.10
   3  -1  -9  638.44   37.10
  -3   1   9  571.84   37.60
  -3   1   9  624.14   39.60
  -3   1   9  636.64   42.20
   2  -1  -9 1075.29   61.39
   2  -1  -9 1044.00   60.59
   2  -1  -9 1104.09   67.09
   2  -1  -9  978.60   60.59
  -2   1   9 1173.48   66.79
   1  -1  -9 1589.34   86.39
   1  -1  -9 1529.75   85.89
   1  -1  -9 1554.04   90.49
   1  -1  -9 1523.85   86.19
  -1   1   9 1607.54   87.89
  -1   1   9 1304.67   84.69
  -1   1   9 1606.74   91.09
  -1   1   9 1487.45   85.39
   0  -1  -9 1482.45   80.19
   0  -1  -9 1479.95   79.79
   0  -1  -9 1499.15   80.19
   0   1   9 1403.86   81.69
   0   1   9 1263.97   78.99
   0   1   9 1399.76   84.69
   0   1   9 1315.77   79.29
  -1  -1  -9  743.43   46.50
  -1  -1  -9  768.82   46.30
  -1  -1  -9  717.43   46.60
   1   1   9  838.92   51.69
   1   1   9  895.21   49.50
   1   1   9  784.52   46.40
   1   1   9  792.22   46.40
  -2  -1  -9 1912.91  105.99
  -2  -1  -9 1916.11  107.29
  -2  -1  -9 1923.01  106.39
  -2  -1  -9 1796.92  106.89
  -2  -1  -9 1994.60  105.89
   2   1   9 1752.12  105.59
   2   1   9 1925.81  108.39
   2   1   9 1797.52  105.99
   2   1   9 1817.22  110.19
  -3  -1  -9  145.89   11.30
  -3  -1  -9  150.38   11.20
  -3  -1  -9  141.99   11.50
   3   1   9  125.89   10.80
   3   1   9  137.49   11.40
   3   1   9  124.69   12.60
   6  -2  -9  244.08   16.80
   6  -2  -9  250.07   18.00
  -6   2   9  243.38   20.70
  -6   2   9  270.17   19.50
   5  -2  -9  435.36   27.90
   5  -2  -9  446.96   35.20
   5  -2  -9  422.56   30.30
   5  -2  -9  446.06   27.10
  -5   2   9  419.46   29.20
   4  -2  -9  659.13   40.70
   4  -2  -9  686.83   39.90
   4  -2  -9  669.03   48.80
   4  -2  -9  678.83   49.00
   4  -2  -9  658.83   40.20
   4  -2  -9  672.63   42.90
   4  -2  -9  722.93   41.00
  -4   2   9  745.83   43.70
  -4   2   9  671.13   41.20
  -4   2   9  768.62   46.70
   3  -2  -9  557.44   32.60
   3  -2  -9  544.05   32.90
   3  -2  -9  535.65   32.20
   3  -2  -9  564.04   40.00
   3  -2  -9  531.65   32.80
   3  -2  -9  515.65   32.40
   3  -2  -9  513.45   38.90
  -3   2   9  536.95   33.70
  -3   2   9  569.54   35.00
  -3   2   9  597.84   38.00
   2  -2  -9  881.01   55.79
   2  -2  -9  819.72   49.00
   2  -2  -9  808.22   49.50
   2  -2  -9  825.32   49.40
  -2   2   9  817.42   48.60
  -2   2   9  926.71   54.59
  -2   2   9  887.21   51.09
   1  -2  -9  560.84   33.70
   1  -2  -9  576.44   33.70
   1  -2  -9  581.74   38.40
   1  -2  -9  598.04   33.40
  -1   2   9  527.35   37.50
  -1   2   9  513.65   33.70
  -1   2   9  548.05   35.20
   0  -2  -9  589.54   35.10
   0  -2  -9  612.44   34.90
   0  -2  -9  588.54   35.30
   0   2   9  538.05   34.60
   0   2   9  571.24   36.90
   0   2   9  583.14   39.30
  -1  -2  -9   56.29    6.30
  -1  -2  -9   51.99    6.20
  -1  -2  -9   47.60    5.60
  -1  -2  -9   52.39    6.70
  -1  -2  -9   51.39    6.50
   1   2   9   68.19    8.50
   1   2   9   61.39    6.40
   1   2   9   57.39    9.90
   1   2   9   59.59    6.30
  -2  -2  -9  313.97   21.90
  -2  -2  -9  319.47   21.30
  -2  -2  -9  320.17   20.80
  -2  -2  -9  309.67   20.60
   2   2   9  335.27   23.20
   2   2   9  296.67   20.60
   2   2   9  311.07   20.80
  -3  -2  -9  343.77   21.20
  -3  -2  -9  328.57   22.10
  -3  -2  -9  299.17   20.50
  -3  -2  -9  309.97   21.20
   3   2   9  327.57   21.20
   3   2   9  310.47   20.90
   6  -3  -9   87.19    8.20
   6  -3  -9   67.19   11.00
  -6   3   9   84.89   10.60
  -6   3   9   90.49    9.10
   5  -3  -9  217.98   15.10
   5  -3  -9  222.68   22.20
   5  -3  -9  221.98   15.80
  -5   3   9  199.28   18.80
  -5   3   9  210.88   16.80
   4  -3  -9   45.50    9.60
   4  -3  -9   45.90    5.80
   4  -3  -9   49.40    5.80
   4  -3  -9   46.50    7.00
  -4   3   9   59.79    7.50
  -4   3   9   60.49    9.90
  -4   3   9   52.99    6.50
   3  -3  -9 1071.49   61.19
   3  -3  -9  984.30   68.89
   3  -3  -9 1142.99   62.69
   3  -3  -9 1013.80   61.09
  -3   3   9 1140.59   66.79
  -3   3   9 1076.19   62.99
   2  -3  -9  189.98   19.20
   2  -3  -9  174.08   12.40
   2  -3  -9  161.58   12.20
  -2   3   9  157.98   18.50
  -2   3   9  173.88   12.10
   1  -3  -9  173.88   13.10
   1  -3  -9  176.68   13.30
   1  -3  -9  179.68   13.00
  -1   3   9  197.78   18.60
  -1   3   9  207.88   15.60
  -1   3   9  186.48   13.10
   0  -3  -9  275.47   17.60
   0  -3  -9  250.27   17.30
   0  -3  -9  258.97   17.90
   0  -3  -9  248.58   17.10
   0  -3  -9  237.78   17.30
   0   3   9  275.57   19.80
   0   3   9  277.97   20.90
   0   3   9  258.17   17.40
  -1  -3  -9  293.17   20.10
  -1  -3  -9  318.97   20.50
  -1  -3  -9  303.37   20.80
  -1  -3  -9  304.77   20.80
   1   3   9  347.57   23.10
   1   3   9  309.37   20.50
  -2  -3  -9  113.69   10.30
  -2  -3  -9  114.29    9.90
  -2  -3  -9  105.89   10.20
   2   3   9  136.89   12.10
   2   3   9  133.79   11.10
   2   3   9  142.09   13.50
   5  -4  -9  105.29    9.30
   5  -4  -9  107.09    9.10
   5  -4  -9   98.79   13.60
  -5   4   9  119.09   12.60
  -5   4   9  125.89   10.50
   4  -4  -9   74.59   11.70
   4  -4  -9   89.59    9.20
  -4   4   9   74.59    8.00
  -4   4   9   77.79   10.80
   3  -4  -9  195.78   20.50
   3  -4  -9  224.78   16.10
  -3   4   9  234.58   19.30
  -3   4   9  226.28   16.60
   2  -4  -9  130.69   10.40
   2  -4  -9  112.59   13.90
   2  -4  -9  131.09    9.10
   2  -4  -9  117.19    9.40
  -2   4   9  111.29   12.40
  -2   4   9  104.89    9.10
  -2   4   9  113.49   11.10
   1  -4  -9  185.18   12.90
   1  -4  -9  175.78   13.10
   1  -4  -9  191.28   13.50
  -1   4   9  186.68   16.10
  -1   4   9  187.78   15.00
  -1   4   9  166.18   12.70
   0  -4  -9   44.20    5.70
   0  -4  -9   45.10    5.50
   0  -4  -9   45.60    5.30
   0   4   9   50.99    7.40
   0   4   9   42.20    5.50
  -1  -4  -9  379.96   22.10
  -1  -4  -9  347.67   22.10
   1   4   9  330.27   21.20
   1   4   9  295.37   21.30
   4  -5  -9  114.59    9.90
  -4   5   9  129.39   12.40
   3  -5  -9   83.59    8.10
   3  -5  -9   77.49   11.00
  -3   5   9   80.99    8.60
   2  -5  -9  105.89   10.50
   1  -5  -9   26.80    4.40
   1  -5  -9   35.20    4.80
  -1   5   9   29.10    5.70
   0  -5  -9  216.38   14.70
   0  -5  -9  230.18   16.30
   0  -5  -9  225.18   15.10
   0   5   9  222.58   16.70
   3   8 -10   29.10    6.30
   3   8 -10   32.70    3.50
  -3  -8  10   38.90    6.90
  -3  -8  10   34.60    6.30
   2   8 -10  210.48   18.90
   2   8 -10  236.08   14.30
  -2  -8  10  243.18   17.50
  -2  -8  10  260.07   18.60
   1   8 -10  239.38   13.90
  -1  -8  10  236.28   17.50
  -1  -8  10  222.58   16.70
  -1  -8  10  214.38   16.00
   0  -8  10  495.85   32.00
   0  -8  10  485.75   31.20
   1  -8  10   18.60    5.60
   1  -8  10   21.60    4.80
   1  -8  10   12.90    4.90
   2  -8  10  184.48   16.50
   2  -8  10  177.98   13.30
   4   7 -10   39.90    4.50
   4   7 -10   42.40    4.50
   4   7 -10   39.80    4.50
   4   7 -10   31.20    7.20
  -4  -7  10   49.80    7.50
   3   7 -10  506.15   29.40
   3   7 -10  474.15   34.80
   3   7 -10  525.35   28.90
  -3  -7  10  469.25   31.50
  -3  -7  10  478.45   32.20
   2   7 -10  157.18   10.00
   2   7 -10  163.38   15.30
   2   7 -10  158.18   10.70
  -2  -7  10  146.69   13.10
  -2  -7  10  151.18   13.90
   1   7 -10  254.97   14.10
   1   7 -10  223.98   18.40
  -1  -7  10  210.18   18.40
  -1  -7  10  259.47   18.30
  -1  -7  10  243.58   17.40
  -1  -7  10  226.88   16.40
   0  -7  10  200.88   18.10
   0  -7  10  198.38   14.20
   0  -7  10  212.08   15.90
   0  -7  10  205.68   15.00
   1  -7  10   73.59   10.90
   1  -7  10   68.59    7.60
   1  -7  10   67.79    6.80
   2  -7  10  157.98   12.60
   2  -7  10  154.48   16.10
  -3   7 -10   18.00    3.30
   3  -7  10   13.30    6.30
   3  -7  10   10.70    3.50
   5   6 -10  314.17   26.40
   5   6 -10  367.86   21.10
   5   6 -10  341.77   21.20
  -5  -6  10  326.67   22.60
   4   6 -10  445.36   34.50
   4   6 -10  452.45   28.60
   4   6 -10  489.15   28.60
  -4  -6  10  486.75   31.50
  -4  -6  10  526.25   31.50
   3   6 -10  122.39    8.50
   3   6 -10  107.29   12.90
   3   6 -10  131.19   10.10
   3   6 -10  119.79   12.50
  -3  -6  10  111.19   11.60
  -3  -6  10  107.89   11.30
   2   6 -10  429.86   25.60
   2   6 -10  413.46   29.70
   2   6 -10  467.45   26.20
  -2  -6  10  441.36   29.00
  -2  -6  10  446.56   28.40
  -2  -6  10  382.66   29.50
   1   6 -10  854.71   46.10
   1   6 -10  805.42   51.09
   1   6 -10  833.42   50.79
  -1  -6  10  809.82   50.19
  -1  -6  10  790.52   52.89
   0   6 -10   79.59    5.40
   0   6 -10   77.39    6.70
   0   6 -10   72.79    9.30
   0  -6  10   92.19    8.60
   0  -6  10   95.19   16.20
  -1   6 -10  203.18   18.30
  -1   6 -10  237.28   13.90
  -1   6 -10  235.28   14.60
   1  -6  10  222.38   15.60
   1  -6  10  252.47   22.10
   1  -6  10  231.38   16.40
  -2   6 -10  559.74   34.70
  -2   6 -10  561.64   32.80
   2  -6  10  559.84   35.10
   2  -6  10  602.44   41.60
  -3   6 -10  241.08   15.40
   3  -6  10  211.78   19.40
   3  -6  10  265.07   22.60
   5   5 -10   73.59    6.70
   5   5 -10   80.69    6.80
   5   5 -10   69.89   10.70
  -5  -5  10   63.19    8.00
   4   5 -10   31.90    4.30
   4   5 -10   22.40    5.10
   4   5 -10   26.40    7.00
   4   5 -10   34.80    7.40
  -4  -5  10   43.50    7.10
   3   5 -10  943.91   57.29
   3   5 -10  870.11   50.49
   3   5 -10  888.91   55.39
  -3  -5  10  830.22   55.09
   2   5 -10 1481.15   85.19
   2   5 -10 1489.35   79.59
   2   5 -10 1459.95   85.19
   2   5 -10 1413.56   79.59
  -2  -5  10 1388.96   82.19
  -2  -5  10 1299.77   85.69
  -2  -5  10 1427.46   82.89
   1   5 -10  452.15   31.20
   1   5 -10  459.85   29.80
   1   5 -10  471.75   25.80
  -1  -5  10  421.96   28.30
  -1  -5  10  439.26   33.10
  -1  -5  10  422.46   29.00
   0   5 -10  668.43   40.20
   0   5 -10  634.64   38.90
   0  -5  10  761.82   48.20
   0  -5  10  703.73   42.20
  -1   5 -10 1654.73   91.29
  -1   5 -10 1664.03   90.39
  -1   5 -10 1721.13   90.99
   1  -5  10 1816.32  102.69
   1  -5  10 1454.45   92.09
   1  -5  10 1425.46   91.39
  -2   5 -10  190.18   12.60
  -2   5 -10  162.38   13.70
   2  -5  10  199.38   14.50
   2  -5  10  213.48   20.30
  -3   5 -10  159.48   11.30
  -3   5 -10  170.28   13.20
   3  -5  10  155.88   13.00
   3  -5  10  153.08   17.40
  -4   5 -10  422.26   24.80
  -4   5 -10  403.06   26.80
   4  -5  10  389.66   26.20
   4  -5  10  399.66   30.60
   6   4 -10  158.88   16.50
   6   4 -10  175.48   11.60
   6   4 -10  167.98   11.80
  -6  -4  10  149.09   15.00
   5   4 -10  228.18   21.10
   5   4 -10  212.58   14.80
   5   4 -10  223.28   15.00
  -5  -4  10  230.48   16.90
  -5  -4  10  214.48   16.50
  -5  -4  10  230.98   16.90
   4   4 -10  629.94   34.20
   4   4 -10  613.54   41.20
   4   4 -10  588.74   34.00
  -4  -4  10  519.65   35.90
  -4  -4  10  512.25   38.40
   3   4 -10 1096.79   68.39
   3   4 -10 1145.59   69.89
   3   4 -10 1135.59   63.39
   3   4 -10 1064.29   63.19
  -3  -4  10 1127.19   69.99
  -3  -4  10 1144.59   66.29
   2   4 -10 1385.86  103.19
   2   4 -10 1657.33   90.09
   2   4 -10 1705.13   90.29
   2   4 -10 1758.32   96.09
  -2  -4  10 1599.54   93.19
  -2  -4  10 1638.74   97.79
  -2  -4  10 1547.25   92.69
   1   4 -10 2240.58  126.39
  -1  -4  10 2379.56  134.89
  -1  -4  10 2234.48  129.39
   0   4 -10  710.63   44.30
   0   4 -10  730.73   45.30
   0  -4  10  822.22   47.20
   0  -4  10  875.31   53.59
  -1   4 -10  168.98   11.20
  -1   4 -10  156.88   11.20
  -1   4 -10  164.48   10.80
   1  -4  10  132.59   11.10
   1  -4  10  159.68   17.40
  -2   4 -10    9.90    4.00
  -2   4 -10   10.40    2.70
   2  -4  10   13.50    3.90
   2  -4  10   10.70    5.70
  -3   4 -10  849.41   47.50
  -3   4 -10  838.02   49.60
   3  -4  10  750.02   53.99
   3  -4  10  799.42   48.90
  -4   4 -10  545.55   32.50
  -4   4 -10  511.65   33.80
   4  -4  10  548.15   33.80
   4  -4  10  543.45   38.30
   6   3 -10   50.89    9.10
   6   3 -10   47.40    5.70
   6   3 -10   48.50    5.50
   5   3 -10  270.47   17.30
   5   3 -10  261.17   16.90
  -5  -3  10  260.07   19.40
  -5  -3  10  236.38   20.60
  -5  -3  10  254.47   18.10
   4   3 -10  460.45   32.70
   4   3 -10  443.36   26.00
   4   3 -10  440.86   30.30
  -4  -3  10  410.96   28.40
  -4  -3  10  400.96   27.70
  -4  -3  10  386.06   30.60
   3   3 -10 2468.85  137.69
   3   3 -10 2410.66  142.59
   3   3 -10 2440.76  143.79
  -3  -3  10 2512.75  144.49
  -3  -3  10 2548.45  140.29
   2   3 -10  982.80   61.39
   2   3 -10 1016.00   62.29
   2   3 -10  977.20   56.59
   2   3 -10 1030.00   57.09
  -2  -3  10 1046.20   64.49
  -2  -3  10  983.60   59.59
   1   3 -10  142.09   11.80
   1   3 -10  136.49    9.20
  -1  -3  10  125.39   15.40
  -1  -3  10  117.29   11.60
   0   3 -10  547.15   32.80
   0   3 -10  550.04   32.10
  -1   3 -10  523.95   30.70
  -1   3 -10  547.25   30.80
  -1   3 -10  511.15   31.00
   1  -3  10  447.36   30.60
   1  -3  10  532.15   38.20
  -2   3 -10  113.19    9.30
  -2   3 -10  127.19    9.40
   2  -3  10   89.79   11.80
   2  -3  10  107.09   14.50
  -3   3 -10  343.67   23.50
  -3   3 -10  386.66   26.10
  -3   3 -10  359.36   23.20
  -3   3 -10  384.26   24.20
   3  -3  10  390.16   30.40
   3  -3  10  413.06   25.60
  -4   3 -10    4.70    2.70
  -4   3 -10    2.60    3.30
   4  -3  10    5.20    3.30
   4  -3  10    7.40    5.40
   6   2 -10    0.70    2.00
   6   2 -10    2.60    2.00
   6   2 -10    1.10    3.60
  -6  -2  10    0.30    7.30
  -6  -2  10    9.20    4.30
   5   2 -10  437.16   26.40
   5   2 -10  435.96   31.40
   5   2 -10  407.76   33.10
  -5  -2  10  436.86   29.30
  -5  -2  10  423.36   27.20
  -5  -2  10  435.96   31.40
   4   2 -10  806.92   46.90
   4   2 -10  753.52   50.69
   4   2 -10  775.42   46.60
  -4  -2  10  841.82   52.99
  -4  -2  10  823.82   48.40
  -4  -2  10  838.82   49.99
   3   2 -10  292.97   18.70
   3   2 -10  287.47   23.60
   3   2 -10  279.47   18.20
  -3  -2  10  317.47   21.70
  -3  -2  10  311.07   20.90
   2   2 -10  702.63   43.10
   2   2 -10  739.83   43.80
   2   2 -10  748.23   48.30
  -2  -2  10  826.62   46.40
  -2  -2  10  794.72   50.79
   1   2 -10 1171.18   65.09
   1   2 -10 1181.28   64.59
   1   2 -10 1047.30   66.89
  -1  -2  10 1156.98   71.69
   0   2 -10 1050.89   59.09
   0  -2  10 1066.89   65.99
   0  -2  10  959.90   59.39
  -1   2 -10  177.08   13.00
  -1   2 -10  171.58   12.60
  -1   2 -10  172.38   12.70
   1  -2  10  190.68   18.90
   1  -2  10  183.58   12.70
  -2   2 -10   56.79    6.40
  -2   2 -10   65.39    6.80
  -2   2 -10   56.79    6.10
   2  -2  10   61.39   11.00
  -3   2 -10  193.08   14.20
  -3   2 -10  160.28   13.40
  -3   2 -10  171.48   13.10
   3  -2  10  215.48   15.20
   3  -2  10  214.88   19.50
  -4   2 -10  391.16   22.50
  -4   2 -10  383.26   24.20
   4  -2  10  282.67   22.00
   4  -2  10  297.67   25.00
   6   1 -10  414.46   31.90
   6   1 -10  403.46   24.30
   6   1 -10  405.56   24.50
  -6  -1  10  376.26   26.80
  -6  -1  10  360.46   28.10
   5   1 -10   19.40    6.90
   5   1 -10   23.10    4.10
   5   1 -10   21.70    4.20
   5   1 -10   16.80    6.80
   5   1 -10   21.10    7.20
  -5  -1  10   29.10    6.50
  -5  -1  10   25.70    7.80
   4   1 -10 1899.51  111.59
   4   1 -10 1856.31  103.59
   4   1 -10 1770.52  107.19
   4   1 -10 1784.92  103.19
  -4  -1  10 1860.01  109.59
  -4  -1  10 1875.71  106.49
   3   1 -10  126.09   13.80
   3   1 -10  130.59    9.50
   3   1 -10  122.09    8.90
  -3  -1  10  114.19   11.50
  -3  -1  10  117.29   14.40
   2   1 -10  979.50   56.39
   2   1 -10  938.31   60.49
   2   1 -10  894.41   55.19
   2   1 -10 1024.40   56.39
  -2  -1  10 1077.89   62.99
   1   1 -10  694.03   38.90
   1   1 -10  603.14   42.30
   1   1 -10  674.13   38.60
   0   1 -10  375.06   23.10
   0   1 -10  391.86   23.00
   0   1 -10  384.96   23.40
   0  -1  10  325.57   23.80
   0  -1  10  356.86   28.80
  -1   1 -10  594.34   40.50
  -1   1 -10  741.73   40.40
  -1   1 -10  721.33   40.40
  -1   1 -10  714.23   39.90
   1  -1  10  680.13   46.40
   1  -1  10  584.54   39.40
   1  -1  10  671.63   41.80
  -2   1 -10  634.34   39.70
  -2   1 -10  599.64   40.70
  -2   1 -10  624.84   40.10
  -2   1 -10  647.84   40.30
   2  -1  10  749.42   43.00
   2  -1  10  756.12   47.20
   2  -1  10  681.63   40.50
  -3   1 -10    4.50    3.70
  -3   1 -10    9.10    3.30
  -3   1 -10   15.00    3.80
  -3   1 -10    8.60    3.40
   3  -1  10   14.50    4.20
   3  -1  10   20.00    7.10
   6   0 -10  603.64   37.10
   6   0 -10  666.73   37.60
   6   0 -10  617.34   45.00
  -6   0  10  609.24   41.80
  -6   0  10  655.13   40.30
   5   0 -10   28.30    6.10
   5   0 -10   19.10    4.30
   5   0 -10   26.80    4.70
   5   0 -10   27.60    4.10
   5   0 -10   23.40    5.60
   5   0 -10   25.90    7.30
  -5   0  10   22.50    7.90
  -5   0  10   17.20    5.80
   4   0 -10 1414.16   93.99
   4   0 -10 1531.75   85.09
   4   0 -10 1503.25   88.59
   4   0 -10 1524.65   85.09
  -4   0  10 1559.54   97.89
   3   0 -10   10.30    2.50
   3   0 -10   13.90    4.90
   3   0 -10   11.10    3.10
   3   0 -10    7.10    2.40
   3   0 -10   15.10    6.90
  -3   0  10    7.80    4.20
  -3   0  10    3.60    5.30
   2   0 -10  261.27   21.50
   2   0 -10  270.07   17.40
   2   0 -10  278.67   17.50
   2   0 -10  255.37   16.30
  -2   0  10  249.68   17.50
  -2   0  10  291.77   23.10
   1   0 -10 2073.89  110.09
   1   0 -10 2063.29  109.69
   1   0 -10 2010.00  109.99
   1   0 -10 1959.60  113.29
  -1   0  10 1894.61  115.29
  -1   0  10 1784.52  110.39
  -1   0  10 1895.81  115.29
   0   0 -10  236.38   16.20
   0   0 -10  234.08   16.10
   0   0 -10  238.88   15.80
   0   0  10  222.88   14.70
   0   0  10  239.98   17.40
   0   0  10  205.38   14.80
   0   0  10  255.37   21.60
  -1   0 -10  547.95   32.10
   1   0  10  473.65   31.10
   1   0  10  518.25   33.60
   1   0  10  579.14   39.60
   1   0  10  469.65   30.70
  -2   0 -10  630.44   37.30
  -2   0 -10  558.14   38.20
  -2   0 -10  625.34   37.70
  -2   0 -10  600.54   37.70
  -2   0 -10  629.04   39.00
   2   0  10  629.64   42.60
   2   0  10  616.94   37.70
   2   0  10  658.33   39.90
  -3   0 -10  360.96   23.00
  -3   0 -10  329.57   23.20
  -3   0 -10  379.96   23.60
  -3   0 -10  389.16   25.20
   3   0  10  359.16   26.40
   3   0  10  348.27   24.50
   6  -1 -10   32.60   10.30
   6  -1 -10   45.00    6.00
  -6   1  10   35.70    9.80
  -6   1  10   32.90    7.60
   5  -1 -10   81.59    7.30
   5  -1 -10   92.19    7.90
   5  -1 -10   88.49    8.60
   5  -1 -10   90.39   13.20
  -5   1  10  100.19   12.60
  -5   1  10   89.29   10.20
   4  -1 -10  873.51   51.89
   4  -1 -10  858.21   52.59
   4  -1 -10  891.71   52.19
   4  -1 -10  902.51   60.49
   4  -1 -10  842.02   54.59
  -4   1  10 1002.10   58.79
  -4   1  10  951.10   55.29
   3  -1 -10  377.26   23.90
   3  -1 -10  382.86   23.60
   3  -1 -10  378.86   26.80
   3  -1 -10  373.46   23.80
   3  -1 -10  409.76   30.80
  -3   1  10  414.16   29.70
  -3   1  10  362.76   24.10
  -3   1  10  397.36   26.50
   2  -1 -10  546.75   31.90
   2  -1 -10  544.75   31.50
   2  -1 -10  576.64   32.20
   2  -1 -10  540.85   37.20
  -2   1  10  495.65   36.40
  -2   1  10  446.76   32.10
   1  -1 -10  290.67   19.70
   1  -1 -10  306.37   19.50
   1  -1 -10  286.47   22.80
   1  -1 -10  303.97   19.80
  -1   1  10  298.17   20.80
  -1   1  10  324.97   24.80
   0  -1 -10    8.30    5.40
   0  -1 -10    6.30    3.00
   0  -1 -10    2.80    2.30
   0   1  10    1.20    2.00
   0   1  10    5.70    5.10
   0   1  10    1.30    3.10
   0   1  10   -2.10    1.80
  -1  -1 -10 1086.89   60.59
  -1  -1 -10 1025.90   60.59
  -1  -1 -10 1092.49   60.29
   1   1  10 1020.90   65.09
   1   1  10  955.50   59.59
   1   1  10 1099.09   62.59
   1   1  10  988.30   59.79
  -2  -1 -10  741.83   45.40
  -2  -1 -10  787.62   45.40
  -2  -1 -10  742.63   45.80
   2   1  10  769.22   49.30
   2   1  10  727.73   45.00
   2   1  10  837.02   48.20
   2   1  10  757.72   45.50
  -3  -1 -10  230.58   15.30
  -3  -1 -10  221.98   15.10
  -3  -1 -10  228.18   16.70
   3   1  10  202.58   15.20
   3   1  10  208.38   16.60
   6  -2 -10   84.29   12.10
   5  -2 -10    8.30    6.80
   5  -2 -10    7.40    3.30
   5  -2 -10    5.40    2.70
  -5   2  10   15.60    6.50
  -5   2  10    9.50    4.20
   4  -2 -10  871.81   49.70
   4  -2 -10  837.12   48.20
   4  -2 -10  787.12   56.79
   4  -2 -10  787.12   51.49
   4  -2 -10  808.32   48.50
   4  -2 -10  813.12   49.00
   4  -2 -10  884.81   49.20
  -4   2  10  909.61   51.79
  -4   2  10  882.61   54.79
   3  -2 -10   98.09    7.80
   3  -2 -10  100.39   10.90
   3  -2 -10   97.39   12.90
   3  -2 -10  103.79    9.20
   3  -2 -10   86.59    7.80
   3  -2 -10   88.79    8.20
  -3   2  10   94.29   12.30
  -3   2  10   89.29    8.80
   2  -2 -10   37.20    4.80
   2  -2 -10   33.20    7.90
   2  -2 -10   41.00    5.10
   1  -2 -10  214.68   15.80
   1  -2 -10  224.78   15.80
   1  -2 -10  234.58   15.60
  -1   2  10  244.38   17.50
   0  -2 -10   49.10    5.70
   0  -2 -10   48.60    5.10
   0  -2 -10   52.39    5.80
   0  -2 -10   50.79    7.60
   0   2  10   38.70    4.70
   0   2  10   42.70    6.80
   0   2  10   39.10    5.20
   0   2  10   41.70    8.10
  -1  -2 -10  547.05   32.70
  -1  -2 -10  554.44   32.20
  -1  -2 -10  538.85   32.90
  -1  -2 -10  566.54   32.30
   1   2  10  468.65   31.40
   1   2  10  445.16   31.30
   1   2  10  524.95   35.60
   1   2  10  545.45   34.30
  -2  -2 -10  140.99   11.80
  -2  -2 -10  147.19   11.10
  -2  -2 -10  119.79   11.90
   2   2  10  147.39   12.40
   2   2  10  145.39   10.90
   5  -3 -10  134.69   10.50
   5  -3 -10  106.09   14.40
  -5   3  10  144.29   14.30
   4  -3 -10  123.19   12.40
   4  -3 -10  102.59   13.80
  -4   3  10  105.19   12.70
   3  -3 -10  222.78   14.30
   3  -3 -10  224.08   21.00
   3  -3 -10  209.78   14.70
  -3   3  10  221.08   19.50
   2  -3 -10  481.75   30.90
   2  -3 -10  470.25   36.20
   2  -3 -10  504.05   30.50
  -2   3  10  560.74   36.10
  -2   3  10  536.95   32.70
   1  -3 -10   99.09    8.30
   1  -3 -10   90.79    8.30
   1  -3 -10   83.09    8.20
   1  -3 -10   96.79    8.50
  -1   3  10  111.89   10.20
   0  -3 -10   11.60    3.60
   0  -3 -10   10.50    5.60
   0  -3 -10   15.50    3.40
   0  -3 -10   11.50    3.50
   0   3  10   14.50    3.40
   0   3  10   16.10    3.50
   0   3  10   12.80    5.50
   0   3  10   17.60    5.40
  -1  -3 -10   12.20    3.80
  -1  -3 -10   17.70    4.50
  -1  -3 -10   13.40    4.40
   1   3  10   24.10    6.80
   1   3  10   19.10    3.90
   4  -4 -10   98.59    8.50
  -4   4  10   80.29   10.30
   3  -4 -10  274.47   22.60
  -3   4  10  271.47   19.00
  -3   4  10  280.17   21.80
   2  -4 -10  332.97   21.70
   2  -4 -10  293.97   19.30
  -2   4  10  313.77   23.70
   1  -4 -10  172.48   12.60
   1  -4 -10  165.08   11.90
   1  -4 -10  180.28   15.10
  -1   4  10  176.48   14.50
   0  -4 -10  109.39    8.80
   0  -4 -10  112.59    8.60
   0   4  10  109.19   10.20
   2   8 -11   28.80    3.80
  -2  -8  11   28.10    6.20
  -2  -8  11   26.80    5.90
  -1  -8  11  561.84   34.90
  -1  -8  11  542.65   34.10
   0  -8  11  210.68   15.10
   0  -8  11  198.08   14.50
   1  -8  11  161.08   15.50
   4   7 -11  110.19    7.80
   4   7 -11   90.09   11.30
  -4  -7  11  113.89   10.50
   3   7 -11   88.39    7.30
   3   7 -11   74.49   10.40
  -3  -7  11   92.89    9.90
  -3  -7  11   86.39    9.70
   2   7 -11  873.71   46.70
   2   7 -11  785.52   51.79
  -2  -7  11  792.32   49.70
  -2  -7  11  851.11   50.49
   1   7 -11  665.43   33.00
  -1  -7  11  551.14   35.80
  -1  -7  11  583.74   36.80
  -1  -7  11  513.15   38.10
   0  -7  11  101.09   12.20
   0  -7  11   99.29    9.50
   1  -7  11  256.87   22.30
   2  -7  11  100.39   11.60
   2  -7  11  105.29   13.00
   4   6 -11  571.54   42.70
   4   6 -11  731.53   37.30
   4   6 -11  551.24   39.00
  -4  -6  11  676.33   39.90
   3   6 -11  307.97   20.50
   3   6 -11  349.27   20.60
   3   6 -11  318.57   25.70
  -3  -6  11  369.36   24.20
  -3  -6  11  345.37   23.60
   2   6 -11  293.47   22.10
   2   6 -11  266.77   21.40
   2   6 -11  299.17   16.70
  -2  -6  11  258.87   19.50
  -2  -6  11  238.58   21.50
  -2  -6  11  265.97   20.10
   1   6 -11  164.18   12.60
   1   6 -11  190.78   18.50
  -1  -6  11  166.68   13.70
  -1  -6  11  172.28   17.50
  -1  -6  11  172.38   14.50
   0   6 -11  212.68   17.70
   0   6 -11  220.18   12.80
   0   6 -11  228.58   16.20
   0  -6  11  188.88   19.40
   0  -6  11  181.48   15.30
  -1   6 -11  330.77   20.60
   1  -6  11  369.66   29.10
  -2   6 -11  245.08   17.50
   2  -6  11  224.48   16.80
   2  -6  11  253.87   22.70
  -3   6 -11  616.14   36.00
   3  -6  11  585.34   37.50
   3  -6  11  669.23   43.60
   5   5 -11  645.44   44.40
  -5  -5  11  616.14   38.70
   4   5 -11  179.88   18.70
   4   5 -11  206.48   13.80
   4   5 -11  226.98   14.10
  -4  -5  11  217.38   16.70
   3   5 -11  208.98   18.80
   3   5 -11  183.78   11.80
   3   5 -11  160.98   16.30
   3   5 -11  192.58   12.00
  -3  -5  11  154.98   14.50
  -3  -5  11  143.39   15.80
   2   5 -11  586.34   38.00
   2   5 -11  638.84   36.60
   2   5 -11  611.94   42.40
   2   5 -11  645.84   42.50
  -2  -5  11  703.53   40.50
  -2  -5  11  625.74   53.99
   1   5 -11  484.45   34.30
  -1  -5  11  490.35   31.90
   0   5 -11  110.89    7.80
   0   5 -11  110.19    8.50
   0  -5  11  104.09   14.40
   0  -5  11   91.09   10.00
  -1   5 -11  473.15   32.90
  -1   5 -11  506.85   29.70
  -1   5 -11  511.75   29.40
   1  -5  11  430.26   31.20
   1  -5  11  575.04   39.10
  -2   5 -11  591.14   34.60
  -2   5 -11  613.84   36.80
   2  -5  11  533.45   35.40
   2  -5  11  617.54   43.00
  -3   5 -11  427.66   26.80
  -3   5 -11  435.06   28.70
   3  -5  11  436.56   28.20
   3  -5  11  497.45   34.60
   5   4 -11  520.95   38.80
   5   4 -11  581.74   32.90
  -5  -4  11  542.15   34.10
   4   4 -11  275.77   21.90
   4   4 -11  291.17   17.60
   4   4 -11  268.87   23.00
   4   4 -11  261.47   17.30
  -4  -4  11  265.67   19.60
  -4  -4  11  248.58   22.00
   3   4 -11  599.54   39.70
   3   4 -11  616.74   34.30
   3   4 -11  582.74   34.00
  -3  -4  11  520.85   36.60
   2   4 -11  690.63   46.90
   2   4 -11  733.63   42.50
   2   4 -11  728.93   48.20
  -2  -4  11  751.12   45.60
  -2  -4  11  793.32   51.19
   1   4 -11  256.27   16.40
   1   4 -11  238.98   20.30
   1   4 -11  260.37   15.40
  -1  -4  11  217.58   17.70
  -1  -4  11  237.68   22.90
   0   4 -11  902.61   55.29
   0  -4  11 1023.50   64.89
  -1   4 -11  920.21   53.69
  -1   4 -11  918.91   53.59
  -1   4 -11  893.91   54.09
   1  -4  11 1002.80   62.89
  -2   4 -11  346.37   22.10
  -2   4 -11  342.27   21.60
  -2   4 -11  366.06   22.20
   2  -4  11  326.97   22.50
   2  -4  11  369.06   29.70
   3  -4  11   30.30   14.30
   3  -4  11   22.80    4.90
   6   3 -11  156.68   10.40
   6   3 -11  142.09   15.40
  -6  -3  11  117.99   11.50
   5   3 -11  325.47   19.60
   5   3 -11  307.27   25.80
  -5  -3  11  268.77   20.20
   4   3 -11   32.30    7.40
   4   3 -11   32.60    4.50
  -4  -3  11   43.40    6.90
  -4  -3  11   35.30    8.70
   3   3 -11   75.69    6.70
   3   3 -11   76.49   10.50
   3   3 -11   88.49    7.80
   3   3 -11   72.69   10.70
  -3  -3  11   99.49   10.10
  -3  -3  11  105.99   13.90
  -3  -3  11  105.49   13.80
   2   3 -11  387.46   28.30
   2   3 -11  344.97   23.20
   2   3 -11  404.06   24.10
   2   3 -11  384.96   29.10
  -2  -3  11  451.85   32.80
  -2  -3  11  418.96   26.90
   1   3 -11  272.77   19.10
   1   3 -11  267.47   18.50
  -1  -3  11  352.46   27.40
  -1  -3  11  314.27   21.40
   0   3 -11  165.88   11.60
   0   3 -11  163.48   12.10
   0  -3  11  161.58   18.30
  -1   3 -11  456.25   28.10
  -1   3 -11  451.85   28.20
  -1   3 -11  451.55   28.50
   1  -3  11  487.05   36.30
  -2   3 -11   98.69    8.70
  -2   3 -11   94.99    8.60
  -2   3 -11   93.69    8.20
   2  -3  11  107.39    9.00
   2  -3  11  119.99   14.80
  -3   3 -11  208.58   14.00
  -3   3 -11  158.08   16.70
  -3   3 -11  188.88   12.60
   3  -3  11  191.18   21.50
   3  -3  11  173.48   13.60
   6   2 -11   22.90    3.70
   6   2 -11   24.20    3.80
  -6  -2  11   24.90    6.90
  -6  -2  11   20.90    5.50
   5   2 -11  155.88   17.10
   5   2 -11  159.78   11.30
   5   2 -11  162.08   11.50
  -5  -2  11  134.59   14.90
  -5  -2  11  145.49   13.70
   4   2 -11  603.34   37.20
   4   2 -11  625.04   42.00
   4   2 -11  622.34   44.50
   4   2 -11  638.64   37.80
  -4  -2  11  692.03   44.50
   3   2 -11 1331.77   78.79
   3   2 -11 1429.76   79.59
   3   2 -11 1383.06   85.79
   3   2 -11 1402.36   84.59
  -3  -2  11 1409.76   86.69
  -3  -2  11 1468.05   81.79
   2   2 -11  741.63   49.99
   2   2 -11  733.33   45.20
   2   2 -11  840.52   46.00
   2   2 -11  820.42   46.40
  -2  -2  11  816.22   53.49
   1   2 -11    1.40    1.70
   1   2 -11    2.00    2.20
  -1  -2  11    4.40    6.50
   0   2 -11 1149.19   65.29
   0   2 -11 1122.79   65.69
   0   2 -11 1153.88   65.39
   0  -2  11 1130.59   72.89
  -1   2 -11  364.96   22.90
  -1   2 -11  353.26   23.20
  -1   2 -11  376.96   23.30
   1  -2  11  344.97   29.60
  -2   2 -11   94.59    8.70
  -2   2 -11   88.79    8.00
  -2   2 -11   99.19   10.10
  -2   2 -11   90.39    8.60
   2  -2  11   91.79    8.40
   2  -2  11   97.29   13.20
  -3   2 -11   -0.90    3.90
  -3   2 -11   -1.30    2.40
   3  -2  11    2.00    2.60
   3  -2  11    3.90    4.70
   6   1 -11    5.50    5.40
   6   1 -11    2.80    1.90
   6   1 -11   10.90    2.90
  -6  -1  11    6.00    4.90
  -6  -1  11    5.00    3.40
   5   1 -11  317.17   27.40
   5   1 -11  323.17   20.60
   5   1 -11  336.17   20.90
  -5  -1  11  319.97   26.00
  -5  -1  11  326.57   23.50
   4   1 -11  141.69   16.10
   4   1 -11  128.79   10.40
   4   1 -11  152.08   11.20
   4   1 -11  138.39   14.20
  -4  -1  11  171.38   17.10
  -4  -1  11  157.58   13.90
   3   1 -11  830.62   54.69
   3   1 -11  818.22   56.09
   3   1 -11  841.92   49.80
   3   1 -11  890.11   50.79
   3   1 -11  975.70   54.09
   2   1 -11 1632.94   87.29
   2   1 -11 1527.55   87.19
   2   1 -11 1452.85   91.59
   1   1 -11   48.90    5.70
   1   1 -11   48.20    5.80
   1   1 -11   51.29    5.70
  -1  -1  11   40.60   10.20
   0   1 -11   17.70    4.40
   0  -1  11   24.30    4.60
  -1   1 -11  104.79    9.00
  -1   1 -11  108.19    9.00
  -1   1 -11   96.69    9.10
   1  -1  11   90.89   13.20
   1  -1  11   95.89    9.80
  -2   1 -11  282.37   18.20
  -2   1 -11  267.97   19.40
  -2   1 -11  253.77   17.90
  -2   1 -11  267.77   17.60
   2  -1  11  217.88   21.60
  -3   1 -11   40.20    6.70
  -3   1 -11   34.90    5.40
  -3   1 -11   34.00    4.80
   3  -1  11   40.00    8.10
   3  -1  11   46.00    5.60
   6   0 -11   27.10    7.50
  -6   0  11   37.90    6.50
  -6   0  11   39.20    7.80
   5   0 -11  195.58   14.00
   5   0 -11  188.98   14.00
   5   0 -11  189.08   13.60
  -5   0  11  233.58   17.30
  -5   0  11  228.48   19.70
   4   0 -11  139.59   13.80
   4   0 -11  147.99   11.00
   4   0 -11  149.49   16.50
  -4   0  11  134.29   13.20
  -4   0  11  139.79   16.00
   3   0 -11 1478.25   90.69
   3   0 -11 1287.37   83.09
   3   0 -11 1418.66   87.39
   3   0 -11 1429.76   82.89
   3   0 -11 1553.04   83.99
   3   0 -11 1527.85   83.79
  -3   0  11 1628.14   90.79
   2   0 -11  116.09   12.70
   2   0 -11  123.59    9.70
   2   0 -11  106.49   11.80
   1   0 -11  168.28   15.90
   1   0 -11  173.78   13.00
  -1   0  11  181.48   21.70
   0   0 -11  102.19    9.00
   0   0 -11  104.39    9.00
   0   0 -11  108.99    8.80
   0   0  11   87.19   12.80
   0   0  11   82.99    9.10
  -1   0 -11  607.54   37.20
  -1   0 -11  645.34   37.20
  -1   0 -11  628.94   36.80
   1   0  11  611.84   40.40
   1   0  11  559.64   35.90
   1   0  11  600.84   42.30
  -2   0 -11  108.69    9.60
  -2   0 -11   96.59    9.40
  -2   0 -11  105.09    9.20
  -2   0 -11  103.39   10.50
   2   0  11  119.99   10.90
   2   0  11  112.59   11.30
   2   0  11  112.59   18.40
   5  -1 -11  934.41   54.49
   5  -1 -11  817.02   61.59
   5  -1 -11  810.02   61.49
   5  -1 -11  941.61   53.49
   5  -1 -11  999.90   54.69
  -5   1  11 1043.60   60.59
  -5   1  11 1046.00   57.39
   4  -1 -11  234.58   16.60
   4  -1 -11  262.87   23.70
   4  -1 -11  271.37   17.40
   4  -1 -11  263.37   17.20
   4  -1 -11  258.27   16.80
   4  -1 -11  241.98   16.30
  -4   1  11  250.37   19.20
  -4   1  11  251.57   22.20
   3  -1 -11  255.57   23.20
   3  -1 -11  276.77   18.20
   3  -1 -11  276.17   17.60
   3  -1 -11  275.07   18.50
   3  -1 -11  268.97   19.30
   3  -1 -11  259.77   21.90
  -3   1  11  275.17   23.20
   2  -1 -11   55.79    6.30
   2  -1 -11   52.69    8.60
   2  -1 -11   58.89    6.20
   2  -1 -11   57.39    6.50
  -2   1  11   60.59    6.70
  -2   1  11   72.49   11.20
   1  -1 -11  620.44   36.60
   1  -1 -11  646.54   37.20
   1  -1 -11  604.04   37.10
  -1   1  11  616.74   42.40
  -1   1  11  575.04   37.70
   0  -1 -11  419.86   25.80
   0  -1 -11  413.86   26.10
   0  -1 -11  414.56   26.30
   0   1  11  409.76   27.30
   0   1  11  395.96   30.50
  -1  -1 -11  582.34   35.90
  -1  -1 -11  593.14   35.40
  -1  -1 -11  603.44   35.70
  -1  -1 -11  567.04   36.30
   1   1  11  617.94   40.40
   1   1  11  505.15   35.10
   1   1  11  620.04   37.50
  -2  -1 -11  499.45   29.60
  -2  -1 -11  496.05   30.90
  -2  -1 -11  485.45   29.70
  -2  -1 -11  470.65   30.10
   2   1  11  453.55   29.10
   5  -2 -11  373.16   23.30
   5  -2 -11  306.47   28.40
  -5   2  11  391.06   27.90
  -5   2  11  390.86   25.00
   4  -2 -11  371.36   23.30
   4  -2 -11  335.17   28.90
  -4   2  11  360.86   27.60
   3  -2 -11   44.20    5.30
   3  -2 -11   43.20    5.70
   3  -2 -11   47.80    9.00
   3  -2 -11   54.99    5.30
   2  -2 -11  375.16   23.70
   2  -2 -11  370.56   23.60
   2  -2 -11  365.26   28.40
   2  -2 -11  377.86   23.30
  -2   2  11  369.86   24.30
   1  -2 -11  157.68   12.00
   1  -2 -11  164.08   11.90
   1  -2 -11  155.38   12.10
  -1   2  11  165.38   16.30
  -1   2  11  162.38   13.10
   0  -2 -11  426.56   31.80
   0  -2 -11  478.95   30.30
   0  -2 -11  547.05   30.20
   0  -2 -11  500.75   30.50
   0  -2 -11  509.85   30.10
   0   2  11  469.45   33.90
   0   2  11  474.75   31.40
  -1  -2 -11  346.47   23.10
  -1  -2 -11  365.86   23.30
  -1  -2 -11  356.56   23.70
  -1  -2 -11  359.06   23.80
   1   2  11  408.86   25.20
   4  -3 -11   99.99   12.90
  -4   3  11  125.39   12.90
   3  -3 -11   98.19   12.50
   3  -3 -11  113.79    8.20
  -3   3  11  107.49    9.60
   2  -3 -11   16.30    3.80
   2  -3 -11   12.00    4.90
   2  -3 -11   19.00    4.50
  -2   3  11   10.80    3.90
  -2   3  11    8.20    6.10
  -2   3  11    9.40    6.40
   1  -3 -11   84.49    7.20
   1  -3 -11   77.99    7.20
   1  -3 -11   67.89    7.50
  -1   3  11   96.69    8.80
   0  -3 -11  372.06   22.00
   0   3  11  325.97   23.20
   3   7 -12  330.27   19.00
   3   7 -12  285.67   23.30
  -3  -7  12  330.57   22.30
   2   7 -12  649.14   37.00
   1   7 -12  176.88   10.50
  -1  -7  12  182.48   14.70
  -1  -7  12  147.79   15.50
   0  -7  12  443.16   28.20
   0  -7  12  442.06   32.50
   1  -7  12   26.50    7.40
   4   6 -12  196.98   12.50
   4   6 -12  166.78   16.40
  -4  -6  12  196.68   15.10
   3   6 -12  632.54   43.60
   3   6 -12  683.53   37.40
  -3  -6  12  613.84   40.20
   2   6 -12  463.85   25.30
  -2  -6  12  398.76   31.40
  -2  -6  12  414.86   28.40
   1   6 -12   28.90    4.30
   1   6 -12   29.30    3.20
  -1  -6  12   36.50    6.60
  -1  -6  12   30.80    8.50
   0   6 -12  199.48   13.30
   0   6 -12  189.18   13.60
   0   6 -12  202.58   12.70
   0  -6  12  223.28   20.60
   0  -6  12  198.18   15.20
  -1   6 -12  107.09    7.60
  -2   6 -12 1324.67   76.59
   2  -6  12 1416.76   84.89
   4   5 -12  369.46   24.00
   4   5 -12  371.26   31.10
   4   5 -12  423.56   24.20
  -4  -5  12  408.06   26.30
   3   5 -12   10.60    5.10
   3   5 -12   14.10    3.10
  -3  -5  12   15.80    5.10
  -3  -5  12   19.10    6.80
   2   5 -12  354.86   28.80
   2   5 -12  338.07   20.70
  -2  -5  12  329.77   23.60
  -2  -5  12  338.77   28.10
   1   5 -12  217.28   14.10
   1   5 -12  210.58   19.60
   1   5 -12  207.18   15.00
  -1  -5  12  250.17   22.70
  -1  -5  12  231.38   17.20
   0   5 -12  383.66   23.60
   0   5 -12  363.36   24.30
   0   5 -12  388.16   24.00
   0  -5  12  439.96   33.10
  -1   5 -12  575.04   36.00
  -1   5 -12  602.14   35.70
  -1   5 -12  620.94   35.70
   1  -5  12  637.74   44.50
  -2   5 -12  228.38   17.10
  -2   5 -12  238.88   15.40
   2  -5  12  251.87   23.70
   5   4 -12   14.70    3.40
  -5  -4  12   15.60    4.40
   4   4 -12   76.89    6.70
   4   4 -12   54.09    9.30
   4   4 -12   63.39    6.20
  -4  -4  12   80.89    8.80
  -4  -4  12   70.69   10.50
   3   4 -12  181.48   12.50
   3   4 -12  173.38   17.30
  -3  -4  12  182.48   19.50
  -3  -4  12  187.68   15.10
   2   4 -12  227.38   14.10
   2   4 -12  204.78   18.70
   2   4 -12  211.48   19.70
  -2  -4  12  185.88   16.30
  -2  -4  12  221.68   21.50
   1   4 -12   16.50    3.20
   1   4 -12   14.00    3.60
  -1  -4  12   32.00   11.30
  -1  -4  12   26.90    6.20
   0   4 -12   60.39    5.90
   0   4 -12   61.19    6.30
   0   4 -12   68.19    7.30
   0  -4  12   77.59   12.70
  -1   4 -12  218.48   14.50
  -1   4 -12  210.88   14.30
  -1   4 -12  194.98   14.60
   1  -4  12  223.58   22.00
  -2   4 -12  216.78   14.80
  -2   4 -12  222.28   17.70
   2  -4  12  247.78   22.20
   5   3 -12  279.27   17.90
   5   3 -12  253.37   17.00
  -5  -3  12  250.67   21.50
   4   3 -12  104.99    8.10
   4   3 -12   88.69   12.30
   4   3 -12  118.59    8.80
  -4  -3  12  106.99   13.90
  -4  -3  12   93.09   10.10
   3   3 -12  235.98   15.50
   3   3 -12  210.18   19.60
   3   3 -12  206.18   19.60
  -3  -3  12  238.78   17.80
  -3  -3  12  265.77   23.40
   2   3 -12  356.06   28.70
   2   3 -12  374.56   24.40
   2   3 -12  391.36   24.00
  -2  -3  12  434.96   32.90
   1   3 -12 1178.08   68.99
   1   3 -12 1198.58   68.39
  -1  -3  12 1230.08   77.59
   0   3 -12  943.51   57.99
   0   3 -12  984.60   57.99
   0   3 -12 1016.00   60.59
   0  -3  12 1089.79   67.59
  -1   3 -12  232.78   16.50
  -1   3 -12  248.88   16.50
  -1   3 -12  226.18   16.10
   1  -3  12  259.57   23.80
  -2   3 -12    4.50    2.80
  -2   3 -12    6.50    2.90
  -2   3 -12    0.30    2.70
  -2   3 -12    5.80    2.80
   2  -3  12    5.50    5.40
   5   2 -12  113.09   13.70
   5   2 -12  100.89    9.80
   4   2 -12  192.98   19.50
   4   2 -12  238.18   15.10
   4   2 -12  210.58   14.10
   3   2 -12 1314.47   85.19
   3   2 -12 1516.85   81.39
   3   2 -12 1537.25   80.19
   3   2 -12 1243.48   80.09
   3   2 -12 1411.26   84.99
   2   2 -12  314.57   20.40
   2   2 -12  337.87   20.30
   2   2 -12  284.47   24.00
  -2  -2  12  294.57   26.80
   1   2 -12  380.96   23.40
   1   2 -12  360.66   23.60
   1   2 -12  374.56   23.40
  -1  -2  12  349.17   30.20
   0   2 -12  214.58   15.00
   0   2 -12  201.48   14.60
   0  -2  12  212.98   21.30
  -1   2 -12  311.07   20.10
  -1   2 -12  284.07   20.30
  -1   2 -12  314.07   20.40
   1  -2  12  316.87   26.80
  -2   2 -12   37.00    6.90
  -2   2 -12   40.50    5.10
  -2   2 -12   37.40    5.40
  -2   2 -12   42.60    8.10
   2  -2  12   40.90   11.10
   5   1 -12   98.69   11.40
   5   1 -12   96.99    8.30
   5   1 -12   93.89   15.80
   5   1 -12  105.49    8.70
  -5  -1  12  109.29   15.40
  -5  -1  12  106.49   10.80
   4   1 -12 1101.09   62.09
   4   1 -12 1212.38   63.09
   4   1 -12  948.11   68.49
   3   1 -12  175.18   17.40
   3   1 -12  187.58   14.30
   3   1 -12  195.48   17.20
   2   1 -12  317.47   26.90
   2   1 -12  327.67   20.70
   2   1 -12  290.97   23.40
  -2  -1  12  314.47   26.90
   1   1 -12  748.23   45.10
   1   1 -12  730.43   43.80
   1   1 -12  752.32   44.20
  -1  -1  12  736.23   51.09
   0   1 -12  499.85   29.80
   0   1 -12  458.25   29.60
   0   1 -12  491.45   29.40
   0  -1  12  444.96   35.50
  -1   1 -12  218.08   16.10
  -1   1 -12  233.98   16.20
  -1   1 -12  220.08   15.60
   1  -1  12  233.48   21.30
  -2   1 -12   53.99    5.80
  -2   1 -12   39.20    7.60
  -2   1 -12   50.89    7.10
  -2   1 -12   46.10    6.00
   2  -1  12   40.20    8.30
   5   0 -12   27.20    4.50
   5   0 -12   28.70    7.60
   4   0 -12  350.36   29.10
   4   0 -12  370.06   23.10
   4   0 -12  368.36   22.60
  -4   0  12  376.36   28.80
   3   0 -12  328.37   20.20
   3   0 -12  300.57   19.80
   3   0 -12  314.27   19.50
   3   0 -12  282.27   24.50
  -3   0  12  270.87   24.70
   2   0 -12  271.97   19.00
   2   0 -12  307.87   19.40
   2   0 -12  277.87   26.00
   2   0 -12  297.97   18.90
   2   0 -12  244.78   21.60
  -2   0  12  320.67   25.50
   1   0 -12   65.59    7.00
   1   0 -12   60.49    6.90
   1   0 -12   73.79    7.00
  -1   0  12   65.19   11.50
  -1   0  12   53.19   10.70
   0   0 -12   44.50    5.90
   0   0 -12   37.50    5.50
   0   0 -12   40.40    5.50
   0   0  12   35.00    5.70
   0   0  12   42.70    9.20
  -1   0 -12  132.99   10.60
  -1   0 -12  144.39   11.50
  -1   0 -12  124.39   10.90
  -1   0 -12  136.79   11.80
   1   0  12  132.99   15.50
   1   0  12  122.59   11.20
   5  -1 -12    4.00    5.20
  -5   1  12    8.20    5.40
   4  -1 -12  726.43   41.30
   4  -1 -12  723.83   42.10
   4  -1 -12  680.33   44.50
   4  -1 -12  666.63   41.60
   4  -1 -12  744.13   52.09
  -4   1  12  714.73   47.30
   3  -1 -12   32.40    5.10
   3  -1 -12   25.80    7.00
   3  -1 -12   37.00    5.00
   3  -1 -12   32.80    4.50
  -3   1  12   47.60    9.50
   2  -1 -12    5.00    2.60
   2  -1 -12    8.30    3.10
   2  -1 -12    7.70    2.90
  -2   1  12    7.80    5.60
   1  -1 -12  142.59   10.60
   1  -1 -12  138.89   10.30
   1  -1 -12  138.79   10.70
  -1   1  12  103.29   10.40
  -1   1  12  112.49   13.90
   0  -1 -12  574.94   35.20
   0  -1 -12  532.75   35.40
   0  -1 -12  598.14   39.10
   0   1  12  644.74   46.10
  -1  -1 -12  337.77   20.50
  -1  -1 -12  329.27   20.60
   1   1  12  291.67   24.10
   1   1  12  300.07   21.30
   3  -2 -12  125.39    9.00
   3  -2 -12  113.49   13.30
   2  -2 -12   97.09    7.60
   2  -2 -12   83.49    8.00
   2  -2 -12   84.79    8.00
  -2   2  12   94.39   12.00
   1  -2 -12  109.29    9.10
   1  -2 -12  110.19    9.10
   1  -2 -12  118.09    8.90
   1  -2 -12  100.89    9.20
   1  -2 -12  113.99    8.90
  -1   2  12  100.49    9.30
  -1   2  12  117.99   12.70
   0  -2 -12  334.97   20.60
   0  -2 -12  319.67   23.60
   0   2  12  310.57   25.90
   0   2  12  327.57   21.60
  -1  -7  13  230.58   16.70
   3   6 -13  161.48   10.80
  -3  -6  13  160.18   13.20
   2   6 -13  173.78   10.30
   2   6 -13  165.28   11.30
  -2  -6  13  131.19   14.20
  -2  -6  13  121.49   14.90
   1   6 -13  135.69   10.50
   0   6 -13  553.44   33.70
   0   6 -13  581.24   33.30
   0  -6  13  594.24   41.40
   4   5 -13  386.66   21.70
   4   5 -13  308.07   25.60
  -4  -5  13  350.96   23.20
   3   5 -13  595.64   34.20
  -3  -5  13  524.95   39.20
  -3  -5  13  586.74   36.10
   2   5 -13  377.26   25.30
   2   5 -13  393.96   24.60
  -2  -5  13  448.86   33.00
  -2  -5  13  429.86   27.50
   1   5 -13  500.05   32.30
  -1  -5  13  582.24   40.70
   0   5 -13  372.16   25.00
   0  -5  13  380.16   31.00
  -1   5 -13  308.37   20.30
  -1   5 -13  333.67   20.40
   1  -5  13  353.96   28.10
   4   4 -13  166.98   16.60
  -4  -4  13  186.28   17.20
   3   4 -13   53.19    5.30
   3   4 -13   40.30    7.80
  -3  -4  13   42.90    7.20
  -3  -4  13   37.50    9.20
   2   4 -13  106.49    9.00
   2   4 -13  107.29    8.50
  -2  -4  13  103.99   14.70
   1   4 -13  155.68   12.10
  -1  -4  13  173.48   19.10
   0   4 -13   58.49    5.90
   0   4 -13   61.39    6.00
   0   4 -13   54.29    6.40
   0  -4  13   57.79   11.60
  -1   4 -13  136.29   10.30
  -1   4 -13  127.79   10.00
   1  -4  13  151.18   18.80
   4   3 -13  360.46   22.10
   4   3 -13  328.87   22.20
  -4  -3  13  356.46   32.30
   3   3 -13  239.58   14.80
   3   3 -13  178.98   17.40
   3   3 -13  218.18   14.90
  -3  -3  13  202.58   20.80
   2   3 -13  191.28   13.80
   2   3 -13  189.58   14.10
  -2  -3  13  229.18   21.80
   1   3 -13   96.79    8.20
   1   3 -13   82.59    8.20
   1   3 -13   93.09    8.10
  -1  -3  13   99.49   14.70
   0   3 -13  241.18   16.20
   0   3 -13  247.28   16.30
   0   3 -13  237.38   16.60
   0  -3  13  222.98   22.70
  -1   3 -13  524.15   30.80
  -1   3 -13  468.95   34.40
  -1   3 -13  504.85   31.20
   1  -3  13  537.05   45.30
   5   2 -13  187.18   18.10
   5   2 -13  219.08   14.20
  -5  -2  13  210.28   18.50
   4   2 -13  110.99    9.10
   4   2 -13  109.89    9.90
  -4  -2  13  117.09   14.70
   3   2 -13   46.30    5.70
   3   2 -13   47.90    5.70
  -3  -2  13   57.29   11.40
   2   2 -13  323.47   22.30
  -2  -2  13  370.76   29.90
   1   2 -13   25.20    4.50
   1   2 -13   23.60    4.50
   1   2 -13   21.20    4.30
  -1  -2  13   11.60    7.60
   0   2 -13  167.78   12.70
   0   2 -13  164.48   12.50
   0   2 -13  172.58   12.40
   0  -2  13  166.38   18.20
  -1   2 -13  145.89   11.20
  -1   2 -13  143.59   11.40
  -1   2 -13  148.99   10.90
   1  -2  13  128.89   15.50
   4   1 -13  193.98   18.90
   4   1 -13  223.48   14.90
   3   1 -13  289.77   18.20
   3   1 -13  267.67   17.90
   3   1 -13  279.77   17.60
   3   1 -13  222.98   21.70
  -3  -1  13  258.57   23.40
   2   1 -13  324.87   20.40
   2   1 -13  313.47   20.70
   2   1 -13  310.27   20.60
  -2  -1  13  296.97   26.50
   1   1 -13   16.20    4.10
   1   1 -13   19.70    4.20
   1   1 -13   19.10    4.30
  -1  -1  13   20.50    7.10
   0   1 -13   58.69    6.50
   0   1 -13   53.29    6.80
   0   1 -13   61.69    6.50
   0  -1  13   69.69   11.20
  -1   1 -13  493.75   28.90
  -1   1 -13  447.76   28.30
  -1   1 -13  472.95   30.00
   1  -1  13  436.86   33.10
   4   0 -13   61.19    5.70
   4   0 -13   58.79    6.00
   4   0 -13   46.80    8.60
  -4   0  13   65.89   10.60
   3   0 -13   27.80    5.70
   3   0 -13   43.90    8.90
   3   0 -13   21.20    6.50
  -3   0  13   33.80    9.10
   2   0 -13 1004.90   55.89
   2   0 -13  992.10   56.39
   2   0 -13  917.01   56.19
  -2   0  13  940.81   62.09
   1   0 -13  253.07   19.00
   1   0 -13  278.67   18.00
   0   0 -13  141.09   11.90
   0   0 -13  147.19   11.40
   0   0 -13  159.88   11.70
   0   0  13  156.38   15.60
   3  -1 -13  270.87   18.10
   3  -1 -13  273.47   17.50
  -3   1  13  277.47   22.80
   2  -1 -13   11.40    3.00
   2  -1 -13   10.80    2.90
  -2   1  13    7.20    5.30
   1  -1 -13   15.50    3.50
   1  -1 -13   15.90    3.90
   1  -1 -13   18.10    3.90
  -1   1  13   19.10    6.40
   2   5 -14  209.08   13.30
  -2  -5  14  193.88   18.90
   1   5 -14  247.58   16.70
   1   5 -14  246.28   16.30
  -1  -5  14  292.47   24.20
   3   4 -14  155.28   11.20
  -3  -4  14  163.98   16.80
   2   4 -14  168.38   12.10
  -2  -4  14  156.88   17.70
   1   4 -14   70.79    7.30
   1   4 -14   81.99    6.90
   1   4 -14   69.69    6.90
  -1  -4  14   95.59   13.30
   0   4 -14  123.59    9.70
   0   4 -14  139.99   10.00
   0  -4  14  139.49   15.90
   3   3 -14   79.49    7.10
   3   3 -14   76.99    6.80
  -3  -3  14   57.29   10.40
   2   3 -14   73.39    7.50
   2   3 -14   76.29    7.10
   2   3 -14   60.69    6.70
  -2  -3  14   54.09   10.60
   1   3 -14  205.38   14.20
   1   3 -14  185.98   14.50
   1   3 -14  209.98   14.30
  -1  -3  14  223.98   21.40
   0   3 -14   84.99    7.50
   0   3 -14   91.19    7.70
   0  -3  14   83.19   12.30
   3   2 -14  151.78   11.30
   3   2 -14  137.29   12.30
   3   2 -14  155.68   11.70
  -3  -2  14  186.08   17.80
   2   2 -14  364.96   23.50
   2   2 -14  377.06   23.80
  -2  -2  14  381.76   30.10
   1   2 -14   99.69    9.10
   1   2 -14  114.29    9.10
   1   2 -14  106.59    8.80
  -1  -2  14   91.69   13.20
   3   1 -14  571.34   34.10
   3   1 -14  555.34   33.70
  -3  -1  14  566.94   39.80
   2   1 -14   32.20    4.70
   2   1 -14   35.00    5.10
  -2  -1  14   34.00    8.60
   1   1 -14   90.79    7.70
   1   1 -14   87.19    7.80
  -1  -1  14   75.19   11.40
   0   0   0    0.00    0.00

_computing_structure_solution     'SHELXT 2014/5 (Sheldrick, 2014)'
;
_shelx_hkl_checksum              92113
_olex2_submission_special_instructions 'No special instructions were received'
loop_
_space_group_symop_operation_xyz
'x, y, z'
loop_
_atom_site_label
_atom_site_type_symbol
_atom_site_fract_x
_atom_site_fract_y
_atom_site_fract_z
_atom_site_U_iso_or_equiv
_atom_site_adp_type
_atom_site_occupancy
_atom_site_site_symmetry_order
_atom_site_calc_flag
_atom_site_refinement_flags_posn
S1 S 0.11260(16) 1.01360(12) 0.47423(11) 0.0460(3) Uani 1 1 d .
S2 S 0.87944(10) 0.52591(8) 0.76233(7) 0.0248(2) Uani 1 1 d .
O1 O 0.8761(4) 0.6969(3) 0.8452(2) 0.0348(6) Uani 1 1 d .
O2 O 1.0818(4) 0.4750(4) 0.7439(3) 0.0359(6) Uani 1 1 d .
N1 N 0.1014(4) 0.4306(4) 0.2460(2) 0.0249(6) Uani 1 1 d .
N2 N 0.7306(4) 0.5136(4) 0.6272(2) 0.0235(5) Uani 1 1 d .
C1 C 0.4857(5) 0.6446(4) 0.5061(3) 0.0193(6) Uani 1 1 d .
H1 H 0.622482 0.719271 0.515249 0.023 Uiso 1 1 calc R
C2 C 0.4566(5) 0.4868(4) 0.3865(3) 0.0195(6) Uani 1 1 d .
C3 C 0.6337(5) 0.3679(4) 0.4011(3) 0.0235(6) Uani 1 1 d .
H3 H 0.765092 0.409766 0.380659 0.028 Uiso 1 1 calc R
C4 C 0.5217(6) 0.1934(4) 0.3071(3) 0.0289(7) Uani 1 1 d .
H4 H 0.595475 0.099318 0.275407 0.035 Uiso 1 1 calc R
C5 C 0.3079(6) 0.1867(4) 0.2736(3) 0.0291(7) Uani 1 1 d .
H5 H 0.210444 0.085318 0.218817 0.035 Uiso 1 1 calc R
C6 C 0.2380(5) 0.3598(4) 0.3333(3) 0.0232(6) Uani 1 1 d .
H6 H 0.169311 0.354989 0.399711 0.028 Uiso 1 1 calc R
C7 C 0.2422(5) 0.5240(4) 0.2066(3) 0.0247(6) Uani 1 1 d .
C8 C 0.1898(6) 0.5874(5) 0.1089(3) 0.0332(8) Uani 1 1 d .
H8 H 0.045701 0.565725 0.058124 0.040 Uiso 1 1 calc R
C9 C 0.3541(7) 0.6829(5) 0.0883(3) 0.0375(8) Uani 1 1 d .
H9 H 0.321525 0.728897 0.023091 0.045 Uiso 1 1 calc R
C10 C 0.5661(7) 0.7127(5) 0.1612(3) 0.0343(8) Uani 1 1 d .
H10 H 0.677055 0.776731 0.144530 0.041 Uiso 1 1 calc R
C11 C 0.6159(6) 0.6489(4) 0.2584(3) 0.0266(7) Uani 1 1 d .
H11 H 0.760327 0.669185 0.308501 0.032 Uiso 1 1 calc R
C12 C 0.4533(5) 0.5559(4) 0.2810(3) 0.0223(6) Uani 1 1 d .
C13 C -0.0836(6) 0.3125(5) 0.1531(3) 0.0353(8) Uani 1 1 d .
H13A H -0.173425 0.378923 0.110304 0.053 Uiso 1 1 calc GR
H13B H -0.169574 0.256786 0.192799 0.053 Uiso 1 1 calc GR
H13C H -0.032005 0.222570 0.093714 0.053 Uiso 1 1 calc GR
C14 C 0.6957(6) 0.3435(4) 0.5273(3) 0.0268(7) Uani 1 1 d .
H14A H 0.578640 0.264023 0.533240 0.032 Uiso 1 1 calc R
H14B H 0.829546 0.289383 0.536059 0.032 Uiso 1 1 calc R
C15 C 0.3135(5) 0.7626(4) 0.5045(3) 0.0204(6) Uani 1 1 d .
C16 C 0.3103(6) 0.8884(5) 0.4506(3) 0.0309(7) Uani 1 1 d .
H16 H 0.408189 0.904052 0.404770 0.037 Uiso 1 1 calc R
C17 C 0.0176(4) 0.9096(4) 0.5578(3) 0.0167(5) Uani 1 1 d .
H17 H -0.098368 0.937334 0.594047 0.020 Uiso 1 1 calc R
C18 C 0.1465(5) 0.7672(4) 0.5651(3) 0.0255(6) Uani 1 1 d .
H18 H 0.120425 0.687691 0.605679 0.031 Uiso 1 1 calc R
C19 C 0.5277(5) 0.5909(4) 0.6204(3) 0.0222(6) Uani 1 1 d .
H19A H 0.543372 0.694000 0.694954 0.027 Uiso 1 1 calc R
H19B H 0.406179 0.504215 0.613856 0.027 Uiso 1 1 calc R
C20 C 0.7521(5) 0.3681(4) 0.8066(3) 0.0233(6) Uani 1 1 d .
C21 C 0.5704(6) 0.4020(5) 0.8501(3) 0.0295(7) Uani 1 1 d .
H21 H 0.518108 0.510293 0.857512 0.035 Uiso 1 1 calc R
C22 C 0.4672(6) 0.2773(5) 0.8823(3) 0.0324(8) Uani 1 1 d .
H22 H 0.342491 0.299696 0.911295 0.039 Uiso 1 1 calc R
C23 C 0.5442(6) 0.1175(5) 0.8727(3) 0.0317(8) Uani 1 1 d .
C24 C 0.7246(6) 0.0863(5) 0.8291(3) 0.0328(8) Uani 1 1 d .
H24 H 0.777620 -0.021724 0.821849 0.039 Uiso 1 1 calc R
C25 C 0.8296(6) 0.2108(4) 0.7955(3) 0.0273(7) Uani 1 1 d .
H25 H 0.952986 0.188102 0.765314 0.033 Uiso 1 1 calc R
C26 C 0.4358(9) -0.0153(6) 0.9125(4) 0.0523(12) Uani 1 1 d .
H26A H 0.542037 -0.085572 0.939622 0.078 Uiso 1 1 calc GR
H26B H 0.318418 -0.091735 0.843355 0.078 Uiso 1 1 calc GR
H26C H 0.376444 0.044918 0.980601 0.078 Uiso 1 1 calc GR
loop_
_atom_site_aniso_label
_atom_site_aniso_U_11
_atom_site_aniso_U_22
_atom_site_aniso_U_33
_atom_site_aniso_U_23
_atom_site_aniso_U_13
_atom_site_aniso_U_12
S1 0.0485(6) 0.0341(5) 0.0630(7) 0.0223(5) 0.0187(5) 0.0159(4)
S2 0.0237(4) 0.0250(4) 0.0263(4) 0.0149(3) 0.0002(3) 0.0014(3)
O1 0.0428(14) 0.0241(12) 0.0299(13) 0.0116(10) -0.0058(10) -0.0015(10)
O2 0.0229(11) 0.0485(15) 0.0442(14) 0.0286(12) 0.0054(10) 0.0087(10)
N1 0.0230(13) 0.0301(14) 0.0189(12) 0.0079(11) 0.0018(10) 0.0016(11)
N2 0.0254(13) 0.0241(13) 0.0217(13) 0.0107(10) 0.0032(10) 0.0056(10)
C1 0.0218(13) 0.0189(14) 0.0180(13) 0.0080(11) 0.0047(10) 0.0030(11)
C2 0.0233(15) 0.0177(14) 0.0190(14) 0.0081(11) 0.0057(11) 0.0023(11)
C3 0.0293(16) 0.0223(15) 0.0223(14) 0.0101(12) 0.0092(12) 0.0083(12)
C4 0.045(2) 0.0202(15) 0.0259(16) 0.0104(13) 0.0136(14) 0.0105(14)
C5 0.0435(19) 0.0187(15) 0.0249(15) 0.0084(12) 0.0090(14) -0.0005(13)
C6 0.0280(15) 0.0231(15) 0.0198(14) 0.0106(12) 0.0056(12) -0.0005(12)
C7 0.0341(17) 0.0225(15) 0.0188(14) 0.0086(12) 0.0065(12) 0.0073(12)
C8 0.0431(19) 0.0362(18) 0.0194(15) 0.0116(13) 0.0023(14) 0.0120(15)
C9 0.063(2) 0.0332(18) 0.0253(16) 0.0194(14) 0.0126(16) 0.0151(16)
C10 0.056(2) 0.0260(17) 0.0280(18) 0.0127(14) 0.0204(16) 0.0049(15)
C11 0.0344(17) 0.0211(14) 0.0273(16) 0.0096(12) 0.0120(13) 0.0052(13)
C12 0.0333(16) 0.0197(14) 0.0198(14) 0.0109(12) 0.0111(12) 0.0084(12)
C13 0.0292(16) 0.042(2) 0.0240(16) 0.0033(14) 0.0005(13) -0.0025(15)
C14 0.0340(16) 0.0225(15) 0.0269(16) 0.0121(12) 0.0070(13) 0.0108(13)
C15 0.0237(14) 0.0174(13) 0.0194(13) 0.0065(10) 0.0048(11) 0.0019(11)
C16 0.0352(17) 0.0263(16) 0.0406(19) 0.0181(14) 0.0168(15) 0.0111(13)
C17 0.0118(12) 0.0164(13) 0.0189(13) 0.0018(10) 0.0056(10) -0.0029(10)
C18 0.0260(15) 0.0248(15) 0.0273(16) 0.0094(12) 0.0098(12) 0.0026(12)
C19 0.0231(14) 0.0228(14) 0.0221(14) 0.0115(12) 0.0034(11) 0.0047(11)
C20 0.0260(15) 0.0245(15) 0.0188(14) 0.0105(11) 0.0010(11) 0.0019(12)
C21 0.0302(16) 0.0321(18) 0.0305(16) 0.0161(14) 0.0072(13) 0.0102(14)
C22 0.0308(17) 0.039(2) 0.0298(18) 0.0166(15) 0.0077(14) 0.0015(15)
C23 0.0411(19) 0.0292(17) 0.0207(16) 0.0107(13) 0.0011(13) -0.0078(14)
C24 0.051(2) 0.0206(15) 0.0247(16) 0.0083(12) 0.0054(15) 0.0025(14)
C25 0.0349(17) 0.0232(15) 0.0222(15) 0.0068(12) 0.0058(13) 0.0047(13)
C26 0.073(3) 0.041(2) 0.043(2) 0.0204(19) 0.014(2) -0.013(2)
loop_
_atom_type_symbol
_atom_type_description
_atom_type_scat_dispersion_real
_atom_type_scat_dispersion_imag
_atom_type_scat_source
C C 0.0148 0.0070 'International Tables Vol C Tables 4.2.6.8 and 6.1.1.4'
H H 0.0000 0.0000 'International Tables Vol C Tables 4.2.6.8 and 6.1.1.4'
N N 0.0253 0.0136 'International Tables Vol C Tables 4.2.6.8 and 6.1.1.4'
O O 0.0412 0.0250 'International Tables Vol C Tables 4.2.6.8 and 6.1.1.4'
S S 0.2924 0.4247 'International Tables Vol C Tables 4.2.6.8 and 6.1.1.4'
loop_
_geom_angle_atom_site_label_1
_geom_angle_atom_site_label_2
_geom_angle_atom_site_label_3
_geom_angle
C17 S1 C16 95.09(16)
O1 S2 N2 106.57(14)
O1 S2 C20 109.03(15)
O2 S2 O1 119.54(16)
O2 S2 N2 105.89(15)
O2 S2 C20 108.08(16)
N2 S2 C20 107.08(14)
C7 N1 C6 106.8(2)
C7 N1 C13 117.8(3)
C13 N1 C6 117.4(3)
C14 N2 S2 116.8(2)
C14 N2 C19 110.3(2)
C19 N2 S2 118.3(2)
C2 C1 H1 105.2
C15 C1 H1 105.2
C15 C1 C2 116.0(2)
C15 C1 C19 111.7(2)
C19 C1 H1 105.2
C19 C1 C2 112.4(2)
C1 C2 C3 111.7(2)
C1 C2 C6 118.4(2)
C3 C2 C6 105.0(2)
C12 C2 C1 108.6(2)
C12 C2 C3 112.5(2)
C12 C2 C6 100.3(2)
C2 C3 H3 110.8
C4 C3 C2 102.0(3)
C4 C3 H3 110.8
C4 C3 C14 107.5(3)
C14 C3 C2 114.6(3)
C14 C3 H3 110.8
C3 C4 H4 123.9
C5 C4 C3 112.2(3)
C5 C4 H4 123.9
C4 C5 H5 124.0
C4 C5 C6 112.0(3)
C6 C5 H5 124.0
N1 C6 C2 104.8(2)
N1 C6 C5 114.6(3)
N1 C6 H6 111.5
C2 C6 H6 111.5
C5 C6 C2 102.3(3)
C5 C6 H6 111.5
C8 C7 N1 127.4(3)
C12 C7 N1 111.6(3)
C12 C7 C8 121.0(3)
C7 C8 H8 121.0
C9 C8 C7 118.0(3)
C9 C8 H8 121.0
C8 C9 H9 119.4
C8 C9 C10 121.3(3)
C10 C9 H9 119.4
C9 C10 H10 119.9
C11 C10 C9 120.1(3)
C11 C10 H10 119.9
C10 C11 H11 120.4
C12 C11 C10 119.2(3)
C12 C11 H11 120.4
C7 C12 C2 109.0(3)
C11 C12 C2 130.3(3)
C11 C12 C7 120.4(3)
N1 C13 H13A 109.5
N1 C13 H13B 109.5
N1 C13 H13C 109.5
H13A C13 H13B 109.5
H13A C13 H13C 109.5
H13B C13 H13C 109.5
N2 C14 C3 110.4(3)
N2 C14 H14A 109.6
N2 C14 H14B 109.6
C3 C14 H14A 109.6
C3 C14 H14B 109.6
H14A C14 H14B 108.1
C16 C15 C1 123.1(3)
C16 C15 C18 111.5(3)
C18 C15 C1 125.3(3)
S1 C16 H16 123.6
C15 C16 S1 112.8(3)
C15 C16 H16 123.6
S1 C17 H17 126.0
C18 C17 S1 108.0(2)
C18 C17 H17 126.0
C15 C18 C17 112.6(3)
C15 C18 H18 123.7
C17 C18 H18 123.7
N2 C19 C1 106.6(2)
N2 C19 H19A 110.4
N2 C19 H19B 110.4
C1 C19 H19A 110.4
C1 C19 H19B 110.4
H19A C19 H19B 108.6
C21 C20 S2 119.3(3)
C25 C20 S2 120.0(3)
C25 C20 C21 120.7(3)
C20 C21 H21 120.3
C22 C21 C20 119.5(3)
C22 C21 H21 120.3
C21 C22 H22 119.6
C21 C22 C23 120.7(3)
C23 C22 H22 119.6
C22 C23 C26 120.4(4)
C24 C23 C22 118.8(3)
C24 C23 C26 120.7(4)
C23 C24 H24 119.5
C23 C24 C25 121.0(3)
C25 C24 H24 119.5
C20 C25 C24 119.2(3)
C20 C25 H25 120.4
C24 C25 H25 120.4
C23 C26 H26A 109.5
C23 C26 H26B 109.5
C23 C26 H26C 109.5
H26A C26 H26B 109.5
H26A C26 H26C 109.5
H26B C26 H26C 109.5
loop_
_geom_bond_atom_site_label_1
_geom_bond_atom_site_label_2
_geom_bond_distance
S1 C16 1.698(3)
S1 C17 1.682(3)
S2 O1 1.436(3)
S2 O2 1.433(3)
S2 N2 1.635(3)
S2 C20 1.760(3)
N1 C6 1.482(4)
N1 C7 1.397(4)
N1 C13 1.458(4)
N2 C14 1.477(4)
N2 C19 1.480(4)
C1 H1 1.0000
C1 C2 1.551(4)
C1 C15 1.512(4)
C1 C19 1.527(4)
C2 C3 1.555(4)
C2 C6 1.558(4)
C2 C12 1.525(4)
C3 H3 1.0000
C3 C4 1.510(5)
C3 C14 1.540(4)
C4 H4 0.9500
C4 C5 1.330(5)
C5 H5 0.9500
C5 C6 1.515(4)
C6 H6 1.0000
C7 C8 1.396(5)
C7 C12 1.392(5)
C8 H8 0.9500
C8 C9 1.384(6)
C9 H9 0.9500
C9 C10 1.392(6)
C10 H10 0.9500
C10 C11 1.392(5)
C11 H11 0.9500
C11 C12 1.377(5)
C13 H13A 0.9800
C13 H13B 0.9800
C13 H13C 0.9800
C14 H14A 0.9900
C14 H14B 0.9900
C15 C16 1.369(5)
C15 C18 1.422(4)
C16 H16 0.9500
C17 H17 0.9500
C17 C18 1.480(4)
C18 H18 0.9500
C19 H19A 0.9900
C19 H19B 0.9900
C20 C21 1.393(5)
C20 C25 1.383(5)
C21 H21 0.9500
C21 C22 1.377(5)
C22 H22 0.9500
C22 C23 1.403(6)
C23 C24 1.384(6)
C23 C26 1.503(5)
C24 H24 0.9500
C24 C25 1.392(5)
C25 H25 0.9500
C26 H26A 0.9800
C26 H26B 0.9800
C26 H26C 0.9800
