#------------------------------------------------------------------------------
#$Date: 2019-04-12 01:01:06 +0300 (Fri, 12 Apr 2019) $
#$Revision: 214601 $
#$URL: file:///home/coder/svn-repositories/cod/cif/7/12/32/7123294.cif $
#------------------------------------------------------------------------------
#
# This file is available in the Crystallography Open Database (COD),
# http://www.crystallography.net/
#
# All data on this site have been placed in the public domain by the
# contributors.
#
data_7123294
loop_
_publ_author_name
'Sanchez, Monica Kiewit'
'Wu, Chang-hao'
'Adams, Michael W.'
'Dyer, Richard Brian'
_publ_section_title
;
 Optimizing Electron Transfer from CdSe QDs to Hydrogenase for
 Photocatalytic H2 Production
;
_journal_name_full               'Chemical Communications'
_journal_paper_doi               10.1039/C9CC01150A
_journal_year                    2019
_chemical_formula_moiety         '2(Br), C H4 O, C14 H16 N2'
_chemical_formula_sum            'C15 H20 Br2 N2 O'
_chemical_formula_weight         404.15
_space_group_crystal_system      triclinic
_space_group_IT_number           2
_space_group_name_Hall           '-P 1'
_space_group_name_H-M_alt        'P -1'
_symmetry_space_group_name_Hall  '-P 1'
_symmetry_space_group_name_H-M   'P -1'
_atom_sites_solution_hydrogens   mixed
_atom_sites_solution_primary     dual
_audit_creation_date             2019-02-08
_audit_creation_method
;
Olex2 1.2-alpha
(compiled 2018.07.26 svn.r3523 for OlexSys, GUI svn.r5532)
;
_audit_update_record
;
2019-02-08 deposited with the CCDC.    2019-04-10 downloaded from the CCDC.
;
_cell_angle_alpha                104.745(2)
_cell_angle_beta                 96.597(2)
_cell_angle_gamma                103.047(3)
_cell_formula_units_Z            2
_cell_length_a                   7.3138(2)
_cell_length_b                   10.0105(3)
_cell_length_c                   12.1578(2)
_cell_measurement_reflns_used    8364
_cell_measurement_temperature    100.00(10)
_cell_measurement_theta_max      76.8750
_cell_measurement_theta_min      3.8070
_cell_volume                     824.44(4)
_computing_cell_refinement       'CrysAlisPro 1.171.40.37a (Rigaku OD, 2019)'
_computing_data_collection       'CrysAlisPro 1.171.40.37a (Rigaku OD, 2019)'
_computing_data_reduction        'CrysAlisPro 1.171.40.37a (Rigaku OD, 2019)'
_computing_molecular_graphics    'Olex2 (Dolomanov et al., 2009)'
_computing_publication_material  'Olex2 (Dolomanov et al., 2009)'
_computing_structure_refinement  'ShelXL (Sheldrick, 2015)'
_computing_structure_solution    'ShelXT (Sheldrick, 2015)'
_diffrn_ambient_environment      N~2~
_diffrn_ambient_temperature      100.00(10)
_diffrn_detector                 'CCD plate'
_diffrn_detector_area_resol_mean 10.0000
_diffrn_detector_type            HyPix
_diffrn_measured_fraction_theta_full 0.997
_diffrn_measured_fraction_theta_max 0.953
_diffrn_measurement_details
;
List of Runs (angles in degrees, time in seconds):

  # Type    Start    End  Width  t~exp~   \w     \q     \k     \f   Frames
#--------------------------------------------------------------------------
  1  \w     82.00 119.00   0.50    1.00    --  105.75-125.00-120.00   74
  2  \w     86.00 117.00   0.50    1.00    --  105.75-125.00  90.00   62
  3  \w     62.00 106.00   0.50    1.00    --  105.75-125.00  60.00   88
  4  \w     35.00  73.00   0.50    1.00    --  105.75-125.00  90.00   76
  5  \w     39.00  74.00   0.50    1.00    --  105.75-125.00-120.00   70
  6  \w   -104.00 -70.00   0.50    0.25    --  -49.66-125.00 -60.00   68
  7  \w   -120.00 -73.00   0.50    0.25    --  -49.66-125.00  60.00   94
  8  \w     81.00 107.00   0.50    1.00    --  105.75 -95.00 -60.00   52
  9  \w     65.00 108.00   0.50    1.00    --  105.75 -95.00 150.00   86
 10  \w     35.00  61.00   0.50    1.00    --  105.75 -95.00 -60.00   52
 11  \w     38.00  76.00   0.50    1.00    --  105.75 -77.00  60.00   76
 12  \w     69.00 100.00   0.50    1.00    --  105.75 -77.00 120.00   62
 13  \w     38.00  88.00   0.50    1.00    --  105.75 -77.00  90.00  100
 14  \w     35.00  62.00   0.50    1.00    --  105.75 -77.00 120.00   54
 15  \w     52.00  77.00   0.50    1.00    --  105.75 -45.00 -60.00   50
 16  \w     34.00  83.00   0.50    1.00    --  105.75 -45.00 -30.00   98
 17  \w     34.00  84.00   0.50    1.00    --  105.75 -45.00-180.00  100
 18  \w     37.00  64.00   0.50    1.00    --  105.75 -28.00  98.00   54
 19  \w     11.00  37.00   0.50    0.25    --   49.66 -28.00  98.00   52
 20  \w   -111.00 -45.00   0.50    0.25    --  -49.66 -28.00  98.00  132
 21  \w   -158.00 -81.00   0.50    1.00    --  -84.25 -28.00  98.00  154
 22  \w    -20.00  54.00   0.50    0.25    --   49.66 -19.00 -60.00  148
 23  \w     98.00 178.00   0.50    1.00    --  105.75  28.00 -99.00  160
 24  \w     68.00 118.00   0.50    0.25    --   49.66  28.00 -99.00  100
 25  \w    -10.00  19.00   0.50    0.25    --  -49.66  28.00 -99.00   58
 26  \w    -56.00 -15.00   0.50    0.25    --  -49.66  28.00 -99.00   82
 27  \w    -70.00 -37.00   0.50    1.00    --  -84.25  28.00 -99.00   66
 28  \w    102.00 176.00   0.50    1.00    --  105.75  30.00 -30.00  148
 29  \w     99.00 176.00   0.50    1.00    --  105.75  30.00   0.00  154
 30  \w    137.00 175.00   0.50    1.00    --  105.75 125.00  60.00   76
 31  \w    150.00 175.00   0.50    1.00    --  105.75 125.00  30.00   50
 32  \w    106.00 139.00   0.50    1.00    --  105.75 125.00  30.00   66
 33  \w     94.00 126.00   0.50    1.00    --  105.75 125.00  60.00   64
 34  \w    -58.00 -25.00   0.50    1.00    --  -84.25 125.00   0.00   66
 35  \w    -91.00 -35.00   0.50    1.00    --  -84.25 125.00 -90.00  112
 36  \w    -91.00 -64.00   0.50    1.00    --  -84.25 125.00   0.00   54
;
_diffrn_measurement_device       'four-circle diffractometer'
_diffrn_measurement_device_type  'XtaLAB Synergy, Dualflex, HyPix'
_diffrn_measurement_method       '\w scans'
_diffrn_orient_matrix_type
'CrysAlisPro convention (1999,Acta A55,543-557)'
_diffrn_orient_matrix_UB_11      0.1684762000
_diffrn_orient_matrix_UB_12      -0.0470997000
_diffrn_orient_matrix_UB_13      -0.0483181000
_diffrn_orient_matrix_UB_21      -0.0904463000
_diffrn_orient_matrix_UB_22      -0.1547328000
_diffrn_orient_matrix_UB_23      -0.0000758000
_diffrn_orient_matrix_UB_31      -0.1086510000
_diffrn_orient_matrix_UB_32      -0.0329092000
_diffrn_orient_matrix_UB_33      -0.1242112000
_diffrn_radiation_monochromator  mirror
_diffrn_radiation_probe          x-ray
_diffrn_radiation_type           CuK\a
_diffrn_radiation_wavelength     1.54184
_diffrn_reflns_av_R_equivalents  0.0273
_diffrn_reflns_av_unetI/netI     0.0240
_diffrn_reflns_Laue_measured_fraction_full 0.997
_diffrn_reflns_Laue_measured_fraction_max 0.953
_diffrn_reflns_limit_h_max       8
_diffrn_reflns_limit_h_min       -9
_diffrn_reflns_limit_k_max       12
_diffrn_reflns_limit_k_min       -12
_diffrn_reflns_limit_l_max       13
_diffrn_reflns_limit_l_min       -15
_diffrn_reflns_number            9300
_diffrn_reflns_point_group_measured_fraction_full 0.997
_diffrn_reflns_point_group_measured_fraction_max 0.953
_diffrn_reflns_theta_full        67.684
_diffrn_reflns_theta_max         77.039
_diffrn_reflns_theta_min         3.824
_diffrn_source                   'micro-focus sealed X-ray tube'
_diffrn_source_type              'PhotonJet (Cu) X-ray Source'
_exptl_absorpt_coefficient_mu    6.213
_exptl_absorpt_correction_T_max  0.584
_exptl_absorpt_correction_T_min  0.350
_exptl_absorpt_correction_type   gaussian
_exptl_absorpt_process_details
;
CrysAlisPro 1.171.40.37a (Rigaku Oxford Diffraction, 2019)
Numerical absorption correction based on gaussian integration over
            a multifaceted crystal model
Empirical absorption correction using spherical harmonics,
 implemented in SCALE3 ABSPACK scaling algorithm.
;
_exptl_crystal_colour            colourless
_exptl_crystal_colour_primary    colourless
_exptl_crystal_density_diffrn    1.628
_exptl_crystal_description       block
_exptl_crystal_F_000             404
_exptl_crystal_recrystallization_method
'The material was recrystallised from --- by as supplied'
_exptl_crystal_size_max          0.26
_exptl_crystal_size_mid          0.221
_exptl_crystal_size_min          0.183
_refine_diff_density_max         0.524
_refine_diff_density_min         -0.565
_refine_diff_density_rms         0.106
_refine_ls_extinction_coef       0.0033(3)
_refine_ls_extinction_expression Fc^*^=kFc[1+0.001xFc^2^\l^3^/sin(2\q)]^-1/4^
_refine_ls_extinction_method     'SHELXL-2018/3 (Sheldrick 2018)'
_refine_ls_goodness_of_fit_ref   1.116
_refine_ls_hydrogen_treatment    mixed
_refine_ls_matrix_type           full
_refine_ls_number_parameters     188
_refine_ls_number_reflns         3321
_refine_ls_number_restraints     1
_refine_ls_restrained_S_all      1.116
_refine_ls_R_factor_all          0.0313
_refine_ls_R_factor_gt           0.0286
_refine_ls_shift/su_max          0.001
_refine_ls_shift/su_mean         0.000
_refine_ls_structure_factor_coef Fsqd
_refine_ls_weighting_details
'w=1/[\s^2^(Fo^2^)+(0.0453P)^2^+0.7799P] where P=(Fo^2^+2Fc^2^)/3'
_refine_ls_weighting_scheme      calc
_refine_ls_wR_factor_gt          0.0787
_refine_ls_wR_factor_ref         0.0800
_reflns_Friedel_coverage         0.000
_reflns_number_gt                3210
_reflns_number_total             3321
_reflns_threshold_expression     'I > 2\s(I)'
_cod_data_source_file            c9cc01150a2.cif
_cod_data_source_block           dq52
_cod_database_code               7123294
_shelx_shelxl_version_number     2018/3
_chemical_oxdiff_formula         'C30  H40  Br4  N4  O2  '
_shelx_space_group_comment
;
The symmetry employed for this shelxl refinement is uniquely defined
by the following loop, which should always be used as a source of
symmetry information in preference to the above space-group names.
They are only intended as comments.
;
_shelx_estimated_absorpt_t_max   0.396
_shelx_estimated_absorpt_t_min   0.295
_reflns_odcompleteness_completeness 99.93
_reflns_odcompleteness_iscentric 1
_reflns_odcompleteness_theta     68.13
_olex2_refinement_description
;
1. Fixed Uiso
 At 1.2 times of:
  All C(H) groups, All C(H,H) groups
 At 1.5 times of:
  All C(H,H,H) groups, All C(H,H,H,H) groups
2. Restrained distances
 O1-H1
 0.955 with sigma of 0.005
3.a Secondary CH2 refined with riding coordinates:
 C4(H4A,H4B), C3(H3A,H3B)
3.b Aromatic/amide H refined with riding coordinates:
 C9(H9), C8(H8), C7(H7), C10(H10), C5(H5), C12(H12)
3.c Idealised Me refined as rotating group:
 C14(H14A,H14B,H14C), C13(H13A,H13B,H13C), C16(H16A,H16B,H16C)
;
_shelx_res_file
;
TITL DQ52 in P-1
    dq52.res
    created by SHELXL-2018/3 at 14:27:25 on 08-Feb-2019
REM P-1 (#2 in standard setting)
CELL 1.54184 7.313772 10.010458 12.157772 104.745 96.5968 103.0471
ZERR 2 0.000212 0.000279 0.000246 0.0021 0.0021 0.0025
LATT 1
SFAC C H Br N O
UNIT 30 40 4 4 2
EQIV $1 -X,-Y,1-Z
EQIV $2 +X,-1+Y,+Z
DFIX 0.955 0.005 O1 H1

L.S. 4
PLAN  7
SIZE 0.183 0.221 0.26
HTAB C9 Br2
HTAB C8 Br2
HTAB C4 Br1_$1
HTAB C5 Br2_$2
BOND $H
CONF
LIST 6
fmap 2
acta
OMIT -4 5 10
OMIT -8 6 0
OMIT -8 1 1
OMIT 2 -8 12
OMIT -8 2 0
OMIT 1 10 1
OMIT 5 -6 8
OMIT -7 -5 4
REM <olex2.extras>
REM <HklSrc "%.\\DQ52.hkl">
REM </olex2.extras>

WGHT    0.045300    0.779900
EXTI    0.003303
FVAR       4.41744
BR1   3   -0.100098    0.228628    0.643648    11.00000    0.01681    0.01910 =
         0.02444    0.00793    0.00361    0.00509
BR2   3    0.518162    0.855548    0.778167    11.00000    0.02311    0.01452 =
         0.02343    0.00696    0.00494    0.00605
O1    5    0.142846    0.233254    0.886948    11.00000    0.03205    0.02883 =
         0.02318    0.00263   -0.00154    0.00427
N2    4    0.307169    0.248408    0.510055    11.00000    0.01450    0.01578 =
         0.01603    0.00307    0.00233    0.00508
N1    4    0.459996    0.245569    0.732570    11.00000    0.01471    0.01441 =
         0.01641    0.00426    0.00277    0.00495
C9    1    0.305525    0.490450    0.580547    11.00000    0.01483    0.01574 =
         0.01802    0.00574    0.00339    0.00471
AFIX  43
H9    2    0.339050    0.576414    0.639514    11.00000   -1.20000
AFIX   0
C6    1    0.655526    0.362618    0.917319    11.00000    0.01815    0.02374 =
         0.01637    0.00608    0.00473    0.00902
C8    1    0.554471    0.498520    0.795257    11.00000    0.01933    0.01547 =
         0.01824    0.00434    0.00320    0.00521
AFIX  43
H8    2    0.553774    0.586309    0.782795    11.00000   -1.20000
AFIX   0
C1    1    0.458879    0.372493    0.710848    11.00000    0.01392    0.01552 =
         0.01645    0.00589    0.00401    0.00563
C7    1    0.651595    0.493734    0.898761    11.00000    0.01925    0.01825 =
         0.01674    0.00353    0.00152    0.00403
AFIX  43
H7    2    0.714315    0.578526    0.955957    11.00000   -1.20000
AFIX   0
C2    1    0.355042    0.371161    0.599029    11.00000    0.01220    0.01579 =
         0.01728    0.00403    0.00263    0.00372
C4    1    0.376665    0.125667    0.526682    11.00000    0.01854    0.01544 =
         0.01803    0.00214    0.00100    0.00737
AFIX  23
H4A   2    0.510561    0.141641    0.520800    11.00000   -1.20000
H4B   2    0.305412    0.038489    0.467393    11.00000   -1.20000
AFIX   0
C3    1    0.350341    0.111181    0.644337    11.00000    0.02020    0.01388 =
         0.02043    0.00426    0.00061    0.00522
AFIX  23
H3A   2    0.216091    0.093054    0.649583    11.00000   -1.20000
H3B   2    0.395280    0.031367    0.657163    11.00000   -1.20000
AFIX   0
C10   1    0.204767    0.480554    0.472552    11.00000    0.01625    0.01933 =
         0.02211    0.00988    0.00362    0.00635
AFIX  43
H10   2    0.176112    0.561509    0.458957    11.00000   -1.20000
AFIX   0
C5    1    0.555302    0.239504    0.831459    11.00000    0.01719    0.01841 =
         0.02125    0.00809    0.00396    0.00624
AFIX  43
H5    2    0.553871    0.150683    0.842423    11.00000   -1.20000
AFIX   0
C12   1    0.203923    0.235920    0.407641    11.00000    0.01407    0.02014 =
         0.01705    0.00416    0.00202    0.00446
AFIX  43
H12   2    0.169758    0.148399    0.350426    11.00000   -1.20000
AFIX   0
C11   1    0.147014    0.351392    0.385417    11.00000    0.01562    0.02282 =
         0.01893    0.00852    0.00285    0.00574
C14   1    0.029666    0.332731    0.270655    11.00000    0.02162    0.02663 =
         0.02070    0.00956   -0.00138    0.00475
AFIX 137
H14A  2   -0.099791    0.282198    0.267958    11.00000   -1.50000
H14B  2    0.080698    0.278986    0.210187    11.00000   -1.50000
H14C  2    0.032786    0.425035    0.260176    11.00000   -1.50000
AFIX   0
C13   1    0.765856    0.352580    1.026242    11.00000    0.02642    0.02839 =
         0.01881    0.00679   -0.00105    0.00927
AFIX 137
H13A  2    0.872105    0.315123    1.008164    11.00000   -1.50000
H13B  2    0.683928    0.290077    1.059004    11.00000   -1.50000
H13C  2    0.811777    0.446148    1.080903    11.00000   -1.50000
AFIX   0

C16   1    0.104299    0.093131    0.900755    11.00000    0.03943    0.03943 =
         0.03917    0.01760    0.00370    0.00234
AFIX 137
H16A  2    0.145810    0.030976    0.840415    11.00000   -1.50000
H16B  2   -0.030365    0.057040    0.896567    11.00000   -1.50000
H16C  2    0.171461    0.096906    0.974591    11.00000   -1.50000
AFIX   0
H1    2    0.067923    0.227063    0.815355    11.00000   -1.50000
HKLF 4




REM  DQ52 in P-1
REM wR2 = 0.0800, GooF = S = 1.116, Restrained GooF = 1.116 for all data
REM R1 = 0.0286 for 3210 Fo > 4sig(Fo) and 0.0313 for all 3321 data
REM 188 parameters refined using 1 restraints

END

WGHT      0.0453      0.7796

REM Highest difference peak  0.524,  deepest hole -0.565,  1-sigma level  0.106
Q1    1  -0.0250  0.1783  0.5921  11.00000  0.05    0.52
Q2    1   0.4104  0.3782  0.6602  11.00000  0.05    0.50
Q3    1   0.3423  0.1175  0.5885  11.00000  0.05    0.49
Q4    1   0.5954  0.8602  0.8625  11.00000  0.05    0.49
Q5    1  -0.1942  0.2804  0.5782  11.00000  0.05    0.49
Q6    1  -0.0100  0.2686  0.7401  11.00000  0.05    0.47
Q7    1   0.4317  0.8872  0.8494  11.00000  0.05    0.46
;
_shelx_res_checksum              78563
_shelx_hkl_file
;
   0   0  -1 49662.0 778.616  22
   0   0  -2 49569.7 841.580  22
   0   0  -3 1367.02 93.4147  22
   0   0  -4 3469.33 172.768  22
   0   0  -5 14941.8 333.031  35
   0   0  -5 14245.3 420.729  22
   0   0  -6 1728.02 140.144  22
   0   0  -6 1850.86 105.829  35
   0   0  -7 107585. 1716.00  35
   0   0  -7 103524. 1747.88  36
   0   0  -8 30570.3 704.680  36
   0   0  -8 29875.4 695.990  31
   0   0  -8 31363.7 734.242   4
   0   0  -8 31082.4 667.124  35
   0   0  -8 29765.2 695.756  30
   0   0  -9 16534.6 459.720  35
   0   0  -9 16138.7 480.337  31
   0   0  -9 16589.3 492.442  30
   0   0  -9 15628.6 481.529  36
   0   0  -9 15861.5 491.766   3
   0   0  -9 15153.1 399.078  15
   0   0 -10 290.662 62.0250   1
   0   0 -10 312.844 70.9952  36
   0   0 -10 237.753 60.8835  35
   0   0 -10 274.524 73.1886   3
   0   0 -10 197.119 62.9702  30
   0   0 -11 1061.84 122.989  30
   0   0 -11 1057.11 111.627   8
   0   0 -11 1000.45 107.085  35
   0   0 -11 981.768 116.523  36
   0   0 -11 792.355 109.725   3
   0   0 -12 2862.49 170.702   8
   0   0 -12 2894.77 189.493   2
   0   0 -12 2859.71 182.840   3
   0   0 -13 1003.32 87.6840   8
   0   0 -13 926.463 90.7546   2
   0   0 -13 900.036 91.2222   3
   0   0 -14 10922.1 263.941   8
   0   0 -14 10344.6 274.374   3
   0   1 -14 8939.23 259.372   3
   0   1 -13 1216.91 107.244   2
   0   1 -13 1187.05 108.036   3
   0   1 -12 38546.4 875.034   3
   0   1 -12 38982.7 895.397  30
   0   1 -12 40084.2 854.097  35
   0   1 -11 1255.96 124.097  35
   0   1 -11 1293.24 134.131   3
   0   1 -11 1273.18 120.252   1
   0   1 -11 1238.25 137.126   2
   0   1 -11 1290.55 138.373  30
   0   1 -11 1309.27 130.491  31
   0   1 -10 19682.3 560.028  31
   0   1 -10 18538.3 556.238  36
   0   1 -10 19736.4 539.268  35
   0   1 -10 18819.6 560.867   3
   0   1 -10 20802.9 532.494   1
   0   1 -10 19595.8 573.097  30
   0   1  -9 695.585 96.0006   3
   0   1  -9 720.487 88.7706  35
   0   1  -9 679.955 73.2455   9
   0   1  -9 694.479 81.8184   1
   0   1  -9 660.940 91.5896  36
   0   1  -9 772.969 101.060  30
   0   1  -9 786.451 97.3023  31
   0   1  -8 11748.6 379.209   3
   0   1  -8 10810.8 359.726  36
   0   1  -8 11461.0 364.866  31
   0   1  -8 11126.6 348.949  35
   0   1  -8 11620.6 378.259  30
   0   1  -8 12439.4 352.417   1
   0   1  -7 36398.7 743.640  36
   0   1  -6 23099.8 505.709  36
   0   1  -6 24166.5 592.868  22
   0   1  -5 150570. 2391.88  22
   0   1  -5 146170. 2275.90  36
   0   1  -4 37146.9 737.822  22
   0   1  -4 37278.9 624.980  25
   0  -1   3 147845. 2237.45  24
   0  -1   2 1605.32 82.8245  24
   0   1  -2 1449.15 81.3604  20
   0  -1   1 17453.3 360.935  24
   0   1   0 606.834 51.6890  20
   0   1   1 25147.6 492.591  20
   0  -1  -1 25909.0 562.240   6
   0  -1  -1 26903.5 526.079  22
   0  -1  -1 25192.7 482.083  24
   0  -1  -2 137340. 2103.90  22
   0  -1  -2 127700. 1999.33  24
   0  -1  -3 64074.9 1211.91  22
   0  -1  -3 67363.8 1053.28  24
   0  -1  -4 65712.7 1260.79  22
   0  -1  -4 66130.6 1097.72  34
   0  -1  -5 61225.1 1030.69  35
   0  -1  -5 62654.3 1077.59  34
   0  -1  -5 62402.6 1249.71  22
   0  -1  -6 2600.16 126.825  35
   0  -1  -6 2977.76 209.302  22
   0  -1  -6 2667.92 146.484  34
   0  -1  -7 9938.58 327.920  30
   0  -1  -7 8945.03 316.728  31
   0  -1  -7 9128.59 287.200  35
   0  -1  -7 10508.9 312.695   1
   0  -1  -7 11082.8 368.253   4
   0  -1  -8 117.273 37.9410  11
   0  -1  -8 112.171 40.8198  36
   0  -1  -8 76.0134 29.8783   1
   0  -1  -8 100.202 32.4284  15
   0  -1  -8 83.9891 45.5582   4
   0  -1  -8 63.7405 27.6418  16
   0  -1  -8 182.343 52.5713  30
   0  -1  -9 52514.7 1002.31  35
   0  -1  -9 50469.7 951.722  15
   0  -1  -9 50430.0 1056.46  36
   0  -1  -9 49175.2 951.727  16
   0  -1  -9 50337.2 1090.00   4
   0  -1  -9 49923.4 1053.00  30
   0  -1  -9 53758.0 1031.51   8
   0  -1  -9 50067.0 1069.44   3
   0  -1  -9 50341.0 1001.01   1
   0  -1 -10 48125.7 1046.33  36
   0  -1 -10 48756.8 1045.17  30
   0  -1 -10 48132.3 922.048  15
   0  -1 -10 50693.6 1017.59   8
   0  -1 -11 14550.2 430.417   8
   0  -1 -11 12959.0 435.003  36
   0  -1 -12 16208.3 476.341   2
   0  -1 -12 17181.8 445.823   8
   0  -1 -13 860.935 82.4108   2
   0  -1 -13 924.646 76.6395   8
   0   2 -14 564.031 62.0447   3
   0   2 -13 138.699 56.7510  30
   0   2 -13 5.36407 23.6560   2
   0   2 -13 60.4572 43.2291   3
   0   2 -13 43.0462 36.7723  35
   0   2 -12 18011.7 542.277  30
   0   2 -12 17079.5 497.815  35
   0   2 -12 18396.2 523.711   3
   0   2 -12 17541.0 511.185  31
   0   2 -11 1377.74 122.806   1
   0   2 -11 1311.72 133.818  31
   0   2 -11 1510.60 149.208  30
   0   2 -11 1425.01 141.683   2
   0   2 -11 1290.75 133.510   3
   0   2 -10 63013.7 1279.31   3
   0   2 -10 63140.3 1189.48   9
   0   2 -10 66059.4 1233.68   1
   0   2 -10 64791.5 1317.06  30
   0   2 -10 63499.9 1274.89  31
   0   2  -9 15618.1 423.749   9
   0   2  -9 16102.6 495.212  30
   0   2  -9 14647.5 455.696  31
   0   2  -9 15928.1 469.468   3
   0   2  -9 15151.2 429.109   1
   0   2  -9 14707.4 452.670  36
   0   2  -8 61570.5 1103.09   1
   0   2  -8 56102.4 1125.86  36
   0   2  -8 58838.0 1117.32  35
   0   2  -8 62883.6 1114.49   9
   0   2  -8 64148.1 1154.86   3
   0   2  -7 4674.29 231.947  22
   0   2  -7 5080.70 202.227  35
   0   2  -7 5201.44 210.101  36
   0   2  -6 60.0254 28.1311  22
   0   2  -6 42.7012 20.9335  35
   0  -2   5 19979.2 462.647  24
   0   2  -5 19544.3 414.103  36
   0   2  -5 19066.7 403.455  35
   0  -2   4 4118.49 188.169  24
   0  -2   3 207814. 3201.39  24
   0   2  -3 203342. 3238.24  20
   0  -2   2 94896.9 1628.20  24
   0   2  -2 99484.5 1673.81  20
   0   2  -1 61323.7 972.685   7
   0   2   0 169334. 2714.21  20
   0  -2  -1 489.759 75.1144   6
   0   2   1 631.685 77.7315  20
   0  -2  -2 182.609 52.4924   6
   0  -2  -2 233.033 45.1722  24
   0  -2  -3 5395.02 276.276  22
   0  -2  -3 6451.13 236.207  24
   0  -2  -4 69845.5 1416.06  22
   0  -2  -4 68232.9 1147.49  34
   0   2   4 66688.9 1212.36  25
   0  -2  -5 41512.7 732.368  35
   0  -2  -5 40000.4 780.325  34
   0  -2  -6 32516.3 635.169  35
   0  -2  -6 31934.6 669.597   8
   0  -2  -6 32417.2 689.374  34
   0  -2  -7 41392.5 867.659  34
   0  -2  -7 39259.4 854.845  30
   0  -2  -7 43335.3 806.219  35
   0  -2  -7 39969.7 801.032  15
   0  -2  -7 43134.1 831.551  16
   0  -2  -7 42593.4 845.029   8
   0  -2  -7 44536.3 841.186   1
   0  -2  -7 39010.8 890.476   4
   0  -2  -8 2910.39 157.596  15
   0  -2  -8 3031.37 171.073   1
   0  -2  -8 3173.75 162.274  35
   0  -2  -8 3085.80 169.495  16
   0  -2  -8 2780.95 192.958   4
   0  -2  -8 3108.43 177.266   8
   0  -2  -9 11507.8 399.571  36
   0  -2  -9 11276.8 368.643  11
   0  -2  -9 11311.6 343.922  15
   0  -2  -9 12643.2 394.421   8
   0  -2  -9 11142.3 421.436   4
   0  -2  -9 11912.5 358.402  16
   0  -2  -9 12003.4 420.392   3
   0  -2 -10 1147.60 113.277   8
   0  -2 -10 1205.27 131.704   4
   0  -2 -10 1222.88 129.111   3
   0  -2 -10 1123.33 103.345  11
   0  -2 -10 1071.19 114.515  36
   0  -2 -10 1104.40 93.4450  16
   0  -2 -11 6072.07 270.805   3
   0  -2 -11 6296.29 256.121   8
   0  -2 -11 6120.64 267.027  36
   0  -2 -12 12681.8 367.262  36
   0  -2 -12 12961.7 389.314   2
   0  -2 -12 12891.9 375.097   3
   0  -2 -13 7633.92 229.277   3
   0  -2 -13 7458.24 227.897   2
   0   3 -14 5154.95 211.995  30
   0   3 -13 9408.94 345.125  30
   0   3 -13 9740.47 315.390   3
   0   3 -12 13646.1 436.385  35
   0   3 -12 14741.8 427.526   1
   0   3 -12 14031.7 454.065  31
   0   3 -12 14682.7 483.716  30
   0   3 -11 1128.58 133.159  30
   0   3 -11 968.445 116.656  31
   0   3 -11 1241.45 126.071   3
   0   3 -11 1320.46 126.679   2
   0   3 -11 1165.63 122.033  35
   0   3 -11 1131.74 110.036   1
   0   3 -10 139.221 61.5175  30
   0   3 -10 321.287 69.3679   2
   0   3 -10 345.587 70.9250   3
   0   3 -10 134.947 45.5999   1
   0   3 -10 283.548 69.1959  31
   0   3 -10 146.652 57.0199  35
   0   3  -9 1237.28 112.460   9
   0   3  -9 1417.59 126.744   2
   0   3  -9 1201.50 114.413   3
   0   3  -9 1324.78 109.668   1
   0   3  -9 1150.85 112.682  35
   0   3  -8 41318.5 853.834  35
   0   3  -8 40287.7 864.790  32
   0   3  -8 45654.1 876.486   9
   0   3  -8 43362.0 830.444   1
   0   3  -8 39185.1 780.233  17
   0   3  -8 47306.4 867.897   3
   0   3  -7 67740.2 1357.42  22
   0   3  -7 68710.0 1206.81  35
   0   3  -6 26676.2 561.726  35
   0  -3   6 30237.6 708.997  24
   0  -3   5 70074.6 1317.13  24
   0   3  -5 65423.8 1107.28  35
   0  -3   4 1307.93 128.970  24
   0   3  -3 12762.3 470.555  20
   0  -3   3 15094.2 470.969  24
   0  -3   2 11251.5 401.053  24
   0   3  -1 128061. 1961.41   7
   0  -3   1 131049. 2230.62  24
   0  -3   0 122422. 2124.31  24
   0   3   0 123798. 2206.11  20
   0  -3  -1 33345.1 876.820   6
   0  -3  -1 34434.6 814.447  24
   0   3   1 36043.3 873.634  20
   0  -3  -2 57174.2 1276.02   6
   0  -3  -2 54504.8 1140.71  24
   0  -3  -3 45893.1 985.293  24
   0  -3  -3 44221.5 1155.93   6
   0  -3  -4 3671.52 200.657  24
   0  -3  -5 150.980 40.2233   4
   0  -3  -5 168.519 38.2817   8
   0  -3  -6 16381.9 407.576   1
   0  -3  -6 14954.9 427.858  34
   0  -3  -6 16200.2 428.167   8
   0  -3  -6 14823.4 398.110  15
   0  -3  -6 16405.7 429.256  16
   0  -3  -6 14841.9 447.877   4
   0  -3  -7 42658.2 856.131  16
   0  -3  -7 40442.6 871.581  34
   0  -3  -7 40312.9 821.823  15
   0  -3  -7 42640.5 865.319   8
   0  -3  -8 9202.68 357.693   3
   0  -3  -8 9222.12 330.551   8
   0  -3  -8 9259.51 323.150  16
   0  -3  -8 9108.69 307.208  15
   0  -3  -9 87219.7 1619.35   3
   0  -3  -9 90689.3 1540.78  16
   0  -3  -9 84347.3 1556.74  11
   0  -3  -9 86523.9 1591.78  36
   0  -3  -9 89231.0 1574.98   8
   0  -3 -10 327.977 59.7609  11
   0  -3 -10 277.073 61.4386  36
   0  -3 -10 357.606 65.2114   8
   0  -3 -10 275.131 68.3401   3
   0  -3 -10 301.035 53.3139  16
   0  -3 -11 4753.19 216.593  36
   0  -3 -11 4821.06 220.845   3
   0  -3 -12 218.905 45.5585   3
   0  -3 -12 148.417 36.1345  36
   0  -3 -13 1560.86 71.7976   3
   0   4 -14 482.063 61.8981  35
   0   4 -14 443.585 66.7953  30
   0   4 -13 26263.3 646.214  30
   0   4 -13 25222.0 605.857  31
   0   4 -13 26636.9 615.090  35
   0   4 -12 27702.7 727.572  30
   0   4 -12 27942.6 682.469  35
   0   4 -12 27904.5 693.571  31
   0   4 -11 14820.2 501.573  30
   0   4 -11 14153.9 460.921  31
   0   4 -11 13799.7 448.757  35
   0   4 -11 14343.0 415.741   1
   0   4 -10 33095.9 745.929   1
   0   4 -10 40083.5 810.136   2
   0   4 -10 38133.0 786.179   3
   0   4 -10 32896.1 789.759  35
   0   4  -9 165.817 55.1073  35
   0   4  -9 127.946 40.4024  17
   0   4  -9 100.344 35.0876   1
   0   4  -9 77.3438 41.9591  32
   0   4  -8 12000.0 342.665  17
   0   4  -8 11731.8 364.378  35
   0   4  -8 12239.1 337.846   1
   0   4  -8 13024.6 393.531   9
   0   4  -7 1961.59 124.417  35
   0   4  -7 2071.67 141.572  33
   0   4  -7 1706.68 125.631  32
   0   4  -7 1985.82 133.179   9
   0  -4   7 1792.19 170.439  24
   0   4  -7 1660.98 111.721  17
   0   4  -6 24250.0 516.856  35
   0   4  -6 23472.5 476.409  21
   0   4  -5 59779.9 1030.76  35
   0  -4   5 63101.7 1353.64  24
   0   4  -5 61053.5 1025.18  21
   0  -4   4 24104.0 764.685  24
   0   4  -4 29839.9 556.690  21
   0   4  -3 27887.6 542.526  21
   0  -4   3 28508.8 800.772  24
   0  -4   2 773.818 115.560  24
   0   4  -1 20376.0 433.965   7
   0   4  -1 19611.5 421.667  21
   0   4   0 2205.70 108.768  21
   0  -4   0 2185.46 195.821  24
   0   4   1 19755.7 421.900  21
   0  -4  -1 21346.0 715.120   6
   0  -4  -1 20167.7 652.821  24
   0  -4  -2 60876.5 1268.09  24
   0  -4  -2 57778.5 1374.18   6
   0  -4  -3 443.213 88.4819  24
   0  -4  -3 350.141 99.1732   6
   0   4   3 348.066 44.2394  21
   0  -4  -4 87864.4 1479.98  16
   0  -4  -4 82840.5 1646.96  24
   0  -4  -4 86552.2 1461.71  34
   0  -4  -5 299.413 53.8084   8
   0  -4  -5 236.278 52.2524   4
   0  -4  -5 272.848 53.6321  16
   0  -4  -6 19627.5 549.468   4
   0  -4  -6 19920.2 516.486   8
   0  -4  -6 20429.7 523.156  16
   0  -4  -7 114.923 46.9564  16
   0  -4  -7 12.6163 41.0015   4
   0  -4  -7 18.6194 40.9594   3
   0  -4  -7 19.8822 33.2734   8
   0  -4  -8 80.0724 44.5149  16
   0  -4  -8 82.5444 59.4589   4
   0  -4  -8 156.539 61.8269   3
   0  -4  -9 12108.0 402.293   3
   0  -4  -9 12378.7 430.004   4
   0  -4  -9 12122.5 395.594  36
   0  -4  -9 11949.6 385.164  11
   0  -4  -9 12874.0 376.725  16
   0  -4 -10 87.3551 33.5538  16
   0  -4 -10 54.1286 34.2561  36
   0  -4 -10 124.045 39.9742  11
   0  -4 -10 85.0964 45.2749   3
   0  -4 -11 16120.0 405.285  36
   0  -4 -11 16591.7 403.337   3
   0  -4 -12 620.961 56.0921   2
   0  -4 -12 531.256 45.2118   3
   0   5 -14 150.216 44.3199  30
   0   5 -14 131.506 36.8683  35
   0   5 -13 4753.44 217.102  31
   0   5 -13 4734.84 232.529  30
   0   5 -13 4906.88 216.640  35
   0   5 -12 1410.76 124.773  35
   0   5 -12 1448.22 131.510  31
   0   5 -11 2186.73 160.453  35
   0   5 -11 2083.99 132.795   1
   0   5 -10 24507.3 630.828  35
   0   5 -10 24721.7 565.569   1
   0   5 -10 25573.2 602.215  17
   0   5  -9 35621.0 765.301  17
   0   5  -9 36204.2 821.682  32
   0   5  -9 35540.9 794.316  35
   0   5  -8 58922.4 1117.19  35
   0   5  -8 56783.8 1144.62  32
   0   5  -8 59215.5 1170.47  33
   0   5  -8 59125.8 1102.08  17
   0   5  -7 1698.72 136.560  33
   0   5  -7 1500.77 126.030  32
   0   5  -7 1564.99 101.021  21
   0  -5   7 2340.60 231.795  24
   0   5  -7 1750.52 120.523  35
   0   5  -7 2165.17 136.032  17
   0  -5   6 27371.9 869.845  24
   0   5  -6 23701.1 530.877  35
   0   5  -6 25968.4 605.054  33
   0   5  -6 24858.3 536.091  21
   0  -5   5 2552.98 242.556  24
   0   5  -5 2828.44 128.599  35
   0   5  -5 2656.70 137.964  21
   0   5  -4 10240.0 299.141  21
   0  -5   4 11415.9 527.513  24
   0   5  -3 86419.1 1480.61  21
   0  -5   3 103556. 2063.52  24
   0  -5   2 355.666 90.9522  24
   0   5  -1 166878. 2607.33  21
   0  -5   0 230.120 75.6651  24
   0   5   0 243.762 44.2174  21
   0  -5  -1 72322.0 1770.15   6
   0   5   1 78582.4 1359.05  21
   0  -5  -2 1288.21 172.119  24
   0  -5  -2 1349.30 100.695  16
   0   5   2 1351.07 98.5481  21
   0  -5  -2 1199.92 183.438   6
   0  -5  -3 389.433 58.7043  16
   0   5   3 279.304 45.8627  21
   0  -5  -3 267.525 96.6910   6
   0  -5  -3 227.061 73.9759  24
   0  -5  -4 19891.7 524.734   4
   0  -5  -4 20583.9 508.391  34
   0  -5  -5 407.314 66.5550  34
   0  -5  -5 502.320 80.6671   4
   0  -5  -6 56190.3 1059.53   3
   0  -5  -6 50746.7 1084.87   4
   0  -5  -6 55218.7 1059.54  16
   0  -5  -6 47911.8 1030.40  34
   0  -5  -7 4423.87 223.338   3
   0  -5  -7 4393.46 220.398  16
   0  -5  -7 4152.03 239.676   4
   0  -5  -8 12816.0 432.274   4
   0  -5  -8 12581.2 384.611  16
   0  -5  -8 11742.2 394.439  11
   0  -5  -8 12060.0 385.164   3
   0  -5  -9 4127.06 217.068   4
   0  -5  -9 4260.60 201.263  11
   0  -5  -9 3917.35 190.240   3
   0  -5  -9 4341.66 190.246  16
   0  -5 -10 279.577 46.5825  11
   0  -5 -10 187.827 41.0870   3
   0   6 -14 1646.68 95.9759  31
   0   6 -13 35687.9 727.036  35
   0   6 -13 35370.0 741.231  31
   0   6 -12 2503.80 181.331  30
   0   6 -12 2137.30 154.702  31
   0   6 -12 2411.56 155.207  35
   0   6 -11 14197.3 434.020  35
   0   6 -11 14051.0 483.844  30
   0   6 -10 4236.72 239.849  32
   0   6 -10 4606.14 225.768  17
   0   6 -10 4648.40 231.266  35
   0   6  -9 902.626 100.014  17
   0   6  -9 762.855 106.894  33
   0   6  -9 1033.16 106.225  35
   0   6  -9 1082.66 121.499  32
   0   6  -8 8748.64 352.443  32
   0   6  -8 9264.02 362.021  33
   0   6  -8 9430.68 324.884  35
   0   6  -7 3634.42 211.199  32
   0  -6   7 3710.94 170.263  23
   0  -6   7 3108.05 302.957  24
   0   6  -7 3544.84 174.802  35
   0   6  -7 3416.72 204.246  33
   0   6  -7 3398.45 172.248  21
   0  -6   6 86454.6 1978.18  24
   0  -6   6 84023.4 1436.16  23
   0   6  -6 88616.5 1563.40  33
   0   6  -6 85258.1 1480.69  21
   0   6  -6 87643.1 1506.56  17
   0   6  -5 21191.6 518.276  21
   0  -6   5 20202.9 476.900  23
   0   6  -4 43782.7 858.488  17
   0  -6   4 42374.1 818.996  23
   0   6  -4 42553.6 858.290  21
   0  -6   4 44918.4 1285.23  24
   0  -6   3 2479.48 269.063  24
   0   6  -2 1608.67 118.766  21
   0  -6   2 1664.80 218.929  24
   0  -6   1 23566.9 904.966  24
   0   6  -1 27175.1 611.201  21
   0  -6   0 241.600 94.6783  24
   0  -6   0 255.929 48.5789  16
   0  -6   0 233.167 44.5297  23
   0   6   0 215.739 47.2935  21
   0  -6  -1 105266. 1728.23  23
   0   6   1 106485. 1775.56  21
   0  -6  -1 103684. 1762.67  16
   0  -6  -1 107229. 2289.06  24
   0   6   2 9530.20 313.267  21
   0  -6  -2 8996.72 280.048  23
   0  -6  -2 9488.98 316.092  16
   0  -6  -2 9473.86 524.419  24
   0  -6  -2 9025.33 557.548   6
   0   6   3 33589.0 720.671  21
   0  -6  -3 33209.8 671.149  23
   0  -6  -3 35726.4 747.023  34
   0  -6  -3 33024.3 1034.66  24
   0  -6  -3 34896.6 752.816  16
   0  -6  -4 25782.5 599.518  34
   0  -6  -4 21925.6 598.259   4
   0  -6  -5 3563.44 196.000  34
   0  -6  -5 3304.61 203.784   4
   0  -6  -6 171.924 49.9109  34
   0  -6  -6 85.2769 49.2526   4
   0  -6  -6 149.286 54.6585  16
   0  -6  -7 1270.61 126.914   4
   0  -6  -7 1277.55 115.977  34
   0  -6  -7 1195.73 110.025  16
   0  -6  -7 1075.40 95.7028   3
   0  -6  -8 24142.9 539.635  16
   0  -6  -8 23523.5 566.602  11
   0  -6  -8 23477.4 586.528   4
   0  -6  -9 6465.69 227.825  36
   0  -6  -9 6957.08 236.791  11
   0  -6 -10 5802.57 160.642  11
   0   7 -14 50.1528 20.5900  31
   0   7 -14 64.0634 28.5016  30
   0   7 -13 9776.27 314.564  30
   0   7 -13 9742.40 298.457  31
   0   7 -12 585.995 73.0614  35
   0   7 -12 679.646 92.7143  30
   0   7 -11 31783.5 760.005  30
   0   7 -11 27514.5 643.212  35
   0   7 -10 2321.62 177.066  32
   0   7 -10 2365.35 152.990  35
   0   7  -9 46646.2 949.186  35
   0   7  -9 46402.5 1052.74  32
   0   7  -8 17503.5 533.225  32
   0   7  -8 16945.8 832.207  25
   0   7  -8 15501.5 427.707  21
   0   7  -8 16502.1 508.362  33
   0   7  -8 14655.5 409.092  35
   0   7  -7 1588.46 132.914  17
   0   7  -7 1538.90 145.428  32
   0   7  -7 1740.43 136.084  21
   0  -7   7 1370.48 220.784  24
   0  -7   7 1692.72 122.933  23
   0   7  -7 1697.15 151.268  33
   0   7  -6 3743.34 206.117  21
   0   7  -6 4401.25 240.453  33
   0  -7   6 3979.11 191.530  23
   0  -7   6 4139.63 378.850  24
   0   7  -6 3778.85 206.657  17
   0  -7   5 661.923 77.5940  23
   0   7  -5 770.209 105.668  33
   0   7  -5 761.167 92.2881  17
   0  -7   5 497.481 137.375  24
   0   7  -5 639.960 90.2384  21
   0   7  -4 112003. 1879.07  17
   0  -7   4 107403. 1839.12  23
   0   7  -4 108339. 1898.92  21
   0  -7   3 27162.2 620.024  23
   0   7  -3 27932.8 627.176  17
   0   7  -2 45029.3 944.507  21
   0   7  -2 46391.8 877.106  17
   0  -7   1 59669.4 1123.33  23
   0   7  -1 61336.3 1186.31  21
   0  -7   0 10854.2 625.779  24
   0   7   0 10401.9 356.953  21
   0  -7   0 10170.6 341.335  16
   0  -7   0 10455.7 327.734  23
   0   7   1 5336.88 241.957  21
   0  -7  -1 4780.50 225.108  16
   0  -7  -1 4625.56 401.292  24
   0  -7  -1 5106.96 215.490  23
   0  -7  -2 1823.84 138.948  16
   0   7   2 1942.20 143.596  21
   0  -7  -2 2032.66 130.197  23
   0  -7  -2 1844.49 245.733  24
   0  -7  -2 1727.98 257.741   6
   0  -7  -3 35312.4 773.475  16
   0  -7  -3 31354.2 756.002   4
   0  -7  -3 35977.0 761.060  34
   0  -7  -3 33815.0 684.426  23
   0   7   3 33187.6 733.822  21
   0  -7  -4 27840.9 691.683   4
   0  -7  -4 29257.1 668.884  34
   0  -7  -4 28133.3 680.669  16
   0  -7  -5 12780.8 392.008  34
   0  -7  -5 11738.0 406.740   4
   0  -7  -6 6346.61 254.728  34
   0  -7  -6 6278.16 275.890   4
   0  -7  -7 1205.57 107.267  11
   0  -7  -7 1143.26 105.711   4
   0  -7  -8 635.747 64.6389  36
   0  -7  -8 766.829 76.6449  11
   0  -7  -8 685.794 73.0000   4
   0  -7  -9 15.5906 18.0490  11
   0   8 -13 11027.2 294.086  31
   0   8 -13 10931.8 301.636  30
   0   8 -12 199.504 54.7105  30
   0   8 -12 188.483 46.4663  10
   0   8 -11 1850.41 139.973  10
   0   8 -11 1628.86 140.609  30
   0   8 -10 5611.18 269.225  10
   0   8 -10 6276.66 262.933  17
   0   8 -10 6053.84 282.460  32
   0   8  -9 13126.7 453.931  32
   0   8  -8 24497.7 694.263  32
   0   8  -8 26517.4 685.242  33
   0   8  -8 24805.8 612.989  21
   0  -8   8 26990.6 606.771  23
   0   8  -8 27333.0 658.885  17
   0   8  -7 38090.2 836.447  17
   0   8  -7 35542.1 853.926  33
   0   8  -7 35699.3 826.030  21
   0  -8   7 38743.4 801.623  23
   0   8  -7 36912.9 894.148  32
   0   8  -6 27471.1 696.435  21
   0   8  -6 28231.8 681.158  17
   0  -8   6 26540.0 639.296  23
   0   8  -5 38.8508 44.5616  33
   0  -8   5 3.17741 28.5336  23
   0  -8   5-25.5733 48.5226  24
   0   8  -5 44.1945 49.1677  21
   0   8  -5 127.282 48.8444  17
   0   8  -4 328.000 78.3009  33
   0  -8   4 207.701 98.6242  24
   0   8  -4 412.415 69.9261  17
   0  -8   4 189.394 51.0100  23
   0  -8   3 2415.85 157.640  23
   0  -8   3 3004.28 353.759   6
   0  -8   3 2719.87 334.234  24
   0   8  -3 2544.36 152.459  17
   0  -8   2 11037.7 685.158   6
   0   8  -2 10829.0 395.802  21
   0  -8   1 25544.9 1083.02   6
   0  -8   1 26539.1 635.606  23
   0  -8   1 26262.5 1076.51  24
   0   8  -1 29123.2 702.510  21
   0   8   0 92512.2 1643.27  21
   0  -8   0 89219.5 1571.21  23
   0   8   1 76369.7 1422.25  21
   0  -8  -1 76899.9 1359.72  23
   0  -8  -2 975.786 98.7425  34
   0  -8  -2 841.637 95.4117   4
   0  -8  -2 904.763 88.0003  23
   0   8   2 829.636 101.900  21
   0  -8  -3 379.002 64.0527  34
   0  -8  -3 204.228 41.6732  23
   0  -8  -3 247.045 58.9898   4
   0  -8  -4 49.7484 38.5888   4
   0  -8  -4 17.6210 26.3759  34
   0  -8  -5 7098.80 274.634   4
   0  -8  -5 7759.61 271.664  34
   0  -8  -6 15398.3 416.625  11
   0  -8  -6 14829.6 396.244   4
   0  -8  -7 2632.21 125.192   4
   0  -8  -8 24579.2 460.217  11
   0   9 -12 8596.26 257.187  10
   0   9 -12 8601.76 255.204  30
   0   9 -11 31021.5 680.460  10
   0   9 -11 33565.6 695.563  30
   0   9 -10 430.187 74.9508  32
   0   9 -10 661.338 86.3412  10
   0   9  -9 1916.32 156.611  32
   0   9  -9 2185.75 149.174  17
   0  -9   8 109.822 39.2760  23
   0   9  -8 29.8930 39.8728  17
   0   9  -8 82.5695 53.7026  32
   0   9  -8 75.9027 43.9460  21
   0   9  -8 92.0191 53.0149  33
   0   9  -7 10717.0 365.423  17
   0   9  -7 9693.50 723.415  25
   0   9  -7 11192.3 387.310  33
   0  -9   7 11224.6 356.050  23
   0   9  -7 10317.0 374.056  21
   0   9  -7 10512.9 413.309  32
   0   9  -6 43851.9 917.238  17
   0   9  -6 45510.7 980.007  21
   0  -9   6 42820.0 902.101  23
   0   9  -6 45559.1 962.636  33
   0   9  -5 8394.45 328.339  33
   0  -9   5 7834.90 300.631  23
   0  -9   5 8575.08 596.325   6
   0   9  -5 7799.71 294.308  17
   0   9  -5 7585.86 333.930  21
   0   9  -4 59083.6 1117.68  17
   0  -9   4 58005.5 1761.98  24
   0  -9   4 59271.6 1155.43  23
   0  -9   4 55530.9 1718.59   6
   0   9  -3 841.457 106.351  33
   0   9  -3 761.155 81.6433  17
   0   9  -3 669.581 104.846  21
   0  -9   3 669.587 174.898   6
   0  -9   2 7197.51 550.796  24
   0   9  -2 7938.66 338.839  21
   0  -9   2 7584.51 562.484   6
   0  -9   2 7782.30 301.903  23
   0  -9   1 823.619 182.999  24
   0   9  -1 999.185 119.692  21
   0  -9   1 1029.85 103.787  23
   0  -9   1 889.325 195.259   6
   0   9   0 8531.09 332.714  21
   0  -9   0 7783.76 562.719   6
   0  -9   0 8027.97 289.858  23
   0   9   0 7124.25 618.617  25
   0   9   1 12868.7 409.298  21
   0  -9  -1 13704.8 382.593  34
   0  -9  -1 12819.2 365.292  23
   0  -9  -2 2491.53 144.617  34
   0  -9  -2 2093.34 131.895   4
   0   9   2 2208.68 147.886  21
   0  -9  -2 2200.54 124.289  23
   0  -9  -3 35145.6 746.869   4
   0  -9  -3 41935.9 777.758  34
   0  -9  -4 670.330 69.1126   4
   0  -9  -4 813.370 84.6935  11
   0  -9  -4 770.833 71.9167  34
   0  -9  -5 6895.29 226.665  11
   0  -9  -5 5169.56 175.340   4
   0  -9  -6 63.5783 23.5557  11
   0  10 -12 3013.26 108.115  10
   0  10 -11 10818.7 287.869  10
   0  10 -10 6041.43 218.038  32
   0  10 -10 6179.48 212.238  10
   0  10  -9 32019.4 718.501  32
   0 -10   8 901.367 83.5589  23
   0  10  -8 900.740 93.7745  21
   0  10  -8 859.520 104.461  32
   0  10  -7 2125.51 133.596  17
   0  10  -7 1817.35 151.369  32
   0  10  -7 1886.44 141.144  21
   0 -10   7 1896.90 123.778  23
   0  10  -6 47.4930 47.2184  21
   0  10  -6-4.31209 45.1119  32
   0  10  -6 21.0216 31.5344  17
   0  10  -6 13.1791 26.8410  33
   0 -10   6 48.1161 33.2801  23
   0  10  -5 3899.11 177.876  17
   0 -10   5 3610.97 187.696  23
   0  10  -5 3779.18 217.079  21
   0 -10   4 20276.1 519.510  23
   0  10  -3 2379.08 173.062  21
   0 -10   2 38163.5 797.311  23
   0  10  -2 39258.4 864.742  21
   0  10  -1 574.552 88.8275  21
   0 -10   1 589.530 73.6069  23
   0 -10   1 565.379 63.1744  34
   0  10   0 22254.5 553.484  21
   0 -10   0 21821.5 501.813  23
   0 -10   0 22280.8 485.277  34
   0 -10  -1 692.811 65.9571  23
   0 -10  -1 810.621 70.3754  34
   0  10   1 728.678 84.7022  21
   0 -10  -2 80.6377 29.8360  11
   0 -10  -2 44.8824 19.9639  34
   0 -10  -3 5447.06 186.372  11
   0 -10  -4 533.580 48.8900  11
   0  11 -10 44.7442 19.5355  10
   0  11  -9 7285.81 237.252  32
   0  11  -9 7387.91 229.877  10
   0 -11   8 1031.87 71.2551  23
   0  11  -8 1302.00 102.597  32
   0 -11   7 36481.3 696.294  23
   0  11  -7 37390.7 774.796  32
   0 -11   6 7368.41 241.347  23
   0  11  -6 8025.89 295.923  32
   0  11  -6 7321.49 267.979  21
   0 -11   5 15720.6 393.433  23
   0  11  -5 15642.1 432.437  21
   0 -11   4 1441.38 104.141  23
   0  11  -3 944.972 97.3438  21
   0 -11   2 12392.1 326.690  23
   0  11  -2 12442.4 362.437  21
   0  11  -1 258.872 51.0949  21
   0 -11   1 205.965 36.9079  23
   0 -11   0 32038.6 576.445  23
   0  12  -7 1508.56 82.4890  32
   0  12  -6 526.910 53.0799  32
   0 -12   6 500.633 42.9074  23
   0 -12   5 19873.9 392.805  23
   0 -12   3 6331.38 171.604  23
   0  12  -3 6360.43 195.730  32
   0  12  -2 6575.00 190.758  32
   0 -12   2 6455.93 158.885  23
  -1  12  -1 5859.65 166.188  32
   1 -12   1 6110.70 152.387  23
   1 -12   2 2779.78 109.399  23
  -1  12  -2 2851.35 120.450  32
  -1  12  -3 634.690 59.9425  32
   1 -12   3 681.296 56.6303  23
  -1  12  -4 5584.78 193.709  32
   1 -12   4 5923.52 184.084  23
  -1  12  -5 112.399 31.3704  32
   1 -12   5 156.152 30.8675  23
  -1  12  -6 25250.1 519.971  32
   1 -12   6 26119.3 491.053  23
  -1  12  -7 6095.25 189.852  32
   1 -12   7 5552.72 153.884  23
  -1  12  -8 8664.30 219.534  32
   1 -11  -2 47.8201 18.4750  11
   1 -11  -1 2290.69 102.624  11
   1 -11   0 1146.42 77.8283  34
   1 -11   0 1114.39 77.3452  23
   1 -11   1 25510.4 533.369  34
   1 -11   1 27640.1 557.446  23
   1 -11   2 10487.3 308.785  23
  -1  11  -3 18919.1 498.424  21
   1 -11   4 14632.1 391.627  23
   1 -11   5 2361.24 137.397  23
  -1  11  -5 2143.35 113.906  17
  -1  11  -5 2478.23 162.459  32
   1 -11   6 2803.99 146.969  23
  -1  11  -6 2756.75 135.602  17
  -1  11  -6 3119.97 179.089  32
  -1  11  -7 954.390 96.7863  32
   1 -11   7 894.246 77.8170  23
  -1  11  -7 860.551 76.6228  17
   1 -11   8 23816.4 477.448  23
  -1  11  -9 13418.6 321.559  10
  -1  11 -10 8826.38 210.660  10
   1 -10  -5 34.8295 17.3208  11
   1 -10  -4 19059.0 406.795   4
   1 -10  -4 21775.9 452.842  11
   1 -10  -3 12439.4 318.054  34
   1 -10  -3 10434.1 292.356   4
   1 -10  -2 8484.49 234.595   4
   1 -10  -2 9637.24 258.352  34
   1 -10  -1 22594.5 493.636  23
   1 -10  -1 23371.4 528.600  34
  -1  10   0 2077.94 148.982  21
   1 -10   0 1925.96 126.271  23
   1 -10   1 293.076 58.4208  23
  -1  10  -1 198.846 64.1574  21
   1 -10   2 3990.74 201.688  23
  -1  10  -2 3596.84 215.320  21
  -1  10  -3 19647.4 468.558  17
  -1  10  -3 21024.0 576.725  21
   1 -10   4 21658.9 544.240  23
  -1  10  -4 19969.2 499.375  17
  -1  10  -5 5071.39 253.720  21
   1 -10   5 4777.35 224.527  23
  -1  10  -5 4870.30 219.606  17
  -1  10  -6 26797.8 630.509  17
  -1  10  -6 26403.6 660.276  21
   1 -10   6 26966.9 627.632  23
  -1  10  -6 28409.7 710.475  32
  -1  10  -7 778.135 90.1994  17
   1 -10   7 737.079 83.5367  23
  -1  10  -8 4473.83 207.382  17
   1 -10   8 4397.73 186.481  23
  -1  10  -9 157.557 44.3957  10
  -1  10  -9 150.127 44.9746  17
  -1  10 -10 2086.42 133.540  32
  -1  10 -10 1974.01 117.581  10
  -1  10 -11 19268.5 405.832  10
  -1  10 -12 782.490 57.9030  31
   1  -9  -6 13216.7 335.094   4
   1  -9  -6 14734.6 357.745  11
   1  -9  -5 215.817 42.7237  34
   1  -9  -5 128.180 39.7600   4
   1  -9  -4 3431.74 173.462  34
   1  -9  -4 3250.93 174.558   4
   1  -9  -3 3048.80 170.760  34
   1  -9  -3 3233.55 180.112   4
   1  -9  -2 15589.0 404.836  23
   1  -9  -2 16475.1 460.057  34
   1  -9  -1 2266.51 301.798   6
  -1   9   1 1766.60 300.230  25
   1  -9  -1 1592.73 241.907  24
   1  -9  -1 2007.58 134.254  23
  -1   9   1 1833.16 146.318  21
  -1   9   0 33234.7 1386.89  25
   1  -9   0 38547.5 1361.68   6
   1  -9   0 35146.3 1268.07  24
  -1   9   0 39636.8 859.140  21
   1  -9   0 36595.9 788.114  23
  -1   9  -1 54927.8 1129.98  21
   1  -9   1 53328.2 1696.78   6
   1  -9   1 52517.6 1661.91  24
  -1   9  -1 53385.0 1847.86  25
   1  -9   1 55509.7 1074.63  23
  -1   9  -2 292.963 149.146  25
   1  -9   2 395.628 139.949  24
  -1   9  -2 408.915 64.3175  17
  -1   9  -2 447.301 93.7041  21
   1  -9   2 610.480 172.776   6
   1  -9   3 8323.81 314.761  23
  -1   9  -3 8085.12 345.130  21
  -1   9  -3 7929.69 672.804  25
  -1   9  -3 8254.54 300.466  17
   1  -9   4 1379.26 123.751  23
  -1   9  -4 1372.51 139.526  21
   1  -9   4 1195.56 236.210  24
  -1   9  -4 1344.52 123.841  17
  -1   9  -4 1229.10 272.087  25
   1  -9   5 7466.92 575.788  24
  -1   9  -5 8588.05 327.391  17
   1  -9   5 7977.09 307.273  23
  -1   9  -5 8207.05 339.174  21
  -1   9  -6 47175.0 1067.83  32
  -1   9  -6 46337.1 1693.75  25
  -1   9  -6 48987.3 1039.34  21
  -1   9  -6 50739.3 1030.25  17
   1  -9   6 49521.9 1588.80  24
   1  -9   6 51040.0 1004.86  23
   1  -9   7 2837.05 170.753  23
  -1   9  -7 3014.17 185.511  21
  -1   9  -7 2507.24 360.795  25
  -1   9  -7 2823.76 186.144  17
   1  -9   7 2446.67 318.032  24
  -1   9  -8 43662.3 924.298  17
   1  -9   8 42801.1 857.300  23
  -1   9  -9 385.885 70.2460  30
  -1   9  -9 260.540 69.3693  32
  -1   9 -10 7471.83 279.865  10
  -1   9 -10 8551.16 297.907  17
  -1   9 -10 7730.17 303.911  32
  -1   9 -10 8245.62 282.473  30
  -1   9 -11 323.000 55.1006  10
  -1   9 -11 69.8818 31.2839  30
  -1   9 -12 459.708 51.9009  10
  -1   9 -12 455.394 58.8718  31
  -1   9 -13 7033.97 193.162  31
   1  -8  -8 336.010 43.5364  11
   1  -8  -8 352.205 45.1827   4
   1  -8  -7 4902.78 204.527   4
   1  -8  -7 5034.66 204.573  11
   1  -8  -6 23747.1 549.367  34
   1  -8  -6 24116.7 588.042   4
   1  -8  -6 22724.3 536.850  16
   1  -8  -5 8806.57 327.378   4
   1  -8  -5 7754.68 293.241  16
   1  -8  -5 8165.27 297.338  34
   1  -8  -4 43955.3 904.707  34
   1  -8  -4 45676.4 914.615  16
   1  -8  -3 268.403 59.3708  34
   1  -8  -3 173.743 56.6718  16
   1  -8  -3 284.384 51.0890  23
  -1   8   2 25342.7 616.121  21
  -1   8   2 23274.1 1072.91  25
   1  -8  -2 23711.8 603.006  16
   1  -8  -2 24077.2 963.073  24
   1  -8  -2 24495.8 566.158  23
  -1   8   1 4477.18 470.150  25
   1  -8  -1 4341.30 207.400  23
  -1   8   1 5408.53 253.837  21
   1  -8  -1 4239.35 218.938  16
   1  -8  -1 3366.12 367.952  24
   1  -8  -1 4490.59 428.221   6
  -1   8   0 6266.91 562.958  25
   1  -8   0 6257.69 513.765   6
   1  -8   0 6474.05 507.831  24
   1  -8   0 6051.76 252.800  23
  -1   8   0 6117.10 276.856  21
   1  -8   0 5984.91 257.804  16
   1  -8   1 16072.5 456.514  23
   1  -8   1 17843.6 883.217  24
  -1   8  -1 16470.2 499.394  21
   1  -8   1 17780.2 891.731   6
  -1   8  -2 3210.58 177.128  17
   1  -8   2 2762.19 349.135   6
   1  -8   3 104335. 2511.30  24
  -1   8  -3 100287. 1756.03  17
  -1   8  -4 2958.57 192.923  21
  -1   8  -4 2714.01 175.228  17
  -1   8  -5 21011.6 570.414  21
  -1   8  -5 20206.5 522.703  33
  -1   8  -5 21537.1 574.320  17
   1  -8   5 18886.5 920.623  24
   1  -8   5 20177.6 529.607  23
  -1   8  -5 19936.3 1043.78  25
  -1   8  -6 1937.89 322.856  25
  -1   8  -6 2058.59 148.933  33
  -1   8  -6 2173.47 162.138  21
   1  -8   6 2020.65 293.127  24
  -1   8  -6 2100.09 161.772  17
   1  -8   6 2234.44 151.926  23
  -1   8  -7 426.913 79.5405  17
  -1   8  -7 179.840 55.0876  33
   1  -8   7 320.618 117.318  24
   1  -8   7 313.004 60.5499  23
  -1   8  -7 423.410 158.279  25
   1  -8   8 10573.6 334.051  23
  -1   8  -9 6421.31 281.225  17
  -1   8  -9 6143.97 298.731  32
  -1   8 -10 41080.7 851.418  17
  -1   8 -10 38316.1 845.792  10
  -1   8 -10 37192.4 875.783  32
  -1   8 -10 42196.1 884.057  30
  -1   8 -11 3059.22 175.984  30
  -1   8 -11 2843.32 164.681  10
  -1   8 -12 12569.3 350.292  30
  -1   8 -12 12411.3 338.150  10
  -1   8 -12 11649.1 357.000  31
  -1   8 -13 1095.85 77.5298  30
  -1   8 -13 1073.39 82.5953  31
   1  -7  -9 19836.7 440.616   4
   1  -7  -9 18836.0 407.088  11
   1  -7  -8 434.683 68.5897   4
   1  -7  -8 349.102 57.4166  11
   1  -7  -8 325.561 53.3227  16
   1  -7  -7 20079.9 546.575   4
   1  -7  -6 883.374 98.6424  16
   1  -7  -6 908.416 110.666   4
   1  -7  -5 2475.58 177.196   4
   1  -7  -5 2501.93 170.709  16
   1  -7  -4 15400.5 464.814  16
   1  -7  -3 3866.32 177.320  23
   1  -7  -3 3928.85 212.337  16
  -1   7   3 4250.79 205.866  21
   1  -7  -3 3249.54 317.948  24
  -1   7   3 3843.87 402.416  25
   1  -7  -2 43111.8 852.811  23
   1  -7  -2 44825.4 1422.59   6
  -1   7   2 46779.7 915.612  21
   1  -7  -2 43935.0 1350.45  24
   1  -7  -2 41779.1 898.957  16
  -1   7   2 42811.9 1465.23  25
   1  -7  -1 1447.32 226.997  24
   1  -7  -1 1803.43 258.076   6
  -1   7   1 1653.88 131.088  21
  -1   7   1 1296.79 112.809  29
   1  -7  -1 1276.86 113.348  16
   1  -7   0 62134.2 1164.33  16
   1  -7   0 63836.5 1762.32   6
  -1   7   0 62136.7 1184.35  29
   1  -7   0 66911.8 1829.37  24
  -1   7   0 63858.7 1197.87  21
   1  -7   1 10272.2 322.346  16
  -1   7  -1 9404.66 303.689  17
  -1   7  -1 10048.1 344.246  29
  -1   7  -1 9487.71 336.516  21
   1  -7   1 10116.4 614.988  24
  -1   7  -2 321.775 65.6744  29
  -1   7  -2 206.142 46.5672  17
  -1   7  -2 166.215 51.3865  21
   1  -7   3 21497.8 930.644  24
  -1   7  -3 23232.6 583.290  29
  -1   7  -3 22177.7 556.973  17
  -1   7  -4 1553.88 128.574  21
   1  -7   4 1557.51 241.226  24
  -1   7  -4 1396.94 122.694  17
  -1   7  -5 64253.2 1219.71  21
   1  -7   5 62570.1 1760.67  24
  -1   7  -5 67395.6 1249.07  17
  -1   7  -5 62620.9 1189.35  33
  -1   7  -6 12895.2 396.706  21
   1  -7   6 13344.5 715.544  24
  -1   7  -6 13633.7 408.689  33
  -1   7  -6 13258.5 420.211  17
   1  -7   6 11645.6 365.884  23
  -1   7  -6 12821.2 759.554  25
  -1   7  -7 34485.4 762.507  33
  -1   7  -7 31886.9 1200.91  25
  -1   7  -7 32410.2 709.910  21
   1  -7   7 33657.4 703.886  23
  -1   7  -8 66362.1 1288.12  17
  -1   7  -9 1193.14 119.945  17
  -1   7  -9 1222.37 130.777  32
  -1   7  -9 1193.38 104.059  35
  -1   7 -10 6334.24 298.759  32
  -1   7 -10 6951.75 280.003  17
  -1   7 -10 6747.22 302.555  30
  -1   7 -10 6037.18 245.578  35
  -1   7 -10 6470.70 284.127  10
  -1   7 -11 1807.83 128.581  17
  -1   7 -11 1854.91 139.980  10
  -1   7 -11 1585.94 118.573  35
  -1   7 -11 1712.03 144.438  30
  -1   7 -12 20966.5 504.779  10
  -1   7 -12 19387.4 520.870  31
  -1   7 -12 19995.7 519.123  30
  -1   7 -13 5244.17 210.419  31
  -1   7 -13 5243.20 206.255  30
  -1   7 -14 3578.72 131.687  30
  -1   7 -14 3716.14 135.568  31
   1  -6 -10 800.053 57.4323   3
   1  -6 -10 931.169 72.5423  36
   1  -6  -9 6719.53 245.163  36
   1  -6  -9 7456.31 280.451   4
   1  -6  -9 6680.33 242.390  11
   1  -6  -9 7377.61 246.417  16
   1  -6  -9 6049.35 220.471   3
   1  -6  -8 5557.86 235.721  16
   1  -6  -8 5007.19 220.900   3
   1  -6  -8 5463.41 262.951   4
   1  -6  -8 5283.63 237.940  34
   1  -6  -7 53952.8 1078.75  16
   1  -6  -7 57246.7 1150.23   4
   1  -6  -7 52770.0 1065.94   3
   1  -6  -7 56165.6 1098.65  34
   1  -6  -6 14173.9 443.084  34
   1  -6  -6 14684.4 474.923   4
   1  -6  -5 30408.3 722.850  16
   1  -6  -5 31224.6 747.771   4
   1  -6  -4 18285.2 509.067  16
   1  -6  -4 17816.5 687.964  24
   1  -6  -3 4667.37 361.166  24
   1  -6  -3 4807.16 191.378  23
   1  -6  -3 4589.24 397.242   6
   1  -6  -3 5274.69 235.288  16
  -1   6   3 5362.87 433.676  25
  -1   6   3 5088.36 214.181  21
   1  -6  -2 5786.77 432.701   6
   1  -6  -2 5796.30 417.519  24
   1  -6  -2 5306.67 228.629  16
  -1   6   2 5446.00 225.071  21
  -1   6   2 5585.56 221.269  29
   1  -6  -1 1080.70 180.652  24
   1  -6  -1 1262.06 102.289  16
   1  -6  -1 1191.10 193.792   6
  -1   6   1 1383.06 107.976  21
   1  -6   0 90437.2 2076.39  24
  -1   6   0 95255.3 1589.48  21
  -1   6   0 94997.1 1864.44   7
  -1   6  -1 12137.8 354.088  21
  -1   6  -1 12281.7 467.992   7
   1  -6   2 11816.1 602.934  24
  -1   6  -3 36067.1 765.434  29
   1  -6   3 38398.1 1175.62  24
  -1   6  -3 37640.3 760.099  21
  -1   6  -4 1462.84 114.481  17
  -1   6  -4 1420.87 109.496  21
   1  -6   4 1376.01 201.550  24
   1  -6   5 117.023 66.2538  24
  -1   6  -5 175.511 41.9384  21
  -1   6  -5 257.493 54.7162  17
   1  -6   6 5238.28 402.659  24
  -1   6  -6 5625.46 442.347  25
  -1   6  -6 5513.33 221.023  21
  -1   6  -6 5248.94 230.956  33
  -1   6  -7 74888.5 1376.30  33
  -1   6  -7 74698.1 1295.73  21
  -1   6  -7 76699.0 1877.72  25
  -1   6  -7 77350.1 1384.54  17
  -1   6  -7 76433.9 1293.72  35
  -1   6  -8 290.842 64.4484  17
  -1   6  -8 260.656 62.2379  32
  -1   6  -8 167.718 47.8659  35
  -1   6  -9 88271.6 1618.23  32
  -1   6  -9 84514.1 1526.92  35
  -1   6  -9 89087.0 1566.74  17
  -1   6  -9 84759.7 1571.97  10
  -1   6 -10 37222.3 806.516  35
  -1   6 -10 37654.9 871.493  30
  -1   6 -10 35350.0 750.697   1
  -1   6 -10 37266.4 832.030  10
  -1   6 -10 37711.5 799.551  17
  -1   6 -11 225.843 58.4086  35
  -1   6 -11 259.263 72.8410  30
  -1   6 -11 211.101 47.2384   1
  -1   6 -11 330.472 67.1432  10
  -1   6 -12 573.076 65.1099   1
  -1   6 -12 505.899 79.9375  31
  -1   6 -12 602.521 79.4140  35
  -1   6 -12 497.052 82.1081  30
  -1   6 -13 667.151 80.3828  31
  -1   6 -13 815.646 89.4052  30
  -1   6 -14 6101.41 198.517  31
  -1   6 -14 5949.43 202.194  30
   1  -5 -11 6336.38 198.488   3
   1  -5 -10 10055.7 315.456  36
   1  -5 -10 10681.5 303.640  16
   1  -5 -10 10306.0 320.574   3
   1  -5 -10 10029.2 290.250  11
   1  -5  -9 14991.6 433.133  11
   1  -5  -9 16422.4 443.294  16
   1  -5  -9 16015.3 460.740   3
   1  -5  -8 1101.62 119.764   3
   1  -5  -8 1081.04 112.863  34
   1  -5  -8 1168.38 117.003  16
   1  -5  -7 96.5499 48.1810  16
   1  -5  -7 93.5318 54.4837   4
   1  -5  -7 51.3521 44.9022  34
   1  -5  -6 130.998 47.6478   4
   1  -5  -6 38.2512 36.8690  34
   1  -5  -5 51776.5 1024.06  34
  -1   5   4 43930.5 1238.81  25
   1  -5  -4 42486.7 1116.58  24
   1  -5  -4 45533.8 910.719  16
   1  -5  -3 47882.0 926.448  15
   1  -5  -3 48410.6 940.454  16
  -1   5   3 50090.6 1359.48  25
  -1   5   3 49075.7 896.101  21
   1  -5  -3 46678.9 1347.83   6
   1  -5  -2 46642.4 1293.68   6
  -1   5   2 43529.1 831.948  21
  -1   5   1 26.6807 20.6110  21
   1  -5  -1 29.9290 35.9182  24
   1  -5  -1 64.5121 45.3911   6
   1  -5   0 9360.24 479.789  24
  -1   5   0 9402.57 276.153  21
  -1   5  -1 1577.58 154.535   7
  -1   5  -1 1571.75 100.514  21
  -1   5  -2 170931. 2779.51   7
   1  -5   2 150515. 2971.81  24
   1  -5   3 167142. 3030.99  24
  -1   5  -3 161563. 2530.41  21
   1  -5   4 54737.7 1325.47  24
  -1   5  -4 48252.9 891.532  21
  -1   5  -5 73738.9 1230.95  35
  -1   5  -5 74067.9 1265.16  21
  -1   5  -6 469.106 56.0053  21
  -1   5  -6 444.651 63.7227  17
  -1   5  -6 444.122 54.7661  35
  -1   5  -6 451.565 115.331  25
   1  -5   6 414.533 104.768  24
   1  -5   7 6938.11 402.836  24
  -1   5  -7 6977.91 428.095  25
  -1   5  -7 8067.59 301.732   9
  -1   5  -7 7660.03 280.505  17
  -1   5  -7 7421.96 258.404  35
  -1   5  -8 125.455 42.6555  35
  -1   5  -8 114.474 35.9036   1
  -1   5  -8 197.347 52.6419  17
  -1   5  -9 4130.79 229.448  32
  -1   5  -9 4293.68 234.617   9
  -1   5  -9 3897.06 206.075  35
  -1   5  -9 4096.18 202.410  17
  -1   5  -9 3806.37 210.442  10
  -1   5  -9 4029.24 237.636  30
  -1   5  -9 3981.19 198.291   1
  -1   5 -10 34642.4 781.492  10
  -1   5 -10 33169.8 766.684  35
  -1   5 -10 33485.2 737.604   1
  -1   5 -10 32588.7 707.033  17
  -1   5 -10 33715.3 817.376  30
  -1   5 -11 4192.95 207.111   1
  -1   5 -11 4324.53 246.144  30
  -1   5 -11 4701.79 233.993  35
  -1   5 -11 4214.03 237.464  31
  -1   5 -11 4124.62 220.212  10
  -1   5 -12 32392.5 716.970  35
  -1   5 -12 31095.3 671.554   1
  -1   5 -12 32465.6 755.127  30
  -1   5 -12 30073.8 730.769  31
  -1   5 -13 236.160 60.7371  30
  -1   5 -13 367.800 64.6707  31
  -1   5 -14 3866.66 145.713   8
   1  -4 -12 446.157 52.8036   3
   1  -4 -11 45.3480 39.4708   3
   1  -4 -11 42.7883 24.0240  16
   1  -4 -11 50.3027 31.3727  36
   1  -4 -10 13753.7 418.996  36
   1  -4 -10 15391.1 465.836   4
   1  -4 -10 13817.5 434.141   3
   1  -4 -10 13609.3 382.305  11
   1  -4 -10 15121.3 405.564  16
   1  -4  -9 19802.7 584.372   4
   1  -4  -9 20434.2 534.166  16
   1  -4  -9 18465.4 550.658   3
   1  -4  -8 18101.9 555.669   4
   1  -4  -8 17599.3 484.871  15
   1  -4  -8 18128.8 497.061   8
   1  -4  -8 18633.9 518.204  16
   1  -4  -8 18041.4 522.967  34
   1  -4  -7 32959.8 724.716   8
   1  -4  -7 31471.6 740.124  34
   1  -4  -7 30759.2 706.411  15
   1  -4  -7 32954.9 743.854  16
   1  -4  -6 89.6080 38.8631  16
   1  -4  -6 98.2163 40.3105  34
   1  -4  -6 177.531 47.1683  15
   1  -4  -5 1136.03 101.580  34
   1  -4  -5 1285.76 104.575  15
   1  -4  -4 2861.70 287.694  22
   1  -4  -4 3132.70 229.300  24
  -1   4   4 3461.51 270.298  25
   1  -4  -3 59812.7 1338.46  24
   1  -4  -3 63566.6 1529.86  22
  -1   4   3 61331.5 1031.98  21
  -1   4   3 63363.9 1433.99  25
   1  -4  -3 58437.2 1471.28   6
   1  -4  -2 57520.9 1296.18  24
  -1   4   2 56372.1 968.048  21
   1  -4  -1 63587.0 1355.26  24
   1  -4  -1 61360.2 1383.11   6
   1  -4   0 127954. 2341.93  24
  -1   4   0 125414. 1955.34  21
  -1   4  -1 3419.41 134.004  21
  -1   4  -1 3463.87 214.382   7
  -1   4  -2 17772.6 530.696   7
  -1   4  -2 15651.5 351.390  21
   1  -4   3 539.868 99.1383  24
  -1   4  -3 389.673 43.8016  21
   1  -4   4 26875.0 780.870  24
  -1   4  -4 26300.4 512.268  21
  -1   4  -5 42840.1 767.135  35
   1  -4   5 42305.3 1059.99  24
  -1   4  -5 42293.9 753.142  21
  -1   4  -5 44703.9 1120.54  25
  -1   4  -6 12907.4 531.890  25
  -1   4  -6 12561.8 329.825  35
   1  -4   6 12234.8 493.281  24
  -1   4  -6 12244.5 293.487  21
  -1   4  -7 160482. 2520.77  12
  -1   4  -7 162063. 2487.89  35
  -1   4  -7 154271. 2489.24  17
  -1   4  -7 157832. 2773.44  25
  -1   4  -8 2204.59 136.998  17
  -1   4  -8 2385.83 160.475  32
  -1   4  -8 2301.38 144.879   1
  -1   4  -8 2290.49 146.513  12
  -1   4  -8 2459.28 151.434   3
  -1   4  -8 2158.13 156.283   9
  -1   4  -8 2360.29 149.290  35
  -1   4  -8 2559.77 168.236   2
  -1   4  -9 20728.1 591.331  30
  -1   4  -9 19299.3 532.847  10
  -1   4  -9 21302.4 542.490   3
  -1   4  -9 20113.6 537.977  35
  -1   4  -9 19571.4 485.210  17
  -1   4  -9 20134.4 528.450   1
  -1   4  -9 20623.6 568.302   9
  -1   4 -10 667.639 72.5813  17
  -1   4 -10 956.123 113.070   2
  -1   4 -10 733.968 96.2741  10
  -1   4 -10 943.938 121.567  30
  -1   4 -10 880.944 106.742   9
  -1   4 -10 858.573 102.873   3
  -1   4 -10 814.583 96.5147   1
  -1   4 -10 710.448 97.1469  35
  -1   4 -11 296.254 63.0836   1
  -1   4 -11 359.581 72.4538  35
  -1   4 -11 216.302 63.4356   2
  -1   4 -11 234.294 62.7280   3
  -1   4 -11 269.604 69.0852  31
  -1   4 -12 17193.4 466.945   1
  -1   4 -12 17077.1 482.266  35
  -1   4 -12 17344.5 508.181  31
  -1   4 -13 1193.84 107.919  31
  -1   4 -14 22931.0 468.981   8
   1  -3 -13 4373.71 140.894   2
   1  -3 -13 4898.59 160.864   3
   1  -3 -12 19846.2 469.218  36
   1  -3 -12 21639.5 501.622   3
   1  -3 -11 927.262 82.5601  16
   1  -3 -11 1022.60 102.006  36
   1  -3 -11 991.439 107.311   3
   1  -3 -10 346.106 65.4180  16
   1  -3 -10 374.249 66.8494   8
   1  -3 -10 312.121 56.0258  11
   1  -3 -10 364.463 80.9294   4
   1  -3 -10 662.421 99.1293   3
   1  -3 -10 376.252 64.5447  15
   1  -3 -10 580.625 84.1817  36
   1  -3  -9 18.0060 43.8909   4
   1  -3  -9 161.420 49.4304   8
   1  -3  -9 34.2318 35.8265  15
   1  -3  -9 27.7198 38.1156  16
   1  -3  -8 11330.7 363.924   8
   1  -3  -8 11494.2 377.429  16
   1  -3  -8 10220.2 343.275  15
   1  -3  -8 10419.4 397.899   4
   1  -3  -8 10378.1 374.293  34
   1  -3  -7 48281.0 915.797   8
   1  -3  -7 44801.0 904.251  15
   1  -3  -7 47124.4 936.089  16
   1  -3  -7 46312.9 972.556   4
   1  -3  -6 10353.0 318.948   8
   1  -3  -6 10050.3 327.853  16
   1  -3  -6 9803.17 326.055  34
   1  -3  -6 11347.3 360.173   4
   1  -3  -6 10840.9 558.948  22
   1  -3  -6 9649.22 311.135  15
   1  -3  -5 158161. 2888.88  22
   1  -3  -5 145146. 2358.83  34
   1  -3  -4 1658.16 139.421  24
   1  -3  -4 1328.83 175.757  22
  -1   3   4 1717.81 164.743  25
   1  -3  -3 42689.3 1104.67  22
  -1   3   3 43137.4 1010.95  25
   1  -3  -3 46100.1 1127.02   6
   1  -3  -3 43244.2 964.844  24
   1  -3  -2 1650.05 169.331   6
   1  -3  -1 18920.4 597.157  22
   1  -3  -1 14056.7 501.260   6
   1  -3   0 122366. 2172.35  22
  -1   3  -1 3591.05 197.468   7
  -1   3  -2 307455. 4794.27   7
  -1   3  -3 18692.5 574.354   7
  -1   3  -4 84048.0 1629.61  25
  -1   3  -5 236.485 40.3622  35
  -1   3  -5 276.490 78.5170  25
   1  -3   5 260.253 62.3866  24
  -1   3  -6 4004.83 233.520  25
  -1   3  -6 3902.34 162.443  35
   1  -3   6 3565.99 209.262  24
  -1   3  -7 23029.6 528.641  35
  -1   3  -7 22854.9 551.559  32
  -1   3  -7 24405.7 572.365   9
  -1   3  -7 23999.3 541.915  10
  -1   3  -8 2875.27 175.255   9
  -1   3  -8 3287.99 194.685   2
  -1   3  -8 2930.03 168.958   3
  -1   3  -8 2861.78 165.147   1
  -1   3  -8 2927.11 162.843  35
  -1   3  -8 2825.77 163.686  10
  -1   3  -8 2934.87 158.390  12
  -1   3  -8 2945.19 185.417  30
  -1   3  -9 85201.8 1520.71   1
  -1   3  -9 85809.5 1537.40   9
  -1   3  -9 79211.5 1499.86  10
  -1   3  -9 84585.1 1531.93   3
  -1   3  -9 79883.6 1501.02  35
  -1   3 -10 8669.00 330.051   9
  -1   3 -10 8840.57 334.754   1
  -1   3 -10 8344.00 345.710  31
  -1   3 -10 8121.94 324.696  35
  -1   3 -10 9311.74 352.648   3
  -1   3 -10 9731.86 381.586   2
  -1   3 -11 3499.45 211.114   3
  -1   3 -11 3148.33 194.877  35
  -1   3 -11 3021.03 204.861  31
  -1   3 -11 3192.56 195.535   1
  -1   3 -11 3428.00 217.973   2
  -1   3 -11 3088.19 185.306   9
  -1   3 -12 1937.67 152.647   2
  -1   3 -12 1835.19 139.445   1
  -1   3 -12 1854.40 146.007   3
  -1   3 -12 1673.69 136.374  35
  -1   3 -12 1856.79 158.967  30
  -1   3 -12 1693.45 144.552  31
  -1   3 -13 30.1202 34.7957   2
  -1   3 -13 146.663 40.4509   8
  -1   3 -13 106.001 50.2961  30
  -1   3 -14 2505.15 115.843   8
   1  -2 -13 2076.14 112.019   2
   1  -2 -12 3557.66 171.214   8
   1  -2 -12 3143.27 169.638  36
   1  -2 -11 1516.78 140.658   3
   1  -2 -11 1536.52 111.897  15
   1  -2 -11 1456.26 122.622   8
   1  -2 -11 1626.47 134.929  36
   1  -2 -11 1372.86 105.306  16
   1  -2 -10 22358.8 623.635   4
   1  -2 -10 21677.7 513.767  35
   1  -2 -10 22424.7 569.905   8
   1  -2 -10 22086.7 539.697  15
   1  -2 -10 21340.5 542.851  16
   1  -2 -10 19875.1 569.751  36
   1  -2 -10 19700.8 595.962   3
   1  -2  -9 1549.68 129.224   8
   1  -2  -9 1183.13 114.337  16
   1  -2  -9 1402.30 118.142  15
   1  -2  -9 1548.57 113.309  35
   1  -2  -8 29477.1 746.010   4
   1  -2  -8 31324.5 701.939  16
   1  -2  -8 32022.0 653.271  35
   1  -2  -8 29131.7 976.047  22
   1  -2  -8 29459.2 691.237  30
   1  -2  -8 32470.3 702.382   8
   1  -2  -8 30469.5 679.498  15
   1  -2  -7 584.456 62.2569  35
   1  -2  -7 552.729 69.9990   8
   1  -2  -7 579.920 125.983  22
   1  -2  -7 466.785 73.9191   4
   1  -2  -7 667.591 78.1916  30
   1  -2  -7 403.566 63.3182  34
   1  -2  -6 3434.42 171.846  34
   1  -2  -6 3519.85 143.918  35
   1  -2  -6 3653.35 290.952  22
   1  -2  -5 26394.0 563.254  34
   1  -2  -5 26934.3 510.701  35
   1  -2  -4 46047.8 847.101  34
   1  -2  -4 47790.4 1136.44  22
   1  -2  -3 184490. 3161.20   6
  -1   2   3 183157. 3049.93  25
  -1   2   2 111037. 1839.45  25
   1  -2  -2 100526. 1887.60   6
  -1   2   1 223699. 3525.11  25
   1  -2   0 5827.52 241.350  22
  -1   2  -1 2080.15 136.588   7
   1  -2   1 1844.74 120.377  22
  -1   2  -2 67663.4 1259.17   7
  -1   2  -2 62610.7 1217.42  25
  -1   2  -3 540.268 76.3815  25
  -1   2  -4 134338. 2237.00  25
  -1   2  -5 118923. 1887.76  35
   1  -2   5 121409. 1975.77  24
  -1   2  -5 122034. 1915.87  36
  -1   2  -6 6673.92 221.572  35
  -1   2  -6 6960.10 240.773  36
  -1   2  -7 30802.6 652.497  35
  -1   2  -7 32471.7 692.597  36
  -1   2  -8 2865.31 163.277  10
  -1   2  -8 3092.07 176.235   9
  -1   2  -8 3196.81 185.338  31
  -1   2  -8 3482.41 203.201   2
  -1   2  -8 2951.35 176.918  36
  -1   2  -8 2980.11 176.533   3
  -1   2  -8 3103.09 169.596  35
  -1   2  -8 3315.66 178.275   1
  -1   2  -9 2236.75 163.362   3
  -1   2  -9 1968.90 144.773   1
  -1   2  -9 1899.34 161.604   2
  -1   2  -9 2168.96 168.783  30
  -1   2  -9 1693.56 143.581  31
  -1   2  -9 1987.40 144.615   9
  -1   2 -10 1198.97 129.973  31
  -1   2 -10 1279.53 117.515   9
  -1   2 -10 1224.49 121.624   1
  -1   2 -10 1473.57 146.972  30
  -1   2 -10 1204.12 136.656   2
  -1   2 -10 1205.29 129.038   3
  -1   2 -11 44637.1 1014.08  31
  -1   2 -11 48761.7 1057.89  30
  -1   2 -11 49280.0 1000.39   1
  -1   2 -11 50426.3 1075.13   2
  -1   2 -11 46905.1 1019.74   3
  -1   2 -11 46357.7 944.720   9
  -1   2 -12 15445.6 490.307  30
  -1   2 -12 16562.1 495.082   2
  -1   2 -12 15134.6 463.482   3
  -1   2 -12 15136.1 444.552   1
  -1   2 -12 14669.8 442.391  35
  -1   2 -13 10091.3 303.171   8
  -1   2 -13 9885.86 321.396   2
  -1   2 -13 10056.1 321.127   3
  -1   2 -14 7659.13 214.551   8
   1  -1 -14 310.810 43.3495   3
   1  -1 -13 20293.2 501.480   3
   1  -1 -13 21175.7 473.757   8
   1  -1 -13 20941.0 479.596   2
   1  -1 -12 1439.68 127.720   3
   1  -1 -12 1540.71 118.181   8
   1  -1 -12 1372.16 116.988  36
   1  -1 -11 1671.63 143.130  36
   1  -1 -11 1921.24 160.757   3
   1  -1 -11 1912.35 146.301   8
   1  -1 -11 1668.26 116.914  16
   1  -1 -11 1805.30 125.106  15
   1  -1 -11 1794.49 131.104  35
   1  -1 -10 82845.2 1445.41  16
   1  -1 -10 79203.6 1521.99  36
   1  -1 -10 77111.5 1545.91   3
   1  -1 -10 80967.0 1457.60  15
   1  -1 -10 84881.9 1579.32   4
   1  -1 -10 78807.4 1512.76  30
   1  -1 -10 89713.7 1527.39   8
   1  -1 -10 83791.0 1472.34  35
   1  -1  -9 148.320 47.9699  36
   1  -1  -9 161.847 49.2290  35
   1  -1  -9 172.874 55.7232  30
   1  -1  -9 110.829 41.8492  16
   1  -1  -9 161.403 58.1525   4
   1  -1  -8 46463.2 1227.70  22
   1  -1  -8 47962.1 915.704  35
   1  -1  -7 9271.50 465.051  22
   1  -1  -7 9665.18 318.740  34
   1  -1  -7 9877.72 294.567  35
   1  -1  -6 44469.4 790.059  35
   1  -1  -6 41147.8 819.446  34
   1  -1  -6 42657.3 1083.43  22
   1  -1  -5 50602.8 851.606  35
   1  -1  -5 47248.2 880.730  34
  -1   1   4 20857.5 460.320  26
   1  -1  -4 22238.5 644.913  22
   1  -1  -3 28705.8 703.845  22
  -1   1   3 26766.7 593.087  26
   1  -1  -2 2982.87 156.410   6
  -1   1   1 14770.6 382.857  25
   1  -1  -1 14567.0 340.929   6
  -1   1   1 14630.0 378.575  19
   1  -1   0 1390.79 93.4685  22
  -1   1   0 1559.49 105.933  25
  -1   1  -1 38992.2 766.516  25
   1  -1   1 39250.3 678.454  22
  -1   1  -1 39699.8 768.225  19
  -1   1  -2 71883.8 1246.15  25
  -1   1  -3 2449.21 127.756  26
  -1   1  -4 2404.27 116.057  26
  -1   1  -5 656.915 58.4131  35
  -1   1  -5 524.555 54.6414  36
  -1   1  -6 146039. 2316.83  36
  -1   1  -7 38467.5 797.962   3
  -1   1  -7 37602.4 801.850  30
  -1   1  -7 40173.3 778.083   1
  -1   1  -7 38348.9 793.877  36
  -1   1  -7 37970.8 787.051  31
  -1   1  -8 33539.1 727.650   1
  -1   1  -8 33448.9 759.432   3
  -1   1  -8 32652.7 753.247  31
  -1   1  -8 34363.0 770.316  30
  -1   1  -8 33841.3 760.577  36
  -1   1  -8 32001.3 714.182  35
  -1   1  -9 26671.3 618.057   9
  -1   1  -9 25234.0 656.790   3
  -1   1  -9 25291.0 622.404  35
  -1   1  -9 25389.3 665.818  30
  -1   1  -9 25337.3 626.243   1
  -1   1  -9 25593.6 663.569  31
  -1   1  -9 25283.6 656.503  36
  -1   1 -10 2119.96 174.695  30
  -1   1 -10 2088.20 141.617   9
  -1   1 -10 2175.22 158.469   1
  -1   1 -10 2131.95 169.922  31
  -1   1 -10 2062.38 167.813   3
  -1   1 -10 2129.34 180.508   2
  -1   1 -10 1795.02 160.403  36
  -1   1 -10 1880.91 150.027  35
  -1   1 -11 308.060 81.5503  30
  -1   1 -11 160.248 44.1657   9
  -1   1 -11 253.953 60.1190   8
  -1   1 -11 167.653 63.3218   3
  -1   1 -11 187.734 56.3945   1
  -1   1 -12 418.365 69.6010   1
  -1   1 -12 430.467 67.9304   8
  -1   1 -12 372.984 74.5915   3
  -1   1 -12 480.655 82.7660   2
  -1   1 -13 6914.53 255.647   3
  -1   1 -13 7494.72 242.853   8
  -1   1 -13 7192.01 263.374   2
  -1   1 -14 9275.07 228.829   8
   1   0 -14 13.1821 24.9608   3
   1   0 -14 9.55788 16.4449   8
   1   0 -13 21805.2 440.422   3
   1   0 -13 23415.9 414.778   8
   1   0 -12 2677.32 175.196   2
   1   0 -12 2585.20 176.630   3
   1   0 -12 2811.30 163.557  35
   1   0 -12 2488.50 160.004   8
   1   0 -12 2558.11 169.420  30
   1   0 -11 15236.9 496.819   3
   1   0 -11 15990.4 429.909  15
   1   0 -11 16655.2 470.457  35
   1   0 -11 16081.1 497.926  30
   1   0 -11 15714.9 486.850  36
   1   0 -10 27605.1 697.319  36
   1   0 -10 29801.0 683.030  35
   1   0 -10 27884.9 726.724   3
   1   0 -10 27579.8 624.951  16
   1   0 -10 28311.1 709.157  30
   1   0  -9 1449.27 136.549   4
   1   0  -9 1348.88 123.834  36
   1   0  -9 1366.72 118.150  31
   1   0  -9 1511.62 127.247  35
   1   0  -9 1350.73 111.466   1
   1   0  -9 1335.06 126.988  30
   1   0  -8 435.435 60.7714   1
   1   0  -8 326.743 86.9354  22
   1   0  -8 322.912 63.6676  30
   1   0  -8 560.916 73.5934  36
   1   0  -8 402.990 60.9755  35
   1   0  -8 671.646 88.8857   4
   1   0  -8 523.007 72.3214  31
   1   0  -7 947.818 82.6557  35
   1   0  -7 791.825 129.892  22
   1   0  -6 78018.7 1545.88  22
   1   0  -6 70624.7 1214.53  35
   1   0  -5 51460.5 1137.97  22
  -1   0   4 144481. 2215.03  19
   1   0  -4 138646. 2210.48  20
   1   0  -3 125596. 2132.24  22
  -1   0   2 18386.3 427.331  26
  -1   0   1 245.602 40.1063  26
  -1   0   0 48996.0 871.101   7
  -1   0  -1 52192.3 954.374   7
  -1   0  -1 49486.3 896.144  26
  -1   0  -2 114892. 1822.31  26
   1   0   3 104695. 1695.16  20
  -1   0  -3 110504. 1740.30  19
   1   0   4 128183. 1965.02  20
  -1   0  -4 130433. 1987.85  35
  -1   0  -5 664.995 59.4869  35
  -1   0  -6 996.563 80.6957  35
  -1   0  -7 2756.20 165.500  31
  -1   0  -7 2747.68 174.660   4
  -1   0  -7 3328.04 177.032  36
  -1   0  -7 2950.52 155.404  35
  -1   0  -7 3155.41 160.542   1
  -1   0  -7 3073.86 175.032  30
  -1   0  -8 29970.9 727.910  31
  -1   0  -8 32192.1 701.570   1
  -1   0  -8 31727.3 737.683  36
  -1   0  -8 31908.3 702.392  35
  -1   0  -8 32975.2 710.287  11
  -1   0  -8 33860.3 691.839   9
  -1   0  -8 31860.5 745.568  30
  -1   0  -9 11374.6 405.245  36
  -1   0  -9 11342.4 363.267  11
  -1   0  -9 11016.8 369.561   1
  -1   0  -9 11555.1 407.631  31
  -1   0  -9 12189.4 359.476   9
  -1   0  -9 11579.8 382.365  35
  -1   0  -9 12593.5 427.405  30
  -1   0 -10 5221.90 271.566  30
  -1   0 -10 4683.40 231.124   1
  -1   0 -10 4869.03 237.683  35
  -1   0 -10 4815.51 230.565   8
  -1   0 -10 4741.03 253.382  36
  -1   0 -11 35950.8 773.333   8
  -1   0 -11 35181.0 813.804  36
  -1   0 -11 34888.4 767.585   1
  -1   0 -11 34707.6 845.559   2
  -1   0 -12 54.1537 41.5627   2
  -1   0 -12 61.1886 35.8452   8
  -1   0 -13 3066.99 156.513   2
  -1   0 -13 3202.97 141.724   8
   1   1 -14 520.307 61.1615   3
   1   1 -14 680.862 63.9782   8
   1   1 -13 568.041 74.0294  35
   1   1 -13 526.881 78.0141   3
   1   1 -13 497.179 68.7898   8
   1   1 -13 485.107 76.1709  30
   1   1 -12 406.870 77.5574  35
   1   1 -12 467.015 79.7817   2
   1   1 -12 358.699 79.0150  30
   1   1 -12 353.936 75.7311   3
   1   1 -12 253.214 47.3084  15
   1   1 -11 18297.1 553.769   3
   1   1 -11 19446.1 535.993  35
   1   1 -11 18112.4 552.750  30
   1   1 -11 18334.7 509.199  31
   1   1 -10 25255.3 633.944  31
   1   1 -10 27276.4 695.977   3
   1   1 -10 25060.5 677.751  30
   1   1 -10 26870.1 659.342  35
   1   1 -10 26573.7 659.600  36
   1   1 -10 27012.7 630.329   1
   1   1  -9 17763.1 492.377  35
   1   1  -9 16895.0 479.744  36
   1   1  -9 17945.3 482.764  31
   1   1  -9 18358.7 468.525   1
   1   1  -9 17153.3 511.235  30
   1   1  -8 92991.7 1597.34  10
   1   1  -8 93167.7 1574.23  31
   1   1  -8 90848.1 1584.78  35
   1   1  -8 96881.5 1562.36   1
   1   1  -8 92120.1 1573.52  36
   1   1  -7 1844.56 115.218  36
   1   1  -7 1770.81 187.670  22
   1   1  -7 1765.02 114.343  35
   1   1  -6 6949.57 369.600  22
   1   1  -6 9934.77 264.300  36
   1   1  -5 4116.59 176.654  20
   1   1  -5 4781.52 280.223  22
   1   1  -4 72572.4 1279.81  20
   1   1  -3 51256.0 965.372  20
   1   1  -2 221.662 43.9263  20
  -1  -1   1 6032.85 169.166   7
   1   1   0 18406.8 459.432  20
  -1  -1   0 17351.3 398.153   7
   1   1   1 125381. 2053.95  20
  -1  -1  -1 127430. 2092.86   6
   1   1   2 12841.2 358.970  20
   1   1   3 70300.0 1244.51  20
  -1  -1  -4 49581.8 861.024  35
   1   1   4 47748.2 915.804  20
  -1  -1  -5 23410.2 488.073  35
  -1  -1  -6 84079.3 1383.94  35
  -1  -1  -6 83678.9 1463.26   4
  -1  -1  -7 1047.38 97.4994  13
  -1  -1  -7 1255.53 101.691   8
  -1  -1  -7 1089.74 94.7045   1
  -1  -1  -7 999.130 98.6165  11
  -1  -1  -7 966.941 99.6609   3
  -1  -1  -7 978.309 104.367  30
  -1  -1  -7 995.827 90.1987  35
  -1  -1  -8 111562. 1980.84   3
  -1  -1  -8 115212. 1906.65   8
  -1  -1  -8 112791. 1938.57  11
  -1  -1  -8 117254. 1919.88  35
  -1  -1  -8 112217. 1981.71  30
  -1  -1  -8 113227. 1911.85   1
  -1  -1  -9 3627.27 195.607   8
  -1  -1  -9 3706.31 202.705  11
  -1  -1  -9 3703.36 195.853   1
  -1  -1  -9 3747.04 222.819   3
  -1  -1  -9 3846.54 219.703  36
  -1  -1 -10 114.561 46.5043   8
  -1  -1 -10 148.608 46.2765  11
  -1  -1 -10 158.368 57.5597  36
  -1  -1 -10 173.174 65.9441   3
  -1  -1 -10 156.587 48.7562   1
  -1  -1 -11 20623.3 557.455  36
  -1  -1 -11 22270.6 540.462   8
  -1  -1 -11 21428.7 572.272   3
  -1  -1 -12 1199.19 94.5491   8
  -1  -1 -12 1210.17 105.971   3
  -1  -1 -12 1325.58 116.851   2
  -1  -1 -13 19231.9 432.190   2
  -1  -1 -13 18692.3 418.911   3
   1   2 -15 5778.50 160.678   8
   1   2 -14 11551.3 266.410   8
   1   2 -14 10642.5 269.116  30
   1   2 -14 11125.7 267.929  35
   1   2 -13 34948.2 742.852   3
   1   2 -13 35049.3 748.080  35
   1   2 -13 33303.2 762.975  30
   1   2 -12 629.831 93.2823   3
   1   2 -12 849.995 94.3857  31
   1   2 -12 644.894 98.4828  30
   1   2 -12 681.289 93.6379  35
   1   2 -11 3277.76 200.358  35
   1   2 -11 3218.49 216.282  30
   1   2 -11 3078.85 200.819   3
   1   2 -11 3143.73 190.382  31
   1   2 -10 1293.59 127.240  10
   1   2 -10 1156.86 131.139  30
   1   2 -10 1223.95 110.233   1
   1   2 -10 995.814 106.430  31
   1   2 -10 1162.66 125.370   3
   1   2  -9 13744.0 420.535   3
   1   2  -9 13332.7 412.908  10
   1   2  -9 12624.0 368.176   1
   1   2  -8 7496.87 279.417  10
   1   2  -8 7340.90 250.254   1
   1   2  -8 6896.42 254.259  36
   1   2  -8 7779.61 422.401  22
   1   2  -7 79536.0 1361.73  35
   1   2  -7 77057.2 1336.11  36
   1   2  -6 150843. 2294.05  36
   1   2  -6 143754. 2450.12  20
   1   2  -5 2069.67 162.061  20
   1   2  -4 57093.4 1170.42  20
  -1  -2   3 5844.62 259.293  24
   1   2  -3 6844.72 302.583  20
   1   2  -2 18117.4 514.076  20
  -1  -2   2 19818.9 510.891  24
   1   2  -1 212264. 3424.97  20
  -1  -2   0 61705.1 1234.99  24
   1   2   0 65472.5 1288.28  20
  -1  -2  -1 208501. 3267.42   6
  -1  -2  -1 204713. 3204.36  24
   1   2   2 53238.1 1110.76  20
   1   2   3 57591.9 1211.25  20
  -1  -2  -3 62070.8 1020.66  34
  -1  -2  -4 19641.0 432.143  34
   1   2   4 17631.1 525.525  20
  -1  -2  -5 55.9906 23.4365  34
  -1  -2  -6 37231.0 757.702   8
  -1  -2  -6 41212.4 788.326  34
  -1  -2  -6 37480.9 791.013   3
  -1  -2  -6 39563.5 754.230   1
  -1  -2  -6 37356.6 819.409   4
  -1  -2  -6 34388.0 716.003  16
  -1  -2  -7 287.282 53.1938   1
  -1  -2  -7 254.926 49.6338   8
  -1  -2  -7 109.580 44.6212   4
  -1  -2  -7 42.5822 31.5420  11
  -1  -2  -7 209.217 50.1427  13
  -1  -2  -7 122.313 47.9588   3
  -1  -2  -8 24846.1 621.697  11
  -1  -2  -8 24149.6 584.080   1
  -1  -2  -8 24406.9 597.593   8
  -1  -2  -8 24660.7 666.096   4
  -1  -2  -8 25656.8 647.617   3
  -1  -2  -8 23864.9 546.837  16
  -1  -2  -9 4062.67 207.836   8
  -1  -2  -9 3746.31 221.173   3
  -1  -2  -9 3944.20 171.982  16
  -1  -2  -9 3917.20 195.870   1
  -1  -2  -9 3756.01 207.630  11
  -1  -2 -10 13272.7 397.616   8
  -1  -2 -10 13506.0 434.598   3
  -1  -2 -10 13478.5 395.933  11
  -1  -2 -11 8891.97 288.725   3
  -1  -2 -11 8200.27 273.537  36
  -1  -2 -12 141.094 40.0795   3
  -1  -2 -12 97.3977 39.4256   2
  -1  -2 -13 1083.34 67.9366   2
   1   3 -15 149.561 26.4837   8
   1   3 -14 1502.44 102.580   8
   1   3 -14 1425.00 108.713  30
   1   3 -14 1425.52 104.981  35
   1   3 -13 1443.16 128.325  30
   1   3 -13-12.3480 25.1474   3
   1   3 -12 3258.68 212.505  30
   1   3 -12 3308.27 186.746   3
   1   3 -12 3057.41 182.577  31
   1   3 -11 57703.0 1159.03  10
   1   3 -11 54751.2 1138.57  35
   1   3 -11 55114.2 1192.61  30
   1   3 -11 54104.2 1113.83  31
   1   3 -10 3881.96 206.144   3
   1   3 -10 3392.70 205.585  35
   1   3 -10 3376.77 179.436   1
   1   3 -10 3832.11 218.289  10
   1   3  -9 21014.9 551.698  10
   1   3  -9 20315.9 490.901   1
   1   3  -8 1992.46 120.084   1
   1   3  -8 1975.55 147.533  33
   1   3  -8 1731.46 204.218  22
   1   3  -8 1793.19 128.800  35
   1   3  -8 1736.06 130.445  10
   1   3  -8 1849.48 130.227  32
   1   3  -7 223.371 46.7539  35
   1   3  -7 646.508 84.5255  33
   1   3  -6 44030.2 1076.60  20
   1   3  -5 11071.2 475.539  20
  -1  -3   4 229357. 3726.34  24
   1   3  -4 228635. 3860.78  20
   1   3  -3 16098.5 578.968  20
  -1  -3   3 16667.9 535.949  24
  -1  -3   2 131654. 2309.65  24
   1   3  -1 20377.0 659.010  20
  -1  -3   0 8813.17 371.116   6
   1   3   0 8201.38 396.232  20
  -1  -3   0 8323.05 366.530  24
  -1  -3  -1 37166.1 928.452   6
   1   3   1 34499.3 929.032  20
  -1  -3  -1 34958.4 869.126  24
   1   3   2 6663.72 359.476  20
  -1  -3  -2 6734.80 201.120  34
  -1  -3  -2 6511.54 363.009   6
  -1  -3  -3 228106. 3473.05  34
   1   3   3 229191. 3440.89  21
  -1  -3  -4 32336.1 647.177  34
  -1  -3  -5 50694.5 974.668   8
  -1  -3  -5 52005.7 957.707  16
  -1  -3  -5 50913.9 1016.47   4
  -1  -3  -5 50921.4 979.537   3
  -1  -3  -6 18893.0 528.620   4
  -1  -3  -6 19489.2 457.165   1
  -1  -3  -6 18688.3 485.217   8
  -1  -3  -6 18774.1 498.331   3
  -1  -3  -6 18584.8 490.380  34
  -1  -3  -6 18196.6 460.479  16
  -1  -3  -7 66.3055 30.8823   1
  -1  -3  -7 5.46382 25.4241  16
  -1  -3  -7 269.092 62.9964  11
  -1  -3  -7 328.488 58.7320   8
  -1  -3  -7 175.090 53.0930   4
  -1  -3  -7 90.4185 45.3496   3
  -1  -3  -8 51.1313 33.2691  16
  -1  -3  -8 70.6980 46.8459   3
  -1  -3  -8 59.5985 41.2366  36
  -1  -3  -8 19.3020 33.2295   8
  -1  -3  -8 33.7749 46.4480   4
  -1  -3  -9 802.604 101.608   3
  -1  -3  -9 667.765 72.5997  16
  -1  -3  -9 555.834 83.3966  11
  -1  -3 -10 30105.1 685.717   3
  -1  -3 -10 29298.7 649.670  11
  -1  -3 -11 1.62608 12.0325  11
  -1  -3 -11 8619.69 249.508   3
  -1  -3 -12 4519.11 152.935   3
   1   4 -15 2241.76 95.6036   8
   1   4 -14 9950.49 301.153  35
   1   4 -14 9999.84 313.474  30
   1   4 -13 252.636 67.4915  30
   1   4 -13 234.230 58.1959  35
   1   4 -13 339.812 58.1273  31
   1   4 -12 54.3099 38.2192  31
   1   4 -12 39.2675 53.4001  30
   1   4 -12 72.3047 49.0891  35
   1   4 -11 8214.68 336.473  35
   1   4 -11 8383.71 339.466  10
   1   4 -11 9101.91 385.528  30
   1   4 -11 8955.74 337.846  31
   1   4 -10 413.529 78.7964  10
   1   4 -10 337.138 72.0716  35
   1   4  -9 88930.9 1621.79  10
   1   4  -9 88652.0 1607.31  35
   1   4  -9 91732.5 1657.97  33
   1   4  -9 90382.3 1608.10  32
   1   4  -8 11170.0 361.092  35
   1   4  -8 12265.1 377.002  32
   1   4  -8 10761.8 386.860  33
   1   4  -8 11734.4 341.385  17
   1   4  -7 30708.0 640.466  17
   1   4  -7 29809.4 663.119  35
   1   4  -7 31320.3 721.311  33
   1   4  -6 31565.8 983.738  20
   1   4  -6 29759.4 599.449  21
   1   4  -5 33.2481 17.5738  21
   1   4  -5 41.4580 46.6738  20
  -1  -4   4 8825.73 426.580  24
   1   4  -4 8535.89 253.741  21
  -1  -4   3 56.2285 42.4174  24
   1   4  -3 31.9576 40.6828  20
   1   4  -3 57.7768 22.1535  21
  -1  -4   2 106347. 2075.33  24
   1   4  -1 54455.8 1331.95  20
   1   4  -1 48968.7 863.402  21
   1   4   0 66762.8 1578.21  20
  -1  -4   0 68950.5 1478.82  24
  -1  -4   0 70959.7 1487.17   6
  -1  -4  -1 75838.9 1596.74  24
   1   4   1 79306.3 1762.57  20
  -1  -4  -1 74056.6 1657.71   6
   1   4   1 77234.1 1279.29  21
   1   4   2 9313.07 497.299  20
  -1  -4  -2 9278.17 265.270  34
  -1  -4  -2 8619.68 466.682   6
   1   4   2 9233.59 266.789  21
  -1  -4  -3 432.374 56.5805  16
   1   4   3 539.493 59.0704  21
  -1  -4  -3 438.679 55.1495  34
  -1  -4  -4 914.210 86.0402  16
  -1  -4  -4 924.527 94.2878   4
  -1  -4  -4 975.085 87.1427  34
  -1  -4  -5 36023.0 741.884  16
  -1  -4  -5 34042.8 733.561   3
  -1  -4  -5 33694.1 775.386   4
  -1  -4  -5 35104.8 742.435  34
  -1  -4  -6 30780.5 684.058  16
  -1  -4  -6 29583.7 733.659   4
  -1  -4  -6 30945.2 698.739  34
  -1  -4  -6 31380.2 697.404   3
  -1  -4  -7 19341.3 553.600  11
  -1  -4  -7 20952.8 518.289  16
  -1  -4  -7 20147.7 535.741   3
  -1  -4  -7 19864.3 574.886   4
  -1  -4  -8 20907.9 537.700  36
  -1  -4  -8 19360.9 503.360  13
  -1  -4  -8 19140.2 524.503   3
  -1  -4  -8 20214.3 549.900  11
  -1  -4  -8 19662.1 563.207   4
  -1  -4  -8 20676.8 502.598  16
  -1  -4  -9 241.152 56.7926  11
  -1  -4  -9 106.197 41.8927  36
  -1  -4  -9 162.261 50.7880   3
  -1  -4 -10 115.436 37.4534  11
  -1  -4 -10 60.5097 35.1192   3
  -1  -4 -10 47.0646 30.9079  36
  -1  -4 -11 3919.68 164.211   2
  -1  -4 -11 3633.90 134.005   3
   1   5 -15 370.084 36.8237   8
   1   5 -15 292.010 39.1797  30
   1   5 -14 17607.1 420.434  35
   1   5 -14 17259.0 439.014  30
   1   5 -13 3163.03 165.331  31
   1   5 -13 3433.41 201.219  30
   1   5 -13 3206.09 175.869  35
   1   5 -12 24036.3 619.646  10
   1   5 -12 24057.5 611.142  35
   1   5 -12 24286.1 600.012  31
   1   5 -11 2930.41 193.226  10
   1   5 -11 2749.25 185.786  35
   1   5 -10 400.474 78.3967  32
   1   5 -10 418.985 80.6073  35
   1   5 -10 319.328 75.6261  10
   1   5  -9 3138.16 192.361  35
   1   5  -9 2851.82 167.595  17
   1   5  -8 105.914 44.0329  32
   1   5  -8 45.8769 29.2033  17
   1   5  -8 16.1848 29.5897  35
   1   5  -7 52620.1 1046.75  35
   1   5  -7 55663.9 1017.50  21
   1   5  -6 52963.5 981.855  21
   1   5  -6 56385.4 993.003  17
   1   5  -5 93735.0 2189.14  20
   1   5  -5 89159.1 1521.23  17
  -1  -5   5 95556.9 1970.53  24
   1   5  -5 89536.8 1537.91  21
  -1  -5   4 115290. 2303.51  24
   1   5  -4 119812. 2538.57  20
  -1  -5   3 4376.93 336.620  24
   1   5  -2 4070.05 368.894  20
  -1  -5   2 4411.35 343.813  24
   1   5  -2 3811.46 176.667  21
  -1  -5   1 284.939 89.1690  24
  -1  -5   1 246.846 80.7754   6
   1   5  -1 233.846 44.2773  21
   1   5  -1 249.319 95.0038  20
  -1  -5   0 25711.1 877.144  24
  -1  -5   0 27652.4 901.884   6
   1   5   0 26662.0 583.920  21
   1   5   0 27653.5 1005.47  20
  -1  -5  -1 48120.8 930.929  16
  -1  -5  -1 56246.8 1392.80   6
   1   5   1 51798.1 955.486  21
  -1  -5  -1 51914.0 1334.88  24
   1   5   1 54089.0 1503.62  20
  -1  -5  -2 34864.6 1116.40   6
  -1  -5  -2 38802.4 741.978  34
  -1  -5  -2 35889.4 739.609   4
   1   5   2 38005.1 755.825  21
  -1  -5  -3 74082.9 1351.80   4
   1   5   3 73868.3 1317.26  21
  -1  -5  -4 108.916 38.1684  16
  -1  -5  -4 133.603 46.8162   4
  -1  -5  -5 645.628 92.2559   4
  -1  -5  -5 668.635 83.3964  34
  -1  -5  -6 1004.42 102.671  34
  -1  -5  -6 1042.15 115.447   4
  -1  -5  -6 948.669 94.3872   3
  -1  -5  -6 1116.24 108.423  16
  -1  -5  -7 17411.9 520.646   4
  -1  -5  -7 18756.4 483.213  16
  -1  -5  -7 17326.1 458.945   3
  -1  -5  -7 17909.8 519.133  11
  -1  -5  -8 11064.9 377.507   4
  -1  -5  -8 11731.9 359.656  36
  -1  -5  -8 12500.4 345.614  13
  -1  -5  -8 10519.9 323.225   3
  -1  -5  -8 11554.1 377.056  11
  -1  -5  -9 6840.40 241.631  36
  -1  -5  -9 7186.41 255.879  11
  -1  -5 -10 22136.6 449.342  11
   1   6 -14 471.045 63.5305  30
   1   6 -13 240.048 61.5352  30
   1   6 -13 247.914 52.8593  35
   1   6 -13 168.497 43.1062  31
   1   6 -12 12267.5 394.150  10
   1   6 -12 11187.5 367.991  35
   1   6 -12 11870.6 375.260  31
   1   6 -12 12850.3 440.448  30
   1   6 -11 40262.7 871.964  35
   1   6 -11 40228.5 895.237  10
   1   6 -10 248.877 66.0213  35
   1   6 -10 298.692 68.4750  32
   1   6 -10 353.922 77.8860  10
   1   6  -9 61619.0 1214.69  35
   1   6  -9 60722.1 1239.88  32
   1   6  -8 2520.58 192.431  33
   1   6  -8 2090.16 135.968  21
   1   6  -8 2235.77 153.179  35
   1   6  -8 2716.69 184.912  32
   1   6  -7 165.240 52.5108  21
   1   6  -7 90.5584 33.1956  17
   1   6  -7 176.239 56.0636  32
   1   6  -7 158.169 61.2075  33
   1   6  -7 368.320 60.8888  35
  -1  -6   7 298.535 53.1706  23
  -1  -6   6 3952.46 181.861  23
   1   6  -6 3981.09 197.645  17
   1   6  -6 3846.76 245.471  33
   1   6  -6 3418.29 171.474  35
   1   6  -6 4020.88 205.424  21
  -1  -6   5 18079.7 446.262  23
   1   6  -5 17162.6 476.451  21
   1   6  -5 17212.8 456.737  17
  -1  -6   5 17104.5 755.601  24
  -1  -6   4 5693.30 221.129  23
   1   6  -4 5140.64 235.489  21
   1   6  -4 5451.07 219.341  17
   1   6  -3 16331.1 413.366  17
  -1  -6   3 17533.2 435.495  23
  -1  -6   3 16190.3 740.687  24
   1   6  -2 105102. 2530.31  20
   1   6  -2 100014. 1752.06  21
  -1  -6   2 106785. 2293.53   6
  -1  -6   1 750.970 76.8408  23
  -1  -6   1 566.975 131.928   6
   1   6  -1 417.256 66.1443  21
  -1  -6   1 637.467 145.323  24
  -1  -6   0 9887.52 305.858  23
  -1  -6   0 9669.52 556.178   6
   1   6   0 9934.57 335.302  21
  -1  -6   0 10141.6 567.269  24
  -1  -6  -1 8694.43 531.207   6
   1   6   1 8281.99 301.830  21
  -1  -6  -1 8256.36 292.553  16
  -1  -6  -1 8524.37 278.015  23
  -1  -6  -2 13359.2 368.502  23
  -1  -6  -2 13254.3 389.435   4
   1   6   2 14180.2 411.899  21
  -1  -6  -2 14689.6 392.081  34
  -1  -6  -2 14315.5 411.340  16
  -1  -6  -3 35782.2 783.164   4
  -1  -6  -3 37552.7 762.950  34
  -1  -6  -3 34904.1 705.629  23
   1   6   3 37259.3 773.107  21
  -1  -6  -4 11365.5 375.107  16
  -1  -6  -4 11685.5 362.734  34
  -1  -6  -4 11108.0 381.942   4
  -1  -6  -5 53311.2 1098.52   4
  -1  -6  -5 55311.9 1077.76  16
  -1  -6  -5 55378.2 1060.17  34
  -1  -6  -6 5752.97 263.993   4
  -1  -6  -7 14117.1 389.642  13
  -1  -6  -7 12007.7 389.976   4
  -1  -6  -8 396.231 63.1831  11
  -1  -6  -8 381.696 53.5278  36
  -1  -6  -9 35.2727 24.3207  11
   1   7 -13 1903.57 110.110  31
   1   7 -13 2192.56 129.063  10
   1   7 -12 9866.56 330.102  10
   1   7 -12 8314.70 284.082  35
   1   7 -11 39.3395 32.4869  35
   1   7 -11 63.0855 48.3781  10
   1   7 -10 35951.3 806.336  35
   1   7 -10 37799.5 862.557  32
   1   7  -9 24300.8 603.683  35
   1   7  -9 25002.8 664.861  32
   1   7  -8 7106.50 289.890  17
   1   7  -8 7753.03 352.163  33
  -1  -7   8 6680.18 252.001  23
   1   7  -8 5838.56 248.518  35
   1   7  -8 6113.72 298.045  32
   1   7  -8 6586.62 269.816  21
   1   7  -7 49959.1 1146.07  33
  -1  -7   7 53760.4 1010.39  23
   1   7  -7 47592.9 1094.34  32
   1   7  -7 52690.2 1066.09  21
   1   7  -7 56068.4 1063.98  17
  -1  -7   6 875.306 90.4625  23
   1   7  -6 973.566 135.779  33
   1   7  -6 870.134 108.775  21
   1   7  -6 961.164 102.312  17
  -1  -7   5 22515.9 541.302  23
   1   7  -5 20520.6 535.790  17
   1   7  -5 21360.2 582.621  21
   1   7  -4 457.194 82.4676  21
   1   7  -4 414.648 64.3690  17
  -1  -7   4 317.461 116.528  24
  -1  -7   4 540.076 72.4354  23
  -1  -7   3 2231.74 283.660   6
  -1  -7   3 2693.86 159.489  23
  -1  -7   3 2654.48 314.284  24
   1   7  -3 2426.40 141.937  17
   1   7  -2 38792.3 866.933  21
  -1  -7   2 39722.8 1295.14   6
  -1  -7   1 1418.27 228.346  24
  -1  -7   1 1417.77 115.194  23
   1   7  -1 1633.55 142.000  21
  -1  -7   1 1368.50 223.676   6
  -1  -7   0 46111.9 912.763  23
  -1  -7   0 48800.7 1461.45   6
   1   7   0 45659.2 969.919  21
  -1  -7  -1 6529.74 255.214  23
   1   7   1 6625.11 285.406  21
  -1  -7  -1 7217.25 258.578  34
  -1  -7  -1 6249.28 479.502   6
  -1  -7  -2 15173.9 410.211  23
  -1  -7  -2 14008.8 415.628   4
  -1  -7  -2 16575.9 432.570  34
   1   7   2 17066.9 476.093  21
  -1  -7  -3 2179.87 127.198  23
  -1  -7  -3 2404.76 159.344   4
  -1  -7  -3 2631.68 156.437  34
  -1  -7  -4 112.093 43.7461   4
  -1  -7  -4 176.805 45.9258  34
  -1  -7  -5 11778.0 350.542  34
  -1  -7  -5 12224.2 398.621  11
  -1  -7  -6 494.085 74.3879  11
  -1  -7  -6 442.483 65.5642   4
  -1  -7  -7 27129.3 541.215  13
  -1  -7  -7 27580.8 558.367  36
  -1  -7  -8 4472.35 165.375  11
   1   8 -13 1569.45 103.538  30
   1   8 -13 1159.95 70.8164  31
   1   8 -12 23890.9 555.082  10
   1   8 -12 24955.4 592.442  30
   1   8 -11 3097.36 181.834  10
   1   8 -10 10096.3 360.334  32
   1   8  -9 606.263 93.4008  32
   1   8  -9 585.515 97.5130  33
   1   8  -8 1201.30 139.922  33
   1   8  -8 1469.87 129.877  17
   1   8  -8 1131.39 130.171  32
   1   8  -8 1138.57 117.892  21
  -1  -8   8 1269.15 107.739  23
   1   8  -7 13018.9 480.956  33
  -1  -8   7 13346.6 398.862  23
   1   8  -7 13957.9 429.758  17
   1   8  -7 13171.0 440.034  21
   1   8  -7 13495.8 480.339  32
   1   8  -6 1161.77 146.789  33
  -1  -8   6 1039.48 104.392  23
   1   8  -6 1052.82 107.321  17
   1   8  -6 907.689 116.810  21
   1   8  -5 70574.4 1304.19  17
  -1  -8   5 71524.0 1318.74  23
   1   8  -5 70496.8 1395.51  21
  -1  -8   4 1212.47 111.900  23
   1   8  -4 991.588 96.1309  17
  -1  -8   4 1137.23 210.964   6
  -1  -8   3 33474.9 1207.98   6
   1   8  -3 32821.5 805.370  21
  -1  -8   2 319.440 64.4334  23
  -1  -8   2 250.807 106.506   6
   1   8  -2 356.081 85.8466  21
  -1  -8   1 4732.21 226.575  23
  -1  -8   1 4224.00 408.147   6
   1   8  -1 5303.34 267.198  21
  -1  -8   0 23278.3 525.411  34
  -1  -8   0 21562.5 544.127  23
   1   8   0 21518.4 594.852  21
  -1  -8   0 21343.5 938.522   6
  -1  -8  -1 56.4501 29.5653  34
   1   8   1 75.1478 49.4115  21
  -1  -8  -2 38207.3 759.940  34
   1   8   2 38269.7 820.875  21
  -1  -8  -3 6857.03 252.059   4
  -1  -8  -3 8440.59 274.036  34
  -1  -8  -4 33364.3 707.379  11
  -1  -8  -4 33038.5 642.866  34
  -1  -8  -5 10022.9 310.142  11
  -1  -8  -5 7500.25 240.103   4
  -1  -8  -6 169.785 41.1802  11
  -1  -8  -6 179.797 35.1097  13
  -1  -8  -7 1483.48 83.5497  11
   1   9 -12 1623.98 99.6748  10
   1   9 -12 1816.00 111.215  30
   1   9 -11 753.178 82.3054  10
   1   9 -10 33172.3 746.438  32
   1   9 -10 38604.3 789.909  10
   1   9  -9 4499.95 230.170  32
   1   9  -9 4613.76 236.859  33
  -1  -9   9 4501.30 178.536  23
   1   9  -8 35914.1 836.751  32
  -1  -9   8 34363.9 728.996  23
   1   9  -8 35005.4 776.455  21
   1   9  -7 9515.61 384.620  32
   1   9  -7 10583.6 379.774  21
   1   9  -7 10796.7 400.544  33
  -1  -9   7 10100.8 331.043  23
  -1  -9   6 3637.80 191.147  23
   1   9  -6 3941.20 240.368  33
   1   9  -6 3596.08 220.532  21
  -1  -9   5 1877.02 138.708  23
  -1  -9   5 1750.63 249.949   6
   1   9  -5 1833.03 163.697  21
   1   9  -5 2195.62 189.541  33
  -1  -9   4 867.873 98.0869  23
  -1  -9   4 757.049 168.989   6
   1   9  -4 776.747 120.242  33
  -1  -9   3 46881.5 1494.20   6
   1   9  -3 56603.6 1145.34  21
  -1  -9   2 35667.2 786.627  23
  -1  -9   2 33590.3 1195.43   6
  -1  -9   1 1534.27 121.820  23
   1   9  -1 1537.15 143.254  21
  -1  -9   0 13756.9 388.476  23
  -1  -9   0 14069.7 347.230  34
   1   9   0 14613.1 445.279  21
  -1  -9  -1 4207.35 194.104  11
  -1  -9  -1 4868.33 197.106  23
   1   9   1 4437.59 219.317  21
  -1  -9  -1 4767.83 178.825  34
  -1  -9  -2 733.208 79.2414  11
  -1  -9  -2 791.988 67.2239  34
  -1  -9  -3 83.6820 32.5521  11
  -1  -9  -4 12795.0 331.024  11
  -1  -9  -5 5464.12 174.229  11
  -1  -9  -5 5373.41 168.743  13
   1  10 -11 144.700 33.0050  10
   1  10 -10 1621.40 105.282  32
   1  10 -10 1508.30 106.046  10
   1  10  -9 910.258 91.1926  32
   1  10  -8 14264.3 395.494  21
   1  10  -8 14617.3 408.299  33
   1  10  -8 14009.7 425.521  32
   1  10  -7 3572.40 204.273  32
  -1 -10   7 3738.54 172.107  23
   1  10  -7 3365.66 188.134  21
   1  10  -7 3758.08 192.029  33
  -1 -10   6 19786.7 489.169  23
   1  10  -6 19842.7 542.007  21
   1  10  -6 20912.1 527.805  33
  -1 -10   5 22144.5 531.725  23
   1  10  -5 22157.8 588.416  21
   1  10  -5 23034.2 562.310  33
  -1 -10   4 3018.23 163.288  23
   1  10  -4 1725.00 132.757  33
   1  10  -3-14.7970 30.9608  33
   1  10  -3 2697.67 176.456  21
  -1 -10   2 30.5272 31.1367  23
   1  10  -2 51.9179 46.2542  21
  -1 -10   1 19700.2 465.109  23
   1  10  -1 20037.4 516.048  21
   1  10   0 12502.4 365.172  21
  -1 -10   0 12314.7 318.154  23
  -1 -10  -1 1.32556 10.7886  23
  -1 -10  -2 20241.0 399.909  11
  -1 -10  -3 46.1461 15.0922  11
   1  11  -9 366.536 45.4732  10
   1  11  -9 310.401 39.8135  32
  -1 -11   8 2700.49 103.893  23
   1  11  -8 3240.09 142.582  32
  -1 -11   7 925.230 68.7653  23
   1  11  -7 990.947 86.0518  32
   1  11  -6 9435.61 297.528  32
  -1 -11   6 9131.08 254.236  23
   1  11  -6 8698.27 281.238  21
   1  11  -5 13661.2 379.240  21
  -1 -11   5 13573.0 339.060  23
   1  11  -5 14462.7 395.735  32
   1  11  -4 8437.66 281.638  21
  -1 -11   3 29884.3 580.699  23
   1  11  -3 28686.2 621.240  21
   1  11  -2 307.461 52.7722  21
  -1 -11   2 454.864 49.2239  23
  -1 -11   1 3144.40 115.838  23
   2 -12   1 4182.61 131.423  23
   2 -12   2 12783.1 294.359  23
  -2  12  -3 29764.4 551.415  32
   2 -12   4 125.425 30.1615  23
  -2  12  -4 48.9249 22.6460  32
  -2  12  -5 4302.84 154.410  32
   2 -12   5 4284.55 154.936  23
   2 -12   6 1732.42 88.6424  23
  -2  12  -6 1842.20 95.0726  32
   2 -12   7 2128.86 85.3780  23
  -2  12  -7 2214.51 98.2073  32
   2 -11  -2 29216.5 540.191   4
   2 -11  -1 67.1365 27.4399  34
   2 -11  -1 24.1788 16.7684  23
   2 -11   0 14605.9 366.252  34
   2 -11   0 14128.9 338.855  23
   2 -11   1 170.810 39.4064  23
   2 -11   2 1065.92 92.5661  23
  -2  11  -3 17934.4 464.879  32
  -2  11  -4 5454.77 198.845  17
   2 -11   4 6034.75 233.419  23
  -2  11  -4 6233.86 246.982  32
  -2  11  -5 51707.9 974.033  32
   2 -11   5 51318.6 941.475  23
   2 -11   6 976.350 87.6150  23
  -2  11  -6 1018.06 97.6524  32
  -2  11  -6 1034.12 88.2042  17
  -2  11  -7 14676.8 378.501  17
   2 -11   7 14610.1 370.007  23
  -2  11  -8 91.7885 32.8573  17
   2 -11   8 79.4241 23.9836  23
  -2  11  -8 114.302 36.6226  32
  -2  11  -9 599.730 59.7628  17
   2 -10  -5 5432.89 176.487   4
   2 -10  -4 215.231 38.9169  34
   2 -10  -4 222.227 43.1371   4
   2 -10  -3 153.792 40.8559   4
   2 -10  -3 140.707 37.6045  34
   2 -10  -2 12938.6 329.080  23
   2 -10  -2 13716.6 385.917   4
   2 -10  -1 953.305 84.2286  23
   2 -10   0 45774.6 894.674  23
   2 -10   1 6136.18 252.439  23
  -2  10  -2 22419.1 517.115  17
  -2  10  -3 6016.66 245.621  17
   2 -10   3 6474.78 270.539  23
  -2  10  -4 67.5062 41.9298  17
   2 -10   4 151.990 48.2590  23
  -2  10  -5 1488.86 128.080  17
   2 -10   5 1297.23 117.501  23
  -2  10  -5 1530.03 135.675  32
   2 -10   6 1220.33 111.199  23
  -2  10  -6 1142.07 113.342  17
  -2  10  -7 40998.9 873.679  17
   2 -10   7 41088.9 842.650  23
  -2  10  -8 8627.62 273.669  10
  -2  10  -8 8729.65 313.172  32
   2 -10   8 7959.50 258.683  23
  -2  10  -8 8745.48 307.349  17
  -2  10  -9 14762.0 361.595  10
  -2  10  -9 14835.5 410.236  32
  -2  10 -10 2.87061 12.4259  10
  -2  10 -10 9100.58 241.625  17
  -2  10 -11 445.760 52.7417  31
   2  -9  -7 6699.41 200.755   4
   2  -9  -7 6263.44 191.059  11
   2  -9  -6 113.063 33.4686   4
   2  -9  -6 72.7783 26.5255  34
   2  -9  -5 29661.7 631.424  16
   2  -9  -5 31598.3 680.573   4
   2  -9  -4 1770.84 135.982   4
   2  -9  -4 1741.60 122.806  16
   2  -9  -3 13820.4 380.091  16
   2  -9  -3 9211.59 279.781  23
   2  -9  -2 11122.9 357.640  16
   2  -9  -2 11562.9 338.690  23
   2  -9  -1 1884.07 135.786  16
   2  -9  -1 1620.07 256.749  24
  -2   9   1 1929.77 315.538  25
   2  -9  -1 1797.79 130.606  23
   2  -9  -1 1646.06 258.260   6
  -2   9   0 6445.13 286.787  21
   2  -9   0 5759.32 488.583  24
   2  -9   0 6250.57 262.402  23
   2  -9   0 6857.72 538.173   6
  -2   9   0 6117.34 278.129  29
  -2   9   0 5891.34 563.494  25
  -2   9  -1 127.387 61.1925  21
   2  -9   1 353.887 129.375  24
  -2   9  -1 81.6949 36.7486  17
  -2   9  -1 210.979 133.443  25
  -2   9  -1 80.0792 55.2211  29
   2  -9   1 56.9599 63.9537   6
  -2   9  -2 60460.1 1186.74  17
  -2   9  -2 60554.4 2002.41  25
  -2   9  -2 65843.9 1269.47  21
   2  -9   2 67130.3 1953.56   6
  -2   9  -3 12166.7 401.424  17
   2  -9   3 12071.3 763.221   6
  -2   9  -4 42624.2 1626.69  25
  -2   9  -4 45332.6 957.700  17
  -2   9  -4 43636.3 959.712  21
  -2   9  -5 15122.2 470.299  21
  -2   9  -5 14945.2 910.712  25
  -2   9  -5 15012.2 475.929  17
  -2   9  -5 14888.2 478.331  32
  -2   9  -6 40.9780 43.4462  17
  -2   9  -6 33.4929 94.2660  25
   2  -9   6 102.865 82.7208  24
  -2   9  -6 72.5260 50.2625  32
   2  -9   6 169.748 52.9255  23
   2  -9   7 262.084 60.5598  23
  -2   9  -7 306.696 71.0684  32
  -2   9  -7 381.955 81.1391  17
   2  -9   8 1325.91 106.858  23
  -2   9  -8 1182.31 121.040  32
  -2   9  -9 38986.2 823.075  17
  -2   9  -9 37584.4 820.687  32
  -2   9 -10 16756.1 411.084  10
  -2   9 -10 17796.8 457.251  17
  -2   9 -11 9470.88 251.478  10
   2  -8  -8 10155.6 265.687  16
   2  -8  -8 10554.6 292.379   4
   2  -8  -8 9907.83 267.598  11
   2  -8  -7 6109.60 221.098  16
   2  -8  -7 6457.73 251.970   4
   2  -8  -7 5886.50 219.320  34
   2  -8  -6 197.998 53.2759  16
   2  -8  -6 241.298 51.4419  34
   2  -8  -5 79.7365 42.2821  16
   2  -8  -5 15.6604 26.5883  34
   2  -8  -4 1813.85 142.487  16
   2  -8  -4 1729.89 137.660  34
  -2   8   3 43455.7 897.210  29
   2  -8  -3 45820.6 944.873  16
   2  -8  -3 45683.0 867.998  23
   2  -8  -2 83268.8 1507.64  16
  -2   8   2 83736.9 2281.95  25
   2  -8  -2 88618.8 2149.53  24
   2  -8  -2 87018.8 2151.63   6
  -2   8   2 81061.3 1499.99  29
  -2   8   1 27042.6 667.740  29
  -2   8   1 28313.5 674.176  21
   2  -8  -1 26870.0 642.298  16
  -2   8   1 26545.1 1181.24  25
   2  -8  -1 26953.7 1102.28  24
   2  -8  -1 24712.6 1052.54   6
  -2   8   0 15953.3 487.882  29
  -2   8   0 15861.6 479.104  21
   2  -8   0 16183.4 448.485  16
   2  -8   0 15550.1 838.598  24
   2  -8   0 16235.9 838.623   6
  -2   8   0 15802.3 898.821  25
  -2   8  -1 2228.97 168.901  29
   2  -8   1 1741.61 275.424  24
  -2   8  -1 1745.50 304.816  25
  -2   8  -1 2239.86 149.347  17
  -2   8  -1 2271.63 166.305  21
   2  -8   1 1885.57 282.807   6
  -2   8  -2 140.119 49.9513  17
  -2   8  -2 148.287 108.322  25
  -2   8  -2 172.864 58.9058  29
  -2   8  -2 231.891 67.7070  21
  -2   8  -3 169.575 50.8582  17
   2  -8   3 186.077 97.1826  24
  -2   8  -3 87.9449 42.6822  29
  -2   8  -4 17722.6 965.839  25
  -2   8  -4 17716.3 522.368  17
   2  -8   4 17025.9 899.486  24
  -2   8  -4 18310.5 521.388  21
  -2   8  -5 40610.6 883.292  32
  -2   8  -5 36579.4 1441.04  25
   2  -8   5 37001.1 1386.35  24
  -2   8  -5 39402.0 860.777  21
  -2   8  -5 35915.8 864.489  17
   2  -8   6 41295.5 1472.89  24
  -2   8  -6 39903.0 1505.82  25
  -2   8  -6 42426.1 960.276  17
  -2   8  -7 28615.6 1203.80  25
   2  -8   7 29013.3 1176.10  24
   2  -8   7 31753.5 719.680  23
  -2   8  -8 4906.25 259.020  17
  -2   8  -8 4887.29 225.022  30
  -2   8  -8 4760.86 249.670  32
  -2   8  -9 505.646 85.7640  32
  -2   8  -9 578.328 90.0627  17
  -2   8  -9 519.032 75.6685  10
  -2   8  -9 581.651 81.8831  30
  -2   8 -10 65.7417 40.0052  30
  -2   8 -10 31.9995 31.6838  10
  -2   8 -10 33.7730 36.1041  17
  -2   8 -11 11121.3 309.294  10
  -2   8 -11 11655.2 321.973  17
  -2   8 -12-7.00501 18.5604  30
   2  -7  -9 449.938 53.7763  16
   2  -7  -9 414.599 49.0488  11
   2  -7  -9 440.343 51.5443  36
   2  -7  -9 308.884 37.6510   3
   2  -7  -8 3190.93 147.807   3
   2  -7  -7 10255.8 367.776   4
   2  -7  -7 9139.99 305.962   3
   2  -7  -7 10069.2 335.036  16
   2  -7  -7 9853.79 331.827  34
   2  -7  -6 17107.1 489.162  34
   2  -7  -6 18075.6 504.950  16
   2  -7  -5 27684.3 672.455  16
   2  -7  -5 25531.6 644.051  34
   2  -7  -4 5603.39 260.635  16
   2  -7  -4 5033.70 251.757  34
   2  -7  -3 96.5891 65.6742  24
   2  -7  -3 106.378 47.7716  16
  -2   7   3 96.0257 87.1114  25
  -2   7   3 16.1186 31.9119  29
   2  -7  -3 103.984 67.9282   6
  -2   7   2 13277.9 767.720  25
  -2   7   2 13860.8 407.884  21
   2  -7  -2 12097.0 667.494   6
   2  -7  -2 13373.6 411.282  16
   2  -7  -2 11361.4 652.429  24
  -2   7   2 12854.3 406.299  29
  -2   7   1 65421.7 1224.13  21
   2  -7  -1 64656.5 1211.45  16
  -2   7   1 66445.2 1904.24  25
  -2   7   1 65800.9 1657.08   7
   2  -7  -1 63450.2 1766.38  24
  -2   7   1 66090.1 1249.39  29
   2  -7  -1 65876.1 1776.18   6
  -2   7   0 64335.9 1216.53  29
   2  -7   0 60645.1 1145.10  16
  -2   7   0 61567.9 1183.61  21
  -2   7   0 67070.8 1622.55   7
   2  -7   0 59889.5 1719.37  24
   2  -7   0 65387.7 1749.51   6
  -2   7   0 59742.6 1810.79  25
  -2   7  -1 13473.6 777.792  25
  -2   7  -1 13031.0 403.753  21
  -2   7  -1 12820.2 416.774  29
  -2   7  -2 95632.6 1718.24  29
  -2   7  -2 94788.5 2416.48  25
   2  -7   2 97661.2 2368.07  24
  -2   7  -2 96602.9 1682.88  21
  -2   7  -3 2841.33 176.859  17
  -2   7  -3 3271.94 186.135  21
   2  -7   3 2411.28 308.064  24
  -2   7  -3 2888.13 357.134  25
   2  -7   4 12743.2 722.779  24
  -2   7  -4 14401.9 441.283  17
  -2   7  -4 14483.9 426.563  21
  -2   7  -4 14135.2 449.028  29
  -2   7  -4 14288.4 799.684  25
  -2   7  -5 2350.82 173.488  17
  -2   7  -5 6216.93 529.597  25
  -2   7  -5 7411.52 279.643  21
   2  -7   5 1256.04 227.820  24
  -2   7  -5 1647.30 139.090  32
   2  -7   6 13061.5 741.129  24
  -2   7  -6 12802.0 747.642  25
  -2   7  -6 12463.8 412.603  32
  -2   7  -7 54701.6 1637.29  25
  -2   7  -7 53352.9 1105.62  32
  -2   7  -7 57738.3 1148.83  17
  -2   7  -8 6721.97 302.357  17
  -2   7  -8 7174.16 310.075  32
  -2   7  -8 6589.23 283.564  30
  -2   7  -9 33018.4 754.076  10
  -2   7  -9 34311.9 814.782  32
  -2   7  -9 36942.9 812.432  17
  -2   7  -9 37160.6 809.470  30
  -2   7 -10 1157.59 118.172  30
  -2   7 -10 1129.27 107.472  17
  -2   7 -10 1405.78 115.583  10
  -2   7 -11 18631.6 462.853  10
  -2   7 -11 19084.2 497.366  30
  -2   7 -11 18504.5 444.717  17
  -2   7 -12 103.196 40.7744  30
  -2   7 -13 1513.57 91.1960  30
  -2   7 -13 1395.96 96.5070  31
   2  -6 -10 20334.4 434.773  16
   2  -6 -10 20175.5 460.873   4
   2  -6 -10 18560.7 425.297  36
   2  -6 -10 19182.0 427.061   3
   2  -6  -9 667.992 86.2050   4
   2  -6  -9 537.840 70.2956  16
   2  -6  -9 512.580 71.9668   3
   2  -6  -8 56.3557 33.1915  34
   2  -6  -7 3836.17 208.440  34
   2  -6  -6 8982.93 342.041  16
   2  -6  -6 7958.21 314.463  34
   2  -6  -5 18596.6 532.027  16
   2  -6  -5 18473.8 514.027  34
   2  -6  -4 10985.2 374.229  16
   2  -6  -4 8925.86 513.180  24
   2  -6  -3 85594.0 1550.47  16
  -2   6   3 95369.2 2214.70  25
   2  -6  -3 85808.0 2009.90  24
  -2   6   3 85999.2 1529.06  29
   2  -6  -3 93481.9 2110.45   6
  -2   6   2 33.6845 28.9703  29
   2  -6  -2 94.9273 38.6961  16
  -2   6   2 93.5058 71.5334  25
  -2   6   2 204.450 44.7543  21
   2  -6  -2 138.931 73.4229  24
   2  -6  -1 25388.3 586.238  16
  -2   6   1 27147.7 598.760  21
   2  -6  -1 26146.1 960.720  24
  -2   6   1 27164.7 621.871  29
  -2   6   1 26057.5 1018.77  25
  -2   6   0 193.264 48.3571  29
  -2   6   0 385.632 104.583   7
   2  -6   0 101.668 62.2701  24
  -2   6   0 194.097 44.7536  21
  -2   6   0 206.905 97.5757  25
   2  -6   0 201.826 83.2114   6
  -2   6  -1 438.647 66.3528  29
  -2   6  -1 348.960 99.1906   7
  -2   6  -1 451.843 132.020  25
  -2   6  -1 379.258 58.5050  21
  -2   6  -2 29361.5 682.078  29
   2  -6   2 29511.1 1048.16  24
  -2   6  -3 19540.7 511.260  29
   2  -6   3 18462.5 811.933  24
  -2   6  -3 19615.4 483.600  21
  -2   6  -3 18817.0 854.979  25
  -2   6  -3 19728.1 742.472   7
  -2   6  -4 97617.9 1715.31  29
   2  -6   4 99095.7 2279.12  24
  -2   6  -4 101410. 2332.50  25
  -2   6  -4 98832.6 1661.80   9
  -2   6  -4 99532.2 1672.24  21
  -2   6  -5 3126.12 163.912  21
   2  -6   5 3153.29 327.816  24
  -2   6  -5 3323.22 179.356  32
  -2   6  -5 2996.47 169.540   9
  -2   6  -5 3215.67 335.540  25
  -2   6  -5 3200.49 182.110  29
  -2   6  -6 21749.3 574.574  17
  -2   6  -6 21490.9 528.376   5
  -2   6  -6 23899.3 580.329  32
   2  -6   6 22411.7 917.308  24
  -2   6  -6 21962.3 915.918  25
  -2   6  -6 22442.2 572.394   9
  -2   6  -7 59.3554 31.8660   5
  -2   6  -7 53.7003 41.2160  32
  -2   6  -7 69.8264 40.4292  17
   2  -6   7 20.4646 38.8392  24
  -2   6  -7 54.4138 27.2171  35
  -2   6  -7 21.0938 50.6335  25
  -2   6  -8 4956.74 259.064   9
  -2   6  -8 5447.11 237.272  10
  -2   6  -8 5127.46 221.567  35
  -2   6  -8 4948.13 250.060  32
  -2   6  -8 5056.23 248.590  17
  -2   6  -8 5397.86 255.389  30
  -2   6  -9 18643.3 497.244  35
  -2   6  -9 19208.0 571.414   9
  -2   6  -9 18569.0 512.164   1
  -2   6  -9 19180.7 508.843  10
  -2   6  -9 19343.1 521.294  17
  -2   6  -9 20594.0 558.711  30
  -2   6 -10 692.199 83.2297  17
  -2   6 -10 613.823 81.5880  10
  -2   6 -10 764.971 90.1637   1
  -2   6 -10 713.734 100.243  30
  -2   6 -10 789.722 91.8429  35
  -2   6 -11 44451.9 880.129   1
  -2   6 -11 45684.1 932.233  30
  -2   6 -12 1942.11 120.283   1
  -2   6 -12 1889.18 135.730  30
  -2   6 -13 9630.91 295.516  31
  -2   6 -13 9792.59 288.179  30
   2  -5 -11 2521.95 116.282  16
   2  -5 -11 2632.78 132.436   3
   2  -5 -10 8679.01 287.042   4
   2  -5 -10 7416.05 237.751  36
   2  -5 -10 8303.59 251.982  16
   2  -5 -10 7270.34 256.146   3
   2  -5  -9 2051.30 162.041   4
   2  -5  -9 1667.51 136.281  16
   2  -5  -8 39135.1 864.147  16
   2  -5  -8 39290.8 847.879  15
   2  -5  -8 37815.4 848.234  34
   2  -5  -7 575.848 90.0794   4
   2  -5  -7 104.069 43.5805  34
   2  -5  -6 26779.2 664.842  16
   2  -5  -6 27332.7 656.746  34
   2  -5  -5 1020.02 103.743  34
   2  -5  -5 920.806 99.6941  16
   2  -5  -5 923.479 96.9997  15
  -2   5   4 161.594 40.4801  29
   2  -5  -4 126.031 42.4595  16
  -2   5   4 66.1799 57.8629  25
   2  -5  -4 12.1532 41.2683  22
   2  -5  -4 106.681 36.6330  15
   2  -5  -4 30.8748 39.3171  24
   2  -5  -3 44814.1 903.945  16
   2  -5  -3 47178.1 904.948  15
  -2   5   3 49273.5 1354.83  25
   2  -5  -3 45465.7 1247.98  24
   2  -5  -3 46595.1 1292.57   6
  -2   5   2 685.448 145.449  25
   2  -5  -2 1150.73 193.242  22
   2  -5  -2 668.731 132.597  24
   2  -5  -2 790.217 143.670   6
  -2   5   2 951.421 81.6285  21
   2  -5  -1 148016. 3021.15  22
  -2   5   1 150368. 2404.58  21
  -2   5   0 2429.47 261.933  25
  -2   5   0 2555.39 133.502  21
  -2   5  -1 103494. 1713.36  21
  -2   5  -1 106053. 2276.39  25
  -2   5  -2 11622.7 540.382   7
  -2   5  -3 69.5784 25.5806  21
  -2   5  -3 117.937 70.5630  25
  -2   5  -3 131.980 61.8088   7
  -2   5  -4 11045.5 571.486  25
  -2   5  -4 11084.8 307.185  21
  -2   5  -5 84.2480 61.5622  25
   2  -5   5 63.6473 53.4941  24
  -2   5  -5 131.113 28.2844  35
  -2   5  -6 77983.0 1416.16   9
  -2   5  -6 79765.3 1854.76  25
  -2   5  -6 76263.3 1388.90  17
   2  -5   6 74673.9 1808.34  24
  -2   5  -6 78114.9 1325.10  35
  -2   5  -6 79546.2 1378.09   5
  -2   5  -6 77369.7 1390.91  32
  -2   5  -6 79075.9 1420.29  12
  -2   5  -7 54926.2 1075.46   5
  -2   5  -7 55562.6 1087.26  17
  -2   5  -7 55609.1 1122.60   9
  -2   5  -7 54811.2 1037.95  35
  -2   5  -7 56466.2 1114.40  12
  -2   5  -7 54608.9 1044.33  10
  -2   5  -7 56856.2 1096.12  30
  -2   5  -8 23811.5 584.399  10
  -2   5  -8 23815.3 625.222  12
  -2   5  -8 24281.3 628.113  32
  -2   5  -8 24951.8 602.661  17
  -2   5  -8 24828.7 651.364   9
  -2   5  -8 24858.9 590.217  35
  -2   5  -9 2054.39 138.550  17
  -2   5  -9 1896.14 142.295  35
  -2   5  -9 1794.84 144.200   1
  -2   5  -9 1712.76 133.956  10
  -2   5  -9 1964.60 159.048  30
  -2   5 -10 17.2473 46.2859   9
  -2   5 -10 30.8805 26.7508  17
  -2   5 -10 18.1787 34.9114   1
  -2   5 -10 90.3659 43.4792  10
  -2   5 -10 56.7494 50.0864  30
  -2   5 -11 1801.30 138.742   1
  -2   5 -11 1928.32 156.042  30
  -2   5 -11 2030.92 164.233   9
  -2   5 -12 85.9268 36.7648   1
  -2   5 -12 87.9575 46.6615  31
  -2   5 -12 123.150 51.7872  30
  -2   5 -13 13980.4 350.425   1
  -2   5 -13 13442.4 326.860   8
  -2   5 -13 14607.4 387.354  31
  -2   5 -13 15045.7 390.357  30
   2  -4 -12 2.20955 9.37629  16
   2  -4 -12 286.163 46.3697   3
   2  -4 -11 10724.2 307.983  16
   2  -4 -11 10156.2 336.614   3
   2  -4 -11 10303.6 312.325  36
   2  -4 -10 1132.27 105.488  15
   2  -4 -10 1225.55 111.615  16
   2  -4 -10 1227.23 122.180   4
   2  -4 -10 1199.35 107.538  36
   2  -4  -9 560.222 87.6086  16
   2  -4  -9 575.084 81.3671  15
   2  -4  -9 391.108 81.1124   4
   2  -4  -8 10899.7 350.537   8
   2  -4  -8 10400.9 364.497  15
   2  -4  -8 11361.5 414.667   4
   2  -4  -8 10568.2 379.319  16
   2  -4  -8 10553.4 372.160  34
   2  -4  -7 884.514 91.3750   8
   2  -4  -7 1030.46 109.401  16
   2  -4  -7 1602.46 146.360   4
   2  -4  -7 1535.13 246.414  22
   2  -4  -7 1098.57 111.262  34
   2  -4  -6 71877.1 1334.66  34
   2  -4  -6 74186.7 1303.56   8
   2  -4  -6 74878.9 1932.49  22
   2  -4  -5 315.338 53.9072  34
   2  -4  -5 158.173 37.3476   8
   2  -4  -5 335.549 56.9445  15
   2  -4  -5 421.606 85.2428  24
   2  -4  -5 304.141 107.550  22
   2  -4  -4 45908.2 1154.50  24
   2  -4  -4 47870.7 1376.74  22
   2  -4  -3 30133.2 925.222   6
  -2   4   3 31329.6 956.350  25
  -2   4   2 505.253 114.166  25
  -2   4   2 517.417 53.7267  21
   2  -4  -2 844.380 146.972  22
   2  -4  -2 571.009 109.418   6
  -2   4   1 12624.9 549.712  25
   2  -4  -1 12676.0 562.903  22
  -2   4   1 11867.3 297.670  21
  -2   4   0 629.445 121.765  25
   2  -4   0 579.448 115.874  22
  -2   4   0 701.629 61.3250  21
  -2   4  -1 21884.4 752.690  25
  -2   4  -1 22412.5 724.906   7
   2  -4   1 21793.2 727.701  22
  -2   4  -2 9717.60 480.503  25
  -2   4  -2 10887.3 493.521   7
  -2   4  -2 10154.3 266.969  21
  -2   4  -3 109314. 2158.92  25
  -2   4  -3 112631. 2179.31   7
  -2   4  -4 62326.4 1451.66  25
  -2   4  -4 59232.4 995.475  35
  -2   4  -5 1233.24 170.921  25
  -2   4  -5 1355.65 89.3300  35
  -2   4  -6 3350.42 182.924   9
  -2   4  -6 3185.63 167.559  32
  -2   4  -6 3071.23 150.652  35
   2  -4   6 3261.82 263.988  24
  -2   4  -6 3011.53 171.202  12
  -2   4  -6 3447.96 174.302   5
  -2   4  -6 3422.64 184.794   2
  -2   4  -7 346.469 61.7671   5
  -2   4  -7 357.623 55.6460  10
  -2   4  -7 400.415 70.9472   2
  -2   4  -7 521.943 72.4220   3
  -2   4  -7 372.389 66.4897  12
  -2   4  -7 376.447 59.2672  17
  -2   4  -7 325.124 61.2994  32
  -2   4  -7 279.832 59.1665  30
  -2   4  -7 353.446 55.6633  35
  -2   4  -8 38940.8 808.132  17
  -2   4  -8 43796.9 932.529   2
  -2   4  -8 40674.1 881.041  12
  -2   4  -8 39952.1 834.323  10
  -2   4  -8 41604.8 870.293   3
  -2   4  -8 41078.7 852.496  35
  -2   4  -8 43958.4 909.701  30
  -2   4  -9 21913.0 574.072  35
  -2   4  -9 23694.1 637.417   2
  -2   4  -9 22830.0 603.447   1
  -2   4  -9 22915.0 618.053  30
  -2   4  -9 22671.7 590.295   3
  -2   4  -9 22507.4 585.928  12
  -2   4  -9 21055.0 552.460  10
  -2   4  -9 22383.7 625.651   9
  -2   4 -10 43282.7 924.242  35
  -2   4 -10 44046.3 985.276   2
  -2   4 -10 43593.1 935.464   3
  -2   4 -10 43056.6 943.365   1
  -2   4 -10 43682.4 968.732  30
  -2   4 -10 43420.3 971.285   9
  -2   4 -11 44092.7 975.797  30
  -2   4 -11 46226.4 996.580   2
  -2   4 -11 44365.4 944.242   1
  -2   4 -11 45589.3 974.761   9
  -2   4 -12 461.958 71.0357   1
  -2   4 -12 544.865 82.4113  31
  -2   4 -12 396.186 78.0913  30
  -2   4 -13 115.214 36.7289   1
  -2   4 -13 74.7722 26.6190   8
   2  -3 -13 3737.10 146.256   3
   2  -3 -12 196.571 53.8757   3
   2  -3 -12 127.454 30.3253  16
   2  -3 -12 156.720 35.6257  36
   2  -3 -11 57680.8 1147.93   3
   2  -3 -11 56623.3 1067.63  16
   2  -3 -11 58542.8 1125.02   4
   2  -3 -11 59615.6 1075.87  15
   2  -3 -11 55132.3 1074.43  36
   2  -3 -10 5305.14 270.176   4
   2  -3 -10 5389.82 231.113   8
   2  -3 -10 5137.48 244.787  16
   2  -3 -10 5497.66 245.791  15
   2  -3 -10 4995.49 240.477  36
   2  -3  -9 36073.6 781.014   8
   2  -3  -9 36947.3 831.989  16
   2  -3  -9 35143.6 801.797  15
   2  -3  -8 15763.4 481.831  16
   2  -3  -8 16655.3 450.644   8
   2  -3  -8 16194.9 469.875  15
   2  -3  -8 15259.8 466.925  34
   2  -3  -8 14827.0 758.835  22
   2  -3  -7 227.511 46.5753   8
   2  -3  -7 249.070 53.6382  15
   2  -3  -7 361.655 74.4626   4
   2  -3  -7 166.356 84.2558  22
   2  -3  -7 330.906 61.3167  34
   2  -3  -6 178.381 38.7655   8
   2  -3  -6 81.2510 59.7402  22
   2  -3  -6 122.510 35.0984  34
   2  -3  -5 17897.7 453.811  34
   2  -3  -5 19405.6 785.259  22
  -2   3   5 19504.6 615.687  26
   2  -3  -5 18782.3 574.577  24
  -2   3   4 37788.3 975.842  26
   2  -3  -4 34164.8 1064.88  22
  -2   3   3 51756.0 1233.83  25
   2  -3  -3 53110.5 1216.56   6
   2  -3  -2 105560. 2049.63  22
   2  -3  -2 101317. 1893.90   6
  -2   3   1 118654. 2203.67  25
   2  -3  -1 113446. 2183.00  22
  -2   3   0 6306.80 344.075  25
   2  -3   0 6473.23 334.897  22
  -2   3  -1 4138.48 269.794   7
   2  -3   1 3754.56 242.670  22
  -2   3  -2 1271.34 153.640  25
  -2   3  -2 1341.18 159.577   7
   2  -3   2 1146.76 120.558  22
  -2   3  -3 81411.6 1698.95  25
  -2   3  -3 85426.8 1776.71   7
  -2   3  -4 49592.6 850.558  35
  -2   3  -4 48757.5 1169.02  25
  -2   3  -5 83526.4 1668.70  26
  -2   3  -5 84158.2 1389.04  35
  -2   3  -6 60217.8 1053.88  35
   2  -3   6 56785.2 1242.88  24
  -2   3  -6 56605.8 1213.67  26
  -2   3  -7 4014.10 202.307  30
  -2   3  -7 3834.23 206.217   9
  -2   3  -7 3738.43 193.716   5
  -2   3  -7 3650.31 182.642  13
  -2   3  -7 3974.55 214.010   2
  -2   3  -7 3892.34 196.644   3
  -2   3  -7 3784.54 194.916  12
  -2   3  -7 3829.67 183.952  35
  -2   3  -7 3766.47 174.834  10
  -2   3  -8 1035.62 97.8249  10
  -2   3  -8 1074.22 109.788   3
  -2   3  -8 1439.25 123.279  12
  -2   3  -8 1179.12 122.238   9
  -2   3  -8 1208.96 126.772   2
  -2   3  -8 1004.35 102.032  35
  -2   3  -8 982.569 110.404  30
  -2   3  -9 704.082 101.503   9
  -2   3  -9 852.462 104.304   1
  -2   3  -9 676.385 102.503   2
  -2   3  -9 692.034 97.9717   3
  -2   3  -9 685.257 90.1445  12
  -2   3  -9 718.537 93.8117  35
  -2   3  -9 698.894 103.757  30
  -2   3 -10 15962.6 481.227  35
  -2   3 -10 17160.4 509.832   1
  -2   3 -10 15738.9 445.288  12
  -2   3 -10 16964.5 540.424   2
  -2   3 -10 16566.3 504.802   3
  -2   3 -10 16472.2 522.557  30
  -2   3 -10 16894.6 513.526   9
  -2   3 -11 9859.73 381.874  30
  -2   3 -11 9529.48 378.398   2
  -2   3 -11 9404.15 367.166  31
  -2   3 -11 9560.83 359.930   3
  -2   3 -11 9799.62 357.083   1
  -2   3 -11 9592.82 351.707   9
  -2   3 -12 10442.1 366.960   2
  -2   3 -12 10006.9 336.577   1
  -2   3 -12 9901.18 309.622   8
  -2   3 -12 10411.1 330.086   9
  -2   3 -13 19897.8 456.493   1
  -2   3 -13 19196.1 418.679   8
   2  -2 -14 5980.03 160.713   3
   2  -2 -13 6466.75 229.283   3
   2  -2 -12 255.125 49.7195  36
   2  -2 -12 268.126 46.5587   8
   2  -2 -12 195.407 42.0013  16
   2  -2 -12 215.785 45.8920  15
   2  -2 -11 9802.80 330.530  15
   2  -2 -11 10115.2 331.546  16
   2  -2 -11 10261.3 326.201   8
   2  -2 -10 1961.51 150.731  16
   2  -2 -10 2006.30 142.043   8
   2  -2 -10 2009.24 149.485  15
   2  -2 -10 2328.45 175.600   4
   2  -2 -10 1860.42 145.921  36
   2  -2 -10 1938.32 127.589  35
   2  -2  -9 22952.1 597.260  15
   2  -2  -9 23624.8 547.763  35
   2  -2  -9 23428.8 577.654   8
   2  -2  -9 21701.4 902.205  22
   2  -2  -8 20755.4 555.761  34
   2  -2  -8 22727.1 543.120   8
   2  -2  -8 22029.4 511.367  35
   2  -2  -8 22611.2 598.968   4
   2  -2  -8 21031.1 876.315  22
   2  -2  -7 34371.6 677.494  35
   2  -2  -7 34162.0 705.388   8
   2  -2  -7 34066.7 759.030   4
   2  -2  -7 32761.4 1103.91  22
   2  -2  -7 34422.6 742.447  34
   2  -2  -6 81085.7 1444.74  34
   2  -2  -6 85797.8 1389.17  35
   2  -2  -5 546.620 121.123  22
  -2   2   5 552.883 88.2587  26
   2  -2  -5 538.875 50.2083  35
   2  -2  -5 434.088 53.7489  34
  -2   2   4 284.815 69.9470  26
   2  -2  -4 60.3111 40.4933  22
  -2   2   3 3116.92 223.916  26
   2  -2  -2 95259.7 1795.05  22
   2  -2  -2 84306.4 1562.51   6
   2  -2  -1 54925.2 1192.12  22
  -2   2   1 56298.4 1206.44  25
  -2   2   0 105464. 1947.73  25
   2  -2   0 105808. 1896.62  22
   2  -2   1 256921. 4019.94  22
   2  -2   2 271.997 47.6225  22
  -2   2  -3 32111.8 797.105  26
  -2   2  -4 325.756 40.9404  35
  -2   2  -4 368.260 73.9611  26
  -2   2  -5 3739.84 213.127  26
  -2   2  -5 3531.90 152.215  35
  -2   2  -6 73929.8 1277.54  35
  -2   2  -7 19934.0 504.096  13
  -2   2  -7 20086.6 514.372  12
  -2   2  -7 21169.0 530.615   3
  -2   2  -7 20259.7 501.166  35
  -2   2  -7 21025.0 559.541   2
  -2   2  -7 21134.5 544.555   9
  -2   2  -7 20773.1 520.087  31
  -2   2  -7 20404.2 528.215  30
  -2   2  -8 83412.8 1493.39   9
  -2   2  -8 80320.4 1427.53  13
  -2   2  -8 77811.4 1511.24   2
  -2   2  -8 79687.1 1437.51  12
  -2   2  -8 81059.8 1464.66   1
  -2   2  -8 77134.4 1461.81   3
  -2   2  -8 77857.4 1432.25  35
  -2   2  -8 82278.4 1489.80  30
  -2   2  -9 3443.58 208.311   9
  -2   2  -9 3256.19 193.378  35
  -2   2  -9 3409.10 186.733  12
  -2   2  -9 3178.84 202.740   3
  -2   2  -9 2996.17 214.086   2
  -2   2  -9 3497.98 204.792   1
  -2   2  -9 3683.91 223.038  30
  -2   2 -10 33695.3 774.279   9
  -2   2 -10 33015.2 771.443   1
  -2   2 -10 31587.0 819.022   2
  -2   2 -10 31379.4 779.632   3
  -2   2 -11 1478.26 118.603   8
  -2   2 -11 1587.05 153.798   2
  -2   2 -11 1506.96 140.723   3
  -2   2 -11 1447.25 129.723   1
  -2   2 -11 1529.51 126.833   9
  -2   2 -12 1092.12 103.695   1
  -2   2 -12 1060.80 110.568   2
  -2   2 -12 993.992 103.360   3
  -2   2 -12 959.249 85.8948   8
  -2   2 -12 1035.64 88.4924   9
  -2   2 -13 12715.7 352.808   2
  -2   2 -13 12442.7 303.388   8
   2  -1 -14 8932.01 238.610   3
   2  -1 -13 13611.6 277.067   8
   2  -1 -13 13039.5 325.680   3
   2  -1 -12 22961.5 515.764   8
   2  -1 -12 22673.5 580.746   3
   2  -1 -12 22857.5 500.391  35
   2  -1 -12 22146.1 506.207  15
   2  -1 -11 30068.6 764.354   3
   2  -1 -11 29796.9 679.878  16
   2  -1 -11 30475.9 697.582  15
   2  -1 -11 30509.4 685.332   8
   2  -1 -11 29836.5 700.280  36
   2  -1 -11 31265.2 680.199  35
   2  -1 -10 109.441 45.4178   8
   2  -1 -10 83.8835 45.0081   4
   2  -1 -10 159.482 48.9009  36
   2  -1 -10 114.772 45.6312  35
   2  -1  -9 12862.2 429.221   4
   2  -1  -9 12032.2 392.756  36
   2  -1  -9 12782.8 386.372  35
   2  -1  -8 192.647 53.4709   4
   2  -1  -8 140.289 72.1859  22
   2  -1  -8 148.091 39.2832  35
   2  -1  -7 33383.3 1077.10  22
   2  -1  -7 31113.3 623.514  35
   2  -1  -6 61830.4 1519.69  22
   2  -1  -6 63074.0 1042.93  35
   2  -1  -5 23286.2 488.461  34
   2  -1  -5 27701.7 869.973  22
  -2   1   4 72068.1 1441.43  26
   2  -1  -4 78991.7 1630.89  22
  -2   1   3 7718.84 341.748  26
  -2   1   3 8509.58 340.641  19
  -2   1   2 653.325 95.2364  26
   2  -1  -2 758.477 111.606  22
  -2   1   2 609.418 91.1436  19
   2  -1  -1 42629.0 739.069   6
   2  -1  -1 44243.1 982.021  22
  -2   1   0 1797.59 149.922   7
   2  -1   0 970.892 104.851  22
  -2   1  -1 131281. 2312.92  19
  -2   1  -1 130606. 2270.05  26
  -2   1  -1 137895. 2365.59   7
   2  -1   1 133583. 2169.78  22
  -2   1  -2 36035.7 807.997  26
  -2   1  -2 37234.4 919.329   7
   2  -1   2 33793.7 660.179  22
  -2   1  -2 35340.3 848.526  19
  -2   1  -3 213028. 3408.18  26
  -2   1  -3 213550. 3188.62  35
  -2   1  -3 211089. 3487.21  19
  -2   1  -4 17368.6 382.471  36
  -2   1  -4 16820.8 376.360  35
  -2   1  -4 16646.9 481.702  26
   2  -1   5 45265.6 935.073  20
  -2   1  -5 46011.5 854.189  35
  -2   1  -6 23509.7 543.501  36
  -2   1  -7 70.7797 30.4637  13
  -2   1  -7 117.988 36.5632  11
  -2   1  -7 40.5126 26.4663  31
  -2   1  -7 53.7195 32.7503  30
  -2   1  -8 20956.7 558.231   1
  -2   1  -8 23708.5 594.744   9
  -2   1  -8 21734.2 554.405  13
  -2   1  -8 22595.7 552.635  12
  -2   1  -8 22214.7 555.721  11
  -2   1  -9 229.738 61.6720   9
  -2   1  -9 248.529 54.3892  13
  -2   1 -10 59564.2 1145.76   8
  -2   1 -10 58934.4 1267.85   2
  -2   1 -10 61430.8 1181.80   9
  -2   1 -11 3725.37 185.216   8
  -2   1 -11 3595.39 224.196   2
  -2   1 -11 3690.22 180.644   9
  -2   1 -12 12537.5 339.968   8
  -2   1 -12 12575.7 398.464   2
  -2   1 -13 3793.91 136.456   8
  -2   1 -13 3548.59 160.283   2
   2   0 -14 1287.70 75.9483   8
   2   0 -14 1099.70 80.5302   3
   2   0 -13 52.5570 41.4588   3
   2   0 -13 32.9718 26.1138   8
   2   0 -13 1.76086 14.9438  15
   2   0 -13 43.8866 29.3235  35
   2   0 -12 368.832 75.2689   3
   2   0 -12 278.201 55.3711   8
   2   0 -12 276.148 56.2778  15
   2   0 -12 360.782 64.2878  35
   2   0 -12 250.639 58.6749  30
   2   0 -11 5117.86 270.070   3
   2   0 -11 5124.15 234.271  36
   2   0 -11 5266.84 243.898  35
   2   0 -11 4690.02 220.842  16
   2   0 -11 5472.10 254.764  30
   2   0 -10 18899.8 510.721  36
   2   0 -10 18384.6 529.471  30
   2   0  -9 86255.4 1492.10  35
   2   0  -9 86419.8 1502.33   4
   2   0  -9 79471.4 1946.47  22
   2   0  -9 78739.4 1448.12  36
   2   0  -9 78765.1 1486.58  30
   2   0  -8 93.3048 32.2175  35
   2   0  -8 102.427 62.6890  22
   2   0  -8 72.9252 27.2812  36
   2   0  -8 157.964 44.8789  30
   2   0  -7 13768.2 369.650  35
   2   0  -7 12745.8 344.115  36
   2   0  -6 3702.53 312.072  22
   2   0  -6 3316.28 178.533  20
   2   0  -5 1503.87 182.054  22
   2   0  -5 1468.27 134.361  20
  -2   0   5 1439.52 131.990  19
  -2   0   4 38756.8 922.800  19
   2   0  -4 46715.5 1113.12  22
  -2   0   3 3796.81 230.683  26
  -2   0   2 999999. 14743.0  26
  -2   0   1 54289.3 1114.95  26
  -2   0   0 70139.8 1351.72   7
  -2   0  -1 5814.44 267.432  26
  -2   0  -1 5831.87 293.429   7
  -2   0  -2 6400.62 280.983  26
  -2   0  -3 31639.8 808.545  19
  -2   0  -4 13485.3 323.394  36
   2   0   4 13114.3 431.718  20
  -2   0  -4 13882.4 463.882  19
  -2   0  -5 77427.3 1335.04  35
  -2   0  -5 81446.1 1338.02  36
  -2   0  -6 28829.0 617.049  35
  -2   0  -6 27183.3 626.238  11
  -2   0  -6 28060.7 634.096   3
  -2   0  -6 27376.5 629.021  31
  -2   0  -7 31958.6 708.865   1
  -2   0  -7 31029.8 676.452   8
  -2   0  -7 34625.6 722.915  14
  -2   0  -7 34691.6 743.523  13
  -2   0  -7 32506.4 732.113  11
  -2   0  -7 33984.8 737.912  36
  -2   0  -7 33238.6 745.370   3
  -2   0  -8 2806.58 174.423   9
  -2   0  -8 2575.30 152.341   8
  -2   0  -8 2859.33 172.638   1
  -2   0  -8 2848.93 188.761  30
  -2   0  -8 2753.06 170.152  13
  -2   0  -8 2450.38 165.463  11
  -2   0  -8 2557.22 177.207   3
  -2   0  -8 2770.76 179.428  36
  -2   0  -9 2844.01 165.103   8
  -2   0  -9 2964.40 173.008  13
  -2   0  -9 3096.92 181.994   9
  -2   0  -9 2970.65 179.632   1
  -2   0  -9 2650.25 171.819  11
  -2   0  -9 2918.80 195.187   3
  -2   0 -10 5393.96 228.055   9
  -2   0 -10 4921.75 220.649   8
  -2   0 -10 4916.99 232.875   1
  -2   0 -10 4998.60 256.106   3
  -2   0 -11 923.806 87.9006   8
  -2   0 -11 798.180 88.0515   1
  -2   0 -11 981.123 107.582   3
  -2   0 -12 12444.6 321.471   8
  -2   0 -12 12814.7 362.511   3
  -2   0 -12 11870.8 368.482   2
  -2   0 -13 4529.40 166.233   2
   2   1 -14 20672.6 318.890   8
   2   1 -14-1.71505 14.8532   3
   2   1 -13 2736.35 143.000   8
   2   1 -13 2515.77 151.472   3
   2   1 -13 2682.52 148.085  35
   2   1 -13 2473.31 141.826  30
   2   1 -12 9751.22 342.535  35
   2   1 -12 9574.82 355.031   3
   2   1 -12 9885.10 352.087  30
   2   1 -11 420.585 78.9122  35
   2   1 -11 557.288 94.3410   3
   2   1 -11 293.349 73.9916  30
   2   1 -10 795.991 99.9240  35
   2   1 -10 483.082 87.5021  30
   2   1  -9 11965.0 357.885  36
   2   1  -9 12935.5 394.718  10
   2   1  -9 12372.9 647.813  22
   2   1  -9 13266.5 403.781  35
   2   1  -8 5711.07 428.556  22
   2   1  -8 5620.20 216.917  36
   2   1  -8 6489.88 256.119  35
   2   1  -8 6620.46 250.673  10
   2   1  -7 95834.7 2053.75  22
   2   1  -7 87664.6 1447.83  36
   2   1  -6 26944.9 897.157  22
   2   1  -6 26380.6 681.928  20
   2   1  -5 57756.5 1223.87  20
   2   1  -4 433.893 86.9503  20
   2   1  -3 1894.66 168.690  20
   2   1  -2 11062.5 433.824  20
  -2  -1   2 12469.0 270.509   6
  -2  -1   1 44743.0 918.665   7
  -2  -1   1 45931.0 793.788   6
  -2  -1   0 176085. 2806.00   7
   2   1   0 165956. 2883.08  20
   2   1   1 83908.5 1615.29  20
   2   1   2 54978.5 1180.72  20
   2   1   3 63132.2 1291.34  20
   2   1   4 6642.06 316.346  20
  -2  -1  -5 3500.96 162.831  36
  -2  -1  -6 148.326 44.1931  11
  -2  -1  -6 13.7224 18.6425  36
  -2  -1  -6 32.9887 32.5954   3
  -2  -1  -6 30.5270 23.0824  14
  -2  -1  -6 68.1978 27.6581   8
  -2  -1  -6 50.3080 31.6975   4
  -2  -1  -6 175.051 46.1540  13
  -2  -1  -6 42.6270 24.4544   1
  -2  -1  -7 50854.8 1026.04   3
  -2  -1  -7 50503.5 964.133   8
  -2  -1  -7 50303.4 977.264   1
  -2  -1  -7 50799.3 975.782  14
  -2  -1  -7 50313.9 1018.80  13
  -2  -1  -7 51915.8 1016.97  36
  -2  -1  -7 50642.9 1029.94  11
  -2  -1  -8 66003.2 1220.19   1
  -2  -1  -8 64595.6 1236.52  13
  -2  -1  -8 64091.0 1264.26   3
  -2  -1  -8 64877.9 1264.24  11
  -2  -1  -8 66757.9 1266.78  36
  -2  -1  -8 67746.2 1224.20   9
  -2  -1  -8 62919.9 1189.69   8
  -2  -1  -9 13560.5 388.597   9
  -2  -1  -9 13463.6 395.196  13
  -2  -1  -9 13153.5 400.826   1
  -2  -1  -9 12651.0 385.020   8
  -2  -1  -9 13950.8 446.985   3
  -2  -1  -9 12843.7 415.986  11
  -2  -1  -9 13149.1 429.906  36
  -2  -1 -10 23230.9 548.626   8
  -2  -1 -10 23193.1 556.900   1
  -2  -1 -10 24121.6 610.514   3
  -2  -1 -10 22884.6 557.217  11
  -2  -1 -10 22811.9 628.969   2
  -2  -1 -10 22839.4 592.537  36
  -2  -1 -11 730.529 86.6211   3
  -2  -1 -11 677.469 91.4485   2
  -2  -1 -12 261.676 48.0612   3
   2   2 -15 105.478 18.8899   8
   2   2 -14 8236.59 239.550   8
   2   2 -14 7873.69 248.397  35
   2   2 -13 7.64197 24.8350   3
   2   2 -13 1.98221 17.1548  15
   2   2 -12 35810.2 802.137  35
   2   2 -12 36804.8 789.077   3
   2   2 -11 7373.24 313.100  35
   2   2 -11 7685.46 312.061   3
   2   2 -11 6635.70 312.300  30
   2   2 -10 50358.9 1008.01   3
   2   2 -10 47984.7 983.251  10
   2   2  -9 8476.80 533.979  22
   2   2  -9 7961.07 301.667  10
   2   2  -8 54.8825 35.4344  33
   2   2  -8 117.876 38.1308  10
   2   2  -7 8085.98 506.639  22
   2   2  -7 9455.31 404.244  20
   2   2  -6 2250.30 105.206  21
   2   2  -6 2602.12 223.183  20
   2   2  -5 80657.5 1691.88  20
   2   2  -4 47992.5 1158.39  20
   2   2  -3 59539.0 1332.75  20
  -2  -2   2 114510. 1921.63   7
  -2  -2   2 124220. 1961.01   6
  -2  -2   1 941.887 95.2503   6
   2   2  -1 725.693 114.094  20
  -2  -2   0 1043.02 110.260   6
   2   2   0 1538.48 164.042  20
   2   2   1 2968.07 230.866  20
   2   2   2 36695.2 997.061  20
  -2  -2  -2 41526.6 707.410  34
   2   2   3 40374.3 1056.65  20
  -2  -2  -3 42799.4 761.420  34
  -2  -2  -4 29361.5 598.867  34
   2   2   4 28877.2 836.549  20
  -2  -2  -5 45986.8 929.032   4
  -2  -2  -5 46372.6 870.398   8
  -2  -2  -5 46535.9 923.158  11
  -2  -2  -5 44860.0 891.075   3
  -2  -2  -6 374.744 52.9835  16
  -2  -2  -6 416.909 61.2403   8
  -2  -2  -6 372.373 71.0082  11
  -2  -2  -6 365.387 60.5279  14
  -2  -2  -6 394.984 73.1998   4
  -2  -2  -6 285.025 59.5714  13
  -2  -2  -6 387.657 63.3323  36
  -2  -2  -6 453.951 73.9135   3
  -2  -2  -7 4493.63 184.451  16
  -2  -2  -7 5104.31 212.979  14
  -2  -2  -7 4496.01 228.365  13
  -2  -2  -7 4955.49 219.917   8
  -2  -2  -7 4902.11 213.999   1
  -2  -2  -7 4638.87 225.612  36
  -2  -2  -7 5061.19 239.922   3
  -2  -2  -7 4932.61 245.717  11
  -2  -2  -8 452.032 67.2804   1
  -2  -2  -8 405.096 71.0720  13
  -2  -2  -8 553.375 74.3546   8
  -2  -2  -8 555.598 84.6551   3
  -2  -2  -8 511.123 84.9297  11
  -2  -2  -8 453.168 75.3805  36
  -2  -2  -9 6766.20 254.399   1
  -2  -2  -9 6573.55 254.552   8
  -2  -2  -9 6883.59 258.247  13
  -2  -2  -9 6584.49 282.719   3
  -2  -2  -9 6232.11 271.328  11
  -2  -2  -9 6570.99 277.295  36
  -2  -2 -10 17927.0 476.764  36
  -2  -2 -10 18064.7 461.795  11
  -2  -2 -10 18344.6 491.264   3
  -2  -2 -10 17481.9 507.791   2
  -2  -2 -11 7448.69 252.779   3
  -2  -2 -11 7216.37 268.691   2
  -2  -2 -12 11785.9 299.533   2
   2   3 -15 4344.69 126.649   8
   2   3 -14 9823.54 274.235   8
   2   3 -14 9473.57 287.947  35
   2   3 -13 1294.35 119.178  30
   2   3 -12 284.007 77.3958  30
   2   3 -11 129.501 51.4817  10
   2   3 -11 154.159 66.2574  30
   2   3 -10 23379.7 568.230  31
   2   3 -10 24405.8 625.223  10
   2   3 -10 25017.9 644.619  35
   2   3  -9 37701.6 827.865  35
   2   3  -9 33811.2 828.338  33
   2   3  -9 39742.4 826.151  10
   2   3  -9 33605.0 1177.21  22
   2   3  -8 13101.6 377.408  32
   2   3  -8 15047.2 424.256  10
   2   3  -8 13157.9 689.417  22
   2   3  -8 15148.7 458.475  33
   2   3  -7 52447.1 1049.12  33
   2   3  -7 49765.5 1289.72  20
   2   3  -6 3225.73 144.612  21
   2   3  -6 3206.40 286.707  20
   2   3  -5 16420.4 678.076  20
   2   3  -5 14485.3 361.222  21
   2   3  -4 11820.1 562.783  20
   2   3  -3 55526.7 1394.75  20
  -2  -3   2 58295.9 1179.24   6
  -2  -3   1 47139.6 1026.31   6
   2   3  -1 43312.9 1191.13  20
  -2  -3   0 83590.2 1622.82   6
   2   3   0 82727.3 1826.45  20
   2   3   1 32253.2 975.451  20
   2   3   1 30136.3 606.366  21
  -2  -3  -1 31835.2 875.296   6
  -2  -3  -1 32406.1 569.025  34
   2   3   2 9932.77 278.751  21
   2   3   2 10900.2 533.613  20
  -2  -3  -2 11127.1 274.184  34
   2   3   3 845.023 150.436  20
   2   3   3 702.929 66.2070  21
  -2  -3  -3 1037.39 79.2738  34
  -2  -3  -4 6479.76 231.860  16
  -2  -3  -4 6740.04 261.083   4
  -2  -3  -4 7143.18 273.086  11
  -2  -3  -4 7335.38 247.136  34
  -2  -3  -5 26973.5 656.045   4
  -2  -3  -5 27618.7 597.350  16
  -2  -3  -5 27887.5 624.116   3
  -2  -3  -6 17946.4 516.508   4
  -2  -3  -6 17889.0 448.973  16
  -2  -3  -6 18154.9 517.452  11
  -2  -3  -6 17474.1 459.347  14
  -2  -3  -6 18531.9 488.186   3
  -2  -3  -6 17923.7 435.752   1
  -2  -3  -7 109138. 1967.36   4
  -2  -3  -7 107834. 1828.59   1
  -2  -3  -7 112777. 1938.88  13
  -2  -3  -7 115517. 1922.47   3
  -2  -3  -7 113654. 1911.43  36
  -2  -3  -7 111383. 1963.16  11
  -2  -3  -8 3460.79 191.714  13
  -2  -3  -8 3486.93 194.856   3
  -2  -3  -8 3851.55 200.769  36
  -2  -3  -8 3491.50 206.226  11
  -2  -3  -9 3652.73 172.288  13
  -2  -3  -9 3366.14 187.824  11
  -2  -3  -9 3651.58 188.844  36
  -2  -3 -10 87.3307 43.0982   2
  -2  -3 -10 76.9958 37.2363   3
  -2  -3 -10 214.838 44.9577  36
  -2  -3 -10 98.4224 35.8491  11
  -2  -3 -11 600.210 64.2486   2
   2   4 -15 8694.82 197.112   8
   2   4 -14 14235.4 368.125  35
   2   4 -14 13250.8 358.476  30
   2   4 -13 8004.38 296.508  35
   2   4 -13 7984.43 306.325  30
   2   4 -12 23244.9 613.394  35
   2   4 -12 21993.9 625.457  30
   2   4 -11 200.850 60.4154  10
   2   4 -11 241.546 54.0797  31
   2   4 -11 222.435 68.3654  35
   2   4 -10 16037.9 493.304  35
   2   4 -10 17336.7 499.706  10
   2   4  -9 117.770 48.7285  35
   2   4  -9 154.252 87.8033  22
   2   4  -9 207.807 63.7095  33
   2   4  -9 125.386 42.2850  32
   2   4  -9 249.374 61.6523  10
   2   4  -8 11134.1 405.603  33
   2   4  -8 10723.7 346.705  32
   2   4  -7 38917.6 1206.97  20
   2   4  -7 37488.4 738.865  21
   2   4  -6 26900.3 596.950  21
   2   4  -6 29700.9 1058.88  20
   2   4  -5 35288.9 720.014  21
   2   4  -5 37079.2 1206.06  20
   2   4  -4 236.950 98.9644  20
   2   4  -4 247.370 45.0871  21
   2   4  -3 26283.3 569.025  21
  -2  -4   2 7749.06 378.536   6
   2   4  -2 7372.97 249.250  21
   2   4  -2 8243.78 509.041  20
   2   4  -1 13944.9 684.679  20
  -2  -4   1 14622.0 551.965   6
   2   4  -1 14301.9 374.523  21
   2   4   0 56643.9 1018.57  21
  -2  -4   0 55592.1 1310.65   6
  -2  -4   0 56090.4 927.641  34
   2   4   0 54845.7 1517.89  20
  -2  -4  -1 476.876 48.1099  34
   2   4   1 634.770 69.3250  21
  -2  -4  -1 459.141 102.865   6
   2   4   1 666.141 150.492  20
   2   4   2 81978.4 1413.44  21
  -2  -4  -2 83925.6 1376.65  34
   2   4   3 88.7989 32.1842  21
   2   4   3 94.1750 64.0427  20
  -2  -4  -3 140.258 37.5059  16
  -2  -4  -3 55.2692 22.5545  34
  -2  -4  -4 32645.5 702.075  16
  -2  -4  -4 32353.3 727.739   4
  -2  -4  -4 34487.7 699.101  34
  -2  -4  -4 32883.3 751.792  11
  -2  -4  -5 1417.85 127.076   4
  -2  -4  -5 1468.47 130.482  11
  -2  -4  -6 526.301 87.8087   4
  -2  -4  -6 376.639 59.6804  14
  -2  -4  -6 395.624 68.6622   3
  -2  -4  -7 8673.99 305.891  36
  -2  -4  -7 8455.07 317.720  13
  -2  -4  -7 7987.51 288.067   3
  -2  -4  -7 7854.73 324.518  11
  -2  -4  -8 107.068 40.1030  13
  -2  -4  -8 119.798 48.6794  11
  -2  -4  -9 21652.6 416.915  11
  -2  -4  -9 21172.3 386.568  36
  -2  -4 -10 978.883 73.0305  11
  -2  -4 -10 987.241 81.8367   2
  -2  -4 -11 14726.5 299.283   2
   2   5 -14 2395.94 130.635  30
   2   5 -14 2536.96 131.630  35
   2   5 -13 1986.79 136.534  35
   2   5 -13 2100.53 150.096  30
   2   5 -12 16722.3 521.964  30
   2   5 -12 17127.1 490.922  35
   2   5 -12 17896.0 488.406  10
   2   5 -11 18736.8 546.359  35
   2   5 -11 19684.8 547.571  10
   2   5 -10 37034.6 926.705  33
   2   5 -10 39757.3 895.815  35
   2   5  -9 946.375 103.187  32
   2   5  -9 868.365 192.259  22
   2   5  -9 915.300 126.892  33
   2   5  -9 1111.58 118.999  35
   2   5  -8 22016.2 531.268  21
   2   5  -8 22960.3 585.255  32
   2   5  -8 23923.7 676.055  33
   2   5  -7 2589.71 167.768  32
   2   5  -7 3104.20 360.275  20
   2   5  -7 3017.16 223.628  33
   2   5  -7 3360.63 181.158  21
  -2  -5   7 3282.40 164.526  23
  -2  -5   6 3164.64 160.557  23
   2   5  -6 3110.52 178.295  21
   2   5  -6 2896.54 351.611  20
   2   5  -6 2942.75 162.901  17
  -2  -5   5 44187.1 844.271  23
   2   5  -5 43343.6 891.346  21
   2   5  -5 45333.5 1497.25  20
   2   5  -5 43713.3 853.749  17
   2   5  -4 169.433 39.9209  17
   2   5  -4 65.3163 73.5460  20
  -2  -5   4 163.156 37.5774  23
   2   5  -4 63.4107 29.4841  21
  -2  -5   3 132391. 2166.12  23
  -2  -5   3 143786. 2631.55   6
   2   5  -2 2816.77 338.871  20
   2   5  -2 3080.32 170.631  21
  -2  -5   1 82867.6 1397.36  23
  -2  -5   1 81699.0 1817.09   6
   2   5  -1 80206.0 1439.19  21
   2   5  -1 81940.8 2135.36  20
  -2  -5   0 5567.38 215.857  23
   2   5   0 5837.21 239.982  21
  -2  -5   0 6270.58 400.965   6
  -2  -5   0 5847.36 187.011  34
   2   5   0 6547.00 510.981  20
  -2  -5  -1 109.509 33.1278  23
   2   5   1 139.356 40.9259  21
  -2  -5  -1 161.673 31.7033  34
   2   5   1 127.174 80.7776  20
  -2  -5  -2 11188.0 308.209  34
  -2  -5  -2 10286.3 311.066  23
   2   5   2 10799.7 347.167  21
   2   5   2 10540.1 660.681  20
  -2  -5  -3 1098.03 101.908   4
   2   5   3 1089.72 103.988  21
  -2  -5  -3 1157.72 94.6945  34
  -2  -5  -4 57497.0 1136.18  11
  -2  -5  -4 57878.4 1056.05  34
  -2  -5  -5 6628.80 280.503   4
  -2  -5  -5 7592.11 314.378  11
  -2  -5  -6 15309.3 459.675   4
  -2  -5  -6 16842.4 440.586  36
  -2  -5  -7 7864.99 288.731  13
  -2  -5  -7 7959.32 274.039  36
  -2  -5  -8 196.470 41.8486  13
  -2  -5  -8 121.120 34.7212  36
  -2  -5  -8 132.055 42.9654  11
  -2  -5  -9 1183.34 86.0910  11
  -2  -5  -9 1145.65 85.6677   2
   2   6 -14 1956.88 111.550  30
   2   6 -13 10108.0 311.254  35
   2   6 -13 10939.7 348.941  30
   2   6 -12 5601.32 243.092  35
   2   6 -12 6115.59 253.879  10
   2   6 -12 5355.25 207.111  31
   2   6 -11 899.322 105.788  35
   2   6 -11 922.071 108.360  10
   2   6 -10 5129.64 258.522  10
   2   6 -10 4580.28 241.125  35
   2   6 -10 4899.43 278.830  33
   2   6 -10 4189.50 219.391  32
   2   6  -9 740.216 119.581  33
   2   6  -9 716.100 98.4368  35
  -2  -6   8 52434.6 956.531  23
   2   6  -8 49988.4 985.383  21
   2   6  -8 47015.6 1006.08  35
   2   6  -8 44740.1 998.112  32
  -2  -6   7 12660.2 368.499  23
   2   6  -7 11502.1 391.333  21
  -2  -6   6 46998.0 913.811  23
   2   6  -6 44981.1 972.292  21
   2   6  -6 45796.2 1655.77  20
  -2  -6   5 11342.7 348.484  23
   2   6  -5 10787.4 381.976  21
   2   6  -5 10692.3 750.702  20
  -2  -6   4 1062.94 97.2401  23
  -2  -6   4 1210.12 185.035   6
   2   6  -4 920.033 108.535  21
   2   6  -4 1136.81 246.028  20
  -2  -6   3 18452.6 474.800  23
  -2  -6   3 18139.9 748.709   6
  -2  -6   2-9.23739 38.4011   6
   2   6  -2 72.9856 47.5714  21
   2   6  -2 31.1845 74.8444  20
  -2  -6   1 96564.5 1610.71  23
   2   6  -1 89317.9 1659.60  21
  -2  -6   1 92379.2 2090.75   6
   2   6  -1 97346.9 2519.38  20
  -2  -6   0 10444.4 331.969  23
   2   6   0 10764.6 373.452  21
  -2  -6   0 11103.1 588.400   6
  -2  -6   0 10939.7 288.524  34
   2   6   0 10671.2 720.520  20
  -2  -6  -1 35590.7 742.329  23
   2   6   1 35502.6 797.906  21
  -2  -6  -1 35597.9 691.695  34
  -2  -6  -2 33084.6 706.568  23
  -2  -6  -2 32734.5 765.154  11
  -2  -6  -3 2731.76 179.651  11
  -2  -6  -3 2380.05 133.427  23
  -2  -6  -3 2748.52 149.114  34
  -2  -6  -4 132.882 43.4537   4
  -2  -6  -4 183.044 56.3890  11
  -2  -6  -5 844.932 90.9108   4
  -2  -6  -5 1116.98 116.730  11
  -2  -6  -6 26400.1 617.828  13
  -2  -6  -6 25883.3 564.472  36
  -2  -6  -6 26419.1 643.613  11
  -2  -6  -7 8236.64 263.582  13
  -2  -6  -7 8310.80 248.392  36
  -2  -6  -8 5908.42 189.188   2
  -2  -6  -8 7402.79 228.081  11
  -2  -6  -9 5913.46 157.465  11
   2   7 -14 466.677 48.7834  30
   2   7 -13 22760.1 528.148  30
   2   7 -12 132.147 39.6773  35
   2   7 -12 114.378 32.0938  31
   2   7 -11 26406.9 633.972  35
   2   7 -11 31299.6 695.155  10
   2   7 -10 11789.4 376.297  32
   2   7 -10 12228.1 409.482  10
   2   7  -9 1340.64 122.317  35
   2   7  -9 1609.37 138.475  32
   2   7  -8 175.480 59.6067  21
   2   7  -8 200.799 63.9890  32
  -2  -7   8 306.994 58.4886  23
   2   7  -8 108.738 45.1617  35
   2   7  -7 67.0742 67.0716  33
   2   7  -7 68.6918 36.7259  35
  -2  -7   7 52.1635 37.5648  23
   2   7  -7 147.430 60.1974  21
   2   7  -7 63.1745 45.2161  32
  -2  -7   6 74280.9 1350.44  23
   2   7  -6 77660.1 1456.69  21
  -2  -7   5 34288.0 749.064  23
  -2  -7   5 32851.9 1098.56   6
   2   7  -5 33432.7 813.974  21
  -2  -7   4 26500.5 624.193  23
  -2  -7   4 23512.8 923.512   6
  -2  -7   3 44165.2 914.177  23
  -2  -7   3 45898.4 1351.03   6
   2   7  -3 45523.1 996.851  21
  -2  -7   2 7999.26 303.599  23
  -2  -7   2 9157.14 549.644   6
   2   7  -2 9004.34 359.313  21
  -2  -7   1 8595.51 313.247  23
   2   7  -1 9104.80 360.202  21
  -2  -7   1 9497.12 563.815   6
  -2  -7   0 516.861 74.6751  23
   2   7   0 452.407 88.0767  21
  -2  -7   0 509.130 71.9270  11
  -2  -7  -1 24943.5 583.824  23
   2   7   1 25986.6 652.080  21
  -2  -7  -2 25949.9 590.563  23
  -2  -7  -2 26541.8 648.892  11
  -2  -7  -2 26922.2 567.337  34
  -2  -7  -3 13711.7 359.311  34
  -2  -7  -3 14384.4 434.270  11
  -2  -7  -4 10958.6 365.910  11
  -2  -7  -5 511.180 55.9305  36
  -2  -7  -5 551.574 76.6787  11
  -2  -7  -6 1519.47 110.907  11
  -2  -7  -6 1429.54 100.461  13
  -2  -7  -7 119.054 24.2850  13
  -2  -7  -7 135.151 32.4064  11
   2   8 -12 5248.64 197.324  10
   2   8 -11 3684.59 185.078  10
   2   8 -10 12801.7 399.444  10
   2   8 -10 12361.6 423.911  33
   2   8 -10 11538.5 355.581  32
  -2  -8   9 22548.9 504.488  23
   2   8  -9 22031.0 640.031  33
   2   8  -9 23610.3 586.706  32
  -2  -8   8 20670.0 502.755  23
   2   8  -8 20448.3 548.956  21
   2   8  -8 21371.7 635.744  33
   2   8  -7 16.4650 48.9017  21
  -2  -8   7 72.1932 41.4755  23
   2   8  -7 79.3587 63.8128  33
   2   8  -7 4.22664 37.9590  32
  -2  -8   6 1747.35 132.689  23
   2   8  -6 1261.42 137.766  21
   2   8  -6 1659.14 188.377  33
  -2  -8   5 846.633 96.4815  23
   2   8  -5 614.152 107.774  21
  -2  -8   5 521.611 130.821   6
  -2  -8   4 8879.13 325.332  23
  -2  -8   4 8258.09 519.213   6
  -2  -8   3 25100.5 953.695   6
   2   8  -3 26599.9 708.845  21
  -2  -8   2 59969.3 1137.63  23
   2   8  -2 59177.5 1211.13  21
  -2  -8   1 69166.6 1289.01  23
   2   8  -1 71227.4 1376.97  21
  -2  -8   0 854.240 91.2220  23
   2   8   0 863.894 110.345  21
  -2  -8   0 659.746 76.5298  11
  -2  -8  -1 2188.35 135.568  23
   2   8   1 1995.06 153.735  21
  -2  -8  -1 1855.10 129.982  11
  -2  -8  -2 215.191 42.4773  23
  -2  -8  -2 288.097 55.1803  11
  -2  -8  -3 8433.48 287.107  11
  -2  -8  -4 19461.3 464.407  11
  -2  -8  -5 772.441 70.0663  13
  -2  -8  -5 853.958 72.1599  11
  -2  -8  -6 20455.5 389.237  13
  -2  -8  -6 21445.8 412.659  11
   2   9 -12 114.372 25.5458  10
   2   9 -12 12.0290 20.8403  30
   2   9 -11 2447.51 127.418  10
   2   9 -10 21.0483 29.2819  10
   2   9 -10 30.3653 24.0513  32
  -2  -9   9 3184.99 137.992  23
   2   9  -9 3514.63 203.254  33
   2   9  -9 3171.86 166.620  32
  -2  -9   8 27019.1 576.405  23
   2   9  -8 27747.7 695.757  33
   2   9  -8 26679.8 626.284  21
  -2  -9   7 5605.88 226.330  23
   2   9  -7 5310.81 255.892  21
   2   9  -7 5656.80 263.598  32
  -2  -9   6 48328.3 952.362  23
   2   9  -6 46875.9 1024.90  21
  -2  -9   5 1695.31 128.036  23
   2   9  -5 1631.93 150.884  21
   2   9  -5 2011.61 186.280  33
  -2  -9   4 4779.19 221.732  23
   2   9  -3 160.306 66.5831  21
  -2  -9   2 2065.64 139.798  23
   2   9  -2 2057.77 162.490  21
  -2  -9   1 7363.16 264.670  23
   2   9  -1 7534.18 304.637  21
  -2  -9   0 3258.82 158.717  23
   2   9   0 3413.58 189.365  21
  -2  -9  -1 40586.5 717.736  23
   2   9   1 40175.4 784.622  21
  -2  -9  -2 1304.27 85.5694  11
  -2  -9  -3 4963.23 162.846  11
  -2  -9  -4 100.006 24.5025  13
  -2  -9  -4 27.3078 13.6384  11
   2  10 -10 193.540 36.0161  10
   2  10  -9 2249.43 108.093  32
  -2 -10   8 213.616 36.2795  23
   2  10  -8 221.362 51.3987  33
   2  10  -8 183.384 40.0482  32
  -2 -10   7 2177.76 118.184  23
   2  10  -7 2211.10 141.351  21
   2  10  -7 2050.32 137.132  33
   2  10  -7 2217.26 136.013  32
   2  10  -6 13383.4 387.119  33
   2  10  -6 11707.9 372.325  21
  -2 -10   6 11836.9 331.601  23
   2  10  -6 13159.8 382.650  32
  -2 -10   5 401.689 57.7246  23
   2  10  -5 399.769 73.4368  21
   2  10  -5 374.295 67.8703  33
   2  10  -4 25866.7 606.855  33
   2  10  -4 24371.6 603.108  21
   2  10  -3 339.788 66.9624  33
  -2 -10   3 433.545 57.7942  23
   2  10  -3 398.865 73.1131  21
  -2 -10   2 24886.6 390.264  23
   2  10  -2 24972.1 457.660  21
   2  10  -1 2466.42 141.243  21
  -2 -10   1 2417.15 117.010  23
  -2 -10   0 27.9599 16.1179  23
  -2 -10  -2 826.220 55.8451  13
   2  11  -8 4281.91 132.870  10
  -2 -11   7 9238.66 211.387  23
  -2 -11   6 1905.56 87.6221  23
   2  11  -6 1687.65 87.9248  32
  -2 -11   5 1392.62 77.2203  23
   2  11  -5 1116.68 75.6043  32
   2  11  -4 7302.45 215.776  32
  -2 -11   3 769.780 53.8820  23
  -2 -11   2 18271.0 340.817  23
   3 -12   1 462.026 41.4384  23
   3 -12   2 5093.05 163.097  23
   3 -12   4 21486.0 439.959  23
  -3  12  -5 5206.13 146.129  17
   3 -12   5 7212.88 195.570  23
   3 -12   6 10115.6 237.594  23
  -3  12  -6 9727.21 221.325  17
  -3  12  -7 4787.93 133.279  17
   3 -11  -3 878.764 62.1351   4
   3 -11  -2 703.344 63.1967   4
   3 -11  -1 19031.3 395.227  23
   3 -11   0 10700.5 290.112  23
   3 -11   1 16478.7 407.720  23
   3 -11   2 12466.6 302.217  23
  -3  11  -2-1.73365 14.4180  32
  -3  11  -3 4373.25 161.057  17
   3 -11   3 4873.85 192.747  23
  -3  11  -4 730.723 74.7166  17
   3 -11   4 782.443 81.0161  23
  -3  11  -4 730.526 70.8517  32
  -3  11  -5 621.293 70.9904  17
   3 -11   5 589.486 70.6864  23
  -3  11  -5 584.358 64.6802  32
  -3  11  -6 23170.4 527.161  17
  -3  11  -6 24830.1 514.789  32
   3 -11   6 23294.6 522.885  23
  -3  11  -7 17582.5 421.119  17
   3 -11   7 17276.4 398.059  23
  -3  11  -7 18268.1 407.699  32
  -3  11  -8 11278.4 299.681  17
   3 -10  -5 9304.91 258.714   4
   3 -10  -4 8551.39 268.142   4
   3 -10  -4 7839.09 243.327  34
   3 -10  -3 25622.0 568.832  34
   3 -10  -3 26985.5 597.747   4
   3 -10  -2 3230.11 143.363  23
   3 -10  -2 2994.81 166.874  34
   3 -10  -1 446.255 62.0163  23
   3 -10   0 3432.70 177.958  23
  -3  10  -1 12018.9 340.093  17
  -3  10  -2 14056.7 393.374  32
  -3  10  -2 13282.5 393.191  17
  -3  10  -3 5856.02 256.525  17
  -3  10  -3 5943.12 243.325  32
  -3  10  -4 33648.8 776.429  17
  -3  10  -4 35889.5 754.449  32
  -3  10  -5 454.040 80.7689  17
   3 -10   5 378.535 68.0973  23
  -3  10  -5 449.982 70.7211  32
  -3  10  -6 8694.34 327.234  17
   3 -10   6 8448.12 307.531  23
  -3  10  -6 9466.43 314.639  32
  -3  10  -7 63.8534 35.8989  32
  -3  10  -7 39.4001 42.4504  17
   3 -10   7 136.453 42.7291  23
  -3  10  -8 2046.41 128.816  32
   3 -10   8 1713.70 101.322  23
  -3  10  -9 21959.2 504.120  17
  -3  10 -10 790.903 66.5411  17
  -3  10 -10 725.534 64.2423  31
  -3  10 -11 12622.3 269.883  31
   3  -9  -7 537.023 55.4169   4
   3  -9  -6 7074.05 218.829  16
   3  -9  -6 6920.70 223.541  34
   3  -9  -5 289.050 50.1129  16
   3  -9  -5 386.797 66.3080   4
   3  -9  -5 285.544 49.4028  34
   3  -9  -4 15835.0 413.285  16
   3  -9  -4 15930.9 433.127  34
   3  -9  -3 3080.11 164.629  16
   3  -9  -3 2896.05 143.137  23
   3  -9  -3 3167.02 183.168  34
  -3   9   3 2752.44 155.957  29
  -3   9   2 26018.6 631.613  29
   3  -9  -2 25795.0 593.790  16
   3  -9  -2 26574.3 593.940  23
  -3   9   1 39018.8 875.775  29
  -3   9   1 40939.6 1493.65  25
   3  -9  -1 37860.9 1262.88   6
  -3   9   0 250.140 66.7897  29
  -3   9   0 242.385 52.7929  17
  -3   9   0 134.152 102.634  25
   3  -9   0 42.4621 79.7006  24
   3  -9   0 60.6974 61.8483   6
  -3   9  -1 13968.9 425.387  17
  -3   9  -1 14611.3 898.373  25
   3  -9   1 14593.2 839.856  24
  -3   9  -1 14775.9 481.845  29
  -3   9  -2 48.6601 52.0177  29
  -3   9  -2 51.7713 41.6358  17
  -3   9  -2 71.5507 95.9996  25
   3  -9   2 66.0970 67.3076   6
  -3   9  -3 3883.76 221.731  17
   3  -9   3 2898.14 379.139  24
   3  -9   3 3177.30 373.946   6
  -3   9  -3 4210.69 212.680  32
  -3   9  -3 3588.16 228.752  29
  -3   9  -4 46755.6 1686.16  25
  -3   9  -4 49171.8 963.690  32
  -3   9  -5 2018.65 168.699  17
   3  -9   5 1985.84 317.053  24
  -3   9  -5 1955.91 326.443  25
  -3   9  -5 2325.71 159.446  32
  -3   9  -6 47403.7 1035.17  17
  -3   9  -6 49307.5 985.157  32
   3  -9   7 488.057 73.5717  23
  -3   9  -7 515.532 77.1894  32
  -3   9  -8 16297.4 489.538  17
  -3   9  -8 16668.5 460.638  32
  -3   9  -9 2499.53 158.595  17
  -3   9 -10 125.103 35.6100  17
  -3   9 -11 6521.63 211.522  31
  -3   9 -12 951.827 58.9743  31
   3  -8  -8 11092.1 282.359  16
   3  -8  -7 6531.95 230.019  16
   3  -8  -7 6225.88 220.995  34
   3  -8  -6 37959.3 781.912  16
   3  -8  -6 38001.7 775.784  34
   3  -8  -5 977.756 100.217  16
   3  -8  -5 894.240 94.4694  34
  -3   8   4 21864.7 545.077  29
   3  -8  -4 22958.1 578.757  16
   3  -8  -4 23269.8 586.083  34
  -3   8   3 2521.06 170.637  29
   3  -8  -3 2345.12 160.364  16
   3  -8  -3 2180.50 279.951  24
  -3   8   2 8813.85 342.614  29
   3  -8  -2 8323.52 309.412  16
  -3   8   2 9717.42 687.507  25
   3  -8  -2 8443.23 579.166  24
   3  -8  -2 7897.29 530.833   6
  -3   8   1 6866.89 307.562  29
  -3   8   1 6811.95 586.082  25
   3  -8  -1 6532.05 263.358  16
   3  -8  -1 6424.75 523.178  24
   3  -8  -1 6004.55 473.107   6
  -3   8   0 2749.11 194.396  29
  -3   8   0 3278.20 414.000  25
   3  -8   0 2700.48 347.683  24
   3  -8   0 2391.78 304.162   6
  -3   8  -1 91636.4 1701.79  29
  -3   8  -1 96197.2 2556.76  25
   3  -8   1 92835.8 2282.31   6
  -3   8  -2 2987.07 205.548  29
   3  -8   2 2891.17 369.839  24
  -3   8  -2 3191.11 413.838  25
  -3   8  -3 32720.6 1362.20  25
  -3   8  -3 31462.6 764.516  17
  -3   8  -4 6671.78 306.559  17
  -3   8  -4 6061.60 566.571  25
   3  -8   4 6336.61 555.146  24
  -3   8  -4 6984.44 280.380  32
  -3   8  -4 6618.84 314.891  29
  -3   8  -5 723.117 107.861  17
  -3   8  -5 716.192 197.594  25
   3  -8   5 1041.68 229.130  24
  -3   8  -5 812.917 97.2994  32
   3  -8   6 10943.4 736.724  24
  -3   8  -6 12375.4 402.656  32
  -3   8  -7 6909.91 320.588  17
  -3   8  -7 6916.49 287.622  32
  -3   8  -7 6348.26 235.643  10
  -3   8  -8 42157.5 926.360  17
  -3   8  -8 43485.2 897.487  32
  -3   8  -9 3057.43 178.040  17
  -3   8  -9-10.2955 19.4566  10
  -3   8 -10 22008.7 514.898  17
  -3   8 -11 23.0450 22.3134  17
  -3   8 -11 4476.88 178.912  31
  -3   8 -12 1001.03 75.1632  31
   3  -7  -9 16931.0 328.286   4
   3  -7  -9 14524.0 266.013   3
   3  -7  -8 2371.35 141.561  16
   3  -7  -8 2497.36 155.489   4
   3  -7  -8 2110.20 127.020  34
   3  -7  -7 1162.66 111.237  16
   3  -7  -7 1065.72 110.996   4
   3  -7  -7 996.169 96.2919  34
   3  -7  -6 9615.63 350.107  16
   3  -7  -6 9787.64 335.278  34
  -3   7   5 2770.41 163.507  29
   3  -7  -5 2929.88 187.726  16
   3  -7  -5 2919.28 179.284  34
  -3   7   4 43593.3 917.279  29
   3  -7  -4 44644.6 944.755  16
   3  -7  -3 3139.77 189.720  16
  -3   7   3 3684.57 209.946  29
   3  -7  -3 3115.06 333.740  24
   3  -7  -3 2930.35 316.218   6
  -3   7   2 43447.9 964.853  29
  -3   7   2 47642.3 1475.72   7
  -3   7   2 45265.8 1541.46  25
   3  -7  -2 47328.1 1475.52  24
   3  -7  -2 46136.1 1383.96   6
   3  -7  -2 46442.0 942.156  16
   3  -7  -1 11635.1 369.654  16
  -3   7   1 12255.0 758.590  25
  -3   7   1 12342.7 692.066   7
   3  -7  -1 11720.0 693.965  24
   3  -7  -1 12430.7 664.593   6
  -3   7   1 12580.3 423.439  29
  -3   7   0 1056.31 229.287  25
  -3   7   0 858.525 186.626   7
   3  -7   0 983.458 203.721  24
   3  -7   0 844.927 172.755   6
  -3   7  -1 11603.2 409.282  29
  -3   7  -1 11964.7 759.362  25
  -3   7  -1 12384.9 687.807   7
   3  -7   2 2473.57 326.320  24
  -3   7  -2 2557.99 309.652   7
  -3   7  -3 80617.5 1523.97  29
  -3   7  -3 79028.8 2206.49  25
   3  -7   3 76879.6 2142.49  24
  -3   7  -3 79388.6 2027.97   7
  -3   7  -3 80856.8 1418.48  32
  -3   7  -4 22687.5 621.797  29
  -3   7  -4 21679.2 565.626   5
  -3   7  -4 22798.8 1055.70  25
   3  -7   4 21851.6 1025.73  24
  -3   7  -4 23880.9 565.765  32
  -3   7  -5 22068.1 573.389   5
  -3   7  -5 23297.2 624.403  29
   3  -7   5 23456.0 1079.28  24
  -3   7  -5 24974.5 1087.79  25
  -3   7  -5 23740.6 582.138  32
  -3   7  -5 22661.4 569.744   9
  -3   7  -6 69736.8 1353.83  17
   3  -7   6 65737.8 1946.07  24
  -3   7  -6 65455.1 1265.12   5
  -3   7  -6 69179.7 1278.14  32
  -3   7  -6 66047.3 1282.99   9
  -3   7  -7 3053.50 333.183  26
  -3   7  -7 3555.38 221.138  17
  -3   7  -7 3309.45 195.120  32
  -3   7  -7 3095.08 187.081   5
  -3   7  -7 3447.70 168.271  10
  -3   7  -7 3384.74 208.476   9
  -3   7  -8 1099.81 121.533  17
  -3   7  -8 1176.43 116.937  32
  -3   7  -8 1018.45 91.4634  10
  -3   7  -8 1077.64 121.036   9
  -3   7  -9 692.574 75.1985  10
  -3   7  -9 677.154 86.7145   1
  -3   7  -9 852.883 98.2920  17
  -3   7  -9 665.573 99.9560   9
  -3   7  -9 687.487 83.5479  30
  -3   7 -10 27439.8 632.477   1
  -3   7 -10 27538.1 605.944  17
  -3   7 -10 28857.4 669.247  31
  -3   7 -10 29268.4 630.690  30
  -3   7 -11-4.50073 14.4054  17
  -3   7 -11-6.65809 19.5730  30
  -3   7 -11 7122.49 218.317   1
  -3   7 -11 7968.48 259.699  31
  -3   7 -12 4755.46 157.980   1
  -3   7 -12 6534.46 218.693  31
   3  -6 -11 2732.77 96.6651  16
   3  -6 -10 2049.38 116.649   4
   3  -6 -10 1970.10 112.368  16
   3  -6 -10 1760.42 109.167   3
   3  -6  -9 39087.7 814.704   4
   3  -6  -8 10532.2 360.786  16
   3  -6  -8 10233.5 363.594   4
   3  -6  -8 9778.76 327.029  34
   3  -6  -7 25422.4 647.900  16
   3  -6  -7 25076.9 658.858   4
   3  -6  -7 24684.6 608.418  34
   3  -6  -6 19484.7 547.900  16
   3  -6  -6 18551.8 525.344  15
   3  -6  -6 18203.5 507.187  34
  -3   6   5 526.936 78.2511  29
   3  -6  -5 656.407 93.4085  16
   3  -6  -5 559.421 83.0505  15
   3  -6  -5 458.891 73.6880  34
  -3   6   4 4059.44 213.211  29
   3  -6  -4 3743.54 213.048  16
  -3   6   4 3594.63 360.253  26
   3  -6  -4 3832.16 206.239  15
   3  -6  -4 3683.01 340.889  24
  -3   6   3 5839.34 261.548  29
  -3   6   3 5546.36 245.964  28
   3  -6  -3 5343.32 248.642  16
   3  -6  -3 5713.88 249.296  15
   3  -6  -3 5989.75 448.607  24
   3  -6  -3 5671.24 505.010  22
   3  -6  -3 5939.13 422.271   6
  -3   6   2 48263.1 968.094  29
   3  -6  -2 42797.9 909.135  16
   3  -6  -2 48101.9 933.984  15
  -3   6   2 48397.3 1498.87  25
  -3   6   2 45552.2 943.953  28
   3  -6  -2 44473.0 1505.33  22
   3  -6  -2 45898.9 1323.31   6
   3  -6  -1 6091.22 240.629  16
  -3   6   1 6206.85 457.304   7
  -3   6   1 5723.31 474.083  25
  -3   6   1 6266.87 270.956  29
  -3   6   1 6844.72 281.205  28
   3  -6  -1 6902.35 448.143   6
  -3   6   0 24686.9 628.976  28
  -3   6   0 25951.9 1057.25  25
  -3   6   0 27540.3 1012.61   7
  -3   6   0 26593.2 641.261  29
  -3   6  -1 58399.9 1689.68  25
  -3   6  -1 60643.7 1622.39   7
  -3   6  -2 362.649 70.6482  29
  -3   6  -2 146.802 85.7957   7
  -3   6  -3 292.882 64.1402  29
  -3   6  -3 300.363 107.427   7
  -3   6  -3 196.198 40.8115  32
  -3   6  -3 152.005 45.0845  12
  -3   6  -4 6023.76 266.506  29
  -3   6  -4 5270.19 242.656   5
  -3   6  -4 6300.97 491.365  25
  -3   6  -4 6205.54 263.850  12
  -3   6  -4 6057.35 234.294  32
  -3   6  -4 5495.46 229.355   9
  -3   6  -5 68727.3 1290.72  29
  -3   6  -5 68257.7 1869.43  25
   3  -6   5 68719.1 1919.32  24
  -3   6  -5 70769.7 1322.55  12
  -3   6  -5 71818.6 1261.14  32
  -3   6  -5 64777.9 1273.58   5
  -3   6  -5 67407.9 1275.39   9
  -3   6  -6 1068.75 116.751  17
   3  -6   6 987.018 207.264  24
  -3   6  -6 870.686 100.706   5
  -3   6  -6 1201.83 110.926  32
  -3   6  -6 963.378 107.840   9
  -3   6  -7 104888. 1840.60  17
  -3   6  -7 107512. 1761.72  30
  -3   6  -7 103860. 1872.64  12
  -3   6  -7 101123. 1709.40  10
  -3   6  -7 98285.1 1809.70   5
  -3   6  -7 104539. 1805.52  32
  -3   6  -7 101658. 1847.80   9
  -3   6  -8 61269.6 1199.81  17
  -3   6  -8 62839.2 1263.43  12
  -3   6  -8 60462.4 1115.44  10
  -3   6  -8 62410.4 1174.19  30
  -3   6  -8 62135.9 1255.03   9
  -3   6  -9 942.256 98.1190  17
  -3   6  -9 965.676 90.1518  10
  -3   6  -9 1280.21 118.761  30
  -3   6  -9 1158.94 128.842   9
  -3   6 -10 1142.70 91.2544  17
  -3   6 -10 1210.91 131.880   9
  -3   6 -10 1163.72 116.678  31
  -3   6 -10 1138.23 112.501   1
  -3   6 -10 1141.05 112.927  30
  -3   6 -11 420.316 70.4628  31
  -3   6 -11 356.926 62.5224   1
  -3   6 -11 468.424 71.5395  30
  -3   6 -12 7799.29 261.491  31
  -3   6 -12 7155.08 236.372   1
   3  -5 -12 3769.98 119.884   3
   3  -5 -11 8721.32 247.992  16
   3  -5 -11 8525.10 262.879   3
   3  -5 -10 2153.60 141.343   4
   3  -5 -10 2248.93 142.088  16
   3  -5 -10 1919.54 117.639  36
   3  -5  -9 1539.04 134.807   4
   3  -5  -8 191.438 51.9771  34
   3  -5  -8 85.4551 46.4468  15
   3  -5  -8 95.9053 49.8644   4
   3  -5  -7 32073.1 735.690  34
   3  -5  -7 32696.8 780.909  16
   3  -5  -7 34572.3 796.942   4
   3  -5  -7 32994.6 762.573  15
  -3   5   6 36537.7 766.780  29
   3  -5  -6 36281.9 831.534  16
   3  -5  -6 37470.2 1380.68  22
   3  -5  -6 35830.5 805.445  15
   3  -5  -6 34710.1 781.201  34
   3  -5  -5 26570.8 1142.42  22
   3  -5  -5 27098.9 643.181  34
   3  -5  -5 27408.8 657.198  15
  -3   5   5 26885.1 632.474  29
   3  -5  -5 27914.6 680.290  16
  -3   5   4 50971.7 1002.83  28
   3  -5  -4 52193.6 1035.95  15
  -3   5   4 49939.8 1437.32  26
  -3   5   3 191.376 49.8088  29
   3  -5  -3 127.691 38.0407  15
   3  -5  -3 150.176 62.9897   6
  -3   5   2 9941.31 329.532  29
  -3   5   2 10133.3 330.698  28
   3  -5  -2 9526.68 597.731  22
   3  -5  -2 9712.44 497.702   6
  -3   5   1 2146.42 263.785  25
   3  -5  -1 2207.10 272.438  22
   3  -5  -1 2442.02 236.445   6
  -3   5   0 111898. 2344.28   7
   3  -5   0 113925. 2458.10  22
  -3   5  -1 136229. 2849.58  25
  -3   5  -1 139700. 2786.37   7
   3  -5   1 132823. 2769.50  22
  -3   5  -2 28496.4 1016.87   7
  -3   5  -3 83855.9 2029.89  25
  -3   5  -3 84372.2 2036.55   7
  -3   5  -4 6.07892 19.9817   5
  -3   5  -4 39.5876 23.9974   9
  -3   5  -4 126.522 73.7765  25
  -3   5  -4 58.4278 62.7132   7
  -3   5  -4 34.7946 24.0102  12
  -3   5  -5 7077.15 262.471  29
  -3   5  -5 7035.02 281.941   9
  -3   5  -5 7335.83 295.259  12
  -3   5  -5 7244.30 261.576  32
  -3   5  -5 7011.35 280.763   5
  -3   5  -6 1602.31 138.488   9
  -3   5  -6 1531.92 127.979  17
  -3   5  -6 1384.98 205.923  26
   3  -5   6 1569.37 233.645  24
  -3   5  -6 1375.56 123.665   5
  -3   5  -6 1698.56 127.405  32
  -3   5  -6 1487.45 112.783  30
  -3   5  -7 806.634 109.142   9
  -3   5  -7 982.073 101.468  17
  -3   5  -7 831.598 108.001  12
  -3   5  -7 911.341 105.592   5
  -3   5  -7 866.875 82.0345  10
  -3   5  -7 912.670 99.3740  30
  -3   5  -8 24620.2 594.960  17
  -3   5  -8 25022.3 679.517   9
  -3   5  -8 25212.4 668.926  12
  -3   5  -8 24364.0 560.819  10
  -3   5  -8 26054.1 625.951  30
  -3   5  -9 7525.54 265.523  17
  -3   5  -9 8330.96 331.108  31
  -3   5  -9 8503.28 348.835  12
  -3   5  -9 9011.26 334.266  30
  -3   5  -9 8687.14 364.802   9
  -3   5 -10 47063.4 1009.80   1
  -3   5 -10 49499.7 1026.46  31
  -3   5 -10 50369.4 1017.24  30
  -3   5 -11 78.3652 48.6675   9
  -3   5 -11 59.9209 37.8751   1
  -3   5 -11 118.031 46.1656  31
  -3   5 -12 4985.97 197.964  31
  -3   5 -12 5161.85 193.714   1
  -3   5 -13 498.049 49.8307   1
   3  -4 -12 4911.97 158.276  16
   3  -4 -12 5574.82 194.677   3
   3  -4 -11 11086.5 353.244   3
   3  -4 -11 10899.5 319.603   4
   3  -4 -11 11399.5 332.714  16
   3  -4 -10 9422.89 339.377  16
   3  -4 -10 9913.42 339.385  15
   3  -4 -10 9075.94 301.010  36
   3  -4  -9 23526.8 622.019  16
   3  -4  -9 22085.7 609.341   4
   3  -4  -8-14.0618 41.3453  22
   3  -4  -8 82.7066 39.7118  34
  -3   4   7 2026.85 136.317  29
   3  -4  -7 2604.79 174.637  15
   3  -4  -7 2418.71 172.248   4
   3  -4  -7 2459.63 325.233  22
   3  -4  -7 2627.22 164.853  34
  -3   4   6 490.177 70.4228  29
   3  -4  -6 605.082 82.0661  15
   3  -4  -6 629.483 165.685  22
   3  -4  -6 691.377 81.5765  34
  -3   4   5 31494.3 683.053  29
   3  -4  -5 29424.4 672.843  34
  -3   4   5 32242.6 977.219  26
   3  -4  -5 31302.5 700.489  15
   3  -4  -5 32488.9 1197.46  22
  -3   4   4 38799.6 783.273  29
  -3   4   4 39192.5 1145.75  26
   3  -4  -4 36747.0 773.106  15
  -3   4   3 36344.6 1108.69  26
   3  -4  -3 37661.3 997.071   6
   3  -4  -2 80361.8 1909.73  22
   3  -4  -2 79390.6 1648.46   6
  -3   4   1 584.614 128.398  25
   3  -4  -1 367.018 84.7105   6
   3  -4  -1 478.905 119.936  22
  -3   4   0 24644.8 873.388  25
  -3   4   0 23305.7 828.020   7
   3  -4   0 24112.1 853.534  22
  -3   4  -1 2551.34 260.889   7
   3  -4   1 2316.66 237.762  22
  -3   4  -2 17915.2 733.834  25
  -3   4  -2 17615.4 749.315   7
   3  -4   2 18311.2 655.469  22
  -3   4  -3 49291.1 1393.50   7
  -3   4  -4 2934.52 278.515  26
  -3   4  -4 3154.03 328.769   7
  -3   4  -5 141951. 2376.84   9
  -3   4  -5 145528. 2785.02  26
  -3   4  -5 148113. 2378.62   5
  -3   4  -6 1971.62 150.522   9
  -3   4  -6 2080.65 135.676  17
  -3   4  -6 1768.13 202.490  26
  -3   4  -6 1743.06 140.845  12
  -3   4  -6 1923.22 141.871   5
  -3   4  -7 32064.0 778.578   9
  -3   4  -7 30659.2 682.377  17
  -3   4  -7 32237.1 778.251   2
  -3   4  -7 32621.6 771.852  12
  -3   4  -7 33900.7 762.619   5
  -3   4  -7 31530.3 653.931  10
  -3   4  -7 34548.1 735.220  30
  -3   4  -8 5256.53 276.084   2
  -3   4  -8 5713.53 281.274  12
  -3   4  -8 5765.20 265.907  31
  -3   4  -8 5691.22 260.166  30
  -3   4  -9 164.509 57.2501  31
  -3   4  -9 202.720 61.6728  12
  -3   4  -9 204.722 68.0325   2
  -3   4  -9 215.994 63.8606  30
  -3   4 -10 21098.1 611.600   2
  -3   4 -10 21755.4 580.381  12
  -3   4 -10 22010.8 592.658   1
  -3   4 -10 22692.6 604.201  31
  -3   4 -10 22844.4 601.127  30
  -3   4 -10 21754.4 623.250   9
  -3   4 -11 101.306 46.7661   1
  -3   4 -11 61.8828 45.8507   9
  -3   4 -11 169.191 38.2536   8
  -3   4 -11 165.682 54.0368  31
  -3   4 -12 25661.3 439.220   1
  -3   4 -12 27072.1 464.681   9
  -3   4 -13 2322.69 111.993   1
   3  -3 -12 1159.36 88.0317  15
   3  -3 -12 1143.92 84.2467  16
   3  -3 -11 41.2317 37.4065  16
   3  -3 -11 38.0305 34.0407  15
   3  -3 -10 5459.98 253.160   4
   3  -3 -10 4757.90 197.355   8
   3  -3 -10 5188.38 252.544  16
   3  -3 -10 5221.94 246.790  15
   3  -3 -10 4462.37 208.643  36
   3  -3  -9 28465.4 618.009   8
   3  -3  -9 27870.3 702.389   4
   3  -3  -8 3941.75 183.777   8
   3  -3  -8 4343.98 232.307   4
   3  -3  -8 3832.98 200.838  34
   3  -3  -7 88941.9 1539.57   8
  -3   3   7 92018.8 1586.71  29
   3  -3  -7 89622.6 2332.25  22
   3  -3  -7 91823.4 1593.94  34
  -3   3   6 856.348 87.3110  29
   3  -3  -6 725.886 78.4757  34
  -3   3   5 36719.1 737.175  29
  -3   3   5 36199.9 1014.41  26
   3  -3  -5 36151.9 1212.47  22
   3  -3  -5 33495.8 705.576  34
  -3   3   4 336.677 92.8608  26
  -3   3   3 5194.18 349.368  26
   3  -3  -3 5401.30 400.236  22
  -3   3   2 26576.5 856.425  26
   3  -3  -2 26351.3 691.364   6
  -3   3   1 2435.72 232.524  26
   3  -3  -1 2611.20 252.568  22
   3  -3   0 216562. 3746.21  22
   3  -3   1 22896.9 728.478  22
  -3   3  -2 66290.9 1528.67  26
   3  -3   2 68078.2 1386.51  22
  -3   3  -3 847.335 142.037  26
  -3   3  -3 661.099 154.644   7
  -3   3  -4 962.590 145.361  26
  -3   3  -5 16491.3 451.107   2
  -3   3  -5 15421.0 437.197  13
  -3   3  -5 16373.1 436.686   5
  -3   3  -5 15561.2 594.931  26
  -3   3  -6 2555.64 171.519   9
  -3   3  -6 2401.20 208.016  26
  -3   3  -6 2834.94 173.130  13
  -3   3  -6 3096.30 185.788   2
  -3   3  -6 2527.33 159.874   3
  -3   3  -6 2590.47 168.668  12
  -3   3  -6 2477.71 158.475   5
  -3   3  -6 2756.58 159.947  30
  -3   3  -7 79759.1 1467.88   3
  -3   3  -7 78828.1 1490.31  12
  -3   3  -7 82302.7 1476.50   5
  -3   3  -7 82582.4 1450.96  31
  -3   3  -7 82438.8 1464.75  30
  -3   3  -8 13201.2 456.607   9
  -3   3  -8 11864.0 404.626  13
  -3   3  -8 12081.2 413.503   3
  -3   3  -8 13081.8 436.430  12
  -3   3  -8 12472.7 412.880  31
  -3   3  -8 12740.1 421.201  30
  -3   3  -9 6258.04 310.532   9
  -3   3  -9 6363.56 290.375   1
  -3   3  -9 6166.70 285.787  12
  -3   3  -9 6191.51 286.332  31
  -3   3  -9 6583.65 297.745  30
  -3   3 -10 3122.51 206.995   9
  -3   3 -10 2591.73 145.018   8
  -3   3 -10 2628.92 192.831   2
  -3   3 -10 2713.94 184.160   1
  -3   3 -10 2799.00 175.756  12
  -3   3 -10 2923.02 190.797  31
  -3   3 -10 2935.42 194.698  30
  -3   3 -11 511.303 59.6537   8
  -3   3 -11 479.934 75.3682   1
  -3   3 -11 543.516 82.6106   9
  -3   3 -11 402.412 80.7542   2
  -3   3 -12 2030.36 124.217   1
  -3   3 -12 2305.16 128.258   9
  -3   3 -13 204.605 35.2178   1
   3  -2 -13 192.549 43.4434   3
   3  -2 -12 12517.6 346.469  16
   3  -2 -12 12678.9 357.328  15
   3  -2 -12 12970.4 398.513   3
   3  -2 -11 1815.30 114.170   8
   3  -2 -11 1753.56 138.022  16
   3  -2 -11 2063.46 150.546  15
   3  -2 -10 25090.8 568.326   8
   3  -2 -10 24901.6 647.373  15
   3  -2 -10 23291.4 569.214  36
   3  -2 -10 24838.1 562.501  35
   3  -2  -9 84.0347 40.6564  35
   3  -2  -9 56.4383 31.3028   8
   3  -2  -9 72.4877 42.4820   4
   3  -2  -9 119.644 78.1660  22
   3  -2  -8 673.646 75.3254   8
  -3   2   8 725.543 84.2509  29
   3  -2  -8 1049.83 111.502   4
   3  -2  -8 838.684 192.011  22
   3  -2  -8 730.987 80.5667  35
   3  -2  -7 15109.1 434.185   4
   3  -2  -7 14651.5 381.738  35
   3  -2  -6 20357.8 889.023  22
   3  -2  -6 17925.3 436.713  34
  -3   2   5 111045. 2055.37  26
   3  -2  -5 103893. 2325.11  22
  -3   2   4 48772.1 874.534  27
  -3   2   4 53602.0 1264.94  26
  -3   2   3 151982. 2726.62  26
   3  -2  -3 141266. 2841.72  22
  -3   2   2 10978.6 483.765  26
   3  -2  -2 10221.1 513.320  22
  -3   2   2 11144.2 504.081  19
  -3   2   1 11745.6 495.542  26
   3  -2  -1 10917.2 307.258   6
   3  -2  -1 12252.0 532.855  22
  -3   2   1 12314.2 533.322  19
  -3   2   0 32816.1 899.125  26
  -3   2   0 33111.3 927.734   7
  -3   2  -1 36.7443 40.2605  26
  -3   2  -1 72.5224 49.2375   7
   3  -2   1 58.8928 37.4717  22
  -3   2  -1 79.0204 53.1469  19
  -3   2  -2 88616.5 1781.60  26
  -3   2  -2 92276.2 1933.93   7
   3  -2   2 86670.9 1608.69  22
  -3   2  -2 86152.0 1871.66  19
  -3   2  -3 67198.4 1445.46  26
  -3   2  -3 66180.7 1646.95   7
  -3   2  -4 10882.8 272.445  27
  -3   2  -4 11629.5 473.099  26
  -3   2  -5 48240.1 831.084  27
  -3   2  -5 49633.0 1135.26  26
  -3   2  -5 47384.8 956.276  14
  -3   2  -5 47968.8 949.657  13
  -3   2  -5 51210.7 976.300   2
  -3   2  -6 4686.66 229.678  14
  -3   2  -6 4339.48 216.730  13
  -3   2  -6 4660.36 231.798   2
  -3   2  -6 4605.28 206.548  31
  -3   2  -6 4872.73 223.643  30
  -3   2  -7 67.3475 39.7854   2
  -3   2  -7 28.5417 33.9115   9
  -3   2  -7 67.2239 34.5050  13
  -3   2  -7 55.6453 35.5809  31
  -3   2  -7 146.408 49.9815  30
  -3   2  -8 739.565 105.164   9
  -3   2  -8 662.966 91.5265  31
  -3   2  -8 537.226 84.3024  13
  -3   2  -8 429.165 83.9734   2
  -3   2  -8 658.682 93.6802  12
  -3   2  -8 549.402 88.8742  30
  -3   2  -9 54737.1 1125.79   9
  -3   2  -9 52348.1 1059.91  13
  -3   2  -9 54070.7 1075.37  12
  -3   2  -9 54723.4 1090.82  31
  -3   2 -10 18118.4 521.792   9
  -3   2 -10 16792.5 426.831   8
  -3   2 -10 16783.3 460.399  12
  -3   2 -11 8801.84 263.578   8
  -3   2 -11 9317.09 314.594   9
  -3   2 -12 9945.76 231.503   9
  -3   2 -12 9778.85 284.117   2
   3  -1 -14 1039.42 62.9731   3
   3  -1 -13 200.053 47.2765   3
   3  -1 -13 166.516 37.2033  15
   3  -1 -12 37722.6 824.590   3
   3  -1 -12 36549.3 707.926   8
   3  -1 -12 37113.0 753.843  16
   3  -1 -12 37943.9 782.235  15
   3  -1 -12 37391.7 724.533  35
   3  -1 -11 280.484 51.6568   8
   3  -1 -11 324.742 60.2482  35
   3  -1 -10 28239.2 627.830   8
   3  -1 -10 29177.3 664.618  35
   3  -1  -9 8841.02 314.923  35
   3  -1  -9 7116.10 545.075  22
   3  -1  -8 24182.6 1064.50  22
   3  -1  -8 28079.7 630.394  35
   3  -1  -7 25568.4 1044.94  22
   3  -1  -6 17171.1 816.088  22
   3  -1  -6 15782.5 575.605  20
  -3   1   5 618.168 58.3125  27
   3  -1  -5 464.906 127.464  22
  -3   1   5 491.996 100.892  19
  -3   1   4 1606.83 93.6263  27
  -3   1   4 1709.32 185.404  26
  -3   1   4 1411.57 167.319  19
  -3   1   3 41224.7 752.810  27
  -3   1   3 40872.9 1064.69  26
  -3   1   2 1827.71 95.9614  27
  -3   1   2 2008.32 197.473  26
   3  -1  -2 1662.12 189.166  22
  -3   1   2 1947.97 197.625  19
  -3   1   1 28168.3 789.180   7
   3  -1  -1 25439.3 791.275  22
  -3   1   1 27212.2 796.144  26
  -3   1   1 26241.2 811.156  19
  -3   1   1 26903.3 516.200  27
  -3   1   0 51736.4 1250.46   7
   3  -1   0 55138.8 1204.91  22
  -3   1  -1 1723.81 86.5760  27
  -3   1  -1 1754.06 173.263  26
  -3   1  -1 107.617 54.0276  19
  -3   1  -1 409.945 93.0438   7
   3  -1   1 267.420 63.7088  22
  -3   1  -2 8948.94 233.406  27
  -3   1  -2 9121.35 409.297  26
  -3   1  -2 8766.52 468.371   7
   3  -1   2 8153.15 333.434  22
  -3   1  -2 8651.91 442.949  19
  -3   1  -3 24.3843 14.1976  27
  -3   1  -3 38.4394 33.6025  26
  -3   1  -3 7.07321 26.8432  19
  -3   1  -4 123378. 1920.32  27
  -3   1  -4 127992. 2428.64  19
  -3   1  -5 46084.9 877.142   5
  -3   1  -5 48165.9 855.804  36
  -3   1  -5 41159.0 884.710  14
  -3   1  -5 42750.5 887.987  13
  -3   1  -5 45327.3 886.954   3
  -3   1  -5 43742.7 880.291  11
   3  -1   5 43578.7 1061.12  20
  -3   1  -5 44387.5 902.474   2
  -3   1  -5 46439.9 892.657  30
  -3   1  -6 38380.2 767.686  36
  -3   1  -6 35245.1 693.933   8
  -3   1  -6 38378.4 815.128  14
  -3   1  -6 34312.8 783.820  13
  -3   1  -6 37137.1 797.081   3
  -3   1  -6 35864.1 782.051  11
  -3   1  -6 36297.8 772.002   5
  -3   1  -6 35209.1 805.024   2
  -3   1  -6 38086.3 779.273  31
  -3   1  -6 38398.3 812.210  30
  -3   1  -7 36441.2 730.065   8
  -3   1  -7 39479.9 850.145  14
  -3   1  -7 37307.6 828.558  13
  -3   1  -7 37513.5 832.050   3
  -3   1  -7 36597.8 814.179  11
  -3   1  -7 38950.9 821.528  31
  -3   1  -7 36290.3 856.697   2
  -3   1  -8 2541.51 143.197   8
  -3   1  -8 2721.71 188.261   9
  -3   1  -8 2476.01 170.567   1
  -3   1  -8 2540.18 173.939  13
  -3   1  -8 2565.08 182.515   3
  -3   1  -8 2657.34 194.827   2
  -3   1  -9 2573.97 178.002   9
  -3   1  -9 1941.25 125.805   8
  -3   1  -9 2012.79 153.549   1
  -3   1  -9 1930.52 147.233  13
  -3   1  -9 2131.35 168.712   3
  -3   1  -9 1958.26 146.583  12
  -3   1  -9 2544.90 192.810   2
  -3   1 -10 234.417 56.6650   1
  -3   1 -10 314.633 69.3811   3
  -3   1 -10 193.385 56.4611   9
  -3   1 -10 338.258 72.1512   2
  -3   1 -10 246.073 47.7367   8
  -3   1 -10 253.290 53.5543  13
  -3   1 -11 4689.60 174.967   8
  -3   1 -11 4288.55 222.468   2
  -3   1 -11 4587.54 202.163   1
  -3   1 -11 4719.68 193.830   9
  -3   1 -12 8938.46 254.946   1
   3   0 -13 15473.8 272.221   8
   3   0 -13 15187.9 308.907  15
   3   0 -13 14718.8 292.159  35
   3   0 -13 15152.8 335.937   3
   3   0 -12 24622.1 578.832  16
   3   0 -12 25128.2 551.841   8
   3   0 -12 27562.5 602.078  35
   3   0 -12 26744.5 646.567   3
   3   0 -11 487.185 66.2848   8
   3   0 -11 104.035 50.4216  35
   3   0 -10 646.264 89.1541  35
   3   0 -10 592.423 159.774  22
   3   0  -9 832.849 200.212  22
   3   0  -9 789.472 94.6643  35
  -3   0   8 35841.1 705.153  28
   3   0  -8 32654.9 1244.70  22
  -3   0   7 26535.2 560.724  28
   3   0  -7 28564.4 1090.75  22
   3   0  -6 78169.4 1951.38  22
   3   0  -6 78236.9 1708.38  20
  -3   0   5 100967. 1603.26  27
   3   0  -5 93436.5 2177.80  22
   3   0  -5 99233.2 2018.78  20
  -3   0   5 95963.1 1975.24  19
  -3   0   4 6652.51 210.326  27
  -3   0   4 6151.74 367.561  19
  -3   0   3 1612.69 93.4431  27
  -3   0   2 27944.7 540.619  27
  -3   0   2 28624.1 826.065  26
  -3   0   1 30522.6 577.629  27
  -3   0   1 30920.6 860.495  26
  -3   0   1 32090.4 855.792   7
  -3   0   0 72357.5 1186.38  27
  -3   0   0 74439.2 1560.57   7
  -3   0  -1 66287.9 1097.96  27
  -3   0  -1 68234.7 1516.13   7
  -3   0  -2 127628. 1977.32  27
  -3   0  -3 1796.93 94.1644  27
  -3   0  -3 1960.98 99.3475  36
   3   0   3 2034.02 199.224  20
  -3   0  -3 1713.24 194.735  19
   3   0   4 7321.58 392.399  20
  -3   0  -4 7371.44 230.951  36
  -3   0  -4 6541.82 380.654  19
  -3   0  -5 532.764 74.6829  14
  -3   0  -5 444.536 68.6130  13
  -3   0  -5 499.564 70.2032   3
  -3   0  -5 473.763 68.9645  11
  -3   0  -5 459.960 62.8203   5
  -3   0  -6 33949.5 686.821   8
  -3   0  -6 36550.5 786.478  14
  -3   0  -6 34493.9 787.241  13
  -3   0  -6 36063.0 780.893   3
  -3   0  -6 35413.8 783.261  11
  -3   0  -6 36649.0 750.927  36
  -3   0  -7 9230.65 291.250   8
  -3   0  -7 9412.22 335.346   1
  -3   0  -7 9847.14 349.830  14
  -3   0  -7 9942.78 358.037  13
  -3   0  -7 9456.24 350.001   3
  -3   0  -7 9648.07 352.943  11
  -3   0  -7 9721.51 335.654  36
  -3   0  -7 9051.49 360.597   2
  -3   0  -8 5964.47 263.646  36
  -3   0  -8 5564.00 221.593   8
  -3   0  -8 5688.08 254.303   1
  -3   0  -8 5567.67 259.027  13
  -3   0  -8 5457.06 266.363   3
  -3   0  -8 5586.05 264.589  11
  -3   0  -8 5815.25 269.817   9
  -3   0  -8 5719.19 287.680   2
  -3   0  -9 42126.4 877.010   9
  -3   0  -9 39713.9 798.002   8
  -3   0  -9 38775.9 849.573  13
  -3   0  -9 41290.1 898.966   3
  -3   0  -9 42579.5 838.128  12
  -3   0  -9 39523.0 927.671   2
  -3   0  -9 40521.6 857.659   1
  -3   0 -10 109.686 41.6704   9
  -3   0 -10 126.045 53.6501   3
  -3   0 -10 97.2818 33.4086   8
  -3   0 -10 176.956 48.2347   1
  -3   0 -10 176.897 42.7712  13
  -3   0 -10 218.089 62.9851   2
  -3   0 -11 7926.06 225.676   1
  -3   0 -11 8186.19 272.671   2
  -3   0 -12 368.141 50.3710   2
   3   1 -14 18.7567 12.8771   8
   3   1 -13 10402.7 239.891   8
   3   1 -13 10493.7 276.161  35
   3   1 -12 16556.8 456.403  35
   3   1 -12 15752.2 449.363   3
   3   1 -11 7653.04 320.235   3
   3   1 -11 7737.13 313.702  35
   3   1 -11 6950.61 286.764  30
   3   1 -10 47551.6 1541.40  22
   3   1 -10 46806.2 1017.00  30
   3   1  -9 601.636 87.6582  35
  -3  -1   9 502.101 65.4050  28
   3   1  -9 508.975 155.042  22
   3   1  -8 11278.7 684.569  22
   3   1  -8 11161.8 332.153  10
   3   1  -8 10862.6 360.829  33
   3   1  -7 884.765 185.214  22
   3   1  -7 873.936 139.147  20
   3   1  -7 759.561 86.2582  33
   3   1  -6 26694.1 987.707  22
   3   1  -6 24650.6 816.588  20
   3   1  -5 32793.3 998.316  20
   3   1  -4 7254.33 423.352  20
   3   1  -3 33584.2 985.434  20
  -3  -1   2 6546.28 207.511  27
  -3  -1   2 5852.10 307.722   7
  -3  -1   1 82088.8 1642.40   7
   3   1  -1 82096.3 1767.54  20
  -3  -1   0 4324.70 160.142  27
  -3  -1   0 4327.81 285.683   7
   3   1   0 4450.95 313.434  20
   3   1   1 30348.6 911.440  20
   3   1   2 33321.2 974.523  20
  -3  -1  -2 32922.8 587.707  36
  -3  -1  -3 31110.2 590.027  36
   3   1   3 31053.2 936.724  20
  -3  -1  -4 112633. 1938.74  13
  -3  -1  -4 112141. 1892.42   3
  -3  -1  -4 119067. 1856.45  36
   3   1   4 121251. 2322.52  20
  -3  -1  -4 112977. 2248.75  19
  -3  -1  -5 7518.31 242.951   8
  -3  -1  -5 7937.03 294.216  14
  -3  -1  -5 7378.05 297.164  13
  -3  -1  -5 8287.41 296.084   3
  -3  -1  -5 8230.87 307.445  11
  -3  -1  -5 8653.34 277.495  36
  -3  -1  -6 102633. 1743.58   1
  -3  -1  -6 98683.4 1801.18  13
  -3  -1  -6 98486.7 1689.47   8
  -3  -1  -6 104797. 1789.11   3
  -3  -1  -6 100411. 1806.51  11
  -3  -1  -6 103878. 1749.28  36
  -3  -1  -7 6088.15 232.695   8
  -3  -1  -7 6169.23 253.418   1
  -3  -1  -7 6035.63 259.508  14
  -3  -1  -7 5883.94 272.212  13
  -3  -1  -7 6102.95 272.587   3
  -3  -1  -7 5813.17 275.494  11
  -3  -1  -7 6149.65 258.170  36
  -3  -1  -8 550.503 80.1775   9
  -3  -1  -8 499.969 66.3597   8
  -3  -1  -8 433.708 79.8183   3
  -3  -1  -8 631.781 91.1693  11
  -3  -1  -8 495.060 77.2344  36
  -3  -1  -8 691.148 82.6365   1
  -3  -1  -8 579.525 94.6383   2
  -3  -1  -9 16480.0 439.389   9
  -3  -1  -9 16394.8 448.592  13
  -3  -1  -9 16747.4 440.146   1
  -3  -1  -9 16165.1 470.503   3
  -3  -1  -9 16184.2 465.904  11
  -3  -1  -9 15856.1 496.140   2
  -3  -1 -10 1642.88 106.116   1
  -3  -1 -10 1646.11 123.647   3
  -3  -1 -10 1825.96 137.970   2
  -3  -1 -11 23664.8 535.128   2
  -3  -1 -12 4502.83 148.712   2
   3   2 -14 541.205 46.6964   8
   3   2 -13 3827.53 161.823   8
   3   2 -13 3889.73 187.483  35
   3   2 -12 63.6495 45.7059  35
   3   2 -12 22.7059 40.4560  30
   3   2 -11 5792.42 276.387  35
   3   2 -11 5128.89 258.621  30
  -3  -2  10 7217.26 255.623  28
   3   2 -10 6792.62 531.534  22
   3   2 -10 7477.12 318.347  35
   3   2 -10 7632.50 286.002  10
   3   2  -9 27675.2 1146.71  22
   3   2  -9 28156.5 631.136  10
   3   2  -9 25876.3 667.026  33
   3   2  -8 85538.9 2193.46  22
   3   2  -8 82663.7 1524.87  33
   3   2  -8 83688.9 1445.75  10
   3   2  -7 835.070 98.3238  33
   3   2  -7 551.377 151.937  22
   3   2  -7 776.322 72.8670  21
   3   2  -7 682.166 139.834  20
   3   2  -6 44878.8 1302.58  20
   3   2  -5 12467.8 615.370  20
  -3  -2   4 22199.0 617.716   7
   3   2  -4 24661.1 871.497  20
  -3  -2   3 123466. 2173.99   7
   3   2  -3 130154. 2575.82  20
  -3  -2   2 3047.45 199.264   7
   3   2  -1 101768. 2166.36  20
   3   2   0 30805.4 982.275  20
   3   2   1 57621.1 1454.01  20
  -3  -2  -2 29394.8 544.705  36
   3   2   2 29730.8 966.804  20
  -3  -2  -3 377.922 45.5950  36
  -3  -2  -3 367.017 58.8050  11
  -3  -2  -4 30570.4 610.944  36
  -3  -2  -4 29854.4 682.934  11
   3   2   4 31775.8 1015.40  20
  -3  -2  -5 89.4210 40.4967   3
  -3  -2  -5 163.435 39.0027   1
  -3  -2  -5 124.381 48.9084  13
  -3  -2  -5 73.6938 30.8358  36
  -3  -2  -6 24544.0 616.225  14
  -3  -2  -6 25566.8 657.744  13
  -3  -2  -6 27011.4 638.807   3
  -3  -2  -6 27733.4 685.326  11
  -3  -2  -6 27710.0 620.533  36
  -3  -2  -6 26688.3 590.435   1
  -3  -2  -7 2866.06 168.580  14
  -3  -2  -7 2707.75 179.829  13
  -3  -2  -7 2783.60 174.850   3
  -3  -2  -7 2864.26 156.249   1
  -3  -2  -7 2644.30 185.596  11
  -3  -2  -7 2826.99 168.627  36
  -3  -2  -8 20220.8 498.150   9
  -3  -2  -8 20606.4 488.998  14
  -3  -2  -8 20427.0 481.679   1
  -3  -2  -8 19687.3 525.629  13
  -3  -2  -8 20278.4 530.878   3
  -3  -2  -8 19746.0 546.977  11
  -3  -2  -8 20743.1 523.460  36
  -3  -2  -8 19436.6 555.576   2
  -3  -2  -9 14108.7 385.157  13
  -3  -2  -9 14240.2 402.856   3
  -3  -2  -9 13484.5 401.940  11
  -3  -2  -9 14001.9 433.101   2
  -3  -2 -10 65.1343 33.6733   2
  -3  -2 -10-1.48162 11.7939  13
  -3  -2 -11 625.219 58.5056   2
   3   3 -14 1072.71 84.7430  35
   3   3 -14 1031.15 64.8927   8
   3   3 -13 31634.8 673.997  35
   3   3 -13 27623.4 626.221  30
   3   3 -12 2528.21 171.359  30
  -3  -3  11 11665.7 326.861  28
   3   3 -11 11535.9 371.112  10
   3   3 -10 592.861 99.7996  35
   3   3 -10 546.175 153.558  22
   3   3 -10 588.623 80.0903  10
   3   3  -9 1038.71 220.130  22
   3   3  -9 904.486 114.820  33
   3   3  -9 1177.03 110.767  10
   3   3  -8 12815.1 757.175  22
   3   3  -8 13702.0 452.718  33
   3   3  -8 13237.7 392.032  10
   3   3  -7 4552.83 197.739  21
   3   3  -7 4667.33 403.401  20
   3   3  -7 4419.06 248.357  33
  -3  -3   6 128436. 2036.84  23
   3   3  -6 123326. 2066.34  21
   3   3  -6 126266. 2758.91  20
   3   3  -5 13937.9 725.056  20
   3   3  -4 88960.9 2126.05  20
  -3  -3   3 26005.1 627.521   6
  -3  -3   2 7631.36 310.100   6
   3   3  -2 6823.51 474.890  20
   3   3  -1 18863.6 810.572  20
   3   3   0 3144.76 319.677  20
   3   3   1 179542. 3486.67  20
  -3  -3  -2 25925.3 599.032  11
  -3  -3  -2 24447.3 551.792  23
   3   3   2 27203.0 588.238  21
   3   3   2 28959.9 1040.80  20
   3   3   3 45498.1 886.644  21
  -3  -3  -3 46343.0 835.671  36
  -3  -3  -3 45687.8 935.684  11
  -3  -3  -4 30327.0 625.735  36
  -3  -3  -4 29751.7 709.549  11
  -3  -3  -5 565.935 76.2235   3
  -3  -3  -5 513.608 85.2103  13
  -3  -3  -5 604.620 72.9623  36
  -3  -3  -5 611.805 90.3868  11
  -3  -3  -6 218.263 53.3131  14
  -3  -3  -6 320.284 61.4756   3
  -3  -3  -6 237.657 62.8191  13
  -3  -3  -6 206.002 48.0126  36
  -3  -3  -7 1728.56 120.937  14
  -3  -3  -7 1679.77 126.132   3
  -3  -3  -7 1659.95 136.421  13
  -3  -3  -7 2018.65 157.530  11
  -3  -3  -7 1731.35 125.790  36
  -3  -3  -8 24624.7 558.479  36
  -3  -3  -8 24707.9 577.391  13
  -3  -3  -8 24719.1 604.150  11
  -3  -3  -8 23104.7 593.279   2
  -3  -3  -9 6531.63 218.305  13
  -3  -3  -9 6430.74 239.724  11
  -3  -3  -9 6878.70 254.648   2
  -3  -3 -10 5667.67 192.951   2
   3   4 -14 167.522 27.8680   8
   3   4 -14 157.346 35.0388  30
   3   4 -13 3532.19 180.434  35
   3   4 -13 3008.66 166.511  30
   3   4 -12 36.5786 42.5603  35
   3   4 -12 29.8034 46.0297  30
   3   4 -11 47754.7 959.163  10
   3   4 -11 45660.5 1000.55  35
   3   4 -10 8788.49 356.522  35
   3   4 -10 7495.98 571.129  22
   3   4 -10 7553.22 339.503  33
   3   4 -10 8326.52 316.916  10
   3   4  -9 21744.4 1034.48  22
   3   4  -9 20918.2 620.350  33
   3   4  -9 21726.6 564.918  10
   3   4  -8 22381.6 540.735  21
   3   4  -8 21519.1 933.990  20
   3   4  -7 106.879 59.8463  33
   3   4  -7 54.5766 73.2276  20
  -3  -4   7 41.9987 27.8318  23
   3   4  -7 72.2532 42.9900  21
  -3  -4   6 2368.75 143.236  23
   3   4  -6 2229.44 150.506  21
   3   4  -6 2598.97 336.174  20
  -3  -4   5 30.9054 26.2344  23
   3   4  -5 150.009 92.5758  20
   3   4  -5 72.4658 34.6598  21
  -3  -4   4 63540.8 1099.51  23
  -3  -4   4 59810.4 1235.96   6
   3   4  -4 56077.8 1116.73  21
   3   4  -4 52938.9 1708.29  20
  -3  -4   3 32904.8 693.185  23
  -3  -4   3 34089.1 846.849   6
   3   4  -2 42451.9 861.386  21
  -3  -4   2 41342.6 1005.24   6
   3   4  -2 42678.8 1430.30  20
  -3  -4   1 50885.5 960.289  23
   3   4  -1 50217.0 989.512  21
  -3  -4   0 3411.27 168.329  23
   3   4   0 3487.49 182.803  21
  -3  -4   0 3242.56 163.466  11
   3   4   0 3109.97 357.599  20
   3   4   1 313.202 121.411  20
  -3  -4  -1 335.544 56.1570  23
   3   4   1 437.184 66.4542  21
  -3  -4  -1 328.549 57.7982  11
  -3  -4  -2 170.373 41.9683  23
  -3  -4  -2 227.058 52.9704  11
   3   4   2 147.864 96.8243  20
   3   4   2 208.472 52.6185  21
  -3  -4  -3 31712.5 726.399  11
   3   4   3 30652.8 688.148  21
  -3  -4  -3 32553.5 623.928  36
   3   4   3 31605.7 1201.63  20
  -3  -4  -4 39150.2 765.590  36
  -3  -4  -4 39677.2 874.331  11
  -3  -4  -5 13803.5 452.202  13
  -3  -4  -5 14224.2 384.521  36
  -3  -4  -5 15224.6 472.422  11
  -3  -4  -6 20269.1 495.089  14
  -3  -4  -6 19395.4 538.290  13
  -3  -4  -6 19817.9 560.080  11
  -3  -4  -6 19869.0 481.504  36
  -3  -4  -7 1001.08 98.3614  13
  -3  -4  -7 1169.97 91.9472  36
  -3  -4  -7 1060.56 100.311   2
  -3  -4  -8 1594.64 107.931  13
  -3  -4  -8 1576.42 117.785  11
  -3  -4  -8 1431.83 93.6575  36
  -3  -4  -8 1541.05 111.502   2
  -3  -4  -9 1584.83 94.1361   2
  -3  -4  -9 2017.89 109.323  11
   3   5 -14 10243.3 257.849  30
   3   5 -13 1581.54 116.050  35
   3   5 -13 1483.56 114.188  30
  -3  -5  12 791.107 67.1376  28
   3   5 -12 777.893 95.2628  35
   3   5 -12 879.506 89.0159  10
   3   5 -11 1358.41 132.786  35
   3   5 -11 1028.25 106.840  10
   3   5 -10 283.391 80.8072  33
   3   5 -10 333.996 68.4355  10
   3   5  -9 27662.9 1215.70  22
   3   5  -9 26581.6 694.051  35
   3   5  -9 28550.4 679.401  10
  -3  -5   8 35784.8 732.425  23
   3   5  -8 34060.3 764.125  21
   3   5  -8 33603.9 1301.59  20
   3   5  -8 33315.7 886.276  33
  -3  -5   7 42070.9 839.674  23
   3   5  -7 39232.7 877.706  21
   3   5  -7 40454.7 1515.80  20
   3   5  -7 39278.1 1016.23  33
  -3  -5   6 76239.5 1345.18  23
   3   5  -6 72581.7 1399.18  21
   3   5  -6 73435.0 2207.22  20
  -3  -5   5 2481.58 153.282  23
   3   5  -5 2545.20 173.851  21
   3   5  -5 2310.24 351.332  20
  -3  -5   4 472.690 73.6971  23
   3   5  -4 787.828 108.029  21
   3   5  -4 689.277 221.159  20
  -3  -5   3 229.679 47.7677  23
  -3  -5   3 185.572 61.2872   6
   3   5  -2 10475.3 367.767  21
  -3  -5   2 9835.34 464.494   6
   3   5  -2 9828.97 700.024  20
  -3  -5   1 30007.9 658.831  23
   3   5  -1 28455.3 690.131  21
   3   5  -1 28004.2 1220.10  20
  -3  -5   0 29235.7 666.690  23
   3   5   0 30712.9 721.099  21
  -3  -5   0 32289.9 680.988  11
   3   5   0 32132.9 1302.91  20
  -3  -5  -1 77832.9 1421.37  23
  -3  -5  -1 81914.8 1460.59  11
   3   5   1 79693.7 2258.61  20
  -3  -5  -2 34.4318 28.7830  23
   3   5   2 10.8091 38.1872  21
   3   5   2-30.9403 87.0752  20
  -3  -5  -3 694.918 74.1429  23
  -3  -5  -3 748.241 95.1035  11
  -3  -5  -4 705.291 70.3734  36
  -3  -5  -4 762.981 99.0798  11
  -3  -5  -5 15666.5 472.219  13
  -3  -5  -5 16550.8 485.788  11
  -3  -5  -5 15595.5 386.938  36
  -3  -5  -6 9652.50 235.422  36
  -3  -5  -6 9110.15 255.948   2
  -3  -5  -7 4887.32 198.366  13
  -3  -5  -7 4629.53 179.883   2
  -3  -5  -8 24272.8 434.795  13
  -3  -5  -8 18096.0 391.819   2
   3   6 -13 14829.4 386.978  30
   3   6 -12 245.532 54.6768  35
   3   6 -12 240.385 49.9188  10
   3   6 -11 39157.0 880.258  35
   3   6 -11 45493.3 880.151  10
   3   6 -10 996.046 113.653  35
   3   6 -10 1047.74 129.861  33
   3   6 -10 1175.77 116.176  10
   3   6  -9 1264.19 130.193  35
   3   6  -9 1559.04 163.090  33
  -3  -6   8 1673.63 124.432  23
   3   6  -8 1353.67 131.527  21
   3   6  -8 1433.54 167.678  33
   3   6  -7 9296.27 359.561  21
  -3  -6   7 7793.92 294.331  23
   3   6  -7 9262.78 728.996  20
   3   6  -7 8840.05 430.168  33
  -3  -6   6 4151.39 208.111  23
   3   6  -6 4195.58 243.732  21
   3   6  -6 4068.82 491.888  20
  -3  -6   5 13657.6 415.780  23
   3   6  -5 14534.3 477.533  21
   3   6  -5 13819.1 908.941  20
  -3  -6   4 81494.7 1465.11  23
   3   6  -4 76679.1 2387.29  20
  -3  -6   3 868.288 94.1300  23
   3   6  -3 737.974 221.704  20
   3   6  -3 767.663 109.423  21
  -3  -6   2 12747.0 394.830  23
   3   6  -2 12207.3 435.078  21
  -3  -6   2 12099.3 558.640   6
   3   6  -2 13762.7 896.448  20
  -3  -6   1 6428.03 264.421  23
   3   6  -1 6389.93 297.105  21
   3   6  -1 5832.86 571.196  20
  -3  -6   0 7499.81 287.469  23
   3   6   0 7779.69 327.075  21
  -3  -6   0 7520.48 278.981  11
   3   6   0 7994.46 661.325  20
  -3  -6  -1 27255.1 631.140  23
   3   6   1 29762.5 713.873  21
  -3  -6  -1 26957.2 646.510  11
   3   6   1 27026.5 1250.28  20
  -3  -6  -2 7501.61 265.545  23
   3   6   2 8482.50 326.686  21
  -3  -6  -2 7758.93 305.178  11
  -3  -6  -3 44449.8 931.054  11
  -3  -6  -4 5048.78 238.368  11
  -3  -6  -5 16911.2 390.741  13
  -3  -6  -5 18421.0 411.459  11
  -3  -6  -6 20.6053 27.4813  13
  -3  -6  -6 89.5289 38.2232  11
  -3  -6  -7 222.681 35.3007  13
  -3  -6  -7 215.511 38.8399  11
   3   7 -13 23.9070 22.2905  30
   3   7 -12 16555.4 381.875  10
   3   7 -11 11232.5 345.409  35
   3   7 -11 13604.2 364.668  10
   3   7 -10 3177.03 179.450  35
   3   7 -10 3686.73 225.334  33
   3   7 -10 3809.53 195.083  10
  -3  -7   9 34499.9 687.697  23
   3   7  -9 31522.6 739.201  35
  -3  -7   8 1205.56 104.818  23
   3   7  -8 1191.97 126.426  21
   3   7  -8 969.934 104.764  35
   3   7  -8 996.573 99.8642  32
  -3  -7   7 13081.2 392.008  23
   3   7  -7 13421.5 452.310  21
   3   7  -6 162.233 69.3162  21
  -3  -7   6 232.683 55.4681  23
  -3  -7   5 157.153 52.0300  23
   3   7  -5 41.5006 59.6171  21
  -3  -7   4 14248.8 434.481  23
   3   7  -3 2340.97 189.183  21
   3   7  -3 2037.99 372.875  20
  -3  -7   2 38551.7 839.108  23
   3   7  -2 40199.9 929.241  21
   3   7  -2 40282.7 1645.69  20
  -3  -7   1 6990.95 279.362  23
   3   7  -1 7320.79 326.282  21
  -3  -7   0 13787.5 407.665  23
  -3  -7   0 13219.0 378.383  11
  -3  -7  -1 3115.35 166.174  23
   3   7   1 3429.21 205.749  21
  -3  -7  -1 3274.85 175.080  11
  -3  -7  -2 670.935 69.6178  23
   3   7   2 570.945 81.9218  21
  -3  -7  -2 469.080 70.3116  11
  -3  -7  -3 5731.13 233.567  11
  -3  -7  -4 1.70090 13.5428  14
  -3  -7  -4 506.201 65.1903  11
  -3  -7  -5 26823.3 560.518  13
  -3  -7  -5 26516.7 552.352  11
  -3  -7  -6 4768.55 152.369  13
  -3  -7  -6 4522.92 153.706  11
  -3  -8  12 8957.74 206.407  28
   3   8 -12 9753.38 277.791  30
   3   8 -11 1339.50 88.5880  10
   3   8 -10 914.324 85.1435  10
  -3  -8   9 6664.53 216.770  23
  -3  -8   8 433.438 58.6378  23
   3   8  -8 348.652 70.1246  21
   3   8  -8 314.918 54.5689  32
  -3  -8   7 36355.8 753.364  23
   3   8  -7 37623.2 837.257  21
  -3  -8   6 865.211 91.8395  23
   3   8  -6 1026.98 120.897  21
   3   8  -6 742.136 134.053  33
  -3  -8   5 35340.2 761.930  23
   3   8  -5 34585.0 837.497  21
  -3  -8   4 1042.59 106.158  23
   3   8  -3 4574.07 259.737  21
  -3  -8   2 12166.5 379.524  23
   3   8  -2 13008.6 440.976  21
  -3  -8   1 53.2350 34.2960  23
   3   8  -1 46.0035 45.0803  21
  -3  -8   0 26844.6 596.102  23
   3   8   0 28618.0 668.247  21
  -3  -8  -1 8325.81 251.026  23
   3   8   1 8553.99 292.494  21
  -3  -8  -2 23684.4 495.841  11
  -3  -8  -3 12253.9 285.789  13
  -3  -8  -3 10515.6 226.393  11
  -3  -8  -4 167.170 27.9497  11
  -3  -8  -5 439.332 36.6228  13
   3   9 -10 19038.7 395.892  10
   3   9  -9 9880.40 329.416  33
   3   9  -9 10305.3 284.899  10
  -3  -9   8 2641.94 125.766  23
   3   9  -8 2374.47 142.707  21
   3   9  -8 2648.34 171.621  33
  -3  -9   7 496.445 60.5141  23
   3   9  -7 386.068 72.2492  21
   3   9  -7 469.049 84.6206  33
   3   9  -7 309.878 50.1828  32
  -3  -9   6 189.615 43.0722  23
   3   9  -6 193.293 56.9156  21
   3   9  -6 162.515 45.0874  32
  -3  -9   5 35847.4 747.435  23
   3   9  -5 34017.7 803.452  21
  -3  -9   4 23867.2 552.938  23
   3   9  -4 25462.1 628.333  21
  -3  -9   3 2124.72 130.924  23
   3   9  -3 2039.30 150.983  21
  -3  -9   2 13665.5 364.367  23
   3   9  -2 13765.7 410.276  21
  -3  -9   1 2646.79 131.349  23
   3   9  -1 2312.84 146.039  21
  -3  -9   0 127.217 30.1979  23
   3   9   0 153.432 41.9653  21
  -3  -9  -1 165.511 35.5529  13
  -3  -9  -2 6942.67 199.923  13
  -3  -9  -3 2264.54 86.2483  13
   3  10  -8 9422.18 246.734  33
   3  10  -8 7013.28 191.514  10
  -3 -10   7 15138.3 326.132  23
   3  10  -7 15380.8 373.561  33
  -3 -10   6 2168.97 102.910  23
   3  10  -6 2330.19 126.044  33
   3  10  -5 5729.32 205.240  33
  -3 -10   5 5694.92 179.738  23
   3  10  -4 1402.33 104.720  21
   3  10  -4 1357.98 99.7381  33
   3  10  -4 1087.81 77.1319  32
  -3 -10   3 15584.0 339.905  23
   3  10  -3 13550.6 354.829  33
  -3 -10   2 13518.0 295.766  23
  -3 -10   1 2310.16 84.5152  13
   4 -12   1 24396.0 435.821  23
   4 -12   2 157.078 27.3543  23
   4 -12   3 6365.99 180.808  23
   4 -12   4 236.507 33.3545  23
   4 -12   5 2040.41 87.5805  23
   4 -11  -3 57.5335 20.3707   4
   4 -11  -2 10730.1 277.373   4
   4 -11  -1 90.7649 23.5562  23
   4 -11  -1 92.4784 26.1853  34
   4 -11   0 115.537 32.8556  23
   4 -11   1 9678.13 281.646  23
  -4  11  -2 3949.78 151.801  17
  -4  11  -3 47021.9 881.301  17
   4 -11   3 51834.4 923.244  23
  -4  11  -4 1638.49 107.659  17
   4 -11   4 1637.76 111.247  23
  -4  11  -5 16312.8 405.308  17
   4 -11   5 17183.9 411.114  23
  -4  11  -6 418.543 56.6416  17
   4 -11   6 303.727 46.5300  23
   4 -11   7 143.280 26.8977  23
  -4  11  -7 120.519 32.7930  17
   4 -10  -5 1211.59 78.8865   4
   4 -10  -4 7769.65 248.173   4
   4 -10  -3 230.420 41.7761  34
   4 -10  -2 36802.6 687.037  23
   4 -10  -2 36238.1 728.326  34
  -4  10   2 35165.1 715.765  29
   4 -10  -1 7597.72 256.448  23
  -4  10   1 7288.01 274.128  29
  -4  10   0 19191.5 447.054  17
  -4  10   0 20897.6 534.773  29
  -4  10  -1 8201.11 283.289  17
  -4  10  -1 8812.38 328.983  29
  -4  10  -2 18.3659 42.2889  29
  -4  10  -2 116.096 44.6113  17
  -4  10  -3 1132.14 111.804  17
  -4  10  -4 376.824 72.8468  17
  -4  10  -5 31732.4 565.875  17
  -4  10  -5 1.86127 15.1524  32
  -4  10  -6 7594.30 290.496  17
   4 -10   6 7163.61 264.948  23
   4 -10   7 13555.3 350.809  23
  -4  10  -8 12320.1 295.146  17
  -4  10  -8 1.46106 12.1499  31
  -4  10  -9 626.759 59.4113  17
   4  -9  -7 18157.5 374.299   4
   4  -9  -6 1748.97 90.0301  16
   4  -9  -5 7872.29 235.129  16
   4  -9  -5 8261.38 251.465  34
  -4   9   4 6287.43 222.972  29
   4  -9  -4 6156.45 213.706  16
   4  -9  -4 6372.02 234.224  34
  -4   9   3 786.388 89.0396  29
   4  -9  -3 809.726 77.0313  16
   4  -9  -3 832.104 89.2869  34
  -4   9   2 2043.47 151.993  29
  -4   9   1 70.1573 47.7218  29
  -4   9   1 130.336 41.8885  17
  -4   9   0 47630.1 1019.66  29
  -4   9   0 45510.8 938.721  17
  -4   9   0 45273.8 1569.29  26
  -4   9  -1 14546.6 481.680  29
  -4   9  -1 14616.7 447.555  17
   4  -9   1 13523.9 816.240  24
  -4   9  -2 30087.8 721.810  17
   4  -9   2 32470.5 1315.19  24
  -4   9  -3 12026.2 419.886  17
   4  -9   3 11205.2 648.018   6
  -4   9  -4 94.7854 59.4189  29
  -4   9  -4 82.9842 53.6467  17
  -4   9  -4 106.855 100.344  26
   4  -9   4 96.0318 90.0988  24
  -4   9  -4 116.076 38.5266  32
  -4   9  -5 440.670 93.8524  17
  -4   9  -5 379.358 59.8692  32
  -4   9  -6 1722.28 119.075  32
  -4   9  -7 27531.5 683.416  17
  -4   9  -8 19768.1 515.811  17
  -4   9  -9 15009.9 384.565  17
  -4   9  -9 15289.5 363.661  31
  -4   9 -10 15297.9 288.609  17
  -4   9 -10 8163.88 241.260  31
   4  -8  -8 100.606 26.7599  16
   4  -8  -8 93.3875 28.3893   4
   4  -8  -7 34.1727 25.5320  16
   4  -8  -7 38.4865 31.0917   4
   4  -8  -7 24.3966 18.2352  34
   4  -8  -6 3094.46 158.153  16
   4  -8  -6 3152.00 173.579   4
   4  -8  -6 2617.01 141.012  34
  -4   8   5 15407.2 413.529  29
   4  -8  -5 15665.9 431.785  16
  -4   8   4 50989.4 1014.12  29
   4  -8  -4 51817.6 997.136  16
   4  -8  -4 50369.2 1004.34  34
  -4   8   3 21924.7 587.562  29
   4  -8  -3 21978.1 540.994  16
  -4   8   2 18812.6 552.020  29
   4  -8  -2 18624.3 480.611  16
   4  -8  -2 18449.1 905.807  24
  -4   8   2 18425.3 902.204   7
  -4   8   2 18911.3 931.003  26
  -4   8   1 1455.63 143.651  29
  -4   8   1 1064.63 229.794  26
   4  -8  -1 1096.46 226.812  24
  -4   8   1 1434.13 252.992   7
  -4   8   0 84.8275 59.2214  29
  -4   8   0 236.072 110.561   7
  -4   8  -1 100.161 58.8520  29
   4  -8   1 53.4149 51.2895   6
   4  -8   2 9515.97 702.190  24
   4  -8   2 8466.86 552.136   6
  -4   8  -3 24605.6 670.489  29
   4  -8   3 22890.3 1123.11  24
  -4   8  -3 21960.6 589.640   5
  -4   8  -4 37263.9 868.274  29
   4  -8   4 33856.5 1411.46  24
  -4   8  -4 36052.0 731.075  32
  -4   8  -4 32263.0 772.720   5
  -4   8  -5 35851.8 1345.53  26
   4  -8   5 35390.5 1433.88  24
  -4   8  -5 37285.7 749.047  32
  -4   8  -5 35891.6 835.340  29
  -4   8  -6 4378.17 253.481  17
  -4   8  -6 3742.77 392.771  26
   4  -8   6 4303.53 460.000  24
  -4   8  -6 3982.12 210.910   5
  -4   8  -6 4423.51 205.831  32
  -4   8  -7 830.607 108.353  17
  -4   8  -7 630.069 85.0191   5
  -4   8  -8 58.5287 46.3834  17
  -4   8  -9 9441.03 298.002  17
  -4   8  -9 10123.9 298.911  31
  -4   8 -10 10795.6 234.642   1
  -4   8 -10 13611.4 286.445  31
  -4   8 -11 2176.16 100.430  31
   4  -7  -9 7024.98 211.743   4
   4  -7  -9 6960.62 211.213  16
   4  -7  -8 9225.08 293.470  16
   4  -7  -8 9808.69 306.632   4
   4  -7  -7 18228.7 482.041  16
   4  -7  -7 17571.3 444.689  34
  -4   7   6 4670.92 209.168  29
   4  -7  -6 4980.62 218.067  34
  -4   7   5 1682.57 135.257  29
   4  -7  -5 1797.48 145.600  16
   4  -7  -5 1514.77 123.855  34
  -4   7   4 10783.2 385.492  29
   4  -7  -4 11616.4 387.629  16
  -4   7   3 42882.3 949.175  29
   4  -7  -3 42871.2 901.715  16
  -4   7   3 40660.3 1403.58  26
  -4   7   3 44122.0 1493.77   7
   4  -7  -3 42230.0 1415.20  24
  -4   7   2 52030.6 1089.81  29
   4  -7  -2 49699.6 1004.58  16
  -4   7   2 49376.6 1610.84  26
  -4   7   2 53606.0 1686.48   7
   4  -7  -2 51939.6 1635.24  24
  -4   7   1 8413.99 349.923  29
  -4   7   1 8235.87 348.578  28
  -4   7   1 7778.38 590.891   7
  -4   7   0 70176.1 1373.54  29
  -4   7   0 73568.5 2023.10   7
  -4   7  -1 1028.40 221.131   7
   4  -7   1 685.168 153.699   6
  -4   7  -2 15571.8 507.752  29
  -4   7  -2 15321.0 833.074   7
  -4   7  -3 1067.47 125.279  29
  -4   7  -3 1015.99 224.014   7
  -4   7  -4 2619.44 189.278  29
  -4   7  -4 1962.92 301.888  26
   4  -7   4 2583.29 364.139  24
  -4   7  -4 2719.94 148.390  32
  -4   7  -4 2665.65 181.874   5
  -4   7  -5 29128.2 1163.99  26
   4  -7   5 30568.3 1302.34  24
  -4   7  -5 31537.2 661.545  32
  -4   7  -5 27737.6 713.106   5
  -4   7  -5 29041.7 680.452   9
  -4   7  -5 29643.9 723.435  29
  -4   7  -6 2820.71 332.278  26
  -4   7  -6 3907.96 236.549  17
   4  -7   6 3264.86 401.337  24
  -4   7  -6 3223.77 202.353   5
  -4   7  -6 3412.77 199.847   9
  -4   7  -7 39326.6 883.907  17
  -4   7  -7 39079.0 867.369   5
  -4   7  -7 37469.7 854.172   9
  -4   7  -8 2503.87 167.499  17
  -4   7  -8 2496.09 176.766   9
  -4   7  -9 19259.8 475.627  17
  -4   7  -9 19088.5 512.267   1
  -4   7  -9 18785.6 532.205   9
  -4   7 -10 262.319 51.4051   1
  -4   7 -10 266.512 52.3097  31
  -4   7 -11 243.352 41.8341  31
  -4   7 -11 355.616 47.8845   1
   4  -6 -10 168.380 40.2876   3
   4  -6 -10 12.6985 13.3377   4
   4  -6  -9 2396.87 143.263  16
   4  -6  -9 2293.57 136.243   4
   4  -6  -8 2188.87 154.423  16
   4  -6  -8 2083.79 126.722  34
  -4   6   7 10035.8 323.192  29
   4  -6  -7 10518.3 373.347  16
   4  -6  -7 10267.2 354.079  15
   4  -6  -7 10434.0 366.056   4
   4  -6  -7 10524.0 333.478  34
  -4   6   6 5603.43 250.193  29
   4  -6  -6 5636.15 272.387  16
   4  -6  -6 5955.72 263.432  15
   4  -6  -6 5818.68 244.418  34
  -4   6   5 47163.8 1001.89  29
  -4   6   5 48126.9 968.136  28
   4  -6  -5 49629.5 1035.45  16
   4  -6  -5 50551.1 1009.32  15
   4  -6  -5 48844.2 979.313  34
  -4   6   4 904.595 108.882  29
  -4   6   4 732.745 94.7862  28
   4  -6  -4 906.059 106.288  16
   4  -6  -4 1284.82 115.957  15
  -4   6   4 663.835 161.072  26
   4  -6  -4 791.903 173.891  24
   4  -6  -4 781.760 205.377  22
  -4   6   3 29683.7 720.934  28
  -4   6   3 31601.0 742.081  29
   4  -6  -3 28124.3 689.905  16
  -4   6   3 29403.2 1128.50  26
   4  -6  -3 31197.3 694.997  15
   4  -6  -3 29823.3 1257.16  22
  -4   6   2 1978.80 156.491  29
   4  -6  -2 1843.77 137.301  16
  -4   6   2 2127.42 160.834  28
  -4   6   2 1946.74 280.483  26
   4  -6  -2 1926.41 136.368  15
  -4   6   2 2189.87 307.860   7
   4  -6  -2 2324.23 329.095  22
  -4   6   1 1274.46 125.301  29
  -4   6   1 1300.63 128.253  28
  -4   6   1 1568.40 255.328  26
  -4   6   1 1325.92 242.033   7
   4  -6  -1 1215.16 243.757  22
  -4   6   0 19670.3 560.764  28
  -4   6   0 19884.0 937.622   7
   4  -6   0 18227.1 922.123  22
   4  -6   0 21226.3 795.089   6
  -4   6  -1 7230.77 313.993  29
  -4   6  -1 7911.68 330.042  28
  -4   6  -1 8244.22 593.018   7
  -4   6  -2 74400.7 1399.02  29
  -4   6  -2 71164.3 1403.50  28
  -4   6  -2 71610.6 1995.49   7
  -4   6  -2 70776.0 1309.24  12
  -4   6  -3 1095.32 118.008  29
  -4   6  -3 892.814 200.604  26
  -4   6  -3 1035.92 221.217   7
  -4   6  -3 1022.21 108.045  12
  -4   6  -4 39679.6 838.921   9
  -4   6  -4 42192.2 894.298  29
  -4   6  -4 40049.8 1368.07  26
  -4   6  -4 40976.5 896.941  12
  -4   6  -4 39102.9 885.419   5
  -4   6  -5 1815.51 140.027  29
  -4   6  -5 1854.93 146.502   9
  -4   6  -5 1856.40 268.288  26
  -4   6  -5 1972.51 160.691  12
  -4   6  -5 2070.18 132.021  32
  -4   6  -5 1814.16 151.522   5
  -4   6  -6 5860.91 277.910   9
  -4   6  -6 5723.96 277.784  17
  -4   6  -6 5211.81 426.915  26
   4  -6   6 5945.35 520.080  24
  -4   6  -6 5788.46 289.204  12
  -4   6  -6 5760.58 276.277   5
  -4   6  -7 16802.9 522.403   9
  -4   6  -7 17493.6 503.716  17
  -4   6  -7 17181.4 517.469   5
  -4   6  -8 65.8181 46.5028   5
  -4   6  -8 94.2447 44.0083  17
  -4   6  -8 373.790 80.3476   9
  -4   6  -8 86.4351 53.9328  12
  -4   6  -8 282.847 61.2894  31
  -4   6  -9 36751.4 751.952  17
  -4   6  -9 39352.6 889.998   9
  -4   6 -10 1884.90 136.227   1
  -4   6 -10 2100.02 136.292  31
  -4   6 -10 1974.01 152.441   9
  -4   6 -11 13909.4 372.929   1
  -4   6 -11 14834.1 410.576   9
  -4   6 -11 14797.0 371.149  31
  -4   6 -12 2205.77 102.838   1
   4  -5 -11 1108.91 83.8975   3
   4  -5 -11 1046.45 75.9740  16
   4  -5 -10-12.5563 18.1100   4
   4  -5  -9 525.479 82.4859  16
   4  -5  -9 368.385 66.1982   4
   4  -5  -9 456.875 71.7945  15
  -4   5   8 20029.2 507.015  29
   4  -5  -8 23219.8 615.080  16
   4  -5  -8 23809.8 589.334  15
   4  -5  -8 24619.3 599.245   4
   4  -5  -8 21032.0 515.806  34
  -4   5   7 1277.88 115.029  29
   4  -5  -7 1271.31 133.032  16
   4  -5  -7 1249.97 121.152  15
   4  -5  -7 1358.58 127.239   4
   4  -5  -7 1037.05 232.077  22
   4  -5  -7 1357.11 112.191  34
  -4   5   6 1455.64 126.330  29
   4  -5  -6 1433.89 128.980  15
   4  -5  -6 1295.49 256.791  22
   4  -5  -6 1230.72 106.948  34
  -4   5   5 19596.3 530.847  29
  -4   5   5 18042.2 493.663  28
   4  -5  -5 18958.4 516.787  15
   4  -5  -5 18756.1 490.018  34
  -4   5   4 2025.97 153.056  29
  -4   5   4 2337.27 157.789  28
  -4   5   4 1907.57 255.393  26
   4  -5  -4 1959.09 141.925  15
   4  -5  -4 2211.35 318.112  22
  -4   5   3 110840. 1870.52  29
  -4   5   3 102182. 1844.96  28
  -4   5   3 111056. 2424.03  26
   4  -5  -3 108070. 1814.84  15
   4  -5  -3 99420.9 2572.88  22
  -4   5   2 9993.83 349.524  29
  -4   5   2 10027.3 351.875  28
  -4   5   2 9539.13 587.263  26
   4  -5  -2 9059.27 615.695  22
  -4   5   1 71306.1 1326.94  28
  -4   5   1 68922.3 1843.07  26
  -4   5   0 8126.54 309.439  29
  -4   5   0 8205.91 316.163  28
  -4   5   0 7847.37 533.166  26
  -4   5   0 8488.99 562.436   7
   4  -5   0 8983.05 586.852  22
  -4   5  -1 2621.97 169.336  29
  -4   5  -1 2380.83 301.256   7
   4  -5   1 2403.16 286.767  22
  -4   5  -1 2598.07 148.497  12
  -4   5  -2 3885.29 208.220  29
  -4   5  -2 3741.38 213.480  28
  -4   5  -2 4249.30 390.707  26
  -4   5  -2 3479.08 373.750   7
  -4   5  -2 3793.76 192.386  12
  -4   5  -3 1080.37 106.885  29
  -4   5  -3 953.312 92.9631   9
  -4   5  -3 1009.69 113.459  28
  -4   5  -3 984.136 191.535  26
  -4   5  -3 884.465 197.466   7
  -4   5  -3 964.815 102.423  12
  -4   5  -4 71291.3 1282.78  29
  -4   5  -4 67302.4 1284.34   9
  -4   5  -4 70531.6 1836.59  26
  -4   5  -4 67877.3 1990.91   7
  -4   5  -4 71767.9 1336.45  12
  -4   5  -4 69093.7 1326.32   5
  -4   5  -5 43831.3 944.803   9
  -4   5  -5 44922.9 1365.29  26
  -4   5  -5 45846.2 981.944  12
  -4   5  -5 45364.1 966.178   5
  -4   5  -6 20709.3 583.914   9
  -4   5  -6 20936.0 830.840  26
  -4   5  -6 20650.7 576.131   5
  -4   5  -7 3138.27 212.339   9
  -4   5  -7 3220.95 181.582  17
  -4   5  -7 3142.34 200.919   5
  -4   5  -7 3427.24 187.932  31
  -4   5  -8 256.233 64.9795   5
  -4   5  -8 247.742 58.3502  31
  -4   5  -8 293.814 54.4844  17
  -4   5  -8 257.425 76.1376   9
  -4   5  -8 322.542 83.3727  12
  -4   5  -9 276.073 76.0090   9
  -4   5  -9 444.674 85.7279  12
  -4   5  -9 357.637 70.8007  31
  -4   5 -10 361.986 70.4542  12
  -4   5 -10 278.126 57.6400  31
  -4   5 -10 300.334 61.6007   1
  -4   5 -11 14391.0 390.024   1
  -4   5 -12 5813.48 190.905   1
   4  -4 -12 2817.22 111.389  16
   4  -4 -11 165.487 43.1402  16
   4  -4 -10 5318.38 231.088  16
   4  -4 -10 5644.00 227.551  15
   4  -4  -9 206.896 59.9155  15
   4  -4  -9 301.930 66.4821   4
  -4   4   8 43548.7 907.745  29
   4  -4  -8 45342.3 974.832  15
   4  -4  -8 44418.7 1583.98  22
  -4   4   7 136.807 47.8845  29
   4  -4  -7 56.6084 44.8443  15
   4  -4  -7 46.9197 39.2338   4
   4  -4  -7 57.6489 29.1130  34
   4  -4  -6 29845.6 657.915  34
  -4   4   6 32074.1 718.727  29
  -4   4   6 29205.1 671.264  28
   4  -4  -6 32219.4 734.452  15
   4  -4  -6 32378.1 1306.62  22
  -4   4   5 24075.6 586.078  28
  -4   4   5 27154.9 630.809  29
  -4   4   5 25125.9 556.502  27
  -4   4   5 25875.2 927.208  26
   4  -4  -5 23596.9 556.280  34
  -4   4   4 16.2551 31.2173  29
  -4   4   4 110.485 41.9965  28
  -4   4   4 40.0127 41.5882  26
   4  -4  -4 41.0648 51.9482  22
  -4   4   3 3597.44 190.550  29
  -4   4   3 3835.08 195.523  28
  -4   4   3 3740.07 338.828  26
   4  -4  -3 3836.22 387.897  22
  -4   4   3 3705.19 188.113  18
  -4   4   2 679.300 83.1777  28
  -4   4   2 878.891 166.032  26
  -4   4   2 618.822 77.2411  18
  -4   4   1 23127.3 557.125  29
  -4   4   1 22399.9 554.773  28
  -4   4   1 22980.3 896.533  26
  -4   4   1 22770.6 557.742  18
  -4   4   0 10027.2 566.093  26
   4  -4   0 9844.35 575.098  22
  -4   4   0 9954.00 330.869  18
  -4   4  -1 87365.6 1568.30  28
  -4   4  -1 89814.0 2170.40   7
   4  -4   1 89485.4 2027.31  22
  -4   4  -1 90195.3 1561.69  18
  -4   4  -2 56858.1 1095.84  28
  -4   4  -2 55893.0 1525.84  26
  -4   4  -2 56403.9 1628.47   7
   4  -4   2 56164.1 1370.19  22
  -4   4  -2 54988.6 1052.03  12
  -4   4  -2 56486.0 1078.22  18
  -4   4  -3 1086.30 108.094  28
  -4   4  -3 698.178 150.832  26
  -4   4  -3 948.435 197.180   7
  -4   4  -3 981.579 99.4708  12
  -4   4  -3 970.726 99.0446  18
  -4   4  -4 1387.71 121.339  28
  -4   4  -4 1115.98 110.689   9
  -4   4  -4 1440.86 210.963  26
  -4   4  -4 1547.23 130.352  12
  -4   4  -4 1154.50 112.719   5
  -4   4  -5 2199.05 161.514   9
  -4   4  -5 2478.50 265.694  26
  -4   4  -5 2245.67 165.407  12
  -4   4  -5 2504.63 167.310   5
  -4   4  -5 2470.65 139.760  31
  -4   4  -6 42708.1 958.848   9
  -4   4  -6 41772.6 804.791  27
  -4   4  -6 42289.5 1187.52  26
  -4   4  -6 44039.2 934.835   5
  -4   4  -7 34359.7 852.353   9
  -4   4  -7 33832.8 842.283  12
  -4   4  -7 34285.6 812.108   5
  -4   4  -8 34925.0 876.932   9
  -4   4  -8 35612.4 865.107  12
  -4   4  -9 46264.6 1018.61  12
  -4   4  -9 48887.0 979.524  31
  -4   4 -10 865.894 98.7459  12
  -4   4 -10 821.636 97.0716   1
  -4   4 -11 1423.75 108.672   1
  -4   4 -11 1504.45 119.062   9
  -4   4 -12 253.311 40.7368   1
  -4   4 -12 235.032 41.5003   9
   4  -3 -13 21419.6 404.575   3
   4  -3 -12 3176.51 155.144   3
   4  -3 -12 3157.13 140.920  16
   4  -3 -12 3111.62 141.354  15
   4  -3 -11 20590.2 517.650  16
   4  -3 -10 12315.9 416.284  16
  -4   3   9 412.497 68.6384  29
   4  -3  -9 454.420 72.6162   4
   4  -3  -9 436.761 83.2400  15
   4  -3  -9 403.220 143.501  22
  -4   3   8 645.811 86.5047  29
   4  -3  -8 873.811 101.262   4
   4  -3  -8 603.586 181.126  22
  -4   3   7 6094.04 258.361  29
   4  -3  -7 6535.64 266.997   4
   4  -3  -7 5624.99 525.298  22
  -4   3   6 22853.9 558.391  29
  -4   3   6 20643.1 517.559  28
  -4   3   5 33793.3 728.907  28
  -4   3   5 33921.1 695.736  27
  -4   3   5 33784.4 1077.77  26
  -4   3   4 54935.5 1069.15  29
  -4   3   4 58125.8 1070.52  28
  -4   3   4 56935.1 1038.03  27
  -4   3   4 59676.8 1523.49  26
  -4   3   4 58660.4 1058.23  18
  -4   3   3 80509.5 1432.61  29
  -4   3   3 84138.8 1437.09  28
  -4   3   3 85250.2 1918.11  26
   4  -3  -3 79921.6 2063.03  22
  -4   3   2 550.291 128.612  26
   4  -3  -2 535.227 148.502  22
  -4   3   1 1508.95 201.868  26
  -4   3   1 1476.41 208.417   7
   4  -3  -1 1377.84 208.083  22
  -4   3   0 69.9561 55.5486  26
   4  -3   0 65.1907 50.0037  22
  -4   3  -1 37851.0 1140.01  26
  -4   3  -1 38491.6 1230.52   7
   4  -3   1 38659.8 1115.67  22
  -4   3  -2 36995.3 1116.53  26
  -4   3  -3 65603.8 1597.17  26
  -4   3  -3 62710.5 1205.28  14
  -4   3  -4 62888.3 1102.15  27
  -4   3  -4 62770.0 1186.56   2
  -4   3  -4 61877.1 1534.76  26
  -4   3  -4 63617.5 1168.30  18
  -4   3  -5 2342.90 124.714  27
  -4   3  -5 2652.08 172.152   2
  -4   3  -5 2476.89 246.029  26
  -4   3  -5 2262.93 162.442  13
  -4   3  -5 2432.81 139.665  31
  -4   3  -6 3059.94 202.436   9
  -4   3  -6 2599.86 181.072   2
  -4   3  -6 2658.91 182.763  13
  -4   3  -6 3132.37 171.792  31
  -4   3  -7 942.718 120.729   9
  -4   3  -7 779.826 105.244   2
  -4   3  -7 941.514 112.985  13
  -4   3  -7 827.089 111.288  12
  -4   3  -7 937.198 102.465  31
  -4   3  -8 11531.9 419.922   2
  -4   3  -8 11509.8 410.229  13
  -4   3  -8 11860.6 428.266  12
  -4   3  -8 12132.6 392.351  31
  -4   3  -9 5399.81 274.684   2
  -4   3  -9 5909.72 293.499   9
  -4   3  -9 5739.04 273.046  12
  -4   3 -10 13100.9 424.176   9
  -4   3 -10 12896.2 389.943  12
  -4   3 -11 28999.9 632.536   9
  -4   3 -12 811.725 62.4150   9
   4  -2 -13 5069.11 159.712  15
   4  -2 -13 4565.82 161.503   3
   4  -2 -12 712.417 83.3513   3
   4  -2 -12 710.466 75.1377  16
   4  -2 -12 637.858 71.9013  15
   4  -2 -11 9629.94 341.394  16
  -4   2  10 10690.5 331.451  29
  -4   2   9 22381.0 559.069  29
   4  -2  -9 22460.0 530.867  35
  -4   2   8 62633.7 1173.47  29
  -4   2   8 59884.0 1122.17  28
   4  -2  -8 62796.1 1135.81  35
  -4   2   7 27.4578 28.7282  28
   4  -2  -7 46.8071 70.0565  22
  -4   2   6 1340.94 107.621  28
  -4   2   5 2720.31 151.834  28
  -4   2   5 3053.02 150.812  27
  -4   2   5 2971.39 286.010  26
   4  -2  -5 2756.59 336.901  22
  -4   2   4 33652.8 702.124  28
  -4   2   4 34785.6 694.185  27
  -4   2   4 36582.7 1095.48  26
   4  -2  -4 33507.6 1207.14  22
  -4   2   3 49760.6 902.744  27
  -4   2   3 48846.0 1317.45  26
  -4   2   3 48660.8 1366.90  19
  -4   2   2 52312.1 942.347  27
  -4   2   2 54219.4 1382.55  26
  -4   2   2 51532.8 1365.96   7
   4  -2  -2 51029.0 1449.48  22
  -4   2   2 51676.6 1427.39  19
  -4   2   1 149301. 2291.27  27
  -4   2   1 142273. 2797.85  26
  -4   2   1 143146. 2856.86   7
   4  -2  -1 138748. 2862.19  22
  -4   2   1 145192. 2884.48  19
  -4   2   0 296.158 104.301   7
   4  -2   0 396.384 106.261  22
  -4   2  -1 40511.7 772.796  27
  -4   2  -1 41256.3 1151.83  26
  -4   2  -1 42449.0 1254.44   7
   4  -2   1 42994.0 1152.45  22
  -4   2  -1 40387.8 1241.05  19
  -4   2  -2 1949.79 112.903  27
  -4   2  -2 1923.91 218.815  26
  -4   2  -2 1779.21 240.512   7
  -4   2  -2 2299.37 268.736  19
  -4   2  -3 2493.36 127.513  27
  -4   2  -3 2458.22 240.515  26
  -4   2  -3 2321.76 146.970  14
  -4   2  -3 2600.47 154.936  13
  -4   2  -3 2645.03 311.632   7
  -4   2  -3 2436.57 146.198   5
  -4   2  -4 52181.6 928.048  27
  -4   2  -4 51223.2 1305.97  26
  -4   2  -4 50606.7 1028.88  14
  -4   2  -4 54225.4 1019.56   2
  -4   2  -4 52122.4 1009.32   5
  -4   2  -5 12892.8 326.916  27
  -4   2  -5 12802.6 408.789   2
  -4   2  -5 12793.3 414.146  13
  -4   2  -5 13183.4 400.623   5
  -4   2  -5 13868.5 376.309  31
  -4   2  -6 66529.1 1322.38  14
  -4   2  -6 65025.1 1296.34   2
  -4   2  -6 66360.2 1304.73  13
  -4   2  -6 66331.4 1272.96   5
  -4   2  -7 5120.35 264.090   2
  -4   2  -7 4970.30 255.177  13
  -4   2  -7 5461.82 243.822  31
  -4   2  -8 34498.2 823.978   9
  -4   2  -8 32276.0 791.650   2
  -4   2  -8 32926.7 786.843  13
  -4   2  -8 33712.9 797.419  12
  -4   2  -9 3888.75 226.362   9
  -4   2  -9 3946.03 226.137   2
  -4   2  -9 4152.85 217.701  13
  -4   2  -9 4069.94 216.412  12
  -4   2  -9 4200.46 217.432   1
  -4   2 -10 654.199 88.7586   9
  -4   2 -10 609.256 77.7330   1
  -4   2 -10 644.786 89.6728   2
  -4   2 -10 613.822 74.9798  12
  -4   2 -11 12355.1 333.087   1
  -4   2 -11 12734.4 340.010   9
  -4   2 -12 434.850 43.3616   1
   4  -1 -13 13561.1 283.214  15
   4  -1 -13 13619.3 283.440   3
   4  -1 -12 74.2282 42.1881   3
   4  -1 -12 128.195 43.1037  16
   4  -1 -12 135.286 44.3107  15
  -4   1  11 8872.53 279.514  29
   4  -1 -11 9281.71 293.961  35
  -4   1  10 57.2306 39.5969  29
   4  -1 -10-14.0913 47.8287  22
   4  -1 -10 24.6144 35.4154  35
   4  -1  -9 8916.37 667.572  22
   4  -1  -9 9987.82 339.228  35
   4  -1  -8 31170.6 699.450  35
  -4   1   8 32744.1 679.096  28
  -4   1   7 13648.7 379.407  28
   4  -1  -7 13126.0 789.762  22
  -4   1   6 51700.4 959.832  28
  -4   1   6 49317.2 930.623  27
  -4   1   5 2529.72 141.485  28
  -4   1   5 2705.23 142.903  27
   4  -1  -5 2949.49 339.688  22
  -4   1   5 2826.30 284.703  19
  -4   1   4 3144.62 154.314  28
  -4   1   4 3435.71 160.688  27
  -4   1   4 3688.61 314.104  26
   4  -1  -4 3597.66 358.892  22
  -4   1   4 3028.19 294.589  19
  -4   1   3 26789.8 555.409  27
  -4   1   3 27091.0 899.483  26
   4  -1  -3 22087.8 909.297  22
  -4   1   3 23664.0 873.796  19
  -4   1   2 744.743 70.7150  27
  -4   1   2 657.359 132.997  26
  -4   1   2 1013.46 169.387   7
   4  -1  -2 462.852 121.103  22
  -4   1   2 808.019 155.481  19
  -4   1   1 49784.4 903.599  27
  -4   1   1 49101.6 1294.40  26
  -4   1   1 50613.2 1341.47   7
   4  -1  -1 53689.5 1345.26  22
  -4   1   1 48959.1 1353.95  19
  -4   1   0 17936.4 727.652   7
   4  -1   0 15883.3 650.093  22
  -4   1  -1 146933. 2335.42  27
  -4   1  -1 151116. 2837.49  26
  -4   1  -1 152550. 2969.96   7
   4  -1   1 149507. 2773.59  22
  -4   1  -1 155005. 2959.15  19
  -4   1  -2 828.547 70.9764  27
  -4   1  -2 741.036 133.285  26
  -4   1  -2 878.740 173.457   7
  -4   1  -2 1052.60 179.255  19
  -4   1  -3 38231.2 729.775  27
  -4   1  -3 37777.2 801.888  14
  -4   1  -3 39632.3 808.018  13
  -4   1  -3 38983.1 1195.47  19
  -4   1  -3 40093.7 788.436   5
  -4   1  -4 21840.7 471.612  27
  -4   1  -4 21733.7 530.779   5
  -4   1  -4 21750.9 538.761   2
   4  -1   4 20918.5 777.342  20
  -4   1  -5 139.190 43.3045   5
  -4   1  -5 112.090 42.0869  14
  -4   1  -5 41.5871 28.8401  13
  -4   1  -5 115.975 45.2293   2
  -4   1  -6 13725.4 448.173  14
  -4   1  -6 13779.7 444.164  13
  -4   1  -6 13519.4 442.258   2
  -4   1  -6 14885.3 431.917   5
  -4   1  -7 679.197 94.5735  13
  -4   1  -7 569.986 92.9814   2
  -4   1  -8 55566.3 1090.91   1
  -4   1  -8 55006.9 1132.80   9
  -4   1  -8 55107.4 1111.05  13
  -4   1  -8 52626.2 1121.65   2
  -4   1  -9 4593.51 231.704   9
  -4   1  -9 4399.19 212.261   1
  -4   1  -9 4243.58 229.254   2
  -4   1  -9 4247.53 213.328  13
  -4   1  -9 4616.29 216.809  12
  -4   1 -10 16375.1 368.734   9
  -4   1 -10 15491.6 381.333   2
  -4   1 -10 15420.3 337.864   1
  -4   1 -11 5048.99 199.475   2
  -4   1 -11 4896.17 171.957   1
  -4   1 -11 5058.86 170.005   9
   4   0 -13-4.61119 13.8059  16
   4   0 -13 1532.66 98.6723  15
   4   0 -12 9165.85 287.204  35
   4   0 -12 9057.14 306.894   3
  -4   0  11 46576.5 904.788  29
   4   0 -11 46599.9 940.548  35
   4   0 -10 176.797 103.095  22
   4   0 -10 51.5690 43.2812  35
  -4   0   9 16211.6 427.083  28
   4   0  -9 16238.4 477.935  35
  -4   0   8 4756.28 205.750  28
   4   0  -8 4078.49 443.987  22
  -4   0   7 1384.76 107.191  28
   4   0  -7 1044.25 222.361  22
   4   0  -7 1454.09 201.023  20
  -4   0   6 27519.0 601.054  28
   4   0  -6 28772.7 1014.17  20
  -4   0   6 28897.2 976.236  19
  -4   0   5 65.1755 27.9461  28
   4   0  -5 72.6857 68.1915  22
   4   0  -5 20.0653 48.1650  20
  -4   0   5 90.6811 57.5879  19
  -4   0   4 369434. 5594.87  28
  -4   0   4 378106. 5628.18  27
   4   0  -4 376844. 6419.09  22
  -4   0   4 374343. 6223.33  19
  -4   0   3 25457.5 553.537  27
  -4   0   3 25590.0 849.057   7
   4   0  -3 25773.7 952.854  22
  -4   0   3 26842.3 937.833  19
  -4   0   2 54927.5 982.788  27
  -4   0   2 53016.4 1363.66   7
   4   0  -2 55710.5 1481.52  22
  -4   0   1 11969.4 568.696   7
  -4   0   0 2643.88 133.639  27
  -4   0   0 2349.17 249.144   7
  -4   0   0 2658.71 275.227  19
  -4   0  -1 14307.2 355.741  27
  -4   0  -1 11911.7 615.145   7
   4   0   1 12517.4 570.260  22
  -4   0  -1 14041.8 654.457  19
  -4   0  -2 9199.84 269.174  27
  -4   0  -2 8505.43 291.222  13
  -4   0  -2 8747.39 295.182  11
   4   0   2 8469.87 494.924  20
  -4   0  -2 8841.90 512.503  19
  -4   0  -3 42096.5 865.678  13
  -4   0  -3 40228.9 819.796   2
  -4   0  -3 44262.8 875.170  11
   4   0   3 43591.4 1249.56  20
  -4   0  -3 42548.5 827.363   5
  -4   0  -3 43602.0 1253.63  19
  -4   0  -4 14103.5 431.106  14
  -4   0  -4 14322.5 434.628  13
  -4   0  -4 14436.6 414.508   2
   4   0   4 15207.7 666.767  20
  -4   0  -4 15171.3 409.998   5
  -4   0  -4 15268.0 667.949  19
  -4   0  -5 33752.6 786.226  14
  -4   0  -5 35222.8 785.271   2
  -4   0  -5 36444.4 804.289  11
  -4   0  -5 36329.2 761.321   5
  -4   0  -6 3813.37 214.035  14
  -4   0  -6 3875.22 221.492  13
  -4   0  -6 4118.58 223.091   2
  -4   0  -6 4232.03 229.761  11
  -4   0  -7 3217.86 184.292   1
  -4   0  -7 2899.57 185.174  14
  -4   0  -7 2986.25 192.287  13
  -4   0  -7 2985.46 195.048   2
  -4   0  -8 3635.96 208.820   9
  -4   0  -8 4021.83 199.170   1
  -4   0  -8 3726.08 207.193  13
  -4   0  -8 3883.64 220.422   2
  -4   0  -9 1168.60 106.604   9
  -4   0  -9 1041.66 99.2273  13
  -4   0  -9 1213.65 116.695   2
  -4   0  -9 1219.88 101.506  12
  -4   0  -9 1284.63 102.944   1
  -4   0 -10 13205.4 313.193   9
  -4   0 -10 12332.2 294.261   1
  -4   0 -10 12294.0 338.100   2
  -4   0 -11 6559.58 207.261   2
   4   1 -14 2114.59 86.3887  15
   4   1 -13 1.54696 13.6442  16
   4   1 -13 133.178 35.0577  35
  -4  -1  12 486.536 60.0198  29
   4   1 -12 606.589 79.6334  35
   4   1 -11 2170.61 156.530  35
  -4  -1  10 1828.57 123.578  28
   4   1 -10 1575.61 276.592  22
   4   1 -10 1680.48 145.051  35
  -4  -1   9 48929.7 936.814  28
   4   1  -9 45396.5 1625.96  22
  -4  -1   8 14218.8 391.230  28
   4   1  -8 12264.4 779.265  22
   4   1  -7 31988.2 1098.51  20
  -4  -1   7 30270.9 1023.37  19
  -4  -1   6 2188.48 137.265  23
   4   1  -6 2572.46 296.699  20
  -4  -1   6 2388.73 266.527  19
  -4  -1   5 4013.86 300.001   7
  -4  -1   5 4080.67 188.223  23
   4   1  -5 4086.63 394.079  22
   4   1  -5 4544.57 396.249  20
  -4  -1   4 7146.13 399.659   7
  -4  -1   4 7388.30 259.096  23
   4   1  -4 6989.61 493.209  20
  -4  -1   3 20327.5 710.102   7
   4   1  -3 20177.0 854.593  20
  -4  -1   2 105970. 2123.82   7
  -4  -1   1 44586.5 1197.04   7
   4   1  -1 50886.0 1420.78  20
  -4  -1   0 41478.1 1194.23   7
   4   1   0 46712.0 1343.94  20
  -4  -1  -1 48348.6 947.672  23
  -4  -1  -1 51766.6 964.658  13
  -4  -1  -1 50367.9 956.102  11
  -4  -1  -2 2377.05 142.486  23
  -4  -1  -2 2153.60 142.462  13
  -4  -1  -2 2211.41 143.368  11
   4   1   2 2096.15 257.549  20
  -4  -1  -3 1556.02 129.011  13
  -4  -1  -3 1713.82 132.054  11
  -4  -1  -3 1047.21 90.1902   5
   4   1   3 1402.43 215.351  20
  -4  -1  -3 1031.69 179.115  19
  -4  -1  -4 227.948 51.0489   2
  -4  -1  -4 272.964 58.1717  14
  -4  -1  -4 336.074 63.7548  13
  -4  -1  -4 249.289 56.0318  11
  -4  -1  -4 213.137 79.3417  19
  -4  -1  -5 26890.6 668.334  14
  -4  -1  -5 28130.8 668.325   2
  -4  -1  -5 28932.1 632.886   1
  -4  -1  -6 49522.2 1047.00  13
  -4  -1  -6 53053.4 983.163   1
  -4  -1  -6 50299.1 1028.62   2
  -4  -1  -6 51930.4 1061.93  11
  -4  -1  -7 14296.7 397.406   1
  -4  -1  -7 14308.3 429.558  14
  -4  -1  -7 13972.6 440.880  13
  -4  -1  -7 13891.6 442.552   2
  -4  -1  -7 14639.5 459.768  11
  -4  -1  -8 28633.3 652.525   9
  -4  -1  -8 27115.3 647.766  13
  -4  -1  -8 28254.1 674.446   2
  -4  -1  -8 28462.6 602.519   1
  -4  -1  -9 191.906 42.5192   9
  -4  -1  -9 198.150 37.5128   1
  -4  -1  -9 155.941 41.1306  13
  -4  -1  -9 153.724 46.9658   2
  -4  -1 -10 556.237 60.3085   2
  -4  -1 -10-4.09268 12.0306  13
   4   2 -14 11570.6 253.932  15
   4   2 -13 4100.56 178.246  35
   4   2 -12 26829.6 636.693  35
  -4  -2  11 7973.64 253.926  28
   4   2 -11 7828.29 315.989  35
   4   2 -10 8.20700 47.2427  35
  -4  -2  10 89.8979 36.4680  28
   4   2  -9 1281.17 123.938  33
  -4  -2   9 1937.56 132.339  28
   4   2  -9 1744.63 300.597  22
   4   2  -8 597.198 176.498  22
   4   2  -8 664.339 91.0288  33
   4   2  -7 32172.4 1256.42  22
   4   2  -7 34688.3 1222.48  20
  -4  -2   7 32784.6 1093.47  19
  -4  -2   6 25098.5 588.462  23
   4   2  -6 26019.0 671.645  33
  -4  -2   5 26782.4 603.759  23
   4   2  -5 26405.9 1075.53  20
  -4  -2   4 57347.7 1077.75  23
   4   2  -4 62729.8 1714.33  20
  -4  -2   3 344.570 56.5471  23
   4   2  -3 234.541 101.582  20
  -4  -2   2 3176.30 165.394  23
  -4  -2   2 2885.10 233.292   7
   4   2  -2 3388.24 351.318  20
  -4  -2   1 21.0453 19.4641  23
   4   2  -1 207.321 97.7338  20
  -4  -2   0 23771.7 557.517  23
  -4  -2   0 23072.0 550.312  13
  -4  -2   0 25510.7 557.197  11
   4   2   0 25221.4 989.473  20
  -4  -2  -1 32890.5 697.172  23
  -4  -2  -1 31474.4 702.109  13
  -4  -2  -1 32297.7 696.980  11
   4   2   1 34253.9 1174.83  20
  -4  -2  -2 17638.8 464.182  23
  -4  -2  -2 18037.3 495.775  13
  -4  -2  -2 19599.6 502.110  11
   4   2   2 19117.9 856.580  20
  -4  -2  -3 37142.3 773.150  23
  -4  -2  -3 38011.0 843.278  13
  -4  -2  -3 39873.4 843.601  11
  -4  -2  -3 37688.4 1189.29  19
  -4  -2  -4 470.679 76.3315  13
  -4  -2  -4 706.254 91.2577  11
  -4  -2  -4 486.102 71.4699   2
  -4  -2  -5 217.088 52.4844   2
  -4  -2  -5 99.4147 45.0989  14
  -4  -2  -5 98.5989 31.8672  36
  -4  -2  -5 135.446 59.4976  11
  -4  -2  -6 60.1438 39.2909   2
  -4  -2  -6 32.5230 34.9131  14
  -4  -2  -6 37.5139 40.7694  13
  -4  -2  -7 6057.75 247.641  14
  -4  -2  -7 6453.80 270.819  13
  -4  -2  -7 6350.68 262.552   2
  -4  -2  -7 6890.55 287.886  11
  -4  -2  -8 18567.8 436.230   9
  -4  -2  -8 17696.2 455.040  13
  -4  -2  -8 16909.0 451.418   2
  -4  -2  -9 4717.29 183.132   2
  -4  -2  -9 4666.15 175.065  13
  -4  -2 -10 11184.6 255.916   2
   4   3 -13 114.787 38.2478  35
   4   3 -12 11436.5 364.983  35
   4   3 -12 8703.75 293.591  30
  -4  -3  11 16401.3 409.233  28
  -4  -3  10 9080.43 300.462  28
   4   3 -10 7277.12 597.965  22
   4   3  -9 35882.8 1392.39  22
   4   3  -9 31878.3 780.341  33
   4   3  -8 1771.82 306.674  22
   4   3  -8 1470.03 119.945  21
   4   3  -8 1413.94 142.992  33
  -4  -3   7 10814.1 342.069  23
   4   3  -7 11929.7 760.503  22
   4   3  -7 11389.1 371.467  21
   4   3  -7 12664.3 757.187  20
  -4  -3   6 7649.56 281.190  23
   4   3  -6 7893.57 610.999  20
  -4  -3   5 15653.5 433.373  23
   4   3  -5 16210.6 880.705  20
  -4  -3   4 22213.7 542.129  23
   4   3  -4 22440.3 1030.70  20
  -4  -3   3 38229.4 793.368  23
   4   3  -2 85339.4 2250.14  20
  -4  -3   1 8954.00 304.308  23
   4   3  -1 8360.20 594.961  20
  -4  -3   0 14299.6 406.569  23
  -4  -3   0 13998.0 393.383  11
  -4  -3  -1 573.645 73.9040  23
  -4  -3  -1 648.579 80.6118  11
   4   3   1 667.140 178.296  20
  -4  -3  -2 2793.18 162.430  23
  -4  -3  -2 3646.85 203.282  13
   4   3   2 3067.26 178.735  21
  -4  -3  -2 3391.94 191.289  11
   4   3   2 3261.55 379.712  20
  -4  -3  -3 15758.3 422.948  23
  -4  -3  -3 16671.3 497.048  13
   4   3   3 17208.1 461.819  21
  -4  -3  -3 16496.6 485.682  11
   4   3   3 17511.7 876.726  20
  -4  -3  -4 19475.6 554.003  13
  -4  -3  -4 19961.8 554.882  11
  -4  -3  -5 99798.5 1727.50  14
  -4  -3  -5 103766. 1783.31  11
  -4  -3  -6 6151.30 248.211  14
  -4  -3  -6 6375.14 273.439  13
  -4  -3  -6 5734.51 235.223   2
  -4  -3  -6 6715.40 283.852  11
  -4  -3  -7 3596.06 166.246  14
  -4  -3  -7 3814.40 189.919  13
  -4  -3  -7 3610.20 170.656   2
  -4  -3  -8 260.799 42.6861   2
  -4  -3  -8 285.939 48.3340  13
  -4  -3  -9 148.089 24.9536   2
  -4  -3  -9 220.322 31.1688  13
   4   4 -13 154.478 34.5383  30
  -4  -4  12 16750.8 365.179  28
   4   4 -12 17466.7 470.734  35
  -4  -4  11 423.975 58.5551  28
   4   4 -11 450.245 81.9608  35
   4   4 -10 5647.70 220.269  10
   4   4 -10 5175.60 264.100  33
   4   4  -9 17581.4 990.439  22
   4   4  -9 17177.5 546.942  33
   4   4  -9 18822.0 465.974  10
  -4  -4   8 13817.9 390.733  23
   4   4  -8 13364.3 857.731  22
   4   4  -8 12933.8 406.598  21
  -4  -4   7 29295.8 662.386  23
   4   4  -7 27610.7 692.723  21
   4   4  -7 27332.8 1237.18  20
   4   4  -7 29163.7 806.600  33
  -4  -4   6 388.958 67.7388  23
   4   4  -6 313.198 72.6598  21
   4   4  -6 391.188 158.178  20
  -4  -4   5 18429.8 495.266  23
   4   4  -5 18006.0 527.225  21
   4   4  -5 19158.2 1021.66  20
  -4  -4   4 5524.10 242.849  23
   4   4  -4 5847.67 275.251  21
   4   4  -4 4917.90 507.459  20
  -4  -4   3 5398.36 239.335  23
   4   4  -2 33418.5 784.185  21
   4   4  -2 36629.4 1423.27  20
  -4  -4   1 193.410 53.0199  23
   4   4  -1 238.765 66.4665  21
   4   4  -1 144.354 108.918  20
  -4  -4   0 62250.3 1165.22  23
   4   4   0 63601.5 1210.64  21
  -4  -4   0 59724.1 1134.35  11
   4   4   0 62745.0 1930.96  20
  -4  -4  -1 127.436 43.4233  23
   4   4   1 31.5895 75.8357  20
   4   4   1 115.193 51.8667  21
  -4  -4  -1 153.876 46.5153  11
  -4  -4  -2 27680.7 646.667  23
   4   4   2 32264.7 721.049  21
  -4  -4  -2 29306.4 698.164  11
   4   4   2 30876.2 1276.69  20
  -4  -4  -3 2744.96 149.414  23
  -4  -4  -3 2906.94 192.293  13
   4   4   3 2959.78 174.693  21
  -4  -4  -3 3059.32 191.387  11
  -4  -4  -4 2921.67 187.669  13
  -4  -4  -4 2805.02 182.561  11
  -4  -4  -5 1284.26 109.554  14
  -4  -4  -5 1547.74 131.229  11
  -4  -4  -6 676.680 70.5606  14
  -4  -4  -6 590.662 76.4573  13
  -4  -4  -7 26110.8 569.720  13
  -4  -4  -7 28327.8 599.185  11
  -4  -4  -8 2496.69 108.270  13
   4   5 -13 6309.80 191.490  30
  -4  -5  12 22405.5 444.072  28
   4   5 -12 23752.0 548.918  35
  -4  -5  11 347.325 53.6010  28
   4   5 -11 427.318 75.3371  35
   4   5 -11 280.939 46.6526  10
   4   5 -10 13607.3 369.878  10
   4   5 -10 13528.6 452.951  33
   4   5  -9 2231.61 183.786  33
   4   5  -9 2548.03 148.303  10
  -4  -5   8 529.304 73.4616  23
   4   5  -8 441.720 81.4823  21
   4   5  -8 559.149 109.809  33
  -4  -5   7 15034.2 433.855  23
   4   5  -7 14157.0 467.904  21
   4   5  -7 15146.1 940.215  20
   4   5  -7 15522.3 575.727  33
   4   5  -6 8.52076 54.1309  21
   4   5  -6-18.8426 71.5224  20
  -4  -5   5 77757.3 1415.63  23
   4   5  -5 77735.8 1490.92  21
   4   5  -5 74368.0 2352.70  20
  -4  -5   4 4349.68 220.337  23
   4   5  -4 4476.44 515.521  20
  -4  -5   3 55630.3 1094.39  23
   4   5  -3 55806.0 1155.82  21
   4   5  -3 52178.7 1887.95  20
  -4  -5   2 11528.1 379.588  23
   4   5  -2 11540.5 416.894  21
  -4  -5   1 239.644 61.1459  23
   4   5  -1 351.857 78.9519  21
   4   5  -1 144.574 126.509  20
  -4  -5   0 4716.15 222.849  23
   4   5   0 4804.50 251.139  21
  -4  -5   0 4641.64 210.053  11
   4   5   0 4709.96 515.123  20
  -4  -5  -1 416.297 68.3010  23
   4   5   1 460.059 85.7830  21
  -4  -5  -1 467.920 72.9653  11
   4   5   1 460.873 166.531  20
   4   5   2 43387.5 900.154  21
  -4  -5  -2 41716.9 872.470  11
  -4  -5  -3 6884.63 290.414  13
  -4  -5  -3 6655.62 275.585  11
  -4  -5  -4 17426.8 486.329  13
  -4  -5  -4 17722.1 478.632  11
  -4  -5  -5 10670.2 305.608  14
  -4  -5  -5 11289.9 346.333  11
  -4  -5  -6-2.71378 11.2816  14
  -4  -5  -6 58.4222 29.1466  13
  -4  -5  -6 52.4232 29.2037  11
  -4  -5  -7 1210.48 74.1826  13
  -4  -6  12 1759.66 84.9431  28
   4   6 -12 1311.58 101.914  30
  -4  -6  11 111.487 32.8562  28
   4   6 -11 83.2784 40.7195  35
   4   6 -10 24186.8 595.957  35
   4   6 -10 22980.5 611.760  33
   4   6 -10 22683.3 498.062  10
   4   6  -9 4814.36 244.724  35
   4   6  -9 4722.56 262.176  33
   4   6  -9 4681.63 196.434  10
  -4  -6   8 31953.9 681.997  23
   4   6  -8 30847.0 737.424  21
   4   6  -8 29892.6 819.816  33
  -4  -6   7 12694.0 391.139  23
   4   6  -7 12547.9 440.526  21
   4   6  -7 11828.8 844.870  20
  -4  -6   6 727.502 90.2117  23
   4   6  -6 621.890 105.200  21
   4   6  -6 828.831 238.350  20
  -4  -6   5 6364.36 270.459  23
   4   6  -5 6395.38 309.638  21
   4   6  -5 5537.91 594.980  20
  -4  -6   4 152.495 53.9510  23
   4   6  -3 67755.7 1354.08  21
   4   6  -3 64170.5 2185.04  20
  -4  -6   2 10140.3 354.431  23
   4   6  -2 10176.2 397.015  21
   4   6  -2 10040.0 783.684  20
  -4  -6   1 23273.5 586.583  23
   4   6  -1 21896.9 1159.91  20
  -4  -6   0 29624.4 669.347  23
  -4  -6   0 27669.5 617.432  11
   4   6   0 29740.9 1320.50  20
  -4  -6  -1 1885.04 128.407  23
   4   6   1 1887.29 152.248  21
  -4  -6  -1 1850.97 126.793  11
  -4  -6  -2 1253.94 94.0696  23
  -4  -6  -2 1420.31 124.662  13
   4   6   2 1408.75 119.827  21
  -4  -6  -2 1338.33 108.499  11
  -4  -6  -3 499.285 73.2385  13
  -4  -6  -3 465.735 65.0182  11
  -4  -6  -4 20380.7 453.438  14
  -4  -6  -4 20388.6 492.752  13
  -4  -6  -4 20288.2 474.125  11
  -4  -6  -5 1.19073 9.26306  14
  -4  -6  -5 8171.38 214.139  11
  -4  -6  -6 5282.75 161.654  13
  -4  -7  12 5735.60 141.574  28
   4   7 -12 3872.19 155.742  30
  -4  -7  11 727.545 59.0308  28
   4   7 -10 121.014 37.6041  35
   4   7 -10 140.310 51.3859  33
   4   7 -10 126.423 28.7279  10
  -4  -7   9 114.341 32.4783  23
   4   7  -9 91.3032 36.1971  35
   4   7  -9 135.069 58.4011  33
   4   7  -9 66.7111 29.4384  10
  -4  -7   8 33810.0 684.962  23
   4   7  -8 36018.1 764.331  21
   4   7  -8 35924.9 850.856  33
  -4  -7   7 21090.7 522.320  23
   4   7  -7 22261.7 597.765  21
  -4  -7   6 12273.8 382.061  23
   4   7  -6 14078.6 458.481  21
  -4  -7   5 29101.7 669.817  23
   4   7  -5 28890.1 743.011  21
  -4  -7   4 7119.97 280.985  23
   4   7  -3 8238.96 351.104  21
  -4  -7   2 54.3560 36.6113  23
   4   7  -2 100.146 56.2161  21
  -4  -7   1 12670.8 377.906  23
   4   7  -1 12694.2 423.187  21
  -4  -7   0 17926.4 450.349  23
   4   7   0 17989.0 498.155  21
  -4  -7  -1 11723.5 314.224  23
  -4  -7  -1 12349.2 358.664  13
   4   7   1 11924.9 353.839  21
  -4  -7  -2 13663.6 365.011  13
  -4  -7  -2 11887.9 308.852  11
  -4  -7  -3 110.838 29.3299  14
  -4  -7  -3 152.161 38.4681  13
  -4  -7  -4 1546.76 89.6884  13
  -4  -8  11 9175.33 204.751  28
   4   8 -10 11011.6 321.243  33
   4   8  -9 244.759 57.6692  33
  -4  -8   8 3111.59 136.761  23
   4   8  -8 3315.53 164.983  21
   4   8  -8 3500.98 199.499  33
  -4  -8   7 49.4667 29.8812  23
   4   8  -7-3.03096 38.1513  21
  -4  -8   6 6684.54 239.842  23
   4   8  -6 6820.51 280.639  21
  -4  -8   5 19168.8 473.383  23
   4   8  -5 19204.3 531.416  21
  -4  -8   4 28493.7 620.294  23
   4   8  -4 27348.1 676.609  21
  -4  -8   3 44343.8 871.008  23
   4   8  -3 46211.6 951.417  21
  -4  -8   2 535.281 58.7698  13
   4   8  -2 510.959 79.0537  21
  -4  -8   1 3997.84 168.725  23
  -4  -8   1 3959.96 162.997  13
   4   8  -1 3890.45 189.929  21
  -4  -8   0 743.096 63.9223  23
  -4  -8   0 733.869 67.9873  13
   4   8   0 570.622 69.4298  21
  -4  -8  -1 6065.21 196.632  13
  -4  -8  -2 14044.8 300.765  14
  -4  -8  -2 14747.6 323.597  13
  -4  -8  -3 108.745 20.5074  13
  -4  -9   9 2356.31 82.2927  28
  -4  -9   8 24569.0 417.735  28
  -4  -9   8 21100.5 408.852  23
  -4  -9   7 1523.43 71.6257  28
  -4  -9   7 1702.69 87.9480  23
  -4  -9   6 2838.92 116.752  23
   4   9  -6 2972.29 159.272  33
  -4  -9   5 74.2812 26.8763  23
   4   9  -5-3.07598 35.0235  33
   4   9  -4 283.566 55.4405  21
   4   9  -4 524.078 79.5786  33
  -4  -9   3 3177.17 133.672  23
   4   9  -3 3077.90 153.006  21
  -4  -9   2 2311.59 104.843  23
  -4  -9   1 24958.8 448.536  23
   5 -11  -2 6864.64 186.775   4
   5 -11  -1 8892.90 201.966  23
   5 -11   0 10287.6 254.494  23
  -5  11  -1 2998.48 107.074  17
   5 -11   1 5092.27 167.699  23
  -5  11  -2 57.7365 22.0617  17
  -5  11  -3 399.655 48.9259  17
   5 -11   3 416.864 51.8033  23
  -5  11  -4 13717.1 334.171  17
   5 -11   4 14649.6 344.402  23
  -5  11  -5 13552.6 322.507  17
   5 -11   5 13537.8 318.439  23
  -5  11  -6 11213.8 270.750  17
   5 -11   6 10749.8 245.612  23
   5 -10  -4 2768.66 119.456   4
   5 -10  -2 1498.80 86.6633  23
   5 -10  -2 1391.41 87.5523  34
  -5  10   2 1415.40 99.5448  29
  -5  10   1 7282.23 259.552  29
  -5  10   0 8176.67 290.218  29
  -5  10   0 7947.83 247.940  17
  -5  10  -1 3351.29 164.918  17
  -5  10  -1 3243.24 180.565  29
  -5  10  -2 25469.8 583.746  17
  -5  10  -3 325.270 61.3863  17
  -5  10  -4 12036.1 367.431  17
  -5  10  -5 214.855 52.6081  17
  -5  10  -6 1580.44 95.5499  27
   5 -10   6 2035.62 116.633  23
  -5  10  -7 18757.6 430.805  17
  -5  10  -8 316.358 40.0792  17
   5  -9  -6 10661.1 262.185   4
   5  -9  -5 2538.76 128.241   4
  -5   9   5 2037.91 96.2372  29
  -5   9   4 13686.3 351.541  29
   5  -9  -4 13139.4 322.366  34
  -5   9   3 26951.1 601.744  29
   5  -9  -3 26824.9 554.553  34
  -5   9   2 85.0884 45.4698  29
  -5   9   2 54.7632 30.3445  17
  -5   9   1 12853.5 415.365  29
  -5   9   0 87.6312 53.7248  29
  -5   9  -1 692.566 78.4290   5
  -5   9  -2 24945.0 640.840  29
  -5   9  -2 22170.7 545.839   5
  -5   9  -3 1513.07 136.441  29
  -5   9  -3 1552.09 138.887  17
  -5   9  -3 1329.42 109.645   5
  -5   9  -4 39196.7 853.609  17
  -5   9  -4 38671.2 831.047  29
  -5   9  -5 981.523 89.5115   5
  -5   9  -6 18577.6 485.569  17
  -5   9  -6 14289.2 380.662   5
  -5   9  -7 5308.46 223.402  17
  -5   9  -8 94.8759 35.0474  17
  -5   9  -9 3317.57 114.172  17
   5  -8  -7 623.912 54.9048  16
   5  -8  -7 781.850 66.1275   4
   5  -8  -6 21626.4 452.728  16
   5  -8  -6 22022.2 490.695   4
  -5   8   5 167.433 45.5803  29
   5  -8  -5 90.3805 33.8910  16
   5  -8  -5 65.0991 25.3077  34
  -5   8   4 5834.80 250.032  29
   5  -8  -4 5162.62 203.739  16
   5  -8  -4 5802.16 217.666  34
  -5   8   3 3413.43 202.584  29
  -5   8   2 1519.04 140.922  29
  -5   8   1 59657.5 1196.08  29
  -5   8   1 55327.6 1717.21  26
   5  -8  -1 59014.7 1822.16  24
  -5   8   0 2023.77 310.284  26
   5  -8   0 2396.16 347.209  24
  -5   8   0 1908.30 300.198   7
  -5   8  -1 32276.6 791.041  29
  -5   8  -1 32377.7 1288.89  26
  -5   8  -2 11462.6 419.463  29
   5  -8   2 11764.3 793.364  24
  -5   8  -2 9903.52 680.132   7
  -5   8  -3 991.491 119.362  29
  -5   8  -3 713.196 185.172  26
   5  -8   3 652.506 191.405  24
  -5   8  -3 676.091 92.5893   5
  -5   8  -4 11256.5 388.700  29
  -5   8  -4 11029.4 692.291  26
   5  -8   4 10598.4 761.904  24
  -5   8  -4 10790.8 376.782   5
  -5   8  -5 4609.89 250.680  17
  -5   8  -5 4575.76 228.812   5
  -5   8  -6 31734.1 735.121  17
  -5   8  -6 28662.2 679.682   5
  -5   8  -7 2423.78 156.787  17
  -5   8  -7 2271.64 145.314   5
  -5   8  -8 23382.3 521.682  17
  -5   8  -9 1.31516 12.4308  17
  -5   8  -9 6077.01 182.584   1
  -5   8 -10 694.734 49.0393   1
   5  -7  -9 54.2862 18.0885  16
   5  -7  -8 3339.04 144.704  16
   5  -7  -8 3142.05 135.805   4
   5  -7  -7 2282.97 134.323  16
   5  -7  -7 2564.33 141.961   4
  -5   7   6 33208.6 710.951  29
   5  -7  -6 33782.3 720.530  16
  -5   7   5 4963.41 236.149  29
   5  -7  -5 5200.80 229.368  16
   5  -7  -5 4815.50 198.946  34
  -5   7   4 23476.3 609.157  29
   5  -7  -4 23134.1 560.589  16
   5  -7  -4 22791.6 539.665  34
  -5   7   3 9344.64 369.322  29
  -5   7   3 10279.1 376.012  28
   5  -7  -3 9556.49 321.282  16
  -5   7   3 9771.67 619.906  26
  -5   7   3 8841.89 649.418   7
   5  -7  -3 9690.63 647.303  24
  -5   7   2 2735.34 193.504  29
  -5   7   2 2439.56 183.977  28
  -5   7   2 2356.03 317.768  26
  -5   7   2 2092.25 324.325   7
  -5   7   1 3476.56 220.429  29
  -5   7   1 3037.06 211.104  28
  -5   7   1 2687.53 351.793  26
  -5   7   1 2448.97 353.366   7
  -5   7   0 1120.52 134.953  28
  -5   7   0 1229.42 242.998  26
  -5   7   0 1288.72 259.132   7
  -5   7  -1 55698.5 1159.05  29
  -5   7  -1 53092.5 1169.23  28
  -5   7  -1 54742.6 1743.99  26
  -5   7  -1 52856.8 1741.22   7
  -5   7  -2 19486.0 573.684  29
  -5   7  -2 19750.5 975.757  26
  -5   7  -2 19124.4 975.050   7
  -5   7  -3 14187.1 467.103   5
  -5   7  -3 15231.8 479.205  29
  -5   7  -3 15083.9 833.672  26
  -5   7  -3 14605.9 857.025   7
  -5   7  -4 60289.7 1161.94  29
  -5   7  -4 58687.9 1739.39  26
  -5   7  -4 55591.5 1161.82   5
  -5   7  -5 2030.49 279.565  26
   5  -7   5 2194.05 346.898  24
  -5   7  -5 2483.79 178.050  12
  -5   7  -5 2369.80 170.357   5
  -5   7  -5 2010.51 140.060   9
  -5   7  -5 2283.12 150.604  29
  -5   7  -6 22.2272 38.7626   5
  -5   7  -6 52.5451 46.3771  17
  -5   7  -6 53.7048 37.1519   9
  -5   7  -6 76.7948 32.2269  27
  -5   7  -7 345.323 68.1941  17
  -5   7  -7 389.220 72.8850   5
  -5   7  -7 326.982 65.3248   9
  -5   7  -8 21140.7 485.588  17
  -5   7  -8 20115.9 518.992   9
  -5   7  -9 6828.93 228.567   1
  -5   7  -9 6860.50 232.359   9
  -5   7 -10 7555.58 229.220   1
  -5   7 -11 8256.11 194.025   1
   5  -6 -10 4229.17 141.153  16
   5  -6  -9 17244.5 409.728  16
   5  -6  -8 13855.8 388.542  16
   5  -6  -8 14058.2 366.920   4
  -5   6   7 59.4420 38.1399  29
   5  -6  -7 35.3749 37.4276  16
   5  -6  -7 75.5243 38.2837  15
   5  -6  -7 104.169 43.7524   4
  -5   6   6 1872.44 142.738  29
  -5   6   6 1624.89 123.549  28
   5  -6  -6 1750.94 141.804  16
   5  -6  -6 2122.26 141.552  15
  -5   6   5 4252.44 229.370  29
  -5   6   5 4570.25 225.665  28
   5  -6  -5 4457.33 231.034  16
   5  -6  -5 4159.28 205.201  15
  -5   6   5 3632.27 414.436   7
   5  -6  -5 4761.76 493.041  22
  -5   6   4 20055.5 562.741  29
  -5   6   4 20035.7 552.263  28
  -5   6   4 19025.9 492.377  27
   5  -6  -4 19040.2 529.238  16
   5  -6  -4 19339.0 499.063  15
  -5   6   4 18434.0 843.987  26
  -5   6   4 18124.2 952.040   7
   5  -6  -4 19624.9 1022.45  22
   5  -6  -4 19658.4 490.951  34
  -5   6   3 3160.09 204.380  29
  -5   6   3 3444.99 213.858  28
   5  -6  -3 3152.60 184.154  16
  -5   6   3 3052.23 344.711  26
  -5   6   3 3041.37 388.667   7
   5  -6  -3 3110.29 397.235  22
  -5   6   2 20516.4 581.668  29
  -5   6   2 20638.2 589.263  28
  -5   6   2 20326.1 937.699  26
  -5   6   2 20402.2 1009.66   7
   5  -6  -2 19682.7 1011.37  22
  -5   6   1 45093.6 1007.61  28
  -5   6   1 44292.5 1490.94  26
  -5   6   1 45306.0 1586.78   7
  -5   6   0 62.7487 46.0507  29
  -5   6   0 112.226 89.0992  26
  -5   6   0 229.810 119.165   7
   5  -6   0 59.7880 67.1414  22
  -5   6  -1 1470.30 141.010  29
  -5   6  -1 1484.89 267.897   7
  -5   6  -1 1210.48 108.589  12
  -5   6  -2 1403.18 135.327  29
  -5   6  -2 1320.86 142.971  28
  -5   6  -2 1472.72 254.427  26
  -5   6  -2 1202.04 247.442   7
  -5   6  -2 1229.37 115.572  12
  -5   6  -3 46669.7 980.347  29
  -5   6  -3 46078.7 1510.39  26
  -5   6  -3 45270.6 1614.76   7
  -5   6  -3 46603.6 980.041  12
  -5   6  -4 4251.35 215.706  29
  -5   6  -4 4000.80 206.860   9
  -5   6  -4 4398.46 417.377  26
  -5   6  -4 5032.76 254.883  12
  -5   6  -4 4434.99 242.206   5
  -5   6  -5 63193.8 1246.78   9
  -5   6  -5 63425.8 1758.56  26
  -5   6  -5 68249.3 1322.90  12
  -5   6  -5 68046.3 1307.18   5
  -5   6  -5 64510.5 1183.62  29
  -5   6  -6 53689.4 1104.37   9
  -5   6  -6 54683.8 1092.33  17
  -5   6  -6 52587.3 1005.78  27
  -5   6  -6 55794.3 1125.33   5
  -5   6  -7 1077.60 103.710  17
  -5   6  -7 813.479 109.840  12
  -5   6  -7 1095.68 116.081   5
  -5   6  -8 6.32552 19.2712  17
  -5   6  -8-2.14309 17.8191  31
  -5   6  -9 43.1718 37.7420   9
  -5   6  -9 37.3800 35.5297   1
  -5   6 -10 6934.66 235.376   1
  -5   6 -10 6856.12 246.261   9
  -5   6 -11 21386.1 427.432   1
   5  -5 -11 1640.58 87.5229   3
   5  -5 -10 271.728 48.3575  16
   5  -5  -9 16018.3 426.337  16
   5  -5  -9 15506.4 395.605  15
   5  -5  -8 21964.9 509.659  16
   5  -5  -8 21913.3 471.188  15
  -5   5   7 14803.2 438.953  29
   5  -5  -7 14925.8 476.037  16
   5  -5  -7 16039.6 453.662  15
   5  -5  -7 15770.1 441.033   4
  -5   5   6 42192.6 931.477  29
  -5   5   6 45661.5 928.633  28
   5  -5  -6 47541.4 943.794  15
   5  -5  -6 44125.2 1609.13  22
  -5   5   5 117.127 52.5896  29
  -5   5   5 158.168 56.6709  28
   5  -5  -5 315.626 62.8838  15
   5  -5  -5 132.065 92.9759  22
  -5   5   4 5538.23 264.872  29
  -5   5   4 4814.34 249.347  28
  -5   5   4 5249.07 227.728  27
  -5   5   4 4982.22 425.547  26
   5  -5  -4 5234.68 231.908  15
   5  -5  -4 4718.83 485.173  22
  -5   5   3 3820.42 216.895  29
  -5   5   3 3729.27 218.735  28
  -5   5   3 3708.08 371.060  26
   5  -5  -3 3947.89 432.478  22
  -5   5   2 39720.4 890.591  28
  -5   5   2 39098.2 1319.89  26
  -5   5   2 41448.2 1451.86   7
   5  -5  -2 38631.4 1424.60  22
  -5   5   1 55445.7 1110.73  29
  -5   5   1 53202.7 1118.16  28
  -5   5   1 55745.3 1647.47  26
  -5   5   1 57457.9 1755.27   7
   5  -5  -1 57194.1 1742.96  22
  -5   5   1 54461.7 1123.12  18
  -5   5   0 18468.5 521.421  29
  -5   5   0 18279.2 873.667  26
  -5   5   0 17715.3 908.951   7
   5  -5   0 16781.0 871.816  22
  -5   5   0 18403.1 534.697  18
  -5   5  -1 66314.4 1319.37  28
  -5   5  -1 64191.2 1916.55   7
  -5   5  -1 64989.2 1224.97  12
  -5   5  -2 398.104 79.4651  28
  -5   5  -2 800.089 186.367  26
  -5   5  -2 564.405 169.308   7
  -5   5  -2 528.207 77.7164  12
  -5   5  -3 4461.94 217.930  29
  -5   5  -3 4033.99 203.123   9
  -5   5  -3 4411.86 245.580  28
  -5   5  -3 4480.03 411.574  26
  -5   5  -3 3926.33 437.438   7
  -5   5  -3 4244.54 226.971  12
  -5   5  -4 2054.75 135.659  29
  -5   5  -4 2109.59 153.496   9
  -5   5  -4 2240.76 146.434  27
  -5   5  -4 2125.29 280.865  26
  -5   5  -4 2422.77 175.731  12
  -5   5  -4 2314.93 171.120   5
  -5   5  -5 684.196 97.4547   9
  -5   5  -5 636.581 79.4503  27
  -5   5  -5 484.265 135.035  26
  -5   5  -5 619.843 94.1542   5
  -5   5  -6 10124.1 382.834   9
  -5   5  -6 9895.36 300.841  27
  -5   5  -6 10975.9 405.935  12
  -5   5  -6 10688.3 386.846   5
  -5   5  -7 12561.2 435.121   9
  -5   5  -7 11778.8 347.169  17
  -5   5  -7 12863.1 428.401   5
  -5   5  -7 12746.2 351.011  31
  -5   5  -8 46014.0 1000.33   9
  -5   5  -8 45010.7 994.699  12
  -5   5  -8 47826.0 878.780  31
  -5   5  -9 975.483 106.008  12
  -5   5  -9 1091.12 105.298   1
  -5   5  -9 727.513 94.6390   9
  -5   5 -10 5563.94 214.623   1
  -5   5 -10 5468.41 223.940   9
  -5   5 -11 939.538 69.9943   1
   5  -4 -11 10428.0 273.628  15
   5  -4 -10 30.4021 34.1542  16
   5  -4 -10 69.1406 34.3396  15
  -5   4   9 2625.35 148.868  29
   5  -4  -9 2896.40 182.094  16
   5  -4  -9 2696.17 162.685  15
  -5   4   8 279.836 61.6796  29
   5  -4  -8 309.411 66.9276  15
  -5   4   7 14317.5 434.106  29
  -5   4   7 14241.9 416.465  28
   5  -4  -7 14540.9 443.485  15
   5  -4  -7 13838.2 403.281   4
   5  -4  -7 13264.2 837.232  22
  -5   4   6 19952.7 551.795  29
  -5   4   6 20403.2 540.339  28
   5  -4  -6 21740.8 563.488  15
   5  -4  -6 21008.3 1074.16  22
  -5   4   5 17362.8 500.038  29
  -5   4   5 16366.4 482.463  28
  -5   4   5 17746.0 452.678  27
  -5   4   5 18149.7 796.820  26
   5  -4  -5 16411.6 931.105  22
  -5   4   4 45924.2 975.041  29
  -5   4   4 47270.8 982.199  28
  -5   4   4 48959.6 941.888  27
  -5   4   4 49002.0 1447.41  26
  -5   4   4 46979.3 1539.15   7
   5  -4  -4 45143.8 1601.84  22
  -5   4   4 47861.6 979.254  18
  -5   4   3 21.2548 38.4980  28
  -5   4   3 37.1149 34.9425  27
  -5   4   3 11.2982 57.5242  26
  -5   4   3 26.8184 60.2101   7
   5  -4  -3 71.5307 76.7773  22
  -5   4   3 55.9159 39.7886  18
  -5   4   2 25307.0 620.020  29
  -5   4   2 24286.1 613.978  28
  -5   4   2 24941.6 983.041  26
  -5   4   2 25012.1 1054.10   7
   5  -4  -2 24292.1 1049.64  22
  -5   4   2 24314.4 617.336  18
  -5   4   1 6860.14 279.618  29
  -5   4   1 7024.01 502.110  26
  -5   4   1 6559.24 520.447   7
   5  -4  -1 7114.71 535.479  22
  -5   4   1 7306.30 297.850  18
  -5   4   0 8157.76 302.407  29
  -5   4   0 7720.35 310.753  28
  -5   4   0 7876.05 536.398  26
   5  -4   0 8268.01 569.088  22
  -5   4   0 7902.54 314.578  18
  -5   4  -1 31258.1 692.999  29
  -5   4  -1 31006.5 731.081  28
  -5   4  -1 31243.5 1130.21  26
  -5   4  -1 29486.7 671.639  12
  -5   4  -1 31322.5 732.047  18
  -5   4  -2 358.701 62.1544  29
  -5   4  -2 322.357 67.9254  28
  -5   4  -2 809.041 173.087  26
  -5   4  -2 847.394 95.5118  12
  -5   4  -2 445.274 77.6529  18
  -5   4  -3 100966. 1781.20  28
  -5   4  -3 100684. 1724.04  27
  -5   4  -3 99111.2 2327.70  26
  -5   4  -3 99695.1 1783.48  12
  -5   4  -3 104516. 1796.43  18
  -5   4  -4 2731.31 170.965  28
  -5   4  -4 2545.16 172.852   9
  -5   4  -4 2596.00 153.504  27
  -5   4  -4 2461.70 289.952  26
  -5   4  -4 2641.65 182.937  12
  -5   4  -4 2754.97 180.612  18
  -5   4  -5 24735.3 661.039   9
  -5   4  -5 26347.8 577.623  27
  -5   4  -5 25642.4 943.457  26
  -5   4  -5 25914.2 679.298  12
  -5   4  -6 7685.50 335.845   9
  -5   4  -6 7739.56 268.143  17
  -5   4  -6 8047.91 343.498  12
  -5   4  -7 99.5393 56.9088   9
  -5   4  -8 13900.7 460.409   9
  -5   4  -8 13571.8 448.902  12
  -5   4  -9 95.2594 49.0193   9
  -5   4  -9 49.3299 39.8687  12
  -5   4 -10 24057.7 534.314  12
  -5   4 -11 2851.73 127.392   9
   5  -3 -12 1182.66 75.6076  16
   5  -3 -12 1137.07 77.6387   3
   5  -3 -11 10724.4 321.079  16
   5  -3 -11 10514.5 304.399  15
  -5   3  10 1424.78 104.843  29
   5  -3 -10 1729.02 127.956  15
  -5   3   9 45892.2 917.448  29
   5  -3  -9 46247.9 952.549  15
  -5   3   8 844.771 98.5918  29
  -5   3   8 919.606 95.5443  28
   5  -3  -8 901.116 217.123  22
  -5   3   7 21666.3 575.973  29
  -5   3   7 23694.4 572.949  28
  -5   3   6 147.246 52.5857  29
  -5   3   6 82.9902 33.1215  27
   5  -3  -6 248.969 125.987  22
  -5   3   5 1374.17 122.251  29
  -5   3   5 1149.66 112.638  28
  -5   3   5 1358.90 109.984  27
  -5   3   5 1064.82 192.501  26
   5  -3  -5 1561.46 279.196  22
  -5   3   5 1260.38 116.262  18
  -5   3   4 8027.44 303.337  28
  -5   3   4 10167.8 314.217  27
  -5   3   4 10326.8 587.897  26
  -5   3   4 6482.98 504.121   7
   5  -3  -4 5860.84 532.466  22
  -5   3   4 7046.02 286.939  18
  -5   3   3 1397.07 117.204  29
  -5   3   3 1279.44 113.210  28
  -5   3   3 1198.07 104.326  27
  -5   3   3 1236.00 208.803  26
  -5   3   3 1611.08 248.535   7
   5  -3  -3 1236.42 234.371  22
  -5   3   3 1342.50 117.526  18
  -5   3   2 118421. 1978.95  29
  -5   3   2 116906. 1957.22  27
  -5   3   2 120545. 2586.07  26
  -5   3   2 117002. 2681.43   7
  -5   3   2 114955. 1994.11  18
  -5   3   1 15611.7 424.759  29
  -5   3   1 14857.0 430.070  28
  -5   3   1 14420.5 407.299  27
  -5   3   1 14896.2 726.360  26
  -5   3   1 16390.7 804.375   7
   5  -3  -1 15182.4 778.227  22
  -5   3   1 15210.9 443.386  18
  -5   3   0 43300.9 858.257  29
  -5   3   0 42631.0 884.927  28
  -5   3   0 43406.4 1414.15   7
   5  -3   0 43593.0 1379.23  22
  -5   3  -1 292.007 53.2608  29
  -5   3  -1 323.907 62.6353  28
  -5   3  -1 237.664 53.2608  27
  -5   3  -1 407.324 127.420  26
  -5   3  -1 336.666 135.541   7
  -5   3  -1 544.417 82.3810  18
  -5   3  -2 223.955 55.6901  28
  -5   3  -2 183.690 47.0647  27
  -5   3  -2 126.169 83.7422  26
  -5   3  -2 135.688 89.2310   7
  -5   3  -2 214.198 52.9607  13
  -5   3  -2 260.144 61.5448  18
  -5   3  -3 11919.0 367.980  28
  -5   3  -3 11682.5 347.593  27
  -5   3  -3 11686.6 622.679  26
  -5   3  -3 11425.2 386.490  13
  -5   3  -3 12230.5 392.941  18
  -5   3  -3 12099.5 391.998   5
  -5   3  -4 1328.78 103.785  27
  -5   3  -4 1184.37 193.260  26
  -5   3  -4 1477.63 131.488  13
  -5   3  -4 1098.12 111.673   5
  -5   3  -4 1133.45 112.606  18
  -5   3  -5 45705.0 867.039  27
  -5   3  -5 46773.0 972.170   5
  -5   3  -5 46407.5 929.835  18
  -5   3  -6 6844.51 314.305   9
  -5   3  -6 6070.86 288.619  13
  -5   3  -6 6873.44 292.711   5
  -5   3  -7 10004.6 389.188   9
  -5   3  -7 9839.38 373.487  13
  -5   3  -7 10047.8 383.606  12
  -5   3  -7 10164.0 361.563   5
  -5   3  -8 5115.59 260.115   9
  -5   3  -8 5515.71 264.163  12
  -5   3  -9 294.318 62.5921  12
  -5   3  -9 322.661 58.4058   1
  -5   3 -10 1719.92 119.426   9
  -5   3 -10 1812.11 111.654   1
  -5   3 -10 1681.58 106.525  12
  -5   3 -11 62.5389 23.4363   9
  -5   3 -11 74.2848 21.6463   1
   5  -2 -13 833.352 50.7928  15
   5  -2 -12 13412.5 337.169   3
   5  -2 -12 14187.0 345.988  16
  -5   2  11 436.942 54.8308  29
   5  -2 -11 717.577 79.1254  15
  -5   2  10 40.0257 37.8919  29
  -5   2   9 6795.80 268.948  29
  -5   2   9 6137.44 238.699  28
  -5   2   8 6651.99 272.462  29
   5  -2  -8 6204.64 241.082  35
  -5   2   7 55071.7 1059.35  29
  -5   2   7 50599.7 1019.92  28
  -5   2   6 24243.7 597.558  29
  -5   2   6 23519.0 580.070  28
  -5   2   6 23407.4 548.575  27
   5  -2  -6 22758.4 1115.34  22
   5  -2  -6 25626.7 974.889  20
  -5   2   5 77217.1 1402.27  28
  -5   2   5 80526.3 1388.93  27
  -5   2   5 78354.8 1406.38  18
  -5   2   4 10666.3 346.429  28
  -5   2   4 11289.7 342.391  27
  -5   2   4 11213.6 617.859  26
  -5   2   4 11119.2 636.364   7
   5  -2  -4 10335.0 691.867  22
  -5   2   4 10843.8 351.454  18
  -5   2   3 12228.0 364.634  29
  -5   2   3 12133.5 364.453  28
  -5   2   3 11536.7 349.917  27
  -5   2   3 12047.8 632.468  26
   5  -2  -3 12891.1 745.797  22
  -5   2   2 7065.62 258.819  29
  -5   2   2 7205.55 265.249  28
  -5   2   2 6656.70 251.184  27
  -5   2   2 6919.42 469.445  26
  -5   2   2 6520.96 484.691   7
   5  -2  -2 6638.59 505.187  22
  -5   2   2 6605.90 500.358  19
  -5   2   1 287.169 52.3650  29
  -5   2   1 281.924 53.9478  28
  -5   2   1 241.585 47.3271  27
  -5   2   1 224.619 90.1207  26
  -5   2   1 340.298 116.186   7
   5  -2  -1 390.709 124.935  22
  -5   2   1 312.229 113.539  19
  -5   2   0 55056.3 1001.56  29
  -5   2   0 57122.4 1044.22  28
  -5   2   0 52908.9 1007.85  14
  -5   2   0 54227.8 1027.10  13
  -5   2   0 54238.4 1596.39   7
   5  -2   0 54677.1 1557.13  22
  -5   2  -1 31655.1 673.590  28
  -5   2  -1 31638.5 662.035  27
  -5   2  -1 30114.4 1047.77  26
  -5   2  -1 29880.6 668.727  14
  -5   2  -1 30843.0 680.445  13
  -5   2  -1 28228.4 1117.84   7
  -5   2  -1 29667.9 1132.62  19
  -5   2  -2 12639.3 363.703  28
  -5   2  -2 12748.7 359.000  27
  -5   2  -2 12200.1 625.114  26
  -5   2  -2 12597.2 388.535  14
  -5   2  -2 12730.2 391.000  13
  -5   2  -2 11681.9 704.539   7
  -5   2  -2 12810.6 391.927  18
  -5   2  -3 43648.7 849.852  27
  -5   2  -3 43420.4 919.301  14
  -5   2  -3 44109.3 923.961  13
  -5   2  -3 43830.0 904.633   5
  -5   2  -3 45343.4 908.808  18
  -5   2  -4 3582.92 170.077  27
  -5   2  -4 3880.13 216.823  14
  -5   2  -4 4096.76 219.745  13
  -5   2  -4 3984.89 207.110   5
  -5   2  -4 3596.75 191.727  18
  -5   2  -5 536.222 79.4999   5
  -5   2  -6 73.5790 44.1178   5
  -5   2  -6 117.653 50.3224   2
  -5   2  -7 42994.4 932.208   2
  -5   2  -7 44701.1 956.520  13
  -5   2  -8 16889.1 484.631  13
  -5   2  -8 17383.9 472.181   1
  -5   2  -8 17125.3 489.602  12
  -5   2  -9 6756.75 267.887   9
  -5   2  -9 6501.28 239.958   1
  -5   2  -9 6364.57 246.763  12
  -5   2 -10 9735.88 286.701   9
  -5   2 -10 9401.93 256.819  12
  -5   2 -10 9746.56 266.674   1
  -5   2 -11 1686.42 73.9200   1
  -5   2 -11 1657.45 76.9835   9
   5  -1 -13 101.441 21.4888  16
   5  -1 -13 103.284 24.5505  15
   5  -1 -12 7.49121 17.4239   3
   5  -1 -12 12812.1 292.719  16
  -5   1  11 6294.15 224.973  29
  -5   1  10 15687.5 429.999  29
   5  -1 -10 14911.2 408.402  35
  -5   1   9 13757.5 412.012  29
  -5   1   9 13634.9 390.113  28
   5  -1  -9 14233.5 410.748  35
  -5   1   8 9307.38 314.092  28
   5  -1  -8 5871.90 567.216  22
  -5   1   7 778.377 89.0398  28
  -5   1   6 3507.68 185.280  28
   5  -1  -6 3041.25 392.151  22
   5  -1  -6 3268.19 352.459  20
  -5   1   6 3448.71 181.574  18
  -5   1   5 28685.4 635.695  28
  -5   1   5 28405.4 634.757  27
  -5   1   5 24277.5 977.465   7
   5  -1  -5 24747.9 1135.97  22
   5  -1  -5 27068.1 1061.41  20
  -5   1   5 28762.4 1075.04  19
  -5   1   4 4521.99 203.416  28
  -5   1   4 4464.71 204.664  27
  -5   1   4 4013.18 370.299   7
   5  -1  -4 4227.24 433.206  22
  -5   1   4 3758.56 367.512  19
  -5   1   3 16842.1 442.938  27
  -5   1   3 17425.3 793.232   7
   5  -1  -3 17349.6 859.046  22
  -5   1   3 17265.7 803.297  19
  -5   1   2 35122.7 723.503  28
  -5   1   2 35346.9 730.542  27
  -5   1   2 35258.6 1194.40   7
   5  -1  -2 33153.8 1199.48  22
  -5   1   2 34770.7 1197.40  19
  -5   1   1 301.305 49.0044  29
  -5   1   1 288.070 51.7040  28
  -5   1   1 213.562 45.5808  27
  -5   1   1 352.753 53.7479  14
  -5   1   1 278.665 103.685   7
   5  -1  -1 230.384 93.1733  22
  -5   1   1 181.498 90.3808  19
  -5   1   0 6308.42 235.249  28
  -5   1   0 6475.56 242.951  27
  -5   1   0 6190.04 237.547  14
  -5   1   0 6084.48 233.695  13
  -5   1   0 5752.09 455.369   7
   5  -1   0 5514.02 432.700  22
  -5   1   0 5638.62 451.185  19
  -5   1  -1 50.3958 27.0298  28
  -5   1  -1 69.0370 32.7733  27
  -5   1  -1 173.758 44.7839  14
  -5   1  -1 24.3193 41.2814   7
  -5   1  -1 62.5763 31.6663  13
  -5   1  -1-11.4806 58.4574  19
  -5   1  -2 61827.3 1147.53  27
  -5   1  -2 63391.3 1205.18  14
  -5   1  -2 66437.9 1203.71  13
  -5   1  -2 63663.3 1756.16  19
  -5   1  -2 66922.5 1196.36   5
  -5   1  -3 31708.9 667.758  27
  -5   1  -3 31446.5 733.725  14
  -5   1  -3 32066.1 734.191  13
   5  -1   3 34650.8 1187.96  20
  -5   1  -3 32727.7 1166.50  19
  -5   1  -3 33372.2 718.544   5
  -5   1  -4 25141.0 601.219   2
  -5   1  -4 25055.1 638.704  14
  -5   1  -4 25368.0 636.298  13
   5  -1   4 23929.4 914.347  20
  -5   1  -4 25337.9 606.104   5
  -5   1  -4 25043.9 582.638  18
  -5   1  -5 40705.7 873.140   2
  -5   1  -5 40296.2 905.195  13
  -5   1  -6 2447.28 165.985   2
  -5   1  -6 2465.19 176.787  14
  -5   1  -7 4981.10 238.873   2
  -5   1  -7 5270.73 254.257  13
  -5   1  -7 5337.86 234.189   1
  -5   1  -8 126.128 61.7309   9
  -5   1  -8 298.647 71.8697   2
  -5   1  -8 388.058 80.1537  13
  -5   1  -8 140.981 57.7118  12
  -5   1  -8 44.8375 31.7006   1
  -5   1  -9 2583.85 148.152   9
  -5   1  -9 2342.94 131.415  12
  -5   1  -9 2602.30 130.260   1
  -5   1 -10 7298.01 214.550   9
  -5   1 -10 6636.16 185.174   1
   5   0 -13 40.3034 18.8774  16
   5   0 -13 25.0396 19.5224  15
  -5   0  12 180.471 35.7254  29
  -5   0  11 80.4851 37.7252  29
   5   0 -11 75.7210 34.3418  35
  -5   0  10 14541.8 396.078  28
   5   0 -10 16872.0 455.796  35
  -5   0   9 13923.2 391.949  28
   5   0  -9 10049.2 733.045  22
  -5   0   8 29741.8 662.075  28
   5   0  -8 28233.1 1258.97  22
  -5   0   7 52109.9 999.405  28
  -5   0   7 48542.9 1436.33   7
   5   0  -7 52157.3 1536.16  20
  -5   0   6 3151.66 173.046  28
  -5   0   6 2734.12 298.147   7
   5   0  -6 2988.26 376.977  22
   5   0  -6 3259.68 360.636  20
  -5   0   6 2503.14 299.597  19
  -5   0   5 6592.84 252.332  28
  -5   0   5 5760.09 431.449   7
   5   0  -5 5927.76 523.970  22
   5   0  -5 6328.34 511.307  20
  -5   0   5 5905.97 459.391  19
  -5   0   4 5702.97 424.681   7
   5   0  -4 5591.23 497.266  22
   5   0  -4 6839.94 520.308  20
  -5   0   4 6736.31 487.966  19
  -5   0   3 15861.1 422.975  28
  -5   0   3 16632.8 445.427  27
  -5   0   3 16814.8 748.834   7
   5   0  -3 15780.0 833.120  22
  -5   0   3 16363.1 784.605  19
  -5   0   2 34052.3 698.921  28
  -5   0   2 34424.9 724.589  27
  -5   0   2 33621.6 1113.68   7
   5   0  -2 33209.8 1203.92  22
  -5   0   2 33988.5 1194.64  19
  -5   0   1 25504.7 560.090  28
  -5   0   1 23217.3 915.374   7
  -5   0   1 25656.0 556.688  13
   5   0  -1 24948.2 988.253  22
  -5   0   0 82618.3 1402.67  28
  -5   0   0 80578.9 1435.20  27
  -5   0   0 85405.2 1430.57  13
  -5   0   0 78741.6 1997.08   7
   5   0   0 79719.9 2017.19  22
  -5   0   0 80887.0 2052.84  19
  -5   0  -1 1715.86 127.956  14
  -5   0  -1 1778.17 129.320  13
  -5   0  -1 1946.81 261.259  19
  -5   0  -1 1565.85 112.937   5
  -5   0  -2 13399.3 413.238  14
  -5   0  -2 13501.6 410.793  13
   5   0   2 14062.6 751.570  20
  -5   0  -2 14109.0 386.590   5
  -5   0  -2 13782.2 713.624  19
  -5   0  -3 84.6864 35.3538   5
  -5   0  -3 267.272 58.0360  14
  -5   0  -3 172.816 52.4951  13
   5   0   3 70.7746 69.3690  20
  -5   0  -3 77.3279 62.2041  19
  -5   0  -4 23789.5 572.659   2
  -5   0  -4 25249.4 636.745  13
  -5   0  -4 25436.0 586.803   5
  -5   0  -5 6237.84 258.771   2
  -5   0  -5 6799.21 293.555  14
  -5   0  -5 6839.09 296.349  13
  -5   0  -6 5547.95 243.078   2
  -5   0  -6 5702.49 264.193  14
  -5   0  -6 5802.83 236.615   1
  -5   0  -7 34897.0 701.453   1
  -5   0  -7 34691.3 767.873  13
  -5   0  -8 113.177 44.0229   9
  -5   0  -8 94.3191 39.6848  13
  -5   0  -8 95.3391 37.1223  12
  -5   0  -8 40.6854 32.5998   2
  -5   0  -8 74.7673 28.3554   1
  -5   0  -9 9479.05 238.953   9
  -5   0  -9 9229.03 231.880  13
  -5   0  -9 9537.66 218.549  12
   5   1 -13 3293.12 137.518  15
  -5  -1  12 28180.4 564.321  29
   5   1 -12 28877.2 604.012  35
  -5  -1  11 27.4112 26.9982  28
   5   1 -11 38.9721 35.6159  35
  -5  -1  10 7690.23 267.716  28
   5   1 -10 8622.91 326.028  35
  -5  -1   9 303.538 60.1062  28
   5   1  -9 211.662 129.667  22
  -5  -1   8 6540.44 257.562  28
   5   1  -8 5410.84 529.171  22
  -5  -1   7 13264.3 393.834  28
   5   1  -7 14282.0 786.015  20
  -5  -1   7 14423.1 709.363  19
  -5  -1   6 12712.8 372.575  28
   5   1  -6 10129.3 709.277  22
   5   1  -6 11723.3 719.268  20
  -5  -1   6 11202.9 642.267  19
   5   1  -5 37366.3 1425.05  22
   5   1  -5 40418.5 1415.75  20
  -5  -1   5 38463.6 1281.23  19
  -5  -1   4 410.112 59.2519  28
  -5  -1   4 321.464 62.6602  23
   5   1  -4 483.613 153.402  22
   5   1  -4 421.808 149.106  20
  -5  -1   4 264.998 106.348  19
  -5  -1   3 41920.0 806.573  28
  -5  -1   3 41477.9 867.773  23
  -5  -1   3 36544.6 1121.80   7
   5   1  -3 40780.0 1426.01  22
   5   1  -3 45628.9 1498.19  20
  -5  -1   3 35037.7 1274.97  19
  -5  -1   2 1064.47 90.3371  28
  -5  -1   2 543.649 75.3954  23
  -5  -1   2 543.200 125.416   7
   5   1  -2 559.962 156.061  22
   5   1  -2 618.734 175.650  20
  -5  -1   2 651.869 163.327  19
  -5  -1   1 6768.45 234.592  28
  -5  -1   1 6696.59 274.529  23
  -5  -1   1 6796.01 244.186  13
  -5  -1   1 6238.55 426.350   7
   5   1  -1 6402.39 490.950  22
   5   1  -1 7010.47 552.087  20
  -5  -1   0 15040.8 376.381  28
  -5  -1   0 15140.6 444.062  23
  -5  -1   0 15770.9 426.413  13
   5   1   0 15449.2 781.000  22
   5   1   0 16649.0 848.428  20
  -5  -1   0 15145.1 775.380  19
  -5  -1  -1 19756.1 523.278  23
  -5  -1  -1 19999.2 518.215  13
   5   1   1 20423.4 944.731  20
  -5  -1  -1 20252.4 896.956  19
  -5  -1  -2 93359.3 1661.24  13
   5   1   2 99086.3 2366.84  20
  -5  -1  -2 92831.7 2230.64  19
  -5  -1  -3 11566.3 391.246  14
  -5  -1  -3 12155.3 400.633  13
   5   1   3 11786.5 676.159  20
  -5  -1  -3 10634.2 603.335  19
  -5  -1  -4 66517.4 1284.59  13
  -5  -1  -5 8321.37 288.835   2
  -5  -1  -5 8850.66 329.245  14
  -5  -1  -5 9152.61 344.713  13
  -5  -1  -5 8710.24 271.934   1
  -5  -1  -6 1066.35 83.0455   1
  -5  -1  -6 1062.14 95.6409   2
  -5  -1  -6 1062.43 106.022  14
  -5  -1  -7 8400.05 274.898   2
  -5  -1  -7 9131.72 315.799  13
  -5  -1  -8 1105.91 89.2774   9
  -5  -1  -8 1043.70 89.2526  13
  -5  -1  -8 1173.91 87.0194  12
  -5  -1  -9 4923.81 171.935   9
  -5  -1  -9 18486.5 299.751  13
  -5  -2  13 2131.34 80.8171  29
   5   2 -12 5983.56 228.646  35
  -5  -2  11 10521.7 296.631  28
   5   2 -11 11074.7 361.601  35
   5   2 -10 44884.6 959.348  35
  -5  -2  10 44580.1 868.038  28
  -5  -2   9 252.972 55.9827  28
   5   2  -9 640.639 187.051  22
  -5  -2   8 24088.5 566.343  28
   5   2  -8 24154.8 569.629  21
  -5  -2   7 13284.5 382.305  28
   5   2  -7 13312.0 803.754  20
   5   2  -7 10913.8 384.047  33
  -5  -2   7 10665.7 624.439  19
  -5  -2   6 13449.3 390.721  28
  -5  -2   6 12941.2 402.331  23
   5   2  -6 12302.1 798.862  22
   5   2  -6 13817.1 830.595  20
   5   2  -6 12748.0 446.507  33
  -5  -2   6 13903.1 736.304  19
  -5  -2   5 57121.5 1050.88  28
  -5  -2   5 52976.3 1080.01  23
   5   2  -5 54618.5 1789.02  22
   5   2  -5 58316.6 1814.18  20
  -5  -2   4 52.7676 33.8088  28
  -5  -2   4 40.2998 35.5962  23
   5   2  -4-15.1979 57.6750  20
  -5  -2   3 44139.0 859.673  28
  -5  -2   3 44906.6 929.572  23
  -5  -2   2 14949.0 388.873  28
   5   2  -2 14966.7 848.143  20
  -5  -2   1 37143.1 730.551  28
  -5  -2   1 38890.6 827.546  23
  -5  -2   1 37580.9 770.724  13
   5   2  -1 38576.8 1411.13  20
  -5  -2   0 20187.7 537.162  23
  -5  -2   0 20041.8 514.286  13
   5   2   0 19726.1 964.360  20
  -5  -2  -1 42.8939 36.2997  23
  -5  -2  -1 49.3691 37.0605  13
   5   2   1 186.072 105.884  20
  -5  -2  -1 137.786 85.0347  19
  -5  -2  -2 9758.50 351.659  13
   5   2   2 10079.0 672.383  20
  -5  -2  -2 9226.40 582.155  19
   5   2   3 184.253 52.0207  21
  -5  -2  -3 100.753 64.0545  19
  -5  -2  -4 23185.3 597.860  14
  -5  -2  -4 24406.4 620.814  13
  -5  -2  -5 444.284 73.3398  14
  -5  -2  -5 345.883 68.8646  13
  -5  -2  -6 16018.7 430.805  14
  -5  -2  -7 13241.8 353.167   9
  -5  -2  -7 13492.1 370.881  13
  -5  -2  -8-1.33207 13.7508   9
  -5  -2  -8 32.7752 22.6761  13
  -5  -2  -8-2.45868 11.0396  12
  -5  -3  13 4123.29 121.519  29
  -5  -3  12 162.547 28.5919  28
   5   3 -12 195.596 46.6944  35
  -5  -3  11 1432.89 97.1106  28
  -5  -3  10 4472.01 193.808  28
  -5  -3   9 1932.71 130.292  28
   5   3  -9 1622.12 133.812  33
   5   3  -8 52997.2 1059.62  21
   5   3  -8 50502.4 1091.02  33
  -5  -3   7 7968.10 297.759  23
   5   3  -7 8148.27 323.522  21
   5   3  -7 8193.13 658.134  20
   5   3  -7 7004.26 330.059  33
  -5  -3   7 8600.90 568.084  19
  -5  -3   6 59203.1 1143.47  23
   5   3  -6 54679.9 1850.90  22
   5   3  -6 59548.1 1189.48  21
   5   3  -6 57915.5 1918.96  20
  -5  -3   5 24726.5 618.995  23
   5   3  -5 25829.4 1223.18  20
  -5  -3   4 1838.13 144.007  23
   5   3  -4 2080.93 337.901  20
  -5  -3   3 7794.56 268.168  28
  -5  -3   3 8274.59 317.952  23
  -5  -3   2 586.369 68.1595  28
   5   3  -2 686.444 201.955  20
  -5  -3   1 74581.4 1282.39  28
  -5  -3   1 78445.7 1420.14  23
  -5  -3   1 76624.6 1360.43  13
   5   3  -1 77544.5 2267.44  20
  -5  -3   0 15936.5 462.340  23
  -5  -3   0 14689.3 434.908  13
   5   3   0 16499.7 928.968  20
  -5  -3  -1 31507.7 721.685  23
  -5  -3  -1 31653.7 728.502  13
   5   3   1 32132.5 746.906  21
   5   3   1 33220.4 1337.41  20
  -5  -3  -2 30812.9 695.031  23
  -5  -3  -2 31984.7 740.736  13
   5   3   2 32489.8 731.161  21
  -5  -3  -2 32796.6 737.800  11
   5   3   2 32069.2 1279.87  20
  -5  -3  -2 30784.0 1109.15  19
  -5  -3  -3 1755.76 143.611  13
   5   3   3 1478.36 115.794  21
  -5  -3  -3 1830.85 142.008  11
  -5  -3  -4 662.685 83.4494  14
  -5  -3  -4 638.331 87.2022  13
  -5  -3  -5 2382.83 145.576  14
  -5  -3  -5 2595.36 160.259  13
  -5  -3  -6 12361.6 332.473  14
  -5  -3  -7 1.29830 11.6642   9
  -5  -3  -7 3142.63 132.509  13
  -5  -3  -8 4881.88 142.304  13
  -5  -4  13 12302.6 245.386  29
  -5  -4  12 4797.30 149.728  28
   5   4 -12 6012.23 217.845  35
  -5  -4  11 10935.5 293.484  28
   5   4 -11 11061.7 354.770  35
  -5  -4  10 13028.1 352.288  28
   5   4 -10 12849.4 422.600  35
  -5  -4   9 115.316 41.9901  28
   5   4  -9 199.752 58.5088  33
   5   4  -8 385.813 75.5356  21
   5   4  -8 412.560 84.3680  33
  -5  -4   7 149.267 48.2220  23
   5   4  -7 23.5390 45.6601  21
   5   4  -7 52.6298 78.7790  20
   5   4  -7 112.271 69.2946  33
  -5  -4   6 28900.1 684.509  23
   5   4  -6 29259.6 730.936  21
   5   4  -6 28883.0 1334.19  20
  -5  -4   5 22398.6 578.187  23
   5   4  -5 21025.8 602.646  21
   5   4  -5 21276.5 1133.97  20
  -5  -4   4 21598.1 571.841  23
   5   4  -4 21161.9 607.736  21
   5   4  -4 21031.2 1131.73  20
  -5  -4   3 27979.0 676.064  23
   5   4  -3 29099.9 726.697  21
  -5  -4   2 686.557 70.7651  28
   5   4  -2 938.736 119.072  21
   5   4  -2 978.067 246.840  20
  -5  -4   1 2370.19 164.218  23
  -5  -4   1 2280.70 148.281  13
   5   4  -1 2917.72 193.642  21
   5   4  -1 2689.90 393.447  20
  -5  -4   0 92.6823 42.0493  23
  -5  -4   0 83.2380 41.3897  13
   5   4   0 73.7709 55.1384  21
   5   4   0 17.1650 65.1450  20
  -5  -4  -1 17845.7 477.082  23
  -5  -4  -1 16886.5 481.997  13
   5   4   1 17714.5 505.369  21
  -5  -4  -2 31699.0 712.826  13
   5   4   2 31515.4 702.158  21
  -5  -4  -3 8015.15 294.958  14
  -5  -4  -3 8828.28 317.812  13
  -5  -4  -4 15144.4 410.306  14
  -5  -4  -4 16118.3 434.616  13
  -5  -4  -5 1241.07 90.4911  14
  -5  -4  -5 1395.18 103.256  13
  -5  -4  -6 2803.65 114.710  14
  -5  -4  -7 669.053 49.9028  13
  -5  -5  12 10.7292 12.8228  28
  -5  -5  11 8432.90 236.455  28
   5   5 -11 9347.99 298.758  35
  -5  -5  10 16181.9 377.510  28
   5   5 -10 16081.5 450.242  35
  -5  -5   9 18840.6 434.200  28
   5   5  -9 14758.6 462.297  33
  -5  -5   8 38985.3 789.261  23
   5   5  -8 40317.9 853.574  21
   5   5  -8 39531.7 900.842  33
  -5  -5   7 1103.04 104.772  23
   5   5  -7 1184.95 126.001  21
   5   5  -7 838.853 126.106  33
  -5  -5   6 292.029 62.2744  23
   5   5  -6 405.377 88.4249  21
  -5  -5   5 279.784 62.5220  23
   5   5  -5 241.249 77.8113  21
   5   5  -5 287.423 149.068  20
  -5  -5   4 2633.30 172.846  23
   5   5  -4 2416.00 390.212  20
  -5  -5   3 10985.5 310.307  28
   5   5  -3 12077.5 430.873  21
   5   5  -3 12056.8 858.191  20
  -5  -5   2 15137.6 362.753  28
  -5  -5   2 16523.5 470.480  23
  -5  -5   2 15524.3 407.440  13
   5   5  -2 16213.4 503.355  21
   5   5  -2 17423.9 1020.73  20
  -5  -5   1 56453.0 1096.42  23
  -5  -5   1 56474.8 1050.89  13
   5   5  -1 56772.4 1152.56  21
   5   5  -1 53154.8 1867.98  20
  -5  -5   0 64.7892 37.1019  13
   5   5   0 48.8120 50.6043  21
  -5  -5  -1 1527.92 114.650  23
  -5  -5  -1 1929.07 134.592  13
   5   5   1 1640.78 133.381  21
  -5  -5  -2 84.6884 37.1288  13
  -5  -5  -3 12675.6 356.860  14
  -5  -5  -3 13636.3 374.741  13
  -5  -5  -4 8664.63 255.007  14
  -5  -5  -4 9145.54 274.691  13
  -5  -5  -5 1508.54 78.4571  14
  -5  -5  -5 1707.93 94.9291  13
  -5  -6  11 2500.93 102.338  28
  -5  -6  10 89.5420 28.3898  28
   5   6 -10 162.792 42.2864  35
   5   6 -10 133.369 41.1094  33
   5   6  -9 2990.49 167.488  35
   5   6  -9 2730.93 164.747  33
  -5  -6   8 2843.78 142.336  23
   5   6  -8 2786.98 165.983  21
   5   6  -8 2713.43 180.482  33
  -5  -6   7 8070.45 275.331  23
   5   6  -7 7487.61 303.804  21
   5   6  -7 8230.06 358.406  33
  -5  -6   6 48637.7 940.958  23
   5   6  -6 50033.7 1120.82  33
  -5  -6   5 240.833 55.8141  23
   5   6  -5 198.714 72.2540  21
  -5  -6   4 10433.6 286.158  28
  -5  -6   4 10402.5 351.442  23
  -5  -6   3 98.3259 29.8084  28
   5   6  -3 3810.18 217.316  21
  -5  -6   2 2086.24 142.413  23
   5   6  -2 1780.88 152.929  21
  -5  -6   1 13839.6 391.571  23
  -5  -6   1 13514.6 362.294  13
   5   6  -1 14097.1 434.080  21
  -5  -6   0 5051.48 203.647  23
  -5  -6   0 4912.61 200.309  13
   5   6   0 4975.01 229.264  21
  -5  -6  -1 29220.5 574.935  23
  -5  -6  -1 29703.1 608.915  13
  -5  -6  -2 4172.73 172.526  14
  -5  -6  -2 4098.77 170.522  13
  -5  -6  -3 14813.3 339.950  14
  -5  -6  -3 14745.1 347.320  13
  -5  -6  -4 255.592 29.1489  14
  -5  -6  -4 246.982 33.8726  13
  -5  -7  10 976.283 58.8225  28
   5   7  -9 5534.40 209.938  33
  -5  -7   8 149.362 32.9173  28
  -5  -7   8 187.650 34.2606  23
   5   7  -8 227.787 54.5757  33
  -5  -7   7 183.991 34.9790  28
  -5  -7   7 326.592 49.0715  23
   5   7  -7 156.353 48.6503  21
   5   7  -7 233.178 63.2444  33
  -5  -7   6 2355.70 113.203  28
  -5  -7   6 2507.13 136.742  23
   5   7  -6 2406.38 158.412  21
   5   7  -6 2562.01 186.712  33
  -5  -7   5 1383.04 82.0728  28
  -5  -7   5 1600.86 113.078  23
   5   7  -5 1725.64 137.944  21
  -5  -7   4 22629.4 414.122  23
   5   7  -4 22501.8 477.851  21
   5   7  -3 5494.04 246.814  21
  -5  -7   2 12015.0 333.739  23
   5   7  -2 11836.7 368.666  21
  -5  -7   1 3095.97 125.468  13
   5   7  -1 3348.73 171.283  21
  -5  -7   0 381.580 44.7977  23
  -5  -7   0 314.032 40.8341  13
  -5  -7  -1 2295.03 109.483  14
  -5  -7  -1 2014.59 95.0951  13
  -5  -7  -2 136.996 24.6486  14
  -5  -7  -2 158.769 25.3252  13
  -5  -8   9 12243.5 234.855  28
  -5  -8   8 613.753 41.5086  28
   5   8  -8 671.673 63.6036  33
  -5  -8   7 18654.8 368.793  23
   5   8  -7 18973.7 436.411  33
  -5  -8   6 2027.16 101.253  23
   5   8  -6 2024.28 130.684  33
  -5  -8   5 4049.71 153.513  23
   5   8  -5 4043.07 199.759  33
   5   8  -4 4066.85 202.831  33
  -5  -8   3 104.927 28.7872  23
  -5  -8   2 16255.3 344.355  23
  -5  -8   0 12126.2 252.492  14
   6 -11   1 33949.5 582.212  23
  -6  11  -3 11197.5 245.455  17
   6 -11   3 12807.2 265.457  23
  -6  11  -4 795.756 49.0237  17
   6 -10  -3 5291.85 153.560   4
  -6  10   2 12799.7 302.652  29
  -6  10   1 4197.33 132.888  17
  -6  10   1 7169.26 211.541  29
  -6  10   0 6.19061 25.4955  29
  -6  10   0 20.1370 19.6729  17
  -6  10   0 12.2516 19.4783  27
  -6  10  -1 339.341 49.0628  17
  -6  10  -1 348.094 49.3645  27
  -6  10  -2 122.371 36.5081  17
  -6  10  -3 21320.2 470.996  17
  -6  10  -3 20534.4 450.659  27
  -6  10  -4 4915.87 186.128  17
  -6  10  -6 8943.90 230.911  17
   6  -9  -5 202.513 27.7390   4
  -6   9   4 333.036 45.3176  29
  -6   9   3 54.4454 30.9321  29
  -6   9   2 27015.7 582.980  29
  -6   9   2 24503.0 521.771  27
  -6   9   1 11329.2 349.568  29
  -6   9   1 11226.3 318.703  27
  -6   9   0 19374.1 467.118   5
  -6   9   0 20666.8 484.127  27
  -6   9  -1 10620.4 341.013  29
  -6   9  -1 9443.02 298.728   5
  -6   9  -2 106.615 30.8041   5
  -6   9  -2 81.4446 41.3241  29
  -6   9  -3 1430.63 117.960  17
  -6   9  -3 1475.04 109.215  27
  -6   9  -3 1260.04 97.3843   5
  -6   9  -3 1482.28 113.536  29
  -6   9  -4 1680.67 109.694  27
  -6   9  -4 1398.75 99.0131   5
  -6   9  -5 11183.9 329.388  17
  -6   9  -5 10998.1 290.402  27
  -6   9  -6 13631.8 349.827  17
  -6   9  -7 11599.9 257.399  17
  -6   9  -7 8063.45 209.907   1
  -6   8   6 20784.4 416.789  29
  -6   8   5 12539.3 333.798  29
   6  -8  -5 13192.6 326.382   4
  -6   8   4 14101.2 389.562  29
  -6   8   3 1012.11 101.684  29
  -6   8   3 896.195 77.8293  27
  -6   8   2 1257.76 118.318  29
  -6   8   2 1131.18 96.0365  27
  -6   8   1 65.9292 38.0058  27
  -6   8   0 5130.03 249.690  29
  -6   8  -1 15635.0 469.164  29
  -6   8  -2 23271.4 587.889  29
  -6   8  -2 22339.1 574.676   5
  -6   8  -3 27366.6 638.474  29
  -6   8  -3 28840.3 639.239  27
  -6   8  -3 27049.8 648.079   5
  -6   8  -4 3581.59 175.376  27
  -6   8  -4 3265.46 181.143   5
  -6   8  -4 3549.47 171.018  29
  -6   8  -5 1320.41 114.202  17
  -6   8  -5 1189.82 91.4212  27
  -6   8  -5 1109.09 100.244   5
  -6   8  -6 91.1670 35.7346   5
  -6   8  -6 31.8980 31.4467  17
  -6   8  -6 44.6962 23.3154  27
  -6   8  -7 5267.21 181.598  17
  -6   8  -8 7657.88 217.546   1
   6  -7  -8 1486.29 68.3648  16
  -6   7   7 1769.81 96.2391  29
   6  -7  -7 1796.53 94.3619  16
  -6   7   6 4568.73 178.970  29
   6  -7  -6 4508.59 158.592  16
  -6   7   5 16735.6 450.224  29
   6  -7  -5 16697.5 400.998  16
  -6   7   4 28103.3 665.120  29
  -6   7   4 28507.3 659.900  28
  -6   7   4 27544.9 586.744  27
  -6   7   3 4992.53 249.177  29
  -6   7   3 5150.02 250.933  28
  -6   7   3 5248.00 220.086  27
  -6   7   2 46938.2 1004.82  28
  -6   7   2 45968.9 924.217  27
  -6   7   1 82.8108 52.2942  29
  -6   7   1 109.444 60.6386  28
  -6   7   1 138.667 50.7795  27
  -6   7   1 155.918 88.2172  26
  -6   7   0 10668.7 388.192  29
  -6   7   0 11071.0 409.797  28
  -6   7   0 10078.8 655.959  26
  -6   7   0 10012.5 695.522   7
  -6   7  -1 795.444 104.382  29
  -6   7  -1 424.925 152.673   7
  -6   7  -2 171.421 56.5484  29
  -6   7  -2 65.2781 43.2849  27
  -6   7  -2 79.4691 71.0942  26
  -6   7  -2 92.3517 90.4979   7
  -6   7  -3 9838.08 335.548  29
  -6   7  -3 10188.8 339.204  27
  -6   7  -3 10056.5 362.284   5
  -6   7  -4 1149.07 97.7746  29
  -6   7  -4 1284.01 108.798  27
  -6   7  -4 1177.51 116.224   5
  -6   7  -5 32085.7 718.378  17
  -6   7  -5 31754.9 664.202  27
  -6   7  -5 32850.6 729.313   5
  -6   7  -6 2641.76 147.712  17
  -6   7  -6 2294.94 116.507  27
  -6   7  -6 2822.35 163.494   5
  -6   7  -6 2339.92 128.148   9
  -6   7  -7 14840.2 379.325   5
  -6   7  -7 14131.5 343.509   9
  -6   7  -8 660.126 63.1882   9
  -6   7  -9 7.31361 15.7001   1
   6  -6  -9 3698.24 128.119  16
  -6   6   8 1651.91 95.4711  29
   6  -6  -8 1728.03 103.564  16
  -6   6   7 20312.1 478.051  29
   6  -6  -7 19709.7 471.726  16
  -6   6   6 2425.17 149.389  29
  -6   6   6 2122.57 131.187  28
   6  -6  -6 2101.88 133.361  16
  -6   6   5 29162.9 681.040  29
  -6   6   5 27663.9 654.850  28
   6  -6  -5 28084.0 636.106  16
  -6   6   4 5814.64 268.700  29
  -6   6   4 6024.55 269.784  28
  -6   6   4 5714.76 228.329  27
   6  -6  -4 5240.91 226.191  16
  -6   6   3 1510.64 141.561  29
  -6   6   3 1560.30 142.711  28
  -6   6   3 1470.96 119.980  27
  -6   6   3 1317.86 222.620  26
  -6   6   3 1397.91 266.043   7
   6  -6  -3 1201.81 241.422  22
  -6   6   2 9979.04 382.329  28
  -6   6   2 9869.25 337.011  27
  -6   6   2 9650.68 619.730  26
  -6   6   2 9078.91 674.140   7
   6  -6  -2 9059.83 656.377  22
  -6   6   1 2452.06 178.264  29
  -6   6   1 2528.77 187.704  28
  -6   6   1 2255.79 157.624  27
  -6   6   1 1996.61 293.155  26
  -6   6   1 2232.37 336.599   7
  -6   6   0 44694.2 964.964  29
  -6   6   0 45726.5 942.971  27
  -6   6   0 43400.5 1475.62  26
  -6   6  -1 1000.24 112.842  29
  -6   6  -1 850.703 114.857  28
  -6   6  -1 957.806 228.062   7
  -6   6  -2 38415.1 825.402  29
  -6   6  -2 38321.1 888.671  28
  -6   6  -2 38093.3 818.549  27
  -6   6  -2 37802.4 1330.65  26
  -6   6  -2 34810.2 1386.29   7
  -6   6  -2 36046.4 788.378  12
  -6   6  -3 2908.06 166.506  29
  -6   6  -3 3029.87 176.776  27
  -6   6  -3 2893.89 338.899  26
  -6   6  -3 3014.61 181.862  12
  -6   6  -3 3135.94 196.262   5
  -6   6  -4 3541.33 176.549   9
  -6   6  -4 3732.67 187.992  27
  -6   6  -4 2968.54 328.264  26
  -6   6  -4 3754.07 208.055  12
  -6   6  -4 3533.76 208.028   5
  -6   6  -5 8524.20 298.379   9
  -6   6  -5 8449.74 279.301  27
  -6   6  -5 9374.33 342.618  12
  -6   6  -5 9104.43 337.561   5
  -6   6  -6 42.0485 37.2510   5
  -6   6  -6 68.6881 34.8546  17
  -6   6  -6 133.124 44.5947   9
  -6   6  -6 173.806 56.0880  12
  -6   6  -7 28499.0 517.048  12
  -6   6  -7 28257.6 491.445   5
  -6   6  -7 27151.9 464.241   9
  -6   6  -8 2177.44 127.628   9
  -6   6  -9 11835.9 302.567   9
  -6   6  -9 12054.9 307.804   1
  -6   6 -10 2218.19 89.5965   1
   6  -5 -10 10190.8 245.742  16
  -6   5   9 1042.49 73.9753  29
   6  -5  -9 1103.10 84.5283  16
  -6   5   8 2522.15 138.870  29
   6  -5  -8 2468.69 145.459  16
   6  -5  -8 2615.43 134.888  15
  -6   5   7 5028.89 221.243  29
  -6   5   7 4942.11 208.033  28
   6  -5  -7 5306.96 234.415  16
   6  -5  -7 5114.18 206.967  15
  -6   5   6 1113.35 110.575  29
  -6   5   6 1210.37 110.662  28
   6  -5  -6 1085.20 94.9947  15
  -6   5   5 55037.8 1085.82  29
  -6   5   5 55076.7 1084.68  28
  -6   5   5 53365.1 996.918  27
   6  -5  -5 53386.6 994.251  15
  -6   5   5 51593.4 1692.42   7
   6  -5  -5 52011.7 1745.54  22
  -6   5   4 8460.34 329.487  29
  -6   5   4 8924.58 344.570  28
  -6   5   4 8591.88 297.075  27
  -6   5   4 8160.09 540.886  26
  -6   5   4 8090.14 628.911   7
   6  -5  -4 8549.06 647.733  22
  -6   5   3 40574.6 913.196  28
  -6   5   3 41951.7 855.126  27
  -6   5   3 40792.2 1342.06  26
   6  -5  -3 40839.1 1480.89  22
  -6   5   2 8050.70 323.382  29
  -6   5   2 8712.91 348.665  28
  -6   5   2 8576.48 313.151  27
  -6   5   2 8603.83 581.670  26
  -6   5   1 2396.55 170.791  29
  -6   5   1 2672.87 172.580  27
  -6   5   1 2522.39 327.640  26
   6  -5  -1 2014.75 311.137  22
  -6   5   1 2957.01 199.386  18
  -6   5   0 1420.85 130.846  29
  -6   5   0 1470.99 143.271  28
  -6   5   0 1545.25 131.696  27
  -6   5   0 1263.37 236.858  26
  -6   5   0 1455.16 143.682  18
  -6   5  -1 817.130 99.4070  29
  -6   5  -1 735.837 105.474  28
  -6   5  -1 638.013 170.669  26
  -6   5  -1 711.812 84.7071  12
  -6   5  -1 983.373 119.353  18
  -6   5  -2 40431.7 844.121  29
  -6   5  -2 41829.5 922.779  28
  -6   5  -2 42127.8 870.093  27
  -6   5  -2 41042.0 1378.61  26
  -6   5  -2 39617.0 859.059  12
  -6   5  -3 21225.2 510.147  29
  -6   5  -3 21464.0 533.378   9
  -6   5  -3 22503.2 594.769  28
  -6   5  -3 22857.7 558.815  27
  -6   5  -3 21926.2 941.011  26
  -6   5  -3 22107.6 580.830  12
  -6   5  -3 22368.9 597.091   5
  -6   5  -4 18301.7 497.646   9
  -6   5  -4 19628.3 489.950  27
  -6   5  -4 18210.1 824.152  26
  -6   5  -4 19275.3 539.650  12
  -6   5  -4 19027.6 537.798   5
  -6   5  -5 5790.55 256.056   9
  -6   5  -5 5780.24 222.490  27
  -6   5  -5 5973.97 275.275  12
  -6   5  -5 5897.50 267.738   5
  -6   5  -6 195.765 56.4191   5
  -6   5  -6 4.26027 21.7010  17
  -6   5  -6 96.9716 44.6884   9
  -6   5  -6 125.187 54.1186  12
  -6   5  -7 8.94017 34.3018   5
  -6   5  -7 3.12948 32.7401   9
  -6   5  -7 67.1762 46.3090  12
  -6   5  -8 169.793 46.8530   9
  -6   5  -9 9571.51 280.042  12
  -6   5  -9 9882.08 279.749   9
  -6   5 -10 2580.85 105.439   9
   6  -4 -11 8.24767 15.1010   3
   6  -4 -11 52.6906 18.1531  16
   6  -4 -10 19049.9 418.867  16
   6  -4 -10 18640.3 390.670  15
  -6   4   9 151.418 40.1625  29
   6  -4  -9 104.570 41.6409  16
   6  -4  -9 57.6936 30.1530  15
  -6   4   8 15529.9 422.201  29
  -6   4   8 16320.3 409.296  28
   6  -4  -8 16123.0 423.498  15
  -6   4   7 14064.1 421.216  29
  -6   4   7 14631.9 414.648  28
   6  -4  -7 14771.3 414.267  15
  -6   4   6 509.662 82.5529  29
  -6   4   6 429.510 74.3869  28
   6  -4  -6 457.982 70.8298  15
  -6   4   6 359.951 136.199   7
   6  -4  -6 434.574 157.046  22
  -6   4   5 186.390 58.3568  29
  -6   4   5 100.005 51.0854  28
  -6   4   5 113.877 41.3763  27
   6  -4  -5 24.9777 29.8084  15
  -6   4   5 59.5427 71.4606   7
   6  -4  -5 114.112 91.7617  22
  -6   4   4 56.0835 49.9649  28
  -6   4   4 38.4225 34.7548  27
  -6   4   4 46.6839 62.6359  26
  -6   4   4 60.5058 81.1797   7
   6  -4  -4 15.8471 53.7901  22
  -6   4   4 25.6928 38.4014  18
  -6   4   3 18329.6 511.480  29
  -6   4   3 18076.9 519.462  28
  -6   4   3 17672.5 479.826  27
  -6   4   3 17772.3 835.271  26
  -6   4   3 17857.8 936.157   7
   6  -4  -3 16968.9 913.468  22
  -6   4   3 18907.8 533.257  18
  -6   4   2 8555.20 321.838  29
  -6   4   2 7748.15 295.521  27
  -6   4   2 8485.49 570.333  26
  -6   4   2 7573.81 600.953   7
   6  -4  -2 7307.45 577.030  22
  -6   4   2 8114.01 330.158  18
  -6   4   1 46093.4 948.072  29
  -6   4   1 45526.5 978.540  28
  -6   4   1 46983.8 943.129  27
  -6   4   1 43359.1 1432.42  26
  -6   4   1 43578.1 1546.03   7
   6  -4  -1 45287.7 1542.57  22
  -6   4   1 46289.9 991.051  18
  -6   4   0 37588.6 812.967  29
  -6   4   0 39149.6 866.975  28
  -6   4  -1 804.412 91.2231  29
  -6   4  -1 702.787 97.1573  28
  -6   4  -1 730.547 90.8262  27
  -6   4  -1 731.249 175.438  26
  -6   4  -1 592.270 176.987   7
  -6   4  -1 660.097 84.5480  12
  -6   4  -1 735.209 102.134  18
  -6   4  -2 7889.22 275.041  29
  -6   4  -2 8525.62 327.188  28
  -6   4  -2 7855.74 286.960   9
  -6   4  -2 8289.64 302.387  27
  -6   4  -2 7854.38 550.524  26
  -6   4  -2 7413.83 603.268   7
  -6   4  -2 7980.77 308.722  12
  -6   4  -2 8361.67 336.323  18
  -6   4  -3 5084.24 236.169  28
  -6   4  -3 4787.79 228.211   9
  -6   4  -3 5293.29 228.677  27
  -6   4  -3 4511.27 405.998  26
  -6   4  -3 4919.47 242.905  12
  -6   4  -3 4975.89 251.311  18
  -6   4  -3 4918.89 245.426   5
  -6   4  -4 36349.9 816.571   9
  -6   4  -4 37970.9 774.173  27
  -6   4  -4 37466.1 843.439  12
  -6   4  -4 37817.1 838.667   5
  -6   4  -5 36617.7 820.245   9
  -6   4  -5 35595.5 720.655  27
  -6   4  -5 36860.2 834.971  12
  -6   4  -5 36858.0 811.344   5
  -6   4  -6 16844.9 489.487   9
  -6   4  -6 17391.1 504.719  12
  -6   4  -6 16881.9 478.764   5
  -6   4  -7 35434.2 780.887   9
  -6   4  -8 897.026 92.0814   9
  -6   4  -8 802.882 87.0389  12
  -6   4  -9 2893.82 139.821  12
  -6   4  -9 2961.41 133.928   1
  -6   4  -9 2985.07 144.096   9
  -6   4 -10 42.4844 18.7307   9
  -6   4 -10 11.9667 12.2502   1
   6  -3 -11 132.038 29.0070  15
  -6   3  10 1311.60 88.0085  29
   6  -3 -10 1100.87 95.2055  16
   6  -3 -10 1145.52 85.9605  15
  -6   3   9 1324.71 103.523  29
  -6   3   9 1322.51 94.0394  28
   6  -3  -9 1235.52 102.894  15
  -6   3   8 8540.48 303.404  29
  -6   3   8 8694.32 294.725  28
  -6   3   7 12692.8 396.261  29
  -6   3   7 12461.3 383.699  28
  -6   3   6 26775.7 650.313  29
  -6   3   6 27876.2 650.975  28
  -6   3   6 24306.6 1074.98   7
   6  -3  -6 23799.6 1150.82  22
  -6   3   6 26029.5 622.814  18
  -6   3   5 51983.3 1026.82  28
  -6   3   5 49514.1 971.236  27
  -6   3   5 46673.4 1575.20   7
   6  -3  -5 46707.6 1688.12  22
  -6   3   5 49917.4 1012.21  18
  -6   3   4 198.197 61.7639  29
  -6   3   4 375.654 73.7577  28
  -6   3   4 351.612 63.1165  27
  -6   3   4 186.610 109.012   7
   6  -3  -4 353.590 144.380  22
  -6   3   4 192.297 58.4043  18
  -6   3   3 205.630 57.2202  29
  -6   3   3 162.293 57.2137  28
  -6   3   3 265.454 57.9886  27
  -6   3   3 227.255 107.460  26
  -6   3   3 86.7581 81.4553   7
   6  -3  -3 227.305 112.147  22
  -6   3   2 134.891 51.4630  29
  -6   3   2 136.635 57.0678  28
  -6   3   2 163.601 52.9490  27
  -6   3   2 121.175 84.8149  26
  -6   3   2 130.625 95.4194   7
   6  -3  -2 259.448 114.753  22
  -6   3   2 145.367 56.2630  18
  -6   3   1 13602.9 402.899  29
  -6   3   1 13372.9 423.891  28
  -6   3   1 13650.5 409.212  27
  -6   3   1 13460.1 725.182  26
  -6   3   1 13351.0 780.785   7
   6  -3  -1 13252.2 772.963  22
  -6   3   1 14574.3 449.734  18
  -6   3   0 18398.2 474.366  29
  -6   3   0 18659.8 514.376  28
  -6   3   0 17574.1 905.863   7
  -6   3  -1 39224.9 787.338  29
  -6   3  -1 41255.8 864.026  28
  -6   3  -1 41098.2 840.258  27
  -6   3  -1 39727.1 1329.14  26
  -6   3  -1 37124.9 1402.80   7
  -6   3  -1 39115.0 876.488  18
  -6   3  -2 47150.3 953.858  28
  -6   3  -2 48780.0 950.958  27
  -6   3  -2 47735.3 998.143  18
  -6   3  -2 47311.0 984.312   5
  -6   3  -3 1546.30 119.425  28
  -6   3  -3 1908.64 131.658  27
  -6   3  -3 1672.11 138.309   5
  -6   3  -3 1671.94 139.515  18
  -6   3  -4 6425.00 243.760  27
  -6   3  -4 6646.48 280.044   5
  -6   3  -4 6648.09 273.226  18
  -6   3  -5 197.659 56.6841   5
  -6   3  -5 386.348 73.3796   9
  -6   3  -5 218.148 63.4077  12
  -6   3  -6 7496.68 308.435   9
  -6   3  -6 7862.54 316.102  12
  -6   3  -6 7395.03 285.317   5
  -6   3  -7 2874.04 175.463   9
  -6   3  -8 8681.71 295.406   9
  -6   3  -8 8829.68 274.779   1
  -6   3  -8 8502.98 289.588  12
  -6   3  -9 25474.1 500.602   1
  -6   3  -9 25070.7 515.946  12
  -6   3 -10 922.118 49.7011   1
  -6   3 -10 1081.98 61.8017   9
   6  -2 -12 3398.38 120.448  16
   6  -2 -12 3886.97 121.987  15
  -6   2  11 6774.16 196.559  29
   6  -2 -11 8064.66 229.196  15
  -6   2  10 27395.4 575.525  29
   6  -2 -10 27605.4 590.627  15
  -6   2   9 18.5796 32.1697  29
  -6   2   9 25.9474 27.1527  28
  -6   2   8 2728.72 164.544  29
  -6   2   8 2490.17 151.793  28
  -6   2   7 954.183 103.831  29
  -6   2   7 969.742 101.157  28
  -6   2   7 864.189 192.547   7
   6  -2  -7 808.529 209.982  22
  -6   2   6 12328.5 389.974  28
  -6   2   6 11339.1 690.138   7
   6  -2  -6 11057.1 776.533  22
   6  -2  -6 11906.7 690.425  20
  -6   2   6 12115.3 380.868  18
  -6   2   5 27093.9 665.180  29
  -6   2   5 29390.5 683.035  28
  -6   2   5 29907.2 665.854  27
  -6   2   5 29336.0 1155.86   7
   6  -2  -5 30167.4 1314.13  22
   6  -2  -5 27735.4 1129.02  20
  -6   2   5 29146.8 680.523  18
  -6   2   4 23364.2 574.199  29
  -6   2   4 22491.1 574.801  28
  -6   2   4 22510.0 560.217  27
  -6   2   4 22577.3 1006.48   7
   6  -2  -4 22293.7 1090.75  22
  -6   2   4 22340.2 579.282  18
  -6   2   3 79571.3 1420.86  29
  -6   2   3 79352.7 1418.69  27
  -6   2   3 79516.5 2122.17   7
  -6   2   3 79822.1 1456.30  18
  -6   2   2 445.232 69.5285  29
  -6   2   2 530.863 79.3625  28
  -6   2   2 566.081 80.1109  27
  -6   2   2 413.790 146.358   7
   6  -2  -2 468.488 148.692  22
  -6   2   2 523.611 82.9757  18
  -6   2   1 29098.6 645.845  29
  -6   2   1 29548.8 683.422  28
  -6   2   1 29373.0 678.068  27
  -6   2   1 28150.2 1155.43   7
  -6   2   1 30146.5 707.754  18
  -6   2   0 2895.26 152.925  29
  -6   2   0 3380.46 184.202  28
  -6   2   0 2978.72 167.735  14
  -6   2   0 2595.63 342.834   7
  -6   2   0 3041.28 186.685  18
  -6   2  -1 1515.98 120.586  28
  -6   2  -1 1633.33 125.562  27
  -6   2  -1 1596.48 126.488  14
  -6   2  -1 1486.49 122.735  13
  -6   2  -1 1571.55 274.247   7
  -6   2  -1 1683.09 139.491  18
  -6   2  -2 27169.9 614.366  28
  -6   2  -2 27192.2 628.696  27
  -6   2  -2 27647.4 663.677  14
  -6   2  -2 27974.1 671.141  13
  -6   2  -2 28562.5 664.038   5
  -6   2  -2 28399.8 675.549  18
  -6   2  -3 7542.74 273.439  27
  -6   2  -3 7742.06 311.584  14
  -6   2  -3 7521.60 306.657  13
   6  -2   3 7946.57 583.340  20
  -6   2  -3 8268.00 306.694   5
  -6   2  -3 7812.41 302.442  18
  -6   2  -4 46399.4 971.019  13
  -6   2  -4 46295.6 936.376   5
  -6   2  -4 44364.1 906.115  18
  -6   2  -5 6386.91 282.530  13
  -6   2  -5 6448.03 262.279   5
  -6   2  -6 19821.1 540.016   9
  -6   2  -7 3850.20 197.773   9
  -6   2  -7 3600.35 190.413  12
  -6   2  -7 3935.48 180.213   1
  -6   2  -8 63.2859 27.0034   1
  -6   2  -8 58.0402 32.2617  12
  -6   2  -9 6581.06 204.794   9
  -6   2  -9 6382.92 190.920  12
  -6   2  -9 6037.32 171.109   1
   6  -1 -12 26.6769 18.8264  16
   6  -1 -12 32.1367 18.4662  15
  -6   1  11 1529.99 93.3928  29
   6  -1 -11 1720.07 105.645  15
  -6   1  10 9991.83 302.828  29
  -6   1  10 9887.87 277.991  28
  -6   1   9 6000.48 241.256  29
  -6   1   9 5717.44 227.058  28
   6  -1  -9 6291.36 233.007  35
  -6   1   8 29011.0 669.476  29
  -6   1   8 30436.7 665.029  28
  -6   1   7 1551.39 128.950  29
  -6   1   7 1234.05 113.350  28
   6  -1  -7 1129.21 250.085  22
  -6   1   7 1321.19 110.065  18
  -6   1   6 2563.88 164.166  28
  -6   1   6 2045.71 284.679   7
   6  -1  -6 2714.66 386.159  22
   6  -1  -6 2021.79 296.524  20
  -6   1   6 2421.78 156.419  18
  -6   1   5 11789.7 375.311  28
  -6   1   5 10374.1 640.582   7
   6  -1  -5 12051.2 803.545  22
   6  -1  -5 10173.2 679.022  20
  -6   1   5 10800.4 362.540  18
  -6   1   4 258.606 58.0587  29
  -6   1   4 125.948 85.5659   7
   6  -1  -4 211.881 123.746  22
   6  -1  -4 352.202 136.452  20
  -6   1   4 346.087 133.687  19
  -6   1   3 18041.8 467.159  29
  -6   1   3 17277.8 472.826  28
  -6   1   3 17158.8 473.003  27
  -6   1   3 15794.3 810.021   7
   6  -1  -3 17322.5 919.172  22
   6  -1  -3 18690.6 943.244  20
  -6   1   3 16588.8 860.817  19
  -6   1   2 6079.50 239.385  29
  -6   1   2 6179.95 254.673  28
  -6   1   2 6311.57 261.605  27
  -6   1   2 6082.24 492.052   7
   6  -1  -2 6353.36 529.766  22
  -6   1   2 6496.23 523.324  19
  -6   1   1 82525.8 1411.26  29
  -6   1   1 85511.7 1467.23  28
  -6   1   1 80023.0 1425.65  14
  -6   1   1 77240.2 2083.19   7
   6  -1  -1 81906.9 2209.76  22
   6  -1  -1 88786.6 2293.91  20
  -6   1   0 459.155 68.0763  28
  -6   1   0 800.449 92.0547  27
  -6   1   0 687.754 82.0191  14
  -6   1   0 631.087 78.6677  13
  -6   1   0 491.541 150.417   7
   6  -1   0 791.650 194.899  20
  -6   1   0 405.687 139.861  19
  -6   1  -1 24565.1 565.814  28
  -6   1  -1 24628.6 605.646  14
  -6   1  -1 25682.8 614.442  13
  -6   1  -1 25592.6 1076.94  19
  -6   1  -1 26453.9 606.999   5
  -6   1  -2 16161.0 470.652  14
  -6   1  -2 16158.3 469.083  13
  -6   1  -2 16415.8 448.480   5
  -6   1  -2 16682.4 468.444  18
  -6   1  -3 84.7739 36.1601   5
  -6   1  -3 70.2315 47.3347  13
   6  -1   3 132.280 89.8129  20
  -6   1  -3 114.126 46.8536  18
  -6   1  -4 5920.71 271.808  14
  -6   1  -4 6237.68 275.157  13
  -6   1  -4 6529.12 252.443   5
  -6   1  -4 5778.24 230.582  18
  -6   1  -5 2169.39 159.786  14
  -6   1  -5 2103.73 155.534  13
  -6   1  -6 31467.1 722.205  13
  -6   1  -6 32914.9 672.397   1
  -6   1  -7 2963.30 136.971   1
  -6   1  -7 3204.36 168.033  12
  -6   1  -8 14896.4 305.188   9
  -6   1  -8 14700.5 291.674  12
  -6   1  -9 5391.61 161.928   9
  -6   1  -9 4980.24 142.787  12
  -6   0  12 83.6453 20.1537  29
   6   0 -12 97.1882 27.2367  15
  -6   0  11 10117.1 278.839  29
  -6   0  10 3830.28 175.702  29
  -6   0  10 3838.05 165.521  28
   6   0 -10 3867.64 178.825  35
  -6   0   9 858.183 91.4223  29
  -6   0   9 851.375 85.6669  28
   6   0  -9 831.361 93.3880  35
  -6   0   8 12354.7 370.150  28
  -6   0   7 1097.50 105.528  28
   6   0  -7 806.121 215.598  22
  -6   0   7 852.446 89.2821  18
  -6   0   6 119131. 1980.76  28
   6   0  -6 120365. 3012.84  22
   6   0  -6 121118. 2807.47  20
   6   0  -5 9872.60 726.023  22
   6   0  -5 11338.3 732.071  20
  -6   0   5 10795.9 662.095  19
  -6   0   4 31011.7 696.617  28
   6   0  -4 30164.9 1287.88  22
   6   0  -4 34076.6 1338.92  20
  -6   0   4 32900.6 1218.85  19
  -6   0   3 11351.9 350.714  28
  -6   0   3 9483.36 576.213   7
   6   0  -3 8747.35 646.840  22
  -6   0   3 10393.5 662.813  19
  -6   0   2 164.114 44.8289  29
  -6   0   2 247.801 54.0908  28
  -6   0   2 150.847 40.9966  14
  -6   0   2 145.954 78.5920   7
   6   0  -2 183.118 101.446  22
  -6   0   2 53.4991 60.0961  19
  -6   0   1 3808.84 175.222   5
  -6   0   1 3533.02 178.832  28
  -6   0   1 3510.53 181.375  14
  -6   0   1 3295.38 168.554  13
   6   0  -1 3279.05 385.474  22
   6   0  -1 3867.21 432.134  20
  -6   0   0 2447.65 140.816  28
  -6   0   0 2368.31 154.012  14
  -6   0   0 2376.55 149.275  13
   6   0   0 3034.58 383.625  20
  -6   0   0 2295.06 305.521  19
  -6   0   0 2440.47 139.101   5
  -6   0  -1 21745.7 558.240  14
  -6   0  -1 22083.2 554.767  13
  -6   0  -1 21441.5 502.973   5
  -6   0  -1 22115.0 979.407  19
  -6   0  -2 7763.36 304.965  14
  -6   0  -2 7727.30 298.991  13
   6   0   2 8543.92 617.972  20
  -6   0  -2 7210.29 251.474   5
  -6   0  -2 6789.87 518.273  19
  -6   0  -3 24628.3 545.745   5
  -6   0  -3 24464.7 614.562  14
  -6   0  -3 24955.4 619.884  13
  -6   0  -3 24176.9 570.934  18
  -6   0  -4 3770.57 208.019  14
  -6   0  -4 4162.33 215.986  13
  -6   0  -4 3804.85 170.154  18
  -6   0  -5 450.633 55.4944   1
  -6   0  -5 2357.25 156.929  13
  -6   0  -6-4.65349 12.6251   1
  -6   0  -6 1853.80 129.482  13
  -6   0  -7 871.986 81.9623   9
  -6   0  -7 868.820 79.6567  12
  -6   0  -8 9099.17 244.263   9
  -6   0  -8 8755.75 231.203  12
  -6  -1  12 568.784 48.0995  29
  -6  -1  11 20057.4 437.635  29
   6   1 -11 21861.2 468.327  35
  -6  -1  10 5510.08 205.830  28
   6   1 -10 6311.35 247.361  35
  -6  -1   9 16676.6 428.338  28
  -6  -1   8 4735.61 211.654  28
  -6  -1   7 2754.20 163.177  28
   6   1  -7 2188.92 339.831  22
   6   1  -6 3080.24 405.945  22
   6   1  -6 3530.17 415.437  20
  -6  -1   6 3640.25 371.558  19
  -6  -1   5 4603.31 215.437  28
   6   1  -5 4028.11 456.105  22
   6   1  -5 4532.14 476.019  20
  -6  -1   5 3813.30 392.752  19
  -6  -1   4 44865.9 901.387  28
   6   1  -4 48698.4 1660.58  22
   6   1  -4 46821.7 1629.65  20
  -6  -1   3 21221.6 514.417  28
  -6  -1   3 20520.1 957.622  19
  -6  -1   2 30015.8 616.438  29
  -6  -1   2 30412.3 655.363  28
  -6  -1   2 29381.7 653.051  14
   6   1  -2 30730.0 1225.90  22
   6   1  -2 28567.6 1247.86  20
  -6  -1   2 29621.3 1177.08  19
  -6  -1   1 33473.9 687.554  28
  -6  -1   1 33667.6 725.826  14
  -6  -1   1 31822.6 685.988  13
   6   1  -1 35660.1 1385.37  20
  -6  -1   1 35071.6 1272.79  19
  -6  -1   0 204.890 41.8477  28
  -6  -1   0 130.908 45.7276  14
  -6  -1   0 162.948 45.0620  13
  -6  -1   0 182.441 96.4319  19
  -6  -1  -1 416.388 72.7826  14
  -6  -1  -1 504.169 75.9438  13
   6   1   1 292.153 135.727  20
  -6  -1  -1 325.215 120.232  19
  -6  -1  -2 905.759 102.367  14
  -6  -1  -2 922.175 99.2581  13
   6   1   2 1070.14 225.315  20
  -6  -1  -2 844.166 178.196  19
  -6  -1  -3 10104.9 352.248  14
  -6  -1  -3 9937.17 344.716  13
  -6  -1  -4 29275.3 675.897  13
  -6  -1  -5 12584.2 378.148  13
  -6  -1  -6 24430.0 550.674  13
  -6  -1  -7 94.7444 30.2481   9
  -6  -1  -7 26.2564 21.0374  12
  -6  -1  -8 785.285 48.3255   9
  -6  -2  12 97.8168 23.9198  29
  -6  -2  11 65.8686 29.9126  29
  -6  -2  11 20.8615 19.9186  28
   6   2 -11 39.2783 29.3471  35
  -6  -2  10 41.1140 27.6983  28
   6   2 -10 54.0780 37.4725  35
  -6  -2   9 13434.8 367.508  28
  -6  -2   8 14745.7 398.167  28
   6   2  -8 13320.2 387.417  21
  -6  -2   7 8717.97 302.572  28
   6   2  -7 9227.65 335.148  21
   6   2  -6 25359.9 1173.54  20
  -6  -2   6 23222.9 965.122  19
  -6  -2   5 1841.09 130.997  28
   6   2  -5 1536.52 282.368  22
   6   2  -5 1602.14 300.619  20
  -6  -2   5 1639.26 259.282  19
  -6  -2   4 6004.50 239.217  28
   6   2  -4 6853.38 609.837  20
  -6  -2   4 6062.72 502.569  19
  -6  -2   3 1507.21 114.266  28
   6   2  -3 957.328 219.294  22
  -6  -2   3 1478.92 259.246  19
  -6  -2   2 9713.62 301.598  28
   6   2  -2 9255.49 656.898  22
   6   2  -2 10721.3 751.079  20
  -6  -2   1 17607.8 423.162  28
  -6  -2   1 17886.5 446.618  13
   6   2  -1 19519.6 1024.04  20
  -6  -2   1 17785.0 880.321  19
  -6  -2   0 9396.73 309.348  13
   6   2   0 9016.79 690.356  20
  -6  -2   0 8380.72 582.392  19
  -6  -2  -1 27787.0 649.811  14
  -6  -2  -1 26216.3 618.615  13
   6   2   1 27174.5 1205.44  20
  -6  -2  -1 25294.3 1018.41  19
  -6  -2  -2 1294.92 119.003  14
  -6  -2  -2 1173.22 108.268  13
   6   2   2 1382.29 119.288  21
  -6  -2  -3 1097.90 104.881  14
  -6  -2  -3 890.974 94.5757  13
  -6  -2  -4 175.110 47.4722  13
  -6  -2  -5 3539.75 167.168  14
  -6  -2  -5 4205.45 184.540  13
  -6  -2  -6 10354.6 277.937   9
  -6  -2  -6 10815.2 291.928  13
  -6  -2  -7 2918.32 102.091   9
  -6  -2  -7 3068.06 103.363  12
  -6  -3  12 4217.51 128.732  29
  -6  -3  11 20593.0 421.243  28
   6   3 -11 21923.8 483.126  35
  -6  -3  10 376.027 50.6863  28
  -6  -3   9 7567.78 249.259  28
  -6  -3   8 3430.30 168.897  28
   6   3  -8 3535.18 182.028  21
   6   3  -7 3379.01 194.845  21
  -6  -3   6 5556.95 226.530  28
   6   3  -6 5622.00 264.063  21
  -6  -3   5 21515.7 514.666  28
   6   3  -5 22083.0 599.819  21
   6   3  -5 22592.5 1136.41  20
  -6  -3   5 20475.4 927.567  19
  -6  -3   4 51650.2 989.466  28
   6   3  -4 52337.7 1854.67  20
  -6  -3   4 54560.1 1658.10  19
  -6  -3   3 1637.39 112.222  28
  -6  -3   3 1888.51 148.520  23
   6   3  -3 1610.56 278.067  22
  -6  -3   3 1806.18 277.661  19
  -6  -3   2 13071.4 336.663  28
  -6  -3   2 12408.4 727.103  19
  -6  -3   1 40.4664 42.4536  23
  -6  -3   1 103.143 34.2362  13
   6   3  -1 54.9975 56.5782  21
   6   3  -1 17.2364 65.4158  20
  -6  -3   1 89.6919 78.4084  19
  -6  -3   0 1692.69 120.120  13
   6   3   0 1896.81 150.713  21
  -6  -3  -1 9526.90 325.336  14
  -6  -3  -1 9056.21 305.492  13
   6   3   1 9896.32 341.849  21
  -6  -3  -2 11590.5 360.936  14
  -6  -3  -2 11839.0 352.082  13
   6   3   2 10928.4 337.203  21
  -6  -3  -3 58683.2 1072.42  13
  -6  -3  -4 4448.19 183.124  14
  -6  -3  -4 4488.83 185.843  13
  -6  -3  -5 4160.78 157.697  14
  -6  -3  -5 4341.15 165.912  13
  -6  -3  -6 951.916 53.8097   9
  -6  -3  -6 1285.03 72.1418  13
  -6  -4  11 7859.15 199.469  28
  -6  -4  10 5443.89 181.103  28
   6   4 -10 6053.27 229.080  35
  -6  -4   9 15562.4 373.169  28
   6   4  -8 377.372 65.1013  21
   6   4  -8 359.296 57.1528  33
  -6  -4   7 7755.93 258.207  28
   6   4  -7 8065.49 302.571  21
  -6  -4   6 2713.20 146.681  28
   6   4  -6 2759.52 178.831  21
  -6  -4   5 856.997 82.5575  28
  -6  -4   5 900.962 99.6285  23
   6   4  -5 874.036 108.769  21
  -6  -4   4 11262.6 321.347  28
  -6  -4   4 12863.5 393.986  23
  -6  -4   3 152.647 37.1825  28
   6   4  -3 258.360 74.2418  21
  -6  -4   2 40531.3 863.352  23
   6   4  -2 42112.4 911.046  21
  -6  -4   1 707.229 86.1267  23
  -6  -4   1 683.108 68.1630  13
   6   4  -1 625.024 91.5662  21
  -6  -4   0 16307.5 411.023  13
   6   4   0 17921.8 487.615  21
  -6  -4  -1 2839.97 157.029  14
  -6  -4  -1 2777.71 144.672  13
   6   4   1 2933.40 165.999  21
  -6  -4  -2 4981.45 201.018  14
  -6  -4  -2 4714.61 187.819  13
  -6  -4  -3 368.373 49.6804  13
  -6  -4  -4 1873.82 96.7003  14
  -6  -4  -4 1729.36 94.1986  13
  -6  -4  -5 24289.0 447.720  13
  -6  -5  11 1712.47 68.5008  28
  -6  -5  10 141.648 27.4097  28
   6   5  -9 4298.49 187.337  35
  -6  -5   8 65.2362 28.3952  28
   6   5  -8 36.3468 26.6729  33
  -6  -5   7 34524.8 650.156  28
   6   5  -7 35045.6 727.337  21
  -6  -5   6 2843.28 135.337  28
   6   5  -6 2867.94 173.373  21
  -6  -5   5 31101.5 661.601  23
   6   5  -5 30890.2 711.407  21
  -6  -5   4 12946.6 319.078  28
  -6  -5   4 15080.4 407.963  23
  -6  -5   3-1.32111 12.4833  28
   6   5  -3 402.393 80.4007  21
  -6  -5   2 2153.38 137.719  23
   6   5  -2 2374.00 161.201  21
   6   5  -1 127.072 50.4829  21
  -6  -5   0 21316.0 478.603  14
   6   5   0 22742.4 521.496  21
  -6  -5  -1 4504.59 176.901  14
  -6  -5  -1 4241.48 155.164  13
  -6  -5  -2 10728.9 263.553  13
  -6  -5  -3 8876.05 221.974  14
  -6  -5  -3 8590.87 211.756  13
  -6  -6  10 9680.77 201.079  28
  -6  -6   9 6791.67 174.146  28
  -6  -6   8 449.560 43.6575  28
   6   6  -8 293.800 41.6884  33
  -6  -6   7 1259.82 73.3482  28
   6   6  -7 944.031 82.3821  33
  -6  -6   6 217.961 33.6423  28
   6   6  -6 180.700 49.7732  21
   6   6  -6 186.593 49.2252  33
   6   6  -5 37481.3 561.738  21
   6   6  -5 35561.9 579.618  33
  -6  -6   4 7242.35 240.743  23
   6   6  -3 13132.6 379.750  21
   6   6  -2 18546.4 461.388  21
  -6  -6   1 757.164 64.1978  14
  -6  -6   0 2029.79 101.125  14
  -6  -6  -2 8107.28 183.673  14
   6   7  -6 2663.01 118.918  33
   6   7  -5 3029.10 139.306  33
  -6  -7   4 205.821 25.8842  14
   6   7  -4 179.994 43.3275  33
  -6  -7   3 4845.10 137.950  14
   6   7  -3 3970.84 173.728  33
  -6  -7   2 8403.01 198.620  14
  -6  -7   1 4757.33 129.791  14
  -7  10  -1 132.710 22.0750  17
  -7  10  -2 8629.41 203.560  17
  -7  10  -3 509.562 40.7558  17
  -7   9   3 8260.59 211.420  29
  -7   9   2 298.214 41.6223  29
  -7   9   2 237.907 31.3874   5
  -7   9   1 77.3371 23.7271   5
  -7   9   1 82.8152 29.1499  29
  -7   9   1 54.0708 22.0654  17
  -7   9   0 10442.8 277.276  17
  -7   9   0 10717.3 273.091  27
  -7   9   0 10304.6 264.792   5
  -7   9  -1 716.312 64.3715  29
  -7   9  -1 641.528 63.9537  17
  -7   9  -1 777.519 66.0625  27
  -7   9  -1 667.353 57.6086   5
  -7   9  -2 24091.4 499.689  17
  -7   9  -2 24876.7 486.160  27
  -7   9  -3 1471.00 82.6043   5
  -7   9  -4 16326.4 344.437  17
  -7   9  -4 13343.1 302.782   5
  -7   9  -5 7290.44 189.431  17
  -7   8   5 1178.71 69.1756  29
  -7   8   4 542.522 56.6062  29
  -7   8   3 29126.0 595.185  29
  -7   8   2 1597.77 96.1263  27
  -7   8   1 21162.2 498.857  29
  -7   8   1 21735.9 475.564  27
  -7   8   0 10742.6 320.991  29
  -7   8   0 11127.9 312.676  27
  -7   8   0 10876.0 322.980   5
  -7   8  -1 354.052 56.5399  29
  -7   8  -1 512.974 63.4340   5
  -7   8  -2 6996.51 226.502  29
  -7   8  -2 7100.62 235.615  27
  -7   8  -2 7203.03 249.298   5
  -7   8  -3 3853.29 159.542  27
  -7   8  -3 3985.55 173.163   5
  -7   8  -4 21643.1 472.469  17
  -7   8  -4 20637.1 436.701  27
  -7   8  -4 21333.2 469.516   5
  -7   8  -5 1920.13 99.9846  17
  -7   8  -5 2073.08 108.830   5
  -7   8  -7 5215.72 139.235   1
  -7   7   6 8234.91 225.308  29
  -7   7   5 6487.17 218.965  29
  -7   7   4 1752.02 116.916  29
  -7   7   3 599.380 64.6707  27
  -7   7   2 230.845 55.7216  29
  -7   7   2 340.738 65.5782  28
  -7   7   2 306.449 52.1870  27
  -7   7   1 27726.5 635.537  29
  -7   7   1 28426.5 612.960  27
  -7   7   0 10006.2 324.404  29
  -7   7   0 9852.60 314.309  27
  -7   7  -1 9950.41 314.002  29
  -7   7  -1 9944.46 333.663   5
  -7   7  -2 43292.9 824.497  29
  -7   7  -2 44185.3 852.394  27
  -7   7  -2 45091.3 890.238   5
  -7   7  -3 452.558 59.6360  27
  -7   7  -3 475.689 69.2851   5
  -7   7  -4 401.501 52.2232  27
  -7   7  -4 457.008 63.5786   5
  -7   7  -5 193.038 37.6051  17
  -7   7  -5 300.688 49.6656   5
  -7   7  -6 11795.1 303.728   5
  -7   6   7 1416.97 85.2947  29
   7  -6  -7 990.285 59.9632  16
  -7   6   6 7219.88 237.023  29
  -7   6   6 7017.81 221.742  28
   7  -6  -6 6508.45 190.399  16
  -7   6   5 2316.57 139.080  29
  -7   6   5 2156.70 132.571  28
  -7   6   4 9645.08 319.810  28
  -7   6   4 8649.28 264.072  27
  -7   6   3 23091.0 567.207  29
  -7   6   3 23132.8 579.819  28
  -7   6   3 23105.5 524.361  27
  -7   6   2 224.052 60.9194  29
  -7   6   2 179.773 60.2147  28
  -7   6   2 289.904 53.8926  27
  -7   6   1 3276.92 183.136  29
  -7   6   1 3191.79 172.246  27
  -7   6   0 144.483 48.7538  29
  -7   6   0 50.5867 49.4618  28
  -7   6   0 116.648 41.7287  27
  -7   6  -1 28912.9 670.905   5
  -7   6  -1 26906.9 614.142  29
  -7   6  -1 28872.6 685.308  28
  -7   6  -2 7242.93 251.764  27
  -7   6  -2 7134.58 271.441   5
  -7   6  -3 31410.9 647.050  27
  -7   6  -3 29480.6 635.992  12
  -7   6  -3 31397.8 690.014   5
  -7   6  -4 35467.4 694.084  27
  -7   6  -4 35298.8 721.306  12
  -7   6  -4 37174.5 755.750   5
  -7   6  -5 335.491 42.2491  27
  -7   6  -5 193.938 45.3632  12
  -7   6  -5 265.846 50.0192   5
  -7   6  -6 3842.44 163.921  12
  -7   6  -6 3943.82 165.358   5
  -7   6  -7 34.2154 16.3366   9
  -7   6  -8 2960.68 108.074   1
  -7   5   8 28152.4 540.945  29
   7  -5  -8 28064.7 529.690  16
  -7   5   7 1132.30 88.7321  29
  -7   5   7 1177.59 84.0509  28
   7  -5  -7 1129.29 83.7737  16
  -7   5   6 1259.37 103.405  29
  -7   5   6 1281.40 102.329  28
   7  -5  -6 1250.67 95.7269  16
  -7   5   5 4308.65 204.247  28
   7  -5  -5 4071.09 177.201  16
  -7   5   5 3956.91 165.278  27
  -7   5   4 9814.95 334.020  29
  -7   5   4 10133.8 347.192  28
  -7   5   4 10264.6 307.300  27
  -7   5   3 20528.9 534.298  29
  -7   5   3 21690.5 561.332  28
  -7   5   3 20257.4 501.228  27
  -7   5   2 10570.0 356.561  29
  -7   5   2 11298.4 348.132  27
  -7   5   1 42669.2 878.681  29
  -7   5   1 42063.3 913.807  28
  -7   5   1 42821.7 872.231  27
  -7   5   0 752.927 86.7360  29
  -7   5   0 627.726 92.2872  28
  -7   5  -1 3202.20 164.151  29
  -7   5  -1 3342.45 195.862  28
  -7   5  -1 3368.23 180.083  27
  -7   5  -2 1802.23 136.167  28
  -7   5  -2 1844.65 127.951  27
  -7   5  -2 1480.58 112.377  12
  -7   5  -3 1536.11 112.077  27
  -7   5  -3 1471.48 115.485  12
  -7   5  -4 3205.94 152.167   9
  -7   5  -4 3286.36 153.733  27
  -7   5  -4 3532.79 178.705  12
  -7   5  -5 10028.6 291.139   9
  -7   5  -5 10397.3 321.034  12
  -7   5  -5 9872.12 310.704   5
  -7   5  -6 26608.2 551.894   9
  -7   5  -6 27978.6 589.841  12
  -7   5  -6 27235.4 571.485   5
  -7   5  -7 949.020 77.1010  12
  -7   5  -7 992.803 70.9439   9
  -7   5  -8 4677.34 143.913   1
  -7   5  -8 4714.80 139.621   9
  -7   4   9 4163.55 144.298  29
   7  -4  -9 4323.00 150.466  16
  -7   4   8 7812.64 239.697  29
  -7   4   8 7609.28 220.064  28
   7  -4  -8 8259.38 250.262  16
  -7   4   7 7064.80 248.742  29
  -7   4   7 7101.29 243.917  28
  -7   4   6 24022.8 565.324  29
  -7   4   6 24220.2 568.076  28
  -7   4   5 153.730 52.4845  28
  -7   4   4 17185.6 473.707  29
  -7   4   4 18172.0 498.473  28
  -7   4   4 17592.9 449.712  27
  -7   4   3 5035.69 230.592  29
  -7   4   3 5120.76 222.070  27
  -7   4   3 4950.88 240.941  18
  -7   4   2 1929.73 139.283  29
  -7   4   2 1890.85 148.339  28
  -7   4   2 2104.29 142.938  27
  -7   4   2 1880.41 294.912   7
  -7   4   2 2014.24 155.155  18
  -7   4   1 12515.8 378.954  29
  -7   4   1 13296.1 420.398  28
  -7   4   1 12251.2 383.884  27
  -7   4   1 12467.7 754.671   7
  -7   4   1 12491.0 416.956  18
  -7   4   0 67.2262 35.9541  29
  -7   4   0 101.106 48.4459  28
  -7   4   0 175.806 108.382   7
  -7   4  -1 56457.3 1021.47  29
  -7   4  -1 59291.8 1123.39  28
  -7   4  -1 58891.7 1095.09  27
  -7   4  -1 57046.8 1056.73  12
  -7   4  -1 56274.9 1140.60  18
  -7   4  -1 58409.5 1121.58   5
  -7   4  -2 4132.40 180.290   9
  -7   4  -2 4254.18 202.766  28
  -7   4  -2 4549.94 204.924  27
  -7   4  -2 4248.17 200.536  12
  -7   4  -2 4245.74 221.919  18
  -7   4  -2 4259.32 213.245   5
  -7   4  -3 12198.0 352.546   9
  -7   4  -3 12814.3 361.561  27
  -7   4  -3 12736.9 380.908  12
  -7   4  -3 12938.6 389.539   5
  -7   4  -4 4890.89 208.058   9
  -7   4  -4 5049.59 223.385  12
  -7   4  -4 5506.12 227.486   5
  -7   4  -5 877.198 84.7573   9
  -7   4  -5 880.648 90.7412  12
  -7   4  -5 810.578 83.1144   5
  -7   4  -6 3881.19 172.191   9
  -7   4  -6 4256.96 187.904  12
  -7   4  -7 31.5105 25.4608  12
  -7   4  -7 14.7791 19.9108   1
  -7   4  -8 14356.6 301.857   1
  -7   4  -8 15903.4 322.644   9
  -7   3  10 554.893 44.2098  29
   7  -3 -10 549.727 49.2965  16
  -7   3   9 10494.1 257.029  28
   7  -3  -9 11337.2 265.538  15
  -7   3   8 373.642 56.5728  29
  -7   3   8 450.516 58.2042  28
   7  -3  -8 532.892 55.8547  15
  -7   3   7 307.596 57.4502  29
  -7   3   7 255.225 52.9919  28
   7  -3  -7 215.133 41.6549  15
  -7   3   6 1423.17 118.108  28
  -7   3   5 360.176 66.4351  29
  -7   3   5 415.559 71.3845  28
  -7   3   5 448.506 69.8188  18
  -7   3   4 45814.7 923.215  29
  -7   3   4 45698.9 900.644  27
  -7   3   4 43644.8 930.243  18
  -7   3   3 6550.46 261.049  29
  -7   3   3 6163.77 251.864  27
  -7   3   3 6254.70 520.191   7
   7  -3  -3 5451.23 499.299  20
  -7   3   3 6755.05 282.243  18
  -7   3   2 29052.4 649.325  29
  -7   3   2 28721.3 679.779  28
  -7   3   2 28647.5 657.591  27
  -7   3   2 29243.2 699.436  18
  -7   3   1 1671.51 120.220  29
  -7   3   1 1712.16 138.755  28
  -7   3   1 1832.33 136.747  27
  -7   3   1 1593.38 272.170   7
  -7   3   1 1877.99 150.019  18
  -7   3   0 43.8179 32.0490  29
  -7   3   0 91.1592 46.5647  28
  -7   3   0 72.9999 82.1820   7
  -7   3   0 71.4548 33.2026  12
  -7   3  -1 5725.08 240.105  28
  -7   3  -1 5696.33 240.424  27
  -7   3  -1 5585.65 232.934  12
   7  -3   1 6160.76 539.042  20
  -7   3  -1 6159.80 270.741  18
  -7   3  -1 6441.07 263.124   5
  -7   3  -2 175.473 49.5920   5
  -7   3  -2 173.750 45.3361  28
  -7   3  -2 81.2395 39.8118  27
  -7   3  -2 115.852 43.1057  12
  -7   3  -2 66.7682 43.9176  18
  -7   3  -3 18391.5 475.856   9
  -7   3  -3 18398.3 489.592  12
  -7   3  -3 18953.3 487.197   5
  -7   3  -3 18568.7 488.435  18
  -7   3  -4 2084.61 138.034   9
  -7   3  -4 2143.37 143.989  12
  -7   3  -4 2527.24 146.540   5
  -7   3  -5 11494.5 344.661   9
  -7   3  -5 11746.6 353.318  12
  -7   3  -5 11439.0 326.633   5
  -7   3  -6 6715.72 235.963   9
  -7   3  -6 6771.35 242.172  12
  -7   3  -7 203.064 39.4929   9
  -7   3  -7 217.408 42.2918  12
  -7   3  -7 179.464 30.8200   1
  -7   3  -8 658.433 50.9378  12
  -7   3  -8 735.658 53.2353   9
  -7   2  10 1724.95 87.5159  29
   7  -2 -10 1564.92 77.4815  15
  -7   2   9 21783.5 464.751  29
  -7   2   9 21683.3 448.801  28
  -7   2   8 11505.3 327.159  29
  -7   2   8 11363.7 319.405  28
   7  -2  -8 10979.9 303.062  15
  -7   2   7 36411.6 749.072  28
  -7   2   6 7107.84 269.817  29
  -7   2   6 7156.85 271.505  28
  -7   2   6 6798.95 255.189  18
  -7   2   5 9486.17 322.007  29
  -7   2   5 10081.8 342.167  28
  -7   2   5 9608.18 327.671  18
  -7   2   4 102.167 45.4435  29
   7  -2  -4 14.3029 59.4877  20
  -7   2   3 903.362 93.8494  29
  -7   2   3 996.098 103.644  28
  -7   2   3 823.209 185.725   7
   7  -2  -3 1036.72 227.044  20
  -7   2   3 992.098 107.484  18
  -7   2   2 30234.4 650.106  29
  -7   2   2 29696.3 684.846  28
  -7   2   2 30778.5 719.505  18
  -7   2   1 14793.0 383.946  29
  -7   2   1 15484.0 434.202  28
  -7   2   1 13279.2 766.887   7
   7  -2  -1 14611.9 841.374  20
  -7   2   0 8529.48 298.281  28
   7  -2   0 9383.51 665.660  20
  -7   2   0 8517.84 322.343  18
  -7   2   0 8545.23 303.155   5
  -7   2  -1 28541.0 626.470  28
   7  -2   1 31183.6 1277.61  20
  -7   2  -1 29820.3 656.848   5
  -7   2  -1 29241.1 685.547  18
  -7   2  -2 1528.62 116.542   5
  -7   2  -2 1636.35 129.004  18
  -7   2  -3 1055.70 93.6300   5
  -7   2  -3 1120.45 100.731  18
  -7   2  -4 857.259 90.9385  12
  -7   2  -4 583.465 67.9063   5
  -7   2  -5 26608.0 597.900   9
  -7   2  -5 27555.1 606.959  12
  -7   2  -6 11273.9 312.680   9
  -7   2  -6 11552.1 318.682  12
  -7   2  -7 4524.19 163.599   9
  -7   2  -8 7099.80 173.648   9
  -7   2  -8 6651.27 165.219  12
  -7   1  10 3185.53 128.674  29
   7  -1 -10 3164.68 121.643  15
  -7   1   9 1649.74 102.922  29
  -7   1   9 1621.98 99.4452  28
  -7   1   8 2865.08 148.854  28
   7  -1  -8 2566.05 132.203  35
  -7   1   7 10769.7 328.638  29
  -7   1   7 10357.1 325.028  28
  -7   1   7 9988.67 295.702  18
  -7   1   6 2118.37 139.981  29
  -7   1   6 2632.16 158.523  28
  -7   1   6 2336.91 144.108  18
  -7   1   5 10872.9 342.437  29
  -7   1   5 11661.9 363.770  18
  -7   1   4 21964.9 527.693  29
  -7   1   4 21306.5 544.815  28
   7  -1  -4 21448.4 1024.53  20
  -7   1   4 21973.3 559.466  18
  -7   1   3 113.176 42.1215  29
  -7   1   3 97.3527 44.7364  28
  -7   1   3 67.7337 47.4172  18
  -7   1   2 4480.09 188.986  29
  -7   1   2 4689.12 215.716  28
  -7   1   2 5096.89 239.369  18
  -7   1   1 74.5491 34.5379   5
  -7   1   1 16.6826 29.8648  28
   7  -1  -1 47.2678 80.2250  20
  -7   1   0 23207.0 530.842  28
  -7   1   0 22914.3 544.179  14
  -7   1   0 22166.4 519.146   5
  -7   1   0 23542.4 584.740  18
  -7   1  -1 14723.7 417.297  14
  -7   1  -1 14715.7 384.203   5
  -7   1  -1 15316.4 436.754  18
  -7   1  -2 14401.1 409.221  14
  -7   1  -2 13602.3 392.450  13
  -7   1  -2 13357.4 354.204   5
  -7   1  -2 13611.5 397.006  18
  -7   1  -3 33996.7 589.664  13
  -7   1  -3 33625.0 548.962  18
  -7   1  -4 2217.72 135.364  13
  -7   1  -4-1.61087 16.4079  18
  -7   1  -5 8959.30 254.538   9
  -7   1  -5 9207.44 259.607  12
  -7   1  -6 478.283 56.7437   9
  -7   1  -7 1723.93 87.2982   9
  -7   1  -7 1659.22 84.7957  12
  -7   0  11 5826.20 152.532  29
   7   0 -11 5340.93 142.967  15
  -7   0  10 8178.19 224.163  29
  -7   0  10 7614.52 207.834  28
  -7   0   9 23584.6 496.902  28
   7   0  -9 24532.3 506.201  35
  -7   0   8 1682.83 111.932  28
  -7   0   7 7738.68 271.352  29
  -7   0   7 8493.84 283.375  28
  -7   0   7 8135.23 261.879  18
  -7   0   6 566.076 72.9086  29
  -7   0   6 467.860 67.3912  18
  -7   0   5 9283.39 299.481  29
  -7   0   5 8853.74 306.309  28
  -7   0   5 9126.30 313.734  18
  -7   0   4 14643.2 388.697  29
  -7   0   4 14093.8 405.865  28
  -7   0   3 9445.71 286.151  29
  -7   0   3 9588.52 313.693  28
   7   0  -3 9518.49 679.636  20
  -7   0   3 9316.73 624.096  19
  -7   0   2 43011.8 852.053  28
   7   0  -2 44136.3 1544.27  20
  -7   0   2 41183.0 1413.03  19
  -7   0   1 446.585 63.9837  28
  -7   0   1 528.324 67.6389  14
   7   0  -1 292.875 138.577  20
  -7   0   1 378.790 131.303  19
  -7   0   0 12555.0 327.586  28
  -7   0   0 12824.7 371.072  14
  -7   0   0 12710.9 349.394  13
  -7   0  -1 561.494 73.9766  14
  -7   0  -1 550.734 69.6344  13
  -7   0  -1 654.017 80.5856  18
  -7   0  -2 14171.3 401.917  14
  -7   0  -2 13974.2 388.596  13
  -7   0  -2 14046.5 385.561  18
  -7   0  -3 3359.78 174.413  14
  -7   0  -3 3662.19 175.956  13
  -7   0  -4 5670.30 216.514  13
  -7   0  -5 24251.2 514.308  13
  -7   0  -7 5564.14 144.390   9
  -7  -1  11 83.2966 18.8306  29
   7   1 -11 63.8739 16.6615  15
  -7  -1  10 1064.78 71.4802  29
  -7  -1  10 1034.99 68.5917  28
  -7  -1   9 4733.10 175.024  28
   7   1  -9 4832.05 192.837  35
  -7  -1   8 8343.10 262.231  29
  -7  -1   8 8565.63 265.907  28
  -7  -1   7 22984.1 515.647  29
  -7  -1   7 22212.7 517.971  28
   7   1  -7 22736.6 528.092  21
  -7  -1   7 22967.5 505.578  18
  -7  -1   6 193.244 46.1952  29
  -7  -1   6 167.032 45.8114  18
  -7  -1   5 20148.1 472.387  29
  -7  -1   5 20214.2 496.879  28
  -7  -1   4 95.6130 33.8663  29
  -7  -1   4 149.000 43.0426  28
  -7  -1   3 269.168 44.1475  29
  -7  -1   3 2387.68 136.125  28
  -7  -1   2 8037.04 262.344  28
  -7  -1   2 7903.82 255.516  14
  -7  -1   1 7758.97 241.829  28
  -7  -1   1 8461.07 274.995  14
  -7  -1   0 52199.2 961.919  14
  -7  -1   0 48925.5 910.815  13
  -7  -1  -1 7801.17 271.401  14
  -7  -1  -1 7404.43 250.929  13
  -7  -1  -2 37242.9 748.841  14
  -7  -1  -2 37040.3 726.808  13
   7   1   2 36545.0 741.426  21
  -7  -1  -2 35130.5 702.385  18
  -7  -1  -3 9755.13 264.822  14
  -7  -1  -3 9727.95 253.571  13
  -7  -1  -4 734.758 68.6371  13
  -7  -1  -5 3856.30 143.532  13
  -7  -1  -6 312.771 32.6908   9
  -7  -1  -6 358.358 34.5168  12
  -7  -2  11 235.232 25.7098  29
  -7  -2  10 8240.80 210.211  28
  -7  -2   9 5546.85 183.992  29
  -7  -2   9 5579.08 185.194  28
   7   2  -9 6022.28 215.610  35
  -7  -2   8 5315.47 188.830  29
  -7  -2   8 5223.03 191.663  28
   7   2  -7 16772.6 434.002  21
  -7  -2   7 17542.2 412.456  18
  -7  -2   6 146.963 38.4146  29
  -7  -2   6 157.610 42.2400  28
   7   2  -6 165.222 53.7573  21
  -7  -2   5 19330.1 438.377  29
  -7  -2   5 20448.8 476.175  28
   7   2  -5 20761.6 536.439  21
  -7  -2   4 4.92011 17.3949  29
  -7  -2   4 9228.56 251.182  28
  -7  -2   3 17615.6 411.935  28
  -7  -2   3 16537.4 387.068  14
  -7  -2   2 6436.19 212.380  28
  -7  -2   2 8014.13 249.780  14
  -7  -2   1 690.465 72.9132  14
  -7  -2   0 1272.14 98.7800  14
  -7  -2   0 940.015 74.5970  13
   7   2   0 1227.12 115.654  21
  -7  -2  -1 706.378 73.2052  14
  -7  -2  -1 699.535 66.4054  13
   7   2   1 666.879 82.6113  21
  -7  -2  -2 17563.6 340.552  14
  -7  -2  -2 16095.9 300.424  13
  -7  -2  -3 329.890 47.6766  14
  -7  -2  -3 318.262 43.3049  13
  -7  -2  -4 9039.52 232.053  13
  -7  -2  -5 8031.91 194.233   9
  -7  -2  -5 8450.56 198.857  12
  -7  -3  10 15576.3 309.547  29
  -7  -3  10 16106.5 314.698  28
  -7  -3   9 2539.74 105.880  29
  -7  -3   9 2602.33 110.818  28
  -7  -3   8 31824.5 590.599  29
  -7  -3   7 20459.9 425.161  29
  -7  -3   7 20425.7 446.413  28
   7   3  -7 19827.4 470.227  21
  -7  -3   6 91.4369 27.3974  29
  -7  -3   6 75.8161 30.9724  28
   7   3  -6 85.9324 43.1329  21
  -7  -3   5 4515.43 162.366  28
   7   3  -5 4489.05 203.202  21
  -7  -3   4 83.8669 30.4574  28
  -7  -3   3 29329.4 386.244  14
   7   3  -3 31570.8 547.383  21
  -7  -3   2 6624.55 221.055  14
   7   3  -2 7545.93 283.980  21
  -7  -3   1 15745.6 387.976  14
   7   3  -1 16997.2 453.790  21
  -7  -3   0 20497.8 467.780  14
   7   3   0 22899.6 530.686  21
  -7  -3  -1 1767.76 102.961  14
  -7  -3  -1 1435.66 80.6513  13
   7   3   1 1574.60 106.564  21
  -7  -3  -1 1684.73 91.0317  18
  -7  -3  -2 557.662 54.6131  14
  -7  -3  -2 240.741 33.3878  13
  -7  -3  -3 1968.70 92.8063  14
  -7  -3  -3 1594.60 75.6464  13
  -7  -3  -4 4745.93 129.180   9
  -7  -4   9 97.8721 18.1289  29
  -7  -4   8 9065.55 210.086  29
  -7  -4   8 9940.88 236.870  28
  -7  -4   7 10101.3 251.924  28
  -7  -4   6 9434.66 244.103  28
   7   4  -6 9731.83 296.090  21
  -7  -4   5 11115.9 268.942  28
   7   4  -5 12109.8 349.875  21
  -7  -4   4-2.28981 11.1616  28
   7   4  -4 28.5778 26.1540  33
  -7  -4   3 2478.75 108.291  14
   7   4  -3 2749.28 155.874  21
  -7  -4   2 55.9144 21.9161  14
   7   4  -2 107.920 42.3888  21
  -7  -4   1 5203.99 175.325  14
   7   4  -1 5722.63 218.092  21
  -7  -4   0 13931.7 318.081  14
  -7  -4  -1 4804.13 154.308  14
  -7  -4  -2 11105.4 245.439  14
  -7  -5   7 509.413 36.9008  28
  -7  -5   7 413.700 33.9661  18
   7   5  -4 1676.14 86.3366  33
  -7  -5   3 19748.8 303.890  14
   7   5  -3 9576.27 295.871  33
  -7  -5   2 40.0992 15.3959  14
   7   5  -2-1.60013 19.0117  33
  -7  -5   1 2437.93 91.2117  14
  -7  -5   0 131.592 20.3328  14
  -8   8   2 1884.73 77.5376  29
  -8   8   2 1780.00 78.3452   5
  -8   8   1 5962.17 157.418  29
  -8   8   1 6592.74 175.619   5
  -8   8   0 10401.7 245.433   5
  -8   8  -1 14705.6 313.125   5
  -8   8  -2 1837.47 83.2691  17
  -8   8  -2 1920.43 85.4608   5
  -8   8  -3 926.005 54.5351   5
  -8   7   4 21442.2 413.086  29
  -8   7   3 101.669 26.5708  29
  -8   7   2 6668.86 197.565  29
  -8   7   2 6954.97 213.520   5
  -8   7   1 141.827 32.7291   5
  -8   7   1 108.092 28.0992  29
  -8   7   0 607.579 56.9942  27
  -8   7   0 702.661 64.4918   5
  -8   7  -1 2069.18 102.781  27
  -8   7  -1 1996.24 108.608   5
  -8   7  -2 499.684 52.8910   5
  -8   7  -3 18653.6 372.369  17
  -8   7  -3 20094.9 405.973   5
  -8   7  -4 1815.52 85.7847   5
  -8   6   6 5280.59 147.193  29
  -8   6   4 2451.25 116.223  29
  -8   6   4 2321.41 118.521  28
  -8   6   3 1279.96 87.2472  29
  -8   6   3 1483.56 99.9623  28
  -8   6   2 23406.6 489.002  29
  -8   6   2 23449.3 482.526  27
  -8   6   1 1897.05 103.198  29
  -8   6   1 1902.60 108.653  27
  -8   6   0 4.16030 13.7229  29
  -8   6  -1 2158.33 114.186  27
  -8   6  -2 793.807 66.0380  27
  -8   6  -3 1800.60 85.3642  17
  -8   5   7 16400.9 324.835  29
  -8   5   6 3326.15 127.517  28
  -8   5   5 21966.5 468.941  29
  -8   5   5 22832.5 480.136  28
  -8   5   4 8745.47 259.311  29
  -8   5   4 8850.22 272.198  28
  -8   5   3 925.488 79.0001  29
  -8   5   2 663.965 66.6061  29
  -8   5   2 682.084 77.0347  28
  -8   5   2 620.871 65.8369  27
  -8   5   1 204.546 38.7013  29
  -8   5   1 212.978 49.8410  28
  -8   5   1 301.584 49.5948  27
  -8   5   1 236.303 45.7411   5
  -8   5   0 16831.5 348.196  28
  -8   5   0 16943.8 344.175   5
  -8   5  -1 6900.77 227.347  27
  -8   5  -1 7101.18 240.209   5
  -8   5  -2 14788.0 368.790   5
  -8   5  -3 7274.55 224.355   5
  -8   5  -4 30.5780 20.5991   5
  -8   4   8 838.603 49.7863  29
  -8   4   7 638.696 52.4949  28
  -8   4   6 414.910 50.9732  29
  -8   4   6 387.903 50.8558  28
  -8   4   5 10977.4 301.613  29
  -8   4   5 11766.9 319.753  28
  -8   4   4 5793.07 207.186  29
  -8   4   3 16498.1 402.430  29
  -8   4   3 17737.6 439.644  28
  -8   4   2 19521.0 441.141  29
  -8   4   2 20262.4 487.902  28
  -8   4   1 180.701 43.2487   5
  -8   4   1 159.947 44.8867  28
  -8   4   0 9507.18 290.642  28
  -8   4   0 9257.77 284.796   5
  -8   4  -1 4701.19 179.672  28
  -8   4  -1 5528.02 202.733   5
  -8   4  -2 19346.8 414.385  12
  -8   4  -2 22228.3 464.717   5
  -8   4  -3 23437.4 480.791  12
  -8   4  -3 25889.7 507.862   5
  -8   4  -4 6586.39 193.358  12
  -8   4  -5 21793.6 419.591  12
  -8   3   8 7834.57 197.989  29
  -8   3   8 7341.93 182.798  28
  -8   3   7 21186.3 437.044  29
  -8   3   7 21645.5 442.162  28
  -8   3   6 898.017 73.5768  29
  -8   3   6 826.571 74.5448  28
  -8   3   5 50.7344 29.2574  29
  -8   3   5 61.5968 34.2026  28
  -8   3   4 46.2804 29.0138  29
  -8   3   4 281.266 50.9615  18
  -8   3   3 4486.22 175.571  29
  -8   3   3 4704.75 201.791  28
  -8   3   3 4523.12 200.744  18
  -8   3   2 8808.19 259.093  28
  -8   3   2 8216.19 262.627  18
  -8   3   2 8615.28 233.631   5
  -8   3   1 17064.9 424.029  28
  -8   3   1 16374.1 400.190   5
  -8   3   0 24361.3 519.705  28
  -8   3   0 23949.9 513.758   5
  -8   3   0 23429.6 552.348  18
  -8   3  -1 1763.19 91.7649  12
  -8   3  -1 1716.12 101.061   5
  -8   3  -1 1813.92 118.044  18
  -8   3  -2 9025.66 251.155  12
  -8   3  -2 9320.73 255.556   5
  -8   3  -3 263.550 36.9059   9
  -8   3  -3 303.351 43.4165  12
  -8   3  -3 284.154 38.8784   5
  -8   3  -4 5342.03 161.520   9
  -8   3  -4 5551.64 177.801  12
  -8   3  -5 2046.46 83.4204   9
  -8   3  -5 2285.39 97.5835  12
  -8   2   9 221.150 25.4928  29
  -8   2   8 2552.90 105.286  28
  -8   2   7 12373.2 301.312  29
  -8   2   7 12252.6 306.984  28
  -8   2   6 9037.66 258.539  29
  -8   2   6 9710.11 278.192  28
  -8   2   5 37589.3 706.777  29
  -8   2   5 37074.7 722.869  18
  -8   2   4 906.850 74.0010  29
  -8   2   4 859.473 82.1873  28
  -8   2   4 890.225 83.6595  18
  -8   2   3 3361.34 132.611  29
  -8   2   3 12824.5 304.963  28
  -8   2   3 12356.5 310.793  18
  -8   2   2 1842.38 116.145  28
  -8   2   2 1973.60 129.212  18
  -8   2   1 1.67932 13.9646   5
  -8   2   1 198.722 43.6475  28
  -8   2   0 6.33330 13.7033   5
  -8   2   0 1.70178 15.2840  28
  -8   2  -1 4178.47 141.041   9
  -8   2  -1 4061.21 142.903  12
  -8   2  -1 4289.63 173.209  18
  -8   2  -2 25800.7 352.434   9
  -8   2  -2 24980.8 359.986  12
  -8   2  -2 24887.0 379.769  18
  -8   2  -3 4923.36 166.530   9
  -8   2  -3 5054.77 174.074  12
  -8   2  -4 7886.52 209.523   9
  -8   2  -4 7890.45 216.786  12
  -8   2  -5 2013.12 82.7332   9
  -8   2  -5 2114.12 89.1869  12
  -8   1   8 1211.34 71.6700  29
  -8   1   8 1443.45 79.4633  28
  -8   1   7 5363.47 176.159  29
  -8   1   7 5782.65 189.781  28
  -8   1   6 180.854 37.2921  29
  -8   1   6 263.643 42.5903  18
  -8   1   5 6002.07 197.771  29
  -8   1   5 6263.09 218.494  18
  -8   1   4 1172.30 91.7270  28
  -8   1   4 1067.22 91.3850  18
  -8   1   3 33985.8 470.571  28
  -8   1   3 34401.7 512.031  18
  -8   1   2 543.193 62.1069  28
  -8   1   2 415.170 63.5512  18
  -8   1   1-3.41683 17.3959  28
  -8   1   0 9413.07 250.844  12
  -8   1   0 10573.5 306.224  18
  -8   1  -1 145.250 32.9080  12
  -8   1  -1 275.842 47.1134  18
  -8   1  -2 1736.14 97.2662  12
  -8   1  -2 1598.58 91.8636  18
  -8   1  -3 2379.96 109.217   9
  -8   1  -3 2373.33 109.882  12
  -8   1  -4 13397.7 293.997   9
  -8   1  -4 13709.5 298.245  12
  -8   1  -5 1545.27 66.0682  12
  -8   0   9 370.619 31.6721  29
  -8   0   9 353.433 31.6896  28
  -8   0   8 35334.1 626.131  29
  -8   0   8 37697.5 644.453  28
  -8   0   7 5217.65 163.998  29
  -8   0   6 13558.1 311.026  29
  -8   0   6 14141.5 340.293  28
  -8   0   6 13598.6 324.636  18
  -8   0   5 6915.33 200.570  28
  -8   0   5 6572.58 199.286  18
  -8   0   4 212.190 40.6254  28
  -8   0   4 234.228 47.8774  18
  -8   0   3 208.394 39.9585  28
  -8   0   3 177.139 46.3822  18
  -8   0   2 9.54537 16.6437  28
  -8   0   1 10869.0 311.901  18
  -8   0   0 3218.53 148.428  18
   8   0   1 14747.7 369.427  21
  -8   0  -1 12860.7 320.832  18
  -8   0  -2 3106.53 124.572  12
  -8   0  -3 1531.76 80.8668   9
  -8   0  -3 1556.33 80.5872  12
  -8   0  -4 755.741 47.4809   9
  -8   0  -4 686.406 45.2524  12
  -8  -1   8 1580.46 68.8456  29
  -8  -1   8 1845.34 83.0874  28
  -8  -1   7 867.036 54.1731  29
  -8  -1   7 951.821 65.4771  28
  -8  -1   7 737.868 48.0854  18
  -8  -1   6 16425.0 277.839  28
  -8  -1   6 15592.5 261.478  18
  -8  -1   5 7148.76 211.333  28
   8   1  -5 7043.87 237.935  21
  -8  -1   5 7066.03 220.766  18
  -8  -1   4 16837.5 374.596  28
  -8  -1   4 17589.9 408.482  18
  -8  -1   3 4.04317 12.9456  28
  -8  -1   3 19487.0 346.355  18
   8   1  -2 97.2001 40.8129  21
   8   1  -1 78.0299 36.3504  21
  -8  -1   1 156.292 37.3042  18
   8   1   0 346.975 55.5568  21
  -8  -1   0 373.047 46.3505  18
  -8  -1  -1 1815.66 85.1439  18
  -8  -1  -2 12326.7 268.356  12
  -8  -1  -3 5240.87 142.245   9
  -8  -1  -3 5565.19 141.515  12
  -8  -2   7 1205.09 65.2259  28
  -8  -2   6 4608.85 143.438  28
  -8  -2   6 4358.37 140.132  18
  -8  -2   5 1869.26 85.9292  28
  -8  -2   5 2006.20 99.4127  18
   8   2  -4 2732.14 138.148  21
  -8  -2   4 2737.43 123.748  18
   8   2  -3 5107.24 195.078  21
  -8  -2   3 5189.14 178.867  18
   8   2  -2 4957.95 189.217  21
  -8  -2   2 4754.85 167.109  18
  -8  -2   1 17398.7 368.534  18
  -8  -2   0 419.366 39.4121  18
  -8  -3   5 491.551 42.3065  18
  -8  -3   4 9829.92 235.161  18
  -8  -3   2 1238.18 66.8382  18
  -8  -3   1 4006.90 114.342  18
  -9   4   4 65.4313 17.2833  28
  -9   4   3 1842.42 80.4692  28
  -9   3   4 15386.2 308.095  28
  -9   3   3 2171.61 87.3445  28
  -9   2   4 10797.5 231.794  28
  -9   0   3 64.7637 15.9459  18
   0   0   0    0.00    0.00   0

TITL DQ52 in P-1
REM P-1 (#2 in standard setting)
CELL 1.54184   7.313772  10.010458  12.157772 104.7450  96.5968 103.0471
ZERR    1.00   0.000212   0.000279   0.000246   0.0021   0.0021   0.0025
LATT  1
SFAC C H N O Br
UNIT 30.00 40.00 4.00 2.00 4.00
TREF
HKLF 4
END
;
_shelx_hkl_checksum              18784
_olex2_diffrn_ambient_temperature_device 'Oxford Cryosystems'
_olex2_exptl_crystal_mounting_method
'The crystal was mounted on a loop with paratone oil'
_olex2_submission_original_sample_id DQ52
_olex2_submission_special_instructions 'No special instructions were received'
_oxdiff_exptl_absorpt_empirical_details
;
Empirical correction (ABSPACK) includes:
- Absorption correction using spherical harmonics
- Frame scaling
;
_oxdiff_exptl_absorpt_empirical_full_max 1.670
_oxdiff_exptl_absorpt_empirical_full_min 0.742
loop_
_space_group_symop_operation_xyz
'x, y, z'
'-x, -y, -z'
loop_
_atom_site_label
_atom_site_type_symbol
_atom_site_fract_x
_atom_site_fract_y
_atom_site_fract_z
_atom_site_U_iso_or_equiv
_atom_site_adp_type
_atom_site_occupancy
_atom_site_site_symmetry_order
_atom_site_calc_flag
_atom_site_refinement_flags_posn
Br1 Br -0.10010(3) 0.22863(2) 0.64365(2) 0.01977(11) Uani 1 1 d .
Br2 Br 0.51816(3) 0.85555(2) 0.77817(2) 0.01984(11) Uani 1 1 d .
O1 O 0.1428(3) 0.2333(2) 0.88695(16) 0.0302(4) Uani 1 1 d D
N2 N 0.3072(3) 0.2484(2) 0.51005(16) 0.0156(4) Uani 1 1 d .
N1 N 0.4600(3) 0.2456(2) 0.73257(16) 0.0150(4) Uani 1 1 d .
C9 C 0.3055(3) 0.4905(2) 0.5805(2) 0.0159(4) Uani 1 1 d .
H9 H 0.339050 0.576414 0.639514 0.019 Uiso 1 1 calc R
C6 C 0.6555(3) 0.3626(3) 0.9173(2) 0.0187(5) Uani 1 1 d .
C8 C 0.5545(3) 0.4985(3) 0.7953(2) 0.0177(4) Uani 1 1 d .
H8 H 0.553774 0.586309 0.782795 0.021 Uiso 1 1 calc R
C1 C 0.4589(3) 0.3725(2) 0.71085(19) 0.0147(4) Uani 1 1 d .
C7 C 0.6516(3) 0.4937(3) 0.8988(2) 0.0187(5) Uani 1 1 d .
H7 H 0.714315 0.578526 0.955957 0.022 Uiso 1 1 calc R
C2 C 0.3550(3) 0.3712(2) 0.59903(19) 0.0152(4) Uani 1 1 d .
C4 C 0.3767(3) 0.1257(2) 0.52668(19) 0.0176(4) Uani 1 1 d .
H4A H 0.510561 0.141641 0.520800 0.021 Uiso 1 1 calc R
H4B H 0.305412 0.038489 0.467393 0.021 Uiso 1 1 calc R
C3 C 0.3503(3) 0.1112(2) 0.6443(2) 0.0185(5) Uani 1 1 d .
H3A H 0.216091 0.093054 0.649583 0.022 Uiso 1 1 calc R
H3B H 0.395280 0.031367 0.657163 0.022 Uiso 1 1 calc R
C10 C 0.2048(3) 0.4806(3) 0.4726(2) 0.0182(5) Uani 1 1 d .
H10 H 0.176112 0.561509 0.458957 0.022 Uiso 1 1 calc R
C5 C 0.5553(3) 0.2395(3) 0.8315(2) 0.0182(5) Uani 1 1 d .
H5 H 0.553871 0.150683 0.842423 0.022 Uiso 1 1 calc R
C12 C 0.2039(3) 0.2359(3) 0.4076(2) 0.0174(4) Uani 1 1 d .
H12 H 0.169758 0.148399 0.350426 0.021 Uiso 1 1 calc R
C11 C 0.1470(3) 0.3514(3) 0.3854(2) 0.0186(5) Uani 1 1 d .
C14 C 0.0297(4) 0.3327(3) 0.2707(2) 0.0232(5) Uani 1 1 d .
H14A H -0.099791 0.282198 0.267958 0.035 Uiso 1 1 calc GR
H14B H 0.080698 0.278986 0.210187 0.035 Uiso 1 1 calc GR
H14C H 0.032786 0.425035 0.260176 0.035 Uiso 1 1 calc GR
C13 C 0.7659(4) 0.3526(3) 1.0262(2) 0.0247(5) Uani 1 1 d .
H13A H 0.872105 0.315123 1.008164 0.037 Uiso 1 1 calc GR
H13B H 0.683928 0.290077 1.059004 0.037 Uiso 1 1 calc GR
H13C H 0.811777 0.446148 1.080903 0.037 Uiso 1 1 calc GR
C16 C 0.1043(5) 0.0931(4) 0.9008(3) 0.0398(7) Uani 1 1 d .
H16A H 0.145810 0.030976 0.840415 0.060 Uiso 1 1 calc GR
H16B H -0.030365 0.057040 0.896567 0.060 Uiso 1 1 calc GR
H16C H 0.171461 0.096906 0.974591 0.060 Uiso 1 1 calc GR
H1 H 0.068(5) 0.227(5) 0.8154(19) 0.060 Uiso 1 1 d DR
loop_
_atom_site_aniso_label
_atom_site_aniso_U_11
_atom_site_aniso_U_22
_atom_site_aniso_U_33
_atom_site_aniso_U_23
_atom_site_aniso_U_13
_atom_site_aniso_U_12
Br1 0.01681(15) 0.01910(15) 0.02444(16) 0.00793(10) 0.00361(10) 0.00509(10)
Br2 0.02311(16) 0.01452(15) 0.02343(16) 0.00696(10) 0.00494(10) 0.00605(10)
O1 0.0321(10) 0.0288(10) 0.0232(9) 0.0026(8) -0.0015(7) 0.0043(8)
N2 0.0145(9) 0.0158(9) 0.0160(9) 0.0031(7) 0.0023(7) 0.0051(7)
N1 0.0147(9) 0.0144(9) 0.0164(9) 0.0043(7) 0.0028(7) 0.0050(7)
C9 0.0148(10) 0.0157(10) 0.0180(10) 0.0057(8) 0.0034(8) 0.0047(8)
C6 0.0181(11) 0.0237(12) 0.0164(11) 0.0061(9) 0.0047(8) 0.0090(9)
C8 0.0193(11) 0.0155(11) 0.0182(11) 0.0043(9) 0.0032(9) 0.0052(9)
C1 0.0139(10) 0.0155(11) 0.0165(10) 0.0059(8) 0.0040(8) 0.0056(8)
C7 0.0192(11) 0.0182(11) 0.0167(11) 0.0035(9) 0.0015(8) 0.0040(9)
C2 0.0122(10) 0.0158(11) 0.0173(10) 0.0040(8) 0.0026(8) 0.0037(8)
C4 0.0185(11) 0.0154(10) 0.0180(11) 0.0021(8) 0.0010(8) 0.0074(9)
C3 0.0202(11) 0.0139(10) 0.0204(11) 0.0043(9) 0.0006(9) 0.0052(9)
C10 0.0162(11) 0.0193(11) 0.0221(11) 0.0099(9) 0.0036(9) 0.0063(9)
C5 0.0172(11) 0.0184(11) 0.0213(11) 0.0081(9) 0.0040(9) 0.0062(9)
C12 0.0141(10) 0.0201(11) 0.0171(11) 0.0042(9) 0.0020(8) 0.0045(9)
C11 0.0156(11) 0.0228(12) 0.0189(11) 0.0085(9) 0.0028(8) 0.0057(9)
C14 0.0216(12) 0.0266(13) 0.0207(12) 0.0096(10) -0.0014(9) 0.0047(10)
C13 0.0264(13) 0.0284(13) 0.0188(12) 0.0068(10) -0.0011(9) 0.0093(10)
C16 0.0394(17) 0.0394(17) 0.0392(16) 0.0176(14) 0.0037(13) 0.0023(14)
loop_
_atom_type_symbol
_atom_type_description
_atom_type_scat_dispersion_real
_atom_type_scat_dispersion_imag
_atom_type_scat_source
C C 0.0181 0.0091 'International Tables Vol C Tables 4.2.6.8 and 6.1.1.4'
H H 0.0000 0.0000 'International Tables Vol C Tables 4.2.6.8 and 6.1.1.4'
Br Br -0.6763 1.2805 'International Tables Vol C Tables 4.2.6.8 and 6.1.1.4'
N N 0.0311 0.0180 'International Tables Vol C Tables 4.2.6.8 and 6.1.1.4'
O O 0.0492 0.0322 'International Tables Vol C Tables 4.2.6.8 and 6.1.1.4'
loop_
_exptl_crystal_face_index_h
_exptl_crystal_face_index_k
_exptl_crystal_face_index_l
_exptl_crystal_face_perp_dist
-1 0 0 0.0862
1 0 0 0.0964
1 0 -1 0.1011
-1 0 1 0.1163
0 0 -1 0.1085
0 -1 2 0.1432
0 1 -2 0.1337
2 -1 0 0.1048
-2 1 -2 0.1151
-2 1 0 0.0988
2 -1 -2 0.0924
-2 1 2 0.1155
1 -2 -2 0.1081
-1 2 2 0.1226
1 -1 2 0.1230
1 2 0 0.0980
1 -2 7 0.1136
4 3 -4 0.0990
0 -1 8 0.1015
0 1 -8 0.1065
4 -4 0 0.1085
-4 4 1 0.1030
-4 4 3 0.1009
3 -3 -6 0.0903
4 -4 -2 0.0938
2 -6 -1 0.1091
-2 6 0 0.1105
0 3 6 0.1089
-1 -1 -6 0.1079
0 6 -1 0.0973
0 -6 0 0.1165
-2 0 -6 0.1012
2 -1 7 0.1088
-4 -1 0 0.0921
4 1 0 0.0928
loop_
_geom_angle_atom_site_label_1
_geom_angle_atom_site_label_2
_geom_angle_atom_site_label_3
_geom_angle
C16 O1 H1 107(3)
C2 N2 C4 118.29(19)
C12 N2 C2 122.5(2)
C12 N2 C4 119.22(19)
C1 N1 C3 118.47(19)
C5 N1 C1 122.1(2)
C5 N1 C3 119.45(19)
C2 C9 H9 120.3
C2 C9 C10 119.5(2)
C10 C9 H9 120.3
C7 C6 C13 122.1(2)
C5 C6 C7 117.8(2)
C5 C6 C13 120.1(2)
C1 C8 H8 120.1
C1 C8 C7 119.9(2)
C7 C8 H8 120.1
N1 C1 C8 118.6(2)
N1 C1 C2 119.2(2)
C8 C1 C2 122.2(2)
C6 C7 H7 119.8
C8 C7 C6 120.4(2)
C8 C7 H7 119.8
N2 C2 C9 118.5(2)
N2 C2 C1 118.7(2)
C9 C2 C1 122.7(2)
N2 C4 H4A 110.0
N2 C4 H4B 110.0
N2 C4 C3 108.55(18)
H4A C4 H4B 108.4
C3 C4 H4A 110.0
C3 C4 H4B 110.0
N1 C3 C4 108.67(19)
N1 C3 H3A 110.0
N1 C3 H3B 110.0
C4 C3 H3A 110.0
C4 C3 H3B 110.0
H3A C3 H3B 108.3
C9 C10 H10 119.6
C11 C10 C9 120.8(2)
C11 C10 H10 119.6
N1 C5 C6 121.3(2)
N1 C5 H5 119.4
C6 C5 H5 119.4
N2 C12 H12 119.4
N2 C12 C11 121.2(2)
C11 C12 H12 119.4
C10 C11 C12 117.3(2)
C10 C11 C14 123.0(2)
C12 C11 C14 119.7(2)
C11 C14 H14A 109.5
C11 C14 H14B 109.5
C11 C14 H14C 109.5
H14A C14 H14B 109.5
H14A C14 H14C 109.5
H14B C14 H14C 109.5
C6 C13 H13A 109.5
C6 C13 H13B 109.5
C6 C13 H13C 109.5
H13A C13 H13B 109.5
H13A C13 H13C 109.5
H13B C13 H13C 109.5
O1 C16 H16A 109.5
O1 C16 H16B 109.5
O1 C16 H16C 109.5
H16A C16 H16B 109.5
H16A C16 H16C 109.5
H16B C16 H16C 109.5
loop_
_geom_bond_atom_site_label_1
_geom_bond_atom_site_label_2
_geom_bond_distance
O1 C16 1.424(4)
O1 H1 0.954(5)
N2 C2 1.358(3)
N2 C4 1.481(3)
N2 C12 1.341(3)
N1 C1 1.363(3)
N1 C3 1.478(3)
N1 C5 1.341(3)
C9 H9 0.9300
C9 C2 1.386(3)
C9 C10 1.398(3)
C6 C7 1.393(3)
C6 C5 1.381(3)
C6 C13 1.508(3)
C8 H8 0.9300
C8 C1 1.383(3)
C8 C7 1.390(3)
C1 C2 1.474(3)
C7 H7 0.9300
C4 H4A 0.9700
C4 H4B 0.9700
C4 C3 1.503(3)
C3 H3A 0.9700
C3 H3B 0.9700
C10 H10 0.9300
C10 C11 1.388(4)
C5 H5 0.9300
C12 H12 0.9300
C12 C11 1.390(3)
C11 C14 1.496(3)
C14 H14A 0.9600
C14 H14B 0.9600
C14 H14C 0.9600
C13 H13A 0.9600
C13 H13B 0.9600
C13 H13C 0.9600
C16 H16A 0.9600
C16 H16B 0.9600
C16 H16C 0.9600
loop_
_geom_hbond_atom_site_label_D
_geom_hbond_atom_site_label_H
_geom_hbond_atom_site_label_A
_geom_hbond_distance_DH
_geom_hbond_distance_HA
_geom_hbond_distance_DA
_geom_hbond_angle_DHA
_geom_hbond_site_symmetry_A
_geom_hbond_publ_flag
C9 H9 Br2 0.93 2.79 3.695(2) 163.4 . yes
C8 H8 Br2 0.93 2.78 3.699(2) 169.9 . yes
C4 H4B Br1 0.97 2.67 3.608(2) 163.7 2_556 yes
C5 H5 Br2 0.93 2.80 3.672(2) 156.8 1_545 yes
loop_
_geom_torsion_atom_site_label_1
_geom_torsion_atom_site_label_2
_geom_torsion_atom_site_label_3
_geom_torsion_atom_site_label_4
_geom_torsion
N2 C4 C3 N1 -59.5(2)
N2 C12 C11 C10 1.3(3)
N2 C12 C11 C14 -179.2(2)
N1 C1 C2 N2 -17.3(3)
N1 C1 C2 C9 163.3(2)
C9 C10 C11 C12 -4.0(3)
C9 C10 C11 C14 176.5(2)
C8 C1 C2 N2 163.2(2)
C8 C1 C2 C9 -16.2(3)
C1 N1 C3 C4 40.7(3)
C1 N1 C5 C6 0.9(3)
C1 C8 C7 C6 0.9(4)
C7 C6 C5 N1 1.1(4)
C7 C8 C1 N1 1.1(3)
C7 C8 C1 C2 -179.4(2)
C2 N2 C4 C3 43.7(3)
C2 N2 C12 C11 2.9(3)
C2 C9 C10 C11 2.7(3)
C4 N2 C2 C9 174.1(2)
C4 N2 C2 C1 -5.3(3)
C4 N2 C12 C11 -175.5(2)
C3 N1 C1 C8 177.2(2)
C3 N1 C1 C2 -2.3(3)
C3 N1 C5 C6 -178.4(2)
C10 C9 C2 N2 1.4(3)
C10 C9 C2 C1 -179.2(2)
C5 N1 C1 C8 -2.0(3)
C5 N1 C1 C2 178.5(2)
C5 N1 C3 C4 -140.1(2)
C5 C6 C7 C8 -2.0(3)
C12 N2 C2 C9 -4.2(3)
C12 N2 C2 C1 176.3(2)
C12 N2 C4 C3 -137.9(2)
C13 C6 C7 C8 177.4(2)
C13 C6 C5 N1 -178.3(2)
loop_
_exptl_oxdiff_crystal_face_indexfrac_h
_exptl_oxdiff_crystal_face_indexfrac_k
_exptl_oxdiff_crystal_face_indexfrac_l
_exptl_oxdiff_crystal_face_x
_exptl_oxdiff_crystal_face_y
_exptl_oxdiff_crystal_face_z
-0.9989 -0.0014 -0.0028 -0.1681 0.0906 0.1089
0.9989 0.0014 0.0028 0.1681 -0.0906 -0.1089
0.9990 0.0014 -0.9964 0.2164 -0.0905 0.0152
-0.9990 -0.0014 0.9964 -0.2164 0.0905 -0.0152
0.0000 0.0000 -0.9992 0.0483 0.0001 0.1241
0.0004 -0.9995 1.9972 -0.0494 0.1545 -0.2152
-0.0004 0.9995 -1.9972 0.0494 -0.1545 0.2152
1.9984 -0.9967 0.0045 0.3834 -0.0265 -0.1849
-1.9983 0.9967 -2.0029 -0.2868 0.0267 0.4331
-1.9984 0.9967 -0.0045 -0.3834 0.0265 0.1849
1.9985 -0.9966 -1.9940 0.4800 -0.0264 0.0633
-1.9985 0.9966 1.9940 -0.4800 0.0264 -0.0633
1.0000 -1.9974 -1.9980 0.3591 0.2188 0.2053
-1.0000 1.9974 1.9980 -0.3591 -0.2188 -0.2053
0.9994 -0.9981 2.0000 0.1187 0.0639 -0.3242
0.9979 2.0002 0.0052 0.0737 -0.3998 -0.1749
1.3213 -1.6320 7.2460 -0.0506 0.1325 -0.9899
3.5335 2.8438 -3.9175 0.6506 -0.7593 0.0091
-0.1095 -1.0319 7.7974 -0.3466 0.1690 -0.9227
0.1967 1.0286 -7.8132 0.3622 -0.1764 0.9153
4.4128 -3.6981 0.0176 0.9168 0.1731 -0.3599
-4.3831 3.7138 0.6887 -0.9467 -0.1783 0.2685
-4.0343 3.5438 2.8146 -0.9826 -0.1837 -0.0279
2.8076 -2.6729 -5.5476 0.8670 0.1601 0.4720
4.2204 -3.6517 -1.9793 0.9787 0.1835 -0.0925
1.6674 -6.0727 -0.7652 0.6039 0.7889 0.1137
-1.7947 6.1771 0.2840 -0.6070 -0.7935 -0.0436
0.2522 2.8494 5.5419 -0.3595 -0.4641 -0.8095
-0.9209 -1.2108 -6.4315 0.2126 0.2711 0.9388
0.0430 6.2471 -1.1464 -0.2316 -0.9704 -0.0679
-0.2728 -5.9923 0.1751 0.2278 0.9519 0.2051
-1.6181 -0.2891 -6.3993 0.0502 0.1916 0.9802
1.6576 -0.5964 6.7438 -0.0185 -0.0582 -0.9981
-4.1332 -1.4296 -0.0651 -0.6259 0.5950 0.5042
4.1448 1.4836 -0.1555 0.6359 -0.6044 -0.4798
