#------------------------------------------------------------------------------
#$Date: 2019-08-30 03:10:08 +0300 (Fri, 30 Aug 2019) $
#$Revision: 217847 $
#$URL: file:///home/coder/svn-repositories/cod/cif/7/12/40/7124078.cif $
#------------------------------------------------------------------------------
#
# This file is available in the Crystallography Open Database (COD),
# http://www.crystallography.net/
#
# All data on this site have been placed in the public domain by the
# contributors.
#
data_7124078
loop_
_publ_author_name
'Henderson, Alyssa May'
'Dong, Lianyang'
'Biswas, Sananda'
'Revell, Hannah'
'Xin, Yan'
'Valenti, Roser'
'Schlueter, John A.'
'Siegrist, Theo'
_publ_section_title
;
 Order-Disorder Transition in the S = &#x00BD; Kagome Antiferromagnets
 Claringbullite and Barlowite
;
_journal_name_full               'Chemical Communications'
_journal_paper_doi               10.1039/C9CC04930D
_journal_year                    2019
_chemical_formula_moiety         'Cl1 Cu4 F1 O6'
_chemical_formula_sum            'Cl Cu4 F O6'
_chemical_formula_weight         404.63
_chemical_name_systematic        claringbullite
_space_group_IT_number           62
_space_group_name_Hall           '-P 2ac 2n'
_space_group_name_H-M_alt        'P n m a'
_symmetry_cell_setting           orthorhombic
_symmetry_space_group_name_Hall  '-P 2ac 2n'
_symmetry_space_group_name_H-M   'P n m a'
_atom_sites_solution_hydrogens   difmap
_atom_sites_solution_primary     other
_audit_update_record
;
2019-08-13 deposited with the CCDC.    2019-08-28 downloaded from the CCDC.
;
_cell_angle_alpha                90
_cell_angle_beta                 90
_cell_angle_gamma                90
_cell_formula_units_Z            4
_cell_length_a                   11.51330(10)
_cell_length_b                   9.15270(10)
_cell_length_c                   6.67260(10)
_cell_measurement_reflns_used    2013
_cell_measurement_temperature    100
_cell_measurement_theta_max      16
_cell_measurement_theta_min      2
_cell_volume                     703.144(14)
_computing_cell_refinement       'USER DEFINED CELL REFINEMENT'
_computing_data_collection       'USER DEFINED DATA COLLECTION'
_computing_data_reduction        'USER DEFINED DATA REDUCTION'
_computing_molecular_graphics    'CAMERON (Watkin et al., 1996)'
_computing_publication_material  'CRYSTALS (Betteridge et al., 2003)'
_computing_structure_refinement  'CRYSTALS (Betteridge et al., 2003)'
_computing_structure_solution    'USER DEFINED STRUCTURE SOLUTION'
_diffrn_ambient_temperature      100
_diffrn_measured_fraction_theta_full 0.968
_diffrn_measured_fraction_theta_max 0.855
_diffrn_measurement_device       Area
_diffrn_measurement_device_type  'Bruker Kappa Apex2'
_diffrn_measurement_method       \w
_diffrn_radiation_monochromator  graphite
_diffrn_radiation_type           ' Synchrotron'
_diffrn_radiation_wavelength     0.41328
_diffrn_reflns_av_R_equivalents  0.000
_diffrn_reflns_av_unetI/netI     0.041
_diffrn_reflns_limit_h_max       19
_diffrn_reflns_limit_h_min       0
_diffrn_reflns_limit_k_max       16
_diffrn_reflns_limit_k_min       0
_diffrn_reflns_limit_l_max       9
_diffrn_reflns_limit_l_min       0
_diffrn_reflns_number            2016
_diffrn_reflns_theta_full        16.647
_diffrn_reflns_theta_max         22.196
_diffrn_reflns_theta_min         2.051
_diffrn_standards_number         0
_exptl_absorpt_coefficient_mu    2.731
_exptl_absorpt_correction_T_max  0.87
_exptl_absorpt_correction_T_min  0.85
_exptl_absorpt_correction_type   multi-scan
_exptl_absorpt_process_details   'DENZO/SCALEPACK (Otwinowski & Minor, 1997)'
_exptl_crystal_colour            blue
_exptl_crystal_density_diffrn    3.822
_exptl_crystal_density_meas      ?
_exptl_crystal_density_method    'not measured'
_exptl_crystal_description       hex
_exptl_crystal_F_000             760
_exptl_crystal_size_max          0.050
_exptl_crystal_size_mid          0.050
_exptl_crystal_size_min          0.050
_refine_diff_density_max         8.08
_refine_diff_density_min         -5.97
_refine_ls_extinction_method     None
_refine_ls_goodness_of_fit_ref   1.0597
_refine_ls_hydrogen_treatment    noref
_refine_ls_matrix_type           full
_refine_ls_number_parameters     61
_refine_ls_number_reflns         2013
_refine_ls_number_restraints     0
_refine_ls_R_factor_all          0.0943
_refine_ls_R_factor_gt           0.0706
_refine_ls_shift/su_max          0.0008226
_refine_ls_shift/su_mean         0.0000376
_refine_ls_structure_factor_coef Fsqd
_refine_ls_weighting_details
;
 Method= 
 SQRT(W) = 1/(Data with the key SIGMA(/FO/) in list 6) 
;
_refine_ls_weighting_scheme      sigma
_refine_ls_wR_factor_all         0.0712
_refine_ls_wR_factor_gt          0.0694
_refine_ls_wR_factor_ref         0.0712
_reflns_limit_h_max              19
_reflns_limit_h_min              0
_reflns_limit_k_max              16
_reflns_limit_k_min              0
_reflns_limit_l_max              9
_reflns_limit_l_min              0
_reflns_number_gt                1561
_reflns_number_total             2016
_reflns_threshold_expression     I>2.0\s(I)
_oxford_diffrn_Wilson_B_factor   0.00
_oxford_diffrn_Wilson_scale      0.00
_oxford_refine_ls_r_factor_ref   0.0943
_oxford_refine_ls_scale          0.780(2)
_oxford_reflns_number_all        2013
_iucr_refine_instructions_details
;
#
# Punched on 13/08/19 at 11:48:20
#
#LIST     12                                                                    
BLOCK SCALE X'S  U'S 
END                                                                             
#
# Punched on 13/08/19 at 11:48:20
#
#LIST     16                                                                    
NO 
REM   HREST   START (DO NOT REMOVE THIS LINE) 
REM   HREST   END (DO NOT REMOVE THIS LINE) 
END                                                                             
;
_cod_data_source_file            c9cc04930d2.cif
_cod_data_source_block           I
_cod_depositor_comments
;
The following automatic conversions were performed:

'_exptl_crystal_density_meas' value 'not measured' was changed to '?'
- the value is perceived as not measured.

Automatic conversion script
Id: cif_fix_values 4973 2017-02-22 13:04:09Z antanas 
;
_cod_original_sg_symbol_H-M      'P n m a '
_cod_original_formula_sum        'Cl1 Cu4 F1 O6'
_cod_database_code               7124078
_oxford_refine_reflns_threshold_expression_ref I>-10.0\s(I)
_iucr_refine_reflections_details
; 
 
# Data was input as F-squared 
# punching LIST  6 as LIST  6 with all keys set 
# NBGNXT=    36 
#LIST   6 
READ NCOEF= 8 TYPE=FIX, F'S = FSQ UNIT=DATA, CHECK=NO L30=NO ARCH=NO 
STORE  NCOEF= 6 
OUTPUT INDICES     /FO/        SIGMA(/FO/) RATIO/JCODE CORRECTIONS SERIAL 
CONT 
INPUT  H           K           L           /FO/        SIGMA(/FO/) JCODE 
CONT   CORRECTIONS SERIAL 
FOR (I4,I4,I4,F10.2,F8.2,F4.0,F7.4,F7.0) 
END 
   2   0   0   6383.95   81.42  0. 1.0000     0. 
   4   0   0  32219.54  302.91  0. 1.0000     0. 
   6   0   0    203.34   24.02  0. 1.0000     0. 
   8   0   0  13572.53  256.53  0. 1.0000     0. 
  10   0   0   1118.48   71.85  0. 1.0000     0. 
  12   0   0  22455.53  498.80  0. 1.0000     0. 
  14   0   0   7025.80  306.21  0. 1.0000     0. 
  16   0   0  12407.80  512.06  0. 1.0000     0. 
  18   0   0    618.75  106.79  0. 1.0000     0. 
   2   1   0   1848.38   36.91  0. 1.0000     0. 
   4   1   0    141.40   12.27  0. 1.0000     0. 
   6   1   0     41.52    8.79  0. 1.0000     0. 
   8   1   0    823.41   40.28  0. 1.0000     0. 
  10   1   0    305.81   26.72  0. 1.0000     0. 
  12   1   0   1556.15   93.67  0. 1.0000     0. 
  14   1   0    387.92   51.41  0. 1.0000     0. 
  16   1   0     57.43   20.93  0. 1.0000     0. 
  18   1   0    108.72   32.12  0. 1.0000     0. 
   0   2   0  22700.26  172.27  0. 1.0000     0. 
   2   2   0    882.58   26.51  0. 1.0000     0. 
   4   2   0  18800.53  148.12  0. 1.0000     0. 
   6   2   0  31273.79  215.24  0. 1.0000     0. 
   8   2   0  46463.20  345.65  0. 1.0000     0. 
  10   2   0   3581.20   95.50  0. 1.0000     0. 
  12   2   0   7927.39  213.07  0. 1.0000     0. 
  14   2   0     19.77   50.00  0. 1.0000     0. 
  16   2   0   2284.15  144.53  0. 1.0000     0. 
  18   2   0    577.49   73.61  0. 1.0000     0. 
   2   3   0    857.17   29.21  0. 1.0000     0. 
   4   3   0  10273.13  136.67  0. 1.0000     0. 
   6   3   0   5832.03  100.94  0. 1.0000     0. 
   8   3   0    119.23   21.35  0. 1.0000     0. 
  10   3   0    129.79   22.99  0. 1.0000     0. 
  12   3   0    150.70   30.25  0. 1.0000     0. 
  14   3   0   1205.78  101.43  0. 1.0000     0. 
  16   3   0    845.27   82.71  0. 1.0000     0. 
  18   3   0    587.06   93.40  0. 1.0000     0. 
   0   4   0  70497.77  521.09  0. 1.0000     0. 
   2   4   0  10892.01  128.84  0. 1.0000     0. 
   4   4   0  44225.27  297.31  0. 1.0000     0. 
   6   4   0   2542.43   68.36  0. 1.0000     0. 
   8   4   0   8211.47  139.45  0. 1.0000     0. 
  10   4   0   1497.96   88.80  0. 1.0000     0. 
  12   4   0  20055.73  351.60  0. 1.0000     0. 
  14   4   0   2092.21  128.05  0. 1.0000     0. 
  16   4   0  14076.01  345.28  0. 1.0000     0. 
  18   4   0    534.39  147.66  0. 1.0000     0. 
   2   5   0   1233.56   43.72  0. 1.0000     0. 
   4   5   0    546.96   30.75  0. 1.0000     0. 
   6   5   0     86.48   22.78  0. 1.0000     0. 
   8   5   0    434.36   32.38  0. 1.0000     0. 
  10   5   0    156.95   29.94  0. 1.0000     0. 
  12   5   0    886.82   76.75  0. 1.0000     0. 
  14   5   0    512.38   62.45  0. 1.0000     0. 
  16   5   0     10.52   19.41  0. 1.0000     0. 
   0   6   0    105.67   20.24  0. 1.0000     0. 
   2   6   0     34.58    9.01  0. 1.0000     0. 
   4   6   0  31948.56  290.78  0. 1.0000     0. 
   6   6   0   7327.02  129.35  0. 1.0000     0. 
   8   6   0  28379.66  379.28  0. 1.0000     0. 
  10   6   0   8460.35  260.81  0. 1.0000     0. 
  12   6   0   2472.33  138.32  0. 1.0000     0. 
  14   6   0    409.97   57.65  0. 1.0000     0. 
  16   6   0   2654.03  154.58  0. 1.0000     0. 
   2   7   0   1066.10   50.37  0. 1.0000     0. 
   4   7   0     22.62    8.53  0. 1.0000     0. 
   6   7   0     21.57   20.07  0. 1.0000     0. 
   8   7   0    382.62   47.33  0. 1.0000     0. 
  10   7   0     78.01   22.99  0. 1.0000     0. 
  12   7   0    622.78   85.20  0. 1.0000     0. 
  14   7   0     93.07   29.27  0. 1.0000     0. 
  16   7   0     71.54   40.70  0. 1.0000     0. 
   0   8   0  41695.14  448.79  0. 1.0000     0. 
   2   8   0   4083.57  100.13  0. 1.0000     0. 
   4   8   0  12223.75  225.19  0. 1.0000     0. 
   6   8   0   1688.99   97.01  0. 1.0000     0. 
   8   8   0   2736.61  131.08  0. 1.0000     0. 
  10   8   0      8.20   51.47  0. 1.0000     0. 
  12   8   0   8243.52  271.40  0. 1.0000     0. 
  14   8   0   1456.31  113.23  0. 1.0000     0. 
  16   8   0   7370.98  559.22  0. 1.0000     0. 
   2   9   0     18.88   11.42  0. 1.0000     0. 
   4   9   0   2117.88  111.46  0. 1.0000     0. 
   6   9   0   1537.70   98.14  0. 1.0000     0. 
   8   9   0     11.73   13.44  0. 1.0000     0. 
  10   9   0     65.72   45.80  0. 1.0000     0. 
  12   9   0     16.64   16.96  0. 1.0000     0. 
  14   9   0   1070.43  100.91  0. 1.0000     0. 
   0  10   0   2360.57  170.45  0. 1.0000     0. 
   2  10   0    268.80   41.45  0. 1.0000     0. 
   4  10   0   5654.26  191.92  0. 1.0000     0. 
   6  10   0   5122.07  187.76  0. 1.0000     0. 
   8  10   0   5198.60  205.96  0. 1.0000     0. 
  10  10   0     20.51   16.14  0. 1.0000     0. 
  12  10   0   1181.89  103.16  0. 1.0000     0. 
  14  10   0    109.65   49.52  0. 1.0000     0. 
   2  11   0    246.27   42.04  0. 1.0000     0. 
   4  11   0    159.01   61.79  0. 1.0000     0. 
   6  11   0    230.22   50.00  0. 1.0000     0. 
   8  11   0     64.31   23.63  0. 1.0000     0. 
  10  11   0     40.27   17.69  0. 1.0000     0. 
  12  11   0    506.93   96.69  0. 1.0000     0. 
   0  12   0  19224.75  544.40  0. 1.0000     0. 
   2  12   0    789.89   78.29  0. 1.0000     0. 
   4  12   0   1651.69  114.44  0. 1.0000     0. 
   6  12   0    833.68   82.83  0. 1.0000     0. 
   8  12   0    423.71   60.99  0. 1.0000     0. 
  10  12   0   1165.88  105.68  0. 1.0000     0. 
  12  12   0   3418.04  530.80  0. 1.0000     0. 
   2  13   0    371.67   56.02  0. 1.0000     0. 
   4  13   0     17.05   16.84  0. 1.0000     0. 
   6  13   0     45.62   20.19  0. 1.0000     0. 
   8  13   0    252.95   49.08  0. 1.0000     0. 
  10  13   0     62.94   71.56  0. 1.0000     0. 
   0  14   0    104.59   41.17  0. 1.0000     0. 
   2  14   0   1003.43   97.02  0. 1.0000     0. 
   4  14   0   1756.70  129.44  0. 1.0000     0. 
   6  14   0    748.57  120.21  0. 1.0000     0. 
   2  15   0     18.98   50.87  0. 1.0000     0. 
   1   0   1  14342.70  157.92  0. 1.0000     0. 
   2   0   1    354.69   13.50  0. 1.0000     0. 
   3   0   1    891.97   24.72  0. 1.0000     0. 
   4   0   1    712.58   25.97  0. 1.0000     0. 
   5   0   1   4099.67   70.71  0. 1.0000     0. 
   6   0   1     38.87    7.89  0. 1.0000     0. 
   7   0   1   3508.33   82.02  0. 1.0000     0. 
   8   0   1     81.17   12.73  0. 1.0000     0. 
   9   0   1     13.52   16.97  0. 1.0000     0. 
  10   0   1    195.26   24.04  0. 1.0000     0. 
  11   0   1   8875.30  199.81  0. 1.0000     0. 
  12   0   1    368.47   46.06  0. 1.0000     0. 
  13   0   1     88.02   23.44  0. 1.0000     0. 
  14   0   1    123.95   57.08  0. 1.0000     0. 
  15   0   1     23.13   47.42  0. 1.0000     0. 
  16   0   1     19.13   14.51  0. 1.0000     0. 
  17   0   1   3230.76  167.34  0. 1.0000     0. 
  18   0   1     42.02   19.41  0. 1.0000     0. 
   0   1   1    152.24   11.51  0. 1.0000     0. 
   1   1   1   2970.09   30.56  0. 1.0000     0. 
   2   1   1     14.91    2.47  0. 1.0000     0. 
   3   1   1    234.92    9.57  0. 1.0000     0. 
   4   1   1    132.22    9.31  0. 1.0000     0. 
   5   1   1     26.89    6.18  0. 1.0000     0. 
   6   1   1    712.93   22.62  0. 1.0000     0. 
   7   1   1    461.71   20.20  0. 1.0000     0. 
   8   1   1    489.64   22.14  0. 1.0000     0. 
   9   1   1   1354.35   39.68  0. 1.0000     0. 
  10   1   1    357.44   20.72  0. 1.0000     0. 
  11   1   1   1323.37   58.36  0. 1.0000     0. 
  12   1   1     67.42   14.41  0. 1.0000     0. 
  13   1   1     15.02    9.48  0. 1.0000     0. 
  14   1   1      9.07   38.31  0. 1.0000     0. 
  15   1   1    343.88   37.95  0. 1.0000     0. 
  16   1   1     49.09   14.66  0. 1.0000     0. 
  17   1   1    653.85   53.21  0. 1.0000     0. 
  18   1   1      1.74   22.91  0. 1.0000     0. 
  19   1   1    296.05  147.59  0. 1.0000     0. 
   1   2   1   2822.06   31.73  0. 1.0000     0. 
   2   2   1    504.92   13.97  0. 1.0000     0. 
   3   2   1  45228.59  151.58  0. 1.0000     0. 
   4   2   1    503.03   17.63  0. 1.0000     0. 
   5   2   1     61.65    8.03  0. 1.0000     0. 
   6   2   1    339.38   16.09  0. 1.0000     0. 
   7   2   1   7221.96   82.22  0. 1.0000     0. 
   8   2   1     13.65   10.88  0. 1.0000     0. 
   9   2   1   9250.60  101.80  0. 1.0000     0. 
  10   2   1    132.53   15.97  0. 1.0000     0. 
  11   2   1     29.55   13.54  0. 1.0000     0. 
  12   2   1     78.73   15.44  0. 1.0000     0. 
  13   2   1   5338.84  129.52  0. 1.0000     0. 
  14   2   1     -4.92   29.28  0. 1.0000     0. 
  15   2   1   1220.43   68.68  0. 1.0000     0. 
  16   2   1     34.98   13.21  0. 1.0000     0. 
  17   2   1     81.83   19.33  0. 1.0000     0. 
  18   2   1    106.24   27.43  0. 1.0000     0. 
  19   2   1   2694.50  460.03  0. 1.0000     0. 
   0   3   1   3655.65   59.66  0. 1.0000     0. 
   1   3   1    355.09   13.01  0. 1.0000     0. 
   2   3   1   1601.46   30.37  0. 1.0000     0. 
   3   3   1    192.69   11.54  0. 1.0000     0. 
   4   3   1   1089.03   27.07  0. 1.0000     0. 
   5   3   1     11.70    4.65  0. 1.0000     0. 
   6   3   1    308.91   16.21  0. 1.0000     0. 
   7   3   1    652.41   24.71  0. 1.0000     0. 
   8   3   1     37.23    9.99  0. 1.0000     0. 
   9   3   1     37.86    7.33  0. 1.0000     0. 
  10   3   1    157.62   17.61  0. 1.0000     0. 
  11   3   1     27.40   13.33  0. 1.0000     0. 
  12   3   1    552.22   40.89  0. 1.0000     0. 
  13   3   1     22.49   17.74  0. 1.0000     0. 
  14   3   1    345.14   43.15  0. 1.0000     0. 
  15   3   1    439.87   40.95  0. 1.0000     0. 
  16   3   1    432.96   42.61  0. 1.0000     0. 
  17   3   1    844.95   63.25  0. 1.0000     0. 
  18   3   1    434.95   60.17  0. 1.0000     0. 
   1   4   1   5659.00   63.92  0. 1.0000     0. 
   2   4   1    171.65   11.80  0. 1.0000     0. 
   3   4   1   2541.83   45.02  0. 1.0000     0. 
   4   4   1    407.79   17.72  0. 1.0000     0. 
   5   4   1  18637.75  126.64  0. 1.0000     0. 
   6   4   1    152.11   12.23  0. 1.0000     0. 
   7   4   1    525.42   26.27  0. 1.0000     0. 
   8   4   1     49.82   10.89  0. 1.0000     0. 
   9   4   1     31.64    8.25  0. 1.0000     0. 
  10   4   1    375.55   29.70  0. 1.0000     0. 
  11   4   1   6066.66  135.57  0. 1.0000     0. 
  12   4   1    266.24   29.07  0. 1.0000     0. 
  13   4   1      5.12   32.40  0. 1.0000     0. 
  14   4   1     37.18   24.98  0. 1.0000     0. 
  15   4   1    898.24   59.24  0. 1.0000     0. 
  16   4   1     11.42   22.03  0. 1.0000     0. 
  17   4   1   1668.00   86.85  0. 1.0000     0. 
  18   4   1      0.38   21.74  0. 1.0000     0. 
   0   5   1    961.53   37.96  0. 1.0000     0. 
   1   5   1    993.01   27.35  0. 1.0000     0. 
   2   5   1   1117.46   29.54  0. 1.0000     0. 
   3   5   1    106.38    9.65  0. 1.0000     0. 
   4   5   1   2022.31   42.27  0. 1.0000     0. 
   5   5   1     49.06    7.55  0. 1.0000     0. 
   6   5   1   2193.45   48.12  0. 1.0000     0. 
   7   5   1    385.10   21.29  0. 1.0000     0. 
   8   5   1   2617.96   59.18  0. 1.0000     0. 
   9   5   1   1117.04   48.96  0. 1.0000     0. 
  10   5   1   1654.12   66.19  0. 1.0000     0. 
  11   5   1    618.02   43.26  0. 1.0000     0. 
  12   5   1    828.83   52.24  0. 1.0000     0. 
  13   5   1      9.88   24.45  0. 1.0000     0. 
  14   5   1    235.22   35.74  0. 1.0000     0. 
  15   5   1    268.17   36.09  0. 1.0000     0. 
  16   5   1    104.74   21.45  0. 1.0000     0. 
  17   5   1    475.32   54.09  0. 1.0000     0. 
  18   5   1    230.20   77.13  0. 1.0000     0. 
   1   6   1    815.85   27.42  0. 1.0000     0. 
   2   6   1    290.48   16.68  0. 1.0000     0. 
   3   6   1  15468.74  124.30  0. 1.0000     0. 
   4   6   1    376.58   22.79  0. 1.0000     0. 
   5   6   1   1269.46   37.11  0. 1.0000     0. 
   6   6   1    125.88   14.48  0. 1.0000     0. 
   7   6   1   2455.03   64.01  0. 1.0000     0. 
   8   6   1      8.55   13.65  0. 1.0000     0. 
   9   6   1   6812.34  132.97  0. 1.0000     0. 
  10   6   1     26.44   16.47  0. 1.0000     0. 
  11   6   1     41.04   12.51  0. 1.0000     0. 
  12   6   1     17.06   44.13  0. 1.0000     0. 
  13   6   1   2929.70  108.36  0. 1.0000     0. 
  14   6   1     18.91   27.40  0. 1.0000     0. 
  15   6   1   2522.76  103.35  0. 1.0000     0. 
  16   6   1     85.47   20.23  0. 1.0000     0. 
  17   6   1      5.70   17.40  0. 1.0000     0. 
  18   6   1    114.76   92.14  0. 1.0000     0. 
   0   7   1   5791.61  113.13  0. 1.0000     0. 
   1   7   1   2209.19   48.27  0. 1.0000     0. 
   2   7   1   3638.75   63.06  0. 1.0000     0. 
   3   7   1    192.24   15.83  0. 1.0000     0. 
   4   7   1   2127.69   50.88  0. 1.0000     0. 
   5   7   1      6.52    8.43  0. 1.0000     0. 
   6   7   1   1429.66   52.32  0. 1.0000     0. 
   7   7   1    280.65   25.10  0. 1.0000     0. 
   8   7   1   1121.82   54.92  0. 1.0000     0. 
   9   7   1    912.43   52.70  0. 1.0000     0. 
  10   7   1    878.85   53.44  0. 1.0000     0. 
  11   7   1    383.35   51.94  0. 1.0000     0. 
  12   7   1   1043.60   62.43  0. 1.0000     0. 
  13   7   1     10.42   33.97  0. 1.0000     0. 
  14   7   1   1508.46   79.52  0. 1.0000     0. 
  15   7   1    252.22   33.43  0. 1.0000     0. 
  16   7   1   1295.64  103.11  0. 1.0000     0. 
  17   7   1    623.27  107.63  0. 1.0000     0. 
   1   8   1   4147.33   72.83  0. 1.0000     0. 
   2   8   1    193.90   17.76  0. 1.0000     0. 
   3   8   1    752.76   36.08  0. 1.0000     0. 
   4   8   1    166.82   18.37  0. 1.0000     0. 
   5   8   1   6665.09  124.15  0. 1.0000     0. 
   6   8   1     42.81   11.48  0. 1.0000     0. 
   7   8   1    812.08   49.02  0. 1.0000     0. 
   8   8   1      8.01   15.22  0. 1.0000     0. 
   9   8   1     34.12   12.36  0. 1.0000     0. 
  10   8   1     51.04   43.92  0. 1.0000     0. 
  11   8   1   4042.94  121.92  0. 1.0000     0. 
  12   8   1    188.98   30.86  0. 1.0000     0. 
  13   8   1      3.13   26.99  0. 1.0000     0. 
  14   8   1     43.90   23.49  0. 1.0000     0. 
  15   8   1    276.07   36.52  0. 1.0000     0. 
  16   8   1      5.02   16.37  0. 1.0000     0. 
  17   8   1   1386.18  333.76  0. 1.0000     0. 
   0   9   1   1751.05   92.26  0. 1.0000     0. 
   1   9   1     15.14   13.40  0. 1.0000     0. 
   2   9   1   2175.92   75.74  0. 1.0000     0. 
   3   9   1     76.39   14.51  0. 1.0000     0. 
   4   9   1   2687.99   88.75  0. 1.0000     0. 
   5   9   1     54.59   13.62  0. 1.0000     0. 
   6   9   1   2854.03   94.16  0. 1.0000     0. 
   7   9   1    203.77   28.18  0. 1.0000     0. 
   8   9   1   2536.48   95.51  0. 1.0000     0. 
   9   9   1     87.34   31.49  0. 1.0000     0. 
  10   9   1   2158.70   90.56  0. 1.0000     0. 
  11   9   1     41.82   19.53  0. 1.0000     0. 
  12   9   1   1048.20   66.70  0. 1.0000     0. 
  13   9   1     19.01   23.52  0. 1.0000     0. 
  14   9   1    771.94   60.23  0. 1.0000     0. 
  15   9   1    296.00   73.65  0. 1.0000     0. 
  16   9   1    446.45  190.44  0. 1.0000     0. 
   1  10   1    382.52   34.59  0. 1.0000     0. 
   2  10   1    105.63   18.75  0. 1.0000     0. 
   3  10   1  10260.49  180.79  0. 1.0000     0. 
   4  10   1    259.63   29.37  0. 1.0000     0. 
   5  10   1    283.45   30.87  0. 1.0000     0. 
   6  10   1    109.16   32.22  0. 1.0000     0. 
   7  10   1   1077.94   71.52  0. 1.0000     0. 
   8  10   1      5.49   25.62  0. 1.0000     0. 
   9  10   1   2942.78  110.51  0. 1.0000     0. 
  10  10   1     69.64   16.56  0. 1.0000     0. 
  11  10   1      4.00   29.07  0. 1.0000     0. 
  12  10   1     20.88   32.08  0. 1.0000     0. 
  13  10   1   2436.19  114.25  0. 1.0000     0. 
  14  10   1     -6.17   24.93  0. 1.0000     0. 
  15  10   1    340.47  116.79  0. 1.0000     0. 
   0  11   1   3718.04  159.98  0. 1.0000     0. 
   1  11   1    256.47   29.21  0. 1.0000     0. 
   2  11   1   2172.81   90.60  0. 1.0000     0. 
   3  11   1     29.99   38.21  0. 1.0000     0. 
   4  11   1   1640.90   81.97  0. 1.0000     0. 
   5  11   1      8.57   21.53  0. 1.0000     0. 
   6  11   1   1299.76   70.83  0. 1.0000     0. 
   7  11   1     80.67   26.32  0. 1.0000     0. 
   8  11   1   1093.98   66.88  0. 1.0000     0. 
   9  11   1    106.95   21.60  0. 1.0000     0. 
  10  11   1   1079.17   68.58  0. 1.0000     0. 
  11  11   1    169.79   28.22  0. 1.0000     0. 
  12  11   1   1330.15  111.92  0. 1.0000     0. 
  13  11   1     34.80   23.59  0. 1.0000     0. 
  14  11   1   1296.12  326.06  0. 1.0000     0. 
   1  12   1   1347.82   78.03  0. 1.0000     0. 
   2  12   1     54.15   27.40  0. 1.0000     0. 
   3  12   1    267.93   38.00  0. 1.0000     0. 
   4  12   1    110.79   25.63  0. 1.0000     0. 
   5  12   1   1924.93   88.17  0. 1.0000     0. 
   6  12   1     17.88   11.90  0. 1.0000     0. 
   7  12   1    525.12   47.37  0. 1.0000     0. 
   8  12   1     27.58   28.91  0. 1.0000     0. 
   9  12   1     13.92   12.37  0. 1.0000     0. 
  10  12   1     57.41   30.41  0. 1.0000     0. 
  11  12   1   2559.56  196.33  0. 1.0000     0. 
  12  12   1    129.33   50.32  0. 1.0000     0. 
  13  12   1     24.85   44.68  0. 1.0000     0. 
   0  13   1   1193.32  100.37  0. 1.0000     0. 
   1  13   1    500.12   45.99  0. 1.0000     0. 
   2  13   1   1466.99   79.47  0. 1.0000     0. 
   3  13   1     36.97   23.71  0. 1.0000     0. 
   4  13   1   2086.05   95.98  0. 1.0000     0. 
   5  13   1     20.87   21.60  0. 1.0000     0. 
   6  13   1   2270.86  102.19  0. 1.0000     0. 
   7  13   1    113.41   23.28  0. 1.0000     0. 
   8  13   1   2097.14  115.50  0. 1.0000     0. 
   9  13   1    732.89  106.42  0. 1.0000     0. 
  10  13   1   1842.15  187.54  0. 1.0000     0. 
  11  13   1    437.26  189.20  0. 1.0000     0. 
   1  14   1    120.56   23.33  0. 1.0000     0. 
   2  14   1     92.47   20.70  0. 1.0000     0. 
   3  14   1   3564.90  130.08  0. 1.0000     0. 
   4  14   1     86.25   20.73  0. 1.0000     0. 
   5  14   1      1.70   14.64  0. 1.0000     0. 
   6  14   1     21.49   55.71  0. 1.0000     0. 
   7  14   1    522.99   98.30  0. 1.0000     0. 
   8  14   1    -11.46  115.07  0. 1.0000     0. 
   9  14   1   1743.78  380.02  0. 1.0000     0. 
   0  15   1   2325.05  213.35  0. 1.0000     0. 
   1  15   1     64.17   24.60  0. 1.0000     0. 
   2  15   1   1926.31  175.08  0. 1.0000     0. 
   3  15   1     43.52   29.63  0. 1.0000     0. 
   4  15   1   1617.20  260.00  0. 1.0000     0. 
   5  15   1     18.53   58.77  0. 1.0000     0. 
   1   0   2   2064.07   42.97  0. 1.0000     0. 
   2   0   2  19423.36  120.26  0. 1.0000     0. 
   3   0   2    571.11   21.23  0. 1.0000     0. 
   4   0   2    234.00   16.47  0. 1.0000     0. 
   5   0   2    206.70   16.18  0. 1.0000     0. 
   6   0   2  95555.70  375.47  0. 1.0000     0. 
   7   0   2    894.45   38.08  0. 1.0000     0. 
   8   0   2  10198.64  134.91  0. 1.0000     0. 
   9   0   2    357.03   27.46  0. 1.0000     0. 
  10   0   2  24612.63  271.33  0. 1.0000     0. 
  11   0   2      9.37   21.59  0. 1.0000     0. 
  12   0   2    911.86   71.61  0. 1.0000     0. 
  13   0   2    323.50   45.55  0. 1.0000     0. 
  14   0   2   8606.12  240.99  0. 1.0000     0. 
  15   0   2      1.59   65.67  0. 1.0000     0. 
  16   0   2     76.28   27.47  0. 1.0000     0. 
  17   0   2    279.15   49.08  0. 1.0000     0. 
  18   0   2   4991.65  298.33  0. 1.0000     0. 
  19   0   2     11.71   21.06  0. 1.0000     0. 
   1   1   2    135.44    7.43  0. 1.0000     0. 
   2   1   2   1510.85   26.00  0. 1.0000     0. 
   3   1   2   1327.19   25.05  0. 1.0000     0. 
   4   1   2    315.26   13.05  0. 1.0000     0. 
   5   1   2    940.11   24.15  0. 1.0000     0. 
   6   1   2    255.36   13.74  0. 1.0000     0. 
   7   1   2    133.23   10.97  0. 1.0000     0. 
   8   1   2     72.70   13.20  0. 1.0000     0. 
   9   1   2    147.30   14.54  0. 1.0000     0. 
  10   1   2     61.77   10.49  0. 1.0000     0. 
  11   1   2    472.08   31.19  0. 1.0000     0. 
  12   1   2     24.15   14.19  0. 1.0000     0. 
  13   1   2    414.23   36.14  0. 1.0000     0. 
  14   1   2    499.57   41.38  0. 1.0000     0. 
  15   1   2     14.28   25.90  0. 1.0000     0. 
  16   1   2     36.74   13.06  0. 1.0000     0. 
  17   1   2     76.46   18.42  0. 1.0000     0. 
  18   1   2    340.02   55.46  0. 1.0000     0. 
  19   1   2    187.07   84.59  0. 1.0000     0. 
   0   2   2  40939.75  172.40  0. 1.0000     0. 
   1   2   2   1177.77   22.13  0. 1.0000     0. 
   2   2   2  53648.72  160.26  0. 1.0000     0. 
   3   2   2     29.32    4.99  0. 1.0000     0. 
   4   2   2   1681.39   30.74  0. 1.0000     0. 
   5   2   2    688.19   21.70  0. 1.0000     0. 
   6   2   2  15019.53  109.95  0. 1.0000     0. 
   7   2   2   1855.76   40.34  0. 1.0000     0. 
   8   2   2    540.88   23.33  0. 1.0000     0. 
   9   2   2   1147.46   35.70  0. 1.0000     0. 
  10   2   2  11789.71  138.63  0. 1.0000     0. 
  11   2   2     85.16   14.43  0. 1.0000     0. 
  12   2   2   4924.86  122.96  0. 1.0000     0. 
  13   2   2     96.69   18.97  0. 1.0000     0. 
  14   2   2  17677.90  264.15  0. 1.0000     0. 
  15   2   2    172.82   33.90  0. 1.0000     0. 
  16   2   2   2210.16   94.48  0. 1.0000     0. 
  17   2   2     80.84   20.11  0. 1.0000     0. 
  18   2   2   4447.20  199.41  0. 1.0000     0. 
  19   2   2    -30.31   43.64  0. 1.0000     0. 
   1   3   2    157.80    9.71  0. 1.0000     0. 
   2   3   2   5842.37   53.90  0. 1.0000     0. 
   3   3   2   1163.61   25.93  0. 1.0000     0. 
   4   3   2    277.45   13.46  0. 1.0000     0. 
   5   3   2    838.16   25.33  0. 1.0000     0. 
   6   3   2    299.24   15.87  0. 1.0000     0. 
   7   3   2    194.69   15.58  0. 1.0000     0. 
   8   3   2   2008.49   46.34  0. 1.0000     0. 
   9   3   2    174.84   16.34  0. 1.0000     0. 
  10   3   2     20.70    7.70  0. 1.0000     0. 
  11   3   2    498.81   34.62  0. 1.0000     0. 
  12   3   2   1775.91   72.94  0. 1.0000     0. 
  13   3   2    155.92   35.51  0. 1.0000     0. 
  14   3   2    377.90   43.98  0. 1.0000     0. 
  15   3   2     24.86   16.90  0. 1.0000     0. 
  16   3   2     58.26   16.16  0. 1.0000     0. 
  17   3   2     27.45   32.54  0. 1.0000     0. 
  18   3   2     51.43   44.68  0. 1.0000     0. 
  19   3   2    219.18   93.49  0. 1.0000     0. 
   0   4   2   2459.58   53.89  0. 1.0000     0. 
   1   4   2   2107.07   36.57  0. 1.0000     0. 
   2   4   2  32968.29  152.77  0. 1.0000     0. 
   3   4   2    418.26   17.51  0. 1.0000     0. 
   4   4   2   6546.05   72.74  0. 1.0000     0. 
   5   4   2    109.52   10.08  0. 1.0000     0. 
   6   4   2  40919.71  205.80  0. 1.0000     0. 
   7   4   2    545.39   25.70  0. 1.0000     0. 
   8   4   2   4497.63   72.11  0. 1.0000     0. 
   9   4   2    344.40   26.71  0. 1.0000     0. 
  10   4   2  21004.29  224.01  0. 1.0000     0. 
  11   4   2      2.66   15.24  0. 1.0000     0. 
  12   4   2     24.15   16.29  0. 1.0000     0. 
  13   4   2    258.97   34.76  0. 1.0000     0. 
  14   4   2   2838.67  102.01  0. 1.0000     0. 
  15   4   2    356.91   39.99  0. 1.0000     0. 
  16   4   2     48.19   15.94  0. 1.0000     0. 
  17   4   2    255.24   34.14  0. 1.0000     0. 
  18   4   2   5833.58  291.36  0. 1.0000     0. 
  19   4   2      5.84   36.35  0. 1.0000     0. 
   1   5   2    120.18   10.13  0. 1.0000     0. 
   2   5   2     18.87    4.99  0. 1.0000     0. 
   3   5   2    999.71   29.13  0. 1.0000     0. 
   4   5   2    362.00   17.99  0. 1.0000     0. 
   5   5   2    527.45   24.42  0. 1.0000     0. 
   6   5   2    199.55   16.20  0. 1.0000     0. 
   7   5   2     99.27   10.88  0. 1.0000     0. 
   8   5   2     24.43   11.52  0. 1.0000     0. 
   9   5   2    122.53   16.10  0. 1.0000     0. 
  10   5   2     45.10   11.04  0. 1.0000     0. 
  11   5   2    345.76   31.46  0. 1.0000     0. 
  12   5   2     53.73   28.46  0. 1.0000     0. 
  13   5   2    289.96   36.88  0. 1.0000     0. 
  14   5   2    601.76   47.94  0. 1.0000     0. 
  15   5   2     35.48   12.24  0. 1.0000     0. 
  16   5   2     39.23   23.56  0. 1.0000     0. 
  17   5   2     64.41   23.98  0. 1.0000     0. 
  18   5   2    107.11   45.35  0. 1.0000     0. 
   0   6   2  11794.88  146.02  0. 1.0000     0. 
   1   6   2    842.00   27.59  0. 1.0000     0. 
   2   6   2  40691.65  223.30  0. 1.0000     0. 
   3   6   2     56.85   10.89  0. 1.0000     0. 
   4   6   2   3998.98   64.62  0. 1.0000     0. 
   5   6   2    438.13   23.20  0. 1.0000     0. 
   6   6   2   2332.61   54.29  0. 1.0000     0. 
   7   6   2    888.64   41.82  0. 1.0000     0. 
   8   6   2    409.87   29.04  0. 1.0000     0. 
   9   6   2    618.23   38.05  0. 1.0000     0. 
  10   6   2   8082.45  150.45  0. 1.0000     0. 
  11   6   2     92.62   18.06  0. 1.0000     0. 
  12   6   2    855.68   59.97  0. 1.0000     0. 
  13   6   2     55.03   13.76  0. 1.0000     0. 
  14   6   2   6841.04  170.35  0. 1.0000     0. 
  15   6   2    288.26   35.41  0. 1.0000     0. 
  16   6   2   2543.66  107.56  0. 1.0000     0. 
  17   6   2     90.01   42.23  0. 1.0000     0. 
  18   6   2   4105.89  326.80  0. 1.0000     0. 
   1   7   2    121.08   11.90  0. 1.0000     0. 
   2   7   2    323.98   19.39  0. 1.0000     0. 
   3   7   2    641.89   28.05  0. 1.0000     0. 
   4   7   2    116.23   12.09  0. 1.0000     0. 
   5   7   2    419.83   26.33  0. 1.0000     0. 
   6   7   2    153.78   18.18  0. 1.0000     0. 
   7   7   2     72.24   12.94  0. 1.0000     0. 
   8   7   2    134.83   18.48  0. 1.0000     0. 
   9   7   2     82.17   16.13  0. 1.0000     0. 
  10   7   2      8.67    7.94  0. 1.0000     0. 
  11   7   2    148.06   42.18  0. 1.0000     0. 
  12   7   2     10.31   25.76  0. 1.0000     0. 
  13   7   2    260.32   36.22  0. 1.0000     0. 
  14   7   2    235.12   31.65  0. 1.0000     0. 
  15   7   2      4.89   27.53  0. 1.0000     0. 
  16   7   2     51.32   25.73  0. 1.0000     0. 
  17   7   2     41.86   27.98  0. 1.0000     0. 
  18   7   2    376.99  178.73  0. 1.0000     0. 
   0   8   2   2042.67   83.43  0. 1.0000     0. 
   1   8   2    931.88   40.11  0. 1.0000     0. 
   2   8   2   6266.63  101.10  0. 1.0000     0. 
   3   8   2    143.78   17.27  0. 1.0000     0. 
   4   8   2   1007.90   43.07  0. 1.0000     0. 
   5   8   2    112.52   15.46  0. 1.0000     0. 
   6   8   2  20739.48  225.75  0. 1.0000     0. 
   7   8   2    447.42   35.42  0. 1.0000     0. 
   8   8   2   2256.54   80.84  0. 1.0000     0. 
   9   8   2    310.98   32.40  0. 1.0000     0. 
  10   8   2   7296.93  161.68  0. 1.0000     0. 
  11   8   2      7.22   19.56  0. 1.0000     0. 
  12   8   2     29.80   34.54  0. 1.0000     0. 
  13   8   2    192.20   32.08  0. 1.0000     0. 
  14   8   2   1634.57   84.81  0. 1.0000     0. 
  15   8   2    259.68   48.81  0. 1.0000     0. 
  16   8   2     15.33   23.82  0. 1.0000     0. 
  17   8   2    138.94   79.34  0. 1.0000     0. 
   1   9   2     89.16   13.32  0. 1.0000     0. 
   2   9   2    827.83   43.36  0. 1.0000     0. 
   3   9   2    491.96   35.31  0. 1.0000     0. 
   4   9   2    121.14   18.42  0. 1.0000     0. 
   5   9   2    372.30   32.60  0. 1.0000     0. 
   6   9   2     70.18   14.84  0. 1.0000     0. 
   7   9   2     89.04   17.93  0. 1.0000     0. 
   8   9   2    496.39   54.29  0. 1.0000     0. 
   9   9   2     72.09   24.75  0. 1.0000     0. 
  10   9   2     20.46   24.91  0. 1.0000     0. 
  11   9   2    250.31   35.97  0. 1.0000     0. 
  12   9   2    713.00   56.33  0. 1.0000     0. 
  13   9   2    186.72   28.84  0. 1.0000     0. 
  14   9   2    451.88   53.67  0. 1.0000     0. 
  15   9   2     24.37   26.65  0. 1.0000     0. 
  16   9   2     14.12   25.29  0. 1.0000     0. 
  17   9   2     30.51   49.05  0. 1.0000     0. 
   0  10   2   3520.46  144.63  0. 1.0000     0. 
   1  10   2    458.66   39.53  0. 1.0000     0. 
   2  10   2   7903.77  163.10  0. 1.0000     0. 
   3  10   2     51.01   12.96  0. 1.0000     0. 
   4  10   2     94.06   18.09  0. 1.0000     0. 
   5  10   2     81.87   34.19  0. 1.0000     0. 
   6  10   2   1704.20   76.36  0. 1.0000     0. 
   7  10   2    455.38   46.46  0. 1.0000     0. 
   8  10   2     74.92   18.19  0. 1.0000     0. 
   9  10   2    342.86   36.76  0. 1.0000     0. 
  10  10   2   1788.49   87.14  0. 1.0000     0. 
  11  10   2     11.73   10.15  0. 1.0000     0. 
  12  10   2   1114.37   70.99  0. 1.0000     0. 
  13  10   2     63.14   23.04  0. 1.0000     0. 
  14  10   2   6323.62  336.17  0. 1.0000     0. 
  15  10   2    127.58   52.44  0. 1.0000     0. 
  16  10   2    295.69  160.91  0. 1.0000     0. 
   1  11   2     38.11   12.42  0. 1.0000     0. 
   2  11   2     34.10   23.16  0. 1.0000     0. 
   3  11   2    297.59   32.74  0. 1.0000     0. 
   4  11   2    114.48   21.21  0. 1.0000     0. 
   5  11   2    225.86   36.37  0. 1.0000     0. 
   6  11   2    184.68   26.80  0. 1.0000     0. 
   7  11   2     29.60   11.52  0. 1.0000     0. 
   8  11   2     46.77   25.92  0. 1.0000     0. 
   9  11   2     65.74   22.23  0. 1.0000     0. 
  10  11   2     22.54   20.58  0. 1.0000     0. 
  11  11   2    169.86   27.99  0. 1.0000     0. 
  12  11   2    162.08   48.28  0. 1.0000     0. 
  13  11   2     96.63   43.12  0. 1.0000     0. 
  14  11   2    207.02   62.06  0. 1.0000     0. 
  15  11   2     18.08   21.67  0. 1.0000     0. 
   0  12   2    994.30   92.49  0. 1.0000     0. 
   1  12   2    357.55   41.19  0. 1.0000     0. 
   2  12   2    585.55   52.35  0. 1.0000     0. 
   3  12   2     56.26   22.87  0. 1.0000     0. 
   4  12   2     51.07   30.67  0. 1.0000     0. 
   5  12   2     88.84   24.02  0. 1.0000     0. 
   6  12   2   9047.17  202.49  0. 1.0000     0. 
   7  12   2    319.71   37.54  0. 1.0000     0. 
   8  12   2   1012.92   66.87  0. 1.0000     0. 
   9  12   2    160.55   27.04  0. 1.0000     0. 
  10  12   2   2536.50  151.43  0. 1.0000     0. 
  11  12   2     10.80   77.36  0. 1.0000     0. 
  12  12   2     43.47   30.20  0. 1.0000     0. 
  13  12   2     77.15   58.79  0. 1.0000     0. 
  14  12   2     -6.09  288.91  0. 1.0000     0. 
   1  13   2     45.42   30.89  0. 1.0000     0. 
   2  13   2    139.96   24.75  0. 1.0000     0. 
   3  13   2    263.17   34.18  0. 1.0000     0. 
   4  13   2     44.19   13.28  0. 1.0000     0. 
   5  13   2    150.73   26.02  0. 1.0000     0. 
   6  13   2     30.48   28.35  0. 1.0000     0. 
   7  13   2     28.19   27.09  0. 1.0000     0. 
   8  13   2     50.22   19.05  0. 1.0000     0. 
   9  13   2     40.32   28.27  0. 1.0000     0. 
  10  13   2     69.00   39.03  0. 1.0000     0. 
  11  13   2     95.42   41.68  0. 1.0000     0. 
  12  13   2     24.04   37.43  0. 1.0000     0. 
   0  14   2   1072.40   99.87  0. 1.0000     0. 
   1  14   2    298.77   37.17  0. 1.0000     0. 
   2  14   2   3120.52  121.46  0. 1.0000     0. 
   3  14   2     26.43   14.81  0. 1.0000     0. 
   4  14   2     69.08   22.88  0. 1.0000     0. 
   5  14   2     66.40   44.61  0. 1.0000     0. 
   6  14   2     44.24   21.46  0. 1.0000     0. 
   7  14   2    188.05   54.46  0. 1.0000     0. 
   8  14   2    728.63  117.27  0. 1.0000     0. 
   9  14   2    171.05   75.40  0. 1.0000     0. 
  10  14   2    337.20  167.71  0. 1.0000     0. 
   1  15   2     28.05   19.35  0. 1.0000     0. 
   2  15   2    249.82   47.57  0. 1.0000     0. 
   3  15   2    144.49   42.70  0. 1.0000     0. 
   4  15   2     10.37   23.25  0. 1.0000     0. 
   5  15   2    170.23   66.14  0. 1.0000     0. 
   6  15   2     31.48   28.40  0. 1.0000     0. 
   7  15   2     12.05   21.66  0. 1.0000     0. 
   8  15   2    221.33  136.27  0. 1.0000     0. 
   1   0   3    538.06   25.32  0. 1.0000     0. 
   2   0   3   1858.34   36.12  0. 1.0000     0. 
   3   0   3    784.28   27.60  0. 1.0000     0. 
   4   0   3   3107.44   56.24  0. 1.0000     0. 
   5   0   3   9439.26  109.44  0. 1.0000     0. 
   6   0   3   1230.94   41.79  0. 1.0000     0. 
   7   0   3   4881.75   89.12  0. 1.0000     0. 
   8   0   3     20.71    7.28  0. 1.0000     0. 
   9   0   3    457.64   31.17  0. 1.0000     0. 
  10   0   3    907.08   55.07  0. 1.0000     0. 
  11   0   3   1925.58   83.61  0. 1.0000     0. 
  12   0   3    645.60   57.15  0. 1.0000     0. 
  13   0   3   1042.19   80.83  0. 1.0000     0. 
  14   0   3     37.49   38.50  0. 1.0000     0. 
  15   0   3    341.70   66.64  0. 1.0000     0. 
  16   0   3     87.96   26.61  0. 1.0000     0. 
  17   0   3   2485.18  146.79  0. 1.0000     0. 
  18   0   3    456.10   89.89  0. 1.0000     0. 
  19   0   3     58.61   41.20  0. 1.0000     0. 
   0   1   3   3866.35   70.86  0. 1.0000     0. 
   1   1   3     10.26    3.25  0. 1.0000     0. 
   2   1   3   1688.50   29.38  0. 1.0000     0. 
   3   1   3   1140.36   23.54  0. 1.0000     0. 
   4   1   3    150.01    9.21  0. 1.0000     0. 
   5   1   3    134.84    9.65  0. 1.0000     0. 
   6   1   3    452.15   18.84  0. 1.0000     0. 
   7   1   3    295.83   16.33  0. 1.0000     0. 
   8   1   3    835.97   28.52  0. 1.0000     0. 
   9   1   3     41.50    8.10  0. 1.0000     0. 
  10   1   3    235.82   21.02  0. 1.0000     0. 
  11   1   3    252.47   22.35  0. 1.0000     0. 
  12   1   3    104.14   17.29  0. 1.0000     0. 
  13   1   3    294.64   38.81  0. 1.0000     0. 
  14   1   3    502.94   41.88  0. 1.0000     0. 
  15   1   3     21.05   28.32  0. 1.0000     0. 
  16   1   3    663.51   52.11  0. 1.0000     0. 
  17   1   3    631.65   52.36  0. 1.0000     0. 
  18   1   3    293.69   55.35  0. 1.0000     0. 
  19   1   3     63.04   27.59  0. 1.0000     0. 
   1   2   3   1003.53   23.96  0. 1.0000     0. 
   2   2   3   1479.32   30.37  0. 1.0000     0. 
   3   2   3  21911.04  120.01  0. 1.0000     0. 
   4   2   3   2567.83   38.50  0. 1.0000     0. 
   5   2   3   2004.32   37.18  0. 1.0000     0. 
   6   2   3    636.43   22.58  0. 1.0000     0. 
   7   2   3   4080.07   59.51  0. 1.0000     0. 
   8   2   3    125.51   11.33  0. 1.0000     0. 
   9   2   3   4517.90   74.97  0. 1.0000     0. 
  10   2   3   1019.38   41.38  0. 1.0000     0. 
  11   2   3    136.03   17.60  0. 1.0000     0. 
  12   2   3   1180.31   56.99  0. 1.0000     0. 
  13   2   3   1511.98   75.13  0. 1.0000     0. 
  14   2   3    352.84   35.77  0. 1.0000     0. 
  15   2   3   2080.24   91.47  0. 1.0000     0. 
  16   2   3      9.48    9.41  0. 1.0000     0. 
  17   2   3    278.20   35.23  0. 1.0000     0. 
  18   2   3    184.47   41.44  0. 1.0000     0. 
  19   2   3    957.76  118.73  0. 1.0000     0. 
   0   3   3    258.72   16.57  0. 1.0000     0. 
   1   3   3     21.28    4.93  0. 1.0000     0. 
   2   3   3      4.27    4.56  0. 1.0000     0. 
   3   3   3   2799.96   43.15  0. 1.0000     0. 
   4   3   3    787.45   22.74  0. 1.0000     0. 
   5   3   3     15.30    4.70  0. 1.0000     0. 
   6   3   3   2769.21   48.37  0. 1.0000     0. 
   7   3   3   1014.59   32.48  0. 1.0000     0. 
   8   3   3   2488.85   51.73  0. 1.0000     0. 
   9   3   3     77.01   10.71  0. 1.0000     0. 
  10   3   3   1546.95   54.61  0. 1.0000     0. 
  11   3   3    464.41   32.52  0. 1.0000     0. 
  12   3   3    289.53   28.66  0. 1.0000     0. 
  13   3   3    163.89   33.80  0. 1.0000     0. 
  14   3   3     13.12   30.50  0. 1.0000     0. 
  15   3   3     23.33   16.80  0. 1.0000     0. 
  16   3   3    117.84   22.63  0. 1.0000     0. 
  17   3   3     10.44   26.21  0. 1.0000     0. 
  18   3   3     -5.43   54.16  0. 1.0000     0. 
  19   3   3     15.52  115.38  0. 1.0000     0. 
   1   4   3   9047.11   75.14  0. 1.0000     0. 
   2   4   3   1638.17   32.69  0. 1.0000     0. 
   3   4   3    804.59   23.80  0. 1.0000     0. 
   4   4   3   2714.03   46.61  0. 1.0000     0. 
   5   4   3   3748.89   56.95  0. 1.0000     0. 
   6   4   3    824.33   28.11  0. 1.0000     0. 
   7   4   3    776.57   29.12  0. 1.0000     0. 
   8   4   3     13.30    9.22  0. 1.0000     0. 
   9   4   3    605.34   33.77  0. 1.0000     0. 
  10   4   3    545.27   33.86  0. 1.0000     0. 
  11   4   3   4497.76  106.40  0. 1.0000     0. 
  12   4   3    504.16   44.80  0. 1.0000     0. 
  13   4   3     47.01   13.93  0. 1.0000     0. 
  14   4   3     94.72   19.07  0. 1.0000     0. 
  15   4   3    125.06   28.51  0. 1.0000     0. 
  16   4   3    103.54   21.53  0. 1.0000     0. 
  17   4   3    847.11   84.17  0. 1.0000     0. 
  18   4   3    439.88   79.10  0. 1.0000     0. 
  19   4   3    274.91  110.11  0. 1.0000     0. 
   0   5   3   7795.07  111.42  0. 1.0000     0. 
   1   5   3     18.40    5.32  0. 1.0000     0. 
   2   5   3   4462.69   60.69  0. 1.0000     0. 
   3   5   3    473.62   20.41  0. 1.0000     0. 
   4   5   3   1501.21   36.67  0. 1.0000     0. 
   5   5   3    117.06   13.37  0. 1.0000     0. 
   6   5   3    123.02   13.28  0. 1.0000     0. 
   7   5   3     12.81   13.23  0. 1.0000     0. 
   8   5   3     16.78   10.07  0. 1.0000     0. 
   9   5   3     11.01    8.87  0. 1.0000     0. 
  10   5   3     73.91   13.27  0. 1.0000     0. 
  11   5   3     86.71   16.20  0. 1.0000     0. 
  12   5   3    623.61   49.40  0. 1.0000     0. 
  13   5   3    116.89   26.77  0. 1.0000     0. 
  14   5   3   1472.57   74.93  0. 1.0000     0. 
  15   5   3     76.94   23.11  0. 1.0000     0. 
  16   5   3   1469.35   80.92  0. 1.0000     0. 
  17   5   3    355.51   55.65  0. 1.0000     0. 
  18   5   3    759.84  118.62  0. 1.0000     0. 
   1   6   3   3893.72   59.43  0. 1.0000     0. 
   2   6   3    939.90   30.15  0. 1.0000     0. 
   3   6   3   6713.00   82.42  0. 1.0000     0. 
   4   6   3   1604.84   40.96  0. 1.0000     0. 
   5   6   3    237.63   18.38  0. 1.0000     0. 
   6   6   3    503.83   26.51  0. 1.0000     0. 
   7   6   3    836.11   38.06  0. 1.0000     0. 
   8   6   3     72.19   15.30  0. 1.0000     0. 
   9   6   3   7842.24  134.05  0. 1.0000     0. 
  10   6   3   1021.21   52.18  0. 1.0000     0. 
  11   6   3    822.55   50.46  0. 1.0000     0. 
  12   6   3    628.56   51.76  0. 1.0000     0. 
  13   6   3    746.86   55.98  0. 1.0000     0. 
  14   6   3    147.38   27.81  0. 1.0000     0. 
  15   6   3    961.92   66.05  0. 1.0000     0. 
  16   6   3      2.78   11.49  0. 1.0000     0. 
  17   6   3      1.19   81.19  0. 1.0000     0. 
  18   6   3     74.66   74.68  0. 1.0000     0. 
   0   7   3    189.11   20.95  0. 1.0000     0. 
   1   7   3     38.87    7.22  0. 1.0000     0. 
   2   7   3    654.56   27.61  0. 1.0000     0. 
   3   7   3    296.65   20.99  0. 1.0000     0. 
   4   7   3   1941.49   53.04  0. 1.0000     0. 
   5   7   3     18.15    6.58  0. 1.0000     0. 
   6   7   3   4447.75   93.88  0. 1.0000     0. 
   7   7   3    538.94   34.18  0. 1.0000     0. 
   8   7   3   4707.69  105.21  0. 1.0000     0. 
   9   7   3    110.02   17.88  0. 1.0000     0. 
  10   7   3   2412.24   85.54  0. 1.0000     0. 
  11   7   3    283.93   38.20  0. 1.0000     0. 
  12   7   3    695.94   51.33  0. 1.0000     0. 
  13   7   3    603.42   49.01  0. 1.0000     0. 
  14   7   3    170.88   30.48  0. 1.0000     0. 
  15   7   3     14.50   30.86  0. 1.0000     0. 
  16   7   3     26.86   20.80  0. 1.0000     0. 
  17   7   3    362.13  101.64  0. 1.0000     0. 
  18   7   3     80.65   73.98  0. 1.0000     0. 
   1   8   3   2528.32   64.22  0. 1.0000     0. 
   2   8   3    763.97   35.31  0. 1.0000     0. 
   3   8   3     47.21   11.43  0. 1.0000     0. 
   4   8   3   1332.67   49.50  0. 1.0000     0. 
   5   8   3   2689.95   74.82  0. 1.0000     0. 
   6   8   3    559.49   35.17  0. 1.0000     0. 
   7   8   3    871.54   46.19  0. 1.0000     0. 
   8   8   3     14.83   15.06  0. 1.0000     0. 
   9   8   3     54.66   22.41  0. 1.0000     0. 
  10   8   3    207.96   30.74  0. 1.0000     0. 
  11   8   3   2242.02   91.84  0. 1.0000     0. 
  12   8   3    366.88   38.69  0. 1.0000     0. 
  13   8   3    138.68   27.86  0. 1.0000     0. 
  14   8   3     58.63   15.63  0. 1.0000     0. 
  15   8   3     79.40   29.11  0. 1.0000     0. 
  16   8   3     70.05   69.50  0. 1.0000     0. 
  17   8   3    840.24  142.06  0. 1.0000     0. 
   0   9   3   6390.86  156.54  0. 1.0000     0. 
   1   9   3     69.55   11.39  0. 1.0000     0. 
   2   9   3   4783.39   99.08  0. 1.0000     0. 
   3   9   3    231.41   22.48  0. 1.0000     0. 
   4   9   3   2185.35   72.35  0. 1.0000     0. 
   5   9   3    102.38   16.96  0. 1.0000     0. 
   6   9   3    556.58   40.67  0. 1.0000     0. 
   7   9   3    607.07   45.44  0. 1.0000     0. 
   8   9   3    312.43   33.53  0. 1.0000     0. 
   9   9   3      9.97   19.70  0. 1.0000     0. 
  10   9   3    482.83   43.40  0. 1.0000     0. 
  11   9   3     43.74   15.11  0. 1.0000     0. 
  12   9   3    980.96   66.64  0. 1.0000     0. 
  13   9   3    159.56   30.15  0. 1.0000     0. 
  14   9   3   2069.44  152.15  0. 1.0000     0. 
  15   9   3    114.48   74.44  0. 1.0000     0. 
  16   9   3   2050.78  223.75  0. 1.0000     0. 
   1  10   3     76.78   14.42  0. 1.0000     0. 
   2  10   3    629.86   43.13  0. 1.0000     0. 
   3  10   3   5454.23  124.78  0. 1.0000     0. 
   4  10   3    426.49   48.40  0. 1.0000     0. 
   5  10   3    321.61   35.38  0. 1.0000     0. 
   6  10   3    206.32   26.29  0. 1.0000     0. 
   7  10   3   1113.96   66.38  0. 1.0000     0. 
   8  10   3     47.13   13.73  0. 1.0000     0. 
   9  10   3   1310.66   71.74  0. 1.0000     0. 
  10  10   3    479.79   45.03  0. 1.0000     0. 
  11  10   3      2.40   33.49  0. 1.0000     0. 
  12  10   3    602.31   54.72  0. 1.0000     0. 
  13  10   3   1844.81  144.68  0. 1.0000     0. 
  14  10   3    182.97   61.73  0. 1.0000     0. 
  15  10   3    782.98  135.69  0. 1.0000     0. 
   0  11   3    419.28   54.66  0. 1.0000     0. 
   1  11   3     96.04   18.32  0. 1.0000     0. 
   2  11   3    970.04   58.82  0. 1.0000     0. 
   3  11   3     41.45   13.77  0. 1.0000     0. 
   4  11   3   2068.65   86.99  0. 1.0000     0. 
   5  11   3     -0.64   27.64  0. 1.0000     0. 
   6  11   3   3310.97  116.81  0. 1.0000     0. 
   7  11   3     22.46   20.58  0. 1.0000     0. 
   8  11   3   3653.80  122.88  0. 1.0000     0. 
   9  11   3     20.33   17.91  0. 1.0000     0. 
  10  11   3   2662.63  109.36  0. 1.0000     0. 
  11  11   3    227.14   39.94  0. 1.0000     0. 
  12  11   3    967.65  128.85  0. 1.0000     0. 
  13  11   3     32.73  140.92  0. 1.0000     0. 
  14  11   3    105.06  132.11  0. 1.0000     0. 
   1  12   3    500.92   44.43  0. 1.0000     0. 
   2  12   3    366.44   43.29  0. 1.0000     0. 
   3  12   3     21.14   24.56  0. 1.0000     0. 
   4  12   3    550.87   47.30  0. 1.0000     0. 
   5  12   3   1952.93   89.83  0. 1.0000     0. 
   6  12   3    251.08   36.87  0. 1.0000     0. 
   7  12   3    847.93   62.56  0. 1.0000     0. 
   8  12   3      9.52   34.12  0. 1.0000     0. 
   9  12   3     44.33   18.24  0. 1.0000     0. 
  10  12   3    291.48   51.00  0. 1.0000     0. 
  11  12   3    622.11  118.27  0. 1.0000     0. 
  12  12   3    254.77   78.25  0. 1.0000     0. 
  13  12   3    114.81  135.17  0. 1.0000     0. 
   0  13   3   3806.40  193.96  0. 1.0000     0. 
   1  13   3     42.86   18.80  0. 1.0000     0. 
   2  13   3   2605.60  106.11  0. 1.0000     0. 
   3  13   3    512.44   49.68  0. 1.0000     0. 
   4  13   3   1650.22   87.45  0. 1.0000     0. 
   5  13   3     73.22   19.33  0. 1.0000     0. 
   6  13   3    615.18   57.42  0. 1.0000     0. 
   7  13   3     37.97   17.32  0. 1.0000     0. 
   8  13   3    276.48   49.60  0. 1.0000     0. 
   9  13   3      4.53   49.35  0. 1.0000     0. 
  10  13   3    518.03  109.43  0. 1.0000     0. 
  11  13   3      6.43  124.11  0. 1.0000     0. 
   1  14   3    222.27   43.84  0. 1.0000     0. 
   2  14   3    246.76   47.32  0. 1.0000     0. 
   3  14   3   1831.42  126.09  0. 1.0000     0. 
   4  14   3    523.32   69.00  0. 1.0000     0. 
   5  14   3    120.68   31.76  0. 1.0000     0. 
   6  14   3    141.87   35.66  0. 1.0000     0. 
   7  14   3    288.93   82.05  0. 1.0000     0. 
   8  14   3     50.42   30.74  0. 1.0000     0. 
   9  14   3     -5.59  149.96  0. 1.0000     0. 
   0  15   3    365.51   83.28  0. 1.0000     0. 
   1  15   3     -5.64   16.44  0. 1.0000     0. 
   2  15   3    562.50   74.22  0. 1.0000     0. 
   3  15   3    204.86   46.83  0. 1.0000     0. 
   4  15   3   1244.01  153.96  0. 1.0000     0. 
   5  15   3      7.19   20.81  0. 1.0000     0. 
   6  15   3   2089.93  231.65  0. 1.0000     0. 
   7  15   3     -0.62  195.80  0. 1.0000     0. 
   1  16   3    443.20  191.57  0. 1.0000     0. 
   0   0   4  73681.91  395.04  0. 1.0000     0. 
   1   0   4   1521.95   34.28  0. 1.0000     0. 
   2   0   4   5497.78   69.25  0. 1.0000     0. 
   3   0   4      8.57    6.93  0. 1.0000     0. 
   4   0   4  27624.29  207.46  0. 1.0000     0. 
   5   0   4   1306.10   43.90  0. 1.0000     0. 
   6   0   4    281.07   20.81  0. 1.0000     0. 
   7   0   4   2698.70   65.84  0. 1.0000     0. 
   8   0   4  15085.40  168.08  0. 1.0000     0. 
   9   0   4   2336.16   76.61  0. 1.0000     0. 
  10   0   4    214.73   29.14  0. 1.0000     0. 
  11   0   4    183.62   28.05  0. 1.0000     0. 
  12   0   4  13575.27  280.07  0. 1.0000     0. 
  13   0   4    130.17   34.23  0. 1.0000     0. 
  14   0   4   1403.38  104.24  0. 1.0000     0. 
  15   0   4    220.89   41.77  0. 1.0000     0. 
  16   0   4   7113.49  259.79  0. 1.0000     0. 
  17   0   4    126.36   37.32  0. 1.0000     0. 
  18   0   4    255.87   64.97  0. 1.0000     0. 
  19   0   4      9.89   20.95  0. 1.0000     0. 
   1   1   4    200.06   10.66  0. 1.0000     0. 
   2   1   4    301.73   13.29  0. 1.0000     0. 
   3   1   4   1463.66   30.50  0. 1.0000     0. 
   4   1   4    924.08   23.75  0. 1.0000     0. 
   5   1   4   1151.36   28.06  0. 1.0000     0. 
   6   1   4    364.78   16.79  0. 1.0000     0. 
   7   1   4    231.27   16.30  0. 1.0000     0. 
   8   1   4    166.71   13.27  0. 1.0000     0. 
   9   1   4    278.70   19.16  0. 1.0000     0. 
  10   1   4    186.04   18.37  0. 1.0000     0. 
  11   1   4    809.97   39.36  0. 1.0000     0. 
  12   1   4     43.91   11.48  0. 1.0000     0. 
  13   1   4    464.67   40.46  0. 1.0000     0. 
  14   1   4     22.35   21.32  0. 1.0000     0. 
  15   1   4     28.22   34.32  0. 1.0000     0. 
  16   1   4      8.72   10.85  0. 1.0000     0. 
  17   1   4     59.60   21.20  0. 1.0000     0. 
  18   1   4      7.85   54.86  0. 1.0000     0. 
  19   1   4    435.42   73.98  0. 1.0000     0. 
   0   2   4  18805.37  193.07  0. 1.0000     0. 
   1   2   4   3748.80   52.26  0. 1.0000     0. 
   2   2   4   2790.58   44.49  0. 1.0000     0. 
   3   2   4    873.53   27.55  0. 1.0000     0. 
   4   2   4  25308.14  142.51  0. 1.0000     0. 
   5   2   4    177.17   12.09  0. 1.0000     0. 
   6   2   4   5957.97   67.65  0. 1.0000     0. 
   7   2   4    955.23   29.97  0. 1.0000     0. 
   8   2   4  17991.76  138.82  0. 1.0000     0. 
   9   2   4    387.15   24.54  0. 1.0000     0. 
  10   2   4   1025.63   41.52  0. 1.0000     0. 
  11   2   4     16.43   12.85  0. 1.0000     0. 
  12   2   4   6064.61  125.27  0. 1.0000     0. 
  13   2   4    629.76   44.01  0. 1.0000     0. 
  14   2   4    411.49   38.17  0. 1.0000     0. 
  15   2   4   1123.73   66.82  0. 1.0000     0. 
  16   2   4   4639.06  138.27  0. 1.0000     0. 
  17   2   4    450.99   60.15  0. 1.0000     0. 
  18   2   4    957.10   95.86  0. 1.0000     0. 
  19   2   4     -0.48   21.01  0. 1.0000     0. 
   1   3   4    182.10   10.57  0. 1.0000     0. 
   2   3   4    173.36   12.07  0. 1.0000     0. 
   3   3   4   1748.51   35.30  0. 1.0000     0. 
   4   3   4     39.65    6.00  0. 1.0000     0. 
   5   3   4   1209.30   31.81  0. 1.0000     0. 
   6   3   4    217.61   14.00  0. 1.0000     0. 
   7   3   4    136.81   13.17  0. 1.0000     0. 
   8   3   4    199.18   17.13  0. 1.0000     0. 
   9   3   4    152.85   15.06  0. 1.0000     0. 
  10   3   4    299.16   24.69  0. 1.0000     0. 
  11   3   4    557.45   35.83  0. 1.0000     0. 
  12   3   4     24.75   27.02  0. 1.0000     0. 
  13   3   4    801.41   50.28  0. 1.0000     0. 
  14   3   4    349.40   39.92  0. 1.0000     0. 
  15   3   4     53.86   15.17  0. 1.0000     0. 
  16   3   4    451.63   43.75  0. 1.0000     0. 
  17   3   4    169.36   38.55  0. 1.0000     0. 
  18   3   4     24.62   20.17  0. 1.0000     0. 
  19   3   4     79.81  130.94  0. 1.0000     0. 
   0   4   4  29639.99  220.39  0. 1.0000     0. 
   1   4   4   1406.15   31.71  0. 1.0000     0. 
   2   4   4   1526.93   33.56  0. 1.0000     0. 
   3   4   4     19.64    4.62  0. 1.0000     0. 
   4   4   4  16856.89  117.35  0. 1.0000     0. 
   5   4   4   1230.94   32.55  0. 1.0000     0. 
   6   4   4     46.60    8.62  0. 1.0000     0. 
   7   4   4   2526.82   55.64  0. 1.0000     0. 
   8   4   4  13744.16  139.53  0. 1.0000     0. 
   9   4   4   1419.70   50.66  0. 1.0000     0. 
  10   4   4   1408.09   53.72  0. 1.0000     0. 
  11   4   4    219.62   23.62  0. 1.0000     0. 
  12   4   4  11659.79  184.50  0. 1.0000     0. 
  13   4   4    134.14   21.64  0. 1.0000     0. 
  14   4   4    996.71   62.01  0. 1.0000     0. 
  15   4   4    406.98   40.67  0. 1.0000     0. 
  16   4   4   6072.28  162.18  0. 1.0000     0. 
  17   4   4     84.18   29.74  0. 1.0000     0. 
  18   4   4      2.66   54.11  0. 1.0000     0. 
   1   5   4    197.74   12.83  0. 1.0000     0. 
   2   5   4    136.55   12.93  0. 1.0000     0. 
   3   5   4   1316.49   33.19  0. 1.0000     0. 
   4   5   4    303.12   18.08  0. 1.0000     0. 
   5   5   4    829.79   28.51  0. 1.0000     0. 
   6   5   4    150.79   14.59  0. 1.0000     0. 
   7   5   4    229.86   17.74  0. 1.0000     0. 
   8   5   4    202.90   18.65  0. 1.0000     0. 
   9   5   4    180.98   19.96  0. 1.0000     0. 
  10   5   4    182.95   20.03  0. 1.0000     0. 
  11   5   4    515.14   39.67  0. 1.0000     0. 
  12   5   4     38.96   19.79  0. 1.0000     0. 
  13   5   4    410.99   40.75  0. 1.0000     0. 
  14   5   4     58.81   15.17  0. 1.0000     0. 
  15   5   4     13.13   20.15  0. 1.0000     0. 
  16   5   4     13.35   29.58  0. 1.0000     0. 
  17   5   4     44.47   23.58  0. 1.0000     0. 
  18   5   4     -5.13  243.54  0. 1.0000     0. 
   0   6   4   4414.77   89.30  0. 1.0000     0. 
   1   6   4   2757.77   51.20  0. 1.0000     0. 
   2   6   4    376.40   18.82  0. 1.0000     0. 
   3   6   4    520.88   23.01  0. 1.0000     0. 
   4   6   4  14561.58  126.63  0. 1.0000     0. 
   5   6   4    107.77   14.05  0. 1.0000     0. 
   6   6   4   3055.00   67.95  0. 1.0000     0. 
   7   6   4    918.90   40.46  0. 1.0000     0. 
   8   6   4  12066.00  155.46  0. 1.0000     0. 
   9   6   4    556.50   35.66  0. 1.0000     0. 
  10   6   4   1281.61   59.32  0. 1.0000     0. 
  11   6   4     19.62   14.80  0. 1.0000     0. 
  12   6   4   4160.35  118.10  0. 1.0000     0. 
  13   6   4    527.01   43.56  0. 1.0000     0. 
  14   6   4    137.25   23.76  0. 1.0000     0. 
  15   6   4    542.04   52.76  0. 1.0000     0. 
  16   6   4   3268.37  178.64  0. 1.0000     0. 
  17   6   4    209.17  144.87  0. 1.0000     0. 
   1   7   4    119.61   12.61  0. 1.0000     0. 
   2   7   4    198.43   16.57  0. 1.0000     0. 
   3   7   4    845.71   34.79  0. 1.0000     0. 
   4   7   4    738.27   33.72  0. 1.0000     0. 
   5   7   4    829.69   36.56  0. 1.0000     0. 
   6   7   4    258.16   22.05  0. 1.0000     0. 
   7   7   4    154.80   18.44  0. 1.0000     0. 
   8   7   4     55.14   11.64  0. 1.0000     0. 
   9   7   4    131.28   28.79  0. 1.0000     0. 
  10   7   4    196.10   23.76  0. 1.0000     0. 
  11   7   4    465.15   39.57  0. 1.0000     0. 
  12   7   4     11.00   14.61  0. 1.0000     0. 
  13   7   4    336.10   36.77  0. 1.0000     0. 
  14   7   4     -4.43   30.38  0. 1.0000     0. 
  15   7   4     29.19   13.88  0. 1.0000     0. 
  16   7   4      3.71  111.71  0. 1.0000     0. 
   0   8   4  15436.64  216.26  0. 1.0000     0. 
   1   8   4    829.84   36.58  0. 1.0000     0. 
   2   8   4    661.03   32.82  0. 1.0000     0. 
   3   8   4     73.25   11.02  0. 1.0000     0. 
   4   8   4   7943.19  116.95  0. 1.0000     0. 
   5   8   4    543.79   34.34  0. 1.0000     0. 
   6   8   4     56.81   13.09  0. 1.0000     0. 
   7   8   4   1376.44   58.79  0. 1.0000     0. 
   8   8   4   5291.93  120.47  0. 1.0000     0. 
   9   8   4    577.02   48.27  0. 1.0000     0. 
  10   8   4    195.63   30.66  0. 1.0000     0. 
  11   8   4     69.03   17.83  0. 1.0000     0. 
  12   8   4   6084.65  155.34  0. 1.0000     0. 
  13   8   4     93.16   23.74  0. 1.0000     0. 
  14   8   4    255.45   39.94  0. 1.0000     0. 
  15   8   4    113.30  124.08  0. 1.0000     0. 
   1   9   4     90.28   14.34  0. 1.0000     0. 
   2   9   4    128.60   15.63  0. 1.0000     0. 
   3   9   4    800.84   40.98  0. 1.0000     0. 
   4   9   4      4.23   10.21  0. 1.0000     0. 
   5   9   4    411.86   38.42  0. 1.0000     0. 
   6   9   4     39.03   10.58  0. 1.0000     0. 
   7   9   4     63.49   20.37  0. 1.0000     0. 
   8   9   4    173.15   23.37  0. 1.0000     0. 
   9   9   4     72.90   19.88  0. 1.0000     0. 
  10   9   4    115.41   22.33  0. 1.0000     0. 
  11   9   4    318.79   36.40  0. 1.0000     0. 
  12   9   4     52.88   15.83  0. 1.0000     0. 
  13   9   4    427.57   59.62  0. 1.0000     0. 
  14   9   4     99.68  122.01  0. 1.0000     0. 
   0  10   4   1816.32  100.64  0. 1.0000     0. 
   1  10   4    673.22   50.65  0. 1.0000     0. 
   2  10   4     86.93   29.83  0. 1.0000     0. 
   3  10   4    128.99   27.23  0. 1.0000     0. 
   4  10   4   5060.89  124.02  0. 1.0000     0. 
   5  10   4    191.15   24.47  0. 1.0000     0. 
   6  10   4    915.65   54.77  0. 1.0000     0. 
   7  10   4    486.48   43.63  0. 1.0000     0. 
   8  10   4   3210.53  108.29  0. 1.0000     0. 
   9  10   4    332.20   36.47  0. 1.0000     0. 
  10  10   4      5.85   24.08  0. 1.0000     0. 
  11  10   4      5.41   40.19  0. 1.0000     0. 
  12  10   4    792.90   78.38  0. 1.0000     0. 
  13  10   4    256.49  131.72  0. 1.0000     0. 
   1  11   4     89.98   16.96  0. 1.0000     0. 
   2  11   4     45.40   13.10  0. 1.0000     0. 
   3  11   4    536.43   42.44  0. 1.0000     0. 
   4  11   4    111.44   19.95  0. 1.0000     0. 
   5  11   4    356.00   35.10  0. 1.0000     0. 
   6  11   4      9.12   24.11  0. 1.0000     0. 
   7  11   4     83.42   19.17  0. 1.0000     0. 
   8  11   4     71.00   20.67  0. 1.0000     0. 
   9  11   4     63.43   18.43  0. 1.0000     0. 
  10  11   4     93.45   36.72  0. 1.0000     0. 
  11  11   4    280.50   76.85  0. 1.0000     0. 
  12  11   4     16.08   38.55  0. 1.0000     0. 
   0  12   4   6625.72  228.01  0. 1.0000     0. 
   1  12   4    676.89   51.30  0. 1.0000     0. 
   2  12   4    108.00   21.02  0. 1.0000     0. 
   3  12   4     48.98   22.34  0. 1.0000     0. 
   4  12   4   1958.87   88.91  0. 1.0000     0. 
   5  12   4    177.58   27.65  0. 1.0000     0. 
   6  12   4    187.53   31.11  0. 1.0000     0. 
   7  12   4    626.80   57.31  0. 1.0000     0. 
   8  12   4   1147.90   89.34  0. 1.0000     0. 
   9  12   4    327.42   78.12  0. 1.0000     0. 
  10  12   4    100.61   44.31  0. 1.0000     0. 
  11  12   4    -10.85  303.05  0. 1.0000     0. 
   1  13   4     33.09   30.59  0. 1.0000     0. 
   2  13   4     69.44   26.14  0. 1.0000     0. 
   3  13   4    312.44   40.13  0. 1.0000     0. 
   4  13   4    248.53   41.32  0. 1.0000     0. 
   5  13   4    313.83   50.36  0. 1.0000     0. 
   6  13   4    133.59   35.97  0. 1.0000     0. 
   7  13   4     50.52   75.03  0. 1.0000     0. 
   8  13   4     38.12   84.66  0. 1.0000     0. 
   9  13   4    111.30   65.63  0. 1.0000     0. 
   0  14   4    195.50   56.95  0. 1.0000     0. 
   1  14   4    376.87   62.54  0. 1.0000     0. 
   2  14   4    166.52   40.28  0. 1.0000     0. 
   3  14   4     64.90   23.35  0. 1.0000     0. 
   4  14   4    823.59  102.01  0. 1.0000     0. 
   5  14   4    110.47   59.42  0. 1.0000     0. 
   6  14   4     78.05   40.30  0. 1.0000     0. 
   7  14   4    584.59  153.89  0. 1.0000     0. 
   1  15   4     31.04   63.50  0. 1.0000     0. 
   2  15   4     23.20   61.09  0. 1.0000     0. 
   3  15   4    169.55   86.74  0. 1.0000     0. 
   4  15   4    -15.19  133.91  0. 1.0000     0. 
   5  15   4     -5.53  262.16  0. 1.0000     0. 
   1   0   5   3830.20   57.91  0. 1.0000     0. 
   2   0   5    873.17   30.96  0. 1.0000     0. 
   3   0   5    810.47   30.38  0. 1.0000     0. 
   4   0   5   1900.24   50.68  0. 1.0000     0. 
   5   0   5    108.62   13.78  0. 1.0000     0. 
   6   0   5    382.04   25.32  0. 1.0000     0. 
   7   0   5   2724.43   68.84  0. 1.0000     0. 
   8   0   5    135.01   17.61  0. 1.0000     0. 
   9   0   5   1265.56   57.96  0. 1.0000     0. 
  10   0   5    863.88   55.27  0. 1.0000     0. 
  11   0   5   1928.16   99.80  0. 1.0000     0. 
  12   0   5    899.26   67.60  0. 1.0000     0. 
  13   0   5   1049.07   77.60  0. 1.0000     0. 
  14   0   5    196.11   38.16  0. 1.0000     0. 
  15   0   5    213.59   41.00  0. 1.0000     0. 
  16   0   5     31.06   15.57  0. 1.0000     0. 
  17   0   5    805.99  131.49  0. 1.0000     0. 
  18   0   5     51.45  125.22  0. 1.0000     0. 
   0   1   5    706.61   24.29  0. 1.0000     0. 
   1   1   5    117.67    8.96  0. 1.0000     0. 
   2   1   5    211.25   12.20  0. 1.0000     0. 
   3   1   5    435.67   17.27  0. 1.0000     0. 
   4   1   5     32.03    5.77  0. 1.0000     0. 
   5   1   5    245.89   13.78  0. 1.0000     0. 
   6   1   5    877.88   27.23  0. 1.0000     0. 
   7   1   5   1341.96   34.14  0. 1.0000     0. 
   8   1   5   1137.02   34.64  0. 1.0000     0. 
   9   1   5     17.71    6.58  0. 1.0000     0. 
  10   1   5    651.49   31.86  0. 1.0000     0. 
  11   1   5    511.31   30.32  0. 1.0000     0. 
  12   1   5     12.65   24.40  0. 1.0000     0. 
  13   1   5    165.06   21.63  0. 1.0000     0. 
  14   1   5    117.05   22.24  0. 1.0000     0. 
  15   1   5    178.68   32.02  0. 1.0000     0. 
  16   1   5    251.83   37.62  0. 1.0000     0. 
  17   1   5     28.50   54.60  0. 1.0000     0. 
  18   1   5     14.51   87.22  0. 1.0000     0. 
   1   2   5   4126.89   56.88  0. 1.0000     0. 
   2   2   5   1161.59   29.54  0. 1.0000     0. 
   3   2   5   4482.00   61.11  0. 1.0000     0. 
   4   2   5   2267.05   44.82  0. 1.0000     0. 
   5   2   5   1250.27   31.11  0. 1.0000     0. 
   6   2   5    670.71   24.84  0. 1.0000     0. 
   7   2   5   1339.71   37.69  0. 1.0000     0. 
   8   2   5     23.73    5.99  0. 1.0000     0. 
   9   2   5   3397.25   68.20  0. 1.0000     0. 
  10   2   5    673.66   33.65  0. 1.0000     0. 
  11   2   5   1915.99   63.52  0. 1.0000     0. 
  12   2   5    443.78   35.02  0. 1.0000     0. 
  13   2   5    641.14   44.48  0. 1.0000     0. 
  14   2   5     52.75   16.62  0. 1.0000     0. 
  15   2   5    816.99   58.96  0. 1.0000     0. 
  16   2   5    117.26   23.17  0. 1.0000     0. 
  17   2   5    304.37   87.75  0. 1.0000     0. 
  18   2   5    399.55  100.24  0. 1.0000     0. 
  19   2   5     -5.86  278.05  0. 1.0000     0. 
   0   3   5   2730.27   64.01  0. 1.0000     0. 
   1   3   5   3560.88   57.61  0. 1.0000     0. 
   2   3   5   1705.33   40.59  0. 1.0000     0. 
   3   3   5    258.48   15.13  0. 1.0000     0. 
   4   3   5    517.00   22.84  0. 1.0000     0. 
   5   3   5    640.54   23.28  0. 1.0000     0. 
   6   3   5     21.85    5.53  0. 1.0000     0. 
   7   3   5    191.98   15.61  0. 1.0000     0. 
   8   3   5     67.86   10.30  0. 1.0000     0. 
   9   3   5   1876.13   52.90  0. 1.0000     0. 
  10   3   5     11.56   13.11  0. 1.0000     0. 
  11   3   5    324.87   26.84  0. 1.0000     0. 
  12   3   5    221.69   28.80  0. 1.0000     0. 
  13   3   5    468.85   39.50  0. 1.0000     0. 
  14   3   5    610.66   52.43  0. 1.0000     0. 
  15   3   5     94.17   23.94  0. 1.0000     0. 
  16   3   5    688.47   72.94  0. 1.0000     0. 
  17   3   5    198.26   56.71  0. 1.0000     0. 
  18   3   5    396.21   98.77  0. 1.0000     0. 
   1   4   5    935.89   27.89  0. 1.0000     0. 
   2   4   5    867.74   26.36  0. 1.0000     0. 
   3   4   5    460.64   20.67  0. 1.0000     0. 
   4   4   5   1718.92   39.85  0. 1.0000     0. 
   5   4   5   3554.56   59.67  0. 1.0000     0. 
   6   4   5    367.04   22.50  0. 1.0000     0. 
   7   4   5   1420.04   43.24  0. 1.0000     0. 
   8   4   5    115.31   13.29  0. 1.0000     0. 
   9   4   5    101.11   13.91  0. 1.0000     0. 
  10   4   5    876.76   41.64  0. 1.0000     0. 
  11   4   5    299.01   29.98  0. 1.0000     0. 
  12   4   5    618.65   46.87  0. 1.0000     0. 
  13   4   5    891.33   56.90  0. 1.0000     0. 
  14   4   5    201.98   29.00  0. 1.0000     0. 
  15   4   5    556.22   54.97  0. 1.0000     0. 
  16   4   5      5.87   13.70  0. 1.0000     0. 
  17   4   5    391.72   83.85  0. 1.0000     0. 
  18   4   5     63.10  127.65  0. 1.0000     0. 
   0   5   5      9.66   17.91  0. 1.0000     0. 
   1   5   5    515.92   22.12  0. 1.0000     0. 
   2   5   5    146.07   13.53  0. 1.0000     0. 
   3   5   5    465.27   21.99  0. 1.0000     0. 
   4   5   5    811.88   29.37  0. 1.0000     0. 
   5   5   5    108.19   11.41  0. 1.0000     0. 
   6   5   5   2348.45   57.29  0. 1.0000     0. 
   7   5   5    671.87   31.49  0. 1.0000     0. 
   8   5   5   2532.37   65.48  0. 1.0000     0. 
   9   5   5     12.20    7.12  0. 1.0000     0. 
  10   5   5   1191.96   54.12  0. 1.0000     0. 
  11   5   5    263.86   26.76  0. 1.0000     0. 
  12   5   5    415.90   37.68  0. 1.0000     0. 
  13   5   5    291.49   34.48  0. 1.0000     0. 
  14   5   5     21.97   23.04  0. 1.0000     0. 
  15   5   5    223.90   44.41  0. 1.0000     0. 
  16   5   5      4.98   62.07  0. 1.0000     0. 
  17   5   5     51.74   38.26  0. 1.0000     0. 
  18   5   5     -5.19  246.13  0. 1.0000     0. 
   1   6   5    576.52   23.61  0. 1.0000     0. 
   2   6   5    890.44   32.33  0. 1.0000     0. 
   3   6   5   2798.36   58.97  0. 1.0000     0. 
   4   6   5   1535.96   45.51  0. 1.0000     0. 
   5   6   5   5353.22   89.58  0. 1.0000     0. 
   6   6   5    479.13   26.95  0. 1.0000     0. 
   7   6   5    756.74   35.92  0. 1.0000     0. 
   8   6   5     25.81    8.30  0. 1.0000     0. 
   9   6   5    682.73   43.19  0. 1.0000     0. 
  10   6   5    452.82   34.23  0. 1.0000     0. 
  11   6   5    314.65   35.91  0. 1.0000     0. 
  12   6   5    404.84   41.71  0. 1.0000     0. 
  13   6   5    371.69   45.09  0. 1.0000     0. 
  14   6   5     43.80   16.41  0. 1.0000     0. 
  15   6   5   3255.21  170.21  0. 1.0000     0. 
  16   6   5    119.79   47.32  0. 1.0000     0. 
  17   6   5    165.68  111.70  0. 1.0000     0. 
   0   7   5   4637.36  109.18  0. 1.0000     0. 
   1   7   5     37.61    8.13  0. 1.0000     0. 
   2   7   5   3100.96   63.57  0. 1.0000     0. 
   3   7   5     74.46   10.38  0. 1.0000     0. 
   4   7   5   1459.65   47.10  0. 1.0000     0. 
   5   7   5    614.45   31.30  0. 1.0000     0. 
   6   7   5    254.93   21.58  0. 1.0000     0. 
   7   7   5   1672.65   57.05  0. 1.0000     0. 
   8   7   5     71.87   25.14  0. 1.0000     0. 
   9   7   5     74.61   16.76  0. 1.0000     0. 
  10   7   5    110.49   25.53  0. 1.0000     0. 
  11   7   5    273.18   33.57  0. 1.0000     0. 
  12   7   5    635.00   56.17  0. 1.0000     0. 
  13   7   5      0.92   28.15  0. 1.0000     0. 
  14   7   5   1420.49  112.82  0. 1.0000     0. 
  15   7   5     34.00   27.64  0. 1.0000     0. 
  16   7   5   1570.17  336.94  0. 1.0000     0. 
   1   8   5    813.23   35.69  0. 1.0000     0. 
   2   8   5    588.26   31.66  0. 1.0000     0. 
   3   8   5    443.53   26.40  0. 1.0000     0. 
   4   8   5   1019.58   42.11  0. 1.0000     0. 
   5   8   5    880.21   41.53  0. 1.0000     0. 
   6   8   5    186.52   27.54  0. 1.0000     0. 
   7   8   5   1068.87   51.23  0. 1.0000     0. 
   8   8   5     57.31   21.76  0. 1.0000     0. 
   9   8   5    130.76   23.29  0. 1.0000     0. 
  10   8   5    535.43   49.70  0. 1.0000     0. 
  11   8   5    388.07   46.37  0. 1.0000     0. 
  12   8   5    726.38   65.43  0. 1.0000     0. 
  13   8   5    644.24   76.01  0. 1.0000     0. 
  14   8   5    172.50   40.46  0. 1.0000     0. 
  15   8   5    156.43  106.06  0. 1.0000     0. 
   0   9   5    263.21   30.15  0. 1.0000     0. 
   1   9   5   2517.36   69.20  0. 1.0000     0. 
   2   9   5    556.18   33.23  0. 1.0000     0. 
   3   9   5     14.83   19.22  0. 1.0000     0. 
   4   9   5   1118.97   49.96  0. 1.0000     0. 
   5   9   5     15.78   23.97  0. 1.0000     0. 
   6   9   5   2492.14   84.29  0. 1.0000     0. 
   7   9   5      7.06   18.61  0. 1.0000     0. 
   8   9   5   2880.51  106.41  0. 1.0000     0. 
   9   9   5    273.61   38.69  0. 1.0000     0. 
  10   9   5   2297.47  114.26  0. 1.0000     0. 
  11   9   5     24.53   13.67  0. 1.0000     0. 
  12   9   5    792.71   84.77  0. 1.0000     0. 
  13   9   5    807.47   86.90  0. 1.0000     0. 
   1  10   5   1322.98   57.18  0. 1.0000     0. 
   2  10   5    495.62   35.30  0. 1.0000     0. 
   3  10   5   1627.73   64.16  0. 1.0000     0. 
   4  10   5    976.42   51.67  0. 1.0000     0. 
   5  10   5     61.94   15.92  0. 1.0000     0. 
   6  10   5    309.69   35.03  0. 1.0000     0. 
   7  10   5    434.57   50.36  0. 1.0000     0. 
   8  10   5      6.48   27.73  0. 1.0000     0. 
   9  10   5   1733.32  100.08  0. 1.0000     0. 
  10  10   5    322.00   44.42  0. 1.0000     0. 
  11  10   5   1113.44  100.67  0. 1.0000     0. 
  12  10   5    287.64   64.47  0. 1.0000     0. 
  13  10   5    193.62  119.00  0. 1.0000     0. 
   0  11   5   3711.25  163.50  0. 1.0000     0. 
   1  11   5     95.52   19.44  0. 1.0000     0. 
   2  11   5   2681.66   99.11  0. 1.0000     0. 
   3  11   5     11.52   19.56  0. 1.0000     0. 
   4  11   5   1619.38   81.53  0. 1.0000     0. 
   5  11   5    398.43   45.67  0. 1.0000     0. 
   6  11   5    410.42   51.06  0. 1.0000     0. 
   7  11   5    710.42   66.87  0. 1.0000     0. 
   8  11   5    293.88   42.79  0. 1.0000     0. 
   9  11   5    385.46   59.17  0. 1.0000     0. 
  10  11   5    368.01   73.38  0. 1.0000     0. 
  11  11   5     13.54   27.99  0. 1.0000     0. 
  12  11   5   1070.94  281.63  0. 1.0000     0. 
   1  12   5    989.61   66.50  0. 1.0000     0. 
   2  12   5    342.75   38.77  0. 1.0000     0. 
   3  12   5    133.54   35.19  0. 1.0000     0. 
   4  12   5    497.23   56.88  0. 1.0000     0. 
   5  12   5      3.20   34.53  0. 1.0000     0. 
   6  12   5    138.15   34.35  0. 1.0000     0. 
   7  12   5    590.51   78.38  0. 1.0000     0. 
   8  12   5     37.18   28.88  0. 1.0000     0. 
   9  12   5    388.71   84.24  0. 1.0000     0. 
  10  12   5    358.59   96.72  0. 1.0000     0. 
  11  12   5    496.37  189.74  0. 1.0000     0. 
   0  13   5     84.68   82.35  0. 1.0000     0. 
   1  13   5     26.56   71.61  0. 1.0000     0. 
   2  13   5    586.58   94.58  0. 1.0000     0. 
   3  13   5    331.61   83.61  0. 1.0000     0. 
   4  13   5   1166.65  160.16  0. 1.0000     0. 
   5  13   5     22.28   30.30  0. 1.0000     0. 
   6  13   5   2310.55  234.00  0. 1.0000     0. 
   7  13   5    216.36   83.46  0. 1.0000     0. 
   8  13   5   2469.22  251.90  0. 1.0000     0. 
   9  13   5     33.31  127.29  0. 1.0000     0. 
   2  14   5     -4.70  222.87  0. 1.0000     0. 
   3  14   5     -4.80  227.91  0. 1.0000     0. 
   4  14   5    246.95  146.34  0. 1.0000     0. 
   5  14   5    226.00  140.62  0. 1.0000     0. 
   6  14   5     65.54  131.00  0. 1.0000     0. 
   7  14   5     -6.03  286.08  0. 1.0000     0. 
   0   0   6    120.75   16.25  0. 1.0000     0. 
   1   0   6   2569.84   53.23  0. 1.0000     0. 
   2   0   6  16851.37  148.11  0. 1.0000     0. 
   3   0   6    668.59   30.30  0. 1.0000     0. 
   4   0   6   1817.97   50.03  0. 1.0000     0. 
   5   0   6     24.94    7.97  0. 1.0000     0. 
   6   0   6   9771.57  129.76  0. 1.0000     0. 
   7   0   6    257.95   24.38  0. 1.0000     0. 
   8   0   6    463.40   32.35  0. 1.0000     0. 
   9   0   6     36.69   10.98  0. 1.0000     0. 
  10   0   6   9815.77  181.46  0. 1.0000     0. 
  11   0   6     46.18   14.00  0. 1.0000     0. 
  12   0   6    337.63   48.53  0. 1.0000     0. 
  13   0   6    603.31   69.53  0. 1.0000     0. 
  14   0   6   4630.72  210.55  0. 1.0000     0. 
  15   0   6   1023.09  135.44  0. 1.0000     0. 
  16   0   6   1189.85  286.28  0. 1.0000     0. 
   1   1   6     40.37    5.58  0. 1.0000     0. 
   2   1   6    778.94   24.85  0. 1.0000     0. 
   3   1   6    473.77   19.19  0. 1.0000     0. 
   4   1   6   2326.31   46.33  0. 1.0000     0. 
   5   1   6    236.56   14.60  0. 1.0000     0. 
   6   1   6    870.92   27.50  0. 1.0000     0. 
   7   1   6     72.67    9.48  0. 1.0000     0. 
   8   1   6    186.57   15.34  0. 1.0000     0. 
   9   1   6     52.91    9.03  0. 1.0000     0. 
  10   1   6    728.09   33.71  0. 1.0000     0. 
  11   1   6    162.65   19.31  0. 1.0000     0. 
  12   1   6    382.42   36.54  0. 1.0000     0. 
  13   1   6    301.88   36.25  0. 1.0000     0. 
  14   1   6     58.61   23.84  0. 1.0000     0. 
  15   1   6      8.46   44.59  0. 1.0000     0. 
  16   1   6     26.38   33.75  0. 1.0000     0. 
   0   2   6   1104.70   48.40  0. 1.0000     0. 
   1   2   6    286.72   15.40  0. 1.0000     0. 
   2   2   6  11196.79  100.19  0. 1.0000     0. 
   3   2   6     51.37    7.31  0. 1.0000     0. 
   4   2   6   1458.23   36.92  0. 1.0000     0. 
   5   2   6    816.40   29.32  0. 1.0000     0. 
   6   2   6   9380.96   93.57  0. 1.0000     0. 
   7   2   6   1694.57   43.35  0. 1.0000     0. 
   8   2   6   2602.95   60.62  0. 1.0000     0. 
   9   2   6    984.60   37.58  0. 1.0000     0. 
  10   2   6  10318.22  131.53  0. 1.0000     0. 
  11   2   6     91.55   22.03  0. 1.0000     0. 
  12   2   6   1242.73   60.49  0. 1.0000     0. 
  13   2   6     27.08   29.26  0. 1.0000     0. 
  14   2   6   4410.24  159.39  0. 1.0000     0. 
  15   2   6     38.62   23.85  0. 1.0000     0. 
  16   2   6    111.99   91.08  0. 1.0000     0. 
   1   3   6     38.09    6.10  0. 1.0000     0. 
   2   3   6   1019.58   33.29  0. 1.0000     0. 
   3   3   6    399.44   20.52  0. 1.0000     0. 
   4   3   6    416.35   21.21  0. 1.0000     0. 
   5   3   6    301.47   18.66  0. 1.0000     0. 
   6   3   6     19.83    8.29  0. 1.0000     0. 
   7   3   6    133.82   13.63  0. 1.0000     0. 
   8   3   6    115.67   14.61  0. 1.0000     0. 
   9   3   6     86.28   13.37  0. 1.0000     0. 
  10   3   6    742.66   37.48  0. 1.0000     0. 
  11   3   6    196.92   25.59  0. 1.0000     0. 
  12   3   6    401.20   39.58  0. 1.0000     0. 
  13   3   6    181.26   30.73  0. 1.0000     0. 
  14   3   6     67.56   33.78  0. 1.0000     0. 
  15   3   6     27.47   15.72  0. 1.0000     0. 
  16   3   6    182.14   95.53  0. 1.0000     0. 
   0   4   6   2109.40   65.49  0. 1.0000     0. 
   1   4   6   1630.50   42.30  0. 1.0000     0. 
   2   4   6  15122.45  138.61  0. 1.0000     0. 
   3   4   6    512.45   23.30  0. 1.0000     0. 
   4   4   6    897.10   32.83  0. 1.0000     0. 
   5   4   6     16.17   13.27  0. 1.0000     0. 
   6   4   6   9856.06  105.43  0. 1.0000     0. 
   7   4   6    283.53   20.98  0. 1.0000     0. 
   8   4   6     60.86   10.09  0. 1.0000     0. 
   9   4   6     79.55   13.21  0. 1.0000     0. 
  10   4   6   2836.97   83.49  0. 1.0000     0. 
  11   4   6     80.87   19.11  0. 1.0000     0. 
  12   4   6     41.71   21.93  0. 1.0000     0. 
  13   4   6    557.61   54.43  0. 1.0000     0. 
  14   4   6   6154.22  184.66  0. 1.0000     0. 
  15   4   6    462.65   67.96  0. 1.0000     0. 
  16   4   6     22.35   29.40  0. 1.0000     0. 
  17   4   6     -5.53  262.23  0. 1.0000     0. 
   1   5   6     23.79    7.33  0. 1.0000     0. 
   2   5   6    659.85   25.52  0. 1.0000     0. 
   3   5   6    347.85   19.66  0. 1.0000     0. 
   4   5   6   1193.64   38.77  0. 1.0000     0. 
   5   5   6    234.48   17.35  0. 1.0000     0. 
   6   5   6    508.30   26.31  0. 1.0000     0. 
   7   5   6     63.34   10.84  0. 1.0000     0. 
   8   5   6    173.18   18.58  0. 1.0000     0. 
   9   5   6     32.23   19.70  0. 1.0000     0. 
  10   5   6    562.12   44.31  0. 1.0000     0. 
  11   5   6    116.84   33.10  0. 1.0000     0. 
  12   5   6    416.80   48.34  0. 1.0000     0. 
  13   5   6    269.27   39.00  0. 1.0000     0. 
  14   5   6     10.28   36.29  0. 1.0000     0. 
  15   5   6     24.17   50.10  0. 1.0000     0. 
  16   5   6     46.10   34.30  0. 1.0000     0. 
  17   5   6     -5.47  183.50  0. 1.0000     0. 
   0   6   6   1833.56   72.91  0. 1.0000     0. 
   1   6   6    349.00   21.60  0. 1.0000     0. 
   2   6   6   7712.69   95.62  0. 1.0000     0. 
   3   6   6      5.96    4.82  0. 1.0000     0. 
   4   6   6    387.00   23.36  0. 1.0000     0. 
   5   6   6    645.48   31.81  0. 1.0000     0. 
   6   6   6   6343.11  105.55  0. 1.0000     0. 
   7   6   6   1218.80   51.08  0. 1.0000     0. 
   8   6   6    664.33   43.39  0. 1.0000     0. 
   9   6   6    519.27   42.77  0. 1.0000     0. 
  10   6   6   4749.87  149.57  0. 1.0000     0. 
  11   6   6    101.45   34.37  0. 1.0000     0. 
  12   6   6    497.06   52.04  0. 1.0000     0. 
  13   6   6     22.51   14.33  0. 1.0000     0. 
  14   6   6   3013.94  160.09  0. 1.0000     0. 
  15   6   6    125.90   53.44  0. 1.0000     0. 
  16   6   6     -0.13   16.92  0. 1.0000     0. 
   1   7   6     40.43    7.85  0. 1.0000     0. 
   2   7   6    581.24   29.63  0. 1.0000     0. 
   3   7   6    282.28   21.61  0. 1.0000     0. 
   4   7   6   1849.73   56.04  0. 1.0000     0. 
   5   7   6    147.16   17.23  0. 1.0000     0. 
   6   7   6    682.16   39.26  0. 1.0000     0. 
   7   7   6     27.76   18.85  0. 1.0000     0. 
   8   7   6     83.85   21.00  0. 1.0000     0. 
   9   7   6     25.30   16.92  0. 1.0000     0. 
  10   7   6    479.44   56.81  0. 1.0000     0. 
  11   7   6    152.81   30.38  0. 1.0000     0. 
  12   7   6    287.31   40.48  0. 1.0000     0. 
  13   7   6    248.16   46.28  0. 1.0000     0. 
  14   7   6    134.77   37.13  0. 1.0000     0. 
  15   7   6      7.78   25.83  0. 1.0000     0. 
   0   8   6    202.62   25.11  0. 1.0000     0. 
   1   8   6   1011.99   39.46  0. 1.0000     0. 
   2   8   6   6476.15  107.31  0. 1.0000     0. 
   3   8   6    167.08   18.26  0. 1.0000     0. 
   4   8   6    254.82   23.89  0. 1.0000     0. 
   5   8   6     27.04   18.82  0. 1.0000     0. 
   6   8   6   4848.93  120.67  0. 1.0000     0. 
   7   8   6    216.13   36.58  0. 1.0000     0. 
   8   8   6      9.46   19.23  0. 1.0000     0. 
   9   8   6    106.44   28.61  0. 1.0000     0. 
  10   8   6   2828.81  130.57  0. 1.0000     0. 
  11   8   6     22.50   28.83  0. 1.0000     0. 
  12   8   6     11.52   15.14  0. 1.0000     0. 
  13   8   6    366.74   57.91  0. 1.0000     0. 
  14   8   6   3447.07  251.29  0. 1.0000     0. 
  15   8   6     92.40   86.57  0. 1.0000     0. 
   1   9   6     10.43   26.36  0. 1.0000     0. 
   2   9   6    362.35   34.71  0. 1.0000     0. 
   3   9   6    143.70   28.76  0. 1.0000     0. 
   4   9   6    198.80   29.38  0. 1.0000     0. 
   5   9   6    155.33   29.13  0. 1.0000     0. 
   6   9   6     28.89   15.69  0. 1.0000     0. 
   7   9   6     95.85   23.00  0. 1.0000     0. 
   8   9   6     85.33   22.04  0. 1.0000     0. 
   9   9   6     41.10   16.65  0. 1.0000     0. 
  10   9   6    433.84   50.92  0. 1.0000     0. 
  11   9   6    155.05   37.48  0. 1.0000     0. 
  12   9   6    403.42   60.37  0. 1.0000     0. 
  13   9   6    129.84   43.49  0. 1.0000     0. 
   0  10   6     20.13   35.72  0. 1.0000     0. 
   1  10   6    172.14   30.44  0. 1.0000     0. 
   2  10   6   1769.97   90.93  0. 1.0000     0. 
   3  10   6     17.52   15.55  0. 1.0000     0. 
   4  10   6     64.57   20.89  0. 1.0000     0. 
   5  10   6    202.25   35.35  0. 1.0000     0. 
   6  10   6   2420.81  113.64  0. 1.0000     0. 
   7  10   6    589.30   62.25  0. 1.0000     0. 
   8  10   6    536.44   56.74  0. 1.0000     0. 
   9  10   6    337.31   50.32  0. 1.0000     0. 
  10  10   6   4597.55  201.26  0. 1.0000     0. 
  11  10   6      9.67   15.65  0. 1.0000     0. 
  12  10   6    325.23   78.09  0. 1.0000     0. 
  13  10   6     -5.12   18.40  0. 1.0000     0. 
   1  11   6      5.27   25.50  0. 1.0000     0. 
   2  11   6    228.72   46.99  0. 1.0000     0. 
   3  11   6    145.70   41.60  0. 1.0000     0. 
   4  11   6    526.93   60.60  0. 1.0000     0. 
   5  11   6    142.16   31.49  0. 1.0000     0. 
   6  11   6     82.52   23.25  0. 1.0000     0. 
   7  11   6     30.33   20.77  0. 1.0000     0. 
   8  11   6     87.95   30.06  0. 1.0000     0. 
   9  11   6     35.42   18.77  0. 1.0000     0. 
  10  11   6    405.23   97.65  0. 1.0000     0. 
  11  11   6     46.82   49.55  0. 1.0000     0. 
   0  12   6     79.64   41.18  0. 1.0000     0. 
   1  12   6    496.09   70.24  0. 1.0000     0. 
   2  12   6   2454.29  154.35  0. 1.0000     0. 
   3  12   6     90.43   29.03  0. 1.0000     0. 
   4  12   6     39.22   26.28  0. 1.0000     0. 
   5  12   6     64.23   50.99  0. 1.0000     0. 
   6  12   6    892.79  204.45  0. 1.0000     0. 
   7  12   6     -4.76  225.99  0. 1.0000     0. 
   8  12   6     -7.46  116.77  0. 1.0000     0. 
   9  12   6     12.32  120.01  0. 1.0000     0. 
  10  12   6     -5.54  186.03  0. 1.0000     0. 
   1   0   7     94.03   12.87  0. 1.0000     0. 
   2   0   7    246.29   17.57  0. 1.0000     0. 
   3   0   7   2541.34   57.84  0. 1.0000     0. 
   4   0   7    365.10   24.41  0. 1.0000     0. 
   5   0   7    295.55   22.53  0. 1.0000     0. 
   6   0   7     88.70   13.49  0. 1.0000     0. 
   7   0   7   2625.54   84.71  0. 1.0000     0. 
   8   0   7     36.01   10.42  0. 1.0000     0. 
   9   0   7     83.91   21.90  0. 1.0000     0. 
  10   0   7     80.08   29.07  0. 1.0000     0. 
  11   0   7      5.22   66.00  0. 1.0000     0. 
  12   0   7    111.26   40.26  0. 1.0000     0. 
  13   0   7   2542.69  201.41  0. 1.0000     0. 
  14   0   7     -5.38   21.67  0. 1.0000     0. 
  15   0   7    149.57   54.86  0. 1.0000     0. 
   0   1   7    207.60   17.69  0. 1.0000     0. 
   1   1   7   1172.98   29.95  0. 1.0000     0. 
   2   1   7    100.90    9.93  0. 1.0000     0. 
   3   1   7      9.32    4.94  0. 1.0000     0. 
   4   1   7     76.10    9.14  0. 1.0000     0. 
   5   1   7    512.33   24.26  0. 1.0000     0. 
   6   1   7      7.27    8.78  0. 1.0000     0. 
   7   1   7    800.09   31.88  0. 1.0000     0. 
   8   1   7      2.61    7.10  0. 1.0000     0. 
   9   1   7    575.23   33.71  0. 1.0000     0. 
  10   1   7     19.83   16.34  0. 1.0000     0. 
  11   1   7      0.66   30.21  0. 1.0000     0. 
  12   1   7     13.17   54.00  0. 1.0000     0. 
  13   1   7    894.71   85.49  0. 1.0000     0. 
  14   1   7     75.44   25.74  0. 1.0000     0. 
  15   1   7    569.42   76.95  0. 1.0000     0. 
   1   2   7   1355.80   33.18  0. 1.0000     0. 
   2   2   7    271.95   16.56  0. 1.0000     0. 
   3   2   7   1383.40   38.50  0. 1.0000     0. 
   4   2   7    316.48   18.06  0. 1.0000     0. 
   5   2   7   3186.95   58.76  0. 1.0000     0. 
   6   2   7     46.39   10.53  0. 1.0000     0. 
   7   2   7    678.44   28.64  0. 1.0000     0. 
   8   2   7     56.16   11.29  0. 1.0000     0. 
   9   2   7    525.52   35.13  0. 1.0000     0. 
  10   2   7    320.27   35.20  0. 1.0000     0. 
  11   2   7    898.44   71.33  0. 1.0000     0. 
  12   2   7    170.59   43.49  0. 1.0000     0. 
  13   2   7    222.87   42.55  0. 1.0000     0. 
  14   2   7     41.72   20.36  0. 1.0000     0. 
  15   2   7   1503.74  146.74  0. 1.0000     0. 
   0   3   7     46.60   11.33  0. 1.0000     0. 
   1   3   7   1712.08   43.50  0. 1.0000     0. 
   2   3   7    170.53   14.07  0. 1.0000     0. 
   3   3   7   1653.18   45.89  0. 1.0000     0. 
   4   3   7    139.77   13.19  0. 1.0000     0. 
   5   3   7    232.68   17.32  0. 1.0000     0. 
   6   3   7    365.95   23.59  0. 1.0000     0. 
   7   3   7   1851.33   52.96  0. 1.0000     0. 
   8   3   7    344.51   28.31  0. 1.0000     0. 
   9   3   7    455.81   35.19  0. 1.0000     0. 
  10   3   7    319.21   37.34  0. 1.0000     0. 
  11   3   7     48.20   29.87  0. 1.0000     0. 
  12   3   7     59.69   36.50  0. 1.0000     0. 
  13   3   7     60.06   25.15  0. 1.0000     0. 
  14   3   7     63.51   25.62  0. 1.0000     0. 
  15   3   7    522.89   98.49  0. 1.0000     0. 
   1   4   7   1082.56   35.13  0. 1.0000     0. 
   2   4   7    256.28   18.78  0. 1.0000     0. 
   3   4   7    659.54   29.28  0. 1.0000     0. 
   4   4   7    410.41   24.53  0. 1.0000     0. 
   5   4   7     80.13   12.36  0. 1.0000     0. 
   6   4   7    105.24   15.26  0. 1.0000     0. 
   7   4   7    726.45   38.19  0. 1.0000     0. 
   8   4   7     15.69   18.99  0. 1.0000     0. 
   9   4   7    859.53   57.28  0. 1.0000     0. 
  10   4   7    168.62   27.43  0. 1.0000     0. 
  11   4   7    180.04   40.09  0. 1.0000     0. 
  12   4   7     76.96   31.28  0. 1.0000     0. 
  13   4   7    857.85   84.51  0. 1.0000     0. 
  14   4   7      9.30   50.88  0. 1.0000     0. 
  15   4   7      7.00   11.21  0. 1.0000     0. 
   0   5   7   1016.30   49.37  0. 1.0000     0. 
   1   5   7    822.04   34.02  0. 1.0000     0. 
   2   5   7    725.59   35.39  0. 1.0000     0. 
   3   5   7     15.97   12.42  0. 1.0000     0. 
   4   5   7    623.53   32.76  0. 1.0000     0. 
   5   5   7    660.84   35.89  0. 1.0000     0. 
   6   5   7    237.73   23.98  0. 1.0000     0. 
   7   5   7   1425.65   64.08  0. 1.0000     0. 
   8   5   7    193.79   33.60  0. 1.0000     0. 
   9   5   7    934.85   59.04  0. 1.0000     0. 
  10   5   7    127.84   23.82  0. 1.0000     0. 
  11   5   7     29.67   31.78  0. 1.0000     0. 
  12   5   7    220.36   45.44  0. 1.0000     0. 
  13   5   7    264.57   52.50  0. 1.0000     0. 
  14   5   7    426.69   85.96  0. 1.0000     0. 
  15   5   7    191.99  117.41  0. 1.0000     0. 
   1   6   7   2266.30   57.64  0. 1.0000     0. 
   2   6   7    161.99   16.73  0. 1.0000     0. 
   3   6   7    168.50   19.31  0. 1.0000     0. 
   4   6   7    269.05   25.15  0. 1.0000     0. 
   5   6   7   1682.65   65.53  0. 1.0000     0. 
   6   6   7     29.09   15.46  0. 1.0000     0. 
   7   6   7     56.56   30.84  0. 1.0000     0. 
   8   6   7     70.13   19.51  0. 1.0000     0. 
   9   6   7   1874.26   92.34  0. 1.0000     0. 
  10   6   7    218.26   37.28  0. 1.0000     0. 
  11   6   7   1923.65  107.87  0. 1.0000     0. 
  12   6   7    188.61   35.38  0. 1.0000     0. 
  13   6   7      5.51   40.99  0. 1.0000     0. 
  14   6   7     20.27   54.50  0. 1.0000     0. 
  15   6   7    653.45  213.08  0. 1.0000     0. 
   0   7   7    280.09   39.87  0. 1.0000     0. 
   1   7   7   1149.36   52.60  0. 1.0000     0. 
   2   7   7    529.57   40.43  0. 1.0000     0. 
   3   7   7     48.67   15.86  0. 1.0000     0. 
   4   7   7    584.09   43.03  0. 1.0000     0. 
   5   7   7     89.72   29.02  0. 1.0000     0. 
   6   7   7    928.08   66.53  0. 1.0000     0. 
   7   7   7     88.01   23.20  0. 1.0000     0. 
   8   7   7    978.98   68.20  0. 1.0000     0. 
   9   7   7    146.20   32.57  0. 1.0000     0. 
  10   7   7    992.55   74.81  0. 1.0000     0. 
  11   7   7    130.45   31.97  0. 1.0000     0. 
  12   7   7    478.43   68.65  0. 1.0000     0. 
  13   7   7    684.40   89.46  0. 1.0000     0. 
  14   7   7     86.98  129.08  0. 1.0000     0. 
   1   8   7    416.01   45.49  0. 1.0000     0. 
   2   8   7    122.89   27.81  0. 1.0000     0. 
   3   8   7    404.22   54.80  0. 1.0000     0. 
   4   8   7    234.00   41.42  0. 1.0000     0. 
   5   8   7     25.95   21.71  0. 1.0000     0. 
   6   8   7     70.06   34.63  0. 1.0000     0. 
   7   8   7    827.81   69.03  0. 1.0000     0. 
   8   8   7      0.19   19.61  0. 1.0000     0. 
   9   8   7    426.62   53.99  0. 1.0000     0. 
  10   8   7    114.24   40.21  0. 1.0000     0. 
  11   8   7     59.76   20.81  0. 1.0000     0. 
  12   8   7     40.09   22.77  0. 1.0000     0. 
  13   8   7    849.33  104.03  0. 1.0000     0. 
   0   9   7   1568.11  183.09  0. 1.0000     0. 
   1   9   7    316.56   55.63  0. 1.0000     0. 
   2   9   7   1299.82  109.45  0. 1.0000     0. 
   3   9   7    174.57   43.81  0. 1.0000     0. 
   4   9   7   1258.43  109.17  0. 1.0000     0. 
   5   9   7    767.96   79.46  0. 1.0000     0. 
   6   9   7    591.36   67.29  0. 1.0000     0. 
   7   9   7   3098.63  162.93  0. 1.0000     0. 
   8   9   7    374.04   58.57  0. 1.0000     0. 
   9   9   7    632.99   72.89  0. 1.0000     0. 
  10   9   7    250.35   68.54  0. 1.0000     0. 
  11   9   7     60.40   46.94  0. 1.0000     0. 
  12   9   7    426.58  106.79  0. 1.0000     0. 
  13   9   7     -5.64  267.71  0. 1.0000     0. 
   1  10   7    398.91   58.59  0. 1.0000     0. 
   2  10   7    152.34   36.17  0. 1.0000     0. 
   3  10   7    834.76   84.68  0. 1.0000     0. 
   4  10   7    243.14   46.85  0. 1.0000     0. 
   5  10   7   1676.54  121.98  0. 1.0000     0. 
   6  10   7     41.48   39.04  0. 1.0000     0. 
   7  10   7    508.47   70.48  0. 1.0000     0. 
   8  10   7     26.18   22.55  0. 1.0000     0. 
   9  10   7    163.06   54.63  0. 1.0000     0. 
  10  10   7    190.27   69.32  0. 1.0000     0. 
  11  10   7    449.44  160.81  0. 1.0000     0. 
   0  11   7    789.74  121.56  0. 1.0000     0. 
   1  11   7   1626.51  123.29  0. 1.0000     0. 
   2  11   7    969.70   95.79  0. 1.0000     0. 
   3  11   7    426.69   63.63  0. 1.0000     0. 
   4  11   7    914.04   93.98  0. 1.0000     0. 
   5  11   7     16.98   14.68  0. 1.0000     0. 
   6  11   7   1287.35  157.03  0. 1.0000     0. 
   7  11   7    240.56   66.58  0. 1.0000     0. 
   8  11   7   1104.18  197.91  0. 1.0000     0. 
   9  11   7     85.52   76.74  0. 1.0000     0. 
   1  12   7     58.54   41.20  0. 1.0000     0. 
   2  12   7    164.87   76.88  0. 1.0000     0. 
   3  12   7    981.32  259.47  0. 1.0000     0. 
   4  12   7    243.81  131.47  0. 1.0000     0. 
   5  12   7    100.42   78.69  0. 1.0000     0. 
   0   0   8   5103.11  116.55  0. 1.0000     0. 
   1   0   8     27.00    8.72  0. 1.0000     0. 
   2   0   8    464.63   26.95  0. 1.0000     0. 
   3   0   8    160.23   18.88  0. 1.0000     0. 
   4   0   8   9782.23  158.78  0. 1.0000     0. 
   5   0   8    246.42   28.26  0. 1.0000     0. 
   6   0   8    189.68   30.33  0. 1.0000     0. 
   7   0   8    612.65   68.81  0. 1.0000     0. 
   8   0   8   8183.25  265.62  0. 1.0000     0. 
   9   0   8    318.22   62.02  0. 1.0000     0. 
  10   0   8   1821.66  154.88  0. 1.0000     0. 
  11   0   8     69.58   34.40  0. 1.0000     0. 
  12   0   8   4516.85  265.45  0. 1.0000     0. 
  13   0   8     19.86   71.17  0. 1.0000     0. 
  14   0   8     59.79   33.38  0. 1.0000     0. 
  15   0   8     57.76   69.23  0. 1.0000     0. 
   1   1   8     18.01    5.47  0. 1.0000     0. 
   2   1   8   1487.31   37.14  0. 1.0000     0. 
   3   1   8      5.75    3.83  0. 1.0000     0. 
   4   1   8   1045.25   33.90  0. 1.0000     0. 
   5   1   8      9.73   10.90  0. 1.0000     0. 
   6   1   8    401.87   29.67  0. 1.0000     0. 
   7   1   8     14.43   22.01  0. 1.0000     0. 
   8   1   8      2.18   12.71  0. 1.0000     0. 
   9   1   8      4.60    9.44  0. 1.0000     0. 
  10   1   8    589.78   72.11  0. 1.0000     0. 
  11   1   8     -4.07   33.75  0. 1.0000     0. 
  12   1   8   1311.89  101.54  0. 1.0000     0. 
  13   1   8     -3.22   46.63  0. 1.0000     0. 
  14   1   8     38.67   22.73  0. 1.0000     0. 
  15   1   8      0.05  135.67  0. 1.0000     0. 
   0   2   8   7610.33  136.96  0. 1.0000     0. 
   1   2   8    485.53   22.29  0. 1.0000     0. 
   2   2   8   1926.98   45.90  0. 1.0000     0. 
   3   2   8    239.18   20.41  0. 1.0000     0. 
   4   2   8   8758.89  113.90  0. 1.0000     0. 
   5   2   8     42.54   10.47  0. 1.0000     0. 
   6   2   8    185.09   22.49  0. 1.0000     0. 
   7   2   8     15.80   20.55  0. 1.0000     0. 
   8   2   8   2178.13  100.30  0. 1.0000     0. 
   9   2   8     97.32   27.91  0. 1.0000     0. 
  10   2   8    151.93   40.02  0. 1.0000     0. 
  11   2   8    226.02   48.67  0. 1.0000     0. 
  12   2   8   3482.31  165.81  0. 1.0000     0. 
  13   2   8    322.72   57.72  0. 1.0000     0. 
  14   2   8    775.28   88.98  0. 1.0000     0. 
  15   2   8     95.46   76.75  0. 1.0000     0. 
   1   3   8      7.60   11.42  0. 1.0000     0. 
   2   3   8     51.57    9.94  0. 1.0000     0. 
   3   3   8      9.79    6.99  0. 1.0000     0. 
   4   3   8   1264.54   44.49  0. 1.0000     0. 
   5   3   8      5.95    6.13  0. 1.0000     0. 
   6   3   8    323.82   29.80  0. 1.0000     0. 
   7   3   8     -0.54   25.15  0. 1.0000     0. 
   8   3   8    686.65   63.90  0. 1.0000     0. 
   9   3   8      5.97   48.98  0. 1.0000     0. 
  10   3   8    767.26   74.07  0. 1.0000     0. 
  11   3   8      8.11   27.47  0. 1.0000     0. 
  12   3   8     67.21   33.75  0. 1.0000     0. 
  13   3   8     19.38   27.49  0. 1.0000     0. 
  14   3   8     18.15   45.43  0. 1.0000     0. 
   0   4   8   5966.85  169.68  0. 1.0000     0. 
   1   4   8     17.79   16.55  0. 1.0000     0. 
   2   4   8      3.85   12.37  0. 1.0000     0. 
   3   4   8    117.32   18.66  0. 1.0000     0. 
   4   4   8   3393.27   82.81  0. 1.0000     0. 
   5   4   8    258.32   27.63  0. 1.0000     0. 
   6   4   8    931.82   54.00  0. 1.0000     0. 
   7   4   8    243.37   35.28  0. 1.0000     0. 
   8   4   8   5723.26  175.72  0. 1.0000     0. 
   9   4   8    171.18   45.16  0. 1.0000     0. 
  10   4   8    817.13   83.51  0. 1.0000     0. 
  11   4   8     53.11   23.11  0. 1.0000     0. 
  12   4   8   6036.63  242.74  0. 1.0000     0. 
  13   4   8      0.43   14.68  0. 1.0000     0. 
  14   4   8    169.77   65.54  0. 1.0000     0. 
   1   5   8     19.55    9.69  0. 1.0000     0. 
   2   5   8    913.35   57.04  0. 1.0000     0. 
   3   5   8      6.46   20.26  0. 1.0000     0. 
   4   5   8    926.47   59.93  0. 1.0000     0. 
   5   5   8     18.47   19.09  0. 1.0000     0. 
   6   5   8    224.96   36.96  0. 1.0000     0. 
   7   5   8      2.49   47.24  0. 1.0000     0. 
   8   5   8     13.62   44.71  0. 1.0000     0. 
   9   5   8     -0.80   58.84  0. 1.0000     0. 
  10   5   8    382.33   77.43  0. 1.0000     0. 
  11   5   8      2.54   43.01  0. 1.0000     0. 
  12   5   8    629.22   93.40  0. 1.0000     0. 
  13   5   8      8.72   87.47  0. 1.0000     0. 
  14   5   8     13.08  126.39  0. 1.0000     0. 
   0   6   8   7654.63  262.53  0. 1.0000     0. 
   1   6   8    401.18   43.04  0. 1.0000     0. 
   2   6   8    477.49   49.70  0. 1.0000     0. 
   3   6   8    133.61   27.58  0. 1.0000     0. 
   4   6   8   2633.40  115.35  0. 1.0000     0. 
   5   6   8     25.31   13.32  0. 1.0000     0. 
   6   6   8    402.76   59.39  0. 1.0000     0. 
   7   6   8     -9.69   14.36  0. 1.0000     0. 
   8   6   8   2165.31  144.93  0. 1.0000     0. 
   9   6   8      8.81   49.13  0. 1.0000     0. 
  10   6   8      2.58   43.56  0. 1.0000     0. 
  11   6   8    131.35   63.22  0. 1.0000     0. 
  12   6   8   1762.80  266.97  0. 1.0000     0. 
  13   6   8     -5.35  253.89  0. 1.0000     0. 
   1   7   8     14.93   12.64  0. 1.0000     0. 
   2   7   8   1623.56  103.15  0. 1.0000     0. 
   3   7   8      5.42   11.00  0. 1.0000     0. 
   4   7   8    750.92   78.25  0. 1.0000     0. 
   5   7   8      4.56   25.15  0. 1.0000     0. 
   6   7   8    249.06   47.54  0. 1.0000     0. 
   7   7   8     -5.93   22.00  0. 1.0000     0. 
   8   7   8     14.63   33.16  0. 1.0000     0. 
   9   7   8     -6.19   54.84  0. 1.0000     0. 
  10   7   8    663.10  112.93  0. 1.0000     0. 
  11   7   8     -9.63   38.72  0. 1.0000     0. 
   0   8   8     -4.91  164.86  0. 1.0000     0. 
   1   8   8     -5.38   53.92  0. 1.0000     0. 
   2   8   8      0.17   54.75  0. 1.0000     0. 
   3   8   8     22.05   42.05  0. 1.0000     0. 
   4   8   8   2469.92  141.67  0. 1.0000     0. 
   5   8   8    146.53   42.61  0. 1.0000     0. 
   6   8   8    222.73   49.56  0. 1.0000     0. 
   7   8   8    232.26   48.82  0. 1.0000     0. 
   8   8   8   5674.44  240.58  0. 1.0000     0. 
   9   8   8     53.38   53.34  0. 1.0000     0. 
  10   8   8    235.04  159.88  0. 1.0000     0. 
   1   9   8      4.66   11.90  0. 1.0000     0. 
   2   9   8     46.80   19.94  0. 1.0000     0. 
   3   9   8     15.70   16.46  0. 1.0000     0. 
   4   9   8    966.48   90.59  0. 1.0000     0. 
   5   9   8     17.89   18.99  0. 1.0000     0. 
   6   9   8    343.74   55.74  0. 1.0000     0. 
   7   9   8     16.45   20.73  0. 1.0000     0. 
   8   9   8    582.67   91.62  0. 1.0000     0. 
   9   9   8      0.48  119.93  0. 1.0000     0. 
  10   9   8     -6.17  292.56  0. 1.0000     0. 
   0  10   8   2984.67  230.08  0. 1.0000     0. 
   1  10   8    158.67   40.06  0. 1.0000     0. 
   2  10   8    795.19   84.89  0. 1.0000     0. 
   3  10   8     29.89   18.18  0. 1.0000     0. 
   4  10   8   3592.38  181.41  0. 1.0000     0. 
   5  10   8     -3.34   50.67  0. 1.0000     0. 
   6  10   8     43.21   24.22  0. 1.0000     0. 
   7  10   8      8.92   53.84  0. 1.0000     0. 
   8  10   8    344.48   96.73  0. 1.0000     0. 
   9  10   8     -5.74  192.99  0. 1.0000     0. 
   1  11   8     29.51   21.15  0. 1.0000     0. 
   2  11   8    394.39   64.94  0. 1.0000     0. 
   3  11   8     -2.69   69.64  0. 1.0000     0. 
   4  11   8    670.81  100.45  0. 1.0000     0. 
   5  11   8     -3.61   25.13  0. 1.0000     0. 
   6  11   8     67.42  123.71  0. 1.0000     0. 
   1   0   9     -1.74   82.30  0. 1.0000     0. 
   2   0   9     -1.96   93.15  0. 1.0000     0. 
   3   0   9    778.03  149.32  0. 1.0000     0. 
   4   0   9     10.99   48.46  0. 1.0000     0. 
   5   0   9     -2.64   72.80  0. 1.0000     0. 
   6   0   9     -3.03  102.32  0. 1.0000     0. 
   7   0   9     -3.39   93.18  0. 1.0000     0. 
   8   0   9     -3.72  102.27  0. 1.0000     0. 
   9   0   9      7.60   88.59  0. 1.0000     0. 
  10   0   9     14.38   97.06  0. 1.0000     0. 
  11   0   9     23.91  106.11  0. 1.0000     0. 
  12   0   9      7.56  112.26  0. 1.0000     0. 
  13   0   9     -5.34  179.60  0. 1.0000     0. 
   0   1   9     -1.78   84.29  0. 1.0000     0. 
   1   1   9     -1.98   93.69  0. 1.0000     0. 
   2   1   9     85.18   59.68  0. 1.0000     0. 
   3   1   9     27.03   50.69  0. 1.0000     0. 
   4   1   9     -3.53   50.41  0. 1.0000     0. 
   5   1   9     48.88   57.52  0. 1.0000     0. 
   6   1   9     11.04   61.49  0. 1.0000     0. 
   7   1   9    785.55  135.96  0. 1.0000     0. 
   8   1   9     29.70   51.01  0. 1.0000     0. 
   9   1   9    160.77   69.11  0. 1.0000     0. 
  10   1   9    -17.10   57.39  0. 1.0000     0. 
  11   1   9     38.53   64.69  0. 1.0000     0. 
  12   1   9     14.69   66.40  0. 1.0000     0. 
  13   1   9    319.46  104.20  0. 1.0000     0. 
   1   2   9     -2.20   52.81  0. 1.0000     0. 
   2   2   9      2.87   38.95  0. 1.0000     0. 
   3   2   9     -2.78   76.73  0. 1.0000     0. 
   4   2   9      1.86   39.71  0. 1.0000     0. 
   5   2   9   1334.06  137.99  0. 1.0000     0. 
   6   2   9      2.98   78.28  0. 1.0000     0. 
   7   2   9    480.91   91.42  0. 1.0000     0. 
   8   2   9      5.71   35.07  0. 1.0000     0. 
   9   2   9     82.09   95.70  0. 1.0000     0. 
  10   2   9      2.41   43.09  0. 1.0000     0. 
  11   2   9   1623.77  193.43  0. 1.0000     0. 
  12   2   9     26.28  125.52  0. 1.0000     0. 
  13   2   9     88.37   45.24  0. 1.0000     0. 
   0   3   9     -5.45   52.84  0. 1.0000     0. 
   1   3   9    389.55   62.27  0. 1.0000     0. 
   2   3   9      4.53   36.89  0. 1.0000     0. 
   3   3   9     26.94   30.99  0. 1.0000     0. 
   4   3   9    234.00   61.22  0. 1.0000     0. 
   5   3   9    499.63   90.78  0. 1.0000     0. 
   6   3   9    227.81   63.67  0. 1.0000     0. 
   7   3   9   1327.34  157.02  0. 1.0000     0. 
   8   3   9     -4.14   90.40  0. 1.0000     0. 
   9   3   9   1321.87  165.60  0. 1.0000     0. 
  10   3   9    121.01   63.98  0. 1.0000     0. 
  11   3   9    107.52   66.39  0. 1.0000     0. 
  12   3   9     23.37   58.51  0. 1.0000     0. 
  13   3   9     61.26  118.99  0. 1.0000     0. 
   1   4   9     91.75   50.47  0. 1.0000     0. 
   2   4   9     14.71   55.38  0. 1.0000     0. 
   3   4   9    750.00  107.77  0. 1.0000     0. 
   4   4   9      0.09   31.27  0. 1.0000     0. 
   5   4   9    166.13   56.78  0. 1.0000     0. 
   6   4   9     20.92   40.60  0. 1.0000     0. 
   7   4   9     32.27   84.80  0. 1.0000     0. 
   8   4   9     21.52   16.91  0. 1.0000     0. 
   9   4   9    480.06   88.33  0. 1.0000     0. 
  10   4   9     16.09   20.54  0. 1.0000     0. 
  11   4   9     17.00   32.89  0. 1.0000     0. 
  12   4   9      1.66   89.27  0. 1.0000     0. 
  13   4   9     -4.73  224.25  0. 1.0000     0. 
   0   5   9    687.10  125.55  0. 1.0000     0. 
   1   5   9    559.90   82.00  0. 1.0000     0. 
   2   5   9    428.53   78.84  0. 1.0000     0. 
   3   5   9    229.37   63.01  0. 1.0000     0. 
   4   5   9    127.13   54.59  0. 1.0000     0. 
   5   5   9     40.10   20.86  0. 1.0000     0. 
   6   5   9     42.64   84.01  0. 1.0000     0. 
   7   5   9    450.59   83.17  0. 1.0000     0. 
   8   5   9     39.09   26.02  0. 1.0000     0. 
   9   5   9     79.87   38.60  0. 1.0000     0. 
  10   5   9    179.43   58.25  0. 1.0000     0. 
  11   5   9    105.30   44.88  0. 1.0000     0. 
  12   5   9    177.02  121.94  0. 1.0000     0. 
   1   6   9    475.56   69.76  0. 1.0000     0. 
   2   6   9     -2.68   49.49  0. 1.0000     0. 
   3   6   9    144.18   58.98  0. 1.0000     0. 
   4   6   9    -10.88   58.95  0. 1.0000     0. 
   5   6   9   2617.24  231.08  0. 1.0000     0. 
   6   6   9     15.22   45.12  0. 1.0000     0. 
   7   6   9    157.05   51.40  0. 1.0000     0. 
   8   6   9      7.66   15.58  0. 1.0000     0. 
   9   6   9    425.76   89.35  0. 1.0000     0. 
  10   6   9     12.27   22.53  0. 1.0000     0. 
  11   6   9   1241.29  278.21  0. 1.0000     0. 
   0   7   9    164.24   59.02  0. 1.0000     0. 
   1   7   9     78.71   46.00  0. 1.0000     0. 
   2   7   9     41.64   58.18  0. 1.0000     0. 
   3   7   9     -0.70   57.71  0. 1.0000     0. 
   4   7   9    689.58  105.03  0. 1.0000     0. 
   5   7   9    691.47  106.25  0. 1.0000     0. 
   6   7   9    736.11  111.63  0. 1.0000     0. 
   7   7   9   1314.94  151.16  0. 1.0000     0. 
   8   7   9    940.47  133.22  0. 1.0000     0. 
   9   7   9    534.55  102.98  0. 1.0000     0. 
  10   7   9    362.89  156.23  0. 1.0000     0. 
   1   8   9    185.52   49.52  0. 1.0000     0. 
   2   8   9      3.61   51.91  0. 1.0000     0. 
   3   8   9    436.34   85.73  0. 1.0000     0. 
   4   8   9      7.49   53.14  0. 1.0000     0. 
   5   8   9     23.09   22.81  0. 1.0000     0. 
   6   8   9      7.99   23.54  0. 1.0000     0. 
   7   8   9    819.30  125.29  0. 1.0000     0. 
   8   8   9     35.57   29.20  0. 1.0000     0. 
   9   8   9    285.54  137.02  0. 1.0000     0. 
   0   9   9   1250.63  172.43  0. 1.0000     0. 
   1   9   9   1782.65  146.18  0. 1.0000     0. 
   2   9   9    679.74   91.66  0. 1.0000     0. 
   3   9   9    227.07   68.41  0. 1.0000     0. 
   4   9   9    441.19   97.98  0. 1.0000     0. 
   5   9   9     -7.90   14.33  0. 1.0000     0. 
   6   9   9    331.14   90.01  0. 1.0000     0. 
   7   9   9    232.14  134.70  0. 1.0000     0. 
   1  10   9    610.65   91.28  0. 1.0000     0. 
   2  10   9     -4.63   33.39  0. 1.0000     0. 
   3  10   9    205.70   71.84  0. 1.0000     0. 
   4  10   9    -16.69  101.47  0. 1.0000     0. 
   5  10   9    682.25  216.15  0. 1.0000     0. 
   1  11   9     -4.82  228.40  0. 1.0000     0. 
   2  11   9      0.21  117.52  0. 1.0000     0. 
-512 
#   2016 reflections output 
;
loop_
_symmetry_equiv_pos_as_xyz
x,y,z
-x,-y,-z
-x+1/2,y+1/2,z+1/2
x+1/2,-y+1/2,-z+1/2
x,-y+1/2,z
-x,y+1/2,-z
-x+1/2,-y,z+1/2
x+1/2,y,-z+1/2
loop_
_atom_site_label
_atom_site_type_symbol
_atom_site_fract_x
_atom_site_fract_y
_atom_site_fract_z
_atom_site_U_iso_or_equiv
_atom_site_occupancy
_atom_site_adp_type
_atom_site_refinement_flags_posn
_atom_site_refinement_flags_adp
Cu1 Cu 0.5000 0.5000 0.0000 0.0050 1.0000 Uani S .
Cu2 Cu 0.75074(2) 0.51320(3) 0.24494(4) 0.0047 1.0000 Uani . .
Cu3 Cu 0.31467(4) 0.7500 -0.05897(7) 0.0070 1.0000 Uani S T
O4 O 0.60259(15) 0.40922(18) 0.1996(3) 0.0042 1.0000 Uani . .
O5 O 0.40195(15) 0.58806(19) 0.1981(3) 0.0044 1.0000 Uani . .
O6 O 0.69984(19) 0.59573(19) 0.5021(3) 0.0069 1.0000 Uani . .
Cl7 Cl 0.67227(9) 0.7500 0.00919(14) 0.0095 1.0000 Uani S T
F8 F 0.5023(2) 0.7500 -0.4938(4) 0.0082 1.0000 Uani S T
loop_
_atom_site_aniso_label
_atom_site_aniso_U_11
_atom_site_aniso_U_22
_atom_site_aniso_U_33
_atom_site_aniso_U_23
_atom_site_aniso_U_13
_atom_site_aniso_U_12
Cu1 0.00180(17) 0.00594(19) 0.00723(19) 0.00042(13) 0.00015(12) 0.00184(15)
Cu2 0.00184(12) 0.00507(13) 0.00731(14) -0.00218(10) -0.00012(9) -0.00097(10)
Cu3 0.00511(18) 0.00250(17) 0.0133(2) 0.0000 0.00257(16) 0.0000
O4 0.0013(6) 0.0049(7) 0.0064(8) -0.0002(5) 0.0010(5) 0.0007(5)
O5 0.0017(7) 0.0072(7) 0.0044(7) -0.0017(5) 0.0004(5) -0.0003(5)
O6 0.0079(9) 0.0012(7) 0.0116(8) -0.0004(5) -0.0007(5) 0.0002(6)
Cl7 0.0107(4) 0.0041(3) 0.0136(4) 0.0000 -0.0001(3) 0.0000
F8 0.0024(9) 0.0074(10) 0.0148(10) 0.0000 0.0011(6) 0.0000
loop_
_atom_type_symbol
_atom_type_scat_dispersion_real
_atom_type_scat_dispersion_imag
_atom_type_scat_Cromer_Mann_a1
_atom_type_scat_Cromer_Mann_b1
_atom_type_scat_Cromer_Mann_a2
_atom_type_scat_Cromer_Mann_b2
_atom_type_scat_Cromer_Mann_a3
_atom_type_scat_Cromer_Mann_b3
_atom_type_scat_Cromer_Mann_a4
_atom_type_scat_Cromer_Mann_b4
_atom_type_scat_Cromer_Mann_c
_atom_type_scat_source
Cl 0.0554 0.0530 11.4604 0.0104 7.1964 1.1662 6.2556 18.5194 1.6455 47.7784
-9.5574 'International Tables Vol C 4.2.6.8 and 6.1.1.4'
Cu 0.2469 0.4709 13.3380 3.5828 7.1676 0.2470 5.6158 11.3966 1.6735 64.8126
1.1910 'International Tables Vol C 4.2.6.8 and 6.1.1.4'
F 0.0038 0.0031 3.5392 10.2825 2.6412 4.2944 1.5170 0.2615 1.0243 26.1476
0.2776 'International Tables Vol C 4.2.6.8 and 6.1.1.4'
O 0.0017 0.0018 3.0485 13.2771 2.2868 5.7011 1.5463 0.3239 0.8670 32.9089
0.2508 'International Tables Vol C 4.2.6.8 and 6.1.1.4'
loop_
_geom_angle_atom_site_label_1
_geom_angle_site_symmetry_1
_geom_angle_atom_site_label_2
_geom_angle_atom_site_label_3
_geom_angle_site_symmetry_3
_geom_angle
_geom_angle_publ_flag
Cu3 2_665 Cu1 Cu2 2_665 128.570(8) yes
Cu3 2_665 Cu1 Cu2 8_455 122.976(9) yes
Cu2 2_665 Cu1 Cu2 8_455 60.32 yes
Cu3 2_665 Cu1 Cu2 7_664 57.024(9) yes
Cu2 2_665 Cu1 Cu2 7_664 119.68 yes
Cu2 8_455 Cu1 Cu2 7_664 180.00 yes
Cu3 2_665 Cu1 Cl7 6_645 84.112(16) yes
Cu2 2_665 Cu1 Cl7 6_645 52.631(17) yes
Cu2 8_455 Cu1 Cl7 6_645 58.317(17) yes
Cu2 7_664 Cu1 Cl7 6_645 121.683(17) yes
Cu3 2_665 Cu1 O4 2_665 142.98(5) yes
Cu2 2_665 Cu1 O4 2_665 32.73(5) yes
Cu2 8_455 Cu1 O4 2_665 79.24(5) yes
Cu2 7_664 Cu1 O4 2_665 100.76(5) yes
Cl7 6_645 Cu1 O4 2_665 84.96(5) yes
Cu3 2_665 Cu1 O5 2_665 51.85(5) yes
Cu2 2_665 Cu1 O5 2_665 99.05(5) yes
Cu2 8_455 Cu1 O5 2_665 150.85(5) yes
Cu2 7_664 Cu1 O5 2_665 29.15(5) yes
Cl7 6_645 Cu1 O5 2_665 93.10(5) yes
Cu3 2_665 Cu1 Cu2 . 51.430(8) yes
Cu2 2_665 Cu1 Cu2 . 180.00 yes
Cu2 8_455 Cu1 Cu2 . 119.68 yes
Cu2 7_664 Cu1 Cu2 . 60.32 yes
Cl7 6_645 Cu1 Cu2 . 127.369(17) yes
Cu3 2_665 Cu1 Cu3 . 180.00 yes
Cu2 2_665 Cu1 Cu3 . 51.430(8) yes
Cu2 8_455 Cu1 Cu3 . 57.024(9) yes
Cu2 7_664 Cu1 Cu3 . 122.976(9) yes
Cl7 6_645 Cu1 Cu3 . 95.888(16) yes
Cu3 2_665 Cu1 O4 . 37.02(5) yes
Cu2 2_665 Cu1 O4 . 147.27(5) yes
Cu2 8_455 Cu1 O4 . 100.76(5) yes
Cu2 7_664 Cu1 O4 . 79.24(5) yes
Cl7 6_645 Cu1 O4 . 95.04(5) yes
Cu3 2_665 Cu1 O5 . 128.15(5) yes
Cu2 2_665 Cu1 O5 . 80.95(5) yes
Cu2 8_455 Cu1 O5 . 29.15(5) yes
Cu2 7_664 Cu1 O5 . 150.85(5) yes
Cl7 6_645 Cu1 O5 . 86.90(5) yes
Cu3 2_665 Cu1 Cl7 . 95.888(16) yes
Cu2 2_665 Cu1 Cl7 . 127.369(17) yes
Cu2 8_455 Cu1 Cl7 . 121.683(17) yes
Cu2 7_664 Cu1 Cl7 . 58.317(17) yes
Cl7 6_645 Cu1 Cl7 . 180.00 yes
O4 2_665 Cu1 O5 2_665 93.70(7) yes
O4 2_665 Cu1 Cu2 . 147.27(5) yes
O5 2_665 Cu1 Cu2 . 80.95(5) yes
O4 2_665 Cu1 Cu3 . 37.02(5) yes
O5 2_665 Cu1 Cu3 . 128.15(5) yes
Cu2 . Cu1 Cu3 . 128.570(8) yes
O4 2_665 Cu1 O4 . 179.99 yes
O5 2_665 Cu1 O4 . 86.30(7) yes
Cu2 . Cu1 O4 . 32.73(5) yes
Cu3 . Cu1 O4 . 142.98(5) yes
O4 2_665 Cu1 O5 . 86.30(7) yes
O5 2_665 Cu1 O5 . 179.99 yes
Cu2 . Cu1 O5 . 99.05(5) yes
Cu3 . Cu1 O5 . 51.85(5) yes
O4 . Cu1 O5 . 93.70(7) yes
O4 2_665 Cu1 Cl7 . 95.04(5) yes
O5 2_665 Cu1 Cl7 . 86.90(5) yes
Cu2 . Cu1 Cl7 . 52.631(17) yes
Cu3 . Cu1 Cl7 . 84.112(16) yes
O4 . Cu1 Cl7 . 84.96(5) yes
O5 . Cu1 Cl7 . 93.10(5) yes
Cu1 . Cu2 Cu3 4_565 124.344(12) yes
Cu1 . Cu2 Cu1 8_555 175.683(10) yes
Cu3 4_565 Cu2 Cu1 8_555 58.479(9) yes
Cu1 . Cu2 O6 7_664 80.16(6) yes
Cu3 4_565 Cu2 O6 7_664 146.48(6) yes
Cu1 8_555 Cu2 O6 7_664 98.71(6) yes
Cu1 . Cu2 Cu3 2_665 61.231(10) yes
Cu3 4_565 Cu2 Cu3 2_665 163.668(19) yes
Cu1 8_555 Cu2 Cu3 2_665 115.092(13) yes
O6 7_664 Cu2 Cu3 2_665 44.49(6) yes
Cu1 . Cu2 Cl7 7_665 119.878(19) yes
Cu3 4_565 Cu2 Cl7 7_665 95.189(17) yes
Cu1 8_555 Cu2 Cl7 7_665 55.855(17) yes
O6 7_664 Cu2 Cl7 7_665 89.54(6) yes
Cu3 2_665 Cu2 Cl7 7_665 70.334(17) yes
Cu1 . Cu2 O5 8_555 154.70(5) yes
Cu3 4_565 Cu2 O5 8_555 53.03(5) yes
Cu1 8_555 Cu2 O5 8_555 29.27(5) yes
O6 7_664 Cu2 O5 8_555 94.66(8) yes
Cu3 2_665 Cu2 O5 8_555 129.75(5) yes
Cu1 . Cu2 O4 . 32.50(5) yes
Cu3 4_565 Cu2 O4 . 130.12(5) yes
Cu1 8_555 Cu2 O4 . 143.36(5) yes
O6 7_664 Cu2 O4 . 83.13(8) yes
Cu3 2_665 Cu2 O4 . 44.68(5) yes
Cu1 . Cu2 O6 . 100.64(6) yes
Cu3 4_565 Cu2 O6 . 38.03(6) yes
Cu1 8_555 Cu2 O6 . 79.92(6) yes
O6 7_664 Cu2 O6 . 172.46(5) yes
Cu3 2_665 Cu2 O6 . 129.41(6) yes
Cu1 . Cu2 Cl7 . 58.391(18) yes
Cu3 4_565 Cu2 Cl7 . 85.186(17) yes
Cu1 8_555 Cu2 Cl7 . 125.89(2) yes
O6 7_664 Cu2 Cl7 . 91.29(6) yes
Cu3 2_665 Cu2 Cl7 . 109.00(2) yes
Cl7 7_665 Cu2 O5 8_555 84.57(5) yes
Cl7 7_665 Cu2 O4 . 87.70(5) yes
O5 8_555 Cu2 O4 . 171.99(7) yes
Cl7 7_665 Cu2 O6 . 83.55(6) yes
O5 8_555 Cu2 O6 . 87.72(8) yes
O4 . Cu2 O6 . 93.53(8) yes
Cl7 7_665 Cu2 Cl7 . 177.884(14) yes
O5 8_555 Cu2 Cl7 . 97.30(5) yes
O4 . Cu2 Cl7 . 90.46(5) yes
O6 . Cu2 Cl7 . 95.51(6) yes
Cu1 . Cu3 Cu1 5_565 93.045(12) yes
Cu1 . Cu3 O5 5_565 94.20(4) yes
Cu1 5_565 Cu3 O5 5_565 37.42(4) yes
Cu1 . Cu3 Cu2 8_455 64.497(7) yes
Cu1 5_565 Cu3 Cu2 8_455 125.665(17) yes
O5 5_565 Cu3 Cu2 8_455 92.66(4) yes
Cu1 . Cu3 Cu2 4_465 125.665(17) yes
Cu1 5_565 Cu3 Cu2 4_465 64.497(7) yes
O5 5_565 Cu3 Cu2 4_465 37.96(4) yes
Cu2 8_455 Cu3 Cu2 4_465 88.601(17) yes
Cu1 . Cu3 O4 2_665 36.73(5) yes
Cu1 5_565 Cu3 O4 2_665 105.54(5) yes
O5 5_565 Cu3 O4 2_665 124.99(7) yes
Cu2 8_455 Cu3 O4 2_665 85.40(5) yes
Cu2 4_465 Cu3 O4 2_665 161.66(6) yes
Cu1 . Cu3 O4 6_655 105.54(5) yes
Cu1 5_565 Cu3 O4 6_655 36.73(5) yes
O5 5_565 Cu3 O4 6_655 72.09(7) yes
Cu2 8_455 Cu3 O4 6_655 161.66(6) yes
Cu2 4_465 Cu3 O4 6_655 85.40(5) yes
Cu1 . Cu3 Cu2 6_655 149.069(17) yes
Cu1 5_565 Cu3 Cu2 6_655 67.339(7) yes
O5 5_565 Cu3 Cu2 6_655 84.36(4) yes
Cu2 8_455 Cu3 Cu2 6_655 146.368(17) yes
Cu2 4_465 Cu3 Cu2 6_655 68.665(4) yes
Cu1 . Cu3 Cu2 2_665 67.339(7) yes
Cu1 5_565 Cu3 Cu2 2_665 149.069(17) yes
O5 5_565 Cu3 Cu2 2_665 157.77(4) yes
Cu2 8_455 Cu3 Cu2 2_665 68.665(4) yes
Cu2 4_465 Cu3 Cu2 2_665 146.368(17) yes
Cu1 . Cu3 O6 4_465 161.74(6) yes
Cu1 5_565 Cu3 O6 4_465 84.84(6) yes
O5 5_565 Cu3 O6 4_465 73.17(7) yes
Cu2 8_455 Cu3 O6 4_465 102.20(6) yes
Cu2 4_465 Cu3 O6 4_465 37.88(6) yes
Cu1 . Cu3 O6 8_455 84.84(6) yes
Cu1 5_565 Cu3 O6 8_455 161.74(6) yes
O5 5_565 Cu3 O6 8_455 124.53(7) yes
Cu2 8_455 Cu3 O6 8_455 37.88(6) yes
Cu2 4_465 Cu3 O6 8_455 102.20(6) yes
Cu1 . Cu3 O5 . 37.42(4) yes
Cu1 5_565 Cu3 O5 . 94.20(4) yes
O5 5_565 Cu3 O5 . 73.41(8) yes
Cu2 8_455 Cu3 O5 . 37.96(4) yes
Cu2 4_465 Cu3 O5 . 92.66(4) yes
O4 2_665 Cu3 O4 6_655 94.93(10) yes
O4 2_665 Cu3 Cu2 6_655 123.43(5) yes
O4 6_655 Cu3 Cu2 6_655 44.65(5) yes
O4 2_665 Cu3 Cu2 2_665 44.65(5) yes
O4 6_655 Cu3 Cu2 2_665 123.43(5) yes
Cu2 6_655 Cu3 Cu2 2_665 117.86(2) yes
O4 2_665 Cu3 O6 4_465 160.42(8) yes
O4 6_655 Cu3 O6 4_465 83.48(7) yes
Cu2 6_655 Cu3 O6 4_465 44.90(6) yes
Cu2 2_665 Cu3 O6 4_465 121.25(6) yes
O4 2_665 Cu3 O6 8_455 83.48(7) yes
O4 6_655 Cu3 O6 8_455 160.42(8) yes
Cu2 6_655 Cu3 O6 8_455 121.25(6) yes
Cu2 2_665 Cu3 O6 8_455 44.90(6) yes
O6 4_465 Cu3 O6 8_455 91.51(11) yes
O4 2_665 Cu3 O5 . 72.09(7) yes
O4 6_655 Cu3 O5 . 124.99(7) yes
Cu2 6_655 Cu3 O5 . 157.77(4) yes
Cu2 2_665 Cu3 O5 . 84.36(4) yes
O6 4_465 Cu3 O5 . 124.53(7) yes
O6 8_455 Cu3 O5 . 73.17(7) yes
Cu3 6_645 O4 Cu2 . 90.68(7) yes
Cu3 6_645 O4 Cu1 . 106.25(8) yes
Cu2 . O4 Cu1 . 114.78(8) yes
Cu3 . O5 Cu1 . 90.74(7) yes
Cu3 . O5 Cu2 8_455 89.01(7) yes
Cu1 . O5 Cu2 8_455 121.57(9) yes
Cu2 7_665 O6 Cu3 8_555 90.60(8) yes
Cu2 7_665 O6 Cu2 . 115.74(9) yes
Cu3 8_555 O6 Cu2 . 104.09(10) yes
Cu2 5_565 Cl7 Cu2 . 100.14(3) yes
Cu2 5_565 Cl7 Cu1 . 143.12(4) yes
Cu2 . Cl7 Cu1 . 68.978(10) yes
Cu2 5_565 Cl7 Cu1 5_565 68.978(10) yes
Cu2 . Cl7 Cu1 5_565 143.12(4) yes
Cu1 . Cl7 Cu1 5_565 98.14(3) yes
Cu2 5_565 Cl7 Cu2 7_664 144.82(4) yes
Cu2 . Cl7 Cu2 7_664 68.342(8) yes
Cu1 . Cl7 Cu2 7_664 65.828(10) yes
Cu1 5_565 Cl7 Cu2 7_664 139.41(3) yes
Cu2 5_565 Cl7 Cu2 3_654 68.342(8) yes
Cu2 . Cl7 Cu2 3_654 144.82(4) yes
Cu1 . Cl7 Cu2 3_654 139.41(3) yes
Cu1 5_565 Cl7 Cu2 3_654 65.828(10) yes
Cu2 7_664 Cl7 Cu2 3_654 101.35(3) yes
loop_
_geom_bond_atom_site_label_1
_geom_bond_atom_site_label_2
_geom_bond_site_symmetry_2
_geom_bond_distance
_geom_bond_publ_flag
Cu1 Cu3 2_665 3.1533(3) yes
Cu1 Cu2 2_665 3.3196(3) yes
Cu1 Cu2 8_455 3.3387(3) yes
Cu1 Cu2 7_664 3.3387(3) yes
Cu1 Cl7 6_645 3.0287(7) yes
Cu1 O4 2_665 1.9643(17) yes
Cu1 O5 2_665 1.9162(17) yes
Cu1 Cu2 . 3.3196(3) yes
Cu1 Cu3 . 3.1533(3) yes
Cu1 O4 . 1.9643(17) yes
Cu1 O5 . 1.9162(17) yes
Cu1 Cl7 . 3.0287(7) yes
Cu2 Cu3 4_565 3.1032(4) yes
Cu2 O6 7_664 1.9856(19) yes
Cu2 Cu3 2_665 2.8125(4) yes
Cu2 Cl7 7_665 3.1142(7) yes
Cu2 O5 8_555 1.9091(17) yes
Cu2 O4 . 1.9766(17) yes
Cu2 O6 . 1.965(2) yes
Cu2 Cl7 . 2.8263(7) yes
Cu3 O5 5_565 2.4798(18) yes
Cu3 O4 2_665 1.9776(17) yes
Cu3 O4 6_655 1.9776(17) yes
Cu3 O6 4_465 1.971(2) yes
Cu3 O6 8_455 1.971(2) yes
Cu3 O5 . 2.4798(18) yes
