#------------------------------------------------------------------------------
#$Date: 2019-11-14 04:28:40 +0200 (Thu, 14 Nov 2019) $
#$Revision: 227748 $
#$URL: file:///home/coder/svn-repositories/cod/cif/7/12/44/7124489.cif $
#------------------------------------------------------------------------------
#
# This file is available in the Crystallography Open Database (COD),
# http://www.crystallography.net/
#
# All data on this site have been placed in the public domain by the
# contributors.
#
data_7124489
loop_
_publ_author_name
'Sergeenko, Ania S.'
'Ovens, Jeffrey S.'
'Leznoff, Daniel B.'
_publ_section_title
;
 Designing anisotropic cyanometallate coordination polymers with
 unidirectional thermal expansion (TE): 2D zero and 1D colossal positive
 TE.
;
_journal_issue                   13
_journal_name_full
'Chemical communications (Cambridge, England)'
_journal_page_first              1599
_journal_page_last               1602
_journal_paper_doi               10.1039/c7cc09033a
_journal_volume                  54
_journal_year                    2018
_chemical_formula_moiety         'C4 H4 Br2 Cu N4 O2 Pt'
_chemical_formula_sum            'C4 H4 Br2 Cu N4 O2 Pt'
_chemical_formula_weight         555.7644804
_space_group_crystal_system      orthorhombic
_space_group_IT_number           65
_space_group_name_Hall           '-C 2 2'
_space_group_name_H-M_alt        'C m m m'
_symmetry_space_group_name_Hall  '-C 2 2'
_symmetry_space_group_name_H-M   'C m m m'
_audit_block_doi                 10.5517/ccdc.csd.cc1p5fpz
_audit_update_record
;
2017-06-05 deposited with the CCDC.
2018-01-25 downloaded from the CCDC.
;
_cell_angle_alpha                90
_cell_angle_beta                 90
_cell_angle_gamma                90
_cell_formula_units_Z            2
_cell_length_a                   7.32750(10)
_cell_length_b                   10.5863(2)
_cell_length_c                   7.16180(10)
_cell_measurement_reflns_used    4186
_cell_measurement_temperature    299(2)
_cell_measurement_theta_max      46.86
_cell_measurement_theta_min      2.84
_cell_volume                     555.549(15)
_computing_cell_refinement       'Bruker SAINT (Bruker, 2013)'
_computing_data_collection       'Bruker APEX2 (Bruker, 2014)'
_computing_data_reduction        'Bruker SAINT (Bruker, 2013)'
_computing_structure_refinement
'SHELXL-2014/7 (Sheldrick, 2015), Shelxle (H\"ubschle et al., 2011)'
_computing_structure_solution    'SHELXT (Sheldrick, 2015)'
_diffrn_ambient_temperature      299(2)
_diffrn_measured_fraction_theta_full 1.000
_diffrn_measured_fraction_theta_max 1.000
_diffrn_measurement_device_type  'Bruker APEX-II CCD'
_diffrn_measurement_method       '\f and \w scans'
_diffrn_radiation_monochromator  graphite
_diffrn_radiation_type           MoK\a
_diffrn_radiation_wavelength     0.71073
_diffrn_reflns_av_R_equivalents  0.0353
_diffrn_reflns_limit_h_max       11
_diffrn_reflns_limit_h_min       -12
_diffrn_reflns_limit_k_max       17
_diffrn_reflns_limit_k_min       -17
_diffrn_reflns_limit_l_max       11
_diffrn_reflns_limit_l_min       -11
_diffrn_reflns_number            4612
_diffrn_reflns_theta_full        25.242
_diffrn_reflns_theta_max         36.293
_diffrn_reflns_theta_min         2.844
_exptl_absorpt_coefficient_mu    21.661
_exptl_absorpt_correction_T_max  0.7513
_exptl_absorpt_correction_T_min  0.5533
_exptl_absorpt_correction_type   multi-scan
_exptl_absorpt_process_details   '(Sheldrick , 1996)'
_exptl_crystal_colour            orange
_exptl_crystal_density_diffrn    3.315
_exptl_crystal_description       block
_exptl_crystal_F_000             490
_exptl_crystal_size_max          0.145
_exptl_crystal_size_mid          0.122
_exptl_crystal_size_min          0.086
_refine_diff_density_max         1.423
_refine_diff_density_min         -1.085
_refine_ls_extinction_coef       0.0040(3)
_refine_ls_extinction_expression Fc^*^=kFc[1+0.001xFc^2^\l^3^/sin(2\q)]^-1/4^
_refine_ls_extinction_method     'SHELXL-2014/7 (Sheldrick 2014'
_refine_ls_goodness_of_fit_ref   1.090
_refine_ls_hydrogen_treatment    none
_refine_ls_matrix_type           full
_refine_ls_number_parameters     28
_refine_ls_number_reflns         793
_refine_ls_number_restraints     0
_refine_ls_restrained_S_all      1.090
_refine_ls_R_factor_all          0.0175
_refine_ls_R_factor_gt           0.0173
_refine_ls_shift/su_max          0.000
_refine_ls_shift/su_mean         0.000
_refine_ls_structure_factor_coef Fsqd
_refine_ls_weighting_details
'w=1/[\s^2^(Fo^2^)+(0.0239P)^2^] where P=(Fo^2^+2Fc^2^)/3'
_refine_ls_weighting_scheme      calc
_refine_ls_wR_factor_gt          0.0423
_refine_ls_wR_factor_ref         0.0424
_reflns_Friedel_coverage         0.000
_reflns_number_gt                785
_reflns_number_total             793
_reflns_threshold_expression     'I > 2\s(I)'
_cod_data_source_file            c7cc09033a2.cif
_cod_data_source_block           CuH2O2Br
_cod_depositor_comments
;
The following automatic conversions were performed:

'_exptl_absorpt_correction_type' value 'Multi-scan' changed to
'multi-scan' according to
/home/data/users/saulius/crontab/automatic-downloads/current/RSC/lib/dictionaries/cif_core.dic
dictionary named 'cif_core.dic' version 2.4.2 from 2011-04-26.

Automatic conversion script
Id: cif_fix_values 5376 2017-05-30 11:51:03Z andrius 
;
_cod_database_code               7124489
_shelx_estimated_absorpt_t_min   0.145
_shelx_estimated_absorpt_t_max   0.257
_shelx_res_file
;

  mo_115_ethyleneglycolcryst_0m_a.res created by SHELXL-2014/7


TITL mo_115_ethyleneglycolcryst_0m_a.res in Cmmm
REM Old TITL mo_115_ethyleneglycolcryst_0m in C222
REM SHELXT solution in Cmmm
REM R1 0.105,  Rweak 0.029,  Alpha 0.058,  Orientation as input
REM Formula found by SHELXT:  C4 N6 Cu Br2 Pt
CELL  0.71073   7.3275  10.5863   7.1618   90.000   90.000   90.000
ZERR    2.000   0.0001   0.0002   0.0001    0.000    0.000    0.000
LATT  7
SYMM -X, -Y, Z
SYMM -X, Y, -Z
SYMM X, -Y, -Z
SFAC C H N O CU BR PT
UNIT 8 0 8 4 2 4 2
TEMP 26.140
shel 999 0.6
acta
SIZE 0.086 0.122 0.145
L.S. 10
BOND $H
LIST 6
FMAP 2
PLAN 20
EQIV $1 1.5-x, 1.5-y, z
bind Br1 Br1_$1
WGHT    0.023900
EXTI    0.004041
FVAR       0.32582
PT1   7    0.500000    0.500000    0.500000    10.12500    0.00783    0.02856 =
         0.00828    0.00000    0.00000    0.00000
BR1   6    0.500000    0.733722    0.500000    10.25000    0.02644    0.03065 =
         0.04982    0.00000    0.00000    0.00000
CU1   5    0.000000    0.500000    0.000000    10.12500    0.00841    0.03551 =
         0.00792    0.00000    0.00000    0.00000
O1    4    0.000000    0.272930    0.000000    10.25000    0.14019    0.03732 =
         0.05244    0.00000    0.00000    0.00000
N1    3    0.192343    0.500000    0.193971    10.50000    0.01574    0.04687 =
         0.01476    0.00000   -0.00379    0.00000
C1    1    0.305157    0.500000    0.304504    10.50000    0.01265    0.03808 =
         0.01381    0.00000   -0.00130    0.00000
HKLF 4

REM  mo_115_ethyleneglycolcryst_0m_a.res in Cmmm
REM R1 =  0.0173 for     785 Fo > 4sig(Fo)  and  0.0175 for all     793 data
REM     28 parameters refined using      0 restraints

END

WGHT      0.0239      0.0000

REM Highest difference peak  1.423,  deepest hole -1.085,  1-sigma level  0.182
Q1    1   0.5000  0.6532  0.5000  10.25000  0.05    1.42
Q2    1   0.0000  0.4310  0.0000  10.25000  0.05    1.05
Q3    1   0.5000  0.5821  0.5000  10.25000  0.05    0.83
Q4    1   0.3404  0.5000  0.3968  10.50000  0.05    0.82
Q5    1   0.5000  0.7032  0.4159  10.50000  0.05    0.75
Q6    1   0.1272  0.5000  0.1185  10.50000  0.05    0.74
Q7    1   0.5000  0.5000  0.4221  10.25000  0.05    0.73
Q8    1   0.0000  0.0667  0.0464  10.50000  0.05    0.54
Q9    1   0.0000  0.3419  0.0307  10.50000  0.05    0.53
Q10   1   0.5000  0.5331  0.5000  10.25000  0.05    0.52
Q11   1   0.6073  0.7211  0.5000  10.50000  0.05    0.51
Q12   1   0.5000  0.5840  0.3376  10.50000  0.05    0.51
Q13   1   0.0955  0.2929  0.1594  11.00000  0.05    0.49
Q14   1   0.2331  0.4795  0.2781  11.00000  0.05    0.45
Q15   1   0.5000  0.7726  0.3701  10.50000  0.05    0.45
Q16   1   0.5000  0.6207  0.2728  10.50000  0.05    0.44
Q17   1   0.5818  0.8076  0.5000  10.50000  0.05    0.42
Q18   1   0.0000  0.2043  0.0000  10.25000  0.05    0.41
Q19   1   0.5929  0.6411  0.3533  11.00000  0.05    0.40
Q20   1   0.0662  0.2062  0.0000  10.50000  0.05    0.40
;
_shelx_res_checksum              27559
_shelx_hkl_file
;
   2   0   0 6648.23  170.28
  -2   0   0 6664.43  170.08
   4   0   0 6044.50  164.88
  -4   0   0 6341.07  164.58
   6   0   0 3911.41  116.09
  -8   0   0 1329.37   41.30
 -10   0   0 1227.68   42.60
 -10   0   0 1238.68   42.00
 -12   0   0  409.66   23.20
  16   0   0  174.38   23.20
   1  -1   0  955.90   25.70
   1   1   0  927.01   28.60
  -1   1   0  924.81   25.70
  -1  -1   0  911.51   28.40
   3  -1   0  942.51   30.10
   3   1   0  918.71   33.00
  -3  -1   0  924.81   32.50
   3  -1   0  948.51   29.80
   5  -1   0  562.24   23.80
  -5  -1   0  534.55   25.70
   5   1   0  500.45   26.20
   5  -1   0  517.45   23.90
   7   1   0  377.16   26.70
  -7  -1   0  392.06   25.00
   7  -1   0  403.66   24.60
   7  -1   0  409.26   23.80
  -9   1   0  253.97   14.50
  -9  -1   0  236.88   15.20
  -9   1   0  260.47   14.80
  -9  -1   0  250.07   14.40
 -11   1   0  148.99   13.60
 -11  -1   0  150.58   13.90
 -11  -1   0  137.49   14.60
 -13   1   0   79.29   13.40
 -13  -1   0   74.49   19.00
  15   1   0   92.49   17.00
   0   2   0 1695.53   51.09
   0  -2   0 1716.03   50.79
  -2   2   0   17.00    3.40
  -2  -2   0   14.80    4.30
   2   2   0   13.20    4.30
   2  -2   0   19.60    3.70
   4   2   0  475.15   25.30
   4  -2   0  506.25   20.50
   4  -2   0  521.45   20.50
  -4  -2   0  513.45   24.80
  -6  -2   0  610.74   31.60
   6   2   0  616.84   33.80
   6  -2   0  613.54   28.00
   6  -2   0  660.33   27.80
  -8  -2   0  146.29   10.50
  -8  -2   0  164.18   12.40
  -8   2   0  167.88   10.90
 -10  -2   0  378.06   19.30
 -10  -2   0  396.76   21.50
 -10   2   0  357.16   19.40
 -12   2   0  151.18   16.10
 -12  -2   0  169.08   17.60
  14   2   0  112.49   16.80
 -14  -2   0  101.69   23.30
 -14   2   0   92.19   15.30
  16  -2   0  146.49   20.50
  -1   3   0  316.77   15.60
   1   3   0  310.67   17.70
   1  -3   0  314.37   15.90
  -3   3   0  313.57   14.00
   3  -3   0  321.77   14.50
   3   3   0  333.37   20.30
  -3  -3   0  328.47   19.80
   5  -3   0  192.88   12.60
  -5  -3   0  183.98   16.60
   5   3   0  170.58   17.10
   5  -3   0  188.18   12.30
  -7   3   0  174.98   10.80
  -7  -3   0  172.68   19.10
  -9  -3   0  129.99   13.20
  -9   3   0  138.69   11.20
  -9  -3   0  137.59   11.00
 -11   3   0   81.49   11.90
 -11  -3   0   99.69   14.40
 -13  -3   0   76.89   14.70
  13   3   0   43.30   11.90
 -13   3   0   88.19   14.50
 -15   3   0   30.60   12.60
  15   3   0   46.80   13.40
   0   4   0 9088.59  251.37
   0  -4   0 9842.12  251.07
  -2  -4   0 4369.16  126.39
   2  -4   0 4178.78  118.09
  -2   4   0 4345.57  117.49
  -4  -4   0 4151.58  124.09
  -4   4   0 4006.60  110.49
   4  -4   0 4010.30  111.49
   4   4   0 4140.49  125.59
  -6  -4   0 2787.72   96.89
   6  -4   0 2916.61   84.49
   6  -4   0 2807.32   83.59
   6   4   0 2913.81  101.89
  -8  -4   0  956.30   36.20
  -8   4   0  971.00   33.40
 -10   4   0  872.81   34.20
 -10  -4   0  909.31   38.40
  10   4   0  941.11   34.20
  12   4   0  353.46   21.70
 -12   4   0  315.07   21.90
 -12  -4   0  358.66   25.50
  14   4   0  208.28   21.50
 -14   4   0  237.88   22.40
 -14  -4   0  188.98   22.50
   1   5   0 1046.80   45.20
   1  -5   0 1090.19   42.00
  -1   5   0  999.50   41.50
  -3   5   0 1002.70   36.30
   3   5   0  958.80   44.80
  -3  -5   0 1040.20   46.40
   3  -5   0  984.70   37.40
   5  -5   0  680.63   28.70
  -5  -5   0  675.73   38.60
   5  -5   0  704.23   28.20
   5   5   0  690.33   39.90
  -7   5   0  444.46   19.10
  -7  -5   0  449.06   21.70
  -9  -5   0  278.57   19.50
   9   5   0  275.37   15.60
  -9   5   0  265.57   16.40
 -11  -5   0  127.59   17.40
  11   5   0  169.98   15.00
 -11   5   0  152.98   15.10
 -13  -5   0   56.19   15.20
 -13   5   0  130.49   18.20
  13   5   0   81.29   13.60
 -15  -5   0   43.80   15.30
 -15   5   0   50.89   15.40
   0  -6   0 1027.90   30.20
   2   6   0  107.39   15.50
   2  -6   0  110.39   13.10
  -2   6   0  121.29   12.90
  -4  -6   0  414.26   30.60
  -4   6   0  411.56   21.30
   4   6   0  416.86   31.10
   4  -6   0  385.86   22.40
  -6  -6   0  433.66   20.40
  -6   6   0  428.86   18.70
  -8  -6   0  122.39   13.30
   8   6   0  146.39   11.10
  -8   6   0  112.49   10.90
  10   6   0  298.17   17.90
 -10   6   0  277.37   18.30
 -10  -6   0  300.97   22.50
 -12   6   0  114.49   16.30
 -12  -6   0   86.89   16.50
  12   6   0  120.69   15.10
 -14  -6   0   83.49   18.10
 -14   6   0  115.89   17.60
 -16   6   0   76.39   15.30
 -16  -6   0  102.99   18.90
  -1  -7   0   39.00    4.90
   3   7   0   46.10   13.50
   3  -7   0   46.50   10.60
  -3   7   0   49.00    9.40
  -5   7   0   42.20    8.40
   5  -7   0   46.50   13.50
   5   7   0   55.99   16.60
   7   7   0   46.40    7.20
  -7  -7   0   55.79    9.70
  -7   7   0   40.50    7.50
  -9  -7   0   68.59   12.40
  -9   7   0   58.89   10.10
   9   7   0   51.29    8.90
 -11  -7   0   42.80   12.30
  11   7   0   56.29   10.50
 -11   7   0   54.09   11.30
 -13  -7   0   20.00   13.60
 -13   7   0   32.80   12.30
 -15  -7   0   52.19   16.00
 -15   7   0   30.30   13.90
   0   8   0 2772.02  100.49
   0  -8   0 2909.41   99.19
  -2  -8   0 1408.76   41.10
   4  -8   0 1481.75   58.09
   4   8   0 1525.05   72.69
  -4   8   0 1493.85   56.39
  -6   8   0 1105.69   37.70
   6   8   0 1102.69   35.70
  -6  -8   0 1113.99   39.50
  -8   8   0  419.36   21.60
   8   8   0  412.96   19.70
  -8  -8   0  441.96   24.30
  10   8   0  439.56   22.40
 -10   8   0  450.85   24.90
 -10  -8   0  427.56   27.60
 -12  -8   0  187.38   23.70
 -12   8   0  173.08   19.50
  12   8   0  208.88   18.40
 -14  -8   0  129.89   21.60
 -14   8   0  107.69   17.60
 -16   8   0   83.79   16.20
 -16  -8   0   69.29   17.60
   1  -9   0  654.63   38.60
  -1   9   0  710.93   41.70
   1   9   0  721.43   44.70
   3   9   0  649.24   44.90
  -3   9   0  600.34   35.60
   3  -9   0  604.84   35.20
  -5   9   0  478.85   21.20
  -5  -9   0  460.45   21.40
   5   9   0  452.85   21.40
   7   9   0  296.97   16.20
  -7   9   0  277.57   17.50
  -7  -9   0  263.47   18.60
  -9   9   0  145.39   15.60
  -9  -9   0  157.88   17.70
   9   9   0  172.28   14.20
  11   9   0   96.59   14.00
 -11  -9   0   90.19   16.60
 -11   9   0  117.89   17.30
 -13   9   0   59.39   14.30
 -13  -9   0   71.99   18.00
 -15   9   0   39.30   14.40
 -15  -9   0   30.40   16.40
   0 -10   0  464.55   18.50
   2 -10   0  176.28   23.80
   2  10   0  158.38   24.90
  -2  10   0  166.98   21.00
   4 -10   0  231.68   14.60
  -4  10   0  236.38   14.50
  -4 -10   0  214.58   14.00
   4  10   0  223.08   13.90
  -4 -10   0  247.98   14.30
   6  10   0  233.28   14.70
  -6 -10   0  240.48   15.10
  -6 -10   0  244.98   16.60
  -6  10   0  241.58   16.20
   6 -10   0  226.98   15.80
  -8 -10   0   94.49   14.10
   8  10   0   81.49   11.50
  -8  10   0   95.49   13.20
 -10 -10   0  150.58   19.80
 -10  10   0  140.49   17.40
  10  10   0  147.59   15.30
 -12 -10   0   36.70   14.00
 -12  10   0   56.89   14.40
 -14 -10   0   49.60   16.90
 -14  10   0   32.10   14.50
   1 -11   0   -2.70    3.60
  -1  11   0    5.30    4.60
  -1 -11   0    8.80    5.40
  -1 -11   0    3.80    4.30
   1  11   0    8.10    5.60
   1 -11   0    2.30    5.00
  -3 -11   0    0.40    5.00
   3 -11   0    6.70    6.10
   3  11   0    8.50    4.90
  -3  11   0   17.00    5.80
   5  11   0    8.30    5.90
  -5  11   0   10.00    6.20
  -5 -11   0   12.30    5.90
   5 -11   0   20.30    7.20
  -5 -11   0    5.60    5.60
  -7 -11   0    4.40    6.80
  -7  11   0   11.60    7.10
   7  11   0   12.20    7.00
  -9  11   0   12.50    8.60
  -9 -11   0    7.50    9.30
   9  11   0   11.50    8.30
 -11  11   0   12.90   11.50
 -11 -11   0   25.30   12.80
 -13  11   0    3.10   11.50
 -13 -11   0   -3.80   12.10
 -15  11   0   -3.50   12.00
 -15 -11   0   21.50   15.60
   0 -12   0  464.95   22.20
   0  12   0  475.15   22.20
   0 -12   0  552.84   21.80
  -2 -12   0  304.87   17.30
   2  12   0  251.67   15.20
  -2  12   0  287.47   16.60
   2 -12   0  271.17   17.20
   4  12   0  314.27   17.60
   4 -12   0  311.17   18.40
  -4 -12   0  296.47   17.10
  -4  12   0  287.37   18.10
  -4 -12   0  297.47   18.40
   6 -12   0  271.07   18.50
   6  12   0  251.17   17.30
  -6 -12   0  234.68   17.30
  -6  12   0  278.57   19.00
  -6 -12   0  268.67   17.40
  -8  12   0   91.49   14.30
  -8 -12   0  142.99   16.50
   8  12   0  150.08   15.80
 -10 -12   0  150.48   20.70
 -10  12   0  159.78   19.50
 -12 -12   0  109.39   19.80
 -12  12   0   60.69   15.70
 -14  12   0   51.29   15.60
 -14 -12   0   43.30   16.00
   1 -13   0  268.37   15.70
   1 -13   0  235.18   16.10
  -1  13   0  278.57   16.80
   1  13   0  234.88   16.00
  -1 -13   0  228.58   16.80
  -3 -13   0  220.08   16.50
   3  13   0  226.48   15.10
   3 -13   0  218.58   15.40
   3 -13   0  199.28   15.90
  -3  13   0  205.28   15.60
  -5  13   0  173.48   16.00
   5  13   0  181.78   14.80
   5 -13   0  165.08   15.80
  -5 -13   0  160.68   14.60
  -5 -13   0  166.78   14.30
   7 -13   0  110.09   15.00
  -7  13   0   74.79   13.60
  -7 -13   0   91.99   13.70
   7  13   0  114.59   14.30
  -9  13   0   58.49   13.70
  -9 -13   0  123.59   18.30
 -11 -13   0   43.20   15.70
 -11  13   0   40.00   14.70
 -13  13   0   44.60   14.50
 -13 -13   0   34.40   15.00
   0 -14   0  197.68   14.80
   0 -14   0  147.89   14.00
   0  14   0  165.58   13.80
  -2  14   0   85.09   12.00
   2  14   0   78.19   11.20
  -2 -14   0   86.59   12.40
   2 -14   0   93.49   12.00
   2 -14   0   73.69   10.00
  -4  14   0  103.39   13.20
   4 -14   0  113.29   13.30
  -4 -14   0   90.19   13.20
   4 -14   0   95.89   12.90
   4  14   0  101.69   12.40
   6 -14   0   95.09   13.60
  -6 -14   0   73.59   11.80
   6  14   0  118.19   14.40
  -6  14   0   69.59   13.00
  -6 -14   0   82.89   12.70
  -8  14   0   22.60   11.00
  -8 -14   0   24.80   11.00
 -10  14   0   47.70   13.90
 -10 -14   0   66.09   15.40
 -12 -14   0    6.30   12.50
 -12  14   0   15.00   13.40
 -14 -14   0    8.00   12.90
 -14  14   0   29.60   13.40
   1 -15   0    0.00    6.10
   1  15   0   -0.90    5.60
  -1  15   0   -6.10    5.20
  -1 -15   0    1.60    6.50
   1 -15   0   -1.30    6.10
   3 -15   0    3.20    6.00
   3  15   0   -5.40    6.10
  -3 -15   0    7.00    7.40
  -3  15   0   -1.80    7.20
   3 -15   0    1.00    7.10
   5 -15   0   10.30    8.20
   5 -15   0   -1.00    6.80
  -5 -15   0   -0.50    6.70
  -5 -15   0    5.00    7.50
  -5  15   0    1.40    7.50
   5  15   0    5.10    7.10
  -7 -15   0    8.20    8.30
  -7  15   0   -5.50    9.10
   7 -15   0   -2.50    8.00
  -9 -15   0    1.70   10.30
  -9  15   0    4.10   10.10
 -11 -15   0  -12.70   11.20
 -11  15   0   16.70   14.20
 -13 -15   0    0.40   11.90
 -13  15   0    1.40   11.60
   0 -16   0   38.50    9.90
   0  16   0   64.79   11.00
   2  16   0   39.60    9.30
   2 -16   0   55.09   10.30
   2 -16   0   33.50    9.80
  -2  16   0   36.30    9.60
  -2 -16   0   27.10    9.70
   4 -16   0   24.10   10.00
  -4 -16   0   52.29   11.60
   4  16   0   42.40   10.70
   4 -16   0   52.69   10.40
  -4  16   0   49.40   11.10
  -6 -16   0   52.39   12.10
  -6  16   0   46.90   12.60
   6  16   0   48.10   11.40
   6 -16   0   63.19   12.40
   6 -16   0   32.70   10.30
  -6 -16   0   36.30   10.50
  -8 -16   0   14.50   10.70
  -8  16   0   30.10   12.50
   8 -16   0   23.00   11.30
 -10  16   0   43.10   14.60
 -10 -16   0   18.70   12.20
 -12 -16   0    3.20   11.70
 -12  16   0    8.00   12.60
   1  17   0   40.50   10.30
  -1  17   0   49.99   10.90
   1 -17   0   42.00   10.40
  -1 -17   0   49.90   11.60
   3  17   0   52.19   11.40
   3 -17   0   22.20    9.40
  -3  17   0   35.00   10.30
   3 -17   0   59.59   11.40
  -3 -17   0   37.30   11.50
   5 -17   0   29.40    9.90
  -5  17   0   49.20   12.50
  -5 -17   0   44.40   11.90
   5 -17   0   34.80   10.60
   5  17   0   31.80   10.80
   7 -17   0   23.40   10.30
  -7  17   0   35.30   13.50
  -7 -17   0   23.30   10.70
   7 -17   0   20.10   10.90
  -9 -17   0   35.00   13.00
  -9  17   0   -8.00   11.30
 -11 -17   0   16.90   11.70
 -11  17   0    5.10   12.50
   0  18   0   37.90   10.10
   0 -18   0   25.40   10.60
  -2 -18   0   18.80   10.00
  -2  18   0   10.60    8.80
   2 -18   0   15.60    9.30
   2  18   0   11.80    9.00
  -4 -18   0   12.60    9.50
  -4  18   0    9.50    9.50
   4 -18   0   36.30   10.90
   4  18   0    8.70    9.00
   4 -18   0   10.00    9.40
   6 -18   0   11.70    9.80
  -6  18   0    6.60   11.40
   6 -18   0   14.40   10.70
  -6 -18   0   22.10   11.20
  -8  18   0    3.00   11.70
  -8 -18   0    7.70   16.30
 -10  18   0   20.50   12.80
 -10 -18   0   19.90   11.80
 -12  18   0   17.20   14.30
  -1 -19   0   -3.70    8.70
   1 -19   0   -1.60    9.20
  -1  19   0    0.40    9.10
   1  19   0    3.90    8.50
  -3 -19   0   -7.70    8.40
   3  19   0   -4.20    8.30
  -3  19   0   -1.90    8.90
   3 -19   0  -10.30    9.00
   5 -19   0    2.40   10.00
  -5  19   0    9.30   11.10
  -5 -19   0   -5.60    9.10
   5 -19   0   -8.40    9.50
  -7  19   0  -15.00   10.40
   7 -19   0  -13.10    9.80
  -9  19   0   -9.00   11.00
 -11  19   0   -4.30   10.70
   0  20   0    8.50    9.80
   0 -20   0    7.80   10.30
  -2  20   0   -2.40    9.50
  -2 -20   0   19.30   11.70
   2  20   0   16.40   10.00
   2 -20   0   11.60   10.80
  -4  20   0    0.80   10.30
   4 -20   0   19.10   12.30
  -4 -20   0   11.30   11.00
  -6 -20   0   -9.20   10.20
  -6  20   0  -10.30   10.10
   6 -20   0  -16.70   10.10
  -8  20   0    7.50   11.20
 -10  20   0   24.30   12.60
  -1  21   0   -0.60    9.90
   1 -21   0   12.70   12.30
   1  21   0   12.20   10.70
  -1 -21   0   35.90   13.00
  -3 -21   0   24.80   13.20
  -3  21   0    4.00   10.20
   3 -21   0   -5.10   10.70
  -5 -21   0    6.60   12.00
   5 -21   0   10.10   11.80
  -5  21   0    7.60   10.90
  -7  21   0   10.90   11.10
  -9  21   0    3.40   10.40
   0 -22   0   19.20   12.50
   0  22   0    7.90   10.70
  -2 -22   0  -11.90   11.10
   2 -22   0   -8.80   10.50
  -2  22   0   -5.30    9.80
   4 -22   0    9.70   12.50
  -4 -22   0   15.90   12.50
  -4  22   0   13.80   10.70
   6 -22   0    3.70   11.20
  -6  22   0    1.10   10.10
  -8  22   0   12.50   12.40
  -1  23   0   -5.90    9.60
  -1 -23   0    1.30   11.90
   1 -23   0    4.30   11.20
  -3 -23   0   -1.30   11.50
  -3  23   0   -8.40    9.00
   3 -23   0   12.30   12.40
  -5  23   0    3.10    9.50
   5 -23   0   16.40   11.50
  -5 -23   0   -1.90   10.70
   0 -24   0    3.10   11.90
   2 -24   0    6.30   11.50
  -2  24   0   -2.20   13.50
  -2 -24   0   -0.60   12.00
  -4 -24   0    4.80   11.90
   4 -24   0    1.90   10.50
  -1 -25   0    4.30   13.20
   1 -25   0   -0.60   13.40
   0   0  -1 2954.10   76.39
   0   0   1 2904.51   76.19
  -2   0  -1 2999.20   79.39
   2   0   1 2966.00   80.89
  -2   0   1 3077.89   82.99
   2   0  -1 2992.20   82.99
  -4   0  -1 2154.38   61.79
   4   0  -1 2108.79   66.89
   4   0   1 2157.98   64.49
   6   0  -1 1385.46   54.29
  -6   0  -1 1370.16   47.00
   6   0   1 1385.96   51.29
   6   0  -1 1476.05   54.49
  -8   0  -1  811.62   28.20
  -8   0   1  747.93   28.30
  -8   0   1  785.82   27.20
 -10   0   1  382.26   19.40
 -10   0  -1  394.36   20.50
 -10   0   1  423.86   20.90
 -10   0  -1  378.46   20.20
 -12   0  -1  205.98   16.90
 -12   0   1  221.88   18.20
 -12   0   1  179.98   16.00
  16   0   1   52.19   15.70
  -1   1   1 4411.26  119.19
   1   1  -1 4580.44  119.99
  -1  -1  -1 4620.84  121.59
   1   1   1 4589.34  120.69
   1  -1  -1 4669.43  119.69
  -1   1  -1 4509.75  114.79
   3   1  -1 2594.04   77.89
   3  -1   1 2594.84   69.99
  -3  -1  -1 2579.44   75.09
  -3   1  -1 2689.53   68.79
   3   1   1 2582.94   77.69
   3  -1  -1 2655.93   75.89
   3  -1  -1 2746.43   76.09
  -5  -1  -1 2365.36   73.49
   5  -1   1 2351.46   70.59
   5   1  -1 2394.86   78.89
  -5  -1   1 2448.75   77.79
   5   1   1 2404.96   77.39
   5  -1  -1 2596.44   76.79
   5  -1  -1 2389.26   75.99
  -7  -1  -1 1180.68   47.30
   7   1  -1 1178.68   53.09
   7   1   1 1203.18   52.59
   7  -1  -1 1334.17   51.69
   7  -1  -1 1196.88   50.99
  -9  -1  -1  760.52   28.30
  -9  -1  -1  708.73   28.70
  -9   1   1  749.92   27.40
  -9   1   1  743.83   27.70
  -9  -1   1  719.53   27.00
  -9   1  -1  729.53   32.20
  -9   1  -1  716.53   27.80
  -9  -1   1  699.53   28.90
 -11  -1  -1  489.95   24.70
 -11  -1  -1  470.55   23.70
 -11   1   1  427.66   22.30
 -11   1  -1  454.95   23.40
 -11  -1   1  446.16   22.50
 -11  -1   1  456.85   24.00
 -13   1   1  236.78   19.30
 -13  -1   1  252.87   21.20
 -13   1  -1  209.88   19.50
  15   1   1  106.69   18.50
  17  -1   1   99.29   20.60
   0  -2   1    6.50    3.80
   0   2  -1    3.50    2.90
   2   2  -1    4.10    3.10
  -2   2   1    4.80    2.80
  -2  -2  -1    9.20    4.40
   2  -2  -1    2.70    2.60
   2   2   1    6.20    4.50
  -2  -2   1   -0.30    3.10
   4   2  -1    6.30    4.80
   4  -2   1    4.10    2.20
  -4  -2  -1    2.30    3.90
   4  -2  -1    4.40    3.70
   4  -2  -1    6.10    3.80
   4   2   1   -1.20    4.30
  -4  -2   1    0.60    3.80
   6  -2   1    9.40    3.80
   6  -2   1    8.90    4.20
  -6  -2  -1   12.60    6.00
   6   2  -1    7.80    6.40
   6  -2  -1    8.30    5.30
   6  -2  -1    8.40    5.60
   6   2   1    8.30    6.80
  -6  -2   1    4.70    5.30
  -8   2   1   23.60    5.50
  -8  -2  -1   24.30    6.80
  -8  -2  -1   31.00    6.40
  -8  -2   1   28.40    6.70
  -8   2  -1   22.10    5.50
  -8  -2   1   25.40    5.80
 -10  -2  -1   32.30    7.80
 -10  -2  -1   49.99    9.60
 -10   2   1   35.80    7.90
 -10  -2   1   35.60    8.80
 -10   2  -1   52.39    9.20
 -10  -2   1   46.90    8.30
 -12  -2  -1   42.60   11.50
 -12   2   1   39.20   10.10
 -12   2  -1   35.60   10.30
 -12  -2   1   37.80   11.10
 -14   2   1   46.40   12.20
  14   2  -1   54.89   16.40
 -14   2  -1   26.80   11.60
 -14  -2   1   35.60   12.60
  14   2   1   35.20   12.80
  16  -2   1   15.20   14.70
  16   2   1   20.00   12.10
   1   3  -1 1876.01   59.59
  -1   3   1 2015.90   60.09
   1  -3   1 2012.40   55.89
  -1   3  -1 1918.51   56.99
  -1  -3   1 1965.00   60.19
   1  -3  -1 1951.00   59.29
  -3  -3  -1 1185.08   45.80
   3   3  -1 1185.58   44.50
  -3   3   1 1133.69   39.40
   3   3   1 1150.18   47.10
  -3  -3   1 1191.98   44.30
   3  -3  -1 1133.99   39.50
   5   3  -1 1356.36   55.09
  -5  -3  -1 1322.27   51.89
   5   3   1 1386.96   56.89
  -5  -3   1 1335.87   53.49
   5  -3  -1 1410.36   48.80
   5  -3  -1 1350.76   48.30
  -7  -3  -1  687.43   32.80
  -7  -3  -1  694.73   30.80
  -7   3  -1  671.83   24.60
  -7  -3   1  686.13   26.60
  -9  -3  -1  468.05   21.30
  -9   3   1  442.36   20.40
  -9  -3  -1  481.35   23.90
  -9   3  -1  482.05   21.30
  -9  -3   1  527.65   21.00
  -9  -3   1  470.45   23.80
 -11   3   1  343.37   19.70
 -11  -3  -1  351.36   22.80
 -11  -3   1  334.07   22.20
 -11   3  -1  310.07   19.90
 -13  -3  -1  179.78   20.70
  13   3  -1  177.08   17.50
 -13   3   1  188.78   18.80
 -13  -3   1  190.28   20.30
 -13   3  -1  176.48   19.10
  13   3   1  177.68   19.60
 -15   3   1  139.09   19.80
 -15  -3   1  160.08   22.50
  15   3   1  162.08   22.60
 -15   3  -1  117.09   17.50
   0  -4  -1 2041.30   53.49
   2  -4   1 1965.10   58.59
   2   4  -1 1991.00   66.59
  -2   4   1 1983.90   63.09
  -2  -4  -1 1951.70   70.09
  -2   4  -1 2031.70   59.09
   2  -4  -1 2017.20   63.09
   2   4   1 2141.39   72.59
  -4   4   1 1446.96   50.49
  -4  -4  -1 1589.54   60.29
   4   4  -1 1488.85   58.79
   4  -4  -1 1543.05   51.89
   4   4   1 1587.74   62.79
  -4  -4   1 1496.55   57.99
   6   4  -1 1037.80   50.99
  -6  -4  -1 1065.69   49.20
   6  -4  -1 1050.39   42.60
   6   4   1 1090.39   54.09
   6  -4  -1 1036.40   42.50
  -8   4   1  569.44   22.80
  -8  -4  -1  545.65   25.90
  -8   4  -1  570.24   23.20
  -8  -4   1  597.04   26.10
  10   4  -1  310.17   17.90
 -10   4   1  287.77   17.50
 -10  -4  -1  312.77   21.50
 -10  -4   1  350.56   22.20
 -10   4  -1  319.57   18.10
  10   4   1  297.47   18.30
 -12  -4  -1  181.38   19.50
  12   4  -1  181.58   16.60
 -12   4   1  148.79   16.20
 -12   4  -1  159.08   16.50
 -12  -4   1  153.88   18.00
  12   4   1  175.68   16.40
 -14  -4  -1   96.29   17.10
 -14   4   1   91.19   15.80
 -14  -4   1   87.29   17.50
 -14   4  -1   44.40   13.60
  14   4   1   97.49   16.10
  16   4   1   14.60   11.40
  -1  -5  -1 3998.00  102.79
   3   5  -1 2455.85   84.79
  -3   5   1 2601.34   79.39
   3  -5   1 2607.44   73.69
  -3  -5  -1 2385.66   87.79
   3   5   1 2597.34   90.99
  -3  -5   1 2546.85   85.69
  -3   5  -1 2498.65   71.39
   3  -5  -1 2474.25   78.49
   5   5  -1 2136.99   81.99
  -5  -5  -1 2147.39   81.79
   5   5   1 2222.78   86.29
   5  -5  -1 2159.88   71.59
  -5  -5   1 2257.97   83.79
  -7   5   1 1010.00   34.20
  -7  -5  -1 1002.90   37.70
   7   5   1 1046.40   33.90
  -7  -5   1 1025.00   36.90
  -7   5  -1 1066.89   34.40
  -9  -5  -1  636.24   30.60
   9   5  -1  689.13   26.00
  -9   5   1  668.73   27.40
   9   5   1  661.23   26.80
  -9   5  -1  661.83   27.30
  -9  -5   1  663.03   30.60
 -11  -5  -1  362.36   25.00
  11   5  -1  403.56   21.10
 -11   5   1  366.26   21.60
 -11  -5   1  430.16   26.80
 -11   5  -1  376.36   22.80
  11   5   1  403.96   21.80
 -13   5   1  185.08   19.10
 -13  -5  -1  197.48   22.70
  13   5   1  138.79   18.20
 -13  -5   1  196.98   22.40
 -13   5  -1  199.78   20.60
 -15   5   1  141.39   20.90
 -15  -5  -1  180.68   23.50
 -15  -5   1  154.48   23.80
 -15   5  -1  136.59   19.70
  15   5   1  153.68   19.60
   0  -6  -1   10.50    2.70
  -2  -6  -1   22.20    3.60
  -4   6   1   18.20    6.60
   4   6  -1   11.50    7.80
  -4  -6  -1   12.50    8.40
   4  -6   1   22.20    6.30
   4  -6  -1   10.70    5.80
  -4   6  -1   19.10    5.20
  -4  -6   1   16.50    8.50
   4   6   1   15.80    9.70
  -6   6   1   25.80    5.80
  -6  -6  -1   24.80    6.40
  -6   6  -1   17.00    5.10
  -6  -6   1   30.60    6.90
  -8   6   1   45.10    8.20
   8   6  -1   40.40    7.10
  -8  -6  -1   20.10    8.00
   8   6   1   49.90    7.90
  -8   6  -1   34.00    6.90
  -8  -6   1   34.20    8.30
 -10   6   1   46.10    9.30
  10   6  -1   37.20    8.70
 -10  -6  -1   23.20    9.60
 -10  -6   1   22.20    9.80
  10   6   1   49.99    9.30
 -10   6  -1   49.00    9.80
 -12   6   1   30.00    9.50
 -12  -6  -1   35.80   12.90
 -12   6  -1   23.90   10.40
 -12  -6   1   22.90   11.70
  12   6   1   24.40    9.60
 -14   6   1   27.50   12.30
 -14  -6  -1   19.90   13.40
 -14   6  -1   30.20   13.10
  14   6   1   30.80   11.40
 -14  -6   1    0.50   12.60
 -16   6   1   43.40   13.40
 -16  -6  -1    6.50   13.40
 -16   6  -1   29.30   13.30
 -16  -6   1    9.10   13.90
  -1  -7  -1  405.36   15.50
  -1  -7   1  408.06   15.20
   1  -7  -1  446.46   15.70
   3  -7   1  289.27   19.10
   3   7  -1  289.97   25.40
  -3   7   1  284.17   21.60
   3   7   1  325.77   29.00
  -3   7  -1  300.87   19.00
   3  -7  -1  281.87   22.50
   5   7  -1  446.86   35.20
  -5   7   1  418.26   25.40
   5   7   1  474.95   38.30
   5  -7  -1  426.06   27.40
  -7   7   1  218.18   14.50
   7   7  -1  248.98   13.20
  -7  -7  -1  273.47   17.40
  -7  -7   1  263.27   16.80
  -7   7  -1  243.38   14.50
   7   7   1  235.08   14.10
  -9  -7  -1  199.78   18.60
   9   7  -1  216.48   14.40
  -9   7   1  201.68   15.50
  -9  -7   1  213.38   18.20
   9   7   1  204.68   15.00
  -9   7  -1  171.08   15.30
 -11   7   1  157.88   16.50
 -11  -7  -1  175.98   20.40
  11   7   1  209.28   16.70
 -11   7  -1  145.29   16.50
 -11  -7   1  130.19   19.80
 -13   7   1  110.59   16.40
 -13  -7  -1   80.99   17.20
  13   7   1  106.49   15.20
 -13  -7   1   86.29   18.30
 -13   7  -1   98.59   16.60
 -15  -7  -1   72.39   18.00
 -15   7   1   92.79   17.00
 -15   7  -1   62.99   16.20
 -15  -7   1   65.89   17.60
   0  -8  -1  805.52   26.70
   0  -8   1  889.11   27.70
  -2  -8  -1  747.53   24.70
   4  -8   1  642.04   32.30
   4   8  -1  603.14   42.30
  -4   8   1  636.74   34.90
   4  -8  -1  608.74   35.80
   4   8   1  629.94   44.60
  -4   8  -1  606.94   28.90
  -6  -8  -1  440.76   22.00
  -6   8   1  400.16   19.50
  -6  -8   1  440.26   21.50
   6   8   1  414.96   18.70
  -6   8  -1  419.56   19.90
  -8  -8  -1  272.87   19.20
   8   8  -1  287.87   17.00
  -8   8   1  237.18   16.70
   8   8   1  244.98   15.30
  -8   8  -1  242.08   16.40
  -8  -8   1  254.67   18.70
 -10   8   1  168.38   15.90
 -10  -8  -1  142.09   18.90
 -10  -8   1  139.49   17.50
 -10   8  -1  165.08   16.30
  10   8   1  165.88   14.50
 -12  -8  -1   98.19   18.20
 -12   8   1   86.29   14.70
 -12   8  -1   75.19   14.00
  12   8   1   77.29   13.00
 -12  -8   1   76.69   17.20
 -14  -8  -1   58.89   16.80
 -14   8   1   64.29   14.90
 -14   8  -1   47.70   14.90
  14   8   1   41.10   12.90
 -14  -8   1   39.50   16.50
 -16   8   1   44.00   13.70
 -16  -8  -1   37.00   15.70
 -16   8  -1   43.90   14.50
 -16  -8   1   22.90   14.60
  -1  -9  -1 1799.72   51.29
  -1  -9   1 1819.22   50.89
   1  -9  -1 1699.43   50.89
   3   9  -1 1202.58   63.99
  -3   9   1 1267.27   56.99
   3  -9   1 1339.67   53.49
  -3   9  -1 1181.18   51.69
   3  -9  -1 1226.28   57.59
   3   9   1 1394.36   69.09
  -5   9   1 1060.09   36.40
  -5   9   1 1052.09   36.10
  -5  -9  -1 1065.69   37.30
  -5  -9   1 1034.90   35.90
   5   9   1 1055.19   35.00
  -5  -9   1 1036.40   36.70
  -5   9  -1 1063.89   36.50
  -7  -9  -1  564.94   27.10
  -7   9   1  541.75   24.90
   7   9  -1  571.54   28.40
   7   9   1  533.55   23.40
  -7   9  -1  528.65   24.80
  -7  -9   1  569.54   26.70
  -9   9   1  350.36   21.50
  -9  -9  -1  365.16   24.30
  -9  -9   1  414.06   25.80
   9   9   1  328.17   19.60
  -9   9  -1  350.86   21.60
 -11  -9  -1  203.48   23.00
 -11   9   1  241.38   21.00
  11   9   1  249.28   19.50
 -11  -9   1  196.18   22.80
 -11   9  -1  260.07   21.40
 -13  -9  -1  136.39   21.60
 -13   9   1  117.39   17.30
 -13  -9   1  112.99   20.40
 -13   9  -1  150.08   21.50
  13   9   1  111.99   16.00
 -15  -9  -1   94.49   18.90
 -15   9   1   73.99   15.90
 -15  -9   1   53.59   16.90
 -15   9  -1   76.79   16.60
   0 -10  -1   41.10    6.10
   0 -10   1   49.50    7.00
  -2 -10  -1   48.40    7.10
  -2  10   1   49.30    7.60
  -2 -10   1   41.30    8.10
   2 -10  -1   51.99    7.50
   2 -10  -1   55.29    8.60
  -4 -10  -1   36.90    8.40
   4 -10   1   40.50    8.00
  -4 -10  -1   51.99    8.30
  -4  10   1   50.79    8.60
  -4  10  -1   59.09    8.90
  -4 -10   1   52.09    8.50
   4  10   1   44.80    7.80
  -4 -10   1   42.10    7.40
  -6  10   1   48.10    9.00
  -6 -10  -1   50.29    9.60
   6  10  -1   61.59    9.30
  -6 -10   1   29.70    7.20
  -6 -10   1   41.50    8.60
  -6  10  -1   42.00    8.80
   6  10   1   51.49    8.70
  -8  10   1   28.20    8.80
  -8 -10  -1   36.90   10.10
   8  10   1   50.89    9.90
  -8  10  -1   34.30    9.50
  -8 -10   1   32.10   10.20
 -10  10   1   34.60   11.10
 -10 -10  -1   24.30   11.20
  10  10   1   12.60    8.30
 -10 -10   1   25.80   11.20
 -10  10  -1   29.40   11.20
 -12  10   1   24.20   12.00
 -12 -10  -1   22.10   13.20
 -12  10  -1   21.80   11.80
  12  10   1   42.70   11.50
 -12 -10   1   24.80   13.40
 -14  10   1   30.20   13.80
 -14 -10  -1   25.90   14.60
 -14  10  -1   13.00   13.30
 -14 -10   1   15.00   15.20
   1 -11   1   86.49    9.90
  -1 -11  -1   68.49    8.30
  -1  11   1   76.89    9.70
   1 -11   1   78.39    9.00
  -1 -11  -1   68.09    9.80
   1  11   1   61.99    8.60
   1 -11  -1   62.39    7.90
   1 -11  -1   65.59    9.70
  -1 -11   1   55.59    8.40
  -1 -11   1   75.19    9.50
  -1  11  -1   66.29    8.50
  -3  11   1   45.20    8.10
  -3 -11  -1   58.99    9.50
  -3 -11  -1   68.19    8.60
   3 -11   1   65.79    9.40
   3  11   1   54.89    8.50
   3 -11  -1   66.29    9.90
  -3  11  -1   54.39    9.00
  -3 -11   1   64.09    9.70
  -5 -11  -1  100.79   11.10
   5 -11   1   86.29   10.50
  -5  11   1   72.99   10.10
  -5 -11  -1   92.19   11.00
   5  11  -1   94.69   10.60
  -5  11  -1   82.79   11.50
   5  11   1   98.99   11.30
  -5 -11   1   93.89   11.10
  -5 -11   1   98.69   10.90
   5 -11  -1  106.79   11.80
  -7  11   1   57.89   11.20
  -7 -11  -1   53.79   10.90
   7 -11  -1   81.89   11.90
   7  11   1   80.89   11.60
  -7 -11   1  104.99   13.50
  -7  11  -1   71.99   12.00
  -9  11   1   77.49   13.30
  -9 -11  -1   53.59   12.20
  -9 -11   1   74.29   13.90
   9  11   1   56.59   10.90
  -9  11  -1   41.10   11.00
 -11  11   1   83.89   15.40
 -11 -11  -1   72.39   15.20
 -11  11  -1   61.79   14.60
 -11 -11   1   77.79   16.60
  11  11   1   55.89   12.50
 -13 -11  -1   46.60   16.40
 -13  11   1   48.30   14.00
 -13 -11   1   18.90   14.50
 -13  11  -1   32.00   13.90
 -15  11   1   55.79   15.20
 -15 -11  -1   62.79   16.60
 -15 -11   1   49.70   16.80
 -15  11  -1   11.10   12.70
   0 -12   1  172.98   13.00
   0  12  -1  176.58   13.00
   0 -12   1  186.98   12.50
   0 -12  -1  176.78   14.10
   0  12   1  166.78   13.20
   0 -12  -1  170.98   12.50
  -2  12   1  173.78   13.50
   2 -12   1  134.59   12.20
   2  12  -1  157.88   12.20
   2 -12   1  152.28   12.90
  -2 -12  -1  143.19   12.90
   2  12   1  165.48   13.10
  -2  12  -1  153.18   12.90
   2 -12  -1  133.49   13.10
   2 -12  -1  160.68   12.00
  -2 -12   1  170.78   14.10
  -4 -12  -1  143.09   13.30
  -4  12   1  120.59   12.70
  -4 -12  -1  138.49   12.30
   4 -12   1  150.28   12.70
   4  12  -1  129.19   11.70
  -4  12  -1  122.69   13.10
   4  12   1  116.79   12.00
   4 -12  -1  152.48   13.80
  -4 -12   1  146.99   14.00
  -4 -12   1  142.89   12.60
  -6 -12  -1  112.29   13.80
   6 -12   1  119.99   12.80
  -6  12   1   94.29   13.00
  -6  12  -1  107.79   13.50
  -6 -12   1   99.29   13.30
   6  12   1   96.09   12.90
   6 -12  -1   90.99   13.50
  -6 -12   1   83.29   12.00
  -8  12   1   49.60   11.70
  -8 -12  -1   57.89   12.30
  -8 -12   1   51.99   11.60
   8  12   1   83.59   13.10
  -8  12  -1   90.49   14.00
 -10  12   1   29.40   11.60
 -10 -12  -1   47.10   13.70
  10  12   1   29.00   11.10
 -10 -12   1   50.29   14.30
 -10  12  -1   88.19   15.60
 -12 -12  -1   26.90   13.80
 -12  12   1   33.20   13.30
 -12  12  -1    8.30   13.10
 -12 -12   1    6.10   13.10
 -14 -12  -1   -0.60   13.70
 -14  12   1   26.30   13.50
 -14  12  -1   18.20   13.50
 -14 -12   1   24.00   15.40
   1 -13   1  520.35   22.30
  -1  13   1  472.75   23.10
  -1 -13  -1  555.44   25.40
   1  13  -1  492.15   22.50
   1 -13   1  465.65   23.20
  -1 -13  -1  492.15   23.60
   1  13   1  475.95   23.00
   1 -13  -1  497.45   22.00
  -1 -13   1  482.65   24.00
  -1  13  -1  471.05   22.60
   1 -13  -1  472.15   24.30
   3 -13   1  359.96   20.20
  -3 -13  -1  371.16   20.40
   3 -13   1  355.46   20.20
   3  13  -1  426.36   20.20
  -3  13   1  382.26   21.20
   3  13   1  359.16   19.80
   3 -13  -1  383.56   22.10
  -3 -13   1  383.36   22.00
  -3  13  -1  392.86   20.80
   3 -13  -1  380.86   19.50
  -5 -13  -1  291.97   19.50
  -5 -13  -1  330.07   19.20
   5 -13   1  341.17   19.60
  -5  13   1  333.67   20.50
   5 -13  -1  335.67   20.90
   5  13   1  323.67   19.80
  -5 -13   1  291.87   19.60
  -5 -13   1  306.87   19.10
  -5  13  -1  311.27   20.60
  -7 -13  -1  219.78   18.20
  -7  13   1  175.38   17.40
   7  13   1  157.08   16.80
  -7 -13   1  185.98   16.50
  -7  13  -1  205.58   19.50
   7 -13  -1  189.48   17.80
  -7 -13   1  188.88   17.70
  -9  13   1  111.59   16.70
  -9 -13  -1  136.99   18.60
  -9  13  -1  121.39   17.60
  -9 -13   1  115.59   17.70
   9  13   1  134.19   17.50
 -11 -13  -1   75.79   16.80
 -11  13   1   59.59   15.00
 -11  13  -1   78.69   16.30
 -11 -13   1   86.79   17.10
 -13  13   1   35.00   13.80
 -13 -13  -1   26.20   15.50
 -13 -13   1   60.89   16.50
 -13  13  -1   46.70   14.80
   0  14   1   35.80    8.60
   0  14  -1   38.70    8.30
   0 -14  -1   46.70    9.70
   0 -14   1   33.80    8.40
   0 -14  -1   32.50    7.90
   2 -14   1   45.40    9.00
  -2  14   1   53.79   10.20
   2 -14   1   32.70    8.60
  -2 -14  -1   36.00    9.10
   2  14  -1   27.80    7.70
   2 -14  -1   48.80    8.60
   2  14   1   40.30    8.80
  -2 -14   1   44.00    9.90
  -2  14  -1   15.50    7.60
   2 -14  -1   43.00   10.30
  -4  14   1   23.60    8.60
  -4 -14  -1   42.10    8.80
  -4 -14  -1   27.50    9.10
   4 -14   1   39.80    9.40
   4  14  -1   34.60    8.60
  -4  14  -1   40.20   10.10
   4 -14  -1   39.70    8.60
   4  14   1   31.50    8.90
   4 -14  -1   25.90    9.10
  -4 -14   1   44.00   10.00
  -6 -14  -1   29.20    9.30
   6 -14   1   32.40    9.70
  -6 -14  -1   29.30    9.50
  -6  14   1   17.80    9.10
  -6 -14   1   26.40    9.90
  -6  14  -1   31.00   10.50
   6  14   1   23.00    9.20
   6 -14  -1   35.10   10.70
  -6 -14   1   30.30    9.30
  -8 -14  -1   17.10    9.40
  -8  14   1   13.20   10.20
  -8 -14   1   14.10   10.20
   8  14   1   35.40   10.90
  -8  14  -1   22.30   11.10
 -10  14   1   13.60   11.90
 -10 -14  -1   13.60   11.30
  10  14   1   18.60   11.00
 -10 -14   1   22.50   12.10
 -10  14  -1   19.00   12.10
 -12 -14  -1    1.70   12.20
 -12  14   1    1.30   12.10
 -12 -14   1   -3.00   11.90
 -12  14  -1   -1.30   12.50
 -14 -14  -1    2.00   12.70
 -14  14   1    9.00   12.40
 -14  14  -1    4.10   12.40
 -14 -14   1   21.80   13.40
   1 -15   1    1.40    6.10
  -1 -15  -1    6.90    6.90
  -1  15   1   13.30    7.50
   1  15  -1   13.60    6.60
   1 -15  -1   17.50    7.70
  -1  15  -1   10.50    6.60
  -1 -15   1    8.80    7.60
   1  15   1   24.00    8.30
   1 -15  -1   27.90    8.20
   3  15  -1    7.90    7.20
   3 -15   1    7.40    7.20
  -3  15   1    3.60    7.40
   3 -15   1   16.80    7.80
  -3 -15  -1   25.80    9.00
  -3  15  -1    8.90    7.50
   3 -15  -1   13.00    7.00
   3  15   1   15.60    7.70
   3 -15  -1   14.60    9.10
  -3 -15   1   10.00    8.00
   5 -15   1   28.60    8.80
  -5 -15  -1   10.80    8.00
  -5  15   1   10.10    8.70
   5 -15   1    5.40    7.70
  -5 -15  -1   13.50    8.20
   5 -15  -1   17.80    9.10
  -5  15  -1   22.00    9.60
   5  15   1   29.30    9.30
   5 -15  -1   21.10    8.10
  -5 -15   1   13.60    8.60
  -7 -15  -1   16.90    8.90
  -7  15   1   31.60   11.20
   7 -15  -1   11.50    9.20
   7 -15  -1    4.40    8.10
  -7 -15   1   20.90    9.60
  -7 -15   1   16.90    9.10
  -7  15  -1   26.30   11.60
   7  15   1   13.40    9.40
  -9  15   1    6.90   10.80
  -9 -15  -1    8.10   10.80
  -9 -15   1   18.50   11.40
  -9  15  -1   11.40   11.70
   9  15   1   20.20   10.70
 -11  15   1   20.00   13.70
 -11 -15  -1   36.50   14.20
 -11 -15   1   23.40   13.10
 -11  15  -1   24.40   13.60
 -13  15   1   22.90   12.90
 -13 -15  -1    1.40   11.70
 -13  15  -1    9.00   12.00
 -13 -15   1    6.00   12.40
   0  16  -1    7.20    7.10
   0  16   1   17.30    8.20
   0 -16  -1   39.50   10.40
   0 -16   1   18.10    8.50
   2 -16   1   24.60    8.90
  -2  16   1   14.10    8.20
  -2 -16  -1   14.30    8.60
   2 -16   1   15.70    8.20
   2  16  -1   21.10    7.80
   2 -16  -1   30.60    8.60
   2 -16  -1   47.10   10.80
  -2 -16   1   18.70    8.80
   2  16   1   18.30    8.70
  -2  16  -1   12.70    8.70
   4 -16   1    8.20    7.90
   4 -16   1   17.20    8.50
  -4  16   1   38.70   10.60
  -4 -16  -1   20.30    9.30
   4 -16  -1   33.70    8.70
   4  16   1   26.60    9.30
  -4  16  -1   15.10    9.30
   4 -16  -1    6.00    8.10
  -4 -16   1   28.10    9.80
   6 -16   1    1.50    7.40
  -6 -16  -1   10.60    8.80
  -6  16   1   22.20   10.60
   6 -16   1   12.60    9.20
  -6 -16  -1    3.20    8.10
   6 -16  -1   29.20   10.30
   6  16   1   18.70    9.50
  -6  16  -1   23.00   10.30
   6 -16  -1    9.20    9.00
  -6 -16   1   10.50    8.70
  -6 -16   1   17.90   12.50
  -8 -16  -1   28.20   12.10
  -8  16   1    0.90    9.70
   8  16   1    5.30    9.50
  -8  16  -1    8.00   11.60
  -8 -16   1   11.70   10.30
   8 -16  -1    5.60   10.00
 -10  16   1   13.00   12.20
 -10 -16  -1   14.30   11.90
 -10 -16   1   28.10   12.60
 -10  16  -1   33.40   14.00
 -12 -16  -1    7.70   11.70
 -12  16   1   -0.10   11.60
 -12  16  -1    5.40   12.30
 -12 -16   1   24.50   12.80
  -1 -17  -1   72.19   12.70
   1 -17   1   59.19   12.10
  -1  17   1   68.69   12.50
   1  17  -1   97.29   13.60
   1  17   1   78.79   12.80
  -1  17  -1   53.29   11.20
   1 -17  -1   84.99   14.10
  -1 -17   1  100.89   14.70
   3 -17   1   57.29   12.20
  -3  17   1   83.09   14.40
  -3 -17  -1   61.59   12.30
   3 -17   1   70.09   12.70
   3 -17  -1   81.69   12.70
   3 -17  -1   75.29   13.60
  -3  17  -1   62.39   12.30
  -3 -17   1   78.09   14.10
   3  17   1   96.29   14.50
   5 -17   1   74.39   12.70
  -5  17   1   56.89   12.90
  -5 -17  -1   71.99   13.10
   5 -17   1   33.40   10.90
   5 -17  -1   78.59   12.40
  -5  17  -1   42.50   12.00
   5 -17  -1   68.59   13.70
  -5 -17   1   46.80   12.40
   5  17   1   66.79   12.80
  -7 -17  -1   50.49   12.30
   7 -17   1   30.60   11.80
  -7  17   1   38.70   12.90
   7 -17  -1   27.50   11.70
   7 -17  -1   43.90   11.60
  -7 -17   1   16.30   10.60
  -7  17  -1   58.39   14.40
   7  17   1   61.99   13.10
  -9 -17  -1   13.40   11.40
  -9  17   1   24.40   13.50
  -9 -17   1   20.60   12.00
  -9  17  -1   75.99   16.10
 -11  17   1   10.70   13.50
 -11 -17  -1   30.00   12.80
 -11 -17   1   25.80   12.90
 -11  17  -1   21.00   13.40
   0 -18   1    8.80    8.70
   0  18   1   23.20    9.70
   0 -18  -1   -4.20    8.10
   0  18  -1   20.70    8.80
   2 -18   1    1.80    8.90
  -2  18   1   14.00    9.60
  -2 -18  -1   12.30   10.10
   2  18  -1    6.70    8.40
   2 -18  -1   19.00   10.40
  -2 -18   1   21.00   10.20
  -2  18  -1   17.10    9.00
   2  18   1    4.80    8.10
  -4  18   1   30.60   11.00
  -4 -18  -1   16.10   10.00
   4 -18   1    0.00    8.80
   4  18   1   20.00   10.20
   4 -18  -1   22.00   11.00
  -4  18  -1   17.80   10.40
  -4 -18   1   13.80   11.10
   4 -18  -1   -2.20    8.40
   6 -18   1   -1.30   10.00
  -6 -18  -1   13.10   10.40
  -6  18   1   19.40   12.00
   6 -18   1   20.90   10.80
   6 -18  -1   15.30    9.70
  -6 -18   1    1.20   10.40
   6  18   1   12.60   10.50
  -6  18  -1   -3.60   11.10
   6 -18  -1   13.00   11.10
  -8 -18  -1   11.30   10.80
  -8  18   1   29.50   13.70
  -8  18  -1    1.70   11.40
 -10 -18  -1   29.00   12.40
 -10  18   1   17.00   12.90
 -10 -18   1  -11.50   10.20
 -10  18  -1    4.80   12.20
 -12  18   1   -2.90   13.30
 -12  18  -1   -1.50   13.80
  -1  19   1   20.00   10.20
   1  19  -1    2.90    8.20
  -1 -19  -1   -7.90    9.30
   1 -19   1    6.80    9.50
   1  19   1    5.20    9.10
  -1 -19   1   22.50   10.70
  -1  19  -1   -4.80    8.10
   1 -19  -1    2.00    9.00
   3 -19   1    2.50    9.80
  -3 -19  -1   -1.70    9.60
  -3  19   1   14.50   11.00
  -3 -19   1   -2.00    9.60
   3 -19  -1    3.50    9.90
  -3  19  -1   -8.80    8.60
   3  19   1   -1.90    8.90
  -5 -19  -1    2.70    9.90
  -5  19   1   10.60   11.60
   5 -19   1    7.60   10.30
   5  19   1   -5.50    9.20
   5 -19  -1   13.10   10.30
  -5  19  -1   11.00   10.70
  -5 -19   1    9.00   11.60
   5 -19  -1    8.80   10.80
  -7  19   1    7.50   12.40
  -7 -19   1    4.00   14.70
   7 -19  -1   -8.10   10.10
  -7  19  -1    0.10   10.60
  -9  19   1   -0.20   11.80
  -9  19  -1   22.70   12.50
 -11  19   1    9.80   12.50
 -11  19  -1    9.90   11.40
   0  20   1    5.00    9.80
   0  20  -1   -3.00    9.20
   0 -20   1   17.20   10.40
   0 -20  -1    3.40   11.00
  -2 -20  -1   10.40   11.30
   2 -20   1   -5.70    9.50
  -2  20   1    3.90    9.30
  -2  20  -1   15.50   10.00
  -2 -20   1   -7.80   10.10
   2 -20  -1    8.50   10.50
   2  20   1    3.40    9.60
  -4 -20  -1   10.70   11.00
  -4  20   1    0.70   10.70
   4 -20   1   -2.40   10.60
  -4 -20   1   -0.20   10.90
  -4  20  -1    3.20    9.90
   4  20   1   14.50   10.50
   4 -20  -1   14.50   11.80
   6 -20   1    7.80   11.30
  -6  20   1   -2.10   11.10
   6 -20  -1   -0.40   11.10
  -6  20  -1  -10.60   10.10
  -6 -20   1    6.10   11.40
  -8  20   1   17.10   12.30
  -8  20  -1   -1.30   11.10
 -10  20   1    3.10   11.30
 -10  20  -1    6.60   10.90
  -1  21   1   21.10   11.40
   1 -21   1    8.40   11.10
  -1 -21  -1    2.20   11.40
   1 -21  -1   14.20   13.00
   1  21   1   13.20   10.30
  -1  21  -1    8.00   10.20
  -1 -21   1  -14.40   10.20
  -3 -21  -1   13.70   12.00
   3 -21   1   45.80   13.30
  -3  21   1    3.30   10.30
  -3  21  -1   23.60   11.50
   3 -21  -1    2.40   11.70
   3  21   1   17.60   10.80
  -3 -21   1   24.00   12.50
   5 -21   1  -13.50   10.40
  -5  21   1   26.90   12.30
  -5 -21  -1    9.80   12.00
   5 -21  -1   -1.60   11.60
  -5 -21   1    2.10   12.20
  -5  21  -1   -1.60   10.20
  -7  21   1    7.30   12.00
  -7  21  -1   20.30   11.60
   7 -21  -1    3.30   11.10
  -9  21   1   10.40   11.10
  -9  21  -1   23.30   12.00
   0  22   1   13.30   10.90
   0 -22   1    9.10   11.70
   0 -22  -1    4.40   11.40
   2 -22   1   -6.00   11.30
  -2 -22  -1    1.00   11.70
  -2  22   1   -7.60    9.40
   2  22   1   -5.90    9.40
  -2  22  -1    3.20   10.00
   2 -22  -1   13.60   12.30
  -2 -22   1   -0.80   11.30
  -4  22   1  -10.40    9.50
   4 -22   1   22.00   12.50
  -4 -22  -1   -4.10   11.00
  -4 -22   1   16.60   12.90
   4 -22  -1    6.90   11.90
  -4  22  -1   -7.10   10.10
  -6  22   1  -11.10   10.10
   6 -22   1   -2.70   10.50
  -6 -22   1    9.80   12.20
   6 -22  -1   -1.00   10.90
  -6  22  -1    2.70   10.10
  -8  22   1    9.10   12.00
  -1 -23  -1   11.20   11.30
  -1  23   1  -20.50    9.10
   1 -23   1   44.60   14.00
  -1 -23   1    3.10   11.70
   1  23   1   -9.60    8.90
   1 -23  -1   -6.10   11.00
  -3  23   1    7.00   10.60
  -3 -23  -1    2.10   11.50
   3 -23   1   11.30   12.00
  -3 -23   1   20.50   13.20
   3 -23  -1  -13.10   10.70
   5 -23   1   -4.50   10.50
  -5 -23  -1   -1.10   11.30
  -5  23   1  -14.10    9.30
  -5 -23   1   15.90   12.60
  -5  23  -1  -21.80    8.20
   5 -23  -1  -15.00   10.30
   0 -24   1   -8.30   10.90
   0  24   1    1.40    9.70
   0 -24  -1   -0.20   11.30
  -2 -24  -1   -6.30   10.80
   2 -24   1    0.30   10.80
  -2  24   1    2.40    9.90
  -2 -24   1    8.70   11.70
   2 -24  -1   -4.70   10.20
   4 -24   1   -1.20   12.60
  -4  24   1    0.90   10.90
  -4 -24  -1   -8.10   12.50
  -4 -24   1  -12.30   10.20
   4 -24  -1   -8.30   10.60
   1 -25   1  -10.40   16.10
  -1 -25   1   11.60   16.60
   1 -25  -1   -0.50   13.40
   0   0   2 5892.51  152.48
   0   0  -2 5805.62  152.88
   2   0  -2 9670.03  250.67
  -2   0  -2 9337.67  246.98
   2   0  -2 9999.00  251.17
   2   0   2 9572.04  244.48
   4   0  -2 4852.01  139.79
   4   0   2 4855.01  131.79
   4   0  -2 5199.48  140.99
  -4   0  -2 4794.22  129.99
  -6   0  -2 2560.04   77.99
   6   0   2 2646.54   82.59
   6   0  -2 2743.73   92.19
   6   0  -2 2996.20   93.89
  -8   0  -2 2017.50   58.49
  -8   0   2 1929.61   58.39
  -8   0   2 1970.60   56.39
  -8   0  -2 1934.41   59.09
 -10   0   2  691.43   28.80
 -10   0  -2  668.93   28.20
 -10   0  -2  647.54   28.00
 -10   0   2  661.63   26.40
 -12   0   2  505.75   25.10
 -12   0   2  548.75   27.50
 -12   0  -2  490.85   26.40
  16   0   2  120.09   19.60
  -1  -1  -2  932.21   31.70
  -1   1   2  934.61   32.00
   1   1  -2  894.21   31.40
  -1   1  -2  896.41   27.80
   1   1   2  892.21   30.60
   3   1  -2  623.94   28.30
  -3  -1  -2  630.94   26.90
   3   1   2  634.24   26.20
  -3  -1   2  633.44   28.50
   3  -1  -2  654.53   28.00
   3  -1  -2  624.04   27.60
   5   1  -2  548.25   30.50
   5  -1  -2  533.65   28.80
   5  -1  -2  597.64   30.30
   5   1   2  565.14   28.40
  -7  -1  -2  351.46   16.30
  -7   1  -2  375.46   16.30
  -9   1   2  219.88   12.90
  -9   1   2  221.08   13.90
  -9  -1  -2  198.08   14.70
  -9  -1  -2  200.08   13.80
  -9  -1   2  213.68   12.80
  -9  -1   2  216.98   14.60
  -9   1  -2  209.68   14.00
 -11  -1  -2  122.79   14.30
 -11  -1  -2  119.69   13.40
 -11   1   2  117.59   12.60
 -11   1   2  160.18   14.60
 -11   1  -2  144.89   14.50
 -11  -1   2  137.09   14.60
 -11  -1   2  158.18   13.70
 -13   1   2  109.29   15.10
 -13  -1   2   89.29   14.80
 -13   1  -2   72.19   13.90
  15  -1   2   45.30   15.60
  15   1   2   62.89   16.00
  17  -1   2   68.99   19.30
   0  -2   2   11.80    4.50
   0   2   2    5.40    4.00
   0   2  -2   13.00    4.40
   2   2  -2  969.70   25.50
   4   2  -2  397.86   11.00
   6   2  -2  296.37   24.20
  -6  -2  -2  299.57   20.30
  -6  -2   2  298.37   23.90
   6  -2  -2  307.77   22.60
   6  -2  -2  318.97   23.00
   6   2   2  297.87   23.80
  -8   2   2  493.75   20.00
  -8  -2  -2  512.85   21.60
  -8  -2  -2  492.05   23.10
  -8  -2   2  521.15   22.90
  -8   2  -2  506.35   21.20
 -10  -2  -2  147.39   13.40
 -10  -2  -2  158.88   14.60
 -10   2   2  176.18   13.10
 -10   2  -2  169.38   14.40
 -10  -2   2  174.98   15.00
 -10  -2   2  182.88   12.70
 -12   2   2  214.98   17.10
 -12  -2  -2  195.78   18.40
 -12  -2   2  197.88   19.00
 -12   2  -2  214.78   18.80
 -14   2   2  143.69   18.40
 -14  -2   2  162.98   20.30
 -14   2  -2  130.89   19.30
  14   2   2  172.48   20.80
  16  -2   2   48.60   16.70
  16   2   2   76.19   14.90
   1   3  -2  364.26   11.20
   1  -3  -2  354.96   11.00
   3   3  -2  232.78    7.90
   5   3  -2  211.78   19.60
  -5  -3  -2  205.98   18.20
  -5  -3   2  227.38   19.60
   5  -3  -2  211.68   17.70
   5   3   2  216.58   21.10
   5  -3  -2  244.28   18.60
  -7  -3  -2  177.68   11.30
  -7  -3  -2  146.29   12.30
  -7  -3   2  163.38   12.00
  -7   3  -2  174.18   10.70
  -9   3   2  140.99   11.10
  -9  -3  -2  121.69   11.50
  -9  -3  -2  144.49   14.10
  -9  -3   2  121.89   13.40
  -9  -3   2  136.89   13.70
  -9   3  -2  122.99   11.60
 -11   3   2  105.09   12.40
 -11  -3  -2   86.79   13.50
  11   3   2   94.59   13.60
 -11  -3   2   90.49   13.90
 -11   3  -2   87.09   12.80
 -13  -3  -2   48.70   12.60
 -13   3   2   66.99   12.90
 -13  -3   2   64.29   14.70
 -13   3  -2   83.99   15.10
  13   3   2   70.69   14.00
 -15   3  -2   39.30   13.70
 -15  -3   2   19.60   12.40
  15   3   2   31.40   13.10
  17  -3   2  -13.70   18.30
   0  -4  -2 4191.88  106.89
  -2  -4  -2 6143.39  177.38
   2   4  -2 5982.10  170.38
   2  -4   2 6143.39  158.18
  -2   4   2 6232.18  170.18
   2   4   2 6328.37  176.88
  -2   4  -2 6047.00  161.08
   2  -4  -2 6093.19  168.68
  -2  -4   2 6024.40  170.18
  -4  -4  -2 3296.37  108.99
   4   4  -2 3360.06  107.59
  -4   4   2 3229.38  100.69
   4  -4  -2 3394.06  102.29
  -4  -4   2 3375.46  106.99
   4   4   2 3406.36  111.79
   6   4  -2 1952.00   78.19
  -6  -4  -2 1964.40   74.59
   6   4   2 1966.40   79.89
   6  -4  -2 1972.10   70.29
   6  -4  -2 1915.51   69.99
  -8  -4  -2 1377.46   49.20
  -8   4   2 1434.56   44.70
  -8  -4   2 1445.96   48.60
  -8   4  -2 1438.66   45.30
   8   4   2 1435.86   45.50
 -10   4   2  509.35   23.30
 -10  -4  -2  506.85   27.30
 -10  -4   2  482.05   26.70
 -10   4  -2  484.55   24.10
  10   4   2  516.55   24.40
 -12   4   2  381.46   23.20
 -12  -4  -2  401.16   26.80
  12   4   2  402.16   24.30
 -12   4  -2  401.26   24.40
 -12  -4   2  399.66   27.00
 -14  -4  -2  201.48   22.80
 -14   4   2  226.58   20.80
  14   4   2  174.88   20.80
 -14  -4   2  237.98   25.50
 -14   4  -2  199.78   22.70
  16   4   2   95.99   14.90
  -1  -5  -2 1063.79   30.30
   1  -5  -2 1042.50   29.80
  -3   5   2  777.72   36.20
   3   5  -2  781.72   38.80
   3  -5   2  769.42   25.20
  -3  -5  -2  804.22   42.80
  -3   5  -2  791.32   25.90
   3   5   2  832.72   43.50
   3  -5  -2  796.22   36.00
  -5  -5  -2  602.54   37.80
  -5   5   2  619.74   32.30
   5   5  -2  642.14   38.70
   5   5   2  649.74   41.60
   5  -5  -2  695.93   34.20
  -7   5   2  437.66   18.60
  -7  -5  -2  419.76   21.70
  -7   5  -2  407.66   18.50
  -7  -5   2  401.96   20.30
   7   5   2  404.06   18.20
  -9   5   2  248.08   15.60
  -9  -5  -2  241.68   18.70
  -9  -5   2  219.48   17.80
  -9   5  -2  239.18   15.90
   9   5   2  240.88   15.60
 -11   5   2  159.88   15.40
 -11  -5  -2  164.88   17.90
 -11  -5   2  157.28   18.70
 -11   5  -2  148.29   15.60
  11   5   2  165.28   15.70
 -13   5   2  102.09   14.90
 -13  -5  -2   67.49   15.50
 -13   5  -2   70.99   15.30
 -13  -5   2   77.09   16.20
  13   5   2   88.79   14.70
 -15  -5  -2   45.00   14.80
 -15   5   2   28.30   13.00
  15   5   2   37.80   12.30
 -15  -5   2   31.20   14.80
 -15   5  -2   38.60   14.20
   0  -6  -2  114.19    6.90
  -2  -6  -2  648.54   20.90
   4   6  -2  323.87   26.50
  -4  -6  -2  291.37   27.50
  -4   6   2  350.86   23.60
   4  -6  -2  325.57   23.50
   4   6   2  323.27   29.70
  -6  -6  -2  216.28   14.90
  -6   6   2  228.08   13.00
  -6   6  -2  244.68   13.40
   6   6   2  248.58   13.30
  -6  -6   2  245.08   15.20
  -8   6   2  330.27   17.50
  -8  -6  -2  366.06   22.10
  -8  -6   2  340.77   20.60
  -8   6  -2  325.47   18.10
   8   6   2  344.07   17.90
 -10   6   2  153.48   14.70
 -10  -6  -2  111.29   15.60
  10   6   2  117.89   13.10
 -10   6  -2  129.79   14.00
 -10  -6   2  142.39   17.50
 -12  -6  -2  151.48   20.30
 -12   6   2  154.78   16.30
  12   6   2  161.08   17.60
 -12  -6   2  133.79   19.60
 -12   6  -2  115.39   16.30
 -14  -6  -2  121.29   20.00
 -14   6   2   86.89   15.40
 -14  -6   2  111.49   20.60
 -14   6  -2  119.69   18.80
  14   6   2  108.19   16.30
 -16  -6  -2   50.79   15.60
 -16  -6   2   42.80   16.20
 -16   6  -2   71.79   15.80
  16   6   2   52.39   13.60
  -1  -7  -2   62.29    6.10
  -1  -7   2   69.39    6.30
   1  -7  -2   60.89    5.60
  -3  -7  -2   54.49    5.70
  -5   7   2   49.30    9.20
  -5  -7  -2   49.30    8.50
  -7  -7  -2   50.89    9.90
  -7   7   2   42.00    7.60
  -7   7   2   55.59    8.60
  -7   7  -2   41.40    7.70
   7   7   2   58.89    8.50
  -7  -7   2   44.90    8.90
  -9   7   2   34.40    8.50
  -9  -7  -2   44.90   10.70
  -9  -7   2   33.50    9.60
  -9   7  -2   59.49   10.90
   9   7   2   29.30    8.00
 -11   7   2   50.99   11.00
 -11  -7  -2   37.00   11.90
 -11   7  -2   53.59   11.40
 -11  -7   2   37.30   12.70
  11   7   2   40.00    9.80
 -13  -7  -2   58.09   15.90
 -13   7   2   47.00   12.90
 -13   7  -2   31.00   12.70
  13   7   2   30.20   11.60
 -13  -7   2   45.30   15.50
 -15  -7  -2    2.40   13.20
 -15   7   2   28.10   12.80
 -15  -7   2    8.10   14.70
 -15   7  -2   18.00   13.50
  15   7   2   18.90   12.20
   0  -8  -2 1401.06   41.90
   0  -8   2 1457.25   42.50
  -2  -8  -2 1969.80   54.69
   2  -8  -2 1901.01   53.89
  -4   8   2 1258.57   56.49
   4   8  -2 1216.78   62.79
   4   8   2 1285.07   66.99
   4  -8  -2 1270.17   57.79
  -6   8   2  774.62   28.90
  -6   8   2  751.82   28.20
  -6  -8  -2  770.12   31.20
  -6   8  -2  759.42   28.70
  -6  -8   2  735.43   30.10
  -6  -8   2  744.03   27.30
   6   8   2  754.72   28.00
  -8  -8  -2  662.93   31.20
  -8   8   2  636.04   27.70
   8   8   2  658.93   27.00
  -8  -8   2  640.64   30.70
  -8   8  -2  639.64   27.80
 -10   8   2  266.87   19.10
 -10  -8  -2  255.57   22.80
 -10   8  -2  238.88   19.20
  10   8   2  223.28   17.00
 -10  -8   2  214.28   20.80
 -12  -8  -2  224.68   24.30
 -12   8   2  188.58   19.30
 -12   8  -2  181.98   20.10
 -12  -8   2  198.98   23.30
  12   8   2  188.28   19.20
 -14  -8  -2   87.59   18.80
 -14   8   2  137.69   18.60
  14   8   2   80.59   15.40
 -14  -8   2  132.59   21.70
 -14   8  -2  152.38   20.70
 -16  -8  -2   63.69   16.90
 -16  -8   2   50.59   16.50
 -16   8  -2   75.69   16.10
  -1  -9  -2  604.64   22.30
   1  -9  -2  607.54   21.50
  -1  -9   2  593.64   21.40
  -3   9   2  510.25   21.40
  -5  -9  -2  364.96   19.60
  -5   9   2  356.96   18.70
  -5   9  -2  410.36   19.10
  -5  -9   2  402.56   19.10
   5   9   2  413.06   18.60
  -5  -9   2  362.16   19.30
  -7   9   2  277.97   17.20
  -7  -9  -2  264.27   19.00
  -7   9   2  281.27   16.80
   7   9   2  260.37   16.20
  -7  -9   2  273.47   18.80
  -7  -9   2  261.27   15.50
  -7   9  -2  254.87   16.90
  -9   9   2  172.28   16.10
  -9  -9  -2  136.29   16.90
  -9   9  -2  149.09   15.50
   9   9   2  158.58   15.10
  -9  -9   2  167.38   17.80
 -11  -9  -2   55.89   14.40
 -11   9   2   98.79   14.80
 -11  -9   2   87.99   16.10
  11   9   2   70.59   12.60
 -11   9  -2   99.89   15.70
 -13  -9  -2   26.00   14.20
 -13   9   2   57.79   13.80
  13   9   2   21.60   11.80
 -13   9  -2   52.89   15.00
 -13  -9   2   52.79   16.50
 -15  -9  -2   41.40   15.80
 -15   9   2   56.09   14.50
 -15   9  -2   27.90   14.40
 -15  -9   2   31.00   15.80
   0 -10   2  166.38   12.40
   0  10   2  172.58   12.00
   0 -10   2  175.78   11.50
   0 -10  -2  155.58   12.30
   0 -10  -2  160.98   10.70
  -2  10   2  294.47   16.10
  -2  10   2  309.67   16.40
   2 -10   2  328.07   18.40
  -2 -10  -2  318.97   15.30
   2 -10  -2  315.87   14.90
   2  10   2  322.87   16.40
  -2 -10   2  293.57   17.00
  -4  10   2  180.08   13.20
  -4  10   2  189.58   13.50
  -4 -10  -2  175.08   15.40
  -4 -10  -2  214.98   14.30
   4 -10   2  203.98   13.70
  -4 -10   2  204.08   14.30
  -4 -10   2  195.78   13.50
   4  10   2  185.08   13.10
  -4  10  -2  186.68   13.10
  -6  10   2  149.99   13.00
  -6  10   2  112.39   12.20
  -6 -10  -2  165.58   14.30
  -6 -10   2  125.09   11.90
   6  10   2  144.79   12.20
  -6  10  -2  140.99   13.10
  -6 -10   2  142.49   13.30
  -8 -10  -2  158.68   17.00
  -8  10   2  172.48   16.40
  -8  10  -2  192.48   16.40
   8  10   2  173.28   14.80
  -8 -10   2  203.08   18.10
 -10  10   2   71.09   13.00
 -10 -10  -2   82.29   15.00
  10  10   2   76.69   12.60
 -10 -10   2   65.29   14.60
 -10  10  -2   73.09   13.90
 -12 -10  -2   83.59   17.50
 -12  10   2   92.19   15.50
  12  10   2   62.19   13.70
 -12 -10   2   90.09   17.80
 -12  10  -2   71.59   14.70
 -14 -10  -2   77.49   18.90
 -14  10   2   69.69   16.10
 -14  10  -2   74.79   16.90
  14  10   2   28.20   12.00
 -14 -10   2   37.70   16.70
   1 -11   2    9.10    5.30
   1 -11   2    5.40    4.90
  -1 -11  -2   12.10    4.90
  -1 -11  -2    6.40    5.80
  -1  11   2    7.90    5.00
  -1 -11   2   10.00    5.50
   1 -11  -2   14.60    6.00
   1 -11  -2   10.50    5.00
   1  11   2    2.40    5.00
  -3 -11  -2   13.00    5.20
  -3 -11  -2    6.40    5.80
  -3  11   2   16.20    6.20
  -3  11   2    4.50    4.80
   3 -11   2    5.60    5.60
  -3  11  -2   -2.90    4.60
  -3 -11   2    8.20    5.50
   3 -11  -2   10.00    4.90
   3  11   2    7.50    5.40
   5 -11   2    8.20    5.70
  -5  11   2   11.40    6.40
  -5 -11  -2   10.80    6.40
  -5  11   2   13.00    6.50
  -5 -11  -2    5.70    6.30
  -5 -11   2    6.60    6.00
   5  11   2   15.60    6.80
  -5  11  -2    7.30    6.20
  -5 -11   2    7.90    6.20
  -7  11   2   13.10    7.50
  -7 -11  -2   16.00    8.20
   7  11   2   27.10    8.10
  -7  11  -2   17.90    8.10
  -7 -11   2   12.10    6.70
  -7 -11   2   23.80    8.80
  -9  11   2   20.80    9.60
  -9 -11  -2   27.10   11.50
   9  11   2   18.80    8.80
  -9 -11   2   14.80    9.90
  -9  11  -2    5.50    8.60
 -11 -11  -2   18.20   11.10
 -11  11   2   22.10   11.10
 -11 -11   2   12.30   11.40
  11  11   2   20.10   10.60
 -11  11  -2   13.40   10.40
 -13 -11  -2    7.60   13.10
 -13  11   2   -9.20   10.20
 -13  11  -2   19.60   13.20
  13  11   2   12.60   10.90
 -13 -11   2   -0.30   13.50
 -15 -11  -2   20.70   14.30
 -15  11   2   -4.50   10.90
 -15 -11   2   19.70   15.20
 -15  11  -2   11.70   13.20
   0 -12   2  272.87   17.20
   0 -12  -2  265.07   17.20
   0 -12  -2  305.17   16.00
   0  12  -2  282.67   15.80
   0  12   2  282.27   17.10
   2 -12   2  405.26   20.40
  -2 -12  -2  395.66   20.80
  -2  12   2  398.76   20.40
  -2 -12   2  414.76   22.20
   2 -12  -2  412.36   18.50
   2  12   2  376.66   20.00
   2 -12  -2  399.06   21.30
  -2  12  -2  386.16   20.00
  -4 -12  -2  295.17   17.20
   4 -12   2  291.87   16.90
  -4 -12  -2  260.37   16.20
  -4  12   2  278.07   17.50
   4  12   2  265.67   17.10
   4 -12  -2  218.78   14.70
  -4 -12   2  244.78   17.60
  -4  12  -2  279.67   17.60
  -4 -12   2  266.17   16.40
  -6  12   2  170.68   15.60
  -6 -12  -2  194.48   16.70
   6  12   2  189.78   15.60
  -6 -12   2  179.68   15.20
  -6 -12   2  199.18   16.50
  -6  12  -2  167.68   16.40
  -8  12   2  186.58   18.00
  -8 -12  -2  156.68   18.30
   8  12   2  172.28   16.20
  -8 -12   2  195.98   19.30
   8 -12  -2  174.68   17.20
  -8  12  -2  132.59   16.30
 -10 -12  -2   83.09   16.00
 -10  12   2   96.19   15.60
 -10 -12   2   69.89   15.60
 -10  12  -2   84.79   15.70
  10  12   2   73.19   13.70
 -12  12   2   69.09   15.30
 -12 -12  -2   69.59   17.30
 -12 -12   2   69.39   17.80
  12  12   2   48.80   13.40
 -12  12  -2   78.99   16.30
 -14  12   2   29.00   13.20
 -14 -12  -2   42.30   16.30
 -14  12  -2   67.29   16.60
 -14 -12   2   33.40   15.90
   1 -13   2  258.37   16.00
   1  13  -2  229.68   14.70
  -1 -13  -2  193.18   15.80
  -1 -13  -2  244.48   15.80
  -1  13   2  186.38   15.30
   1 -13   2  210.48   15.90
  -1  13  -2  234.68   15.20
  -1 -13   2  230.68   16.30
   1  13   2  176.68   15.10
   1 -13  -2  238.08   15.00
   1 -13  -2  226.78   16.50
  -3 -13  -2  181.18   15.00
   3 -13   2  170.38   14.80
  -3 -13  -2  168.38   13.80
  -3  13   2  197.08   15.80
   3  13   2  201.58   15.40
  -3  13  -2  188.48   15.00
  -3 -13   2  218.68   16.70
   3 -13  -2  181.48   16.00
   3 -13  -2  215.48   13.80
  -5  13   2  126.49   14.00
  -5 -13  -2  118.49   13.30
  -5 -13  -2  145.49   14.50
   5 -13   2  144.59   13.80
  -5  13  -2  131.99   14.30
   5 -13  -2  132.99   15.60
   5 -13  -2  165.28   13.70
  -5 -13   2  155.58   14.60
   5  13   2  133.39   14.10
  -5 -13   2  129.89   14.80
  -7 -13  -2  101.19   14.40
  -7  13   2   91.09   14.10
  -7 -13   2   76.09   12.60
  -7  13  -2   84.49   14.00
   7 -13  -2   86.69   13.80
   7  13   2  110.49   15.40
  -7 -13   2  100.89   14.50
  -9  13   2   65.49   13.90
  -9 -13  -2   63.89   13.90
   9  13   2   67.69   13.30
  -9 -13   2   38.60   12.60
  -9  13  -2   70.89   14.10
 -11 -13  -2   33.80   14.00
 -11  13   2   37.40   13.60
 -11 -13   2   41.10   14.30
 -11  13  -2   37.30   13.90
  11  13   2   16.10   11.40
 -13 -13  -2    3.10   13.40
 -13  13   2    5.60   12.50
 -13  13  -2   42.80   14.70
 -13 -13   2   28.20   14.90
   0 -14  -2   87.59   12.20
   0 -14   2   91.79   12.30
   0  14   2   84.89   12.70
   0  14  -2  110.59   12.30
   0 -14  -2   89.29   12.90
   2 -14   2  119.19   13.40
  -2  14   2  135.29   14.10
  -2 -14  -2  106.99   12.90
   2 -14   2  125.09   14.00
   2 -14  -2  132.49   15.40
  -2 -14   2  144.09   14.90
   2 -14  -2  139.69   13.00
  -2  14  -2  123.89   12.90
   2  14   2  111.09   12.70
  -4  14   2   71.49   12.20
  -4 -14  -2   83.59   12.60
  -4 -14  -2   73.79   11.20
   4 -14   2   82.49   11.90
   4 -14  -2   87.19   11.00
   4  14   2   68.09   11.40
  -4 -14   2   98.29   14.30
   4 -14  -2   90.99   13.70
  -4  14  -2   89.49   13.10
   6 -14   2   62.79   12.10
  -6  14   2   57.19   12.20
  -6 -14  -2   61.09   11.70
  -6 -14   2   69.59   12.30
   6 -14  -2   67.19   13.20
   6  14   2   60.39   11.90
  -6  14  -2   89.09   14.50
  -6 -14   2   64.99   12.30
   6 -14  -2   87.59   12.40
  -8  14   2   58.39   13.80
  -8 -14  -2   50.69   12.60
   8 -14  -2   72.79   13.30
  -8  14  -2   67.59   14.10
   8  14   2   96.19   15.10
  -8 -14   2   59.19   12.50
   8 -14  -2   60.59   11.40
 -10 -14  -2   28.50   13.00
 -10  14   2   30.10   13.00
 -10  14  -2   11.90   12.20
  10  14   2   16.00   11.50
 -10 -14   2    6.90   11.30
 -12 -14  -2   42.40   14.60
 -12  14   2   22.50   13.40
 -12  14  -2   10.40   12.30
  12  14   2   18.50   18.60
 -12 -14   2   47.40   15.20
 -14 -14  -2   45.90   14.40
 -14  14   2   17.40   13.10
 -14  14  -2   46.00   15.10
 -14 -14   2    3.20   12.50
  -1  15   2    5.50    7.20
  -1 -15  -2    1.00    6.70
   1 -15   2    5.60    7.20
  -1  15  -2    4.20    6.60
   1 -15  -2   -4.20    5.60
   1 -15  -2   10.40    7.80
   1  15   2    0.00    6.60
  -1 -15   2    1.40    6.90
   3 -15   2   -0.10    6.80
   3 -15   2    3.60    7.10
  -3  15   2    3.10    7.00
  -3 -15  -2   -1.30    6.50
   3 -15  -2   12.00    8.90
  -3  15  -2   -6.20    6.40
   3 -15  -2    0.70    5.80
   3  15   2   -3.90    6.30
  -3 -15   2    3.60    6.90
  -5 -15  -2   -0.20    6.90
   5 -15   2    1.60    7.50
  -5  15   2    1.20    7.50
  -5 -15  -2    2.10    7.10
  -5  15  -2    3.90    8.00
  -5 -15   2    2.50    7.80
   5 -15  -2    7.70    8.90
   5 -15  -2    5.70    6.40
   5  15   2   -0.60    7.50
  -7 -15  -2   -3.60    8.50
  -7  15   2    4.80    8.60
   7 -15  -2   11.00    8.40
   7 -15  -2    5.30    9.30
  -7 -15   2    4.20    8.50
  -7  15  -2    3.20    9.30
  -7 -15   2    3.30    8.50
   7  15   2   -4.10    8.20
  -9  15   2   11.50   11.90
  -9 -15  -2    3.10   10.40
   9 -15  -2    2.60    9.20
  -9 -15   2    5.00   10.10
   9  15   2    3.10   10.30
  -9  15  -2   29.10   12.70
 -11  15   2   -2.20   12.30
 -11 -15  -2    8.80   12.10
 -11  15  -2   24.40   13.10
  11  15   2   22.50   12.20
 -11 -15   2   -9.10   11.00
 -13  15   2    1.20   11.40
 -13 -15  -2    4.30   12.60
 -13 -15   2    3.10   12.10
 -13  15  -2  -18.30   10.80
   0 -16   2   39.40    9.80
   0 -16  -2   33.20    9.90
   0  16   2   24.70    8.90
   0  16  -2   51.79   10.10
  -2 -16  -2   44.10   10.10
  -2  16   2   40.60   10.50
   2 -16   2   34.90   10.00
   2 -16  -2   54.89   11.90
  -2  16  -2   36.50   10.00
   2 -16  -2   59.79   10.70
  -2 -16   2   45.50   11.00
   2  16   2   32.50    9.20
   4 -16   2   27.00   10.00
  -4 -16  -2   33.80   10.10
   4 -16   2   34.60   10.20
  -4  16   2   38.60   11.50
   4  16   2   38.90   10.60
  -4 -16   2   45.70   11.40
   4 -16  -2   39.10    9.50
   4 -16  -2   20.30   10.80
  -4  16  -2   62.89   11.70
  -6 -16  -2   27.10   10.00
   6 -16   2   40.80   10.40
   6 -16   2   19.40   10.10
  -6  16   2    5.60    9.20
  -6  16  -2   50.59   12.90
   6  16   2   29.40   11.00
   6 -16  -2   22.70    8.70
  -6 -16   2   25.80   10.50
   6 -16  -2   25.90   11.60
  -8 -16  -2   34.10   12.10
  -8  16   2   35.10   12.70
  -8  16  -2   16.80   12.10
   8 -16  -2   26.70   11.50
   8  16   2   42.60   12.70
  -8 -16   2   26.10   11.80
   8 -16  -2   30.50   10.70
 -10 -16  -2   13.30   11.90
 -10  16   2   -6.90   11.70
 -10 -16   2    7.10   11.50
 -10  16  -2    8.00   13.00
  10  16   2    9.90   11.60
 -12 -16  -2   14.50   12.30
 -12  16   2   37.90   13.90
 -12  16  -2   18.90   12.80
 -12 -16   2   21.60   12.70
  -1 -17  -2   45.90   11.20
  -1  17   2   34.00   10.60
   1 -17   2   34.90   10.40
   1 -17  -2   58.89   12.70
  -1  17  -2   46.50   10.90
   1  17   2   28.50    9.90
  -1 -17   2   47.40   11.60
  -3  17   2   47.20   11.80
   3 -17   2   54.29   12.00
  -3 -17  -2   53.89   12.30
   3 -17  -2   32.00   11.10
   3  17   2   47.10   12.10
  -3 -17   2   41.20   11.50
  -3  17  -2   31.40   10.40
   3 -17  -2   48.00   10.70
  -5 -17  -2   46.00   11.50
   5 -17   2   50.69   11.80
  -5  17   2   17.70   10.60
   5 -17   2   29.30   10.60
   5  17   2   18.90   10.00
   5 -17  -2   19.60   10.90
   5 -17  -2   41.90   10.50
  -5 -17   2   26.70   10.80
  -5  17  -2   32.70   11.30
  -7  17   2   17.70   11.50
  -7 -17  -2   30.30   11.40
   7 -17   2    5.60   10.20
   7 -17  -2   19.80   11.00
  -7 -17   2   24.10   11.30
   7  17   2   39.20   12.00
   7 -17  -2   14.40    9.90
  -7  17  -2   20.80   12.20
  -9  17   2   10.10   12.90
  -9 -17  -2    9.00   11.20
  -9 -17   2   19.30   11.90
  -9  17  -2   39.80   13.90
   9  17   2    6.50   10.70
 -11 -17  -2    6.10   11.50
 -11  17   2   -9.80   12.10
 -11  17  -2   12.00   13.00
 -11 -17   2   10.10   11.30
   0 -18  -2   28.90   11.00
   0  18   2   27.80   10.40
   0 -18   2   27.70   10.70
  -2 -18  -2   26.10   10.70
  -2  18   2   28.70   10.70
   2 -18   2   25.80   10.40
  -2 -18   2   20.30   10.10
   2 -18  -2   26.70   10.40
  -2  18  -2   46.70   11.10
   2  18   2   33.60   10.90
   4 -18   2   25.50   10.90
  -4 -18  -2   30.60   11.20
  -4  18   2   32.50   11.90
  -4 -18   2   24.20   11.50
   4  18   2   25.10   11.60
  -4  18  -2   32.50   11.40
   4 -18  -2   38.30   10.90
   4 -18  -2   35.40   12.40
   6 -18   2   16.60   10.80
   6 -18   2   10.10   10.10
  -6  18   2   -8.30    9.20
   6 -18  -2   15.60   10.30
  -6  18  -2   25.20   11.40
   6  18   2   24.60   11.60
   6 -18  -2   10.90   11.20
  -6 -18   2    9.50   11.30
  -8 -18  -2   14.00   11.00
  -8  18   2   45.60   15.10
   8 -18  -2   -4.00   10.20
   8  18   2   26.70   11.70
  -8  18  -2   -2.40   11.20
 -10 -18  -2    2.90   11.10
 -10  18   2    4.70   12.60
 -10  18  -2   -3.20   11.30
 -10 -18   2    5.20   11.00
  -1 -19  -2    2.40    9.50
   1 -19   2   -2.00    9.50
  -1  19   2    7.70    9.60
   1  19   2    8.80    9.50
   1 -19  -2  -10.90    8.00
  -1 -19   2   -5.20    8.90
  -3  19   2   -1.60    9.40
   3 -19   2    4.00    9.80
  -3 -19  -2    3.90    9.60
  -3 -19   2  -10.70    9.90
  -3  19  -2  -11.60    8.40
   3  19   2   -9.30    8.70
   3 -19  -2    0.60   10.60
  -5  19   2   12.10   11.50
   5 -19   2   10.80   10.80
  -5 -19  -2   -1.80    9.60
  -5  19  -2   -2.50   10.10
  -5 -19   2   -0.20   11.00
   5  19   2    0.00   10.40
   5 -19  -2    2.60   10.80
   5 -19  -2   -0.10    9.50
  -7  19   2   17.80   12.90
   7 -19  -2    8.10   11.60
   7  19   2   -0.70   10.70
  -7 -19   2    5.20   11.00
  -7  19  -2   -0.50   11.00
  -9  19   2   18.50   13.60
  -9 -19  -2   -7.60   13.70
  -9  19  -2    3.20   11.40
 -11  19   2  -13.90   11.50
   0 -20   2    9.40    9.70
   0  20   2    0.80    9.60
   0 -20  -2    2.10    9.80
   2 -20   2   -2.40    9.90
  -2  20   2    3.80   10.80
  -2 -20  -2   -0.30    9.90
  -2  20  -2   22.60   15.40
   2  20   2   -3.00    9.90
   2 -20  -2   -0.10    9.60
  -2 -20   2    4.60   11.00
  -4 -20  -2   -3.50    9.90
  -4  20   2   -8.30   10.40
   4 -20   2   -3.00   10.70
  -4  20  -2   32.00   11.80
   4  20   2    9.40   10.80
  -4 -20   2  -12.20   10.00
   4 -20  -2   -6.80   10.30
   6 -20   2  -14.90    9.90
  -6  20   2   -7.20   11.00
   6  20   2    3.40   11.20
  -6 -20   2   -7.00   11.20
  -6  20  -2   15.60   11.20
   6 -20  -2    1.40   10.70
  -8  20   2    3.70   12.10
  -8  20  -2   16.00   11.30
 -10  20   2    6.20   11.30
   1 -21   2   15.40   12.00
  -1 -21  -2    4.20   11.20
  -1  21   2   30.50   12.60
   1  21   2   -9.10    9.00
  -1 -21   2   -6.50   10.40
   1 -21  -2   12.80   12.20
   3 -21   2    9.20   11.30
  -3 -21  -2    1.70   11.60
  -3  21   2    4.80   11.00
  -3 -21   2    2.00   12.10
   3 -21  -2    4.10   11.90
   3  21   2   -0.50   10.40
  -5 -21  -2   22.80   12.20
  -5  21   2   -6.80   10.50
   5 -21   2   -1.90   10.90
   5  21   2    5.80   10.50
  -5  21  -2   -6.60   10.20
  -5 -21   2    4.60   11.90
   5 -21  -2    0.60   11.80
  -7  21   2   -3.60   10.90
  -7  21  -2    1.80    9.80
   7 -21  -2   20.80   12.50
  -7 -21   2    0.10   12.40
  -9  21   2    9.70   11.80
   0 -22   2   18.30   12.30
   0 -22  -2    8.10   11.60
   0  22   2   19.40   11.40
  -2  22   2    1.10   10.50
  -2 -22  -2   14.10   12.10
   2 -22   2    5.50   12.10
   2 -22  -2  -12.70   11.00
  -2 -22   2    0.50   11.80
   2  22   2   15.70   11.00
  -4 -22  -2   -0.10   11.50
   4 -22   2    9.90   11.50
  -4  22   2    0.00   10.90
  -4 -22   2    1.40   11.90
   4 -22  -2    5.50   12.40
   4  22   2    9.10   10.50
  -6  22   2   -2.10   11.50
   6 -22  -2   -7.70   11.30
  -6  22  -2   -0.80    9.40
  -6 -22   2  -19.60   10.30
  -8  22   2   -3.60   14.10
  -1  23   2    8.80   10.60
   1 -23   2   -2.80   11.20
  -1 -23  -2   -5.20   11.60
   1 -23  -2  -10.80   11.00
   1  23   2   -5.20   10.00
  -1 -23   2   -3.90   11.50
   3 -23   2    5.10   10.90
  -3 -23  -2    4.60   12.20
  -3  23   2    0.70   10.10
   3  23   2    6.70    9.80
  -3 -23   2  -12.00   11.20
   3 -23  -2   17.20   12.40
  -5  23   2   -4.90   10.20
   5 -23   2   -5.10   10.10
  -5 -23   2   -4.70   10.70
   5 -23  -2   15.70   12.30
   0 -24   2   33.60   12.60
   0  24   2   11.10   10.10
   0 -24  -2    6.20   12.20
   2 -24   2   -8.80   10.50
  -2  24   2    9.10    9.70
  -2 -24  -2   17.30   12.50
   2 -24  -2    0.20   11.20
   2  24   2  -11.30    8.70
  -2 -24   2    7.10   11.70
  -4  24   2   16.30   12.50
   4 -24  -2   -4.80   10.80
  -4 -24   2   -4.50   11.30
   0   0  -3 2568.84   65.79
   2   0  -3 2051.69   51.59
   4   0   3 1517.45   47.70
   4   0  -3 1581.74   58.79
   4   0  -3 1680.43   60.19
  -4   0  -3 1613.74   49.90
   6   0   3 1093.49   37.30
   6   0  -3 1158.88   52.09
  -8   0   3  628.44   25.40
  -8   0  -3  633.24   25.00
  -8   0  -3  620.04   25.40
 -10   0  -3  326.27   19.40
 -10   0   3  332.57   19.90
 -10   0  -3  329.87   19.80
 -12   0  -3  150.48   16.20
 -12   0   3  162.18   17.10
  14   0   3  107.99   18.50
  16   0   3   37.00   15.50
   1   1  -3 2650.33   67.19
  -1  -1  -3 2620.44   67.89
   1  -1  -3 2643.64   66.89
   3  -1   3 3642.44   91.29
   3   1  -3 3589.24  105.09
   3   1  -3 3454.55  104.09
  -3  -1  -3 3027.80  101.09
  -3   1  -3 3342.07   94.19
   3   1   3 3367.06   97.19
   3  -1  -3 3509.55  104.19
   3  -1  -3 3643.44  104.99
   5   1  -3 1138.09   49.99
   5   1  -3 1244.18   51.59
   5   1   3 1092.89   41.40
   5  -1  -3 1136.29   49.10
   5  -1  -3 1174.98   49.90
  -7  -1  -3 1344.57   42.70
  -7   1  -3 1381.66   42.30
  -7  -1   3 1328.37   43.10
  -9  -1  -3  649.54   27.10
  -9   1   3  648.44   24.60
  -9   1   3  643.54   27.00
  -9  -1  -3  665.13   28.10
  -9   1  -3  676.23   27.20
  -9  -1   3  654.43   28.10
 -11   1   3  261.97   18.60
 -11  -1  -3  327.67   20.50
 -11  -1  -3  286.37   19.20
 -11   1  -3  316.27   20.70
 -11  -1   3  288.47   20.40
 -13  -1   3  335.27   23.60
  13   1   3  313.27   25.10
 -13   1  -3  343.27   24.30
  15  -1   3  102.19   18.30
  15   1   3  142.69   20.70
   0  -2  -3   25.30    3.00
   0   2  -3   30.70    3.00
   2   2  -3    7.90    1.60
   4   2  -3   13.30    1.80
   6   2  -3   32.90    2.60
  -8  -2  -3   49.90    9.20
  -8   2   3   41.80    7.30
  -8   2   3   39.20    6.60
  -8  -2  -3   41.70    7.50
  -8   2  -3   41.10    7.40
  -8  -2   3   39.50    7.80
 -10  -2  -3   32.00    8.30
 -10   2   3   54.99    8.60
 -10  -2  -3   55.29   10.80
 -10   2   3   46.80    8.90
 -10   2  -3   46.80    9.30
 -10  -2   3   39.70    9.50
 -12  -2  -3   32.40   10.70
  12   2   3   70.79   13.50
 -12   2  -3   43.40   11.70
 -12  -2   3   53.49   12.50
 -14  -2   3   54.79   14.10
  14   2   3   39.30   14.40
 -14   2  -3   31.50   12.50
  16  -2   3   29.50   15.80
  16   2   3   29.20   12.60
   1   3  -3 1207.78   33.00
  -1  -3  -3 1234.08   33.70
   1  -3  -3 1220.38   32.80
   3   3  -3 2007.60   52.09
   5   3  -3  577.34   16.90
  -7  -3  -3  835.52   32.40
  -7  -3   3  832.02   30.90
  -7   3  -3  817.12   28.70
  -9   3   3  466.55   20.20
  -9  -3  -3  443.56   24.20
  -9  -3   3  437.26   23.60
  -9   3  -3  455.65   21.90
 -11   3   3  212.58   16.00
 -11  -3  -3  212.08   19.20
 -11  -3   3  228.18   19.80
  11   3   3  250.07   19.00
 -11   3  -3  240.88   18.10
 -13  -3  -3  254.17   23.10
  13   3   3  217.78   21.90
 -13  -3   3  299.37   24.50
 -13   3  -3  257.37   22.80
 -15  -3   3  102.69   17.70
  15   3   3   78.59   16.00
   0  -4  -3 1786.12   47.30
   0   4  -3 1738.43   47.10
   2   4  -3 1446.46   39.30
  -2  -4  -3 1475.95   40.30
   2  -4  -3 1437.36   38.50
   4   4  -3 1092.39   30.40
  -6  -4  -3  774.92   31.40
  -6   4  -3  825.12   28.90
   6   4   3  813.92   28.10
  -6  -4   3  822.92   29.90
  -8  -4  -3  431.86   23.30
  -8   4   3  462.05   19.70
  -8   4  -3  431.36   20.00
   8   4   3  487.35   21.20
  -8  -4   3  420.96   22.10
 -10   4   3  292.77   17.10
 -10  -4  -3  255.67   20.30
 -10   4  -3  278.77   18.80
 -10  -4   3  288.37   20.70
  10   4   3  267.87   18.00
 -12  -4  -3  128.69   17.70
 -12   4   3  171.08   16.40
 -12  -4   3  146.29   18.20
 -12   4  -3  141.89   17.30
  12   4   3  144.89   16.40
 -14  -4  -3   63.29   15.80
 -14   4  -3   58.09   14.60
  14   4   3   65.49   14.40
 -14  -4   3   53.29   15.40
  16   4   3   38.40   13.10
 -16  -4   3   30.50   16.80
  -1  -5  -3 2452.05   63.59
   1  -5  -3 2306.57   62.79
  -3  -5  -3 3017.80   79.59
  -5   5   3 1137.89   50.69
   5   5  -3 1182.28   56.39
  -5  -5  -3 1085.89   55.49
   5  -5  -3 1153.38   51.49
   5   5   3 1179.08   57.29
  -7   5   3 1109.69   36.30
  -7  -5  -3 1099.89   41.20
  -7   5   3 1111.09   36.60
  -7   5  -3 1117.99   37.00
  -7  -5   3 1182.48   39.60
  -7  -5   3 1123.59   39.90
   7   5   3 1082.89   37.00
  -9  -5  -3  494.65   27.50
  -9   5   3  555.04   24.00
  -9   5  -3  523.55   24.20
  -9  -5   3  584.04   28.20
   9   5   3  563.54   25.00
 -11   5   3  264.07   18.50
 -11  -5  -3  306.17   22.90
  11   5   3  263.87   19.80
 -11  -5   3  319.17   23.50
 -11   5  -3  284.97   20.30
 -13  -5  -3  233.38   23.70
 -13   5   3  293.97   21.70
 -13  -5   3  234.78   25.10
  13   5   3  205.18   21.30
 -13   5  -3  261.37   22.70
 -15  -5  -3   99.39   18.40
 -15   5  -3  122.49   18.50
  15   5   3   88.89   15.80
 -15  -5   3   58.59   17.10
   0  -6  -3   31.00    4.40
  -2  -6  -3   26.80    4.40
   2  -6  -3   25.40    3.80
  -4   6   3   36.00   10.40
   4   6  -3   23.20    9.30
   4   6   3   22.60   10.70
   4  -6  -3   38.80   11.20
  -6   6   3   49.60    7.30
  -6  -6  -3   38.80    8.20
  -6   6   3   60.79    8.50
   6   6   3   38.70    6.90
  -6   6  -3   40.80    6.60
  -6  -6   3   35.90    7.70
  -8   6   3   57.89   12.70
  -8  -6  -3   44.80   10.20
  -8   6   3   40.90    7.80
  -8  -6   3   50.99   10.30
   8   6   3   31.00    7.60
  -8   6  -3   51.29    8.70
 -10  -6  -3   22.90    9.90
 -10   6   3   53.29   10.10
  10   6   3   52.59   10.70
 -10  -6   3   53.09   12.40
 -10   6  -3   29.50    8.80
 -12  -6  -3   54.39   14.40
 -12   6   3   52.19   11.00
 -12   6  -3   29.30   11.50
  12   6   3   47.70   11.80
 -12  -6   3   66.79   15.60
 -14  -6  -3   41.10   14.90
 -14   6   3   34.60   12.60
 -14  -6   3   45.30   15.70
  14   6   3   14.50   11.90
 -14   6  -3   12.80   12.90
  16   6   3   24.40   12.20
 -16  -6   3   28.10   14.50
  -1  -7  -3  310.47   13.00
   1  -7  -3  269.17   12.20
  -3  -7  -3  660.73   22.70
  -5  -7  -3  197.88   14.20
  -5   7   3  203.68   12.30
  -5   7   3  197.88   12.60
  -5  -7   3  203.08   13.60
   5   7   3  203.38   12.60
  -5   7  -3  220.18   12.50
  -7   7   3  349.27   17.70
  -7   7   3  335.87   17.70
  -7  -7  -3  381.36   21.90
   7   7   3  339.77   17.90
  -7  -7   3  387.16   21.00
  -7   7  -3  324.37   17.70
  -7  -7   3  357.76   17.20
  -9   7   3  198.98   15.60
  -9  -7  -3  232.18   20.30
  -9  -7   3  208.68   18.30
   9   7   3  226.48   16.60
  -9   7  -3  233.18   17.10
 -11   7   3  119.29   14.80
 -11  -7  -3  102.69   17.00
 -11  -7   3   97.29   16.90
 -11   7  -3  104.29   15.30
  11   7   3   99.29   14.20
 -13  -7  -3  134.99   20.40
 -13   7   3  122.79   16.90
  13   7   3  138.39   19.20
 -13   7  -3  153.28   20.20
 -13  -7   3  142.79   22.50
 -15  -7  -3   52.29   16.50
 -15  -7   3   43.40   17.50
  15   7   3   34.50   13.50
 -15   7  -3   56.59   15.50
   0  -8  -3  584.24   21.30
  -2  -8  -3  567.84   21.20
   2  -8  -3  601.24   20.40
  -4  -8  -3  484.05   21.90
  -4   8   3  453.75   19.90
  -4   8   3  493.15   20.20
  -4  -8   3  480.95   20.40
   4   8   3  428.36   19.50
  -6   8   3  343.77   17.50
  -6  -8  -3  346.07   20.10
  -6   8   3  326.47   17.50
  -6  -8   3  313.47   18.70
  -6   8  -3  347.47   17.70
  -6  -8   3  340.17   17.20
   6   8   3  327.97   17.40
  -8   8   3  216.28   15.60
  -8   8   3  240.18   15.60
  -8  -8  -3  230.88   18.60
   8   8   3  220.38   16.00
  -8   8  -3  191.38   15.40
  -8  -8   3  193.78   17.90
 -10  -8  -3  128.49   18.30
 -10   8   3  117.89   14.70
 -10   8  -3  123.89   16.10
 -10  -8   3   81.79   15.10
  10   8   3  136.29   14.90
 -12   8   3   93.19   14.80
 -12  -8  -3   72.09   15.90
 -12  -8   3  101.89   18.60
 -12   8  -3   67.49   14.50
  12   8   3   66.79   13.60
 -14  -8  -3   17.30   13.70
 -14   8   3   61.39   14.20
 -14   8  -3   17.10   13.10
  14   8   3   35.40   13.10
 -14  -8   3   38.10   16.70
 -16  -8   3   40.20   19.30
 -16   8  -3   30.50   13.50
  -1  -9  -3 1156.48   37.20
   1  -9  -3 1201.68   36.80
  -3   9   3 1229.88   42.00
  -3  -9  -3 1390.96   54.39
  -3   9   3 1288.47   42.10
   3   9   3 1327.27   42.40
  -3  -9   3 1347.17   43.00
   3  -9  -3 1289.17   39.10
  -5   9   3  574.24   24.40
  -5  -9  -3  568.84   26.20
  -5   9   3  545.65   24.00
  -5  -9   3  610.14   24.80
   5   9   3  578.94   24.20
  -5   9  -3  619.24   24.40
  -5  -9   3  586.54   25.50
  -7   9   3  567.84   26.00
  -7   9   3  624.54   26.70
  -7  -9  -3  617.34   29.20
  -7  -9   3  557.04   28.20
  -7   9  -3  580.24   25.90
   7   9   3  616.94   26.50
  -7  -9   3  591.14   25.30
  -9  -9  -3  335.07   24.30
  -9   9   3  322.17   20.60
   9   9   3  324.57   20.60
  -9  -9   3  278.87   22.40
  -9   9  -3  261.37   19.80
 -11   9   3  158.58   17.90
 -11  -9  -3  175.18   21.30
 -11  -9   3  154.68   21.60
  11   9   3  132.59   16.40
 -11   9  -3  160.18   18.00
 -13   9   3  115.69   16.70
 -13  -9  -3  165.58   24.40
 -13  -9   3  124.69   21.40
  13   9   3  171.58   21.50
 -13   9  -3  115.29   18.90
 -15   9   3   60.29   15.10
 -15  -9  -3   81.89   18.10
 -15  -9   3   44.90   17.20
  15   9   3   51.19   13.20
 -15   9  -3   43.30   15.40
   0  10   3   44.80    7.50
   0 -10   3   38.40    8.10
   0  10   3   43.60    7.90
   0 -10   3   30.10    8.50
   0 -10  -3   56.69    7.80
   2 -10   3   36.40    7.60
  -2 -10  -3   49.20    8.80
  -2 -10  -3   45.90    7.30
  -2  10   3   43.00    7.90
  -2  10   3   45.00    7.60
  -2 -10   3   42.10    7.70
   2  10   3   38.70    7.30
   2 -10  -3   36.90    6.20
  -4 -10  -3   43.60    7.90
   4 -10   3   42.80    7.80
  -4  10   3   33.20    7.90
  -4  10   3   33.10    7.40
  -4 -10  -3   45.40    8.30
  -4 -10   3   38.00    7.90
  -4  10  -3   62.79    8.90
   4  10   3   60.29    8.80
  -4 -10   3   50.59    8.50
   4 -10  -3   39.20    6.40
  -6  10   3   44.10    9.30
  -6 -10  -3   27.90    8.50
  -6  10   3   28.40    7.60
  -6 -10   3   39.30    9.20
  -6  10  -3   43.00    8.80
   6  10   3   37.60    8.30
  -6 -10   3   37.70    8.20
  -8  10   3   33.80    9.30
  -8  10   3   28.80    9.00
  -8 -10  -3   39.80   11.10
  -8 -10   3   44.80    9.20
   8  10   3   38.50    9.50
  -8 -10   3   44.80   11.20
  -8  10  -3   45.80   10.50
 -10 -10  -3   18.30   11.00
 -10  10   3   28.40    9.90
  10  10   3   18.90    9.20
 -10  10  -3   34.20   11.20
 -10 -10   3   20.80   11.30
 -12  10   3   11.60   10.60
 -12 -10  -3   19.80   12.90
  12  10   3   38.70   12.30
 -12  10  -3   37.30   13.30
 -12 -10   3   13.10   13.60
 -14  10   3    1.40   11.30
 -14 -10  -3   40.00   15.20
  14  10   3   15.30   12.00
 -14  10  -3   -1.10   12.70
 -14 -10   3   16.60   15.60
   1 -11   3   75.19   10.20
  -1  11   3   62.29    9.20
  -1 -11  -3   75.09   10.10
   1 -11   3   54.19    8.20
  -1  11   3   49.30    8.70
  -1 -11  -3   48.10    8.00
  -1 -11   3   64.69    9.40
   1  11   3   55.29    8.90
   1 -11  -3   70.89    8.70
   3 -11   3  113.79   11.60
  -3 -11  -3  138.79   12.90
  -3  11   3  126.89   12.50
  -3 -11  -3  126.29   11.40
  -3  11   3  126.49   11.80
  -3 -11   3  126.89   12.50
   3 -11  -3  116.19    9.80
  -3 -11   3  136.89   11.50
   3  11   3  132.49   12.30
  -3  11  -3  139.79   11.70
  -5  11   3   34.30    8.50
  -5 -11  -3   47.70    9.80
  -5  11   3   40.00    8.80
  -5 -11   3   49.40    9.40
   5 -11  -3   32.20    6.40
   5  11   3   44.70    8.80
  -5  11  -3   45.20    8.90
  -5 -11   3   45.20    9.40
  -7 -11  -3   74.99   13.00
  -7  11   3   98.09   13.40
  -7  11   3   80.89   12.10
   7  11   3  109.89   14.10
  -7  11  -3   96.29   13.60
  -7 -11   3   82.49   12.90
  -7 -11   3   83.59   12.30
  -9 -11  -3   94.09   15.80
  -9  11   3   50.59   11.90
  -9 -11   3   58.09   13.70
  -9  11  -3   75.59   13.80
   9  11   3   52.99   11.40
 -11  11   3   33.30   12.20
 -11 -11  -3   60.29   14.80
 -11 -11   3   30.20   13.30
  11  11   3   51.89   12.80
 -11  11  -3   59.49   14.70
 -13  11   3   40.40   13.60
 -13 -11  -3   79.89   18.20
  13  11   3   42.10   13.00
 -13  11  -3   33.10   14.40
 -13 -11   3   73.09   18.40
 -15 -11  -3   36.70   14.40
 -15 -11   3   11.40   14.80
 -15  11  -3   22.90   14.00
   0 -12  -3  146.49   13.60
   0  12   3  139.89   12.80
   0 -12   3  153.28   13.80
   0 -12  -3  154.98   12.70
   2 -12   3  157.28   13.70
  -2 -12  -3  158.98   12.70
  -2 -12  -3  131.19   13.30
  -2  12   3  144.59   13.30
  -2  12   3  178.38   13.90
  -2 -12   3  136.59   13.10
  -2  12  -3  136.79   12.40
   2 -12  -3  134.79   11.40
   2  12   3  135.09   13.00
  -4  12   3  112.79   13.00
  -4 -12  -3  104.79   12.50
  -4 -12  -3  107.59   12.60
   4 -12   3  109.59   12.50
  -4  12   3  111.09   12.60
  -4 -12   3  113.19   12.00
  -4 -12   3  112.09   13.20
   4 -12  -3  106.89   10.20
   4  12   3  107.69   12.70
  -4  12  -3  101.59   12.30
  -6  12   3   86.19   12.70
  -6 -12  -3   90.19   13.30
  -6  12   3   76.39   12.40
   6 -12  -3   52.09    8.60
  -6 -12   3   70.59   11.70
   6  12   3   88.89   13.00
  -6  12  -3  115.39   13.60
  -6 -12   3   97.49   13.30
  -8  12   3   39.60   10.80
  -8 -12  -3   58.79   13.20
  -8  12  -3   45.10   11.50
   8  12   3   79.09   12.90
  -8 -12   3   44.90   11.30
  -8 -12   3   63.29   11.30
 -10  12   3   45.00   12.80
 -10 -12  -3   31.50   12.50
  10  12   3   53.19   12.70
 -10  12  -3   65.79   14.60
 -10 -12   3   43.60   13.40
 -12  12   3   16.50   12.30
 -12 -12  -3   36.60   15.40
 -12 -12   3   31.30   15.20
 -12  12  -3   34.90   14.60
  12  12   3   20.40   12.60
 -14  12   3    9.10   12.20
 -14 -12  -3   21.10   14.60
 -14 -12   3   34.50   16.10
  14  12   3   25.50   12.10
 -14  12  -3    4.00   12.90
  -1  13   3  318.07   20.00
  -1 -13  -3  350.56   20.90
   1 -13   3  348.87   20.40
  -1 -13  -3  384.36   19.80
   1  13   3  383.46   21.00
   1 -13  -3  301.07   20.30
  -1  13  -3  398.56   26.90
   1 -13  -3  383.36   19.20
  -1 -13   3  350.56   21.20
  -3 -13  -3  370.86   20.10
  -3  13   3  362.96   21.20
   3 -13   3  399.56   21.30
  -3 -13  -3  401.46   21.50
   3  13   3  382.36   21.80
  -3 -13   3  363.16   22.40
   3 -13  -3  361.56   18.30
  -3  13  -3  373.76   20.40
  -5 -13  -3  178.08   16.20
  -5  13   3  173.38   16.70
   5 -13   3  195.98   15.60
   5 -13  -3  173.98   13.30
  -5  13  -3  154.48   15.50
  -5 -13   3  156.58   15.90
   5  13   3  218.88   17.90
  -5 -13   3  215.38   16.50
  -7 -13  -3  163.28   18.30
  -7  13   3  171.28   18.30
  -7 -13   3  190.28   18.40
   7  13   3  199.48   19.00
  -7 -13   3  159.18   16.70
  -7  13  -3  203.68   18.80
  -9 -13  -3   94.49   16.40
  -9  13   3   81.89   14.80
  -9  13  -3  115.59   17.20
   9  13   3  125.99   17.10
  -9 -13   3   73.39   14.60
   9 -13  -3   78.99   11.60
 -11  13   3   65.99   14.90
 -11 -13  -3   54.29   15.50
  11  13   3   43.60   13.70
 -11  13  -3   59.59   16.10
 -11 -13   3   56.39   15.50
 -13  13   3   69.49   15.60
 -13 -13  -3   43.10   15.90
 -13 -13   3   58.29   16.10
  13  13   3   42.20   13.70
 -13  13  -3   61.49   16.70
   0 -14  -3   39.30    9.90
   0 -14   3   22.90    8.00
   0  14   3   21.60    8.20
   0 -14  -3   23.90    7.70
  -2 -14  -3   30.60    9.10
  -2  14   3   39.00    9.50
   2 -14   3   33.70    8.80
   2 -14  -3   25.90    9.40
   2 -14  -3   30.90    7.80
  -2  14  -3   26.60    8.50
   2  14   3   19.80    8.10
  -2 -14   3   50.09   10.90
  -4 -14  -3   29.80    8.60
  -4  14   3   38.00    9.80
   4 -14   3   15.60    7.70
  -4 -14  -3   41.50    9.20
  -4  14  -3   37.70    9.40
   4 -14  -3   27.30    7.40
   4  14   3   26.00    9.50
  -4 -14   3   27.10    9.80
   4 -14  -3   42.50   11.00
  -6 -14  -3   12.90    9.10
  -6  14   3   27.30   10.30
   6 -14  -3   26.40    7.30
  -6 -14   3   16.20    8.60
   6 -14  -3   11.10    9.50
  -6 -14   3   34.50   10.40
   6  14   3   21.40    9.70
  -6  14  -3   36.70   10.80
  -8 -14  -3   16.00   10.10
  -8  14   3   15.90   10.50
  -8 -14   3   13.30    9.20
  -8  14  -3    7.70    9.80
   8 -14  -3   19.30   11.00
  -8 -14   3   27.60   11.30
   8 -14  -3   13.60    8.30
   8  14   3    8.10   10.30
 -10 -14  -3   10.30   12.00
 -10  14   3   19.40   12.70
  10  14   3   37.80   12.70
 -10  14  -3    5.30   11.50
 -10 -14   3    4.70   11.80
  10 -14  -3    3.40    8.40
 -12  14   3   14.00   13.00
 -12 -14  -3    7.10   11.90
 -12  14  -3   16.10   12.60
  12  14   3    3.10   11.40
 -12 -14   3    1.60   12.40
 -14 -14  -3   21.30   14.60
 -14 -14   3   -8.50   13.70
 -14  14  -3    4.20   14.40
  -1  15   3   10.00    7.70
  -1 -15  -3   14.50    8.60
   1 -15   3   18.30    8.60
   1  15   3   21.80    8.40
  -1 -15   3    2.60    6.90
   1 -15  -3   15.50    7.60
   1 -15  -3   13.30    9.00
  -3  15   3   27.40    9.30
   3 -15   3   28.70    8.80
  -3 -15  -3   23.30    8.50
  -3 -15   3   29.90   10.50
   3 -15  -3   14.60    9.70
   3  15   3   26.20    9.20
   3 -15  -3   29.60    8.30
  -3  15  -3   45.70   10.30
  -5 -15  -3   17.50    8.40
  -5  15   3   12.60    9.00
  -5 -15  -3    6.00    8.40
   5 -15   3   20.00    9.00
   5 -15  -3    9.90    6.80
  -5 -15   3   -0.10    7.80
   5  15   3    9.50    8.80
  -5  15  -3    6.60    8.90
   5 -15  -3    2.70    8.70
  -7 -15  -3   21.90   10.30
  -7  15   3    0.90    9.60
  -7 -15   3   35.50   11.00
  -7  15  -3   18.70   10.20
   7 -15  -3   26.90    8.70
  -7 -15   3   14.50    9.30
   7 -15  -3   35.40   12.40
   7  15   3   24.70   10.40
  -9  15   3    3.90   11.70
  -9 -15  -3   12.20   11.30
   9  15   3   16.60   12.30
  -9 -15   3   16.20   11.90
   9 -15  -3   23.70    9.60
  -9  15  -3   31.40   13.60
 -11  15   3    3.60   11.70
 -11 -15  -3   30.60   14.10
 -11 -15   3    3.90   12.00
 -11  15  -3    4.00   11.60
  11  15   3    9.10   11.80
 -13 -15  -3   31.40   13.80
 -13  15   3   16.70   12.60
 -13  15  -3   18.90   13.00
 -13 -15   3    6.60   12.10
   0 -16  -3   16.80    9.20
   0  16   3   16.00    9.00
   0 -16   3   32.30   10.50
  -2  16   3   20.30    9.70
  -2 -16  -3   21.70    9.10
   2 -16   3   12.80    9.00
  -2 -16   3   10.10    8.50
   2  16   3   26.50    9.90
   2 -16  -3   25.90   10.70
   2 -16  -3   19.30    7.90
  -2  16  -3   19.80    9.10
  -4  16   3   28.40   10.60
   4 -16   3   -1.70    7.60
  -4 -16  -3   24.30    9.10
   4 -16  -3    6.70    9.80
  -4  16  -3   18.00    9.30
   4 -16  -3    8.50    7.00
  -4 -16   3   22.90   10.00
   4  16   3   13.50    9.40
  -6 -16  -3   21.00   10.20
  -6  16   3   16.30   10.50
   6  16   3   -3.30    8.70
  -6 -16   3   16.40   10.10
  -6  16  -3   23.90   11.10
   6 -16  -3   -0.90    7.50
   6 -16  -3   18.10   11.80
  -8 -16  -3   25.10   12.00
  -8  16   3   -9.50   10.60
  -8  16  -3   14.80   10.80
  -8 -16   3   18.40   10.50
  -8 -16   3   30.70   12.20
   8 -16  -3   11.00    9.30
   8  16   3    2.80   10.50
   8 -16  -3   24.50   12.80
 -10  16   3    0.70   12.00
 -10 -16  -3   14.50   12.30
 -10 -16   3    2.80   11.30
 -10  16  -3   30.60   13.70
  10  16   3   28.20   11.90
 -12 -16  -3   -9.70   11.20
 -12  16   3   14.60   12.70
 -12 -16   3    7.20   11.70
 -12  16  -3   11.70   12.20
   1 -17   3   77.89   13.10
  -1 -17  -3   50.29   12.10
  -1  17   3   57.89   12.80
   1 -17  -3   93.29   14.30
   1  17   3  109.09   15.60
   1 -17  -3   69.59   13.50
  -1 -17   3   69.29   13.40
   3 -17   3   58.99   12.20
  -3 -17  -3   68.69   12.80
  -3  17   3   65.19   13.00
   3 -17  -3   62.69   14.40
  -3  17  -3  111.39   15.70
   3 -17  -3   61.69   11.30
   3  17   3   40.20   12.40
  -3 -17   3   69.79   14.00
  -5  17   3   57.89   13.50
  -5 -17  -3   23.20   10.70
   5 -17   3   59.59   12.40
   5  17   3   58.09   12.90
  -5  17  -3   24.20   10.60
   5 -17  -3   50.79   14.20
   5 -17  -3   63.09   11.90
  -5 -17   3   41.10   12.50
   7 -17   3   27.10   12.20
  -7 -17  -3   38.00   12.00
  -7  17   3   41.10   13.50
  -7  17  -3   22.40   12.00
   7 -17  -3   32.80   13.60
  -7 -17   3   44.60   13.30
   7  17   3   24.20   12.00
   7 -17  -3   22.20   10.90
  -9 -17  -3   23.40   12.40
  -9  17   3   29.70   13.80
  -9 -17   3   40.20   13.60
  -9  17  -3   12.70   12.30
   9  17   3   17.00   11.60
 -11  17   3   23.60   13.20
 -11 -17  -3   17.00   11.40
  11  17   3   23.60   11.60
 -11  17  -3   12.20   11.90
 -11 -17   3   24.40   12.20
   0 -18   3   -3.50    8.50
   0 -18  -3   11.30    9.60
   0  18   3   31.90   11.40
   2 -18   3    9.50    9.80
  -2  18   3    2.10    8.70
  -2 -18  -3    7.90    8.60
   2  18   3   21.50   10.60
   2 -18  -3   15.80   10.20
  -2 -18   3    1.20    9.10
   2 -18  -3    2.60    7.90
   4 -18   3    6.20    9.50
  -4 -18  -3   17.80   10.20
  -4  18   3   12.30   10.30
   4 -18  -3   16.50   12.30
  -4  18  -3   18.70   10.70
  -4 -18   3   19.10   11.60
   4 -18  -3    4.40    8.80
   4  18   3    7.60   10.90
  -6  18   3   16.70   12.50
   6  18   3   12.80   11.30
  -6  18  -3   14.80   11.40
  -6 -18   3   -1.10   11.20
   6 -18  -3   -0.60   11.10
   6 -18  -3   24.90   10.50
  -8  18   3    3.40   12.80
  -8 -18  -3   -2.00   10.30
   8 -18  -3    1.90   11.20
  -8 -18   3   25.60   14.70
   8  18   3   -5.50   10.10
  -8  18  -3   25.90   12.00
 -10 -18  -3   -3.30   10.70
 -10  18   3    1.00   12.40
 -10 -18   3  -18.20   11.10
  10  18   3   26.90   11.60
 -10  18  -3   20.90   12.20
  -1  19   3    5.80   10.10
   1 -19   3   -3.70    9.40
  -1 -19  -3   14.70   10.20
   1 -19  -3    0.80   10.10
  -1 -19   3   -5.10    9.20
   1  19   3   11.10    9.90
  -3  19   3    2.80    9.90
   3 -19   3    2.40   10.00
  -3 -19  -3   -0.30    9.60
   3 -19  -3   20.80   11.40
   3  19   3   10.70   11.20
   3 -19  -3    1.20    8.90
  -3 -19   3   -0.10   10.40
  -5  19   3    1.00   11.30
   5 -19   3   -0.70   10.10
  -5 -19  -3   10.80   12.50
   5 -19  -3    5.90    9.90
   5  19   3   14.70   11.80
  -5  19  -3    6.20   10.30
  -5 -19   3    3.00   11.70
   5 -19  -3   10.80   12.40
  -7  19   3    1.20   12.60
   7  19   3   -0.70   11.00
  -7  19  -3   -0.50   10.10
  -7 -19   3   13.00   12.40
   7 -19  -3   12.00   12.60
  -9  19   3   22.60   13.50
  -9 -19  -3    6.10   10.00
   9  19   3    0.70   10.10
  -9  19  -3   -5.60    9.90
   0 -20  -3  -11.00    9.20
   0  20   3  -11.20    9.00
   0 -20   3   -0.90    9.90
   2 -20   3    1.50   10.70
  -2 -20  -3    4.90   11.40
  -2  20   3   -3.30   10.70
   2 -20  -3    9.20   12.10
   2  20   3    0.60   10.80
  -2 -20   3    6.90   11.40
  -4  20   3   -5.70   10.30
  -4 -20  -3   24.10   11.80
   4 -20   3   -8.90    9.80
  -4 -20   3   11.00   12.20
   4 -20  -3    1.80   12.30
   4  20   3  -20.70    9.70
  -6  20   3   19.20   12.90
   6  20   3   -6.90   10.50
   6 -20  -3    2.80   11.70
  -6  20  -3    6.20   10.60
  -6 -20   3    8.90   12.60
  -8  20   3   -3.80   12.10
  -8  20  -3  -10.90   10.20
   8  20   3    6.30   11.20
   8 -20  -3   -5.90   10.40
 -10  20   3   13.70   16.10
  -1 -21  -3   19.00   12.80
   1 -21   3   16.40   12.20
  -1  21   3    8.80   11.30
  -1 -21   3    2.70   11.90
   1 -21  -3    5.90   11.70
   1  21   3   -3.90   10.60
  -3  21   3   23.80   12.30
  -3 -21  -3   11.10   12.20
   3 -21   3    3.00   11.60
   3 -21  -3   16.70   12.40
   3  21   3   10.90   11.20
  -3 -21   3   21.10   12.80
  -5  21   3    2.20   11.50
   5 -21   3   18.20   11.70
   5 -21  -3   -1.30   10.90
   5  21   3   -4.70   10.70
  -5 -21   3    8.80   12.90
  -7  21   3   14.00   12.40
   7 -21  -3    5.50   11.50
  -7 -21   3   20.00   12.30
   7  21   3    3.10    9.90
   0  22   3   22.50   12.00
   0 -22  -3  -10.40   11.50
   0 -22   3    5.80   12.10
   2 -22   3   -2.30   11.20
  -2 -22  -3    4.90   12.00
  -2  22   3   14.80   11.80
   2 -22  -3   -7.70   11.60
  -2 -22   3    6.30   11.60
   2  22   3  -14.50    9.40
  -4 -22  -3   -7.20   11.40
  -4  22   3   11.70   11.50
   4 -22   3    2.70   11.40
   4 -22  -3   26.20   13.20
   4  22   3    5.00   10.80
  -4 -22   3   11.60   12.70
  -6  22   3    5.00   11.60
   6 -22  -3    4.50   12.10
  -6 -22   3    2.30   11.70
   6  22   3   19.00   10.90
   1 -23   3   10.20   11.70
  -1  23   3    2.70   10.20
  -1 -23  -3   -1.10   11.40
   1  23   3  -12.40    9.60
   1 -23  -3    3.10   12.00
  -1 -23   3   -9.00   10.60
   3 -23   3   -1.30   11.10
  -3  23   3    7.70   11.00
  -3 -23  -3   24.60   12.40
  -3 -23   3   -0.80   11.70
   3  23   3    9.80   10.20
   3 -23  -3   11.50   12.50
  -5  23   3   17.50   11.60
  -5 -23   3  -11.80   11.00
   5  23   3  -15.40    8.80
   5 -23  -3   14.70   12.30
   0 -24   3   -0.40   10.60
   0 -24  -3   -6.80   11.10
   0  24   3    2.70    9.90
  -2 -24  -3   16.00   12.10
  -2  24   3   -7.00    9.90
   2 -24   3    1.30   10.30
   2 -24  -3   14.50   12.20
  -2 -24   3  -14.50   10.40
   2  24   3  -11.90    9.10
   0   0  -4 5805.42  146.49
  -2   0  -4 4690.53  119.19
   2   0  -4 4646.24  117.39
  -4   0  -4 3318.57  101.19
   4   0  -4 3628.24  112.59
   4   0   4 3407.76   96.59
   4   0  -4 3464.65  110.89
  -6   0  -4 2226.68   63.99
  -8   0  -4 1091.69   38.20
  -8   0   4 1108.79   36.20
  -8   0   4 1075.49   38.60
  -8   0  -4 1158.68   39.40
 -10   0  -4  690.33   30.40
 -10   0   4  714.33   31.00
 -12   0   4  350.76   23.10
 -12   0  -4  370.46   23.30
  14   0   4  221.78   24.10
  16   0   4  138.49   20.10
  -1  -1  -4  635.44   19.00
   1   1  -4  630.94   18.30
  -1   1  -4  615.54   18.90
   1  -1  -4  618.24   18.20
   3   1  -4  535.25   15.20
   5   1  -4  385.86   28.50
  -5  -1  -4  429.96   23.60
   5   1   4  397.16   21.10
   5  -1  -4  406.86   28.80
  -7   1   4  241.68   14.30
  -7   1   4  273.67   15.20
  -7  -1  -4  282.07   16.40
  -7  -1   4  286.47   16.40
  -7  -1   4  276.67   15.60
  -7   1  -4  257.57   14.50
  -9  -1  -4  200.98   15.40
  -9  -1  -4  168.08   13.80
  -9   1   4  221.28   15.70
  -9   1  -4  192.48   14.40
  -9  -1   4  202.48   15.60
 -11  -1  -4  151.08   15.90
 -11   1   4  116.89   14.50
 -11   1  -4   64.29   12.10
 -11  -1   4  113.99   15.10
 -13  -1   4   78.59   14.50
  13   1   4   62.99   14.10
  15  -1   4   58.09   16.20
  15   1   4   45.20   15.90
   0  -2  -4  593.64   18.40
   0   2  -4  626.44   18.50
  -2  -2  -4  426.96   14.60
   2   2  -4  432.96   13.50
  -2   2  -4  450.05   14.80
   2  -2  -4  431.16   12.90
   4   2  -4  603.04   17.20
  -6  -2  -4  447.06   19.00
   6   2  -4  434.86   13.20
  -6   2  -4  441.66   18.50
  -6  -2   4  439.56   19.70
   8   2  -4  294.57   10.80
  -8  -2  -4  302.27   18.70
  -8   2   4  321.77   17.10
  -8   2   4  300.47   15.20
  -8  -2  -4  286.27   16.40
  -8  -2   4  312.57   15.60
  -8  -2   4  288.37   17.60
  -8   2  -4  283.87   16.50
 -10   2   4  263.97   17.40
 -10  -2  -4  259.17   19.00
 -10  -2   4  236.18   18.60
 -10   2  -4  252.87   17.50
 -12  -2  -4  175.48   18.80
  12   2   4  169.28   18.60
 -12   2  -4  208.08   19.20
 -12  -2   4  183.58   19.10
 -14  -2   4   95.89   16.60
  14   2   4  133.09   19.30
  16  -2   4  100.89   18.60
  16   2   4   71.39   15.60
   1   3  -4  275.47   10.20
  -1  -3  -4  273.67   10.70
  -1   3  -4  276.27   10.50
   1  -3  -4  282.37   10.00
  -3  -3  -4  242.38   10.20
   3   3  -4  236.78    8.90
   5   3  -4  192.38    7.70
  -7   3   4  152.68   10.40
   7   3  -4  151.98    7.40
  -7   3   4  153.78   11.30
  -7  -3  -4  151.48   13.80
  -7   3  -4  154.18   11.30
   7   3   4  142.89   11.20
  -7  -3   4  138.09   12.00
  -7  -3   4  138.69   10.30
  -9   3   4  116.09   12.10
  -9  -3  -4  123.69   13.70
   9   3   4  104.79   12.20
  -9  -3   4  148.29   14.30
  -9   3  -4  121.99   12.30
 -11  -3  -4   66.89   12.80
 -11  -3   4   78.79   13.80
 -11   3  -4   74.69   12.40
  11   3   4   94.09   13.80
 -13  -3  -4   52.09   14.00
 -13  -3   4   50.79   14.40
  13   3   4   42.20   13.20
 -13   3  -4   50.39   12.70
  15   3   4   13.90   12.80
 -15  -3   4   23.50   13.40
   0  -4  -4 3816.82   99.29
   0   4  -4 3872.61   99.19
   2   4  -4 3005.00   79.39
  -2  -4  -4 3104.19   80.49
   2  -4  -4 3063.79   78.89
   4   4  -4 2295.07   60.59
  -6   4   4 1552.44   47.40
  -6  -4  -4 1648.83   52.19
  -6   4  -4 1567.84   47.10
  -6  -4   4 1495.05   49.60
  -6  -4   4 1626.14   53.79
   6   4   4 1551.04   47.80
  -8   4   4  887.21   31.00
  -8   4   4  868.61   30.40
  -8  -4  -4  846.12   35.90
  -8  -4   4  889.41   31.10
  -8   4  -4  827.02   31.70
   8   4   4  841.42   32.30
  -8  -4   4  871.01   34.90
 -10  -4  -4  517.35   29.00
 -10   4   4  565.74   24.30
 -10   4  -4  528.05   26.70
  10   4   4  548.35   26.60
 -10  -4   4  539.45   29.00
 -12  -4  -4  316.87   24.30
 -12   4  -4  277.27   21.80
 -12  -4   4  295.87   25.10
  12   4   4  317.87   23.30
 -14  -4  -4  151.38   22.00
 -14   4  -4  180.08   21.80
  14   4   4  125.09   18.60
 -14  -4   4  154.78   22.00
  16  -4   4  118.79   19.10
 -16  -4   4   90.89   17.90
  16   4   4  105.89   16.30
   1   5  -4  712.93   21.20
  -1  -5  -4  656.43   21.60
   1  -5  -4  632.64   20.90
   3   5  -4  597.64   19.30
  -3  -5  -4  591.54   20.40
   3  -5  -4  611.54   18.30
  -5  -5  -4  472.95   22.60
  -5  -5   4  497.45   21.50
   5   5   4  487.65   20.00
  -7  -5  -4  324.47   20.10
  -7   5   4  310.27   15.80
  -7   5   4  298.97   15.70
  -7   5  -4  309.57   16.10
  -7  -5   4  319.07   15.70
  -7  -5   4  311.47   18.40
   7   5   4  326.97   16.80
  -9  -5  -4  225.88   19.20
  -9   5   4  228.38   14.80
   9   5   4  212.08   15.80
  -9   5  -4  211.48   15.70
  -9  -5   4  174.88   17.40
 -11  -5  -4  107.79   16.10
 -11   5   4  123.99   13.80
  11   5   4  125.39   15.30
 -11  -5   4  110.89   17.30
 -11   5  -4  120.89   16.20
 -13  -5  -4   57.89   14.90
 -13   5  -4   50.09   13.90
 -13  -5   4   61.39   15.90
  13   5   4   79.39   15.20
 -15  -5  -4   33.40   18.30
 -15   5  -4   41.60   14.20
  15   5   4   51.29   14.40
 -15  -5   4   44.40   16.40
   0  -6  -4  452.85   16.60
  -2  -6  -4  364.36   14.70
   2  -6  -4  344.17   13.40
   4   6  -4  424.56   32.40
  -4   6   4  373.26   29.40
   4   6   4  361.16   31.30
  -6   6   4  304.27   15.50
  -6  -6  -4  299.97   18.60
  -6   6   4  321.57   15.90
  -6   6  -4  302.07   15.40
  -6  -6   4  335.17   18.50
   6   6   4  305.97   16.30
  -6  -6   4  285.97   15.30
  -8  -6  -4  204.48   17.60
  -8   6   4  229.08   14.60
  -8   6   4  191.88   13.80
   8   6   4  191.38   15.20
  -8  -6   4  239.48   14.60
  -8  -6   4  185.68   16.30
  -8   6  -4  192.18   14.10
 -10  -6  -4  192.18   20.00
 -10   6   4  177.98   15.90
 -10   6  -4  186.68   16.50
 -10  -6   4  171.08   19.50
  10   6   4  201.28   17.80
 -12  -6  -4  134.19   20.20
 -12   6   4  149.69   16.50
 -12  -6   4  110.29   19.30
 -12   6  -4  152.28   18.00
  12   6   4  105.49   15.90
 -14  -6  -4   63.79   16.30
 -14  -6   4   77.99   18.60
  14   6   4   72.19   15.10
 -14   6  -4  100.69   18.00
 -16  -6   4   52.79   17.10
  16   6   4   58.99   14.00
  -1  -7  -4   61.89    6.60
   1  -7  -4   61.59    6.50
  -3  -7  -4   78.99    7.30
   3  -7  -4   75.19    6.10
  -5  -7  -4   70.49    9.90
  -5   7   4   71.59    8.50
  -5   7   4   76.19    8.10
  -5   7  -4   49.20    6.90
  -5  -7   4   63.69    8.50
  -5  -7   4   68.49    9.40
   5   7   4   54.99    8.00
  -7  -7  -4   55.59   10.50
  -7   7   4   61.79    9.10
  -7   7   4   61.79    9.30
  -7   7  -4   65.79    9.50
   7   7   4   51.89    8.90
  -7  -7   4   52.99   10.00
  -7  -7   4   56.99    8.50
  -9  -7  -4   67.99   13.30
  -9   7   4   75.49   11.00
  -9  -7   4   56.09   12.20
  -9   7  -4   51.79   10.20
   9   7   4   60.69   10.80
 -11  -7  -4   53.39   13.70
 -11   7   4   41.80   10.60
 -11   7  -4   56.49   12.70
 -11  -7   4   24.40   11.70
  11   7   4   63.99   12.60
 -13  -7  -4   37.30   14.70
 -13  -7   4   64.69   17.50
  13   7   4   30.20   13.20
 -13   7  -4    9.30   12.20
 -15  -7  -4   25.70   14.40
 -15  -7   4   28.40   16.00
  15   7   4   21.30   12.80
 -15   7  -4   10.70   13.10
   0  -8  -4 1276.97   39.20
  -2   8   4 1133.89   37.10
  -2  -8  -4 1154.98   36.20
   2  -8  -4 1171.58   35.10
   2   8   4 1110.49   40.20
  -2  -8   4 1118.79   37.80
  -4   8   4  948.11   32.90
  -4  -8  -4  912.91   34.60
  -4   8   4  924.01   32.30
   4  -8  -4  956.20   28.80
  -4  -8   4  921.61   33.50
   4   8   4  875.61   32.10
  -4  -8   4  935.81   32.60
  -6   8   4  683.83   27.30
  -6   8   4  680.93   26.90
  -6  -8  -4  676.63   30.10
  -6  -8   4  661.93   29.20
  -6  -8   4  663.73   26.80
  -6   8  -4  649.43   26.00
   6   8   4  679.13   27.30
  -8   8   4  401.86   21.50
  -8   8   4  400.86   21.20
  -8  -8  -4  390.86   24.40
   8   8   4  380.46   21.50
  -8   8  -4  400.96   21.50
  -8  -8   4  409.26   25.00
  -8  -8   4  405.06   20.90
 -10  -8  -4  231.88   22.70
 -10   8   4  280.17   19.30
 -10   8  -4  257.27   19.90
 -10  -8   4  262.87   23.30
  10   8   4  271.77   20.40
 -12  -8  -4  184.18   23.10
 -12   8   4  162.58   18.00
 -12   8  -4  154.08   20.70
 -12  -8   4  161.58   24.60
  12   8   4  150.58   19.90
 -14  -8  -4   64.59   17.00
  14   8   4   79.29   15.30
 -14  -8   4   16.20   16.10
 -14   8  -4   92.49   17.70
  -1   9   4  439.86   19.20
  -1   9   4  423.26   19.80
   1  -9   4  461.05   19.80
  -1  -9  -4  398.16   18.00
   1  -9  -4  398.36   17.70
   1   9   4  409.96   19.60
  -1  -9   4  437.26   19.90
  -3   9   4  345.97   18.00
  -3  -9  -4  380.56   19.80
  -3   9   4  367.06   18.20
  -3  -9   4  374.86   18.70
   3  -9  -4  374.46   15.60
   3   9   4  356.26   18.10
  -5   9   4  287.67   16.50
  -5  -9  -4  271.07   18.00
  -5   9   4  303.97   17.30
   5  -9  -4  293.07   13.30
  -5   9  -4  273.07   15.40
  -5  -9   4  320.97   17.20
   5   9   4  274.37   16.40
  -5  -9   4  250.87   16.80
  -7   9   4  183.88   14.60
  -7  -9  -4  196.18   17.30
  -7   9   4  184.08   14.60
  -7  -9   4  185.68   14.50
   7   9   4  200.88   16.30
  -7   9  -4  207.78   15.60
  -7  -9   4  187.78   16.60
  -9   9   4  141.59   15.50
  -9  -9  -4  110.39   16.80
  -9   9   4  144.69   15.30
   9   9   4  150.68   16.30
  -9   9  -4  104.59   14.30
  -9  -9   4  118.89   16.70
 -11  -9  -4   72.19   16.30
 -11   9   4   79.29   13.40
  11   9   4   55.29   13.30
 -11   9  -4   76.39   15.30
 -11  -9   4   83.59   16.30
 -13   9   4   37.70   12.30
 -13  -9  -4   35.00   15.10
 -13   9  -4   51.59   15.40
  13   9   4   34.20   13.20
 -13  -9   4   12.00   14.90
 -15  -9  -4   32.50   15.30
 -15  -9   4    8.40   14.90
  15   9   4   27.60   12.20
 -15   9  -4   35.90   14.50
   0  10   4  243.28   15.20
   0 -10  -4  249.58   14.10
   0 -10   4  262.77   15.60
   0  10   4  238.68   14.70
  -2  10   4  206.18   13.90
  -2  10   4  203.78   14.30
  -2 -10  -4  269.77   14.50
  -2 -10  -4  194.78   14.20
   2 -10   4  203.68   13.70
   2 -10  -4  216.58   12.40
   2  10   4  202.68   14.10
  -2 -10   4  192.08   14.10
  -4  10   4  185.38   13.70
   4 -10   4  187.68   13.30
  -4  10   4  204.18   14.80
  -4 -10  -4  204.28   15.60
  -4  10  -4  203.28   13.50
  -4 -10   4  221.48   15.10
   4 -10  -4  197.08   11.40
  -4 -10   4  181.88   14.30
   4  10   4  192.98   14.20
  -6  10   4  158.58   14.00
  -6 -10  -4  184.88   16.40
  -6  10   4  171.68   14.50
   6 -10  -4  169.68   11.10
  -6 -10   4  177.58   15.40
  -6  10  -4  154.98   13.80
  -6 -10   4  170.38   14.30
   6  10   4  156.48   14.20
  -8  10   4   84.79   12.80
  -8 -10  -4  110.49   15.90
  -8  10   4  118.59   14.60
  -8 -10   4  126.99   16.60
  -8  10  -4   81.59   12.70
  -8 -10   4  113.99   12.80
   8  10   4  113.29   15.20
 -10 -10  -4   86.69   15.80
 -10  10   4  100.99   14.60
  10  10   4   77.79   13.80
 -10  10  -4  111.39   15.80
 -10 -10   4  111.29   17.50
 -12 -10  -4   72.29   17.00
 -12  10   4   50.29   13.20
 -12 -10   4   43.10   16.60
 -12  10  -4   56.49   15.50
  12  10   4   51.79   13.60
 -14 -10  -4   45.40   16.10
 -14 -10   4   21.60   16.60
  14  10   4   19.50   12.20
 -14  10  -4   41.70   15.40
  -1  11   4    5.80    5.70
   1 -11   4    9.10    5.80
  -1 -11  -4   17.60    6.50
  -1 -11  -4    7.60    5.20
  -1  11   4   18.60    7.00
   1 -11  -4   13.30    5.40
   1  11   4   15.80    6.40
  -1 -11   4   21.20    7.00
  -3  11   4   17.90    7.30
  -3 -11  -4   14.60    7.10
   3 -11   4   10.40    5.60
  -3  11   4   21.90    7.30
  -3 -11  -4   12.90    6.40
  -3 -11   4   12.70    7.20
   3 -11  -4   14.60    5.30
   3  11   4    8.50    5.80
  -3  11  -4   20.20    6.30
  -5  11   4   16.00    7.80
  -5 -11  -4   20.80    8.40
  -5  11   4   11.60    6.90
  -5 -11   4    9.70    6.60
   5 -11  -4   27.70    6.10
  -5 -11   4   19.10    7.70
  -5  11  -4   11.80    6.80
   5  11   4    7.30    6.80
  -7  11   4   25.50    9.30
  -7 -11  -4   21.30    9.60
  -7  11   4   21.40    8.30
   7 -11  -4   23.90    6.40
   7  11   4   19.60    8.70
  -7 -11   4   17.90    7.90
  -7 -11   4    7.90    8.00
  -7  11  -4   14.40    7.90
  -9 -11  -4   18.90   10.80
  -9  11   4    5.00    8.70
  -9  11   4   24.60    9.90
  -9  11  -4   27.60   10.20
  -9 -11   4    9.70    9.80
   9  11   4   20.90   10.00
 -11  11   4   13.10   10.80
 -11 -11  -4   35.80   14.20
 -11 -11   4   39.00   14.30
  11  11   4    8.50   10.70
 -11  11  -4   13.90   12.40
 -13  11   4   -8.80   10.20
 -13 -11  -4   12.60   14.10
 -13 -11   4   19.10   14.60
 -13  11  -4   25.10   14.20
  13  11   4    2.10   11.20
 -15  11  -4   21.00   16.40
 -15 -11   4    4.90   16.10
   0 -12  -4  288.87   16.90
   0 -12   4  264.07   17.60
   0  12   4  278.97   17.80
  -2  12   4  267.27   18.10
  -2 -12  -4  281.67   18.30
  -2  12   4  263.07   17.60
  -2 -12  -4  260.17   16.50
   2 -12   4  266.17   17.20
   2 -12  -4  254.67   15.30
  -2 -12   4  263.07   18.50
   2  12   4  271.27   17.90
   4 -12   4  195.78   15.30
  -4 -12  -4  246.78   17.70
  -4  12   4  197.38   16.10
  -4  12   4  261.27   18.30
  -4 -12  -4  257.37   16.80
   4 -12  -4  235.58   13.80
   4  12   4  202.48   16.70
  -4 -12   4  214.88   17.40
  -4 -12   4  222.98   16.50
  -4  12  -4  222.98   15.90
  -6 -12  -4  160.98   17.10
  -6  12   4  182.48   16.00
  -6  12   4  181.78   16.50
   6 -12  -4  163.58   12.20
  -6 -12   4  167.98   16.10
  -6  12  -4  168.88   15.50
   6  12   4  189.28   18.00
  -6 -12   4  155.68   15.60
  -8  12   4  127.29   17.30
  -8  12   4  121.89   15.30
  -8 -12  -4  121.19   17.70
   8 -12  -4   93.59   11.60
  -8 -12   4  145.59   17.80
  -8 -12   4   85.59   13.50
   8  12   4  114.59   16.20
  -8  12  -4  115.39   16.40
 -10  12   4   97.19   16.30
 -10 -12  -4   93.79   16.60
 -10 -12   4   86.09   17.20
  10  12   4   63.69   14.60
 -10  12  -4   89.59   15.90
 -12 -12  -4   63.99   16.50
 -12  12   4   84.89   15.80
 -12  12  -4   50.89   16.00
 -12 -12   4   77.49   18.40
  12  12   4   63.59   15.30
 -14  12   4   36.90   13.50
 -14 -12  -4   34.00   15.00
 -14 -12   4   36.60   16.30
 -14  12  -4   28.00   13.90
  14  12   4   56.29   14.00
  -1  13   4  157.18   15.00
  -1 -13  -4  187.18   14.50
  -1 -13  -4  163.98   15.70
   1 -13   4  143.59   14.00
   1  13   4  159.18   14.80
   1 -13  -4  155.58   13.40
  -1 -13   4  162.98   15.30
  -3 -13  -4  166.68   14.70
  -3  13   4  146.19   15.80
  -3  13   4  148.79   14.70
  -3 -13  -4  134.69   14.00
   3 -13   4  131.89   13.80
   3 -13  -4  148.69   12.30
  -3  13  -4  129.19   16.90
   3  13   4  127.49   14.60
  -3 -13   4   96.69   14.40
  -5  13   4  117.19   15.10
  -5 -13  -4  105.89   13.80
  -5  13   4   85.09   14.30
  -5  13  -4  106.09   13.80
   5 -13  -4  103.39   11.00
  -5 -13   4   98.99   14.60
  -5 -13   4  118.69   14.50
   5  13   4   96.49   14.00
  -7 -13  -4   83.79   13.90
  -7  13   4   65.19   13.20
  -7  13   4   52.59   11.80
  -7 -13   4   87.59   14.10
  -7  13  -4  108.69   15.20
   7 -13  -4   80.29   10.90
  -7 -13   4   57.89   12.00
   7  13   4   66.89   13.40
  -9 -13  -4   53.19   14.10
  -9  13   4   56.39   13.20
   9 -13  -4   53.99   13.00
  -9  13  -4   42.80   12.60
   9 -13  -4   47.20    9.60
   9  13   4   45.10   13.00
  -9 -13   4   43.00   13.00
 -11  13   4   47.10   13.90
 -11 -13  -4    5.70   12.40
 -11 -13   4   41.50   14.90
 -11  13  -4    9.70   12.00
  11  13   4   40.10   14.10
 -13  13   4   21.20   12.40
 -13 -13  -4   16.50   14.30
  13  13   4   28.10   12.40
 -13 -13   4    6.00   13.40
 -13  13  -4   17.30   13.50
   0  14   4   97.89   13.80
   0 -14  -4  101.29   12.80
   0 -14  -4  102.79   14.70
   0 -14   4   93.29   14.00
   2 -14   4   92.79   12.60
  -2  14   4  107.09   14.30
  -2 -14  -4   77.19   13.10
   2 -14  -4   87.89   13.60
   2  14   4  121.49   14.00
   2 -14  -4   68.19   10.80
  -2 -14   4   82.39   13.40
  -4 -14  -4   78.79   12.30
  -4 -14  -4   77.59   12.00
  -4  14   4   75.09   12.40
   4 -14   4   62.59   11.10
  -4  14  -4   70.69   11.90
   4  14   4   68.59   12.90
   4 -14  -4   92.29   11.30
  -4 -14   4   44.10   11.60
  -6 -14  -4   62.59   12.50
  -6  14   4   57.89   12.20
  -6 -14   4   79.09   13.30
  -6 -14   4   49.99   12.00
  -6  14  -4   51.39   11.20
   6 -14  -4   55.89    8.90
   6  14   4   60.79   13.20
  -8 -14  -4   36.50   12.00
  -8  14   4   52.29   13.10
  -8 -14   4   42.20   11.80
  -8 -14   4   62.99   13.80
  -8  14  -4   67.69   13.70
   8 -14  -4   51.69   13.40
   8  14   4   43.30   13.10
   8 -14  -4   33.60    8.60
 -10 -14  -4   29.30   13.60
 -10  14   4   27.10   12.80
  10 -14  -4   19.90   12.50
 -10 -14   4   26.30   13.50
 -10  14  -4   54.89   15.10
  10  14   4   36.30   13.40
 -12 -14  -4   40.60   14.60
 -12  14   4   50.99   14.40
  12  14   4   28.40   12.90
 -12  14  -4    3.10   12.60
 -12 -14   4    3.30   12.30
  -1 -15  -4    3.40    8.80
  -1  15   4    4.50    7.60
   1 -15   4    4.80    7.40
  -1 -15   4    5.40    7.90
   1 -15  -4    9.50    8.90
   1 -15  -4   10.40    7.10
   1  15   4    0.90    7.30
   3 -15   4    5.00    7.20
  -3 -15  -4   13.40    7.90
  -3  15   4    3.40    7.80
   3 -15  -4   -0.30    8.40
  -3 -15   4   10.00    9.60
   3  15   4    1.80    7.30
   3 -15  -4    9.60    6.90
  -5 -15  -4   14.40    8.70
   5 -15   4   12.20    8.40
  -5  15   4   13.00    9.30
  -5  15  -4    6.70    8.10
   5  15   4  -11.30    8.30
   5 -15  -4    8.40    6.80
   5 -15  -4    2.30    9.90
  -5 -15   4   -6.70    6.90
  -7  15   4   -8.70    9.20
  -7 -15  -4   -5.30    8.90
  -7 -15   4   -5.20    8.80
  -7 -15   4   -6.40    8.80
   7  15   4   12.20   10.80
  -7  15  -4   11.30   10.00
   7 -15  -4   -1.50   10.50
   7 -15  -4    4.90    7.40
  -9 -15  -4   13.90   11.80
  -9  15   4   13.50   12.10
  -9 -15   4   26.10   12.40
  -9  15  -4   -1.80   10.60
   9  15   4    5.60   11.50
   9 -15  -4   11.20    8.40
   9 -15  -4   -4.10   11.20
 -11  15   4   26.30   13.00
 -11 -15  -4   -3.10   11.30
 -11 -15   4    3.30   11.70
  11  15   4   26.40   13.00
 -11  15  -4   15.10   12.90
 -13 -15  -4   18.00   12.80
 -13  15   4   -5.70   12.60
 -13 -15   4   18.10   12.60
 -13  15  -4    7.30   12.30
   0  16   4   41.00   10.90
   0 -16   4   46.80   11.60
   0 -16  -4   23.30   10.20
  -2 -16  -4   22.60    9.40
  -2  16   4   21.20   10.10
   2 -16   4   31.10   10.40
   2  16   4   26.30   10.90
  -2 -16   4   62.69   13.00
   2 -16  -4   43.00    9.30
   2 -16  -4   64.29   13.80
  -4 -16  -4   33.50   10.00
  -4  16   4   40.70   11.80
   4 -16   4   41.10   10.50
   4 -16  -4   52.69   10.10
   4  16   4   29.40   10.70
  -4 -16   4   21.00   11.40
   4 -16  -4   26.30   12.00
  -6 -16  -4   35.20   10.80
  -6  16   4   25.00   12.50
   6 -16  -4   12.20    8.20
  -6  16  -4   23.50   11.20
   6 -16  -4   36.30   13.30
  -6 -16   4   49.90   13.50
   6  16   4   22.20   11.30
  -8  16   4   18.40   12.60
  -8 -16  -4   30.20   12.40
   8 -16  -4   15.90    9.30
  -8 -16   4   45.20   13.20
   8 -16  -4    0.10   11.90
  -8 -16   4   32.90   12.50
   8  16   4    2.10   11.20
  -8  16  -4   36.00   13.30
 -10  16   4   20.00   13.00
 -10 -16  -4   20.00   12.50
 -10 -16   4    6.10   11.70
 -10  16  -4   25.70   12.90
  10  16   4   33.90   13.30
 -12 -16  -4   17.20   12.20
 -12  16   4    7.40   11.70
 -12 -16   4   10.00   11.40
 -12  16  -4   19.00   12.10
  12  16   4    4.20   10.70
   1 -17   4   23.20    9.90
  -1  17   4   22.70   10.80
  -1 -17  -4   33.70   10.60
   1 -17  -4   44.90   10.10
   1  17   4   54.09   13.10
  -1 -17   4   52.99   13.00
   1 -17  -4   28.90   11.70
   3 -17   4   29.50   11.00
  -3  17   4   31.40   11.40
  -3 -17  -4   35.90   10.40
   3  17   4   37.80   12.30
   3 -17  -4   24.80   11.60
   3 -17  -4   38.90   10.10
  -3 -17   4   33.30   12.10
   5 -17   4   37.00   11.50
  -5  17   4   47.40   13.80
   5 -17  -4   32.20   10.50
  -5  17  -4   37.30   11.30
   5 -17  -4   24.50   13.40
   5  17   4   43.80   12.90
  -5 -17   4   10.10   11.80
  -7  17   4   -3.40   11.90
  -7 -17  -4    5.60   10.70
   7 -17  -4   30.70   10.70
  -7  17  -4   33.30   12.00
   7 -17  -4    7.00   11.90
   7  17   4   14.20   12.40
  -7 -17   4   10.50   11.50
  -9 -17  -4   -9.20    9.90
  -9  17   4   21.20   13.90
   9  17   4    4.50   11.30
  -9  17  -4   21.60   11.90
   9 -17  -4    9.20   12.00
  -9 -17   4   11.00   11.80
 -11 -17  -4   16.40   12.10
 -11  17   4   27.30   12.70
 -11 -17   4   18.10   11.70
 -11  17  -4   12.30   11.50
  11  17   4   10.90   11.30
   0 -18   4   29.60   12.30
   0  18   4   32.90   11.90
   0 -18  -4   25.70   11.20
   2 -18   4   41.10   12.40
  -2 -18  -4   19.00   10.00
  -2  18   4   45.40   12.70
   2 -18  -4   24.30   11.20
   2 -18  -4   20.70    9.50
   2  18   4   22.40   11.60
  -2 -18   4   35.70   12.60
  -4  18   4   13.30   10.40
  -4 -18  -4    7.20   10.20
   4 -18   4    5.40    9.90
  -4 -18   4   35.40   12.90
   4  18   4   19.90   12.10
   4 -18  -4   25.30   12.90
   4 -18  -4   25.00    9.80
  -6  18   4    7.60   12.20
   6 -18  -4   22.40   13.40
   6  18   4   21.50   11.60
  -6  18  -4   19.20   11.30
  -6 -18   4   20.20   12.70
   6 -18  -4   24.90   10.90
  -8 -18  -4   24.60   11.60
  -8  18   4    5.40   12.40
   8 -18  -4   -2.60   11.20
   8  18   4    6.30   11.60
  -8  18  -4   14.70   12.30
  -8 -18   4   -1.40   11.50
 -10 -18  -4   21.90   11.40
 -10  18   4   13.90   12.70
 -10  18  -4   11.80   10.90
  10  18   4   11.60   10.70
  -1 -19  -4   -6.70    9.90
  -1  19   4   -3.80    9.10
   1 -19   4  -12.60    8.90
  -1 -19   4   16.70   10.30
   1  19   4    1.90   10.20
   1 -19  -4    7.90   10.20
  -3 -19  -4   -4.30    9.80
   3 -19   4   -0.30   10.20
  -3  19   4    2.00   10.70
   3 -19  -4  -10.70    9.80
   3 -19  -4    5.80    9.80
   3  19   4   -7.00   10.20
  -3 -19   4    8.70   11.50
  -5  19   4   -3.60   11.50
   5 -19   4    9.10   10.30
  -5 -19   4   18.50   12.60
   5  19   4   15.70   12.10
   5 -19  -4   -3.70   11.90
  -7  19   4   -1.30   12.30
   7  19   4    3.30   11.20
   7 -19  -4   29.90   13.50
  -7 -19   4   -0.60   11.50
  -9 -19  -4   -7.20    9.90
  -9  19   4  -13.20   11.50
   9  19   4    5.50   10.30
  -9  19  -4    0.20   10.40
   0 -20   4   -9.40   10.10
   0 -20  -4   14.70   11.30
   0  20   4    4.40   11.20
   2 -20   4    8.80   11.60
  -2 -20  -4   -6.70    9.80
  -2  20   4    2.10   11.30
   2  20   4   -1.30   10.60
  -2 -20   4    7.90   11.40
   2 -20  -4   10.90   12.40
   4 -20   4    7.50   11.20
  -4 -20  -4   22.20   12.10
  -4  20   4   -6.50   10.80
   4 -20  -4   -6.10   11.50
  -4 -20   4    2.30   12.60
   4  20   4   13.10   11.80
  -6  20   4   10.90   12.60
   6  20   4   -2.20   11.20
   6 -20  -4    9.50   13.10
  -6 -20   4   22.30   13.50
  -8  20   4    5.80   12.40
   8  20   4   27.90   12.00
   8 -20  -4   -0.50   11.50
  -8 -20   4    3.40   16.30
   1 -21   4    4.50   11.00
  -1 -21  -4   13.20   12.00
  -1  21   4    8.70   11.90
   1 -21  -4    3.20   11.10
  -1 -21   4   14.50   12.10
   1  21   4  -15.90    9.70
  -3  21   4   23.40   12.60
  -3 -21  -4    8.50   11.20
   3 -21   4   18.60   12.10
   3 -21  -4   -8.30   11.20
  -3 -21   4    6.20   11.80
   3  21   4  -10.90   10.00
  -5  21   4   21.00   12.70
   5  21   4   14.50   11.70
   5 -21  -4   14.00   12.90
  -5 -21   4   34.60   13.70
  -7  21   4   11.00   12.90
   7  21   4    4.00   10.50
  -7 -21   4   -0.40   12.10
   7 -21  -4   -2.60   10.50
   0 -22   4   -0.90   11.20
   0 -22  -4  -15.40   11.10
   0  22   4   -8.80   10.30
  -2  22   4   16.50   12.10
  -2 -22  -4    5.40   11.60
   2 -22   4   -3.80   11.60
   2 -22  -4   18.10   12.40
   2  22   4  -10.00   10.30
  -2 -22   4   -4.50   10.90
   4 -22   4   -9.50    9.90
  -4  22   4   -7.70   11.20
  -4 -22   4   10.90   12.40
   4  22   4    6.70   10.70
   4 -22  -4    1.90   11.40
  -6  22   4    3.80   11.90
  -6 -22   4    8.30   11.30
   6 -22  -4   -2.40   11.20
   6  22   4   16.80   10.60
  -1 -23  -4    0.10   12.00
   1 -23   4   -7.90   10.10
  -1  23   4   -2.00   10.10
   1  23   4  -14.70    9.50
   1 -23  -4    3.30   12.60
  -1 -23   4   -0.10   11.00
  -3 -23  -4   11.80   12.10
  -3  23   4    7.10   11.40
   3 -23   4    3.50   10.70
   3 -23  -4   11.80   12.10
  -3 -23   4    5.30   11.40
   3  23   4    7.50   10.00
  -5  23   4   -0.40   10.80
  -5 -23   4   -6.90   11.00
   5 -23  -4    6.10   11.80
   0 -24  -4    6.30   11.80
   0 -24   4  -13.90    9.50
   0  24   4   11.40   10.20
  -2  24   4   17.90   11.30
   2 -24   4   15.80   15.90
   2  24   4   -6.70   12.00
   2 -24  -4    4.00   11.00
  -2 -24   4    1.50    9.90
   0   0  -5 1222.28   34.40
   2   0  -5 1259.87   34.80
  -2   0  -5 1294.07   36.30
   4   0  -5  997.10   27.00
  -6   0   5  684.63   24.70
  -6   0  -5  639.14   24.80
  -6   0   5  649.54   25.80
  -8   0   5  404.36   19.20
  -8   0  -5  402.86   21.40
  -8   0  -5  407.46   20.40
  -8   0   5  417.66   21.30
 -10   0  -5  275.47   18.80
 -10   0   5  219.88   18.10
 -12   0   5  111.39   15.80
  14   0   5   89.99   17.10
  16   0   5   53.29   14.90
   1   1  -5 2353.46   61.79
  -1  -1  -5 2310.77   62.39
  -1   1  -5 2357.96   62.39
   1  -1  -5 2356.36   61.79
  -3  -1  -5 1102.29   32.30
   3   1  -5 1100.79   30.40
   3  -1  -5 1117.69   30.00
  -3   1  -5 1085.49   32.10
   5   1  -5 1771.72   45.80
  -5  -1   5 1717.43   56.79
  -7  -1  -5  596.84   24.90
  -7   1   5  637.94   25.70
  -7  -1  -5  603.04   27.00
  -7   1   5  629.64   24.20
   7   1  -5  615.24   17.80
  -7  -1   5  617.84   24.40
  -7   1  -5  646.24   25.20
  -7   1  -5  595.84   25.70
  -7  -1   5  633.14   26.60
  -9  -1  -5  479.85   24.70
   9   1  -5  495.45   15.60
  -9  -1  -5  488.75   23.70
  -9   1   5  466.65   23.60
  -9   1   5  497.05   21.90
  -9   1  -5  450.95   23.10
  -9  -1   5  467.95   21.80
  -9  -1   5  429.06   24.20
 -11   1   5  421.66   24.00
 -11   1  -5  399.06   23.80
 -11  -1   5  410.36   25.30
 -13  -1   5  131.39   18.80
  13   1   5  119.99   17.50
  15  -1   5  127.69   19.60
  15   1   5  146.59   21.00
   0  -2  -5   33.20    4.10
   0   2  -5   29.80    4.00
  -2  -2  -5   60.39    5.20
   2   2  -5   51.69    4.30
  -2   2  -5   57.59    5.10
   2  -2  -5   54.79    4.20
   4   2  -5   54.99    4.20
   4  -2  -5   51.79    3.20
  -6  -2  -5   55.69    9.20
  -6   2   5   45.20    7.00
   6   2  -5   45.10    3.90
  -6   2   5   41.20    7.20
  -6  -2   5   58.89    7.80
  -6  -2   5   46.80    7.80
  -6   2  -5   41.30    6.90
  -8   2   5   46.90    7.90
  -8   2   5   62.49    9.50
  -8  -2  -5   53.89   10.60
   8   2  -5   56.89    5.10
  -8  -2   5   60.19   10.30
  -8  -2   5   54.59    8.70
  -8   2  -5   52.69    8.70
 -10   2   5   69.19   11.30
 -10  -2  -5   49.60   11.10
 -10   2  -5   52.09   10.40
 -10  -2   5   44.70   11.20
  10   2   5   63.19   11.40
 -12  -2  -5   26.40   10.90
 -12   2  -5   57.99   12.30
 -12  -2   5   61.29   14.10
  12   2   5   51.49   12.60
  14  -2   5   39.70   14.60
 -14  -2   5   12.30   11.90
  14   2   5   42.50   14.60
  16  -2   5    0.00   13.40
  16   2   5   42.70   13.20
   1   3  -5 1399.96   38.40
  -1  -3  -5 1340.17   38.90
   1  -3  -5 1360.66   38.20
  -1   3  -5 1396.06   38.90
  -3  -3  -5  647.64   21.00
   3   3  -5  602.24   19.20
   3  -3  -5  628.74   18.50
  -5  -3  -5 1145.69   40.10
  -5   3   5 1116.29   36.00
   5   3  -5 1133.09   31.90
  -5  -3   5 1090.69   36.10
   5   3   5 1143.69   36.40
  -5  -3   5 1174.48   38.50
  -7   3   5  434.36   19.70
  -7  -3  -5  430.36   22.60
  -7   3   5  401.46   18.70
   7   3  -5  417.46   14.70
  -7   3  -5  397.16   19.00
   7   3   5  420.96   20.00
  -7  -3   5  410.46   18.90
  -7  -3   5  419.36   21.40
  -9   3   5  372.46   19.90
  -9   3   5  356.16   18.70
  -9  -3  -5  301.07   21.30
  -9  -3   5  374.96   22.40
   9   3   5  369.46   21.10
  -9   3  -5  356.56   20.50
  -9  -3   5  374.86   19.70
 -11  -3  -5  347.57   23.80
 -11   3  -5  397.06   23.60
  11   3   5  317.37   22.90
 -11  -3   5  276.07   23.20
 -13  -3  -5  114.39   17.00
 -13   3  -5   58.89   13.50
  13   3   5  108.19   17.20
 -13  -3   5  123.79   18.60
  15  -3   5  136.59   20.10
  15   3   5   94.89   16.70
 -15  -3   5  158.58   20.50
   0   4  -5  927.31   27.60
   0  -4  -5  905.91   27.80
   2   4  -5  932.61   27.90
  -2  -4  -5  950.90   29.00
  -2   4  -5  957.90   28.50
   2  -4  -5  918.91   27.30
   4   4  -5  739.93   22.50
   4  -4  -5  712.23   20.60
  -6   4   5  481.15   20.10
  -6   4   5  476.05   20.20
   6   4  -5  474.55   16.70
  -6  -4  -5  492.55   24.20
  -6  -4   5  484.45   20.40
   6   4   5  460.55   20.60
  -6  -4   5  496.55   22.80
  -6   4  -5  486.75   20.00
  -8   4   5  336.27   17.20
  -8   4   5  325.97   17.20
  -8  -4  -5  295.07   20.90
  -8  -4   5  311.97   20.20
   8   4   5  292.77   17.90
  -8   4  -5  308.67   17.40
  -8  -4   5  310.47   17.10
 -10  -4  -5  200.48   19.20
 -10   4  -5  174.28   16.80
  10   4   5  193.08   16.90
 -10  -4   5  230.18   20.30
 -12  -4  -5   58.59   13.40
 -12   4  -5  124.59   17.70
  12   4   5   91.69   15.40
 -12  -4   5  101.09   17.70
  14   4   5   40.40   14.00
 -14  -4   5   60.39   15.90
  16  -4   5   32.20   14.30
 -16  -4   5   42.00   21.60
  16   4   5   32.60   12.80
  -1  -5  -5 1967.10   54.59
   1   5  -5 1944.11   53.69
  -1   5  -5 1969.80   53.89
   1  -5  -5 1941.81   53.69
   3   5  -5 1014.10   30.60
  -3  -5  -5 1061.89   32.00
   3  -5  -5 1024.10   29.90
  -5   5   5 1375.26   43.10
  -5  -5  -5 1374.76   47.30
   5   5  -5 1354.06   39.40
  -5  -5   5 1360.16   42.90
   5   5   5 1385.26   43.60
  -5   5  -5 1422.96   45.10
  -5  -5   5 1347.27   45.50
  -7   5   5  594.44   24.30
  -7   5   5  570.64   23.80
  -7  -5  -5  577.34   28.10
  -7   5   5  599.44   23.40
   7   5   5  517.55   24.20
  -7   5  -5  567.44   23.60
  -7  -5   5  552.64   23.90
  -7  -5   5  572.64   27.10
  -9  -5  -5  438.46   26.30
  -9   5   5  394.46   20.90
   9   5   5  405.96   22.60
  -9  -5   5  429.56   25.90
  -9   5  -5  415.96   22.30
  -9  -5   5  443.96   21.50
 -11  -5  -5  304.37   23.80
  11   5   5  284.77   22.40
 -11   5  -5  316.07   22.00
 -11  -5   5  299.17   24.30
 -13  -5  -5  104.19   17.80
 -13  -5   5  110.89   19.80
 -13   5  -5  105.89   17.70
  13   5   5   94.79   16.00
 -15  -5   5  126.99   20.30
  15   5   5  103.99   17.10
   0  -6  -5   46.80    5.90
  -2  -6  -5   49.00    6.30
   2  -6  -5   64.69    6.10
  -4  -6  -5   35.70    7.60
  -4   6   5   49.99    7.30
   4   6   5   60.59    8.00
   4  -6  -5   49.70    5.00
  -4  -6   5   66.69    7.80
  -4  -6   5   58.99    8.60
  -6  -6  -5   56.29   10.50
  -6   6   5   57.29    8.10
  -6   6   5   56.79    8.50
  -6   6  -5   51.79    7.70
  -6  -6   5   41.00    8.90
   6   6   5   50.89    8.50
  -6  -6   5   54.99    8.20
  -8  -6  -5   42.50   10.40
  -8   6   5   49.60    8.50
  -8   6   5   63.19    9.60
  -8   6  -5   63.99   10.00
  -8  -6   5   56.99   11.10
   8   6   5   47.80    9.70
  -8  -6   5   54.09    9.00
 -10  -6  -5   45.30   12.40
 -10   6  -5   27.00   10.10
  10   6   5   44.50   10.90
 -10  -6   5   47.80   12.90
 -12  -6  -5   24.90   12.10
 -12  -6   5   32.40   13.80
  12   6   5   10.10   10.60
 -12   6  -5   22.00   11.80
 -14  -6  -5   21.70   13.30
 -14  -6   5   31.30   16.00
 -14   6  -5   36.20   13.60
  14   6   5   36.90   13.80
  16  -6   5   25.70   14.10
  -1  -7  -5  487.35   18.50
   1  -7  -5  416.36   17.30
  -3  -7  -5  222.48   15.00
  -3  -7  -5  231.18   12.20
  -3   7   5  205.38   12.50
   3  -7  -5  221.38   10.80
  -3  -7   5  188.68   12.50
   3   7   5  222.28   13.20
  -5  -7  -5  465.55   23.70
  -5   7   5  502.25   21.70
  -5   7   5  496.65   20.40
  -5  -7   5  449.66   20.80
  -5  -7   5  436.46   22.40
   5  -7  -5  433.66   16.00
  -5   7  -5  471.75   19.40
   5   7   5  466.15   21.10
  -7  -7  -5  194.88   17.00
  -7   7   5  173.38   13.50
  -7   7   5  198.48   13.90
  -7  -7   5  174.88   13.60
  -7   7  -5  181.78   13.50
  -7  -7   5  186.68   16.20
   7   7   5  169.38   14.10
  -9   7   5  196.58   15.70
  -9  -7  -5  174.78   18.70
  -9   7   5  201.98   15.90
  -9   7  -5  197.48   16.30
   9   7   5  194.38   17.50
  -9  -7   5  196.58   15.70
  -9  -7   5  179.18   18.70
 -11  -7  -5  194.38   21.20
 -11  -7   5  141.69   21.50
  11   7   5  164.78   19.10
 -11   7  -5  180.98   19.50
 -13  -7  -5   68.19   17.10
  13   7   5   67.49   15.20
 -13  -7   5   79.89   19.60
 -13   7  -5   81.79   17.30
 -15  -7  -5   93.69   17.70
 -15   7  -5   90.49   16.90
  15   7   5   65.09   15.10
 -15  -7   5   65.99   17.90
   0   8   5  436.66   19.00
   0   8   5  458.75   20.20
   0  -8   5  434.26   19.20
   0  -8  -5  408.26   17.90
  -2   8   5  396.86   18.70
  -2   8   5  409.36   18.50
  -2  -8  -5  400.46   19.80
  -2  -8  -5  397.86   17.70
   2   8   5  365.26   18.50
   2  -8  -5  356.46   16.30
  -2  -8   5  403.36   18.40
  -4   8   5  361.86   17.70
  -4  -8  -5  346.87   20.00
  -4   8   5  328.97   17.40
  -4  -8   5  324.87   18.50
   4  -8  -5  331.77   14.20
   4   8   5  353.06   18.20
  -4  -8   5  344.87   17.80
  -4   8  -5  349.37   15.70
  -6   8   5  229.88   15.00
  -6   8   5  203.08   14.80
  -6  -8  -5  219.88   17.40
  -6   8  -5  250.17   14.80
   6   8   5  219.68   15.80
   6  -8  -5  226.48   10.80
  -6  -8   5  222.58   16.90
  -6  -8   5  217.68   14.90
  -8   8   5  154.38   14.10
  -8   8   5  162.98   14.40
  -8  -8  -5  130.99   16.90
  -8  -8   5  151.28   16.90
  -8  -8   5  153.28   13.80
  -8   8  -5  174.18   14.80
   8   8   5  155.88   15.10
 -10  -8  -5  114.69   18.50
 -10   8   5   78.29   12.10
 -10   8  -5  123.99   16.60
  10   8   5  108.29   15.30
 -10  -8   5   84.69   16.30
 -12  -8  -5   43.90   15.10
  12   8   5   48.60   14.40
 -12  -8   5   61.49   17.30
 -12   8  -5   19.40   12.80
 -14  -8  -5   51.99   16.00
 -14  -8   5   38.60   17.50
 -14   8  -5   26.40   13.90
  14   8   5   26.80   13.60
   1  -9   5  961.20   33.20
  -1   9   5  926.71   33.00
  -1  -9  -5  949.01   33.90
  -1  -9  -5  929.51   32.40
  -1   9   5  922.81   34.00
   1  -9  -5  916.41   31.60
   1   9   5  923.01   33.00
   1   9   5  910.51   33.90
  -1  -9   5  934.21   33.70
   3  -9   5  570.94   23.00
  -3  -9  -5  561.64   25.80
  -3   9   5  568.04   24.00
  -3   9   5  552.54   23.80
   3  -9  -5  538.15   21.10
   3   9   5  536.25   24.20
  -3  -9   5  577.14   24.60
  -3  -9   5  557.14   24.30
  -5   9   5  697.43   28.80
  -5   9   5  658.83   27.90
  -5  -9  -5  687.63   30.90
  -5   9  -5  683.93   26.50
  -5  -9   5  645.54   28.40
   5   9   5  700.83   28.60
   5  -9  -5  718.33   23.70
  -5  -9   5  685.93   30.20
  -7   9   5  306.97   18.60
  -7   9   5  275.07   18.20
  -7  -9  -5  281.97   21.10
   7   9   5  329.47   20.30
  -7  -9   5  298.67   21.30
  -7   9  -5  262.57   17.40
  -7  -9   5  277.87   17.90
  -9   9   5  192.18   17.10
  -9   9   5  232.48   18.30
  -9  -9  -5  210.68   21.20
  -9  -9   5  217.88   17.80
  -9   9  -5  231.48   18.50
   9   9   5  246.48   20.60
  -9  -9   5  191.78   20.30
 -11   9   5  163.08   18.10
 -11  -9  -5  208.18   23.70
 -11  -9   5  138.59   21.10
 -11   9  -5  177.08   20.90
  11   9   5  183.68   21.60
 -13  -9  -5   73.39   17.00
 -13  -9   5   63.39   18.90
 -13   9  -5   59.29   16.10
  13   9   5   73.99   15.50
 -15  -9  -5   86.89   17.40
 -15   9  -5   50.99   14.90
  15   9   5   76.69   14.70
 -15  -9   5   68.99   18.00
   0 -10   5   56.89    9.20
   0 -10  -5   42.50    7.70
   0  10   5   51.09    8.90
   0 -10  -5   63.29    9.40
   0  10   5   43.10    8.60
  -2 -10  -5   60.09    9.80
  -2 -10  -5   41.30    7.70
  -2  10   5   53.49    8.80
  -2  10   5   39.40    8.10
   2 -10   5   34.40    7.80
   2  10   5   45.30    8.30
   2  10   5   46.90    8.30
   2 -10  -5   39.00    7.00
  -2 -10   5   37.80    7.90
  -4  10   5   56.69    9.50
  -4 -10  -5   58.49   10.20
  -4  10   5   36.00    8.00
   4 -10  -5   61.59    8.00
  -4  10  -5   56.59   10.20
  -4 -10   5   46.00    9.20
   4  10   5   21.90    7.20
  -4 -10   5   49.10    9.10
  -6  10   5   39.00    9.00
  -6 -10  -5   33.00    9.90
  -6  10   5   19.40    7.50
   6 -10  -5   45.50    6.60
  -6 -10   5   29.40    9.10
  -6 -10   5   64.89   10.80
  -6  10  -5   43.10    8.60
   6  10   5   28.10    8.80
  -8 -10  -5   22.50    9.90
  -8  10   5   22.20    9.20
  -8  10   5   43.50   10.30
   8 -10  -5   32.80    6.30
  -8 -10   5   55.59   11.10
   8  10   5   46.80   11.30
  -8  10  -5   29.10    9.20
  -8 -10   5   33.90   10.80
 -10  10   5   33.00   11.00
 -10 -10  -5   24.40   12.30
  10 -10  -5   38.90    7.10
 -10  10  -5   22.90   10.90
  10  10   5   22.60   11.30
 -10 -10   5   50.49   14.80
 -12  10   5   35.80   11.80
 -12 -10  -5   20.40   14.00
 -12  10  -5   22.20   13.30
 -12 -10   5    3.10   13.00
  12  10   5   16.10   12.50
 -14 -10  -5   60.49   16.10
  14  10   5   28.10   12.60
 -14 -10   5    1.60   14.90
 -14  10  -5    9.00   12.80
  -1 -11  -5  124.79   12.40
  -1  11   5  117.49   12.50
  -1 -11  -5  114.49   11.60
  -1  11   5  101.89   11.60
   1 -11   5  108.99   11.80
   1 -11  -5   99.39   10.70
  -1 -11   5   92.69   12.30
   1  11   5   95.79   11.90
   1  11   5   99.79   12.20
  -3  11   5   60.29   10.10
   3 -11   5   58.79    9.30
  -3 -11  -5   76.89   11.30
  -3 -11  -5   53.79    9.80
  -3  11   5   75.89   11.20
   3 -11  -5   57.39    8.40
   3  11   5   50.09    9.70
  -3 -11   5   49.80    9.70
  -5 -11  -5  155.38   15.40
  -5  11   5  138.79   14.40
  -5  11   5  142.19   13.80
  -5  11  -5  142.19   12.50
   5  11   5  145.39   15.50
  -5 -11   5   98.59   12.90
  -5 -11   5  133.49   14.30
   5 -11  -5  127.59   10.60
  -7  11   5   58.89   11.50
  -7  11   5   51.79   11.50
  -7 -11  -5   46.90   12.00
  -7  11  -5   67.39   11.60
   7  11   5   62.39   12.40
   7 -11  -5   48.80    7.40
  -7 -11   5   45.60   10.70
  -7 -11   5   47.90   11.40
  -9 -11  -5   68.09   15.40
  -9  11   5   81.29   13.50
  -9  11   5   54.59   12.80
   9  11   5   60.79   13.40
  -9 -11   5   97.19   16.80
  -9  11  -5   66.69   13.10
   9 -11  -5   62.49    8.40
  -9 -11   5   53.69   11.40
 -11  11   5   85.59   15.00
 -11 -11  -5   82.59   17.20
  11 -11  -5   66.19    8.60
  11  11   5   67.79   15.20
 -11 -11   5   61.29   16.90
 -11  11  -5   61.49   15.40
 -13 -11  -5   40.60   15.50
 -13 -11   5   10.40   14.10
 -13  11  -5   21.60   14.10
  13  11   5   25.60   13.40
   0  12   5  118.19   13.20
   0  12   5  102.49   13.40
   0 -12  -5  127.99   12.40
   0 -12   5  113.29   13.50
  -2 -12  -5  109.59   12.70
  -2 -12  -5  119.29   13.30
  -2  12   5  100.09   13.10
   2 -12   5   95.69   12.10
  -2  12   5   80.39   11.90
   2 -12  -5  109.99   11.10
  -2 -12   5   93.99   12.70
   2  12   5   72.79   11.50
  -4 -12  -5   88.19   12.90
  -4  12   5  115.99   13.40
  -4  12   5  105.49   13.60
   4 -12   5   88.39   11.70
  -4 -12   5   93.89   12.60
  -4 -12   5   90.19   13.50
   4  12   5   81.99   12.70
   4 -12  -5   91.79   10.10
  -6  12   5   49.90   10.80
  -6  12   5   63.19   12.30
  -6 -12  -5   88.99   14.30
  -6 -12   5   86.89   13.90
  -6  12  -5   94.59   12.90
   6  12   5   87.99   14.00
   6 -12  -5   78.19    9.80
  -6 -12   5   72.99   13.00
  -8  12   5   67.99   12.50
  -8  12   5   48.20   12.10
  -8 -12  -5   49.10   13.20
   8 -12  -5   41.50    7.90
  -8  12  -5   30.30   10.50
   8  12   5   56.69   12.80
  -8 -12   5   53.79   13.40
  -8 -12   5   39.00   10.70
 -10  12   5   39.00   12.50
 -10 -12  -5   13.40   11.90
  10 -12  -5   33.00    7.90
  10  12   5   24.30   13.20
 -10  12  -5   35.30   13.30
 -10 -12   5   55.49   16.00
 -12  12   5   15.80   11.40
 -12 -12  -5   30.60   14.60
  12  12   5    1.50   11.40
 -12 -12   5   29.20   14.80
 -12  12  -5    8.40   13.70
 -14 -12  -5    5.50   13.00
 -14 -12   5   32.50   15.10
  14  12   5   13.70   11.80
 -14  12  -5   16.10   13.10
   1 -13   5  267.17   19.10
  -1  13   5  292.87   20.60
  -1 -13  -5  303.87   18.80
  -1  13   5  283.37   19.80
  -1 -13  -5  281.37   19.90
   1 -13  -5  318.47   18.40
  -1 -13   5  267.17   20.30
   1  13   5  266.27   19.00
  -3 -13  -5  224.38   17.10
  -3 -13  -5  171.98   16.20
  -3  13   5  169.08   16.10
   3 -13   5  171.68   15.50
  -3  13   5  167.98   16.90
   3  13   5  163.68   16.70
  -3 -13   5  193.68   17.70
   3 -13  -5  222.78   15.10
  -5 -13  -5  216.58   19.10
  -5  13   5  191.88   17.60
  -5  13   5  216.38   19.10
  -5 -13   5  207.48   19.60
   5  13   5  201.68   19.40
  -5  13  -5  222.88   17.10
  -5 -13   5  233.18   18.20
   5 -13  -5  217.78   14.60
  -7 -13  -5  104.79   16.00
  -7  13   5  110.49   15.70
  -7  13   5  120.19   17.20
   7 -13  -5   94.59   11.90
   7  13   5  103.79   16.30
  -7 -13   5  100.69   15.20
  -7 -13   5  129.59   17.60
  -7  13  -5  108.79   15.20
  -9  13   5   65.79   13.60
  -9 -13  -5   80.19   16.60
   9 -13  -5   93.29   11.20
   9  13   5   81.49   16.70
  -9 -13   5   78.29   14.40
  -9 -13   5   99.49   16.90
  -9  13  -5   98.29   16.20
 -11  13   5   86.69   15.60
 -11 -13  -5   59.29   16.60
  11  13   5   37.30   14.50
 -11  13  -5   74.59   16.50
 -11 -13   5  104.69   17.90
 -13 -13  -5   66.99   16.50
 -13  13  -5    3.60   12.20
  13  13   5   35.50   14.00
 -13 -13   5   19.40   14.10
   0 -14   5   29.40    9.60
   0  14   5   28.40   10.20
   0 -14  -5   19.70    9.10
   0 -14  -5   27.10    8.20
  -2 -14  -5   23.20    9.20
  -2  14   5   41.80   10.40
   2 -14   5   20.00    8.90
  -2 -14  -5   39.90   10.30
   2 -14  -5   33.10    8.40
  -2 -14   5    6.00    8.50
   2  14   5   10.30    7.90
  -4 -14  -5   15.30    9.00
  -4  14   5   15.40    9.00
  -4 -14  -5   38.00   10.30
   4 -14   5   30.20    9.40
  -4  14   5    7.00    8.90
   4  14   5   14.70    9.90
   4 -14  -5   29.50    8.10
  -4 -14   5   18.50   10.40
  -6  14   5   29.90   11.10
  -6 -14  -5   20.10   10.00
  -6  14   5   18.10   10.80
   6 -14  -5   24.10    7.80
  -6  14  -5    9.40    8.60
  -6 -14   5   39.10   11.00
  -6 -14   5   21.80   10.90
   6  14   5   20.30   10.20
  -8  14   5   17.60   10.60
  -8 -14  -5   13.30   11.80
  -8 -14   5   22.00   11.40
   8 -14  -5   10.30    7.60
   8  14   5   21.40   12.70
  -8  14  -5   21.80   10.60
  -8 -14   5    8.10    9.90
 -10 -14  -5    0.10   11.80
 -10  14   5   11.80   11.60
  10  14   5   28.30   13.50
 -10 -14   5   13.30   12.30
 -10  14  -5   22.30   12.30
 -12 -14  -5  -18.10   11.20
 -12  14   5   -1.60   11.10
 -12 -14   5   22.40   13.40
  12  14   5   23.60   12.80
 -12  14  -5   -8.50   12.10
  -1  15   5   46.40   11.50
   1 -15   5   11.40    8.50
  -1 -15  -5   15.20    9.20
   1  15   5   22.30   10.00
  -1 -15   5   18.30    9.60
   1 -15  -5   28.00   10.60
   1 -15  -5   25.80    8.30
  -3 -15  -5    2.80    7.50
  -3 -15  -5   27.30    9.20
  -3  15   5    4.50    8.20
   3 -15   5    7.00    8.20
  -3 -15   5    1.00    9.50
   3 -15  -5   13.40    7.20
   3  15   5   23.90    9.70
  -5  15   5   26.70   10.80
  -5 -15  -5   48.80   11.40
  -5 -15   5   17.20   10.40
   5  15   5   33.10   11.90
   5 -15  -5   32.60    8.50
  -7 -15  -5   23.60   12.20
  -7  15   5   14.10   11.10
  -7  15  -5    8.40   10.60
   7 -15  -5   17.30    8.40
  -7 -15   5   10.10   10.00
  -7 -15   5   28.40   11.50
   7  15   5    5.30   10.80
   7 -15  -5   18.60   12.20
  -9 -15  -5    4.70   11.50
  -9  15   5    5.70   11.90
  -9  15  -5   29.50   12.90
   9  15   5   26.80   13.30
  -9 -15   5    3.40   10.90
  -9 -15   5   23.00   12.20
   9 -15  -5   26.80   13.40
 -11  15   5   -0.10   10.90
 -11 -15  -5   10.10   12.70
  11  15   5   16.50   12.40
 -11  15  -5   18.60   12.50
 -11 -15   5    9.70   12.50
   0 -16  -5   14.40   10.30
   0  16   5   17.70    9.80
   0 -16   5   15.90    9.70
  -2 -16  -5   15.80    9.40
   2 -16   5   36.30   10.60
  -2  16   5   18.10   10.80
   2  16   5   23.00   11.00
   2 -16  -5   18.00    8.20
  -2 -16   5   28.00   11.20
   2 -16  -5   18.70   11.20
  -4 -16  -5   10.60    8.30
  -4 -16  -5   26.30    9.70
  -4  16   5   12.10   10.50
   4 -16   5   14.50    9.40
  -4 -16   5   33.80   12.00
   4  16   5    5.50    9.60
   4 -16  -5   19.70    8.30
   4 -16  -5   13.70   11.60
  -6 -16  -5   12.00   10.30
  -6  16   5   17.20   11.40
   6 -16  -5    4.70   12.70
   6 -16  -5   18.50    9.10
  -6 -16   5   29.40   12.80
   6  16   5   14.90   11.10
  -8  16   5   10.80   12.80
  -8 -16  -5   13.60   11.60
   8  16   5   11.50   12.80
  -8 -16   5    0.60   10.70
   8 -16  -5   11.00   12.80
  -8  16  -5   -3.40    9.90
  -8 -16   5    9.40   11.40
 -10  16   5   14.90   13.10
 -10 -16  -5   -8.90   10.90
 -10 -16   5   11.90   11.80
 -10  16  -5    1.20   11.40
  10  16   5    3.60   11.70
 -12  16   5    7.00   15.60
 -12 -16  -5    0.00   11.20
 -12 -16   5   -2.20   10.40
  12  16   5   20.20   12.50
  -1  17   5   56.59   13.10
   1 -17   5   79.19   14.80
  -1 -17  -5   49.00   12.50
   1 -17  -5   68.69   12.20
   1  17   5   51.89   12.90
  -1 -17   5   62.79   14.10
   1 -17  -5   64.59   14.60
   3 -17   5   36.20   11.60
  -3  17   5   30.80   12.20
  -3 -17  -5   49.99   11.90
   3 -17  -5   29.40   12.90
  -3 -17   5   21.80   11.80
   3 -17  -5   31.80   10.00
   3  17   5   25.80   11.80
  -5 -17  -5   29.20   11.50
  -5  17   5   51.09   13.60
   5 -17  -5   35.80   14.20
   5 -17  -5   24.20   10.10
  -5 -17   5   59.09   15.60
   5  17   5   56.89   14.10
  -7  17   5   27.00   12.90
  -7 -17  -5   49.99   13.40
   7  17   5   10.00   12.50
  -7 -17   5   36.10   14.00
   7 -17  -5   29.50   14.40
  -9 -17  -5    0.90   11.50
  -9  17   5  -21.90   10.80
   9  17   5   19.80   12.00
  -9  17  -5   18.30   11.80
   9 -17  -5   15.80   13.30
 -11  17   5   42.00   13.80
 -11 -17  -5   10.70   11.40
 -11 -17   5    2.90   10.80
  11  17   5    3.30   10.70
 -11  17  -5   32.10   12.50
   0 -18   5    4.00   10.30
   0  18   5   17.30   11.00
   0 -18  -5   15.00   11.50
   2 -18   5   12.70   11.20
  -2 -18  -5    7.10   10.20
  -2  18   5    1.90   10.10
   2 -18  -5   16.80   12.40
  -2 -18   5   17.50   11.10
   2  18   5   12.10   10.20
   2 -18  -5   17.50    9.10
  -4  18   5   -7.10   10.30
   4 -18   5   22.70   11.70
  -4 -18  -5   -1.80   10.20
   4  18   5   11.30   11.60
   4 -18  -5    9.80    9.60
  -4 -18   5    8.90   11.70
   4 -18  -5    2.90   11.30
  -6  18   5    7.80   12.50
   6 -18  -5   21.50   13.80
  -6 -18   5    0.50   11.90
   6  18   5   11.80   11.80
  -8  18   5  -13.60   11.60
  -8 -18  -5   13.90   11.40
  -8 -18   5   -2.40   11.60
   8  18   5   14.20   11.70
   8 -18  -5   -5.30   12.20
 -10  18   5   -5.80   11.90
 -10 -18  -5    2.20   10.40
  10  18   5   -7.90    9.60
  -1  19   5   25.60   12.20
  -1 -19  -5   -5.20   10.40
   1 -19   5    4.60   10.60
   1  19   5    8.30   10.90
  -1 -19   5   17.40   11.80
   1 -19  -5   18.30   12.10
  -3  19   5    0.00   11.80
   3 -19   5  -14.50    9.50
  -3 -19  -5    9.80   10.40
   3 -19  -5   -0.10   12.20
   3 -19  -5   -2.50    9.40
   3  19   5   17.80   12.40
  -3 -19   5    8.20   12.50
  -5  19   5    3.90   11.90
   5 -19  -5    1.20   12.80
   5  19   5    3.40   11.80
  -5 -19   5    9.10   12.80
  -7  19   5   -4.10   12.40
   7 -19  -5   -7.90   12.10
  -7 -19   5   22.70   13.60
   7  19   5    1.90   11.90
  -9 -19  -5   12.50   10.70
  -9  19   5  -14.60   10.60
   9  19   5   13.50   11.20
   9 -19  -5    0.90   14.10
   0 -20  -5   -7.90   11.20
   0 -20   5    8.90   11.80
   0  20   5    7.10   11.30
   2 -20   5   -0.50   10.80
  -2  20   5    2.20   11.50
  -2 -20  -5   -0.80   10.60
   2 -20  -5    8.00   12.50
  -2 -20   5   -0.60   11.40
   2  20   5   -4.00   11.10
  -4  20   5   10.40   12.40
   4 -20   5    7.00   11.30
   4  20   5    2.80   11.90
  -4 -20   5   27.90   13.40
   4 -20  -5   11.00   12.30
  -6  20   5   25.40   14.00
   6  20   5  -10.60   10.60
   6 -20  -5    4.20   12.20
  -6 -20   5   13.00   12.30
  -8  20   5   10.80   12.70
  -8 -20   5   11.80   12.90
   8 -20  -5   -0.70   12.00
   8  20   5   11.60   11.60
  -1 -21  -5   12.70   12.90
  -1  21   5    9.90   11.80
   1 -21   5   14.20   11.90
   1 -21  -5   19.50   12.60
   1  21   5   14.90   12.30
  -1 -21   5    6.60   11.90
   3 -21   5    4.90   11.10
  -3 -21  -5   11.10   11.40
  -3  21   5   -3.40   11.40
   3  21   5    5.00   11.40
   3 -21  -5    4.40   12.50
  -3 -21   5   20.40   13.20
  -5  21   5   -2.70   12.00
  -5 -21   5    6.30   12.60
   5 -21  -5   16.00   13.20
   5  21   5    5.70   11.60
  -7  21   5   11.30   12.20
   7  21   5    8.60   10.80
   7 -21  -5   -1.70   11.40
  -7 -21   5    9.60   11.90
   0  22   5   -2.40   11.10
   0 -22  -5    4.10   12.30
   0 -22   5   -4.40   10.90
  -2  22   5   13.90   12.20
  -2 -22  -5    8.30   11.60
   2 -22   5    3.30   10.90
  -2 -22   5   -5.30   11.50
   2  22   5    2.80   11.20
   2 -22  -5  -17.80   10.50
   4 -22   5   13.70   16.30
  -4  22   5   -6.50   11.00
  -4 -22   5   -5.40   11.00
   4 -22  -5    7.60   11.60
   4  22   5   -5.60   10.30
  -6  22   5   -7.10   10.90
   6  22   5    4.90   10.20
   6 -22  -5    4.90   10.80
  -6 -22   5   -2.30   11.90
   1 -23   5   -1.00   10.80
  -1 -23  -5   27.50   12.70
  -1  23   5    0.70   10.90
  -1 -23   5   -3.60   10.20
   1  23   5    3.20   10.80
   1 -23  -5   -3.70   11.80
   3 -23   5  -19.70    9.80
  -3  23   5    3.10   11.10
   3  23   5  -11.60    9.50
  -3 -23   5    2.10   11.30
   3 -23  -5   -1.70   11.10
   0   0  -6 3219.78   84.79
   2   0  -6 2203.08   59.49
  -2   0  -6 2250.87   60.79
  -4   0   6 1955.80   56.99
  -4   0   6 1944.81   58.19
   4   0  -6 1977.00   52.19
   6   0  -6 1326.87   35.30
  -6   0  -6 1294.37   41.90
  -6   0   6 1292.17   42.20
  -6   0   6 1291.07   43.50
  -6   0  -6 1289.47   44.90
  -8   0   6  667.43   27.50
  -8   0   6  673.23   29.40
   8   0  -6  685.03   19.90
  -8   0  -6  645.94   29.40
  -8   0  -6  687.63   28.30
 -10   0   6  552.04   31.30
 -10   0   6  531.55   28.10
  10   0  -6  558.94   18.00
 -12   0   6  254.67   21.60
  12   0   6  257.87   21.80
  14   0   6  181.18   22.10
  16   0   6   91.99   16.50
  -1  -1  -6  403.06   15.10
   1   1  -6  392.86   14.40
  -1   1  -6  385.76   14.80
   1  -1  -6  406.16   14.40
  -3  -1  -6  390.06   15.30
   3   1  -6  397.46   13.90
   3  -1  -6  388.76   13.60
  -3   1  -6  405.46   17.00
  -5   1   6  278.07   15.30
  -5  -1  -6  250.37   16.20
   5   1  -6  294.77   10.70
  -5   1   6  309.37   15.30
   5   1   6  280.87   14.50
   5  -1  -6  281.87   10.00
  -5  -1   6  269.27   14.40
  -5  -1   6  258.27   15.40
  -5   1  -6  291.57   14.60
  -7  -1  -6  189.48   15.30
  -7   1   6  251.27   15.00
   7   1  -6  217.18    9.00
  -7   1   6  209.88   14.90
  -7   1  -6  227.38   14.40
  -7  -1   6  233.88   14.80
  -7  -1   6  214.68   15.60
  -7   1  -6  212.08   15.30
   7  -1  -6  226.18    7.90
   9   1  -6  157.58    8.20
  -9  -1  -6  143.49   15.20
  -9   1   6  170.48   13.50
  -9   1   6  141.39   14.40
  -9  -1   6  140.49   13.40
  -9   1  -6  152.48   14.50
   9   1   6  120.99   14.30
  -9  -1   6  134.79   15.10
 -11   1   6  102.09   14.60
 -11  -1   6  111.09   15.80
  11   1   6   84.19   14.40
  13  -1   6   67.09   15.90
 -13  -1   6   62.89   14.40
  13   1   6   51.69   14.00
  15  -1   6   36.90   14.30
  15   1   6   25.90   13.40
   0   2  -6  705.73   22.50
   0  -2  -6  702.43   22.50
  -2  -2  -6  393.86   15.30
   2   2  -6  378.16   14.00
   2  -2  -6  385.26   13.90
  -2   2  -6  400.46   15.10
   4   2  -6  506.35   16.70
  -4   2   6  493.35   20.20
  -4   2   6  494.95   20.90
  -4  -2  -6  484.15   22.50
  -4  -2   6  541.55   20.60
  -4  -2   6  501.25   21.60
   4  -2  -6  503.35   16.00
  -6   2   6  412.26   19.40
  -6   2   6  423.26   19.90
   6   2  -6  429.86   14.80
  -6  -2  -6  447.06   22.80
  -6  -2   6  421.86   19.50
   6   2   6  398.56   19.40
   6  -2  -6  453.45   13.10
  -6  -2   6  452.45   21.70
  -6   2  -6  450.45   19.70
  -8  -2  -6  212.58   17.50
  -8   2   6  227.58   15.70
  -8   2   6  244.28   15.30
   8   2  -6  250.57   10.60
  -8  -2   6  213.88   15.50
   8   2   6  214.98   15.80
  -8   2  -6  234.28   15.70
  -8  -2   6  223.18   17.60
 -10  -2  -6  275.87   21.00
 -10   2   6  274.97   18.20
 -10   2   6  271.07   19.20
  10   2   6  283.47   20.50
 -10  -2   6  260.27   20.40
 -10   2  -6  256.07   19.50
 -10  -2   6  268.47   26.60
  12   2   6  135.69   18.80
 -12  -2   6  150.38   19.60
  14  -2   6  110.29   18.60
  14   2   6  106.49   18.30
 -14  -2   6  112.09   18.40
  16  -2   6  104.79   17.00
  16   2   6   83.49   15.60
   1   3  -6  218.98   10.30
  -1  -3  -6  224.48   10.80
   1  -3  -6  234.28   10.50
  -1   3  -6  257.77   11.10
   3   3  -6  237.68   10.30
  -3   3   6  230.08   12.30
  -3  -3  -6  218.48   11.30
  -3  -3   6  235.78   13.80
   3  -3  -6  224.08    9.60
  -5   3   6  153.88   11.10
  -5  -3  -6  169.38   14.20
  -5   3   6  163.08   11.90
   5   3  -6  164.68    8.50
   5  -3  -6  172.48    7.20
  -5   3  -6  175.68   11.10
   5   3   6  163.98   11.40
  -5  -3   6  182.98   11.70
  -5  -3   6  177.58   13.00
   7   3  -6  144.89    8.30
  -7   3   6  137.69   11.40
  -7  -3  -6  130.79   14.10
  -7   3   6   94.59   10.60
  -7   3  -6  144.59   11.70
   7   3   6  145.09   12.70
  -7  -3   6  132.39   13.00
  -7  -3   6  124.09   11.20
  -9  -3  -6  118.59   15.20
  -9   3   6  109.99   12.30
  -9   3   6  115.79   12.40
   9   3   6  110.89   14.20
  -9  -3   6  101.39   14.20
  -9  -3   6   95.79   12.40
  -9   3  -6   85.09   12.20
 -11  -3  -6   65.49   13.80
 -11   3  -6   75.29   13.30
 -11  -3   6   57.49   13.60
  11   3   6   97.19   14.80
 -13  -3   6   37.00   13.80
  13   3   6   29.10   14.20
  15  -3   6   20.50   13.20
  15   3   6   30.70   13.50
 -15  -3   6   42.80   13.80
   0   4  -6 2344.87   63.49
   0  -4  -6 2314.07   63.69
   2   4  -6 1603.94   45.60
  -2  -4  -6 1636.74   46.80
   2  -4  -6 1609.14   45.40
  -2   4  -6 1628.04   46.30
  -4   4   6 1456.65   44.20
   4   4  -6 1397.76   40.40
  -4  -4  -6 1376.66   47.40
  -4   4   6 1375.26   43.70
   4   4   6 1441.26   43.70
  -4  -4   6 1413.56   46.20
  -4  -4   6 1423.56   44.10
   4  -4  -6 1411.46   39.10
  -6  -4  -6  984.30   39.10
  -6   4   6 1002.30   34.60
   6   4  -6  955.70   29.90
  -6   4   6  948.41   34.40
  -6   4  -6  996.70   33.60
   6  -4  -6 1017.70   27.30
   6   4   6  989.30   35.00
  -6  -4   6  965.70   34.40
  -6  -4   6  993.10   37.30
  -8   4   6  508.85   23.80
  -8  -4  -6  516.05   28.00
  -8   4   6  533.85   24.10
  -8  -4   6  505.05   23.70
  -8   4  -6  519.05   23.90
  -8  -4   6  544.95   27.80
   8   4   6  486.45   24.40
 -10  -4  -6  412.86   26.70
 -10   4   6  423.76   22.70
 -10  -4   6  447.76   27.60
  10   4   6  430.86   24.80
 -10   4  -6  411.86   24.10
 -12  -4  -6  200.28   21.70
 -12   4  -6  195.68   20.60
  12   4   6  195.38   20.80
 -12  -4   6  188.08   22.00
 -14  -4   6  172.38   24.40
  14   4   6  142.79   21.10
  16  -4   6  109.39   22.90
  -1  -5  -6  376.86   16.20
   1   5  -6  444.36   16.20
   1  -5  -6  419.96   16.30
  -1   5  -6  443.46   16.50
  -3  -5  -6  374.76   19.40
  -3  -5  -6  370.56   15.90
   3   5  -6  391.26   15.00
  -3   5   6  375.06   16.90
  -3  -5   6  386.66   17.20
   3   5   6  358.36   17.20
  -3  -5   6  374.26   18.50
   3  -5  -6  389.16   14.40
   5   5  -6  257.67   12.40
  -5   5   6  279.07   15.00
  -5   5   6  282.07   15.40
  -5  -5  -6  304.07   18.80
   5   5   6  296.57   15.90
  -5  -5   6  290.57   15.60
  -5  -5   6  276.77   17.40
  -5   5  -6  296.67   14.50
   5  -5  -6  284.97   11.20
  -7   5   6  203.08   14.50
  -7   5   6  217.68   14.30
  -7  -5  -6  225.58   17.90
  -7  -5   6  213.08   14.70
  -7   5  -6  237.78   14.80
   7   5   6  208.38   16.00
  -7  -5   6  201.78   16.70
  -9  -5  -6  129.09   16.90
  -9   5   6  133.89   13.50
  -9   5  -6  126.59   14.30
   9   5   6  148.49   15.60
  -9  -5   6  103.49   15.70
  -9  -5   6  125.39   13.20
 -11  -5  -6   82.49   16.10
 -11   5  -6   80.89   14.30
 -11  -5   6  116.59   18.10
  11   5   6   93.59   15.60
 -13  -5  -6   77.99   16.20
 -13   5  -6   55.19   14.50
 -13  -5   6   55.89   16.10
  13   5   6   52.89   14.70
  15  -5   6   36.40   14.50
 -15  -5   6   17.30   14.10
  15   5   6   18.40   12.80
   0  -6  -6  494.25   22.90
   0  -6  -6  498.05   19.30
   2   6  -6  275.77   13.00
  -2  -6  -6  316.87   14.50
  -2  -6  -6  285.97   16.80
  -2   6   6  281.97   14.70
   2   6   6  286.17   15.10
  -2  -6   6  290.97   14.90
   2  -6  -6  297.77   13.20
  -4  -6  -6  339.17   19.80
  -4   6   6  337.57   17.10
  -4   6   6  333.77   16.50
  -4  -6   6  359.06   19.40
   4   6   6  321.37   17.20
   4  -6  -6  350.26   14.00
  -4  -6   6  356.66   17.40
  -6   6   6  304.77   16.10
  -6  -6  -6  308.27   20.40
  -6   6   6  292.47   17.00
  -6  -6   6  298.97   16.80
  -6  -6   6  301.77   19.30
  -6   6  -6  294.87   15.80
   6  -6  -6  300.07   11.80
   6   6   6  300.17   17.40
  -8   6   6  183.18   15.00
  -8  -6  -6  179.28   17.90
  -8  -6   6  203.98   14.90
   8   6   6  183.28   16.00
  -8   6  -6  160.38   13.90
  -8  -6   6  168.18   17.20
 -10  -6  -6  200.08   21.10
 -10   6   6  198.28   17.30
 -10  -6   6  213.78   22.20
 -10   6  -6  193.58   18.20
 -10  -6   6  194.18   24.00
  10   6   6  198.68   18.80
 -12  -6  -6   86.29   16.20
 -12  -6   6  101.79   19.40
 -12   6  -6  100.19   16.80
  12   6   6  119.59   17.60
 -14  -6  -6   67.69   16.50
 -14  -6   6   60.09   17.80
  14   6   6   99.49   17.40
  -1   7   6  110.69   17.40
   1  -7   6   77.49    8.10
  -1  -7  -6   82.79   10.60
  -1   7   6   86.99    8.80
  -1  -7  -6   83.49    8.60
   1  -7  -6   86.19    8.00
  -1  -7   6   72.19    8.80
   1  -7  -6   80.99    9.80
   1   7   6   73.19    9.10
   1   7   6  108.49   10.10
  -3  -7  -6   77.79    8.60
  -3   7   6   85.29    8.90
  -3   7   6   66.39    8.60
  -3  -7  -6   73.39   10.70
  -3  -7   6   71.29    9.90
   3  -7  -6   93.19    7.80
   3   7   6   89.69    9.60
  -3  -7   6   74.99    8.70
  -5  -7  -6   64.39   11.00
  -5   7   6   71.79    8.80
  -5   7   6   69.99    8.60
  -5   7   6   68.09    9.40
  -5  -7   6   48.00    9.80
   5   7   6   78.39   10.40
   5  -7  -6   56.59    6.40
  -5   7  -6   78.99    8.30
  -5  -7   6   78.79    9.50
  -7   7   6   96.89   15.90
  -7   7   6   62.59   10.30
  -7  -7  -6   63.49   12.00
   7  -7  -6   61.39    5.90
  -7  -7   6   52.59    9.40
  -7  -7   6   38.00   10.10
   7   7   6   83.59   11.90
  -7   7  -6   85.79   10.60
  -9   7   6   43.20   10.20
  -9  -7  -6   77.59   14.70
   9  -7  -6   57.29    5.50
  -9   7  -6   48.20   10.70
  -9  -7   6   66.29   11.90
   9   7   6   63.39   12.40
  -9  -7   6   61.09   13.50
 -11  -7  -6   49.10   14.70
 -11   7  -6   35.50   12.00
 -11  -7   6   47.60   15.20
  11   7   6   22.70   10.90
 -13  -7  -6   12.40   12.70
  13   7   6   32.90   13.80
 -13  -7   6    1.50   14.40
 -13   7  -6   26.00   12.90
 -15  -7  -6   14.90   12.50
 -15  -7   6   13.50   15.20
  15   7   6   21.40   12.70
   0   8   6  975.40   34.20
   0  -8  -6  910.31   34.20
   0   8   6  942.01   32.70
   0  -8   6  928.81   32.60
   0  -8  -6  902.71   31.90
  -2   8   6  653.93   26.00
  -2   8   6  653.63   26.60
  -2  -8  -6  609.84   27.70
   2  -8   6  669.83   25.10
  -2  -8  -6  668.43   25.40
   2   8   6  664.93   27.20
   2  -8  -6  598.54   23.60
   2  -8  -6  656.33   26.10
  -2  -8   6  689.03   26.90
  -2  -8   6  690.43   26.70
   2   8   6  672.93   25.70
  -4   8   6  633.94   26.20
  -4  -8  -6  590.04   28.50
  -4   8   6  598.94   25.10
   4  -8  -6  617.54   22.50
   4   8   6  599.34   26.00
   4  -8  -6  671.63   27.50
  -4  -8   6  606.04   26.10
  -4  -8   6  623.04   27.70
  -6   8   6  465.85   22.20
  -6   8   6  490.75   23.40
  -6  -8  -6  432.66   25.30
  -6  -8   6  465.15   23.20
   6   8   6  455.25   23.80
  -6  -8   6  487.45   25.70
   6  -8  -6  448.56   17.50
  -6   8  -6  519.15   21.80
  -8  -8  -6  233.78   21.00
  -8   8   6  240.08   18.20
  -8   8   6  252.67   17.70
   8  -8  -6  263.67   11.50
  -8   8  -6  243.68   17.20
  -8  -8   6  222.28   17.30
  -8  -8   6  199.08   19.90
   8   8   6  262.47   19.20
 -10   8   6  230.88   18.80
 -10  -8  -6  234.58   23.40
 -10  -8   6  239.48   23.40
  10  -8  -6  236.88   11.00
  10   8   6  175.28   19.10
 -10   8  -6  229.88   20.50
 -12  -8  -6  103.69   18.80
 -12  -8   6   92.69   19.50
  12   8   6   78.49   16.80
 -12   8  -6  108.79   18.10
 -14  -8  -6   86.29   18.20
 -14  -8   6   49.00   17.70
  14   8   6   81.49   16.00
 -14   8  -6   78.69   16.00
  -1  -9  -6  264.27   15.50
  -1  -9  -6  248.38   16.80
  -1   9   6  277.87   16.40
  -1   9   6  247.48   15.40
   1  -9   6  225.98   14.50
   1  -9  -6  243.18   14.30
   1   9   6  256.87   15.50
   1  -9  -6  255.27   16.10
  -1  -9   6  284.87   16.30
   1   9   6  268.97   16.70
  -3   9   6  214.18   14.50
  -3   9   6  192.78   14.00
  -3  -9  -6  193.58   16.10
   3  -9   6  225.08   13.70
   3  -9  -6  200.48   12.40
  -3  -9   6  208.38   15.00
   3  -9  -6  221.28   18.40
  -3  -9   6  233.68   15.50
   3   9   6  229.48   16.00
  -5   9   6  177.88   14.10
  -5   9   6  174.38   14.90
  -5  -9  -6  160.88   16.20
   5   9   6  191.98   15.80
   5  -9  -6  185.68   11.20
  -5  -9   6  140.79   14.90
  -5  -9   6  202.18   15.60
  -7  -9  -6  122.69   17.00
  -7   9   6  135.99   14.30
  -7   9   6  114.99   13.20
   7  -9  -6  138.99    9.60
   7   9   6  123.29   15.50
  -7  -9   6   95.09   14.80
  -7   9  -6  149.19   13.20
  -7  -9   6  132.49   14.40
  -9   9   6   86.49   13.00
  -9  -9  -6   74.79   15.10
  -9   9   6   75.09   12.60
  -9   9  -6   59.49   12.00
   9  -9  -6   81.39    8.40
  -9  -9   6   97.59   13.70
   9   9   6   87.89   14.70
  -9  -9   6   90.79   15.50
 -11  -9  -6   83.59   17.10
 -11  -9   6   23.40   13.70
 -11   9  -6   23.10   12.60
  11   9   6   59.69   14.40
 -13  -9  -6   18.70   14.50
  13   9   6   50.99   15.40
 -13  -9   6   37.30   16.90
 -13   9  -6   44.10   15.20
   0  10   6  272.27   16.90
   0 -10   6  244.88   15.90
   0 -10  -6  221.78   15.10
   0 -10  -6  268.17   16.70
   0  10   6  232.88   15.80
  -2 -10  -6  167.58   13.50
  -2 -10  -6  148.99   14.30
  -2  10   6  148.49   13.60
  -2  10   6  145.59   13.10
   2 -10   6  159.48   12.70
   2  10   6  132.69   12.90
   2 -10  -6  171.88   12.20
   2 -10  -6  175.18   15.60
   2  10   6  162.98   14.00
  -2 -10   6  155.18   13.70
  -4  10   6  179.68   14.30
  -4  10   6  189.98   15.30
  -4 -10  -6  200.28   17.50
   4  10   6  173.68   15.90
  -4 -10   6  153.58   14.90
   4 -10  -6  171.48   12.10
  -4 -10   6  184.38   15.50
  -6  10   6  147.89   15.50
  -6 -10  -6  153.98   16.70
  -6  10   6  143.39   14.20
  -6 -10   6  139.49   15.80
   6  10   6  131.19   14.90
  -6  10  -6  121.69   12.50
  -6 -10   6  132.39   15.00
   6 -10  -6  132.29   10.60
  -8  10   6   96.49   14.60
  -8 -10  -6   68.59   14.20
  -8  10   6  111.19   14.30
   8 -10  -6   92.29    9.40
  -8 -10   6   67.99   12.20
  -8 -10   6   87.19   15.30
  -8  10  -6   96.49   14.20
   8  10   6  102.49   14.70
 -10 -10  -6  101.19   18.70
 -10  10   6   94.49   15.50
 -10  10   6  122.39   16.70
 -10  10  -6   88.39   15.40
  10 -10  -6  108.19   10.40
 -10 -10   6   86.19   17.50
  10  10   6  144.09   19.40
 -12 -10  -6   46.70   16.00
 -12 -10   6   42.30   16.60
  12  10   6   39.80   14.50
 -12  10  -6   39.40   14.40
 -14 -10  -6   48.50   15.70
 -14 -10   6   35.00   16.50
 -14  10  -6   65.49   15.10
  14  10   6   46.80   13.90
  -1  11   6   30.20    8.20
  -1  11   6   33.30    8.90
  -1 -11  -6   17.00    7.50
  -1 -11  -6   28.20    7.70
   1 -11   6   28.00    8.10
   1  11   6   24.70    8.00
  -1 -11   6   29.20    8.30
   1  11   6   14.70    7.60
   1 -11  -6   28.70    7.40
   1 -11  -6   15.70    7.50
  -3  11   6   26.40    8.50
   3 -11   6   31.90    8.20
  -3  11   6   31.50    8.80
  -3 -11  -6   28.70    8.70
  -3 -11  -6    8.00    7.50
   3  11   6   24.80    8.20
   3 -11  -6   20.00    6.30
  -3 -11   6   21.90    8.30
  -5 -11  -6   35.70   10.10
  -5  11   6   27.90    9.00
  -5  11   6   21.40    8.60
  -5 -11   6   23.30    8.70
   5  11   6   22.50    9.20
   5 -11  -6   22.60    6.10
  -5 -11   6   29.30    9.60
  -7  11   6   41.20   10.60
  -7  11   6    8.00    7.90
  -7 -11  -6   15.10   10.00
  -7  11  -6   17.50    8.40
   7 -11  -6   25.60    6.30
   7  11   6   22.20   10.40
  -7 -11   6   42.80   10.60
  -7 -11   6   33.60   11.30
  -9  11   6   17.90   10.30
  -9  11   6   19.40   10.40
  -9 -11  -6   22.80   12.30
  -9 -11   6   13.90   11.40
   9  11   6   21.60   11.00
  -9 -11   6   14.20   10.30
  -9  11  -6   41.20   11.70
   9 -11  -6   32.60    7.10
 -11 -11  -6    1.70   12.10
 -11 -11   6   29.00   15.00
  11  11   6   14.50   12.90
 -11  11  -6   27.70   12.90
 -13 -11  -6    2.90   12.70
 -13 -11   6   -0.50   13.70
 -13  11  -6    7.90   12.80
  13  11   6   -1.40   12.00
   0 -12  -6  254.67   18.00
   0  12   6  216.88   17.40
   0  12   6  229.58   17.50
   0 -12   6  259.07   18.20
   0 -12  -6  217.78   16.10
   2 -12   6  179.38   15.30
  -2 -12  -6  165.18   16.30
  -2  12   6  137.99   15.10
  -2  12   6  190.68   16.50
   2 -12  -6  184.98   13.90
  -2 -12   6  162.88   16.00
   2  12   6  174.08   16.60
  -4 -12  -6  184.68   17.20
  -4  12   6  164.48   16.50
  -4  12   6  149.99   15.00
  -4 -12   6  172.48   17.20
  -4 -12   6  182.68   17.30
   4 -12  -6  188.28   13.60
   4  12   6  161.98   17.00
  -6 -12  -6  137.99   17.60
  -6  12   6  145.39   16.10
  -6  12   6  163.48   17.60
  -6 -12   6  152.68   16.90
  -6 -12   6  159.58   17.80
   6 -12  -6  142.39   12.40
   6  12   6  177.68   19.00
  -8 -12  -6  104.89   16.90
  -8  12   6  112.29   15.70
  -8  12   6   75.29   14.40
  -8 -12   6  102.89   16.50
  -8 -12   6   76.29   14.50
   8 -12  -6   70.89    9.90
  -8  12  -6   99.79   14.40
   8  12   6   91.59   16.20
 -10 -12  -6   53.89   16.00
 -10  12   6   97.59   15.40
 -10  12   6   72.59   14.90
  10 -12  -6   67.29    9.50
  10  12   6   73.59   16.80
 -10  12  -6   61.99   14.70
 -10 -12   6   51.49   16.10
 -12 -12  -6   33.70   14.80
 -12 -12   6   34.90   16.00
  12  12   6   35.50   14.70
 -12  12  -6   53.59   15.20
  -1  13   6   99.39   14.70
  -1 -13  -6  115.69   14.60
  -1 -13  -6   90.99   13.70
  -1  13   6   93.19   13.80
   1 -13   6   88.19   12.80
   1 -13  -6   94.49   12.40
   1  13   6   97.19   14.50
  -1 -13   6   95.09   13.90
   3 -13   6   85.59   13.00
  -3  13   6  108.99   14.70
  -3  13   6   88.39   14.00
  -3 -13  -6   77.19   13.30
  -3 -13  -6   85.79   13.30
   3  13   6   92.59   14.10
  -3 -13   6   90.99   14.60
   3 -13  -6  108.49   12.00
  -5 -13  -6   58.49   12.90
  -5  13   6   66.29   13.40
  -5  13   6   37.10   11.00
  -5 -13   6   72.89   13.70
   5 -13  -6   75.19   11.00
  -5 -13   6   70.39   12.30
   5  13   6   70.39   13.30
  -7  13   6   52.39   12.50
  -7  13   6   52.79   13.30
  -7 -13  -6   51.49   13.70
  -7  13  -6   38.10   14.50
   7 -13  -6   62.09    9.70
   7  13   6   46.40   13.50
  -7 -13   6   54.49   13.20
  -7 -13   6   53.49   12.80
  -9  13   6   35.00   12.30
  -9 -13  -6   42.40   14.90
  -9  13   6   38.00   12.70
   9  13   6   54.19   15.30
  -9 -13   6   24.10   11.50
  -9 -13   6   38.80   13.70
   9 -13  -6   44.20    9.30
  -9  13  -6   41.80   12.60
 -11 -13  -6   17.20   13.50
 -11  13   6   28.80   12.50
 -11 -13   6   19.60   13.60
 -11  13  -6   30.00   13.90
  11  13   6   38.10   15.10
 -13 -13  -6   24.20   13.90
  13  13   6    7.00   12.10
 -13  13  -6   21.90   13.10
 -13 -13   6    3.60   12.20
   0 -14  -6   94.79   13.60
   0  14   6   79.89   14.20
   0 -14   6   84.59   14.00
  -2  14   6   79.79   13.90
  -2  14   6   61.59   12.80
  -2 -14  -6   66.69   12.30
  -2 -14  -6  102.39   15.10
   2 -14   6   71.69   12.40
  -2 -14   6   63.89   12.70
   2  14   6   67.59   13.10
   2 -14  -6   55.99   10.00
  -4  14   6   59.69   13.00
   4 -14   6   69.29   12.80
  -4  14   6   62.19   12.60
  -4 -14  -6   84.39   14.20
   4 -14  -6   65.59   10.40
   4  14   6   58.59   13.10
  -4 -14   6   53.09   13.20
  -6  14   6   52.99   12.10
  -6  14   6   44.30   13.30
  -6 -14  -6   38.00   12.30
  -6 -14   6   49.70   12.30
   6  14   6   78.29   14.80
  -6 -14   6   78.59   15.20
   6 -14  -6   46.90    9.60
  -8  14   6   47.80   13.10
  -8 -14  -6   35.90   13.70
  -8  14   6   51.19   13.70
  -8  14  -6   22.70   11.20
  -8 -14   6   35.90   13.10
   8 -14  -6   43.40    9.80
   8  14   6   23.80   13.50
  -8 -14   6   35.90   13.00
 -10 -14  -6   48.30   15.20
 -10  14   6   24.60   12.60
 -10 -14   6   32.20   14.00
 -10  14  -6   27.50   13.20
  10  14   6   35.50   14.30
  10 -14  -6   21.30   14.00
 -12 -14  -6   23.60   13.00
 -12  14  -6   34.20   13.60
  12  14   6   20.50   13.00
 -12 -14   6   13.30   12.30
  -1  15   6    8.90    8.80
  -1 -15  -6    6.40    8.70
   1 -15   6   13.60    8.90
  -1 -15   6   15.40    9.80
   1 -15  -6    5.00    6.80
   1 -15  -6    2.70    9.00
   1  15   6   16.70   10.30
  -3 -15  -6   -4.10    7.80
  -3  15   6    8.10    9.00
   3 -15   6   12.10    9.00
  -3 -15  -6   16.70    9.50
   3  15   6    7.30    9.00
   3 -15  -6   10.70    7.30
  -3 -15   6   -0.80    9.40
  -5  15   6   17.40   10.20
  -5 -15  -6    4.80    9.10
   5 -15  -6   -2.80    7.00
   5  15   6   17.00   11.00
  -5 -15   6  -10.60    9.80
  -7 -15  -6    4.80   11.20
  -7  15   6   -7.60    9.90
  -7 -15   6   -6.50   10.20
   7 -15  -6   14.10    8.80
  -7 -15   6   16.70   11.20
   7  15   6    6.90   10.60
  -9 -15  -6   -6.20   11.00
  -9  15   6    8.50   11.90
   9  15   6   19.00   13.10
  -9 -15   6   -1.20   10.40
   9 -15  -6   -2.30   12.20
  -9  15  -6   -7.10   17.60
  -9 -15   6    3.40   11.50
 -11 -15  -6   -4.00   11.70
 -11  15   6   -0.70   11.30
 -11  15  -6   13.70   12.20
 -11 -15   6  -10.30   10.30
  11  15   6    7.90   11.70
   0  16   6   31.40   11.20
   0 -16  -6   36.30   12.40
   0 -16   6   37.30   11.90
  -2 -16  -6    3.60    9.40
  -2  16   6   36.70   11.50
   2 -16   6   40.00   11.90
  -2 -16   6   36.70   12.30
   2 -16  -6   38.30    9.80
   2 -16  -6   23.70   11.90
   2  16   6   11.00   10.30
  -4 -16  -6   34.40   11.60
  -4  16   6   17.20   11.80
   4 -16   6   28.90   11.30
   4 -16  -6   35.30   10.20
  -4 -16   6   -2.80   10.80
   4 -16  -6   35.60   13.10
   4  16   6   25.20   11.30
  -6 -16  -6    9.00   10.90
  -6  16   6   16.00   11.50
  -6 -16   6   34.10   14.00
   6 -16  -6   35.30   10.40
   6  16   6   33.40   13.10
   6 -16  -6   11.40   13.10
  -8 -16  -6   24.90   13.00
  -8  16   6   24.80   13.10
   8 -16  -6   18.70   14.00
  -8 -16   6   29.50   13.80
   8  16   6   11.20   13.20
 -10  16   6   18.70   12.60
 -10 -16  -6    9.70   11.70
 -10 -16   6   34.40   12.80
  10  16   6    8.20   12.80
   1 -17   6   19.20   10.60
  -1 -17  -6   20.10   11.40
  -1  17   6   19.40   11.40
   1 -17  -6   32.50   13.20
   1 -17  -6   51.69   15.00
   1  17   6   16.70   11.80
  -1 -17   6   10.40   10.40
   3 -17   6   15.40   11.40
  -3  17   6   23.80   11.40
  -3 -17  -6    8.80   10.30
  -3 -17   6   23.20   11.40
   3 -17  -6   27.90   12.90
   3 -17  -6   12.10    9.10
   3  17   6    4.80    9.80
  -5 -17  -6   10.70   11.00
  -5  17   6   16.00   12.20
   5 -17  -6    4.90    8.70
   5  17   6   17.70   11.90
   5 -17  -6   -6.40   11.60
  -5 -17   6   35.70   13.00
  -7  17   6   18.20   12.50
  -7 -17  -6   27.80   12.50
   7 -17  -6   20.10   14.50
   7  17   6   -6.20   11.70
  -7 -17   6   10.90   12.90
  -9  17   6    6.80   12.40
  -9 -17  -6   27.20   12.70
  -9 -17   6    6.90   11.90
   9  17   6    4.90   12.20
   9 -17  -6   17.90   14.00
 -11 -17  -6   13.10   12.70
  11  17   6    6.50   12.40
   0  18   6   25.80   12.10
   0 -18   6   13.70   10.60
   0 -18  -6   15.50   11.90
   2 -18   6    6.80   11.20
  -2  18   6   26.50   12.10
  -2 -18  -6   27.50   11.60
   2 -18  -6   33.10   13.70
   2  18   6   14.70   11.60
  -2 -18   6   15.60   11.80
   2 -18  -6   14.40    9.50
  -4  18   6    5.90   11.30
   4 -18   6    6.30   10.10
   4 -18  -6   16.00   13.90
  -4 -18   6    6.60   12.70
   4  18   6    5.30   11.70
   4 -18  -6   18.10   10.20
  -6 -18  -6    2.10   10.30
  -6  18   6    8.00   11.50
   6  18   6   -3.60   11.40
   6 -18  -6   30.70   15.90
  -6 -18   6   -3.10   11.70
  -8 -18  -6    1.50   11.30
  -8  18   6   11.60   13.20
  -8 -18   6    3.80   12.60
   8 -18  -6  -13.50   12.80
   8  18   6    5.50   11.80
 -10  18   6    7.40   13.80
 -10 -18  -6    1.60   10.80
  10  18   6    8.10   11.30
  -1 -19  -6    0.20   10.50
   1 -19   6    7.00   11.20
  -1  19   6    5.00   11.30
   1  19   6   -0.30   11.70
   1 -19  -6    3.90   12.10
  -1 -19   6   -3.70   10.90
  -3 -19  -6   -5.90    9.60
   3 -19   6    9.70   10.80
  -3  19   6   -4.60   11.90
   3  19   6   30.70   13.70
  -3 -19   6   -7.50   11.10
   3 -19  -6    9.60   13.90
  -5  19   6    3.10   12.60
   5  19   6    6.50   12.10
  -5 -19   6    4.60   12.50
   5 -19  -6   -4.30   13.00
  -7  19   6   10.00   12.60
  -7 -19   6    9.70   12.80
   7 -19  -6   10.70   13.70
   7  19   6    8.10   11.90
  -9  19   6   -1.80   11.50
   9  19   6   11.10   11.20
   0  20   6    6.90   12.30
   0 -20   6    8.00   11.70
   0 -20  -6   -5.50   11.30
  -2  20   6   -3.70   11.80
  -2 -20  -6   -8.00   10.20
   2 -20   6   -2.10   10.90
  -2 -20   6   10.40   12.80
   2 -20  -6   10.70   12.70
   2  20   6    4.40   12.10
  -4  20   6   14.80   12.30
  -4 -20   6    2.90   12.20
   4  20   6   -3.40   11.30
   4 -20  -6   -4.00   12.10
  -6  20   6   -0.70   12.10
   6 -20  -6   -9.90   12.10
  -6 -20   6   13.60   13.40
   6  20   6    3.10   11.70
  -8  20   6  -10.50   11.30
   8 -20  -6   -3.60   15.60
   8  20   6    0.70   11.30
  -1  21   6   31.80   13.70
   1 -21   6  -13.30   10.40
  -1 -21  -6    0.30   11.60
   1 -21  -6   15.20   13.00
  -1 -21   6    8.30   11.00
   1  21   6  -11.00   10.90
  -3  21   6    1.00   11.50
   3 -21   6  -15.20    9.70
   3 -21  -6   15.90   12.70
  -3 -21   6   14.10   12.30
   3  21   6   -3.30   10.70
  -5  21   6   -5.50   11.30
   5 -21  -6   14.20   13.40
  -5 -21   6    9.20   12.50
   5  21   6   -8.30   11.20
  -7  21   6   13.00   14.50
   7  21   6   -5.30   11.80
   0  22   6   10.00   11.50
   0 -22  -6    7.10   12.00
   0 -22   6   -4.50   10.50
  -2 -22  -6   14.30   11.20
   2 -22   6    6.90   10.40
  -2  22   6    1.10   11.10
  -2 -22   6   11.20   12.00
   2  22   6  -17.20    9.50
   2 -22  -6  -11.70   10.70
  -4  22   6   -8.30   11.20
   4  22   6    3.80   10.50
  -4 -22   6   -0.60   11.40
   4 -22  -6   11.40   12.20
   1 -23   6   -3.50   10.40
  -1  23   6    7.30   11.00
  -1 -23  -6    5.30   11.40
   1  23   6   -7.20   10.20
  -1 -23   6    0.90   10.40
   1 -23  -6   11.90   12.20
  -3  23   6  -12.30   10.90
   3  23   6    2.70   13.80
  -3 -23   6    5.10   11.60
   3 -23  -6    4.80   13.90
   0   0  -7  691.93   23.20
  -2   0   7  667.63   24.10
   2   0  -7  616.84   21.30
  -2   0  -7  664.83   29.70
  -2   0   7  656.63   25.10
  -2   0  -7  625.34   22.30
  -4   0   7  466.65   21.90
  -4   0  -7  475.65   22.80
  -4   0   7  500.05   21.20
   4   0  -7  521.75   17.40
  -6   0   7  321.37   18.00
  -6   0   7  380.56   19.80
  -6   0  -7  367.86   21.00
   6   0   7  369.16   18.40
   6   0  -7  373.36   13.60
  -8   0  -7  256.87   18.70
  -8   0   7  248.18   17.70
   8   0   7  197.18   15.70
  -8   0   7  225.38   16.20
   8   0  -7  257.37   10.70
  10   0  -7  144.69    9.00
  10   0   7  154.18   16.20
 -10   0   7  165.88   17.10
 -10   0   7  135.79   15.10
 -12   0   7  112.89   16.40
  12   0   7  115.09   17.90
  14   0   7   27.00   13.80
   1   1  -7 1057.29   32.30
  -1  -1  -7 1081.89   33.00
  -1  -1  -7 1037.50   36.90
  -1   1   7 1086.59   36.00
   1  -1  -7 1048.80   32.30
  -1   1  -7 1040.20   32.70
  -1  -1   7 1119.19   36.60
  -3   1   7 1293.07   40.40
  -3  -1  -7 1290.97   43.10
   3   1  -7 1233.88   36.80
  -3   1   7 1225.38   41.20
  -3  -1  -7 1253.37   38.70
  -3   1  -7 1234.38   45.90
   3  -1  -7 1257.37   36.60
  -3  -1   7 1304.77   42.30
  -3  -1   7 1295.17   40.40
  -5  -1  -7  606.74   26.70
  -5   1   7  572.64   24.60
   5   1  -7  579.44   19.10
  -5   1   7  593.44   24.10
   5  -1  -7  563.34   18.50
  -5  -1   7  533.95   23.30
   5   1   7  560.04   22.80
  -5  -1   7  539.35   24.50
  -5   1  -7  560.64   25.50
  -7   1   7  590.24   26.30
   7   1  -7  585.64   19.70
  -7  -1  -7  557.04   28.00
  -7   1   7  567.24   25.70
  -7   1  -7  614.44   28.10
  -7  -1   7  565.24   27.20
   7  -1  -7  614.74   19.00
  -7  -1   7  625.84   26.30
   7   1   7  607.34   26.00
  -9   1   7  344.47   20.80
  -9  -1  -7  385.06   24.10
   9   1  -7  371.96   15.10
  -9   1   7  403.06   23.00
  -9  -1   7  401.86   22.40
  -9  -1   7  379.56   23.90
   9  -1  -7  422.56   14.10
   9   1   7  368.86   22.50
  11  -1   7  184.28   18.60
 -11   1   7  186.78   18.40
 -11  -1   7  180.58   19.30
  11   1   7  159.28   19.00
  13  -1   7  209.28   23.20
 -13   1   7  196.98   21.30
 -13  -1   7  200.48   21.90
  13   1   7  251.27   23.70
  15  -1   7   92.59   17.80
  15   1   7   73.79   16.50
   0   2   7   76.29    8.50
   0   2  -7   90.69    7.20
   0  -2  -7   92.59    7.30
   2   2  -7   77.69    6.70
  -2   2   7   73.79    8.60
  -2  -2  -7   82.49    9.80
  -2   2   7   88.69    8.30
  -2  -2  -7   80.19    7.30
   2  -2  -7   91.69    6.90
  -2   2  -7   87.69    7.50
  -2  -2   7   80.29    8.00
  -2  -2   7   83.79    9.40
  -4   2   7   69.79    9.00
  -4  -2  -7   69.79   10.00
  -4   2   7   84.79    8.70
   4   2  -7   76.89    6.50
  -4   2  -7   69.59    9.60
  -4  -2   7   66.59    8.70
   4  -2  -7   77.49    6.10
  -4  -2   7   84.49    8.90
   4   2   7   71.59    8.50
  -6  -2  -7   77.59   11.80
  -6   2   7   81.89    9.60
  -6   2   7   67.59    9.70
   6   2  -7   84.39    6.70
  -6  -2   7   71.79   10.60
  -6  -2   7   69.39    9.70
  -6   2  -7   63.39    8.80
   6  -2  -7   67.99    5.50
   6   2   7   87.69   10.30
  -8  -2  -7   47.90   10.60
  -8   2   7   53.29    9.70
   8   2  -7   66.69    6.80
  -8   2   7   53.89    9.90
   8  -2  -7   66.89    5.30
  -8  -2   7   75.49   12.30
  -8   2  -7   76.79   10.90
   8   2   7   93.39   12.50
  -8  -2   7   70.99   10.60
 -10   2   7   66.89   12.20
 -10  -2  -7   70.29   13.30
 -10   2   7   39.40    9.70
 -10  -2   7   59.99   11.00
 -10  -2   7   55.29   12.30
  10   2   7   48.20   11.40
  12  -2   7   33.40   12.70
 -12   2   7   63.39   13.70
  12   2   7   58.89   14.20
 -12  -2   7   47.60   14.30
  14  -2   7   35.20   13.90
 -14  -2   7   38.20   13.50
  14   2   7   31.10   14.00
   1   3  -7  739.93   24.10
  -1   3   7  744.23   25.80
  -1   3   7  704.83   27.20
  -1  -3  -7  695.03   28.10
  -1  -3  -7  704.73   24.50
  -1  -3   7  756.42   26.00
  -1  -3   7  707.63   27.30
   1  -3  -7  705.03   24.10
  -1   3  -7  723.03   24.40
  -3  -3  -7  839.02   33.50
   3   3  -7  893.71   28.00
  -3   3   7  894.71   30.90
  -3   3   7  841.42   31.60
  -3  -3  -7  938.01   29.70
  -3  -3   7  903.41   32.60
  -3  -3   7  908.61   31.30
   3  -3  -7  882.31   27.60
  -5   3   7  422.56   19.80
  -5  -3  -7  415.56   23.20
  -5   3   7  446.46   20.60
   5   3  -7  413.86   16.20
   5   3   7  409.66   19.50
  -5  -3   7  422.56   20.30
   5  -3  -7  449.26   15.50
  -5  -3   7  448.66   22.00
  -5   3  -7  429.16   18.70
  -7   3   7  487.15   23.10
   7   3  -7  446.86   17.50
  -7   3   7  493.35   23.00
  -7  -3  -7  464.05   25.70
   7   3   7  491.15   23.50
   7  -3  -7  459.15   15.40
  -7   3  -7  470.65   21.80
  -7  -3   7  449.16   24.50
  -7  -3   7  458.25   22.40
  -9  -3  -7  305.67   22.70
  -9   3   7  283.47   19.80
  -9   3   7  341.27   20.30
  -9  -3   7  305.47   22.70
  -9  -3   7  339.97   20.50
  -9   3  -7  288.97   19.60
   9  -3  -7  318.87   11.10
   9   3   7  278.67   20.30
 -11  -3  -7  154.38   19.00
 -11   3   7  166.08   17.20
  11   3   7  125.89   18.40
 -11  -3   7  119.59   18.70
  13  -3   7  153.78   21.00
 -13  -3   7  163.68   22.50
  13   3   7  145.39   21.60
  15  -3   7   61.19   14.80
 -15  -3   7   70.39   15.70
  15   3   7   56.89   14.90
   0   4  -7  488.15   18.70
   0   4   7  518.35   27.60
   0  -4   7  502.25   21.20
   0  -4  -7  497.75   19.10
   0  -4  -7  480.35   22.00
  -2   4   7  488.15   21.40
  -2  -4  -7  499.85   19.30
   2   4  -7  490.85   18.30
  -2  -4  -7  484.85   22.70
  -2   4   7  485.25   20.20
   2  -4  -7  497.75   18.30
  -2  -4   7  451.35   19.90
  -2  -4   7  497.05   22.10
   4   4  -7  368.86   15.50
  -4  -4  -7  394.06   21.80
  -4   4   7  388.56   19.00
  -4   4   7  396.26   18.50
   4  -4  -7  384.76   14.80
   4   4   7  394.56   18.20
  -4  -4   7  378.96   18.60
  -4  -4   7  376.76   20.20
  -6   4   7  289.17   16.60
  -6  -4  -7  329.17   21.00
   6   4  -7  299.57   13.50
  -6   4   7  298.97   17.40
   6  -4  -7  290.27   11.60
  -6  -4   7  284.47   17.20
  -6   4  -7  281.27   15.90
  -6  -4   7  294.37   19.00
   6   4   7  294.97   17.20
  -8  -4  -7  179.58   17.60
  -8   4   7  176.98   14.70
  -8   4   7  186.78   15.20
  -8   4  -7  170.38   14.90
   8  -4  -7  198.78    8.40
   8   4   7  185.98   16.50
  -8  -4   7  185.28   15.40
  -8  -4   7  224.08   18.50
 -10  -4  -7  127.09   17.60
 -10   4   7  129.19   15.20
 -10   4   7  121.19   15.20
 -10  -4   7  128.69   18.60
 -10  -4   7  153.78   16.00
 -10   4  -7  152.48   16.50
  10   4   7  103.19   15.80
 -12  -4  -7   82.19   15.80
  12   4   7   76.89   15.60
 -12  -4   7  107.09   18.70
  14  -4   7   27.10   13.70
 -14  -4   7   38.30   15.30
  14   4   7   42.80   14.00
  -1   5   7  893.91   31.00
  -1  -5  -7  903.11   33.90
   1  -5   7  954.60   30.80
  -1  -5  -7  899.61   30.20
   1   5  -7  855.81   29.00
   1  -5  -7  858.41   33.00
  -1  -5   7  915.01   32.80
   1  -5  -7  898.71   29.60
  -1  -5   7  909.21   31.10
  -1   5  -7  948.41   29.90
   3   5  -7  980.30   31.60
  -3  -5  -7 1026.70   37.90
  -3   5   7  985.20   34.30
  -3  -5  -7 1033.10   33.40
  -3   5   7 1008.00   35.10
  -3  -5   7  998.90   34.80
  -3  -5   7 1008.50   36.60
   3   5   7 1025.90   34.70
   3  -5  -7  979.40   31.20
   5   5  -7  484.45   18.90
  -5  -5  -7  454.25   25.10
  -5   5   7  512.35   22.30
  -5   5   7  494.15   22.20
   5   5   7  461.85   21.80
  -5  -5   7  484.05   22.40
  -5  -5   7  503.75   24.70
   5  -5  -7  485.05   17.30
  -7   5   7  504.95   24.10
  -7  -5  -7  506.05   27.90
  -7   5   7  492.75   23.40
  -7   5  -7  471.65   22.40
  -7  -5   7  482.95   23.90
   7  -5  -7  496.25   16.70
  -7  -5   7  521.65   26.90
   7   5   7  438.96   23.50
  -9  -5  -7  323.77   24.40
  -9   5   7  332.77   20.60
   9  -5  -7  317.57   11.60
  -9  -5   7  270.37   19.60
   9   5   7  319.87   21.40
  -9  -5   7  316.37   24.30
  -9   5  -7  330.47   20.80
 -11  -5  -7  149.59   21.10
  11   5   7  167.58   20.10
 -11  -5   7  150.68   22.00
 -11   5  -7  176.38   19.30
 -13  -5  -7  117.09   18.90
 -13  -5   7  165.18   23.10
  13   5   7  175.08   22.70
  15  -5   7   38.00   14.10
  15   5   7   85.19   17.20
 -15  -5   7   68.69   15.90
   0  -6  -7   62.99    9.70
   0  -6   7   68.29    8.20
   0  -6  -7   70.49    7.90
   0   6   7   75.49    9.90
   0   6  -7   68.69    7.50
   0   6   7   77.69    8.70
   2  -6   7   69.49    8.30
  -2  -6  -7   70.09    8.30
   2   6  -7   76.79    7.50
  -2   6   7   62.79    8.60
  -2  -6  -7   61.79    9.80
  -2  -6   7   73.29    8.80
   2   6   7   54.09    8.00
   2  -6  -7   88.99    8.20
   2   6   7   66.89    9.40
   2  -6  -7   88.99   10.90
  -2  -6   7   75.59    9.80
  -4   6   7   56.29    8.60
  -4   6   7   53.19    8.50
   4   6  -7   70.79    7.60
  -4  -6  -7   76.49   11.60
   4   6   7   74.49   10.10
  -4  -6   7   67.09   10.60
   4  -6  -7   75.59    7.10
  -4  -6   7   60.39    8.90
  -6   6   7   82.79   11.30
  -6  -6  -7   59.09   12.10
  -6   6   7   70.89    9.80
  -6   6  -7   70.79    9.70
  -6  -6   7   42.40   10.30
   6  -6  -7   64.39    6.40
   6   6   7   65.09   10.20
  -6  -6   7   53.49    9.70
  -8   6   7   47.60   10.20
  -8  -6  -7   56.29   12.70
   8   6   7   53.59   11.20
   8  -6  -7   55.29    5.80
  -8  -6   7   59.09   11.00
  -8   6  -7   55.49   10.10
  -8  -6   7   40.70   11.50
 -10  -6  -7   35.70   12.20
 -10   6   7   40.40   10.60
 -10  -6   7   31.30   12.40
 -10  -6   7   57.19   12.00
 -10   6  -7   36.50   10.70
  10   6   7   27.10   11.30
 -12  -6  -7   43.50   14.10
 -12  -6   7   17.30   13.60
  12   6   7   43.50   14.30
 -12   6  -7   61.99   13.90
  14  -6   7    7.40   12.20
 -14  -6  -7   -3.70   11.30
 -14  -6   7   13.00   14.40
  14   6   7   15.00   14.10
  -1  -7  -7  325.07   16.00
   1  -7   7  327.27   16.20
  -1  -7  -7  302.57   18.50
  -1   7   7  296.27   16.70
  -1   7   7  287.37   16.20
   1  -7  -7  288.07   15.20
  -1  -7   7  297.07   16.20
  -1  -7   7  284.17   16.70
   1   7   7  305.27   16.10
   1   7   7  321.17   17.50
   1  -7  -7  320.17   17.90
  -3   7   7  371.66   18.90
  -3  -7  -7  370.56   21.80
  -3   7   7  390.56   19.00
  -3  -7   7  403.66   19.70
   3  -7  -7  394.56   20.10
   3  -7  -7  396.76   17.00
  -3  -7   7  389.46   21.00
   3   7   7  395.26   20.00
  -5  -7  -7  181.38   16.90
  -5   7   7  171.78   13.80
  -5   7   7  178.98   13.50
  -5  -7   7  177.38   14.60
  -5  -7   7  191.28   15.90
   5   7   7  190.38   14.80
   5  -7  -7  183.58   10.60
  -7   7   7  218.58   17.10
  -7  -7  -7  220.08   19.60
   7  -7  -7  235.38   11.50
   7   7   7  249.78   18.30
  -7  -7   7  201.88   18.90
  -7  -7   7  234.48   17.50
  -7   7  -7  243.68   16.50
  -9   7   7  167.78   16.70
  -9  -7  -7  183.68   19.80
   9   7   7  191.08   18.30
  -9  -7   7  148.89   19.40
  -9  -7   7  163.08   16.40
  -9   7  -7  171.68   16.90
   9  -7  -7  169.18    9.50
 -11  -7  -7   87.99   17.30
 -11  -7   7   78.79   17.60
  11   7   7  117.09   17.70
 -11   7  -7   85.79   15.50
 -13  -7  -7   84.89   17.20
  13   7   7   70.09   16.10
 -13   7  -7   96.99   16.70
 -13  -7   7  103.79   20.40
 -15  -7   7   74.99   24.90
  15   7   7   37.40   15.20
   0   8   7  231.08   15.60
   0   8   7  238.98   14.70
   0  -8  -7  241.48   14.70
   0  -8   7  267.97   15.70
   0  -8  -7  235.78   16.50
  -2  -8  -7  233.18   14.90
  -2   8   7  231.18   15.40
  -2  -8  -7  225.18   17.40
  -2   8   7  232.18   15.00
   2  -8   7  250.07   14.80
   2  -8  -7  241.78   13.80
  -2  -8   7  235.28   15.50
   2   8   7  231.98   16.00
   2   8   7  238.18   14.70
   2  -8  -7  262.97   16.60
  -2  -8   7  234.08   15.40
  -4   8   7  166.38   13.70
  -4   8   7  185.68   13.40
  -4  -8  -7  139.89   15.50
   4   8   7  189.68   14.50
  -4  -8   7  169.28   13.90
  -4  -8   7  171.68   15.10
   4  -8  -7  167.28   11.10
   4  -8  -7  208.58   15.20
  -6  -8  -7  158.68   16.90
  -6   8   7  113.59   13.10
   6  -8  -7  141.19    9.90
   6   8   7  151.88   14.90
  -6  -8   7  129.79   13.50
  -6  -8   7  144.89   16.50
  -8   8   7  117.39   14.20
  -8  -8  -7   70.69   14.50
   8  -8  -7   96.29    8.50
   8   8   7   76.09   13.30
  -8  -8   7   95.39   13.60
  -8   8  -7   97.19   13.60
  -8  -8   7   83.79   15.20
 -10   8   7   62.79   12.80
 -10  -8  -7   56.79   15.70
  10  -8  -7   60.39    7.80
 -10   8  -7   90.79   14.90
  10   8   7   64.89   14.30
 -10  -8   7   57.89   15.60
 -10  -8   7   68.89   12.50
 -12  -8  -7   51.09   15.50
 -12  -8   7   49.40   17.70
 -12   8  -7   23.30   12.10
  12   8   7   43.30   15.00
 -14  -8  -7    8.90   12.80
  14   8   7   16.90   12.90
 -14  -8   7    5.20   14.50
  -1  -9  -7  483.15   22.10
   1  -9   7  455.95   21.40
  -1   9   7  465.45   22.00
  -1  -9  -7  446.46   23.70
  -1   9   7  467.65   22.80
   1  -9  -7  453.55   20.90
   1  -9  -7  465.15   23.30
   1   9   7  454.55   21.80
   1   9   7  414.26   22.20
  -1  -9   7  432.86   22.00
  -3   9   7  518.15   24.00
  -3   9   7  501.85   23.90
  -3  -9  -7  512.45   26.80
   3  -9  -7  486.25   21.10
  -3  -9   7  481.25   24.00
   3  -9  -7  513.65   23.90
   3   9   7  497.95   24.80
  -3  -9   7  471.65   24.20
  -5  -9  -7  268.07   21.30
  -5   9   7  257.47   17.90
  -5   9   7  262.47   17.00
  -5  -9   7  250.27   17.60
   5   9   7  238.28   18.30
   5  -9  -7  231.68   13.70
  -5  -9   7  270.07   19.00
  -7   9   7  264.47   19.50
  -7  -9  -7  275.87   22.30
   7  -9  -7  234.18   13.40
  -7   9  -7  273.67   18.70
  -7  -9   7  246.98   21.50
   7   9   7  265.37   20.60
  -7  -9   7  229.78   18.40
  -9  -9  -7  140.19   19.60
  -9   9   7  140.49   17.80
  -9   9  -7  166.08   18.00
  -9  -9   7  183.78   22.30
   9  -9  -7  149.99   10.90
   9   9   7  132.39   18.40
  -9  -9   7  153.48   18.50
 -11  -9  -7   89.29   18.70
 -11   9  -7   95.39   16.60
  11   9   7   65.49   15.70
 -11  -9   7  104.29   19.10
 -13  -9  -7   83.49   17.30
  13   9   7  122.29   18.30
 -13  -9   7   85.29   19.70
 -13   9  -7   57.19   14.80
   0 -10  -7   37.80    8.30
   0  10   7   49.00    9.70
   0 -10   7   59.49   10.00
   0  10   7   49.10    9.40
   0 -10  -7   52.09   10.20
  -2 -10  -7   65.29   11.50
   2 -10   7   51.49    9.10
  -2 -10  -7   42.00    9.00
  -2  10   7   55.09    9.90
  -2  10   7   52.09   10.10
   2  10   7   39.10    9.10
   2 -10  -7   55.39   10.20
   2 -10  -7   49.60    8.30
   2  10   7   46.10    9.60
  -2 -10   7   51.19   10.20
  -4 -10  -7   38.10   10.80
  -4  10   7   20.20    7.90
  -4  10   7   52.29   10.00
   4 -10  -7   34.10    7.00
  -4 -10   7   67.89   11.60
   4  10   7   44.20   10.40
  -4 -10   7   54.69   10.90
  -6 -10  -7   39.80   11.30
  -6  10   7   33.00    9.90
  -6  10   7   60.49   10.80
  -6 -10   7   42.60   10.60
   6  10   7   41.20   11.40
  -6 -10   7   30.90   10.30
   6 -10  -7   45.90    7.30
  -8 -10  -7   33.50   12.10
  -8  10   7   32.60   10.10
  -8 -10   7   32.20   11.20
   8 -10  -7   32.70    6.80
  -8  10  -7   34.00   10.40
   8  10   7   51.69   12.90
  -8 -10   7   37.30   12.50
 -10  10   7   24.70   11.40
 -10 -10  -7   20.40   12.50
  10  10   7   18.10   12.30
 -10 -10   7   13.80   10.60
 -10  10  -7    8.90   10.90
  10 -10  -7   12.20    5.90
 -10 -10   7   10.60   11.80
 -12 -10  -7   40.30   15.70
 -12  10  -7   21.90   13.10
  12  10   7   21.00   13.00
 -12 -10   7   18.00   14.50
 -14 -10  -7   25.20   14.10
 -14 -10   7   -0.20   13.00
  14  10   7   19.70   12.60
  -1  11   7   94.09   13.30
  -1  11   7   85.89   12.80
   1 -11   7   80.19   11.80
  -1 -11  -7  114.39   14.40
  -1 -11  -7   78.09   12.00
   1 -11  -7   91.29   12.90
   1  11   7   82.19   12.30
   1 -11  -7   97.89   11.90
  -1 -11   7  112.79   14.00
   1  11   7   86.39   12.70
   3 -11   7  136.59   13.70
  -3  11   7  130.99   14.40
  -3 -11  -7  119.19   15.20
  -3  11   7  112.29   13.30
   3  11   7  118.39   14.20
  -3 -11   7  131.29   14.80
   3 -11  -7  145.19   12.40
  -5  11   7   77.19   12.50
  -5  11   7   71.99   12.50
  -5 -11  -7   60.89   12.80
   5 -11  -7   77.89   10.00
  -5 -11   7   58.79   12.00
   5  11   7   81.19   14.00
  -5 -11   7   81.39   13.20
  -7  11   7   86.69   13.70
  -7 -11  -7   89.69   16.00
  -7  11   7   82.09   14.50
  -7 -11   7   75.59   14.50
  -7 -11   7   62.69   13.00
   7  11   7  148.39   19.40
   7 -11  -7   94.19   10.80
  -9 -11  -7   58.29   14.50
  -9  11   7   55.99   13.50
  -9 -11   7   85.19   14.50
   9  11   7   69.49   15.00
  -9  11  -7   70.79   14.20
   9 -11  -7   70.99    9.50
  -9 -11   7   45.10   14.20
 -11 -11  -7   49.90   15.40
 -11  11  -7    8.80   11.90
  11  11   7   30.40   14.90
 -11 -11   7   10.50   13.60
 -13 -11  -7   23.30   14.30
  13  11   7   50.19   14.90
 -13  11  -7   49.10   14.20
 -13 -11   7   30.60   15.50
   0 -12  -7   71.99   12.20
   0 -12  -7   70.59   11.20
   0  12   7   69.89   11.90
   0  12   7   84.69   13.30
   0 -12   7   70.89   12.10
  -2  12   7   79.49   12.70
  -2  12   7   66.39   12.20
   2 -12   7   72.39   11.90
  -2 -12  -7   59.29   11.80
   2  12   7   61.79   12.10
   2 -12  -7   84.89   11.50
  -2 -12   7   43.50   11.40
  -4  12   7   52.59   11.10
  -4  12   7   51.09   11.50
  -4 -12  -7   47.10   11.90
  -4 -12   7   63.89   13.00
   4  12   7   48.90   11.80
   4 -12  -7   54.59    9.00
  -6  12   7   32.90   10.10
  -6 -12  -7   56.39   12.90
  -6  12   7   50.79   12.00
  -6 -12   7   49.30   11.80
   6 -12  -7   50.39    8.80
   6  12   7   45.60   13.00
  -6 -12   7   34.50   11.10
  -8  12   7   25.40   11.70
  -8 -12  -7   37.90   12.70
  -8  12   7   35.90   11.70
  -8 -12   7   31.10   12.50
  -8 -12   7   46.00   12.60
   8 -12  -7   40.10    8.80
   8  12   7   30.40   12.90
 -10 -12  -7   28.60   14.90
 -10  12   7   21.80   11.70
 -10 -12   7   -0.20   11.00
 -10 -12   7    8.00   12.10
  10  12   7   19.70   14.00
 -10  12  -7   30.20   12.80
 -12 -12  -7    2.00   13.10
 -12  12  -7   31.80   13.50
 -12 -12   7   12.90   13.40
  12  12   7   -2.40   12.30
  -1 -13  -7  152.48   17.10
   1 -13   7  170.18   17.00
  -1  13   7  151.18   17.50
  -1  13   7  193.88   18.60
  -1 -13  -7  195.98   17.10
  -1 -13   7  139.99   16.40
   1  13   7  160.38   16.90
   1 -13  -7  179.58   15.90
  -3  13   7  163.88   17.00
  -3 -13  -7  150.08   17.40
   3 -13   7  150.48   15.60
  -3 -13  -7  143.79   16.40
  -3  13   7  168.98   18.20
   3 -13  -7  158.18   14.40
  -3 -13   7  151.48   17.80
   3  13   7  140.59   16.70
  -5  13   7   95.69   14.60
  -5  13   7  105.19   16.30
  -5 -13  -7   73.89   14.50
   5 -13  -7  101.99   12.40
   5  13   7  104.49   15.70
  -5 -13   7   92.19   15.50
  -5 -13   7   94.69   23.10
  -7  13   7   84.79   15.50
  -7  13   7   70.79   14.10
  -7 -13  -7   88.09   16.60
   7  13   7  124.29   18.60
  -7 -13   7   49.20   14.20
  -7 -13   7   88.99   15.60
   7 -13  -7   89.89   13.10
  -9  13   7   50.59   14.00
  -9  13   7   79.09   14.80
  -9 -13  -7   80.99   17.20
  -9 -13   7   87.39   16.60
   9  13   7   64.59   16.50
  -9 -13   7   53.79   14.30
 -11 -13  -7   34.50   14.90
  11  13   7   45.30   15.70
 -11  13  -7   25.80   13.20
 -11 -13   7   31.50   14.30
 -13 -13  -7   29.60   18.40
   0  14   7   22.30   10.20
   0 -14   7    6.40    8.60
   0 -14  -7   42.60   10.40
  -2 -14  -7   37.80   10.80
  -2 -14  -7   22.30    9.40
  -2  14   7   20.70   10.40
  -2  14   7   29.10   10.20
   2 -14   7   26.60    9.90
   2 -14  -7   27.40    8.80
   2  14   7   32.80   10.40
  -2 -14   7   22.40   10.50
  -4 -14  -7   36.90   11.10
  -4  14   7   17.70   10.10
  -4  14   7   19.40   10.30
   4  14   7   50.99   12.60
   4 -14  -7   31.20    8.80
  -4 -14   7   18.40   11.00
  -6  14   7   20.50   12.00
  -6  14   7   13.30   10.20
  -6 -14  -7   22.10   12.00
  -6 -14   7   30.10   12.50
   6  14   7   20.00   11.20
   6 -14  -7   29.70    9.00
  -8  14   7   12.00   11.10
  -8 -14  -7   25.70   13.30
  -8  14   7    8.10   10.90
   8 -14  -7   12.00    8.80
   8  14   7   17.40   13.10
  -8 -14   7   -0.70   11.30
  -8 -14   7   -3.10   10.80
 -10 -14  -7    5.10   12.70
  10  14   7   10.80   13.60
 -10 -14   7  -29.60   14.00
 -10 -14   7   17.30   12.70
 -12 -14  -7    4.50   12.30
  12  14   7   -6.90   11.00
 -12 -14   7    4.20   11.90
   1 -15   7   22.20   10.50
  -1  15   7   26.10   10.60
  -1 -15  -7   30.50   11.20
   1 -15  -7   23.70    9.20
   1  15   7   35.70   12.10
  -1 -15   7    7.20    9.70
   3 -15   7   14.50    9.40
  -3  15   7   20.70   10.90
  -3 -15  -7   48.60   12.50
  -3 -15  -7   10.90   10.00
  -3  15   7   40.00   11.90
   3 -15  -7   19.50    8.80
   3  15   7   30.80   11.80
  -3 -15   7   29.70   12.40
  -5  15   7    3.10    9.90
  -5  15   7   17.20   12.50
  -5 -15  -7   12.70   10.70
  -5 -15   7   14.00   11.80
   5 -15  -7   26.10    9.50
   5  15   7   15.10   11.40
  -7 -15  -7   28.70   12.50
  -7  15   7    7.90   11.50
   7  15   7   29.40   12.90
   7 -15  -7   31.70    9.70
  -7 -15   7   28.90   14.00
  -9 -15  -7   17.00   12.80
  -9  15   7   16.50   12.60
   9 -15  -7   14.40   13.70
  -9 -15   7   19.60   13.50
   9  15   7   12.40   12.90
  -9 -15   7    7.70   11.80
 -11 -15  -7  -10.20   11.50
 -11 -15   7   -4.20   10.80
  11  15   7    5.30   11.60
   0  16   7   29.60   12.00
   0 -16   7    9.40    9.40
   0 -16  -7   11.00   10.80
  -2  16   7   28.80   11.80
   2 -16   7   13.60   10.20
  -2 -16  -7   16.70   10.40
   2  16   7    7.70   11.20
   2 -16  -7   27.60   10.10
  -2 -16   7    4.20   10.10
   2 -16  -7   20.00   11.70
  -4 -16  -7    5.50   10.20
  -4  16   7   18.00   12.40
   4  16   7   23.40   11.30
  -4 -16   7   14.20   11.60
   4 -16  -7    1.40    8.10
  -6 -16  -7    6.20   11.00
  -6  16   7    7.70   11.20
   6  16   7   14.70   12.00
  -6 -16   7   28.20   13.80
   6 -16  -7   25.20   11.10
  -8 -16  -7   20.00   12.60
  -8  16   7   18.50   12.40
  -8 -16   7  -11.50   10.70
   8  16   7    5.30   11.90
   8 -16  -7   14.00   14.20
 -10 -16  -7   -0.30   11.60
 -10  16   7   -7.50   13.60
  10 -16  -7   16.70   13.90
  10  16   7    0.90   12.10
 -10 -16   7   15.60   11.00
  -1  17   7   23.40   12.40
  -1 -17  -7   34.00   12.80
   1 -17   7   20.20   11.60
   1  17   7   48.80   14.40
  -1 -17   7   32.50   13.50
   1 -17  -7   30.50   13.80
  -3  17   7   16.10   11.90
   3 -17   7   33.60   12.00
  -3 -17  -7   39.80   17.20
   3 -17  -7   22.80   13.20
   3 -17  -7   40.80   11.00
   3  17   7   40.00   13.90
  -3 -17   7   11.70   11.80
  -5 -17  -7   19.10   11.40
  -5  17   7   34.90   13.60
   5 -17  -7   12.30   14.60
   5  17   7   24.00   12.80
  -5 -17   7   12.70   13.20
  -7 -17  -7   17.70   11.90
  -7  17   7   31.10   13.70
   7 -17  -7   34.30   15.70
  -7 -17   7    1.50   13.50
   7  17   7   12.00   12.70
  -9  17   7   17.50   12.50
  -9 -17  -7   15.20   12.20
   9 -17  -7   26.00   15.00
   9  17   7   -1.00   11.90
  -9 -17   7   10.50   12.90
   0 -18   7   28.50   12.40
   0  18   7    8.10   12.10
   0 -18  -7   19.90   13.20
  -2  18   7   -5.30   10.60
  -2 -18  -7   -3.50   10.30
   2 -18   7    5.40   11.30
   2  18   7   13.20   12.50
  -2 -18   7   13.60   13.10
   2 -18  -7   -9.20   12.30
  -4  18   7    7.00   11.70
   4 -18  -7   -0.70   13.10
   4  18   7   14.10   13.20
  -4 -18   7  -18.40   10.80
  -6 -18  -7   -6.40   10.10
  -6  18   7   18.10   12.90
  -6 -18   7   15.70   13.50
   6  18   7   15.20   13.00
   6 -18  -7   14.70   14.90
  -8  18   7    6.60   12.30
  -8 -18  -7    5.20   10.90
  -8 -18   7   -6.20   11.70
   8 -18  -7   -1.60   12.70
   8  18   7   11.00   11.80
   1 -19   7   13.70   11.80
  -1  19   7   19.00   12.30
  -1 -19  -7   11.90   11.70
   1  19   7   -3.20   11.10
   1 -19  -7   23.50   13.90
  -1 -19   7   -1.70   11.60
  -3  19   7   -0.60   11.70
   3 -19   7    7.80   11.40
   3 -19  -7   -9.80   12.60
  -3 -19   7   11.60   12.00
   3  19   7   -4.00   11.90
  -5  19   7   21.10   13.80
   5  19   7    4.90   12.70
   5 -19  -7   12.30   13.90
  -5 -19   7  -10.50   12.30
  -7  19   7    1.40   12.00
   7  19   7    0.10   12.10
  -7 -19   7    8.80   13.40
   7 -19  -7  -14.60   13.20
   0 -20   7   10.40   12.20
   0  20   7    3.10   11.80
   0 -20  -7  -12.90   11.00
  -2 -20  -7    7.20   11.10
   2 -20   7   -4.90   10.50
  -2  20   7  -10.90   11.60
   2 -20  -7   -9.90   12.00
  -2 -20   7   32.80   13.50
   2  20   7   -4.20   11.20
  -4  20   7   11.30   12.30
   4  20   7   -2.60   11.80
   4 -20  -7    6.50   13.20
  -4 -20   7    0.60   12.80
  -6  20   7    8.40   11.90
   6  20   7    8.80   11.90
   6 -20  -7  -22.00   11.10
  -6 -20   7   -8.80   12.30
  -1  21   7    4.30   12.00
  -1 -21  -7   15.80   12.10
   1 -21   7    6.20   11.30
  -1 -21   7   -7.60   10.50
   1  21   7   11.80   12.30
   1 -21  -7   17.70   13.20
  -3  21   7    6.10   11.30
   3  21   7  -21.80   10.10
   3 -21  -7   24.00   13.10
  -3 -21   7   -2.70   11.00
  -5  21   7    8.00   12.10
   5  21   7   -3.80   10.60
   5 -21  -7    9.20   11.90
  -5 -21   7   19.70   12.80
   0 -22  -7   -1.10   11.50
   0  22   7    0.30   11.30
   0 -22   7   11.20   11.50
  -2  22   7  -10.40   10.60
  -2 -22  -7   28.00   18.20
   2 -22   7   17.90   10.70
   2 -22  -7   -7.90   11.10
  -2 -22   7    2.90   10.70
   2  22   7   -0.80   10.50
  -4  22   7    1.00   12.70
   4  22   7    5.30   11.50
  -4 -22   7  -12.60   10.70
   4 -22  -7   -9.00   11.80
   0   0  -8  994.50   31.50
   0   0   8  927.81   34.70
   0   0   8  962.30   32.30
   2   0  -8 1514.25   45.20
  -2   0   8 1586.44   48.40
  -2   0  -8 1552.04   46.20
  -2   0  -8 1534.05   50.89
  -2   0   8 1517.55   49.80
  -4   0   8  882.31   33.10
  -4   0   8  904.91   34.50
   4   0  -8  942.11   29.10
  -4   0  -8  883.61   35.30
  -6   0   8  565.34   25.80
  -6   0   8  529.75   26.20
  -6   0  -8  576.34   28.20
   6   0  -8  588.04   20.20
   6   0   8  554.14   24.30
  -8   0   8  585.44   28.10
  -8   0   8  629.04   29.50
   8   0  -8  625.94   21.30
  -8   0  -8  588.54   29.90
   8   0   8  637.94   28.60
 -10   0   8  221.88   19.80
 -10   0   8  195.88   18.00
  10   0   8  238.08   19.20
  10   0  -8  206.98   11.90
  12   0   8  203.98   21.70
 -12   0   8  243.98   22.80
  14   0   8  116.19   18.30
  -1   1   8  234.08   13.70
  -1  -1  -8  246.48   16.10
   1   1  -8  266.47   13.10
  -1  -1  -8  281.17   13.60
   1  -1   8  288.47   14.10
  -1   1   8  274.27   15.90
   1  -1  -8  261.17   13.00
  -1  -1   8  253.57   15.50
  -1  -1   8  285.97   14.50
   1   1   8  284.27   14.10
  -1   1  -8  258.47   13.30
  -3  -1  -8  220.38   15.90
  -3   1   8  234.48   15.20
   3   1  -8  222.98   11.60
  -3   1   8  239.58   14.40
  -3  -1   8  242.28   14.30
  -3  -1   8  223.88   15.20
   3  -1  -8  220.08   11.50
  -3   1  -8  227.38   15.40
  -5  -1  -8  228.08   17.10
  -5   1   8  183.38   14.60
  -5   1   8  169.98   13.90
   5  -1   8  196.28   13.40
   5   1  -8  204.18   10.80
   5   1   8  223.38   14.00
  -5  -1   8  177.98   14.70
  -5   1  -8  182.78   15.80
   5  -1  -8  189.98   10.30
  -5  -1   8  201.38   14.50
   7   1  -8  160.68    9.60
   7  -1   8  146.39   13.60
  -7  -1  -8  122.69   15.50
  -7   1   8  162.78   15.50
  -7   1   8  172.68   14.90
  -7  -1   8  127.39   13.90
  -7  -1   8  162.28   15.10
   7   1   8  158.18   13.90
  -7   1  -8  142.29   15.50
   7  -1  -8  150.58    9.00
  -9   1   8   88.19   13.50
   9  -1   8   98.39   14.00
  -9   1   8   99.69   13.90
  -9  -1  -8   87.69   14.20
   9   1  -8   77.69    8.30
  -9  -1   8   87.39   12.90
   9  -1  -8  104.69    7.90
   9   1   8   84.49   13.10
  -9  -1   8   93.79   14.20
 -11   1   8   94.29   14.50
  11  -1   8   38.60   12.20
 -11   1   8   63.19   13.70
 -11  -1   8   89.59   14.30
  11   1   8   68.99   13.70
 -11  -1   8   77.99   14.80
  13  -1   8   68.19   15.70
 -13   1   8   24.10   12.10
 -13  -1   8   41.30   13.90
  13   1   8   42.60   14.80
  15  -1   8   51.99   14.40
  15   1   8   42.40   14.10
   0   2   8  297.27   14.50
   0  -2   8  267.17   15.90
   0  -2   8  286.27   14.50
   0   2  -8  262.87   13.40
   0  -2  -8  262.17   13.60
  -2  -2  -8  640.64   23.80
  -2   2   8  620.74   25.00
  -2  -2  -8  637.14   28.00
   2   2  -8  658.63   23.00
  -2   2   8  649.83   27.20
  -2  -2   8  699.23   27.70
  -2   2  -8  643.14   23.60
  -2   2  -8  631.04   27.40
   2  -2  -8  635.64   22.80
  -2  -2   8  663.43   25.60
  -4  -2  -8  380.86   21.30
   4   2  -8  358.26   15.30
  -4   2   8  368.26   19.80
  -4   2   8  402.76   19.20
  -4  -2   8  368.66   18.70
   4   2   8  353.66   17.30
  -4   2  -8  338.97   19.60
   4  -2  -8  358.36   14.90
  -4  -2   8  369.86   20.20
   6  -2   8  273.47   16.10
  -6   2   8  266.47   17.50
   6   2  -8  250.07   12.50
  -6   2   8  275.87   17.10
  -6  -2  -8  266.97   19.50
   6  -2  -8  258.07   11.70
  -6  -2   8  237.68   16.90
   6   2   8  268.27   16.40
  -6  -2   8  250.17   17.70
   8   2  -8  343.97   15.40
  -8   2   8  343.97   21.90
  -8  -2  -8  325.17   22.80
  -8   2   8  371.06   21.40
   8  -2  -8  367.86   14.20
  -8  -2   8  351.96   22.80
   8   2   8  371.86   21.90
  -8  -2   8  316.37   20.70
 -10   2   8  123.29   16.20
 -10   2   8  115.39   15.30
  10  -2   8  102.39   14.90
 -10  -2  -8  119.79   17.40
 -10  -2   8  146.09   18.00
 -10  -2   8  139.99   16.30
  10  -2  -8  120.49    8.60
  10   2   8  112.49   15.90
  12  -2   8  162.28   20.60
 -12   2   8  167.98   19.60
 -12  -2   8  193.68   21.70
  12   2   8  140.09   19.40
  14  -2   8  103.69   17.40
 -14  -2   8  108.79   18.40
  14   2   8   79.69   16.10
  -1   3   8  184.28   12.40
   1  -3   8  188.68   11.70
   1   3  -8  199.18   11.30
   1  -3   8  183.78   13.50
  -1  -3  -8  185.88   11.60
  -1  -3  -8  181.78   14.20
  -1   3   8  180.18   13.70
   1  -3  -8  180.68   11.00
   1   3   8  183.18   11.60
  -1  -3   8  190.38   13.80
  -1  -3   8  196.08   12.20
  -1   3  -8  184.68   11.40
   3   3  -8  152.48   10.00
  -3  -3  -8  179.68   15.00
  -3   3   8  188.58   12.90
  -3   3   8  171.38   13.20
   3   3   8  164.48   11.70
  -3   3  -8  167.78   13.50
  -3  -3   8  174.68   12.80
  -3  -3   8  160.18   13.80
   3  -3  -8  152.08    9.70
  -5   3   8  136.99   12.80
  -5  -3  -8  175.98   16.40
   5   3  -8  114.69    9.00
  -5   3   8  113.89   11.40
  -5  -3   8  118.39   11.80
   5   3   8  155.48   12.00
   5  -3  -8  140.79    9.00
  -5  -3   8  118.19   12.70
  -7  -3  -8   99.19   15.10
  -7   3   8  102.99   12.90
   7   3  -8  117.49    9.30
  -7   3   8  109.49   12.90
   7  -3  -8  117.69    7.80
   7   3   8  105.89   13.10
  -7  -3   8  109.09   14.00
  -7  -3   8  104.09   12.60
  -9   3   8   77.09   12.60
  -9   3   8   98.09   14.10
  -9  -3  -8   55.59   13.30
   9   3   8   74.99   13.40
   9  -3  -8   85.59    7.20
  -9  -3   8   88.59   14.40
  -9  -3   8   91.49   13.40
 -11   3   8   66.89   12.90
 -11  -3  -8   67.09   14.60
 -11   3   8   54.19   12.00
  11  -3   8   47.20   12.80
  11   3   8   61.29   14.10
 -11  -3   8   69.59   15.30
 -11  -3   8   69.69   13.10
  13  -3   8   26.60   12.90
 -13  -3   8   37.10   14.30
  13   3   8   41.00   13.80
  15  -3   8   13.60   14.90
  15   3   8   32.90   13.20
   0   4   8  728.73   26.90
   0  -4   8  702.83   28.50
   0  -4   8  743.13   27.40
   0  -4  -8  762.02   30.60
   0  -4  -8  701.33   25.80
   0   4  -8  755.32   26.10
  -2   4   8 1183.08   39.50
  -2  -4  -8 1149.48   38.10
  -2  -4  -8 1136.99   42.50
   2   4  -8 1208.68   37.20
  -2   4   8 1203.18   41.30
  -2  -4   8 1233.38   42.10
   2   4   8 1164.68   38.90
   2  -4  -8 1139.99   36.80
  -2  -4   8 1177.88   39.70
  -2   4  -8 1187.18   41.10
  -4   4   8  726.23   28.90
   4   4  -8  680.83   24.50
  -4  -4  -8  694.43   31.60
  -4   4   8  646.84   27.50
  -4  -4   8  698.73   29.80
   4  -4  -8  733.83   24.00
   4   4   8  676.03   27.30
  -4  -4   8  661.03   27.80
  -6  -4  -8  447.16   26.20
   6   4  -8  448.86   18.50
  -6   4   8  401.16   22.10
  -6   4   8  426.26   22.40
  -6  -4   8  484.85   23.40
   6   4   8  434.86   22.00
   6  -4  -8  456.35   16.90
  -6  -4   8  460.15   25.10
  -8  -4  -8  464.65   28.00
  -8   4   8  481.65   25.60
  -8   4   8  487.95   25.50
  -8   4  -8  508.55   24.70
   8  -4  -8  483.25   17.50
  -8  -4   8  510.85   28.60
  -8  -4   8  470.05   25.30
   8   4   8  554.84   26.90
 -10  -4  -8  176.88   20.60
 -10   4   8  207.68   18.30
 -10   4   8  180.58   17.80
  10  -4  -8  172.28    9.60
  10   4   8  204.08   19.50
 -10  -4   8  154.08   17.50
 -10  -4   8  181.28   21.80
 -12  -4  -8  165.98   22.00
  12  -4   8  175.58   21.50
  12   4   8  149.88   20.80
 -12  -4   8  190.78   24.20
  14  -4   8   82.79   16.00
  14   4   8   64.69   15.30
 -14  -4   8  122.49   19.20
   1   5  -8  234.48   13.10
  -1  -5  -8  260.67   14.10
   1  -5   8  260.27   14.10
   1  -5   8  248.68   15.30
  -1   5   8  243.78   14.40
  -1  -5  -8  261.07   17.30
   1  -5  -8  275.07   17.10
   1  -5  -8  228.88   13.30
  -1  -5   8  236.28   15.50
   1   5   8  206.88   13.40
  -1   5  -8  256.57   13.70
   1   5   8  252.37   17.00
  -1  -5   8  239.58   14.60
  -3   5   8  212.88   14.20
  -3   5   8  227.98   15.50
  -3  -5  -8  202.18   16.40
   3   5  -8  236.58   12.70
   3  -5  -8  225.98   12.40
   3   5   8  209.58   14.10
  -3  -5   8  198.58   14.10
  -3  -5   8  229.08   16.70
  -5  -5  -8  163.88   16.70
   5   5  -8  176.48   11.50
  -5   5   8  170.08   14.00
  -5   5   8  200.08   14.70
  -5  -5   8  172.28   14.10
   5   5   8  181.68   14.20
  -5  -5   8  154.08   15.20
   5  -5  -8  187.78   10.80
  -7   5   8  117.79   13.50
  -7   5   8  134.49   14.20
  -7  -5  -8  120.09   16.30
  -7  -5   8  113.49   15.40
   7  -5  -8  152.58    9.10
  -7   5  -8  133.79   13.10
  -7  -5   8  124.69   13.50
   7   5   8  118.19   14.40
  -9  -5  -8   74.29   14.80
  -9   5   8   91.49   13.70
  -9   5   8  105.79   14.30
   9  -5  -8   96.59    7.50
  -9  -5   8   97.29   14.50
  -9  -5   8   90.69   16.00
   9   5   8   78.99   13.90
  -9   5  -8   86.19   13.10
 -11   5   8   62.29   13.20
 -11  -5  -8   82.29   16.30
 -11  -5   8   66.79   16.60
 -11  -5   8   89.79   18.40
  11   5   8   63.99   14.60
 -13  -5  -8   36.30   13.70
  13  -5   8   35.70   14.00
  13   5   8   40.20   14.50
 -13  -5   8   35.30   15.30
   0   6   8  229.58   18.40
   0   6   8  214.38   13.50
   0  -6  -8  195.18   15.70
   0  -6   8  220.78   13.80
   0  -6   8  197.38   13.90
   0  -6  -8  212.48   13.40
   0   6  -8  219.58   13.00
  -2   6   8  426.06   20.40
  -2  -6  -8  431.66   23.30
  -2  -6  -8  466.55   20.10
   2   6  -8  421.66   18.30
   2  -6   8  421.46   19.00
   2   6   8  440.76   25.10
  -2  -6   8  404.76   21.70
   2   6   8  399.16   20.70
  -2  -6   8  414.56   20.60
   2  -6  -8  405.16   18.30
   2  -6  -8  411.86   21.80
  -4   6   8  280.87   17.00
   4   6  -8  240.88   13.60
  -4  -6  -8  228.78   18.30
  -4   6   8  219.78   15.50
  -4  -6   8  270.67   18.40
  -4  -6   8  265.37   16.40
   4   6   8  246.68   16.00
   4  -6  -8  225.58   13.00
  -6   6   8  185.28   15.10
  -6  -6  -8  215.28   19.40
  -6   6   8  159.28   15.20
  -6  -6   8  186.48   18.20
   6  -6  -8  171.98   10.70
   6   6   8  206.68   16.50
  -6  -6   8  176.38   14.90
  -8  -6  -8  271.57   23.00
  -8   6   8  252.07   19.20
  -8   6   8  251.97   18.90
  -8  -6   8  224.78   18.60
  -8  -6   8  258.87   22.50
   8  -6  -8  241.88   12.20
   8   6   8  245.98   19.40
  -8   6  -8  272.07   18.70
 -10  -6  -8  108.19   17.70
 -10   6   8  103.59   15.60
 -10  -6   8   82.59   14.30
  10  -6  -8   88.79    8.00
  10   6   8   97.59   16.00
 -10  -6   8   96.39   17.10
 -10   6  -8   93.19   14.50
 -12  -6  -8  152.98   20.70
 -12  -6   8  107.99   20.30
  12   6   8   66.99   15.80
  14  -6   8   37.30   14.10
  14   6   8   67.89   15.90
 -14  -6   8   67.39   17.60
  -1  -7  -8  100.49   13.00
  -1   7   8   82.99   10.20
  -1  -7  -8   88.59   10.20
   1  -7   8   97.49    9.80
  -1   7   8   87.59   11.10
   1  -7  -8   87.09   12.10
  -1  -7   8   79.29   10.70
   1  -7  -8  100.29   10.00
   1   7   8   96.29   10.90
  -1  -7   8   94.89   10.70
   1   7   8   92.69   10.50
  -3   7   8   83.09   10.70
  -3  -7  -8   73.49   12.00
  -3  -7   8   69.09   11.00
   3  -7  -8   81.79    9.10
   3  -7  -8   82.19   12.40
   3   7   8   79.79   11.50
  -3  -7   8   65.69   10.10
  -5   7   8   61.29   10.20
  -5   7   8   80.89   11.90
  -5  -7  -8   68.69   12.90
   5  -7  -8   85.09    8.60
  -5  -7   8   77.29   11.30
   5   7   8   63.09   10.90
  -5  -7   8   73.99   12.20
  -7   7   8   48.40   11.00
  -7   7   8   36.50   10.10
  -7  -7  -8   54.29   13.20
   7   7   8   58.49   11.60
  -7  -7   8   48.20   10.80
  -7  -7   8   59.19   13.00
   7  -7  -8   79.89    8.30
  -9   7   8   46.90   11.60
  -9  -7  -8   17.10   11.40
  -9   7  -8   34.30   10.60
  -9  -7   8   49.40   13.80
  -9  -7   8   31.10   10.70
   9   7   8   47.60   13.00
   9  -7  -8   43.20    6.40
 -11   7   8   36.40   12.10
 -11  -7  -8   36.40   14.40
  11   7   8   21.90   13.00
 -11  -7   8   50.09   16.30
 -11   7  -8   19.40   11.50
  13  -7   8   27.40   14.00
 -13  -7  -8   25.70   13.80
  13   7   8   19.30   13.40
 -13  -7   8   25.40   16.00
   0   8   8  348.27   19.10
   0  -8  -8  335.07   20.90
   0  -8   8  363.46   19.10
   0   8   8  305.87   18.10
   0  -8  -8  354.46   18.30
  -2  -8  -8  500.25   27.10
  -2  -8  -8  556.24   24.30
   2  -8   8  514.85   23.20
  -2   8   8  614.44   25.70
  -2   8   8  546.65   24.80
  -2  -8   8  524.45   24.80
   2   8   8  531.75   24.20
   2  -8  -8  507.45   22.90
  -2  -8   8  520.75   25.60
   2  -8  -8  584.74   26.90
   2   8   8  555.44   26.00
  -4   8   8  323.37   19.70
  -4  -8  -8  325.37   22.80
   4  -8  -8  347.77   16.90
  -4  -8   8  319.87   20.70
   4   8   8  336.77   20.60
   4  -8  -8  352.26   20.70
  -4  -8   8  280.57   19.20
  -6  -8  -8  265.47   22.00
  -6   8   8  245.68   18.70
  -6  -8   8  199.18   17.50
   6  -8  -8  217.08   13.10
  -6  -8   8  202.08   18.90
   6   8   8  213.78   18.50
  -8  -8  -8  270.27   23.50
  -8   8   8  233.98   19.20
   8   8   8  262.27   21.60
  -8  -8   8  238.18   22.60
   8  -8  -8  241.38   13.50
  -8  -8   8  244.08   20.10
 -10   8   8   67.19   14.40
 -10  -8  -8   97.29   18.20
 -10   8  -8  123.89   18.40
  10   8   8  134.69   19.30
  10  -8  -8   77.29    9.20
 -10  -8   8   76.59   16.90
 -10  -8   8  112.99   16.70
 -12  -8  -8   98.19   18.40
 -12  -8   8  115.09   20.40
  12   8   8  101.99   17.70
  14  -8   8   53.29   18.90
 -14  -8   8   58.49   16.40
  14   8   8   46.10   14.40
   1  -9   8  157.28   13.70
  -1   9   8  129.69   13.30
  -1   9   8  151.68   14.30
  -1  -9  -8  120.59   15.10
  -1  -9  -8  171.08   13.90
   1  -9  -8  152.88   15.60
  -1  -9   8  139.49   14.20
   1   9   8  151.28   13.90
   1   9   8  159.58   14.50
   1  -9  -8  139.59   12.90
  -3  -9  -8   94.79   14.60
  -3   9   8  117.49   13.80
  -3   9   8  141.69   13.60
  -3  -9   8  126.69   14.00
  -3  -9   8  108.69   13.50
   3   9   8  148.49   15.20
   3  -9  -8  133.09   11.80
   3  -9  -8  126.99   14.60
  -5   9   8   84.29   13.20
  -5  -9  -8   81.09   14.90
   5   9   8   86.39   13.30
  -5  -9   8   84.89   13.50
  -5  -9   8  109.39   14.80
   5  -9  -8   95.89   10.20
  -7   9   8   76.29   13.20
  -7  -9  -8   72.79   14.90
   7   9   8   77.49   13.60
   7  -9  -8   89.49    9.80
  -7  -9   8   49.20   12.10
  -7  -9   8   73.09   14.70
  -9   9   8   59.09   13.40
  -9  -9  -8   89.09   17.90
   9   9   8   70.59   15.20
  -9  -9   8   54.89   13.10
   9  -9  -8   40.80    7.50
  -9  -9   8   57.09   15.60
 -11   9   8   31.70   11.90
 -11  -9  -8   49.60   16.30
  11   9   8   18.90   13.70
 -11   9  -8   48.50   13.60
 -11  -9   8   35.60   15.10
 -13  -9  -8   48.00   15.20
  13   9   8    9.70   12.90
 -13  -9   8   29.60   14.70
   0 -10  -8  118.39   14.80
   0  10   8  105.69   13.40
   0  10   8   99.39   13.00
   0 -10   8  114.89   13.20
   0 -10  -8  100.89   12.40
  -2  10   8  183.08   16.60
  -2 -10  -8  191.78   18.70
   2 -10   8  206.98   15.60
  -2  10   8  190.78   16.60
  -2 -10   8  216.38   17.80
   2  10   8  202.98   17.30
   2  10   8  248.18   17.40
   2 -10  -8  201.58   17.40
   2 -10  -8  222.28   15.80
  -4  10   8  118.49   14.20
  -4 -10  -8  131.99   17.00
  -4  10   8  123.89   13.60
  -4 -10   8  142.39   15.20
   4  10   8  118.39   15.20
  -4 -10   8  107.49   14.60
   4 -10  -8  104.89   11.40
  -6 -10  -8  111.29   16.80
  -6  10   8  114.89   16.10
   6 -10  -8   83.79   10.60
  -6 -10   8   86.49   14.10
   6  10   8   74.09   13.60
  -6 -10   8   87.49   14.60
  -8  10   8  106.59   16.20
  -8 -10  -8  145.99   20.10
   8  10   8  152.58   20.60
  -8 -10   8  116.89   17.30
   8 -10  -8   98.59   11.30
  -8 -10   8   89.89   16.60
 -10  10   8   34.90   12.60
 -10 -10  -8   38.40   15.20
 -10 -10   8   40.90   16.00
 -10 -10   8   55.09   13.40
  10  10   8   70.39   16.00
 -12 -10  -8   56.79   16.80
 -12  10  -8   56.89   14.10
 -12 -10   8   37.70   15.70
  12  10   8   53.89   15.50
   1 -11   8   50.49   10.20
  -1  11   8   44.00   10.40
  -1  11   8   20.10    9.00
  -1 -11  -8   25.20    9.70
  -1 -11  -8   24.20    8.20
   1  11   8   30.50    9.40
  -1 -11   8   30.50    9.70
   1  11   8   11.80    7.70
   1 -11  -8   46.70    9.60
   1 -11  -8   14.70    8.40
  -3 -11  -8   27.10   10.40
  -3  11   8   35.50   10.30
  -3  11   8   46.40   10.70
   3  11   8   37.80   10.10
   3 -11  -8   16.70    7.10
  -3 -11   8   28.20   10.20
  -5 -11  -8   15.10   10.70
  -5  11   8   41.90   11.10
  -5  11   8   18.40    9.00
  -5 -11   8   20.40   10.20
   5 -11  -8   22.70    7.40
   5  11   8   21.90   10.00
  -5 -11   8   35.30   10.50
  -7 -11  -8   35.20   12.70
  -7  11   8   20.50   10.80
  -7 -11   8    6.90    9.90
   7 -11  -8   26.70    8.00
  -7 -11   8   45.30   12.90
   7  11   8   22.10   12.30
  -9  11   8    5.30   10.40
  -9 -11  -8   35.30   15.30
   9 -11  -8   16.50    7.30
  -9 -11   8   15.40   12.80
  -9 -11   8    1.60   11.40
   9  11   8   13.20   12.80
 -11 -11  -8   31.30   14.90
  11  11   8   -1.00   12.60
 -11 -11   8   -0.30   12.30
 -13 -11  -8    4.80   12.20
  13  11   8   -2.60   12.10
 -13 -11   8   19.60   13.60
   0 -12  -8   98.09   13.70
   0 -12   8   92.99   13.80
   0  12   8  121.79   15.30
   0 -12  -8   87.19   13.80
   0  12   8   79.19   13.60
  -2  12   8  184.48   16.70
  -2 -12  -8  157.18   18.50
  -2  12   8  138.79   16.30
   2 -12   8  162.48   15.90
  -2 -12   8  172.38   17.60
   2 -12  -8  140.19   14.80
   2  12   8  151.58   17.30
  -4 -12  -8  103.19   16.00
  -4  12   8  118.49   15.10
  -4  12   8  128.89   17.20
  -4 -12   8  102.99   15.80
   4 -12  -8  103.69   12.90
   4  12   8   96.69   15.40
  -6  12   8   66.49   13.00
  -6  12   8   87.49   15.50
  -6 -12  -8   89.79   16.30
   6 -12  -8   74.49   10.90
   6  12   8   69.09   15.00
  -6 -12   8   64.29   14.60
  -6 -12   8   83.19   14.30
  -8  12   8   59.09   14.60
  -8 -12  -8   45.50   15.10
  -8 -12   8  105.79   17.50
  -8 -12   8  102.39   17.20
   8 -12  -8  102.39   12.90
   8  12   8  105.99   18.50
 -10  12   8   41.40   13.20
 -10 -12  -8   30.50   15.40
 -10 -12   8   63.59   16.40
  10  12   8   41.40   15.30
 -10 -12   8   51.99   15.60
 -12 -12  -8   51.99   15.90
  12  12   8   35.60   14.80
 -12 -12   8   27.90   13.90
  -1  13   8   38.90   10.90
  -1  13   8   36.10   11.30
   1 -13   8   34.70   10.30
  -1 -13  -8   56.59   12.20
   1 -13  -8   45.80   10.40
  -1 -13   8   36.60   11.10
   1  13   8   52.79   12.30
   3 -13   8   52.19   14.40
  -3 -13  -8   55.59   12.70
  -3  13   8   51.29   11.60
  -3  13   8   34.70   11.20
   3  13   8   63.49   13.50
  -3 -13   8   55.79   13.10
   3 -13  -8   55.99   10.80
  -5  13   8   33.80   12.30
  -5  13   8   50.69   12.30
  -5 -13  -8   47.80   13.50
  -5 -13   8   36.80   13.10
   5  13   8   63.29   13.70
   5 -13  -8   34.90    9.70
  -7 -13  -8   20.00   12.30
  -7  13   8   46.20   13.50
  -7  13   8   31.00   11.40
   7  13   8   46.90   14.40
   7 -13  -8   20.90    8.60
  -7 -13   8   28.00   12.60
  -7 -13   8   21.50   11.70
  -9  13   8    9.60   11.50
  -9 -13  -8   21.80   13.80
   9  13   8   26.10   14.60
  -9 -13   8    0.80   12.20
  -9 -13   8   -4.50   12.40
 -11 -13  -8   11.80   12.80
  11  13   8    9.10   13.20
 -11 -13   8   25.60   12.90
   0  14   8   44.30   11.50
   0 -14  -8   53.89   11.70
   0 -14   8   32.70   11.40
  -2  14   8   98.79   15.40
  -2 -14  -8   43.70   12.10
   2 -14   8   49.20   11.90
  -2  14   8   53.19   13.00
  -2 -14  -8   74.29   14.00
   2 -14  -8   59.29   11.60
   2  14   8   50.69   13.00
  -2 -14   8   44.10   13.00
  -4  14   8   29.30   12.30
  -4  14   8   47.00   12.40
  -4 -14  -8   42.40   12.50
  -4 -14   8   32.80   12.70
   4  14   8   48.20   13.50
   4 -14  -8   37.20   10.00
  -6  14   8   43.70   14.10
  -6 -14  -8   53.89   14.70
  -6  14   8   20.40   11.10
   6 -14  -8   52.59   10.70
   6  14   8   28.20   12.80
  -6 -14   8   29.80   13.70
  -8  14   8   42.60   13.90
  -8 -14  -8   36.60   14.30
   8  14   8   16.80   13.40
  -8 -14   8   15.60   14.40
  -8 -14   8   25.70   12.40
 -10 -14  -8   -1.30   12.10
 -10 -14   8   23.80   12.60
  10  14   8    5.80   12.00
 -10 -14   8   22.00   13.00
  -1  15   8   14.90    9.90
   1 -15   8    2.60   10.00
  -1 -15  -8    5.90   10.10
   1  15   8   14.60   11.10
  -1 -15   8    0.50   10.00
   1 -15  -8   20.70    9.70
  -3  15   8    5.70   10.30
  -3  15   8   15.90   10.50
   3 -15   8   -1.40    8.40
  -3 -15  -8   16.00   10.60
  -3 -15   8    1.30   10.50
   3  15   8   -1.70    9.60
   3 -15  -8    9.80    9.00
  -5  15   8    4.90   10.30
  -5  15   8   31.00   13.60
  -5 -15  -8   -2.70   10.60
   5  15   8   -6.00   10.10
   5 -15  -8   -1.40    8.20
  -5 -15   8   16.30   12.20
  -7  15   8   18.00   13.10
  -7 -15  -8   -2.20   11.20
  -7  15   8   11.60   11.50
   7  15   8   15.20   13.30
  -7 -15   8   -3.40   12.20
  -9 -15  -8   15.10   12.20
  -9 -15   8    8.20   11.50
  -9 -15   8    0.90   12.60
   9  15   8   23.50   14.00
 -11 -15  -8   11.40   11.90
  11  15   8   14.80   13.00
   0 -16   8   24.60   11.70
   0 -16  -8   13.80   12.20
   0  16   8   39.40   13.10
  -2  16   8   37.50   13.30
  -2 -16  -8   17.40   11.40
   2 -16   8   21.80   11.20
   2 -16  -8   29.30   10.80
   2  16   8   28.90   13.40
  -2 -16   8   27.50   13.40
   2 -16  -8   33.40   13.70
  -4 -16  -8   24.20   12.60
  -4  16   8   32.30   13.00
   4  16   8   35.60   13.40
  -4 -16   8   27.10   14.20
   4 -16  -8   40.20   11.10
  -6  16   8   23.00   12.30
  -6 -16  -8   27.30   12.90
   6  16   8   -1.00   12.10
  -6 -16   8   24.40   14.60
  -8  16   8   44.40   13.60
  -8 -16  -8   19.40   12.60
   8  16   8    9.90   13.50
  -8 -16   8   10.80   14.50
   8 -16  -8   41.80   15.70
 -10 -16  -8   -2.20   11.30
  10 -16  -8    8.30   20.10
  10  16   8   24.50   13.30
   1 -17   8   10.30   10.90
  -1  17   8   10.80   11.50
  -1 -17  -8   11.10   11.90
   1 -17  -8   16.20   12.70
  -1 -17   8    2.60   11.00
   1  17   8   11.80   11.90
   3 -17   8   35.60   16.60
  -3  17   8   20.10   12.80
   3 -17  -8    6.00   13.50
  -3 -17   8   14.50   13.30
   3  17   8    8.00   12.50
  -5  17   8   16.20   11.80
  -5 -17  -8   12.00   11.30
   5 -17  -8    8.80   13.70
  -5 -17   8   12.90   13.50
   5  17   8    5.50   12.10
  -7 -17  -8   26.50   12.50
  -7  17   8    0.80   11.60
   7 -17  -8    3.20   14.00
   7  17   8   -1.70   11.90
  -7 -17   8   19.40   14.20
  -9 -17  -8   11.90   11.40
   9  17   8   -7.60   10.60
   9 -17  -8   -4.70   12.90
  -9 -17   8  -15.80   12.80
   0  18   8   14.20   12.20
   0 -18  -8    3.50   12.10
   0 -18   8   16.40   12.60
   2 -18   8    8.30   11.10
  -2  18   8   13.40   11.70
  -2 -18  -8   10.60   11.20
   2  18   8   10.90   12.90
  -2 -18   8   23.90   13.70
   2 -18  -8   -5.70   12.50
  -4  18   8    9.70   11.40
   4  18   8    6.80   13.00
  -4 -18   8  -25.30   11.00
   4 -18  -8   -7.20   12.30
  -6 -18  -8   14.60   11.50
  -6  18   8   -3.50   11.20
   6  18   8   27.30   14.20
   6 -18  -8  -16.70   13.20
  -6 -18   8   -3.80   13.30
  -8  18   8   -8.20   11.60
  -8 -18  -8    8.60   10.30
   8  18   8    5.80   12.10
   8 -18  -8   21.90   14.60
  -8 -18   8   33.00   14.80
  -1 -19  -8  -19.80    9.80
  -1  19   8   -8.50   10.80
   1 -19   8   -1.80   11.00
  -1 -19   8   14.10   12.70
   1 -19  -8   -3.30   12.60
   1  19   8   12.90   12.50
  -3  19   8   15.80   12.00
  -3 -19   8   12.50   12.70
   3  19   8   -1.30   12.10
   3 -19  -8  -16.50   12.90
  -5  19   8    8.10   12.00
   5  19   8   21.70   12.90
   5 -19  -8    8.20   14.20
  -5 -19   8    2.40   12.80
  -7  19   8   -3.20   11.20
   7 -19  -8    8.00   13.80
   7  19   8   -4.70   11.40
  -7 -19   8  -11.30   11.50
   0 -20   8   -1.40   10.80
   0 -20  -8    8.30   12.40
   0  20   8    3.20   11.20
  -2  20   8    5.20   12.60
   2 -20   8   25.80   12.40
  -2 -20   8  -10.10   10.90
   2  20   8   -9.40   11.00
   2 -20  -8   21.90   14.00
  -4  20   8    0.70   11.80
   4 -20  -8    8.10   13.20
  -4 -20   8    0.70   11.60
   4  20   8   16.30   13.00
  -6  20   8    2.80   16.60
   6 -20  -8   -8.60   11.70
  -6 -20   8    2.80   11.70
   6  20   8  -12.40   10.40
  -1 -21  -8   14.20   11.40
  -1  21   8   -6.80   11.60
   1 -21   8   11.90   11.10
  -1 -21   8   11.80   11.70
   1 -21  -8   -2.30   12.10
   1  21   8    4.20   11.60
  -3  21   8   21.80   12.30
   3  21   8    7.60   11.90
   3 -21  -8    2.10   12.10
  -3 -21   8   16.60   11.50
   0  22   8  -14.40   10.30
   0   0   9  335.87   16.90
   0   0  -9  331.17   16.10
  -2   0   9  293.77   16.70
   2   0  -9  309.67   15.10
  -2   0  -9  292.47   15.50
  -2   0  -9  298.77   19.10
  -2   0   9  293.27   18.30
  -4   0  -9  286.37   19.20
  -4   0   9  257.27   17.60
  -4   0   9  266.17   17.20
   4   0  -9  259.27   13.70
   6   0  -9  175.48   11.20
  -6   0  -9  201.78   18.20
  -6   0   9  172.88   15.90
   6   0   9  213.78   15.30
  -6   0   9  221.48   17.50
  -8   0   9  152.38   15.50
  -8   0   9  142.09   17.00
   8   0  -9  139.39   10.30
   8   0   9  133.99   14.80
  -8   0  -9  134.09   16.20
  10   0  -9   98.29   10.30
 -10   0   9  114.59   16.70
  10   0   9   88.29   14.80
 -10   0   9   99.29   16.40
  12   0   9   61.49   14.90
 -12   0   9   51.69   14.30
  14   0   9   18.70   12.70
  -1   1   9  689.33   27.10
  -1   1   9  664.93   29.30
   1   1  -9  669.23   25.30
  -1  -1  -9  704.73   25.90
  -1  -1  -9  659.03   30.00
   1  -1   9  692.73   26.20
  -1  -1   9  677.83   29.30
  -1  -1   9  674.03   27.00
  -1   1  -9  709.43   30.50
   1   1   9  698.93   26.10
   1  -1  -9  699.43   25.60
  -1   1  -9  683.43   25.80
  -3  -1  -9  593.04   28.60
   3   1  -9  599.94   22.40
  -3   1   9  610.04   26.80
  -3   1   9  573.24   25.40
  -3  -1   9  577.64   26.90
  -3  -1   9  534.65   25.10
   3  -1  -9  560.64   22.00
  -3   1  -9  547.35   27.00
  -5   1   9  440.66   24.00
  -5   1   9  469.05   23.40
  -5  -1  -9  458.45   26.00
   5   1  -9  465.75   18.90
  -5  -1   9  426.16   24.10
  -5  -1   9  455.15   23.20
   5  -1  -9  451.05   18.50
  -5   1  -9  459.75   25.40
   7  -1   9  367.06   20.80
  -7   1   9  334.87   21.80
   7   1  -9  360.76   16.20
  -7   1   9  346.67   21.90
  -7  -1  -9  352.06   24.20
   7   1   9  380.26   21.60
  -7  -1   9  361.86   23.20
  -7  -1   9  376.06   22.50
   7  -1  -9  328.87   15.30
  -7   1  -9  341.77   23.40
  -9  -1  -9  204.38   20.60
   9   1  -9  228.78   13.70
  -9   1   9  209.18   19.20
   9  -1   9  233.68   18.80
  -9   1   9  262.37   20.50
  -9  -1   9  209.98   18.90
  -9  -1   9  217.88   21.00
   9  -1  -9  230.08   12.80
   9   1   9  242.18   19.70
  11  -1   9  195.08   20.20
 -11   1   9  172.98   20.70
 -11   1   9  202.28   20.20
 -11  -1   9  170.78   20.00
  11   1   9  149.39   20.20
 -11  -1   9  192.08   22.50
  13  -1   9  115.79   18.10
 -13   1   9   89.69   16.70
  13   1   9  116.29   17.70
 -13  -1   9  106.19   17.50
   0  -2   9  129.99   13.20
   0   2  -9  110.99    9.80
   0  -2   9  102.79   10.00
   0   2   9   96.69    9.80
   0  -2  -9  106.19    9.80
   0  -2  -9  105.39   12.50
  -2   2   9   90.69   10.30
  -2  -2  -9   80.99   12.10
  -2   2   9   97.79   11.80
  -2  -2  -9  103.89    9.90
   2   2  -9   88.39    9.00
   2  -2  -9   79.79    8.70
  -2   2  -9   79.99   11.50
  -2  -2   9  101.29   10.50
  -2  -2   9   96.49   12.20
   4   2  -9   92.29    9.10
  -4   2   9   90.69   10.90
  -4  -2  -9  101.09   14.00
  -4   2   9  116.39   12.80
  -4  -2   9  114.89   13.30
  -4   2  -9   95.39   12.90
  -4  -2   9   86.99   11.00
   4  -2  -9   99.09    8.70
  -6   2   9   77.99   12.20
  -6  -2  -9   73.69   13.30
  -6   2   9   82.49   12.20
   6   2  -9   81.99    8.70
   6   2   9   88.69   12.20
   6  -2  -9   90.89    8.40
  -6  -2   9   68.29   11.40
  -6  -2   9   76.79   13.10
   8  -2   9   64.09   11.60
  -8  -2  -9   41.90   11.40
  -8   2   9   85.59   13.30
   8   2  -9   54.99    7.80
  -8   2   9   68.99   12.20
  -8  -2   9   64.49   12.30
   8   2   9   83.19   12.60
   8  -2  -9   56.69    7.70
  -8  -2   9   70.79   13.10
 -10  -2  -9   70.09   14.80
 -10   2   9   55.99   12.30
 -10   2   9   33.80   11.60
  10  -2   9   48.30   12.10
 -10  -2   9   48.70   13.50
  10  -2  -9   54.79    7.30
  10   2   9   59.09   12.80
 -10  -2   9   52.39   12.50
  12  -2   9   41.50   13.50
 -12   2   9   37.60   13.30
  12   2   9   28.90   12.80
 -12  -2   9   45.10   14.90
  14  -2   9   28.30   13.10
 -14  -2   9   14.70   12.50
  14   2   9   17.60   12.10
   1   3  -9  543.15   21.80
   1  -3   9  552.94   22.50
  -1  -3  -9  533.45   26.30
  -1   3   9  548.35   23.20
  -1  -3  -9  523.85   22.00
   1  -3  -9  525.85   21.70
  -1  -3   9  495.15   24.80
  -1   3  -9  581.14   22.60
  -1  -3   9  520.05   23.10
   1   3   9  514.05   22.10
   3   3  -9  469.95   19.30
  -3   3   9  436.16   21.70
  -3  -3  -9  449.86   24.90
  -3   3   9  445.96   22.90
  -3  -3   9  447.86   23.50
  -3   3  -9  438.56   23.30
   3  -3  -9  427.86   18.60
  -3  -3   9  429.96   21.80
  -5  -3  -9  332.57   22.70
  -5   3   9  341.97   20.50
  -5   3   9  325.97   19.60
   5   3  -9  334.57   16.30
  -5  -3   9  370.16   22.70
   5   3   9  393.66   20.00
   5  -3  -9  349.96   15.70
  -5  -3   9  384.16   20.70
  -7   3   9  250.27   19.00
  -7  -3  -9  285.47   23.20
  -7   3   9  273.37   19.70
   7   3  -9  307.67   15.60
  -7  -3   9  310.37   22.20
   7  -3  -9  303.07   14.10
  -7  -3   9  303.77   20.40
   7   3   9  332.77   20.50
  -9   3   9  210.38   19.30
  -9   3   9  193.18   18.10
  -9  -3  -9  167.48   19.70
   9  -3   9  171.68   17.80
  -9  -3   9  197.48   20.70
   9   3   9  179.08   18.20
   9  -3  -9  188.88   11.40
  -9  -3   9  227.98   19.70
  11  -3   9  175.88   19.60
 -11  -3  -9  161.18   21.30
 -11   3   9  169.48   20.00
 -11   3   9  163.88   18.50
  11   3   9  164.28   20.20
 -11  -3   9  175.58   20.10
  11  -3  -9  151.68   12.70
 -11  -3   9  184.78   22.80
  13  -3   9   90.09   16.40
 -13  -3   9   87.59   18.30
  13   3   9   78.69   15.80
   0   4  -9  277.77   15.00
   0  -4   9  252.57   15.30
   0  -4  -9  284.27   19.00
   0   4   9  283.87   15.70
   0  -4   9  245.28   17.20
   0  -4  -9  270.17   15.00
  -2  -4  -9  231.98   14.50
  -2  -4  -9  249.28   18.70
  -2   4   9  259.67   16.20
   2   4  -9  253.77   14.10
  -2   4  -9  229.58   16.80
   2  -4  -9  227.98   13.50
  -2  -4   9  226.88   15.80
  -2  -4   9  251.57   18.00
   4   4  -9  212.78   12.90
  -4   4   9  203.88   16.30
  -4  -4  -9  212.28   18.40
  -4   4   9  203.38   15.30
   4   4   9  222.18   15.20
  -4  -4   9  200.88   15.40
  -4  -4   9  216.48   17.90
   4  -4  -9  222.58   12.50
  -6   4   9  144.29   14.70
   6   4  -9  145.99   11.30
  -6   4   9  156.58   15.30
  -6  -4  -9  144.49   17.30
   6   4   9  155.78   14.50
  -6  -4   9  158.58   16.20
  -6  -4   9  137.99   14.20
   6  -4  -9  163.48   10.40
  -8   4   9  102.49   15.30
  -8   4   9  129.79   15.50
  -8  -4  -9  148.29   18.50
  -8  -4   9  117.99   15.30
   8   4   9  109.99   15.50
  -8  -4   9  112.89   16.20
   8  -4  -9  103.29    8.90
 -10   4   9   84.49   14.00
 -10  -4  -9   87.39   16.30
  10  -4   9  100.99   15.50
 -10   4   9   93.99   15.10
 -10  -4   9   91.39   15.00
 -10  -4   9   74.59   15.40
  10  -4  -9   96.29    9.00
  10   4   9   91.29   15.50
  12  -4   9   37.60   12.80
 -12  -4  -9   50.99   14.70
  12   4   9   61.79   14.80
 -12  -4   9   54.99   16.90
  14  -4   9   25.40   13.60
 -14  -4   9   22.60   14.30
  14   4   9   35.20   13.90
  -1  -5  -9  543.75   23.00
  -1   5   9  528.05   23.70
   1  -5   9  534.65   22.90
  -1  -5  -9  539.35   26.90
   1   5  -9  514.75   21.80
   1   5   9  545.95   23.20
   1  -5  -9  525.55   26.50
   1  -5  -9  526.45   22.20
  -1  -5   9  520.75   25.30
  -1  -5   9  518.95   23.50
  -3  -5  -9  441.96   25.40
   3   5  -9  493.55   20.30
  -3   5   9  431.76   22.00
  -3  -5   9  422.66   24.00
  -3  -5   9  442.56   22.50
   3   5   9  452.35   22.30
   3  -5  -9  453.75   19.70
  -5  -5  -9  392.66   25.50
  -5   5   9  355.86   21.30
   5   5  -9  366.36   17.90
  -5   5   9  385.46   22.10
  -5  -5   9  362.66   21.70
   5  -5  -9  391.26   17.30
  -5  -5   9  382.16   23.50
   5   5   9  364.36   20.80
  -7   5   9  315.77   21.50
  -7   5   9  295.77   20.70
  -7  -5  -9  282.57   24.00
  -7  -5   9  294.47   20.20
  -7  -5   9  296.17   22.20
   7   5   9  267.47   20.20
   7  -5  -9  296.37   14.30
  -9   5   9  154.78   17.80
  -9   5   9  160.68   18.40
  -9  -5  -9  201.78   22.60
  -9  -5   9  202.78   19.40
   9   5   9  177.38   19.30
   9  -5  -9  184.78   11.10
  -9  -5   9  151.48   20.20
  11  -5   9  148.59   20.10
 -11  -5  -9  155.08   22.00
 -11   5   9  161.88   19.40
 -11  -5   9  144.69   19.60
 -11  -5   9  148.39   22.80
  11   5   9  130.09   18.70
  13  -5   9  102.09   16.20
 -13  -5   9   76.49   17.80
  13   5   9   89.59   17.20
   0  -6  -9   85.89   10.00
   0   6   9   83.39   10.80
   0  -6  -9   83.19   12.70
   0  -6   9   77.49   11.30
   0   6  -9   75.89    9.80
   0  -6   9   84.49   10.60
  -2  -6  -9   70.89   10.10
  -2  -6  -9   80.79   13.00
   2   6  -9   62.49    9.10
  -2   6   9   74.19   10.90
   2  -6  -9   71.29    9.30
   2  -6  -9   62.89   11.40
  -2  -6   9   82.89   12.60
  -2  -6   9   81.49   11.60
   2   6   9   86.99   12.10
   4   6  -9   69.39    9.20
  -4  -6  -9  105.59   15.50
  -4   6   9   57.69   10.20
   4  -6  -9   78.99    8.90
   4   6   9   72.79   11.40
  -4  -6   9   81.29   11.40
  -4  -6   9   70.29   12.20
  -6   6   9   52.89   10.80
  -6   6   9   51.19   11.10
  -6  -6  -9   52.09   13.10
  -6  -6   9   53.49   11.80
  -6  -6   9   54.49   11.10
   6   6   9   68.39   11.90
   6  -6  -9   60.89    8.20
  -8  -6  -9   38.10   12.30
  -8   6   9   62.69   12.30
  -8   6   9   65.89   12.30
   8  -6  -9   56.29    7.60
  -8  -6   9   55.79   12.20
  -8  -6   9   19.90   10.50
   8   6   9   31.80   10.90
 -10   6   9   48.70   12.70
 -10  -6  -9   37.40   13.60
  10   6   9   47.20   13.50
  10  -6  -9   38.00    6.70
 -10  -6   9   18.20   11.10
 -10  -6   9   19.70   12.60
 -12  -6  -9   26.80   13.90
  12  -6   9   22.90   12.50
  12   6   9   21.70   13.30
 -12  -6   9   38.60   15.10
  14   6   9    8.70   12.20
 -14  -6   9   33.00   16.20
  -1   7   9  275.37   17.20
  -1  -7  -9  288.27   20.50
  -1  -7  -9  275.17   16.60
   1  -7   9  240.18   15.90
  -1  -7   9  289.77   17.70
   1   7   9  245.08   17.00
   1  -7  -9  258.67   16.10
   1  -7  -9  276.77   20.30
   1   7   9  276.17   17.00
  -1  -7   9  239.78   17.50
  -3  -7  -9  249.08   20.00
  -3   7   9  223.78   16.50
   3   7   9  225.68   17.40
  -3  -7   9  196.38   17.40
   3  -7  -9  246.38   18.60
  -3  -7   9  256.27   17.30
   3  -7  -9  228.78   14.30
  -5  -7  -9  182.28   19.40
  -5   7   9  177.58   16.00
  -5  -7   9  196.98   18.70
   5  -7  -9  185.48   12.70
  -5  -7   9  212.18   16.80
   5   7   9  199.18   17.00
  -7   7   9  180.48   17.00
  -7   7   9  143.89   17.10
  -7  -7  -9  159.78   19.40
  -7  -7   9  160.28   19.50
   7   7   9  154.88   17.50
   7  -7  -9  177.38   12.20
  -7  -7   9  157.08   17.40
  -9   7   9  128.09   17.50
  -9  -7  -9  112.09   19.10
  -9  -7   9  115.29   18.10
  -9  -7   9   99.99   16.10
   9  -7  -9  122.79   10.70
   9   7   9   88.59   15.80
  11  -7   9  122.49   18.70
 -11   7   9  115.29   17.30
 -11  -7  -9   58.59   16.10
  11   7   9   85.59   16.90
 -11  -7   9   96.99   18.80
 -11  -7   9  138.99   18.30
  13  -7   9   52.09   13.70
 -13  -7  -9   65.79   15.90
 -13  -7   9   65.39   17.10
  13   7   9   84.79   16.70
   0  -8  -9  127.39   15.50
   0  -8  -9  115.69   12.50
   0  -8   9  118.69   12.80
   0   8   9  130.39   13.80
   0   8   9  134.09   13.50
  -2   8   9  121.69   13.60
  -2  -8  -9  103.19   14.90
   2  -8   9  119.89   12.50
  -2  -8   9  118.39   13.30
   2  -8  -9  100.69   15.00
  -2  -8   9  112.29   13.80
   2   8   9  132.69   13.70
   2  -8  -9  125.59   12.10
  -4  -8  -9  116.69   16.60
  -4   8   9  104.59   13.80
   4  -8  -9  119.59   11.60
  -4  -8   9  127.79   16.10
  -4  -8   9  104.29   13.70
   4   8   9  132.19   15.30
   4  -8  -9   98.59   15.20
  -6   8   9   81.99   13.20
  -6  -8  -9   73.99   14.70
   6  -8  -9   74.69   10.10
   6   8   9   86.59   13.80
   6  -8  -9   80.89   14.10
  -6  -8   9   85.69   13.70
  -6  -8   9   84.29   14.70
  -8   8   9   57.09   13.10
  -8  -8  -9   69.79   16.00
  -8  -8   9   57.59   14.30
  -8  -8   9   73.39   14.20
   8  -8  -9   55.29    8.30
   8   8   9   48.00   13.00
 -10  -8  -9   61.59   16.20
 -10   8   9   55.19   14.10
 -10  -8   9   30.50   13.90
 -10  -8   9   43.90   13.50
  10   8   9   43.00   13.90
 -12  -8  -9   26.10   14.20
  12   8   9   28.30   13.90
 -12  -8   9   22.60   14.60
  -1  -9  -9  263.27   20.80
  -1   9   9  339.07   20.70
   1  -9   9  286.87   18.10
  -1   9   9  259.07   18.70
  -1  -9  -9  306.57   18.70
   1  -9  -9  314.47   22.20
   1   9   9  276.27   18.60
   1   9   9  275.37   19.20
   1  -9  -9  262.97   17.60
  -1  -9   9  250.17   18.40
  -3   9   9  241.68   18.10
  -3  -9  -9  213.38   20.30
   3  -9  -9  243.38   19.90
  -3  -9   9  232.08   19.00
  -3  -9   9  235.28   19.20
   3   9   9  221.78   18.30
   3  -9  -9  217.68   15.60
  -5  -9  -9  221.88   22.10
  -5   9   9  194.18   18.30
   5   9   9  179.28   18.30
  -5  -9   9  155.68   18.20
   5  -9  -9  175.78   14.00
  -5  -9   9  202.38   18.90
   5  -9  -9  229.08   20.00
  -7  -9  -9  150.48   19.90
  -7   9   9  124.19   17.80
  -7  -9   9  141.49   18.50
   7  -9  -9  148.99   13.20
  -7  -9   9  128.39   19.00
   7   9   9  140.09   18.40
  -9  -9  -9  106.89   18.40
  -9   9   9   88.09   16.10
   9  -9  -9   97.29   11.20
  -9  -9   9   84.49   17.00
   9   9   9  105.89   18.10
  -9  -9   9  120.49   17.90
 -11  -9  -9   76.89   17.90
 -11   9   9   56.99   14.00
 -11  -9   9   77.29   16.30
  11   9   9   62.49   15.90
 -11  -9   9   89.29   17.70
 -13  -9  -9   28.50   13.70
  13   9   9   52.99   15.30
 -13  -9   9   62.39   16.30
   0  10   9   52.19   11.00
   0  10   9   43.30   10.50
   0 -10   9   30.90    9.30
   0 -10  -9   35.70   10.90
   0 -10  -9   44.80   10.10
  -2  10   9   29.40    9.60
  -2  10   9   28.60    9.40
  -2 -10  -9   44.50   11.80
   2 -10   9   49.20   10.10
   2 -10  -9   34.00    8.70
  -2 -10   9   55.29   11.90
   2  10   9   66.29   12.10
   2  10   9   47.20   13.70
   2 -10  -9   31.80   10.60
  -4  10   9   31.70    9.70
  -4 -10  -9   48.50   12.90
   4  10   9   42.80   11.30
   4 -10  -9   47.50   11.70
  -4 -10   9   18.60    9.90
   4 -10  -9   32.80    8.50
  -4 -10   9   34.40   10.70
  -6 -10  -9   30.40   11.90
  -6  10   9   46.40   11.90
  -6 -10   9   37.20   11.60
   6 -10  -9   45.90    9.50
  -6 -10   9   34.90   12.70
   6  10   9   35.10   12.00
  -8  10   9   34.20   12.30
  -8 -10  -9   13.20   12.60
  -8 -10   9   38.90   13.30
   8  10   9   17.90   12.60
   8 -10  -9   33.90    8.60
  -8 -10   9   38.10   13.40
 -10  10   9   23.30   12.30
 -10 -10  -9   24.50   14.30
 -10 -10   9    8.40   11.60
  10  10   9   27.20   14.20
 -10 -10   9   17.60   12.30
 -12 -10  -9    7.50   12.80
  12  10   9    0.90   13.10
 -12 -10   9   11.80   12.60
  -1 -11  -9   74.79   14.00
  -1  11   9   77.59   13.10
   1 -11   9  102.19   14.10
  -1 -11  -9  108.99   14.60
  -1  11   9   72.69   12.80
   1 -11  -9   84.09   12.10
   1  11   9   89.19   13.70
  -1 -11   9   78.49   13.20
   1  11   9   98.89   14.20
   1 -11  -9   91.09   14.60
  -3 -11  -9  109.99   17.30
  -3  11   9   96.39   14.60
  -3  11   9   88.79   13.70
   3 -11  -9   67.69   10.90
   3 -11  -9   84.09   14.50
   3  11   9   87.79   14.60
  -3 -11   9   85.79   15.10
  -5 -11  -9   46.30   13.70
  -5  11   9   97.69   15.50
   5  11   9   77.79   14.70
  -5 -11   9  103.29   16.20
   5 -11  -9   69.39   11.40
  -5 -11   9   73.79   13.90
  -7  11   9   61.79   14.70
  -7 -11  -9   53.99   14.80
  -7 -11   9   66.69   15.10
  -7 -11   9  103.89   16.70
   7  11   9   49.60   14.50
   7 -11  -9   38.30    9.20
  -9  11   9   51.19   14.50
  -9 -11  -9   26.30   13.90
  -9 -11   9   24.10   13.00
   9  11   9   47.80   15.20
  -9 -11   9   46.20   14.40
 -11 -11  -9   16.50   14.10
 -11  11   9   40.20   14.00
 -11 -11   9   36.20   14.00
  11  11   9   28.30   14.20
   0  12   9   59.29   12.40
   0 -12  -9   39.50   11.60
   0  12   9   42.90   11.40
   0 -12  -9   49.70   10.60
   0 -12   9   33.20   11.20
  -2  12   9   46.50   12.40
   2 -12   9   34.20   10.60
  -2 -12  -9   43.70   12.80
  -2  12   9   40.90   11.30
   2 -12  -9   40.30   11.90
   2  12   9   45.00   11.70
  -2 -12   9   42.90   11.60
   2 -12  -9   49.20   10.70
  -4  12   9   71.19   19.30
  -4 -12  -9   29.90   12.50
  -4  12   9   24.30   10.80
   4  12   9   49.30   12.70
  -4 -12   9   33.50   12.50
   4 -12  -9   43.10   10.10
  -6 -12  -9   41.50   13.90
  -6  12   9   31.20   12.60
  -6 -12   9   49.30   12.90
  -6 -12   9   25.10   12.40
   6  12   9   22.60   12.90
   6 -12  -9   24.70    8.90
  -8  12   9    9.00   12.70
  -8 -12  -9   14.50   13.20
  -8 -12   9   11.30   13.50
  -8 -12   9   18.70   12.10
   8  12   9   -2.20   12.30
 -10  12   9    9.10   11.80
 -10 -12  -9   40.10   15.20
 -10 -12   9   11.50   13.00
  10  12   9   10.70   13.90
 -10 -12   9   18.30   12.60
 -12 -12  -9   18.90   13.40
  12  12   9   -2.20   12.50
 -12 -12   9   19.40   14.70
   1 -13   9  107.19   15.80
  -1  13   9  102.79   15.80
  -1 -13  -9  102.09   15.90
  -1  13   9  105.29   15.60
   1  13   9   98.99   16.40
  -1 -13   9  120.29   17.10
   1 -13  -9  103.49   16.60
   1  13   9   92.89   15.50
   1 -13  -9   79.69   13.20
  -3  13   9   73.09   15.10
  -3 -13  -9   89.89   16.00
  -3  13   9   62.79   13.40
   3 -13  -9   81.09   12.80
  -3 -13   9   58.99   13.90
   3  13   9   79.99   14.80
  -5  13   9   74.79   15.40
  -5 -13  -9   65.49   15.30
   5  13   9   86.89   16.10
   5 -13  -9   49.40   11.30
  -5 -13   9   85.89   16.70
  -7 -13  -9   63.99   15.80
  -7  13   9   83.19   15.70
   7  13   9   63.29   16.00
  -7 -13   9   76.99   17.20
  -7 -13   9   79.09   15.60
  -9 -13  -9   37.20   15.00
  -9  13   9   29.30   13.50
  -9 -13   9   38.20   13.60
   9  13   9   36.60   14.70
  -9 -13   9   31.90   14.40
 -11 -13  -9   27.60   14.30
  11  13   9   19.30   13.60
 -11 -13   9   50.29   13.50
   0 -14  -9   12.50   12.90
   0 -14   9   12.90   10.40
   0  14   9   21.60   11.10
  -2  14   9   24.00   10.90
  -2  14   9   32.00   12.80
  -2 -14  -9   -0.20    9.90
   2 -14   9   23.00   10.80
  -2 -14  -9    8.00   10.10
   2  14   9    7.00   10.60
  -2 -14   9   26.50   11.90
   2 -14  -9   15.60    9.30
  -4  14   9   34.80   12.10
  -4  14   9   15.70   11.80
  -4 -14  -9    7.20   11.40
  -4 -14   9   -4.40   10.40
   4 -14  -9   15.90    9.60
   4  14   9   15.80   11.50
  -6 -14  -9   24.20   13.20
  -6  14   9   20.40   13.20
  -6 -14   9   25.70   13.90
   6  14   9   13.30   12.40
  -8 -14  -9    3.60   12.40
  -8  14   9   20.40   12.70
   8  14   9   30.30   14.30
  -8 -14   9   13.80   14.00
  -8 -14   9   15.60   11.00
 -10 -14  -9   15.50   12.70
 -10 -14   9   14.60   11.00
  10  14   9   15.80   13.60
 -10 -14   9  -13.20   11.10
  -1 -15  -9   -3.10   10.10
  -1  15   9   19.10   11.00
   1 -15   9   12.40   10.80
   1 -15  -9   24.50   10.30
  -1 -15   9   16.70   11.60
   1  15   9   40.10   12.40
  -3  15   9   22.90   12.60
  -3  15   9   17.10   10.90
  -3 -15  -9   15.80   11.50
  -3 -15   9    9.10   11.30
   3  15   9   39.40   13.20
   3 -15  -9   10.60    9.40
  -5  15   9   17.70   12.70
  -5  15   9   10.20   10.90
  -5 -15  -9    4.80   12.10
  -5 -15   9   18.60   14.00
   5  15   9   14.30   12.90
  -7 -15  -9   14.90   12.80
  -7  15   9    7.00   12.20
  -7 -15   9   -7.10   14.10
   7  15   9    4.00   12.70
  -9 -15  -9   34.10   13.50
   9  15   9    9.70   13.20
  -9 -15   9    9.30   13.80
   0  16   9    0.90   11.10
   0 -16  -9    6.30   12.70
   0 -16   9   17.80   12.50
  -2  16   9    8.10   11.00
   2 -16   9   21.80   12.20
  -2 -16   9   16.00   12.40
   2 -16  -9   22.90   13.70
   2  16   9   15.20   12.20
  -4  16   9    2.70   11.00
  -4 -16  -9   24.10   12.70
  -4 -16   9   13.10   13.70
   4  16   9  -10.10   10.70
  -6 -16  -9    0.30   11.60
  -6  16   9    0.00   14.70
  -6 -16   9    3.00   13.30
   6  16   9   13.30   13.00
  -8 -16  -9   20.70   12.40
   8  16   9   -8.20   11.40
  -8 -16   9    3.00   13.10
   8 -16  -9   14.00   15.00
  -1 -17  -9   19.70   13.10
   1 -17   9   27.50   12.70
  -1  17   9   15.70   12.30
   1  17   9   37.70   13.90
  -1 -17   9   -6.30   11.60
   1 -17  -9   -4.90   12.20
  -3  17   9    3.70   12.30
   3 -17  -9   30.30   15.50
  -3 -17   9    8.40   12.30
   3  17   9   27.90   14.40
  -5  17   9    9.60   11.70
  -5 -17  -9    5.00   10.90
   5  17   9   19.60   13.50
  -5 -17   9   31.70   14.90
   5 -17  -9    5.50   14.70
  -7 -17  -9   24.80   12.00
  -7 -17   9   11.00   13.90
   7 -17  -9   -1.20   13.60
   7  17   9   19.90   13.10
   0 -18  -9   14.10   13.30
   0  18   9    6.80   11.60
   0 -18   9  -11.60   10.60
   2 -18   9    6.20   11.60
  -2  18   9   16.60   12.60
   2  18   9   26.80   13.80
  -2 -18   9   -8.20   10.90
   2 -18  -9   -5.40   12.60
  -4  18   9   -0.70   11.00
   4 -18  -9   11.70   14.80
  -4 -18   9  -11.20   11.60
   4  18   9    7.50   12.30
  -6  18   9    6.00   11.90
  -6 -18  -9    1.10   10.20
  -6 -18   9   18.80   14.00
   6 -18  -9    3.00   14.00
   6  18   9    7.20   12.90
   1 -19   9   25.00   12.40
  -1 -19  -9   -0.30   11.80
  -1  19   9    1.50   11.40
  -1 -19   9    7.30   11.70
   1 -19  -9    2.70   13.20
   1  19   9   11.50   12.30
  -3  19   9   -2.80   11.30
  -3 -19   9    6.60   12.60
   3  19   9   16.90   12.70
   3 -19  -9   -7.20   12.90
  -5  19   9   10.80   11.80
  -5 -19   9    6.50   11.80
   5 -19  -9  -16.50   12.30
   5  19   9   -6.60   11.90
   0 -20  -9    6.70   12.20
   0 -20   9   28.80   12.60
   0  20   9   19.90   11.60
  -2  20   9   -0.30   11.30
  -2 -20   9   -6.20   10.70
   2  20   9   -2.30   11.20
   2 -20  -9    5.20   12.70
  -4  20   9   -1.20   11.80
   4  20   9    4.60   11.70
   4 -20  -9   -1.30   12.60
  -4 -20   9    5.70   11.40
  -1  21   9  -13.40   11.70
   1  21   9    9.50   12.00
  -1 -21   9    8.60   15.60
   0   0 -10  904.91   38.50
   0   0 -10  936.41   33.00
   0   0  10  914.21   34.20
  -2   0  10  467.55   23.00
   2   0 -10  447.96   20.60
  -2   0  10  494.85   25.90
  -2   0 -10  445.56   26.10
  -4   0  10  490.65   26.30
   4   0 -10  519.75   21.70
  -4   0  10  501.65   25.40
  -4   0 -10  500.85   27.50
  -6   0  10  438.26   25.00
  -6   0 -10  505.95   28.90
  -6   0  10  437.36   26.00
   6   0 -10  452.35   19.70
   8   0  10  173.78   16.70
  -8   0  10  175.58   18.20
  -8   0 -10  160.08   20.20
   8   0 -10  186.18   12.80
  -8   0  10  169.98   18.30
 -10   0  10  242.18   23.00
 -10   0  10  272.27   22.90
  10   0  10  244.48   21.40
  10   0 -10  250.07   15.20
  12   0  10   83.69   15.60
 -12   0  10  153.08   20.10
   1  -1  10  158.58   12.80
   1   1 -10  179.08   12.80
  -1  -1 -10  168.58   16.50
  -1  -1 -10  172.78   13.00
  -1   1  10  172.78   14.00
  -1   1 -10  165.98   12.80
  -1   1 -10  154.68   16.00
   1   1  10  174.68   13.20
  -1  -1  10  140.39   12.60
   1  -1 -10  157.78   12.20
  -1  -1  10  148.39   15.30
   3   1 -10  153.58   11.80
  -3   1  10  110.49   12.80
  -3  -1 -10  119.89   15.90
  -3   1  10  154.38   15.30
  -3   1 -10  157.98   16.00
  -3  -1  10  156.38   14.00
  -3  -1  10  157.28   15.30
   3  -1 -10  132.79   11.30
  -5   1  10  115.29   14.20
   5   1 -10  112.99   10.50
  -5  -1 -10  102.79   15.40
  -5   1  10  116.19   14.70
   5  -1 -10  116.59   10.30
  -5  -1  10  120.99   14.50
  -5   1 -10  126.99   16.40
  -5  -1  10  115.49   14.80
  -7  -1 -10   93.19   15.90
   7   1 -10   67.29    9.50
  -7   1  10  107.79   16.20
  -7   1  10   71.29   13.00
  -7  -1  10   94.19   14.40
  -7  -1  10  103.59   15.00
   7   1  10  107.79   14.80
   7  -1 -10  105.19   10.30
  -9   1  10   72.79   13.80
   9  -1  10   78.39   13.70
   9   1 -10   71.49    9.70
  -9  -1 -10   66.29   14.40
  -9   1  10   66.19   14.20
  -9  -1  10   88.79   15.00
   9   1  10   80.99   14.00
   9  -1 -10   78.29    9.90
  -9  -1  10   76.59   14.90
 -11   1  10   76.99   15.40
 -11   1  10   31.90   13.90
  11  -1  10   46.60   13.40
  11   1  10   65.39   14.30
 -11  -1  10   76.29   16.40
 -11  -1  10   59.99   14.20
 -13   1  10   33.40   12.80
  13  -1  10   34.90   13.60
  13   1  10   30.60   12.90
 -13  -1  10   27.40   13.60
   0  -2 -10  518.85   28.10
   0  -2  10  521.95   24.30
   0  -2 -10  583.74   24.10
   0   2  10  609.64   25.20
   0   2 -10  563.54   23.70
   2   2 -10  254.57   15.00
  -2   2  10  248.98   18.40
  -2  -2 -10  244.18   19.20
  -2   2  10  259.37   17.20
  -2   2 -10  230.88   18.30
  -2  -2  10  215.28   18.60
   2  -2 -10  247.38   14.80
  -2  -2  10  245.98   16.70
  -4   2  10  293.27   20.60
   4   2 -10  312.77   16.50
  -4   2  10  307.97   19.50
  -4  -2 -10  327.27   23.30
  -4  -2  10  311.07   19.80
  -4   2 -10  323.07   21.90
   4  -2 -10  289.27   15.90
  -4  -2  10  285.97   21.20
  -6   2  10  288.77   20.70
   6   2 -10  300.67   16.10
  -6   2  10  281.77   21.00
  -6  -2 -10  315.67   24.20
  -6  -2  10  289.67   20.40
   6  -2 -10  299.87   15.80
  -6  -2  10  337.57   22.60
  -8   2  10  122.49   16.90
  -8   2  10  124.19   17.60
   8   2 -10  130.59   12.40
  -8  -2 -10   75.89   14.70
  -8  -2  10  141.89   19.20
  -8  -2  10  115.99   16.90
   8  -2 -10  132.19   11.30
   8   2  10  116.99   15.50
 -10   2  10  224.98   22.50
 -10   2  10  193.28   20.90
 -10  -2 -10  220.38   23.30
  10  -2  10  178.88   19.80
 -10  -2  10  200.98   20.60
  10  -2 -10  171.98   12.80
 -10  -2  10  173.48   22.30
  10   2  10  252.27   21.90
 -12   2  10  119.49   17.40
  12  -2  10   94.49   16.20
 -12  -2  10  117.29   18.90
  12   2  10   87.99   16.30
  -1   3  10  114.89   12.10
  -1  -3 -10  116.59   11.40
  -1  -3 -10  133.29   15.60
   1  -3  10  106.19   11.30
   1   3 -10  119.29   11.60
  -1   3 -10  155.28   16.40
   1   3  10  137.29   12.20
  -1  -3  10   93.99   13.40
   1  -3 -10  120.39   14.60
   1  -3 -10  117.79   11.10
  -1  -3  10  130.79   12.50
  -3  -3 -10  119.79   16.50
  -3   3  10  115.39   13.00
   3   3 -10  118.29   11.00
  -3   3  10  123.29   14.40
  -3   3 -10  102.19   14.20
   3  -3 -10  115.59   10.80
  -3  -3  10   95.49   14.10
  -3  -3  10  106.89   12.50
  -5   3  10  101.79   13.40
  -5  -3 -10  103.99   16.00
   5   3 -10   91.09   10.30
  -5   3  10  103.49   15.10
  -5  -3  10   84.49   12.90
   5  -3 -10   99.09    9.90
  -5  -3  10   92.09   14.00
  -7   3  10   77.19   13.20
   7   3 -10   86.39   10.70
  -7  -3 -10   48.90   14.00
  -7   3  10   66.09   13.10
   7  -3 -10   70.69    9.50
  -7  -3  10   72.59   14.10
  -7  -3  10   83.99   13.90
   7   3  10   70.69   12.30
  -9   3  10   62.89   13.90
  -9   3  10   74.79   14.10
  -9  -3 -10   66.59   15.00
   9   3  10   49.00   12.30
  -9  -3  10   48.40   14.20
  -9  -3  10   61.19   13.60
   9  -3 -10   65.39    8.50
 -11   3  10   48.00   12.80
  11  -3  10   67.09   14.80
 -11   3  10   16.50   11.60
 -11  -3  10   34.10   13.10
 -11  -3  10   56.29   15.60
  11   3  10   51.39   13.60
  13  -3  10   46.30   13.50
  13   3  10   21.90   12.70
 -13  -3  10   30.00   14.30
   0  -4 -10  707.33   32.80
   0   4  10  660.03   28.30
   0  -4 -10  696.23   27.90
   0  -4  10  663.93   31.10
   0  -4  10  710.43   28.60
   0   4 -10  706.13   27.60
   2   4 -10  387.36   19.00
  -2   4  10  376.26   21.00
  -2  -4 -10  377.36   24.60
  -2  -4  10  359.06   20.60
  -2   4 -10  361.66   22.90
   2  -4 -10  344.17   23.40
  -2  -4  10  410.46   23.30
   2  -4 -10  366.36   18.60
  -4   4  10  467.85   24.50
  -4   4  10  453.35   24.90
   4   4 -10  394.26   19.80
  -4  -4 -10  437.66   27.70
  -4  -4  10  429.16   23.50
   4  -4 -10  405.16   19.20
  -4  -4  10  397.26   25.10
  -6  -4 -10  327.47   25.40
  -6   4  10  365.26   23.50
  -6   4  10  407.86   24.30
   6   4 -10  361.56   19.00
   6  -4 -10  365.56   17.60
  -6  -4  10  410.96   26.60
   6   4  10  409.36   23.10
  -6  -4  10  341.97   23.00
  -8  -4 -10  174.58   20.70
  -8   4  10  181.48   19.10
  -8   4  10  175.58   18.70
   8   4  10  158.08   17.90
  -8  -4  10  151.28   18.00
   8  -4 -10  152.18   11.90
  -8  -4  10  140.09   19.80
 -10   4  10  203.78   21.80
 -10   4  10  236.78   22.00
 -10  -4 -10  176.28   22.50
  10   4  10  182.48   21.30
 -10  -4  10  205.68   24.80
 -10  -4  10  247.68   22.50
  12  -4  10   81.19   20.50
  12   4  10  100.09   16.90
 -12  -4  10  100.09   19.40
   1  -5  10  134.79   12.60
  -1   5  10  118.89   13.20
   1   5 -10  131.59   12.30
  -1  -5 -10  168.08   17.90
  -1  -5 -10  153.18   13.10
  -1  -5  10  146.99   14.00
  -1   5 -10  131.49   15.60
  -1  -5  10  129.89   15.40
   1   5  10  141.99   13.20
   1  -5 -10  142.89   16.40
   1  -5 -10  130.99   12.10
  -3   5  10  109.49   13.90
   3   5 -10  130.49   12.00
  -3  -5 -10  130.49   17.30
   3  -5 -10  107.89   15.30
   3  -5 -10  138.99   11.50
  -3  -5  10  114.89   13.30
  -3  -5  10  117.99   14.90
  -5   5  10  100.49   14.40
  -5  -5 -10   88.19   15.40
   5   5 -10   97.69   11.20
  -5   5  10  127.09   15.30
  -5  -5  10   94.19   13.40
  -5  -5  10  107.39   16.30
   5  -5 -10  112.49   10.50
   5   5  10  105.79   13.40
  -7   5  10   92.19   14.50
  -7   5  10   74.39   13.80
  -7  -5 -10   50.69   14.10
   7  -5 -10   89.89   10.00
   7   5  10   92.09   14.00
  -7  -5  10   97.59   16.20
  -7  -5  10   78.69   13.80
  -9  -5 -10   72.49   16.10
  -9   5  10   79.89   14.20
  -9   5  10   72.49   14.10
  -9  -5  10   83.99   15.10
   9   5  10   61.09   13.60
   9  -5 -10   62.39    8.50
  -9  -5  10   56.79   14.60
 -11  -5 -10   38.90   14.60
 -11   5  10    0.70   10.10
  11   5  10   35.80   13.40
 -11  -5  10   69.89   17.90
 -11  -5  10   41.50   14.20
  13   5  10   29.90   13.30
 -13  -5  10   12.50   14.30
   0  -6  10  339.97   19.60
   0  -6 -10  370.26   19.70
   0  -6 -10  378.06   23.80
   0  -6  10  296.27   20.60
   0   6  10  348.57   19.90
   2   6 -10  158.88   13.40
  -2  -6 -10  156.38   17.70
  -2   6  10  200.58   16.30
   2  -6 -10  182.48   13.70
  -2  -6  10  156.28   14.70
  -2  -6  10  188.58   17.40
   2  -6 -10  161.48   18.10
  -4   6  10  227.58   18.60
  -4  -6 -10  183.58   19.90
   4   6  10  225.58   17.70
   4  -6 -10  220.18   20.00
  -4  -6  10  223.28   19.90
   4  -6 -10  206.58   13.90
  -4  -6  10  202.58   17.50
  -6   6  10  235.68   19.80
  -6  -6 -10  179.18   22.10
  -6  -6  10  182.68   21.00
   6   6  10  217.18   18.50
   6  -6 -10  208.28   13.80
  -6  -6  10  209.68   18.60
  -8  -6 -10  124.69   19.10
  -8   6  10  124.19   18.00
  -8   6  10  112.39   16.60
  -8  -6  10   88.49   16.70
   8  -6 -10   90.29   10.60
  -8  -6  10  120.79   17.50
   8   6  10  122.09   17.30
 -10   6  10  117.39   17.20
 -10  -6 -10  157.88   22.80
 -10  -6  10  136.29   20.80
  10   6  10  127.99   18.40
 -10  -6  10  123.79   18.70
 -12  -6 -10   62.79   15.70
  12   6  10   61.69   15.30
 -12  -6  10   62.29   18.30
  -1  -7 -10   72.19   11.10
  -1  -7 -10   66.59   13.60
   1  -7  10   77.69   11.20
  -1   7  10   55.89   10.60
   1   7  10   78.19   11.80
   1  -7 -10   65.29   10.40
  -1  -7  10   91.69   12.10
  -1  -7  10   53.59   11.50
   1  -7 -10   69.99   13.10
  -3   7  10   84.79   13.00
  -3  -7 -10   70.99   14.40
  -3  -7  10   58.79   12.60
   3   7  10   66.09   11.60
   3  -7 -10   63.19   12.40
   3  -7 -10   64.99    9.50
  -3  -7  10   78.39   12.60
  -5   7  10   86.79   13.70
  -5  -7 -10   53.49   14.50
   5  -7 -10   49.90    8.90
   5  -7 -10   64.39   14.10
   5   7  10   86.99   13.70
  -5  -7  10   87.79   14.90
  -5  -7  10   45.00   11.10
  -7   7  10   27.00   11.50
  -7  -7 -10   15.40   12.10
  -7  -7  10   43.30   13.70
   7   7  10   43.40   12.00
  -7  -7  10   41.80   12.40
   7  -7 -10   34.50    7.70
  -9  -7 -10   18.40   13.60
  -9   7  10   41.10   12.60
  -9  -7  10   41.50   13.60
  -9  -7  10   32.80   14.30
   9  -7 -10   36.80    8.30
   9   7  10   53.49   14.20
 -11  -7 -10   32.50   14.40
 -11   7  10   25.50   11.90
  11   7  10   11.10   12.30
 -11  -7  10   48.00   14.00
 -11  -7  10   14.80   14.10
 -13  -7  10   21.90   15.50
  13   7  10   18.70   14.40
   0  -8 -10  365.36   25.00
   0  -8  10  302.87   20.50
   0   8  10  326.87   20.90
   0  -8 -10  366.26   20.60
  -2   8  10  199.18   16.80
  -2  -8 -10  149.99   19.20
   2   8  10  192.88   18.40
   2  -8 -10  194.88   15.20
  -2  -8  10  183.28   17.00
  -2  -8  10  173.28   18.00
   2  -8 -10  194.38   19.30
  -4  -8 -10  197.38   22.30
  -4   8  10  201.98   18.70
   4  -8 -10  226.48   20.70
  -4  -8  10  224.68   18.80
  -4  -8  10  245.98   20.90
   4  -8 -10  234.78   16.20
   4   8  10  195.08   18.30
  -6  -8 -10  213.38   22.40
  -6   8  10  231.08   20.50
   6  -8 -10  183.48   15.00
  -6  -8  10  167.78   19.40
   6   8  10  216.68   20.50
  -6  -8  10  203.88   22.20
   6  -8 -10  222.98   21.80
  -8   8  10  103.79   16.90
  -8  -8 -10  110.59   19.00
  -8  -8  10   86.59   17.30
   8   8  10   79.59   15.60
   8  -8 -10  111.39   11.80
  -8  -8  10   97.29   17.00
 -10   8  10  103.39   17.10
 -10  -8 -10  125.19   20.10
 -10  -8  10  116.69   20.10
 -10  -8  10  124.39   18.70
  10   8  10  131.79   19.20
 -12  -8 -10   72.69   16.40
  12   8  10   33.90   14.30
 -12  -8  10   87.49   18.60
  -1  -9 -10   86.49   15.30
  -1   9  10   60.99   11.90
  -1  -9 -10   68.79   11.80
   1  -9  10   99.89   12.90
   1  -9 -10   95.59   14.90
   1   9  10   97.29   13.70
  -1  -9  10   79.19   12.30
   1  -9 -10   85.99   12.20
  -3  -9 -10   64.09   14.60
  -3   9  10   78.99   13.70
  -3  -9  10   91.69   14.90
   3  -9 -10   75.69   11.50
   3   9  10   79.99   13.90
   3  -9 -10   71.49   13.90
  -3  -9  10   58.59   12.90
  -5   9  10   61.09   13.20
  -5  -9 -10   64.89   15.10
   5  -9 -10   60.39   10.10
  -5  -9  10   81.89   13.90
   5  -9 -10   66.89   14.00
  -5  -9  10   77.69   15.10
   5   9  10   62.39   13.30
  -7   9  10   67.09   14.50
  -7  -9 -10   60.19   15.00
   7   9  10   65.49   14.80
  -7  -9  10   47.20   13.90
  -7  -9  10   42.30   13.70
   7  -9 -10   53.19   10.00
  -9   9  10   39.60   13.40
  -9  -9 -10   22.20   14.10
  -9  -9  10   37.60   14.40
  -9  -9  10   52.09   15.60
   9   9  10    6.20   12.30
 -11   9  10    8.70   10.80
 -11  -9 -10   56.79   16.00
 -11  -9  10   24.20   13.50
  11   9  10   24.20   14.70
 -11  -9  10   36.00   15.50
   0 -10 -10  151.28   15.70
   0 -10 -10  175.58   19.70
   0  10  10  133.99   16.50
   0 -10  10  173.88   16.80
  -2  10  10   63.99   12.60
  -2 -10 -10  100.79   16.70
   2 -10 -10   82.19   12.30
   2  10  10   63.99   12.00
  -2 -10  10   74.39   13.50
   2 -10 -10   70.99   14.20
  -4 -10 -10  111.79   18.20
  -4  10  10  122.59   17.40
  -4 -10  10  103.69   16.40
   4 -10 -10   98.59   13.70
  -4 -10  10  132.89   17.50
   4 -10 -10  110.69   16.50
   4  10  10  140.89   17.00
  -6  10  10   93.19   16.00
  -6 -10 -10  102.49   17.90
   6 -10 -10  101.49   13.50
  -6 -10  10   95.89   17.30
   6  10  10  140.09   19.70
  -6 -10  10   81.79   16.30
  -8  10  10   45.80   13.60
  -8 -10 -10   44.80   15.40
  -8 -10  10   38.50   14.50
   8  10  10   51.79   15.10
  -8 -10  10   52.79   15.00
 -10 -10 -10   58.19   16.60
 -10  10  10   71.99   15.30
 -10 -10  10   71.19   16.30
 -10 -10  10   93.39   17.20
  10  10  10   73.09   17.40
 -12 -10 -10   12.60   13.00
  12  10  10   37.50   14.50
 -12 -10  10   38.20   15.20
  -1 -11 -10   46.80   13.20
  -1  11  10   35.00   10.80
   1 -11  10   18.70    9.50
   1  11  10   41.10   11.40
  -1 -11  10   19.30    9.90
   1 -11 -10   46.30   12.20
   1  11  10   19.00   10.20
   1 -11 -10   42.50   10.70
  -3  11  10   44.40   12.20
  -3 -11 -10   23.70   13.10
   3 -11 -10   13.00   11.10
  -3 -11  10   36.50   12.30
   3 -11 -10   26.20    9.40
   3  11  10   28.40   10.60
  -5 -11 -10   32.90   13.80
  -5  11  10   30.50   11.60
   5  11  10   30.30   11.30
   5 -11 -10   16.00    8.40
  -5 -11  10   28.80   11.70
  -5 -11  10   27.90   12.20
  -7 -11 -10    8.20   12.10
  -7  11  10   33.00   13.20
  -7 -11  10   26.90   13.30
   7  11  10   10.20   11.90
  -7 -11  10    7.60   13.20
  -9 -11 -10   27.90   14.50
  -9  11  10    4.90   11.20
  -9 -11  10   18.20   13.90
  -9 -11  10   22.10   13.80
   9  11  10   24.50   14.40
 -11 -11 -10   13.50   13.00
 -11  11  10   22.70   12.30
 -11 -11  10    6.50   12.40
  11  11  10   -8.00   12.10
 -11 -11  10   17.90   14.00
   0 -12  10  124.89   17.50
   0  12  10  118.89   16.70
   0 -12 -10  125.69   18.90
   0  12  10  130.09   18.20
   0 -12 -10  111.69   16.10
  -2  12  10   74.39   15.00
   2 -12  10   68.29   18.10
  -2 -12 -10   45.60   14.10
  -2 -12  10   93.89   16.10
   2 -12 -10   71.79   15.00
   2 -12 -10   87.29   13.30
   2  12  10   94.89   15.40
  -4  12  10   60.49   14.00
  -4 -12 -10   33.30   13.40
   4  12  10   92.99   15.90
   4 -12 -10   74.69   12.30
  -4 -12  10   63.99   13.90
  -6  12  10   72.69   15.60
  -6 -12 -10   89.69   17.40
   6 -12 -10   65.69   12.60
  -6 -12  10   61.99   16.10
  -6 -12  10   63.29   14.80
   6  12  10   76.19   16.10
  -8  12  10   31.20   13.80
  -8 -12 -10   52.49   16.30
  -8 -12  10   68.29   16.80
  -8 -12  10   24.60   12.60
   8  12  10   19.00   13.20
 -10  12  10   35.90   13.30
 -10 -12 -10   66.29   16.50
 -10 -12  10   37.00   15.20
  10  12  10   44.70   15.40
 -10 -12  10   41.80   13.80
  -1 -13 -10   54.39   14.50
  -1  13  10   59.29   14.20
   1 -13  10   39.20   12.60
  -1  13  10   32.50   11.60
   1 -13 -10   28.40   11.00
   1  13  10   56.69   13.50
   1 -13 -10   30.20   12.90
  -1 -13  10   49.70   13.80
  -3 -13 -10   18.40   12.80
  -3  13  10   19.10   12.30
  -3 -13  10    4.60   11.20
   3  13  10   17.10   10.80
   3 -13 -10    9.70    9.10
  -5 -13 -10   12.00   12.80
  -5  13  10   56.49   15.80
  -5 -13  10    8.90   13.60
   5  13  10   17.70   12.20
   5 -13 -10   41.20   16.00
  -7 -13 -10   20.10   13.70
  -7  13  10   11.70   12.40
  -7 -13  10   11.80   14.60
   7  13  10   15.30   13.80
  -7 -13  10   22.90   12.60
  -9 -13 -10   30.20   14.40
  -9  13  10    8.30   11.90
  -9 -13  10   20.10   14.20
   9  13  10    9.20   12.80
  -9 -13  10   10.40   11.40
   0 -14  10   56.29   14.70
   0  14  10   63.19   13.80
   0 -14 -10   39.20   13.40
  -2  14  10    5.80   11.40
  -2 -14 -10   26.60   12.60
  -2  14  10   35.30   12.10
   2 -14 -10   15.80   10.70
   2  14  10   24.40   12.40
  -2 -14  10   50.29   15.20
  -4 -14 -10   25.10   13.40
  -4  14  10   35.30   14.40
  -4 -14  10   55.19   15.60
   4  14  10   59.99   14.50
  -6  14  10   32.80   14.10
  -6 -14 -10   49.30   15.30
  -6 -14  10   27.20   14.50
   6  14  10    9.30   12.80
  -8 -14 -10   20.80   13.40
  -8  14  10    2.00   11.20
   8  14  10   33.10   14.80
  -8 -14  10   -1.30   13.40
 -10 -14 -10   19.80   14.20
  10  14  10   23.10   13.90
  -1  15  10   -3.80    9.60
  -1 -15 -10   -2.20   11.00
  -1 -15 -10    2.40   11.20
   1 -15  10   24.60   12.40
  -1 -15  10   -8.00   11.20
   1  15  10   -1.30   10.70
  -3  15  10   25.10   12.60
  -3  15  10  -11.20   10.20
  -3 -15 -10    5.50   11.30
   3  15  10   -3.10   10.70
  -3 -15  10    8.20   12.60
  -5  15  10    8.60   12.90
  -5 -15 -10    8.20   11.90
  -5 -15  10   13.60   13.80
   5  15  10   24.00   13.20
  -7 -15 -10    1.70   11.60
  -7  15  10   31.50   14.10
  -7 -15  10   -9.90   13.50
   7  15  10    0.10   12.00
  -9 -15 -10  -11.90   10.60
   9  15  10   -3.20   11.50
  -9 -15  10   16.10   14.00
   0 -16 -10   32.60   14.10
   0  16  10   27.10   12.60
   0 -16  10   21.20   13.10
  -2  16  10   19.00   11.50
   2 -16 -10   28.70   15.30
  -2 -16  10    1.90   12.00
   2  16  10   28.70   13.00
  -4 -16 -10   15.00   12.10
   4  16  10   41.00   14.40
  -4 -16  10    8.10   13.20
  -6 -16 -10    6.50   10.90
   6  16  10    8.70   13.10
  -6 -16  10   25.30   14.50
  -8 -16 -10   30.40   12.60
  -8 -16  10   24.10   15.00
   8  16  10    4.80   11.80
   8 -16 -10   10.60   13.90
  -1 -17 -10   -6.40   12.20
   1 -17  10    7.00   12.30
  -1  17  10    2.00   11.10
   1 -17 -10    0.00   13.10
   1  17  10    8.90   12.30
  -1 -17  10   10.80   12.70
  -3  17  10    9.70   11.20
   3  17  10   -7.20   11.30
  -3 -17  10   -0.70   11.80
   3 -17 -10   10.90   14.50
  -5 -17 -10   -4.50   10.00
   5  17  10  -11.60   11.80
   5 -17 -10    5.10   13.90
  -5 -17  10  -14.10   12.90
  -7 -17 -10    7.50   10.60
   7 -17 -10  -14.60   13.00
  -7 -17  10   -2.30   13.00
   7  17  10  -10.80   11.70
   0 -18  10   10.00   12.20
   0 -18 -10    1.50   13.30
   0  18  10    8.70   11.90
  -2  18  10    3.60   11.70
  -2 -18  10    7.60   12.60
   2  18  10    5.20   11.90
   2 -18 -10   -5.90   13.80
   4 -18 -10   27.70   15.20
  -4 -18  10   11.90   12.60
   4  18  10  -14.10   10.50
  -6 -18  10   23.70   13.20
   6  18  10   -3.90   11.20
   6 -18 -10    3.60   13.30
   1 -19  10   -8.10   11.10
  -1  19  10    2.50   11.20
  -1 -19  10  -19.10    9.90
   1 -19 -10   -2.40   12.30
   1  19  10   -8.00   10.60
  -3  19  10   17.30   11.80
  -3 -19  10    0.90   10.40
   3  19  10  -21.50   10.40
   3 -19 -10  -27.10   12.20
   0   0 -11  135.49   17.00
   0   0  11  144.79   13.90
   0   0 -11  133.89   13.10
  -2   0 -11  162.18   18.40
  -2   0  11  148.99   17.20
  -2   0  11  158.08   15.40
   2   0 -11  150.08   13.00
  -4   0  11  116.19   15.20
   4   0 -11  120.79   12.00
  -4   0  11  125.39   16.60
  -4   0 -11  164.88   18.50
  -6   0  11   99.39   14.70
  -6   0 -11   69.79   14.90
  -6   0  11   83.89   13.80
   6   0 -11  103.99   11.50
   8   0 -11   73.29   10.20
  -8   0  11   73.09   15.50
  -8   0  11   90.79   15.30
 -10   0  11  103.69   17.10
 -10   0  11   40.00   14.70
 -12   0  11   33.30   18.50
  12   0  11   43.10   19.90
 -12   0  11   37.40   14.10
   1   1 -11  449.95   21.60
  -1  -1 -11  459.55   22.00
  -1  -1 -11  405.96   26.30
  -1   1  11  379.36   22.10
   1  -1  11  458.15   22.60
   1  -1 -11  428.86   27.20
   1  -1 -11  416.46   21.40
  -1  -1  11  437.16   23.10
  -1   1 -11  417.96   27.00
   1   1  11  415.86   21.90
  -3  -1 -11  284.77   23.30
  -3   1  11  303.17   21.90
  -3   1  11  265.67   19.60
   3   1 -11  268.17   16.70
  -3   1 -11  259.87   22.50
   3  -1 -11  286.87   16.90
  -3  -1  11  308.27   22.40
  -3  -1  11  286.07   19.90
  -5   1  11  360.26   25.30
  -5   1  11  376.06   23.40
   5   1 -11  361.86   19.10
  -5  -1 -11  373.26   26.60
  -5   1 -11  372.56   25.70
   5  -1 -11  336.07   18.50
  -5  -1  11  339.67   23.80
  -5  -1  11  393.66   24.40
  -7   1  11  180.28   19.20
  -7   1  11  170.48   19.70
   7   1 -11  172.98   14.60
  -7  -1 -11  169.28   20.80
   7  -1 -11  182.88   14.30
  -7  -1  11  166.28   18.20
  -7  -1  11  206.88   20.60
   9   1 -11  155.28   14.90
  -9   1  11  245.18   22.80
  -9   1  11  215.18   22.70
   9  -1 -11  163.98   14.30
  -9  -1  11  163.08   22.30
  -9  -1  11  178.98   21.00
 -11   1  11  132.49   19.10
 -11   1  11  147.89   21.50
  11   1  11  125.39   17.80
 -11  -1  11  143.29   21.10
 -11  -1  11  120.29   18.50
   0   2 -11   78.79   11.30
   0  -2 -11   76.39   13.80
   0  -2  11  101.39   12.40
   0   2 -11   84.49   14.50
   0  -2 -11   92.99   11.60
   0   2  11  104.69   12.60
   2   2 -11   74.79   10.70
  -2  -2 -11   92.69   15.50
  -2   2  11   95.69   13.10
   2  -2 -11  104.39   11.60
  -2   2 -11  111.79   16.30
  -2  -2  11   75.29   11.90
  -2  -2  11   81.69   13.70
   4   2 -11   86.79   10.80
  -4   2  11   58.39   11.80
  -4  -2 -11   85.29   15.70
  -4   2  11   73.69   13.60
  -4  -2  11   71.79   13.40
  -4  -2  11   69.49   12.50
  -4   2 -11   81.79   14.40
   4  -2 -11   93.19   10.80
  -6  -2 -11   71.49   15.20
  -6   2  11   74.39   13.30
  -6   2  11   47.60   12.40
   6   2 -11   64.99    9.80
  -6  -2  11   51.19   13.10
   6  -2 -11   60.99    9.30
  -6  -2  11   72.29   13.00
  -8   2  11   60.39   14.10
  -8  -2 -11   54.19   14.30
   8   2 -11   52.19    9.80
  -8   2  11   63.19   14.50
  -8  -2  11   53.39   14.40
   8  -2 -11   74.19   10.10
  -8  -2  11   57.09   13.40
 -10   2  11   37.60   14.20
 -10   2  11   45.30   14.10
 -10  -2  11   31.80   13.60
 -10  -2  11   39.40   14.50
  10   2  11   19.90   11.80
 -12   2  11   17.70   12.20
 -12   2  11   37.30   17.70
 -12  -2  11   35.00   15.10
  12   2  11   17.20   12.90
   1   3 -11  371.06   19.90
  -1  -3 -11  366.06   20.10
  -1  -3 -11  336.97   24.40
  -1   3  11  367.76   21.30
   1  -3  11  369.66   20.10
  -1  -3  11  363.76   24.20
  -1   3 -11  343.47   24.90
   1   3  11  358.86   21.20
   1  -3 -11  364.86   19.80
  -1  -3  11  323.07   20.70
   1  -3 -11  348.27   24.90
  -3  -3 -11  242.78   21.90
   3   3 -11  253.97   16.60
  -3   3  11  262.77   19.50
   3  -3 -11  266.27   16.50
  -3  -3  11  262.87   19.10
  -3   3 -11  230.78   21.00
  -3  -3  11  235.38   20.60
  -5   3  11  307.27   21.80
  -5   3  11  304.27   22.50
  -5  -3 -11  288.57   24.40
   5   3 -11  295.87   17.90
  -5  -3  11  305.27   21.70
  -5  -3  11  336.47   24.80
   5  -3 -11  258.17   16.60
  -7   3  11  130.09   18.20
  -7  -3 -11  157.28   21.80
   7   3 -11  141.39   14.40
  -7   3  11  202.78   20.10
   7  -3 -11  131.39   12.50
  -7  -3  11  128.99   18.00
  -7  -3  11  134.29   19.00
  -9   3  11  185.18   21.30
  -9  -3 -11  182.88   23.30
  -9   3  11  181.38   20.50
  -9  -3  11  168.78   22.60
  -9  -3  11  131.69   19.80
   9   3  11  179.98   20.40
 -11   3  11  129.29   18.30
 -11   3  11   88.19   15.90
  11   3  11  120.09   17.30
 -11  -3  11  129.79   20.40
 -11  -3  11  147.39   20.80
   0  -4 -11  129.39   18.20
   0  -4 -11  123.09   13.10
   0   4  11  143.49   14.30
   0  -4  11  126.39   13.80
   2   4 -11  120.79   12.90
  -2   4  11  138.89   14.60
  -2  -4 -11  147.29   18.90
   2  -4 -11  117.69   16.50
   2  -4 -11  128.99   12.60
  -2  -4  11  123.99   17.00
  -2  -4  11  121.49   14.00
  -2   4 -11  124.39   17.60
   4   4 -11   92.69   11.80
  -4   4  11  142.49   16.00
  -4  -4 -11  127.29   19.00
   4  -4 -11   99.29   11.60
  -4  -4  11  113.29   15.30
  -4  -4  11  112.79   16.70
  -6   4  11   91.09   15.10
   6   4 -11   99.19   12.40
  -6   4  11  108.19   16.10
  -6  -4 -11   77.69   16.60
  -6  -4  11   81.09   15.00
  -6  -4  11   75.79   13.70
   6  -4 -11   68.49    9.90
  -8  -4 -11   71.09   15.80
  -8   4  11   75.99   14.50
  -8   4  11   66.89   14.90
  -8  -4  11   75.09   15.40
   8   4  11   74.09   13.60
  -8  -4  11   63.39   14.60
   8  -4 -11   75.49    9.90
 -10   4  11   60.09   14.20
 -10  -4 -11   24.30   13.90
 -10   4  11   51.39   13.90
  10   4  11   50.09   13.90
 -10  -4  11   34.40   14.10
 -10  -4  11   45.90   15.10
  12   4  11   18.40   12.80
 -12  -4  11   15.50   15.20
  -1  -5 -11  316.27   24.90
  -1  -5 -11  310.67   19.40
   1  -5  11  320.87   19.60
  -1   5  11  296.97   19.90
   1   5 -11  275.97   18.00
   1   5  11  326.87   20.00
  -1  -5  11  329.87   20.50
  -1  -5  11  316.87   23.20
   1  -5 -11  306.27   18.70
  -1   5 -11  299.47   23.40
   1  -5 -11  290.07   23.50
   3   5 -11  232.58   16.30
  -3  -5 -11  212.58   21.30
  -3   5  11  205.98   18.40
  -3  -5  11  189.28   19.50
  -3  -5  11  200.28   17.30
   3  -5 -11  205.68   15.40
   3  -5 -11  243.78   21.80
  -5  -5 -11  218.48   24.00
   5   5 -11  286.87   18.20
  -5   5  11  281.77   22.00
   5  -5 -11  274.67   17.20
  -5  -5  11  262.77   23.50
  -5  -5  11  313.17   22.20
  -7   5  11  139.49   18.80
  -7   5  11  157.08   18.90
  -7  -5 -11  155.58   22.20
  -7  -5  11  135.29   18.50
   7   5  11  147.89   18.00
   7  -5 -11  136.89   13.10
  -7  -5  11  147.19   20.30
  -9  -5 -11  144.49   21.30
  -9   5  11  153.38   20.10
  -9   5  11  142.99   20.30
   9   5  11  145.09   20.40
  -9  -5  11  159.48   21.30
  -9  -5  11  158.48   22.30
 -11   5  11  117.39   17.00
 -11  -5 -11  129.69   18.80
 -11  -5  11  110.29   18.30
 -11  -5  11  105.59   19.50
  11   5  11  110.39   17.50
   0   6  11   94.09   13.50
   0  -6 -11   70.59   11.00
   0  -6 -11   76.09   15.00
   0  -6  11   42.00    9.90
  -2  -6 -11   58.59   13.60
  -2   6  11   50.89   10.60
  -2  -6  11   70.79   12.00
  -2  -6  11   64.79   13.60
   2  -6 -11   76.29   14.80
   2  -6 -11   66.39   10.50
  -4  -6 -11   54.29   14.30
  -4   6  11   65.49   12.70
  -4  -6  11   62.19   14.10
  -4  -6  11   64.29   12.60
   4  -6 -11   67.39   10.10
   4  -6 -11   55.09   13.60
  -6   6  11   65.79   13.20
  -6  -6 -11   47.70   14.90
  -6  -6  11   31.90   11.50
   6  -6 -11   43.10    8.90
   6   6  11   76.59   14.00
  -6  -6  11   41.10   13.00
   6  -6 -11   34.30   13.90
  -8  -6 -11   39.20   14.80
  -8   6  11   39.00   12.90
  -8  -6  11   41.10   13.90
   8  -6 -11   28.40    8.00
   8   6  11   38.50   12.40
  -8  -6  11   45.50   13.00
 -10   6  11   31.10   12.80
 -10  -6 -11   34.70   15.30
  10   6  11    2.50   11.70
 -10  -6  11   29.10   13.10
 -10  -6  11   30.10   14.60
 -12  -6 -11    6.80   12.50
 -12  -6  11   25.40   14.40
  12   6  11   46.30   14.20
  -1  -7 -11  234.28   23.20
  -1   7  11  177.88   17.00
   1  -7  11  194.08   16.90
  -1  -7 -11  191.38   21.50
  -1  -7  11  199.48   19.60
  -1  -7  11  233.48   18.50
   1  -7 -11  191.88   16.30
   1   7  11  222.98   17.70
   1  -7 -11  226.48   21.70
  -3   7  11  123.99   16.60
  -3  -7 -11  166.68   21.00
  -3  -7  11  137.49   16.80
  -3  -7  11  171.98   18.90
   3  -7 -11  137.69   14.10
   3  -7 -11  154.28   19.30
  -5  -7 -11  219.58   24.70
  -5   7  11  209.48   20.20
   5  -7 -11  226.38   22.70
  -5  -7  11  186.08   21.40
  -5  -7  11  161.38   17.80
   5   7  11  200.18   21.20
   5  -7 -11  185.88   15.40
  -7  -7 -11   84.49   17.90
  -7   7  11   84.29   15.70
   7   7  11   84.59   15.30
  -7  -7  11  100.29   16.80
   7  -7 -11   87.19   12.60
   7  -7 -11  123.19   18.90
  -7  -7  11   79.89   16.70
  -9  -7 -11   98.99   19.40
  -9   7  11   90.39   15.70
  -9  -7  11  121.99   19.30
   9   7  11  127.79   18.50
  -9  -7  11   78.09   16.90
 -11  -7 -11   69.09   16.20
 -11   7  11   84.69   15.40
  11   7  11   44.60   15.20
 -11  -7  11   80.09   17.30
 -11  -7  11   97.79   17.40
   0   8  11   71.39   12.40
   0  -8 -11   75.89   14.40
   0  -8  11   63.29   12.10
   0  -8 -11   91.19   13.10
  -2   8  11   64.59   12.40
  -2  -8 -11   84.49   16.20
  -2  -8  11   62.99   12.90
   2  -8 -11   85.49   15.10
  -2  -8  11   73.09   14.40
   2  -8 -11   59.69   10.90
  -4   8  11   63.99   13.30
  -4  -8 -11   58.49   15.70
   4  -8 -11   57.39   14.10
  -4  -8  11   65.19   13.70
  -4  -8  11   72.19   14.90
   4  -8 -11   58.59   10.40
  -6  -8 -11   46.90   15.30
  -6   8  11   62.09   13.40
  -6  -8  11   39.70   12.80
   6   8  11   72.69   14.90
  -6  -8  11   41.40   13.60
   6  -8 -11   57.49   10.20
   6  -8 -11   40.60   14.20
  -8   8  11   33.30   13.20
  -8  -8 -11   35.60   15.10
  -8  -8  11   24.80   13.20
  -8  -8  11   43.80   14.70
   8   8  11   42.50   13.90
 -10  -8 -11   38.30   15.60
 -10   8  11    9.60   11.50
 -10  -8  11   24.00   14.30
  10   8  11   34.80   14.40
 -10  -8  11   42.20   14.80
 -12  -8  11   29.90   19.30
   1  -9  11  192.08   17.20
  -1   9  11  196.28   19.00
  -1  -9 -11  140.89   19.30
  -1  -9  11  142.19   17.00
   1  -9 -11  206.68   22.00
   1   9  11  190.28   18.30
   1  -9 -11  168.18   17.00
  -3  -9 -11  130.19   19.50
  -3   9  11  128.19   17.70
   3  -9 -11  128.39   15.20
   3  -9 -11  113.79   17.50
  -3  -9  11  121.59   18.10
  -3  -9  11  135.29   18.60
  -5  -9 -11  124.69   19.80
  -5   9  11  113.39   17.30
   5   9  11  197.78   19.80
  -5  -9  11  127.09   18.60
   5  -9 -11  148.39   15.30
   5  -9 -11  142.29   19.70
  -5  -9  11  141.89   18.90
  -7   9  11   74.59   15.70
  -7  -9 -11  108.69   19.70
  -7  -9  11   85.69   16.40
  -7  -9  11   63.29   15.10
   7   9  11   53.29   14.40
  -9   9  11   72.19   15.50
  -9  -9 -11   77.99   17.90
   9   9  11   91.99   17.50
  -9  -9  11   88.79   17.50
  -9  -9  11   49.90   15.60
 -11   9  11   40.40   13.20
 -11  -9 -11   82.49   17.20
  11   9  11   45.90   14.80
 -11  -9  11   54.89   15.50
 -11  -9  11   27.70   14.10
   0 -10  11   31.60   11.10
   0 -10 -11   48.90   12.20
   0  10  11   41.70   11.70
   0 -10 -11   49.40   14.00
  -2  10  11   49.50   12.80
  -2 -10 -11   13.00   11.50
   2 -10 -11   38.80   10.60
  -2 -10  11   42.60   11.90
   2 -10 -11   11.80   11.60
  -4 -10 -11   39.30   14.40
  -4  10  11   24.10   12.20
   4 -10 -11   37.00   13.50
   4  10  11   14.20   10.00
  -4 -10  11   34.20   12.90
  -4 -10  11   36.60   12.60
   4 -10 -11   28.00    9.60
  -6  10  11   23.20   13.30
  -6 -10 -11   24.20   13.80
   6  10  11   37.60   12.90
  -6 -10  11   38.60   13.50
  -6 -10  11   38.90   13.90
   6 -10 -11   18.30   10.90
  -8  10  11   11.90   11.90
  -8 -10 -11   16.30   14.60
  -8 -10  11   11.70   13.20
   8  10  11   37.10   14.20
  -8 -10  11   18.30   12.50
 -10 -10 -11   17.80   13.80
 -10  10  11   -7.90   10.20
 -10 -10  11    6.60   12.30
 -10 -10  11   34.60   14.50
  10  10  11   14.80   13.00
   1 -11  11   79.99   13.80
  -1  11  11   87.49   15.60
  -1 -11 -11   69.49   16.00
   1 -11 -11   86.89   16.50
  -1 -11  11   67.69   14.60
   1 -11 -11   59.09   12.60
   1  11  11   62.69   14.70
  -3 -11 -11   37.10   14.40
  -3  11  11   64.69   14.50
   3 -11 -11   30.20   10.30
   3  11  11   49.99   12.30
  -3 -11  11   67.59   15.00
   3 -11 -11   84.79   16.40
  -5  11  11   67.89   15.90
  -5 -11 -11   51.79   16.10
  -5 -11  11   48.00   15.50
  -5 -11  11   85.59   15.40
   5 -11 -11   56.99   12.30
   5  11  11   70.39   14.90
  -7 -11 -11   46.90   15.80
  -7  11  11   40.10   14.00
   7  11  11   32.50   13.60
  -7 -11  11   50.79   16.30
  -7 -11  11   40.00   13.60
  -9 -11 -11   46.60   15.70
  -9  11  11   49.60   14.90
  -9 -11  11   17.20   12.90
  -9 -11  11   33.80   15.20
   9  11  11   44.70   15.00
   0 -12  11   28.10   12.20
   0 -12 -11   31.90   13.10
   0  12  11   18.30   11.70
  -2 -12 -11    7.20   11.90
  -2  12  11   34.60   13.50
   2  12  11   41.50   12.80
   2 -12 -11   23.80   13.00
  -2 -12  11   15.10   12.40
   2 -12 -11   22.90   10.10
  -4  12  11   32.60   13.80
  -4 -12 -11   17.80   13.00
   4  12  11   16.30   11.40
  -4 -12  11   18.80   12.40
  -6  12  11   22.00   13.50
  -6 -12 -11   39.40   14.50
  -6 -12  11   32.70   13.20
   6  12  11   29.80   13.70
  -6 -12  11   18.20   14.10
  -8 -12 -11   19.40   14.00
  -8  12  11    4.60   12.50
  -8 -12  11   16.70   12.10
   8  12  11   20.90   13.90
  -8 -12  11   -1.00   13.30
 -10  12  11   25.30   13.60
 -10 -12 -11   13.90   13.30
  10  12  11  -12.20   13.50
  -1 -13 -11   43.30   14.00
   1 -13  11   57.79   14.40
  -1  13  11   65.09   15.50
   1 -13 -11   54.89   14.50
   1 -13 -11   63.89   15.00
   1  13  11   68.29   14.60
  -1 -13  11   75.49   16.30
  -3 -13 -11   17.60   13.30
  -3  13  11   39.20   14.30
  -3 -13  11   29.90   14.20
   3  13  11   45.40   13.30
  -5 -13 -11   45.80   15.30
  -5  13  11   54.99   16.00
  -5 -13  11   63.59   16.80
   5  13  11   47.90   14.10
  -7 -13 -11   10.70   13.10
  -7  13  11   25.50   13.80
   7  13  11   23.10   13.70
  -7 -13  11   40.80   15.50
  -9  13  11   42.00   13.50
  -9 -13 -11   10.90   13.10
  -9 -13  11    9.00   12.30
   9  13  11   24.90   13.30
  -9 -13  11   62.19   17.20
   0 -14  11    8.60   11.60
   0 -14 -11   28.00   13.60
  -2 -14 -11    1.90   11.60
  -2  14  11   31.90   13.60
   2  14  11   10.30   11.30
  -2 -14  11  -11.90   11.50
  -4 -14 -11    1.40   11.40
  -4  14  11   10.90   13.10
   4  14  11   11.90   12.50
  -4 -14  11    0.50   13.00
  -6 -14 -11   12.10   12.30
  -6  14  11    2.70   12.10
   6  14  11   12.10   12.80
  -6 -14  11   10.60   14.70
  -8 -14 -11   -8.60   11.50
  -8  14  11    5.70   11.80
   8  14  11    7.90   12.30
  -8 -14  11   19.60   13.90
  -1 -15 -11   32.20   12.60
   1 -15  11   27.70   13.20
  -1 -15  11   20.00   12.60
   1  15  11   26.50   12.50
  -3 -15 -11   14.80   12.30
   3  15  11   13.20   12.00
  -3 -15  11   19.50   14.50
  -5 -15 -11   20.90   12.70
  -5  15  11    8.30   12.50
   5  15  11   16.10   13.60
  -5 -15  11   25.10   13.70
  -7 -15 -11    1.50   11.70
   7  15  11   13.70   12.60
  -7 -15  11   17.00   14.50
   0 -16  11   15.60   12.50
   0 -16 -11   -2.00   11.80
   0  16  11    1.60   10.60
   2 -16 -11   10.40   13.90
  -2 -16  11  -23.40   10.80
   2  16  11    3.40   11.30
  -4 -16 -11    4.70   11.10
  -4 -16  11   13.10   13.20
   4  16  11   13.40   12.60
  -6 -16 -11   22.20   11.80
  -6 -16  11   -4.20   12.80
   6  16  11   16.70   12.80
  -1 -17  11   37.50   14.50
   1 -17 -11    3.60   13.30
   1  17  11   14.70   12.20
   3  17  11   31.40   12.80
  -3 -17  11   14.20   12.80
   3 -17 -11   18.60   14.60
  -5 -17  11   16.00   13.60
   5 -17 -11   -9.20   14.00
   5  17  11   16.30   12.20
   0 -18  11   -3.70   11.40
   0 -18 -11   -9.70   13.40
   0  18  11   -0.90   10.70
  -2 -18  11    3.00   11.60
   2 -18 -11   17.90   14.30
   2  18  11   -1.50   10.70
   4 -18 -11  -22.20   13.70
  -4 -18  11   -1.30   12.30
   0   0 -12  254.17   23.10
   0   0  12  236.28   17.70
   0   0 -12  216.28   17.00
  -2   0  12  362.86   22.50
  -2   0 -12  327.17   26.80
   2   0 -12  367.76   20.60
   4   0 -12  288.17   18.40
  -4   0  12  309.67   24.60
  -4   0  12  270.77   21.90
  -4   0 -12  309.97   26.00
   6   0 -12  151.38   14.70
  -6   0 -12  155.48   22.00
  -6   0  12  176.98   19.10
  -6   0  12  186.78   21.40
  -8   0  12  209.28   24.10
  -8   0  12  247.18   23.30
 -10   0  12   83.39   18.00
 -10   0  12  105.69   18.10
 -12   0  12   69.69   20.90
   1   1 -12  136.79   18.80
   1   1 -12   85.59   11.70
  -1  -1 -12  109.09   17.10
  -1   1  12   94.69   13.30
   1  -1 -12   80.29   11.40
  -1  -1  12   94.09   13.80
  -1   1 -12   71.39   14.90
   1  -1 -12  101.29   16.80
   3   1 -12   64.49   10.70
  -3   1  12   96.69   14.30
  -3  -1 -12  106.89   17.40
   3  -1 -12   97.69   12.40
  -3  -1  12   56.09   13.60
  -3  -1  12  100.59   14.60
  -3   1 -12  121.19   18.20
  -5   1  12   49.10   13.60
   5   1 -12   60.89   10.60
  -5   1  12   96.99   15.30
  -5  -1 -12   86.39   17.10
  -5   1 -12   88.19   16.60
   5  -1 -12   66.39   10.70
  -5  -1  12   63.59   13.30
  -5  -1  12   82.19   14.80
  -7  -1 -12   76.39   16.90
  -7   1  12   86.29   16.60
   7   1 -12   51.29   10.20
  -7   1  12   56.09   14.00
  -7  -1  12   63.79   14.40
  -7  -1  12   71.89   16.00
   7  -1 -12   50.49    9.50
  -9   1  12   32.10   13.40
  -9   1  12   21.70   13.10
  -9  -1  12   23.70   14.60
  -9  -1  12   63.99   15.30
 -11   1  12   49.70   13.50
 -11   1  12   49.30   14.60
 -11  -1  12   42.20   15.20
 -11  -1  12   40.40   14.60
   0  -2 -12  200.28   21.40
   0   2  12  240.78   18.30
   0  -2 -12  198.28   16.30
   0   2 -12  242.48   23.40
   0  -2  12  211.88   17.40
  -2   2  12  293.77   20.50
   2   2 -12  268.77   18.40
  -2  -2 -12  243.58   24.70
  -2  -2  12  257.77   20.00
  -2   2 -12  269.67   23.20
   2  -2 -12  286.27   18.70
   2  -2 -12  268.37   23.70
  -4   2  12  219.28   20.30
   4   2 -12  189.78   16.10
  -4  -2 -12  231.68   24.00
   4  -2 -12  226.28   16.70
  -4  -2  12  195.38   19.60
  -4  -2  12  216.08   21.90
  -4   2 -12  239.78   23.30
  -6   2  12  176.08   19.30
   6   2 -12  177.18   15.90
  -6  -2 -12  143.69   22.10
  -6   2  12  135.79   20.00
  -6  -2  12  183.38   21.00
  -6  -2  12  104.49   16.10
   6  -2 -12  135.59   13.80
  -8  -2 -12  150.08   22.80
  -8   2  12  144.99   21.50
  -8   2  12  206.68   22.30
  -8  -2  12  166.78   20.90
  -8  -2  12  188.78   22.80
 -10   2  12  107.49   17.90
 -10   2  12  110.39   17.60
 -10  -2  12   67.59   16.40
 -10  -2  12  102.09   18.40
 -12  -2  12   76.89   20.40
  -1  -3 -12   64.79   15.00
  -1   3  12   84.99   13.10
   1   3 -12   88.59   12.50
   1  -3 -12   79.29   15.20
   1  -3 -12   94.39   12.40
  -1   3 -12   96.79   16.60
  -1  -3  12   94.89   13.50
  -3  -3 -12   88.29   16.80
  -3   3  12   90.49   14.10
   3   3 -12   86.59   12.20
   3  -3 -12   74.79   15.50
   3  -3 -12   71.79   11.10
  -3   3 -12   94.49   16.50
  -3  -3  12   69.49   13.10
  -3  -3  12   68.89   14.50
   5   3 -12   66.79   10.80
  -5   3  12   67.89   13.70
  -5  -3 -12   67.99   17.00
   5  -3 -12   43.40    9.60
  -5  -3  12   39.10   13.50
  -5  -3  12   41.40   11.90
   7   3 -12   66.89   11.50
  -7   3  12   44.70   14.00
  -7  -3 -12   70.39   16.40
  -7   3  12   53.29   13.80
   7  -3 -12   58.39    9.80
  -7  -3  12   41.80   13.70
  -7  -3  12   69.09   15.10
  -9  -3 -12   19.80   14.00
  -9   3  12   43.50   14.60
  -9   3  12   54.09   14.80
  -9  -3  12   23.60   13.00
  -9  -3  12   23.20   14.10
 -11   3  12   45.40   12.50
 -11  -3  12   56.29   16.10
 -11  -3  12   29.90   13.80
   0  -4 -12  263.97   22.60
   0  -4  12  208.68   17.40
   0  -4 -12  187.28   16.80
   0   4  12  232.18   18.40
   0   4 -12  215.88   22.20
   2   4 -12  294.37   19.40
  -2  -4 -12  297.47   25.40
  -2   4  12  316.47   21.80
  -2  -4  12  250.87   20.20
  -2  -4  12  290.57   24.60
  -2   4 -12  322.57   25.10
   2  -4 -12  257.67   18.40
   2  -4 -12  259.07   23.20
   4   4 -12  221.08   17.60
  -4  -4 -12  226.08   23.70
  -4   4  12  221.08   20.80
  -4  -4  12  223.68   23.50
  -4  -4  12  271.47   21.00
   4  -4 -12  219.18   16.90
   4  -4 -12  252.67   24.20
  -6   4  12  133.09   18.50
   6   4 -12  135.09   15.30
  -6  -4 -12  184.18   24.20
   6  -4 -12  119.79   13.70
  -6  -4  12  121.19   17.60
  -6  -4  12  186.18   22.20
  -8  -4 -12  203.18   24.40
  -8   4  12  163.28   20.60
  -8  -4  12  139.19   20.70
  -8  -4  12  154.18   21.10
 -10  -4 -12   93.89   18.20
 -10   4  12   86.79   16.00
 -10  -4  12   89.39   17.40
 -10  -4  12  111.49   21.00
  -1  -5 -12  110.29   17.80
  -1   5  12  103.89   15.50
  -1   5 -12   81.69   15.40
   1  -5 -12   88.29   16.30
  -1  -5  12   78.59   13.00
   1  -5 -12  100.79   13.30
   3   5 -12   61.89   10.90
  -3  -5 -12   66.89   16.10
  -3   5  12   72.69   13.90
   3  -5 -12   73.39   15.90
  -3  -5  12   73.29   15.50
  -3  -5  12   77.59   13.70
   3  -5 -12   64.69   11.10
  -5  -5 -12   67.49   17.00
  -5   5  12   58.19   12.90
  -5  -5  12   68.99   15.60
   5  -5 -12   47.40   14.60
  -5  -5  12   44.40   12.60
   5  -5 -12   64.79   10.90
  -7   5  12   44.00   13.10
  -7  -5 -12   72.39   17.10
   7  -5 -12   37.40   15.10
  -7  -5  12   55.29   14.60
  -7  -5  12   34.00   14.40
  -9  -5 -12   75.59   17.50
  -9   5  12   39.20   13.10
   9  -5 -12   69.49   16.80
  -9  -5  12   42.80   14.50
  -9  -5  12   23.90   14.20
 -11   5  12   14.30   10.80
 -11  -5 -12   50.09   16.00
 -11  -5  12   38.70   13.90
 -11  -5  12   31.30   15.40
   0  -6 -12   99.49   17.50
   0  -6  12  112.49   15.20
   0  -6 -12  136.99   15.70
   0   6 -12  151.98   20.20
   0   6  12  165.68   16.80
  -2   6  12  166.88   18.30
  -2  -6 -12  196.38   21.70
  -2  -6  12  194.58   18.40
   2  -6 -12  204.98   17.00
   2  -6 -12  131.89   20.50
  -2  -6  12  191.78   21.90
  -4  -6 -12  156.88   23.20
  -4   6  12  129.69   17.90
   4  -6 -12  147.29   15.30
   4  -6 -12  140.49   21.40
  -4  -6  12  177.08   19.80
  -4  -6  12  128.59   19.40
  -6   6  12   93.39   16.30
  -6  -6 -12   81.39   18.90
  -6  -6  12   78.89   15.60
  -6  -6  12  114.49   19.00
   6  -6 -12   82.49   17.20
   6  -6 -12  118.19   14.10
  -8  -6 -12  103.29   19.80
  -8   6  12   89.29   16.30
  -8  -6  12  109.59   18.30
   8  -6 -12  160.28   23.60
  -8  -6  12  134.59   20.30
 -10  -6 -12   82.29   17.70
 -10   6  12   51.99   13.70
 -10  -6  12   64.09   16.30
  10   6  12  105.49   24.90
 -10  -6  12   75.39   17.10
  -1   7  12   27.50   10.40
  -1  -7 -12   50.19   14.40
  -1  -7  12   46.50   11.40
   1  -7 -12   47.50   10.50
   1  -7 -12   30.70   12.80
  -3  -7 -12   31.10   12.30
  -3   7  12   39.50   12.40
  -3  -7  12   61.09   13.20
   3  -7 -12   59.19   11.50
   3  -7 -12   66.39   15.50
  -3  -7  12   68.89   15.40
  -5   7  12   45.10   13.00
  -5  -7 -12   53.19   16.60
  -5  -7  12   32.30   13.40
  -5  -7  12   49.70   13.70
   5  -7 -12   59.29   15.70
   5  -7 -12   40.60   10.20
  -7  -7 -12   58.69   16.60
  -7   7  12   42.10   13.60
  -7  -7  12   32.00   13.90
  -7  -7  12   36.60   15.30
   7  -7 -12   12.40   13.50
  -9  -7 -12   33.40   15.30
  -9   7  12   23.70   12.80
  -9  -7  12   15.80   13.30
   9   7  12   34.00   15.20
  -9  -7  12   36.10   14.70
 -11  -7  12   24.70   15.20
   0  -8  12  132.09   16.50
   0  -8 -12  148.59   21.30
   0   8  12  126.29   17.30
   0  -8 -12  113.89   17.40
  -2  -8 -12  161.68   22.30
  -2   8  12  169.58   19.00
  -2  -8  12  145.89   18.30
  -2  -8  12  163.18   21.00
   2  -8 -12  141.59   20.10
   2  -8 -12  141.09   17.00
  -4   8  12  109.09   17.00
  -4  -8 -12  132.29   20.40
   4  -8 -12  109.69   16.00
  -4  -8  12  102.69   16.30
   4  -8 -12  148.79   22.30
  -4  -8  12  105.39   17.90
  -6  -8 -12  101.69   19.10
  -6   8  12   73.99   15.70
  -6  -8  12   72.69   16.30
   6  -8 -12   77.69   16.70
  -6  -8  12   93.39   17.50
  -8  -8 -12   97.69   19.40
  -8   8  12   62.59   15.00
  -8  -8  12   70.29   16.80
  -8  -8  12  107.49   19.10
   8   8  12   91.29   17.00
 -10   8  12   50.79   13.80
 -10  -8 -12   36.30   15.30
  10   8  12   37.40   14.60
 -10  -8  12   30.90   13.80
 -10  -8  12   52.39   15.50
  -1  -9 -12   37.50   14.50
  -1   9  12   35.50   11.90
  -1  -9  12   46.40   13.00
   1  -9 -12   47.80   14.60
   1  -9 -12   53.39   12.10
  -3  -9 -12   15.60   13.40
  -3   9  12   47.60   13.30
   3  -9 -12   22.20   13.00
  -3  -9  12   61.99   14.50
  -3  -9  12   51.39   13.90
   3  -9 -12   42.90   11.40
  -5  -9 -12   33.40   15.30
  -5   9  12   28.00   13.10
  -5  -9  12   26.20   13.00
  -5  -9  12   58.59   14.60
   5  -9 -12   43.20   14.60
  -7   9  12    5.40   11.90
  -7  -9 -12    7.20   13.60
   7   9  12   44.30   13.70
  -7  -9  12   33.20   14.50
  -7  -9  12   21.40   13.50
  -9  -9 -12   16.50   14.10
  -9   9  12   -9.30   10.70
   9   9  12   18.80   13.20
  -9  -9  12   34.20   13.70
  -9  -9  12    8.60   14.00
   0  10  12   72.89   14.30
   0 -10 -12   71.09   16.30
   0 -10  12   75.29   14.40
  -2  10  12   77.19   15.30
  -2 -10 -12   74.09   17.60
   2 -10 -12   93.89   17.70
   2 -10 -12   70.19   13.30
  -2 -10  12   74.29   15.30
  -4  10  12   69.69   15.40
  -4 -10 -12   51.49   16.90
  -4 -10  12   76.89   16.40
  -4 -10  12   91.19   16.90
   4 -10 -12   49.90   14.90
  -6 -10 -12   56.29   16.50
  -6  10  12   61.09   15.20
  -6 -10  12   41.70   15.00
  -6 -10  12   27.10   13.00
   6  10  12   60.79   20.80
  -8  10  12   93.39   17.00
  -8 -10 -12   64.29   17.50
  -8 -10  12   38.20   15.40
  -8 -10  12   40.50   14.40
   8  10  12   61.29   15.40
 -10 -10 -12    4.30   14.00
  -1  11  12   16.80   12.40
  -1 -11 -12    7.60   12.40
   1 -11 -12   16.80   12.10
  -1 -11  12   -8.00   10.60
   1 -11 -12   15.80   12.60
  -3 -11 -12   30.40   14.70
  -3  11  12   20.10   12.90
  -3 -11  12   12.50   12.30
   3 -11 -12   34.00   14.20
  -5 -11 -12   20.90   14.00
  -5  11  12   21.60   13.10
  -5 -11  12   13.80   12.30
  -7  11  12   12.20   12.60
  -7 -11 -12   -2.70   13.30
   7  11  12    4.70   11.70
  -7 -11  12   -3.30   12.90
  -7 -11  12   22.40   12.50
  -9  11  12   14.10   12.10
  -9 -11 -12    1.60   13.00
  -9 -11  12   -6.70   13.10
  -9 -11  12   14.50   12.40
   9  11  12    5.10   12.40
   0 -12 -12   51.69   15.30
   0  12  12   57.79   15.70
   0 -12  12   34.90   13.70
  -2 -12 -12   41.00   15.70
  -2  12  12   79.49   16.50
   2 -12 -12   46.30   14.70
  -2 -12  12   60.39   16.10
  -4  12  12   40.40   14.40
  -4 -12 -12   61.39   15.80
  -4 -12  12   38.60   14.40
  -6 -12 -12   32.70   15.10
  -6  12  12   43.70   15.80
   6  12  12   51.09   14.70
  -6 -12  12   46.00   15.50
  -8  12  12   54.29   14.30
  -8 -12 -12   19.30   12.80
   8  12  12   50.89   14.40
  -8 -12  12   46.30   16.50
  -8 -12  12   48.00   12.60
  -1 -13 -12   17.60   13.20
  -1  13  12   13.20   12.30
   1 -13 -12   14.00   12.80
  -1 -13  12   12.20   12.80
  -3 -13 -12   15.50   13.20
  -3  13  12   -5.00   11.70
  -3 -13  12   10.10   13.70
  -5  13  12   18.50   13.00
  -5 -13 -12  -12.90   11.00
  -5 -13  12   14.10   13.00
   5  13  12   13.10   12.60
  -7 -13 -12   20.70   13.10
  -7  13  12    4.50   12.50
   7  13  12   16.50   12.00
  -7 -13  12   30.70   15.20
   0 -14 -12   32.70   14.50
   0 -14  12    6.80   12.10
  -2  14  12   26.70   13.20
  -2 -14 -12   19.00   12.40
  -2 -14  12   26.00   14.20
  -4  14  12   24.10   13.50
  -4 -14 -12    1.40   11.10
   4  14  12   18.90   13.30
  -4 -14  12   33.30   15.10
  -6 -14 -12   19.80   12.90
  -6  14  12   23.60   12.90
   6  14  12   31.00   13.20
  -6 -14  12   10.80   13.20
  -1 -15 -12   14.50   12.30
  -1 -15  12   -4.30   11.80
   1 -15 -12    4.70   13.10
  -3 -15 -12   -6.40   10.30
  -3 -15  12   -3.60   12.50
  -5 -15 -12    2.90   11.10
  -5 -15  12   -1.90   11.80
   5  15  12   12.60   12.20
   0 -16  12    9.80   12.70
   2 -16 -12   25.10   14.80
  -2 -16  12   -3.80   12.10
  -4 -16 -12  -11.00   10.20
   4  16  12   17.80   15.10
   4 -16 -12    8.30   14.50
  -4 -16  12   23.40   13.20
  -1 -17  12  -23.10   13.30
   1 -17 -12   19.10   18.50
   0   0 -13  141.89   21.30
   0   0  13  105.69   15.40
  -2   0 -13   83.39   17.50
   2   0 -13   94.49   13.10
   2   0 -13   84.09   17.10
  -2   0  13   71.09   13.50
   4   0 -13   38.60    9.70
  -4   0 -13  110.79   19.20
  -4   0  13   80.49   14.80
  -6   0  13   69.59   15.50
  -6   0  13   50.09   15.10
  -6   0 -13   59.29   17.10
  -8   0  13   35.00   14.50
  -8   0  13   55.39   15.20
 -10   0  13   15.50   12.10
 -10   0  13   32.70   14.00
  -1   1  13  174.18   18.50
   1   1 -13  200.58   24.10
  -1  -1 -13  185.38   24.10
  -1  -1  13  205.98   18.60
   1  -1 -13  170.58   16.50
  -1   1 -13  193.98   23.80
   1  -1 -13  174.08   23.10
  -3   1  13  246.78   21.60
  -3  -1 -13  268.47   26.80
   3   1 -13  259.57   19.30
  -3  -1  13  262.87   21.80
   3  -1 -13  251.87   18.80
  -3   1 -13  272.77   26.10
   3  -1 -13  231.48   23.40
   5   1 -13  104.69   14.60
  -5  -1 -13   98.59   19.90
  -5   1  13  121.99   17.50
  -5   1 -13   83.39   17.10
  -5  -1  13   98.89   17.40
  -5  -1  13  132.09   18.40
   5  -1 -13   96.19   13.60
  -7   1  13  171.38   23.40
  -7   1  13  162.28   21.50
  -7  -1 -13  167.18   24.20
  -7  -1  13  208.78   24.20
  -7  -1  13  201.28   22.50
  -9   1  13  136.39   19.70
  -9   1  13  141.59   20.20
  -9  -1  13  106.49   19.10
  -9  -1  13  147.79   22.10
 -11  -1  13   73.39   21.80
   0  -2  13   51.29   11.70
   0   2 -13   35.40   14.40
   0   2  13   64.39   12.30
   0  -2 -13   77.89   17.10
  -2   2  13   69.79   13.60
  -2  -2 -13   59.69   16.10
   2   2 -13   78.09   17.20
   2   2 -13   78.19   12.50
   2  -2 -13   66.79   15.80
  -2   2 -13   65.89   16.70
   2  -2 -13   89.39   12.80
  -2  -2  13   63.19   12.70
  -4  -2 -13   52.19   16.30
  -4   2  13   47.40   13.00
   4   2 -13   39.10   10.30
   4  -2 -13   34.60   13.20
  -4  -2  13   79.59   14.90
  -4   2 -13   56.99   15.80
  -4  -2  13   56.19   15.70
   4  -2 -13   56.79   11.10
  -6   2  13   70.49   15.10
  -6  -2 -13   51.29   16.90
  -6  -2  13   35.70   12.50
  -6  -2  13   49.60   15.30
  -8  -2 -13   39.50   15.10
  -8   2  13   35.10   14.50
  -8  -2  13   37.90   13.90
  -8  -2  13   40.20   14.70
 -10   2  13    4.40   10.10
 -10  -2  13   37.20   14.80
 -10  -2  13   55.49   15.70
  -1   3  13  164.08   17.90
   1   3 -13  146.89   21.60
  -1  -3 -13  170.58   24.40
   1  -3 -13  144.69   21.60
   1  -3 -13  169.08   16.60
  -1  -3  13  186.68   18.60
  -1   3 -13  140.49   21.60
   3   3 -13  248.58   19.40
  -3   3  13  244.98   21.90
  -3  -3 -13  268.77   26.70
   3  -3 -13  259.07   18.60
  -3  -3  13  233.78   21.30
  -3   3 -13  294.37   25.80
   3  -3 -13  252.27   24.80
   5   3 -13  121.09   15.50
  -5   3  13  114.19   17.40
  -5  -3 -13  108.79   20.20
   5  -3 -13  107.89   19.10
   5  -3 -13   99.29   14.10
  -5  -3  13   91.29   16.20
  -5  -3  13  127.99   19.70
  -7  -3 -13  203.28   26.00
  -7   3  13  108.49   17.60
  -7  -3  13  157.58   22.40
  -7  -3  13  141.19   20.70
  -9  -3 -13  102.99   18.70
  -9   3  13  103.59   16.20
  -9  -3  13   74.49   18.20
  -9  -3  13  122.59   19.00
   0  -4  13   51.49   11.90
   0  -4 -13   46.20   14.60
   0   4 -13  104.89   19.10
   0   4  13   68.89   13.30
   2   4 -13   55.19   16.10
  -2   4  13   60.89   13.00
  -2  -4 -13   80.99   17.80
  -2   4 -13   62.09   16.10
   2  -4 -13   75.89   11.90
   2  -4 -13   67.09   15.80
  -2  -4  13   84.09   14.40
  -4   4  13   64.79   14.40
  -4  -4 -13   81.59   18.70
   4   4 -13   58.39   11.60
  -4  -4  13   48.20   13.80
  -4  -4  13   56.29   15.80
   4  -4 -13   70.09   17.10
   4  -4 -13   72.39   12.10
  -6   4  13   70.39   15.00
  -6  -4 -13   42.10   16.90
  -6  -4  13   59.59   16.50
   6  -4 -13   54.59   15.40
  -6  -4  13   48.80   13.80
  -8  -4 -13   18.00   14.80
  -8   4  13   33.20   12.90
  -8  -4  13   33.50   14.70
   8  -4 -13   49.70   15.20
  -8  -4  13   36.50   14.00
 -10   4  13   17.80   11.30
  10  -4 -13   55.99   15.10
 -10  -4  13   14.10   13.00
 -10  -4  13   16.00   14.80
   1   5 -13  151.28   22.20
  -1   5  13  162.78   18.90
  -1  -5 -13  136.59   20.70
  -1   5 -13  147.69   21.50
   1  -5 -13  148.69   21.70
  -1  -5  13  126.29   16.80
   1  -5 -13  166.08   17.30
  -3  -5 -13  196.08   26.00
  -3   5  13  212.98   21.10
   3  -5 -13  191.28   17.70
   3  -5 -13  197.28   24.00
  -3  -5  13  205.58   24.80
  -3  -5  13  167.48   19.50
  -5   5  13   69.09   14.50
  -5  -5 -13   88.19   19.80
  -5  -5  13   74.69   17.10
  -5  -5  13  101.79   17.10
   5  -5 -13   68.89   16.40
  -7   5  13  111.19   17.30
  -7  -5 -13  169.08   23.50
  -7  -5  13   99.89   18.60
   7  -5 -13  165.58   24.20
  -7  -5  13  150.48   20.20
  -9  -5 -13   74.99   17.40
  -9   5  13   56.79   14.00
  -9  -5  13   83.99   18.10
  -9  -5  13   59.99   15.90
   9  -5 -13   80.39   16.40
   0  -6 -13   41.70   14.20
   0  -6  13   49.20   12.10
   0   6  13   50.89   13.10
   0   6 -13   36.90   14.60
  -2  -6 -13   58.49   16.90
  -2   6  13   28.80   12.20
  -2  -6  13   33.80   11.80
   2  -6 -13   30.70   13.90
   2  -6 -13   57.09   11.80
  -4   6  13   52.29   14.10
  -4  -6 -13   14.70   15.00
   4  -6 -13   39.90   14.80
   4  -6 -13   45.10   13.10
  -4  -6  13   46.70   13.90
  -4  -6  13   52.09   15.20
  -6   6  13   26.90   12.80
  -6  -6 -13   35.60   16.40
  -6  -6  13   18.70   12.40
   6  -6 -13   38.80   14.80
  -6  -6  13   25.90   14.20
  -8  -6 -13   30.70   15.40
  -8   6  13   19.20   12.10
  -8  -6  13   12.30   13.10
   8  -6 -13   50.69   15.00
  -8  -6  13   37.60   15.00
 -10   6  13   19.00   11.50
 -10  -6  13   29.70   15.10
 -10  -6  13   28.90   14.30
  -1   7  13  100.99   16.00
   1   7 -13   94.79   18.20
  -1  -7 -13   80.79   18.30
   1  -7 -13  101.39   14.60
  -1  -7  13  107.49   16.60
   1  -7 -13   98.89   19.10
  -3  -7 -13  166.98   24.60
  -3   7  13  154.08   19.90
  -3  -7  13  148.49   22.90
  -3  -7  13  132.39   20.10
   3  -7 -13  129.89   20.00
   3  -7 -13  120.99   17.80
  -5  -7 -13   66.29   18.40
  -5   7  13   87.09   15.80
   5  -7 -13   43.40   15.00
  -5  -7  13   38.40   14.50
  -5  -7  13   52.99   14.80
  -7  -7 -13   98.99   20.60
  -7   7  13   86.29   16.40
   7  -7 -13   76.39   16.80
  -7  -7  13   83.09   17.30
  -7  -7  13   80.59   17.70
  -9  -7 -13   70.09   16.90
  -9   7  13   49.40   14.40
  -9  -7  13   59.49   15.70
  -9  -7  13   63.79   16.30
   0  -8  13   62.89   13.30
   0   8  13   10.90   12.50
   0  -8 -13   33.90   14.90
  -2   8  13   41.60   12.70
   2   8 -13   31.40   18.80
  -2  -8 -13   55.29   16.50
   2  -8 -13   48.10   15.40
  -2  -8  13   62.19   15.00
  -4  -8 -13   17.60   15.40
  -4   8  13   49.20   13.70
  -4  -8  13   17.00   12.60
   4  -8 -13    7.40   13.00
  -4  -8  13   60.09   15.60
  -6  -8 -13   33.20   15.90
  -6   8  13   28.40   14.10
   6  -8 -13   44.00   15.50
  -6  -8  13   13.90   12.40
  -6  -8  13   17.90   12.70
  -8  -8 -13   28.50   15.40
  -8   8  13   23.70   12.80
  -8  -8  13    9.50   12.80
  -8  -8  13    5.70   13.20
  -1   9  13   71.19   15.40
  -1  -9 -13   54.79   16.40
  -1  -9  13   86.79   16.50
   1  -9 -13   55.79   16.00
  -3   9  13   94.39   16.90
  -3  -9 -13   72.19   18.30
   3  -9 -13   81.69   17.60
  -3  -9  13  117.19   18.60
  -5   9  13   44.90   14.40
  -5  -9 -13   66.79   16.80
  -5  -9  13   56.19   16.20
  -5  -9  13   32.80   14.00
   5  -9 -13   81.19   17.50
  -7   9  13   89.99   17.50
  -7  -9 -13   72.89   17.80
  -7  -9  13   96.79   18.50
  -7  -9  13   86.69   16.80
  -9   9  13   73.19   15.30
  -9  -9 -13   36.00   15.30
  -9  -9  13   63.79   20.80
  -9  -9  13   49.60   16.20
   0 -10  13   22.30   12.10
   0 -10 -13   36.60   14.90
  -2 -10 -13   18.60   14.70
  -2  10  13   37.50   13.70
  -2 -10  13   10.70   12.20
   2 -10 -13   10.90   13.50
  -4  10  13   26.40   13.40
  -4 -10 -13   20.70   15.50
  -4 -10  13   10.80   12.90
   4 -10 -13   23.00   13.80
  -6  10  13   35.20   14.20
  -6 -10 -13   30.20   15.50
  -6 -10  13   -1.10   12.70
  -6 -10  13   30.20   13.10
  -8 -10 -13   -6.10   12.30
  -8  10  13    5.80   11.30
  -8 -10  13   32.60   13.20
  -8 -10  13   24.30   14.50
  -1  11  13   63.69   15.70
  -1 -11 -13   48.70   16.30
   1 -11 -13   51.49   15.40
  -1 -11  13   38.00   13.30
  -3  11  13   66.59   15.60
  -3 -11 -13   54.59   16.70
   3 -11 -13   37.00   15.60
  -3 -11  13   47.30   14.30
  -5  11  13   56.99   15.20
  -5 -11 -13    3.30   12.60
  -5 -11  13   13.50   13.40
  -7 -11 -13   24.50   14.70
  -7  11  13   61.39   15.60
  -7 -11  13   66.49   16.60
  -7 -11  13   54.69   14.10
   0 -12 -13   45.40   15.00
   0 -12  13   19.00   14.60
  -2  12  13   -1.40   11.10
  -2 -12 -13   21.20   14.20
  -2 -12  13    0.30   11.90
   2 -12 -13   11.30   13.10
  -4 -12 -13   18.50   13.10
  -4  12  13    4.40   11.70
  -4 -12  13   15.30   13.70
  -6 -12 -13   -2.60   12.40
  -6  12  13   21.20   12.40
  -6 -12  13    1.20   12.70
  -1 -13 -13   19.10   14.10
  -1  13  13   24.70   13.50
  -1 -13  13   23.90   12.50
   1 -13 -13   22.80   13.20
  -3 -13 -13   29.00   13.20
  -3  13  13   22.70   13.60
  -3 -13  13   29.70   13.60
  -5 -13 -13   13.40   12.40
  -5  13  13   22.00   13.40
  -5 -13  13    6.30   12.60
   0 -14 -13   17.50   13.00
  -2 -14 -13   23.10   12.10
  -2 -14  13    4.00   11.80
  -4 -14 -13  -16.20   10.70
  -4  14  13    5.30   12.00
  -4 -14  13   -2.60   11.50
  -1 -15  13    4.00   11.70
   1 -15 -13   21.50   20.30
  -3 -15  13    2.30   11.80
   0   0 -14  205.28   26.70
   2   0 -14  168.18   23.30
   2   0 -14  161.28   23.40
  -2   0  14  194.58   20.00
  -2   0 -14  196.68   27.00
  -4   0  14  151.38   20.10
   4   0 -14  151.08   22.40
  -4   0 -14  164.98   24.80
  -6   0 -14  143.09   32.40
  -6   0  14  169.38   21.20
  -8   0  14  104.29   18.00
   1   1 -14   24.90   15.90
  -1   1  14   36.10   11.90
  -1  -1 -14   46.70   17.80
  -1   1 -14   60.89   18.10
   1  -1 -14   60.19   17.30
  -1  -1  14   65.19   13.20
  -3   1  14   50.69   13.40
   3   1 -14   39.10   16.50
  -3  -1 -14   72.99   18.90
  -3   1 -14   40.90   15.70
  -3  -1  14   41.10   12.60
   3  -1 -14   34.90   15.10
  -5   1  14   41.50   13.60
  -5  -1 -14   63.89   18.60
  -5   1 -14   59.79   19.50
  -5  -1  14   36.60   13.00
   5  -1 -14   16.40   13.20
  -7   1  14   35.40   14.30
  -7  -1  14   25.40   13.10
   7  -1 -14   38.60   15.40
  -9   1  14   35.70   13.30
  -9  -1  14   37.30   14.10
   9  -1 -14   27.50   14.30
   0  -2 -14  176.48   24.90
   0   2 -14  175.08   26.30
  -2  -2 -14  128.09   22.50
   2   2 -14  176.48   24.70
  -2   2  14  150.18   18.90
   2  -2 -14  137.99   22.00
  -2  -2  14  173.68   19.20
  -2   2 -14  186.58   25.60
  -4  -2 -14  180.28   25.40
   4   2 -14  131.39   21.80
  -4   2  14  106.39   17.00
  -4   2 -14  161.48   26.00
  -4  -2  14  109.69   17.10
   4  -2 -14  114.19   19.60
  -6  -2 -14  146.29   23.00
  -6   2  14   90.99   16.30
  -6  -2  14   84.29   16.80
   6  -2 -14  125.39   19.60
  -8   2  14   71.59   15.80
  -8  -2  14   99.59   17.50
  -8  -2  14   87.09   17.40
   8  -2 -14   79.39   16.90
  -1   3  14   44.10   12.80
   1   3 -14   46.90   17.00
  -1  -3 -14   41.30   16.90
   1  -3 -14   63.29   16.50
  -1  -3  14   50.49   12.70
  -1   3 -14   41.20   16.60
  -3  -3 -14   53.39   18.00
  -3   3  14   51.79   13.70
   3   3 -14   44.10   16.70
  -3   3 -14   41.80   21.00
  -3  -3  14   55.29   13.80
   3  -3 -14   22.70   14.40
  -5   3  14   43.90   13.40
  -5  -3 -14   69.59   18.90
  -5  -3  14   28.90   12.70
   5  -3 -14   53.09   15.40
  -7   3  14   28.40   12.90
  -7  -3 -14    8.60   14.80
  -7  -3  14   17.00   12.80
  -7  -3  14   36.50   15.00
   7  -3 -14   14.60   13.10
  -9   3  14   31.40   12.00
  -9  -3  14   24.00   13.50
   9  -3 -14   33.40   13.50
  -9  -3  14   23.10   14.40
   0   4 -14  104.39   20.40
   0  -4 -14  180.38   23.90
  -2   4  14  130.39   18.80
  -2  -4 -14  175.78   24.90
   2   4 -14  169.68   25.70
  -2  -4  14  135.99   18.60
   2  -4 -14  114.09   19.60
  -4   4  14  159.58   19.90
  -4  -4 -14  152.08   24.50
   4  -4 -14  100.99   18.50
  -4  -4  14   79.09   15.70
  -6   4  14   91.29   16.40
  -6  -4 -14  177.58   25.10
  -6  -4  14  100.19   17.10
   6  -4 -14  101.49   18.40
  -6  -4  14  114.99   19.60
  -8   4  14   81.99   14.90
  -8  -4 -14  102.59   18.90
  -8  -4  14   86.09   17.20
  -8  -4  14   80.29   17.30
   8  -4 -14   68.99   16.20
  -1   5  14   36.60   12.50
   1   5 -14   46.40   16.90
  -1  -5 -14   34.90   15.40
  -1  -5  14   48.50   13.00
   1  -5 -14   22.70   14.90
  -3   5  14   38.70   12.80
   3   5 -14   47.70   17.50
  -3  -5 -14   60.29   18.20
   3  -5 -14   42.00   15.20
  -3  -5  14   48.90   13.20
  -5  -5 -14   47.50   17.40
  -5   5  14   25.20   13.00
   5  -5 -14   39.40   16.00
  -5  -5  14   29.40   12.50
  -7   5  14    8.50   11.40
  -7  -5 -14   25.10   15.70
   7  -5 -14   42.50   14.70
  -7  -5  14   36.70   14.80
  -7  -5  14   33.20   13.90
  -9   5  14   23.00   11.60
  -9  -5  14   66.69   16.40
  -9  -5  14   34.80   15.20
   0  -6 -14   67.69   17.30
  -2   6  14   89.09   16.10
  -2  -6 -14   86.89   18.90
   2   6 -14  120.69   21.10
  -2  -6  14  137.49   19.10
   2  -6 -14   81.89   17.70
  -4   6  14  108.09   17.10
  -4  -6 -14  111.09   21.50
   4  -6 -14   87.99   18.00
  -4  -6  14   80.69   15.50
  -6  -6 -14   72.89   18.90
  -6   6  14   65.89   14.90
   6  -6 -14   71.89   16.40
  -6  -6  14   44.60   14.00
  -6  -6  14   90.69   18.20
  -8  -6 -14   91.79   19.30
  -8   6  14   50.69   13.80
   8  -6 -14   63.29   15.90
  -8  -6  14   84.89   17.10
  -8  -6  14   47.20   15.10
  -1  -7 -14   38.30   15.50
  -1   7  14   23.00   12.10
   1  -7 -14   29.50   14.90
  -1  -7  14   44.60   12.80
  -3  -7 -14   24.20   15.70
   3   7 -14   14.40   15.70
  -3   7  14   47.20   13.60
   3  -7 -14   31.50   15.20
  -3  -7  14   14.00   11.30
  -5   7  14    8.30   11.60
  -5  -7 -14   22.90   16.00
   5  -7 -14   11.00   13.70
  -5  -7  14   29.40   13.60
  -7  -7 -14    2.90   13.70
  -7   7  14   29.40   12.70
   7  -7 -14    4.30   12.90
  -7  -7  14   28.30   14.20
  -7  -7  14   20.30   13.20
   0  -8 -14   46.20   16.00
  -2  -8 -14   62.69   17.90
  -2   8  14   93.99   17.00
  -2  -8  14   80.19   15.10
   2  -8 -14   71.89   18.00
  -4   8  14   45.20   14.20
  -4  -8 -14   67.99   18.60
  -4  -8  14   71.29   15.30
   4  -8 -14   55.89   16.40
  -6  -8 -14   55.09   17.60
  -6   8  14   53.29   14.70
  -6  -8  14   57.29   15.40
   6  -8 -14   77.39   17.10
  -6  -8  14   38.20   14.80
  -8   8  14   30.50   14.00
  -8  -8  14   59.19   18.70
  -1  -9 -14   14.70   14.20
  -1   9  14   27.10   12.80
   1  -9 -14   13.00   13.10
  -1  -9  14   32.00   12.20
  -3   9  14   13.20   12.30
  -3  -9 -14    9.60   14.50
  -3  -9  14   28.30   13.50
   3  -9 -14   12.50   13.00
  -5  -9 -14   13.50   14.80
  -5   9  14   20.70   12.20
  -5  -9  14   12.00   12.20
   5  -9 -14   31.50   14.50
  -7   9  14    6.60   11.70
  -7  -9 -14    8.90   13.60
  -7  -9  14   11.50   15.80
  -7  -9  14   10.20   13.30
   0 -10 -14   36.80   14.90
  -2  10  14   57.09   14.70
  -2 -10 -14   38.00   15.50
   2 -10 -14   24.30   13.60
  -2 -10  14   61.49   15.10
  -4  10  14   54.89   14.40
  -4 -10 -14   22.60   14.40
   4 -10 -14   38.50   14.70
  -4 -10  14   38.80   14.20
  -6 -10 -14   53.19   16.40
  -6  10  14   61.19   14.80
  -6 -10  14   33.70   14.60
  -1 -11 -14   22.80   14.60
  -1 -11  14    4.40   11.70
   1 -11 -14    2.20   12.00
  -3 -11 -14    4.10   12.60
  -3  11  14   31.40   13.10
   3 -11 -14   -3.10   11.90
  -3 -11  14   20.20   13.30
  -5  11  14    8.80   12.40
  -5 -11 -14    8.50   12.20
  -5 -11  14   11.80   12.50
   0 -12 -14   39.00   14.40
  -2 -12 -14   21.50   13.20
  -2  12  14   38.30   13.90
  -2 -12  14   16.00   13.00
   2 -12 -14   39.30   14.10
  -4 -12 -14   32.80   13.50
  -4  12  14   52.59   15.00
  -4 -12  14   11.20   12.60
  -1 -13 -14   -9.40   10.80
   1 -13 -14   -5.10   12.80
  -3 -13 -14   21.80   13.40
  -3 -13  14   12.80   19.50
   0   0 -15   48.00   18.50
   2   0 -15   38.80   16.20
  -2   0 -15   58.39   19.40
  -2   0  15   53.19   13.80
   4   0 -15   42.50   16.60
  -4   0  15   45.30   13.20
  -4   0 -15   76.39   19.10
   6   0 -15   49.40   16.80
  -6   0  15   31.60   13.00
   8   0 -15   24.30   16.10
  -8   0  15    7.10   11.50
  -1  -1 -15  129.39   23.20
   1   1 -15  179.88   24.70
  -1   1 -15  144.79   23.90
   1  -1 -15  127.99   22.10
  -3  -1 -15   92.59   21.10
  -3   1  15   61.29   13.90
   3   1 -15  107.19   21.00
  -3  -1  15   67.29   14.40
  -3   1 -15  130.69   22.50
   3  -1 -15   77.19   18.80
  -5  -1 -15  143.99   22.40
   5   1 -15  118.69   21.20
  -5   1  15  144.09   20.10
   5  -1 -15  142.49   21.40
  -5  -1  15  115.39   17.20
  -7   1  15   56.29   14.10
   7   1 -15   79.89   17.40
  -7  -1  15   81.29   16.40
   7  -1 -15   63.89   16.20
   0   2 -15   31.70   17.30
   0  -2 -15   89.09   20.30
   2   2 -15   61.49   18.70
  -2   2  15   22.10   11.90
  -2  -2 -15   23.60   16.70
   2  -2 -15   30.30   15.90
  -2   2 -15   20.50   15.80
  -2  -2  15   33.10   12.50
  -4   2  15   47.90   14.10
   4   2 -15   37.40   17.50
  -4  -2 -15   46.00   18.30
  -4  -2  15   11.10   11.20
   4  -2 -15   41.90   15.70
  -6  -2 -15   10.60   15.00
  -6   2  15   26.90   12.50
   6   2 -15   20.00   15.20
   6  -2 -15   41.30   14.80
  -6  -2  15   22.40   12.50
   8   2 -15   -3.80   17.10
  -8   2  15   30.10   16.50
  -8  -2  15   30.60   17.80
   1   3 -15  122.89   22.60
  -1  -3 -15  164.88   24.40
   1  -3 -15  104.29   21.40
  -1   3 -15  140.99   23.50
  -3  -3 -15  117.89   22.90
  -3   3  15   96.59   15.80
   3   3 -15   99.29   21.50
   3  -3 -15   81.99   18.20
  -3  -3  15   89.99   15.80
   5   3 -15  137.69   21.70
  -5   3  15  144.39   20.00
  -5  -3 -15  108.79   21.90
   5  -3 -15  100.69   18.40
  -5  -3  15  124.09   17.60
   7   3 -15   99.99   18.90
  -7   3  15   84.79   15.60
  -7  -3 -15   60.69   19.50
   7  -3 -15   59.49   14.90
  -7  -3  15   73.79   16.20
   0  -4 -15   42.00   16.80
   0   4 -15   36.10   17.90
  -2  -4 -15   28.50   16.20
   2   4 -15   33.60   16.70
  -2   4  15   32.60   13.00
  -2  -4  15   39.50   12.50
   2  -4 -15   26.20   15.50
   4   4 -15    8.30   15.00
  -4  -4 -15   79.79   19.20
  -4   4  15   17.80   12.30
   4  -4 -15   31.50   14.00
  -4  -4  15   29.20   12.20
   6   4 -15   40.80   16.70
  -6  -4 -15    4.60   14.90
  -6   4  15   19.50   11.70
   6  -4 -15   56.99   15.30
  -6  -4  15   31.60   13.20
  -1  -5 -15  105.39   20.70
   1   5 -15  119.39   21.30
   1  -5 -15  126.39   21.20
  -3   5  15   69.39   14.80
  -3  -5 -15   66.69   19.20
   3   5 -15   76.09   19.90
  -3  -5  15   53.79   13.60
   3  -5 -15   60.89   16.70
  -5  -5 -15  116.29   21.70
   5   5 -15  165.08   23.60
  -5   5  15  108.79   16.90
  -5  -5  15  108.89   16.80
   5  -5 -15   86.39   17.10
  -7   5  15   54.79   13.40
   7   5 -15   38.80   16.30
  -7  -5  15   54.59   15.20
   0  -6 -15   64.19   17.30
   2   6 -15   18.10   15.70
  -2   6  15   29.40   12.40
  -2  -6 -15   35.30   17.10
  -2  -6  15   19.10   11.50
   2  -6 -15   19.90   13.90
   4   6 -15   13.50   15.60
  -4  -6 -15   43.00   17.70
  -4   6  15   34.70   13.00
  -4  -6  15   11.20   11.50
   4  -6 -15   29.80   14.50
   6   6 -15   32.50   16.20
  -6  -6 -15   14.40   14.00
  -6   6  15   -3.80   10.40
   6  -6 -15   15.40   13.30
  -6  -6  15   29.20   13.40
  -1  -7 -15   75.99   17.90
   1  -7 -15   84.99   18.60
   3   7 -15   64.59   18.00
  -3  -7 -15   60.99   17.70
  -3   7  15   62.39   15.10
  -3  -7  15   50.49   13.20
   3  -7 -15   19.70   13.60
   5   7 -15   55.99   17.10
  -5   7  15   64.69   15.00
  -5  -7 -15  112.19   20.40
  -5  -7  15   57.09   14.80
   5  -7 -15   74.59   16.50
   0  -8 -15   29.60   14.70
  -2  -8 -15   20.80   14.60
  -2   8  15   19.30   12.00
   2  -8 -15   25.10   13.90
  -2  -8  15   10.70   10.60
  -4  -8 -15   30.20   15.30
  -4   8  15   24.80   12.20
   4  -8 -15   28.70   13.50
  -4  -8  15   27.70   12.50
  -1  -9 -15   38.10   16.10
   1  -9 -15   72.99   16.20
  -3   9  15   80.99   15.40
  -3  -9 -15   34.30   15.80
  -3  -9  15   -0.50   10.60
   3  -9 -15   27.60   14.40
  -5  -9 -15   35.30   16.10
   0 -10 -15   11.30   13.40
  -2  10  15   36.70   16.40
  -2 -10 -15    8.90   13.30
  -2 -10  15   24.50   12.30
   2 -10 -15   45.90   14.70
  -4 -10 -15    6.20   13.30
  -1 -11 -15   17.70   13.00
   1 -11 -15   21.10   15.80
   0   0 -16  181.38   26.10
   2   0 -16   71.99   20.10
  -2   0 -16   56.69   18.90
  -4   0 -16   89.79   21.00
   4   0 -16  120.09   19.80
  -4   0  16   89.49   14.70
  -1  -1 -16   40.00   18.20
   1   1 -16   31.80   18.10
   1  -1 -16   50.99   18.00
  -1   1 -16   29.70   17.50
  -3   1  16   40.00   12.20
  -3  -1 -16   20.90   16.30
   3   1 -16   13.00   15.40
  -3   1 -16   63.39   18.30
   3  -1 -16   32.50   16.30
  -3  -1  16   41.60   12.70
   5   1 -16   40.10   16.30
  -5   1  16   33.60   12.30
  -5  -1  16   44.50   12.40
   5  -1 -16   24.10   14.50
   0   2 -16  141.29   23.70
   0  -2 -16   87.29   20.30
   2   2 -16   85.29   20.40
  -2  -2 -16   66.19   18.70
   2  -2 -16   62.59   18.50
  -2   2 -16  145.19   22.90
  -4  -2 -16  106.69   20.80
  -4   2  16   67.09   14.40
   4   2 -16  119.09   21.20
   4  -2 -16  125.09   20.40
  -4  -2  16   96.09   15.30
  -1  -3 -16  -10.80   14.70
   1   3 -16   45.40   19.20
   1  -3 -16   42.60   16.60
  -1   3 -16   48.20   18.00
   3   3 -16   19.90   15.90
  -3  -3 -16    8.00   16.80
  -3   3  16   37.60   12.30
   3  -3 -16   16.10   15.00
  -3  -3  16   39.80   12.40
   5   3 -16   13.90   15.10
  -5   3  16    9.60   15.40
   5  -3 -16   45.90   15.50
  -5  -3  16   27.10   16.70
   0  -4 -16   99.69   19.60
   0   4 -16  156.28   27.90
   2   4 -16   92.49   20.30
  -2  -4 -16   29.60   17.10
   2  -4 -16   67.49   17.80
   4   4 -16   98.29   19.60
  -4   4  16   74.79   15.00
  -4  -4 -16   93.99   20.20
   4  -4 -16   75.39   17.10
  -4  -4  16   62.99   13.60
  -1  -5 -16   30.30   16.60
   1  -5 -16   10.40   14.00
  -3  -5 -16   -5.40   14.20
  -3   5  16   25.80   12.80
   3   5 -16   23.00   16.40
   3  -5 -16   37.50   14.90
  -3  -5  16   12.50   11.50
   0  -6 -16   73.99   18.00
  -2  -6 -16   53.99   17.50
   2  -6 -16   27.50   14.40
  -1  -7 -16   58.29   16.70
   1  -7 -16   10.80   13.20
  -3  -7 -16    4.10   15.90
   0  -8 -16   58.99   19.10

_computing_structure_solution     'SHELXT 2014/4 (Sheldrick, 2014)'
;
_shelx_hkl_checksum              21633
loop_
_space_group_symop_operation_xyz
'x, y, z'
'-x, -y, z'
'-x, y, -z'
'x, -y, -z'
'x+1/2, y+1/2, z'
'-x+1/2, -y+1/2, z'
'-x+1/2, y+1/2, -z'
'x+1/2, -y+1/2, -z'
'-x, -y, -z'
'x, y, -z'
'x, -y, z'
'-x, y, z'
'-x+1/2, -y+1/2, -z'
'x+1/2, y+1/2, -z'
'x+1/2, -y+1/2, z'
'-x+1/2, y+1/2, z'
loop_
_atom_site_label
_atom_site_type_symbol
_atom_site_fract_x
_atom_site_fract_y
_atom_site_fract_z
_atom_site_U_iso_or_equiv
_atom_site_adp_type
_atom_site_occupancy
_atom_site_site_symmetry_order
_atom_site_calc_flag
_atom_site_refinement_flags_posn
_atom_site_refinement_flags_adp
_atom_site_refinement_flags_occupancy
Pt1 Pt 0.5000 0.5000 0.5000 0.01489(7) Uani 1 8 d S T P
Br1 Br 0.5000 0.73372(5) 0.5000 0.03564(12) Uani 1 4 d S T P
Cu1 Cu 0.0000 0.5000 0.0000 0.01728(12) Uani 1 8 d S T P
O1 O 0.0000 0.2729(6) 0.0000 0.077(3) Uani 1 4 d S T P
N1 N 0.1923(4) 0.5000 0.1940(3) 0.0258(5) Uani 1 2 d S T P
C1 C 0.3052(4) 0.5000 0.3045(4) 0.0215(5) Uani 1 2 d S T P
loop_
_atom_site_aniso_label
_atom_site_aniso_U_11
_atom_site_aniso_U_22
_atom_site_aniso_U_33
_atom_site_aniso_U_23
_atom_site_aniso_U_13
_atom_site_aniso_U_12
Pt1 0.00783(8) 0.02856(11) 0.00828(8) 0.000 0.000 0.000
Br1 0.0264(2) 0.0307(2) 0.0498(3) 0.000 0.000 0.000
Cu1 0.0084(2) 0.0355(3) 0.0079(2) 0.000 0.000 0.000
O1 0.140(9) 0.037(3) 0.052(3) 0.000 0.000 0.000
N1 0.0157(9) 0.0469(15) 0.0148(8) 0.000 -0.0038(7) 0.000
C1 0.0127(9) 0.0381(14) 0.0138(9) 0.000 -0.0013(7) 0.000
loop_
_atom_type_symbol
_atom_type_description
_atom_type_scat_dispersion_real
_atom_type_scat_dispersion_imag
_atom_type_scat_source
C C 0.0033 0.0016 'International Tables Vol C Tables 4.2.6.8 and 6.1.1.4'
H H 0.0000 0.0000 'International Tables Vol C Tables 4.2.6.8 and 6.1.1.4'
N N 0.0061 0.0033 'International Tables Vol C Tables 4.2.6.8 and 6.1.1.4'
O O 0.0106 0.0060 'International Tables Vol C Tables 4.2.6.8 and 6.1.1.4'
Cu Cu 0.3201 1.2651 'International Tables Vol C Tables 4.2.6.8 and 6.1.1.4'
Br Br -0.2901 2.4595 'International Tables Vol C Tables 4.2.6.8 and 6.1.1.4'
Pt Pt -1.7033 8.3905 'International Tables Vol C Tables 4.2.6.8 and 6.1.1.4'
loop_
_citation_id
_citation_doi
_citation_year
1 10.1021/acs.inorgchem.7b00596 2017
loop_
_geom_angle_atom_site_label_1
_geom_angle_atom_site_label_2
_geom_angle_atom_site_label_3
_geom_angle
_geom_angle_site_symmetry_1
_geom_angle_site_symmetry_3
C1 Pt1 C1 91.12(15) 9_666 10_556
C1 Pt1 C1 88.88(15) 9_666 2_665
C1 Pt1 C1 180.0 10_556 2_665
C1 Pt1 C1 180.0 9_666 .
C1 Pt1 C1 88.88(15) 10_556 .
C1 Pt1 C1 91.12(15) 2_665 .
C1 Pt1 Br1 90.0 9_666 9_666
C1 Pt1 Br1 90.0 10_556 9_666
C1 Pt1 Br1 90.0 2_665 9_666
C1 Pt1 Br1 90.0 . 9_666
C1 Pt1 Br1 90.0 9_666 .
C1 Pt1 Br1 90.0 10_556 .
C1 Pt1 Br1 90.0 2_665 .
C1 Pt1 Br1 90.0 . .
Br1 Pt1 Br1 180.0 9_666 .
Pt1 Br1 Br1 95.374(17) . 6_665
N1 Cu1 N1 180.0 . 9_565
N1 Cu1 N1 89.17(16) . 10
N1 Cu1 N1 90.83(15) 9_565 10
N1 Cu1 N1 90.83(15) . 2_565
N1 Cu1 N1 89.17(16) 9_565 2_565
N1 Cu1 N1 180.0 10 2_565
N1 Cu1 O1 90.0 . 9_565
N1 Cu1 O1 90.0 9_565 9_565
N1 Cu1 O1 90.0 10 9_565
N1 Cu1 O1 90.0 2_565 9_565
N1 Cu1 O1 90.0 . .
N1 Cu1 O1 90.0 9_565 .
N1 Cu1 O1 90.0 10 .
N1 Cu1 O1 90.0 2_565 .
O1 Cu1 O1 180.0 9_565 .
Cu1 O1 O1 97.55(19) . 6
C1 N1 Cu1 179.2(3) . .
N1 C1 Pt1 179.3(3) . .
loop_
_geom_bond_atom_site_label_1
_geom_bond_atom_site_label_2
_geom_bond_distance
_geom_bond_site_symmetry_2
Pt1 C1 2.000(3) 9_666
Pt1 C1 2.000(3) 10_556
Pt1 C1 2.000(3) 2_665
Pt1 C1 2.000(3) .
Pt1 Br1 2.4742(6) 9_666
Pt1 Br1 2.4742(6) .
Br1 Br1 3.67993(12) 6_665
Cu1 N1 1.979(2) .
Cu1 N1 1.979(2) 9_565
Cu1 N1 1.979(2) 10
Cu1 N1 1.979(2) 2_565
Cu1 O1 2.404(6) 9_565
Cu1 O1 2.404(6) .
O1 O1 3.6958(16) 6
N1 C1 1.145(4) .
