#------------------------------------------------------------------------------
#$Date: 2019-08-30 03:10:31 +0300 (Fri, 30 Aug 2019) $
#$Revision: 217848 $
#$URL: file:///home/coder/svn-repositories/cod/cif/7/12/40/7124081.cif $
#------------------------------------------------------------------------------
#
# This file is available in the Crystallography Open Database (COD),
# http://www.crystallography.net/
#
# All data on this site have been placed in the public domain by the
# contributors.
#
data_7124081
loop_
_publ_author_name
'Li, Chen'
'Wang, Ting'
'Li, Ni'
'Li, Min'
'Li, Yuntao'
'Sun, Yan'
'Tian, Yang'
'Zhu, Junru'
'Wu, Yiqian'
'Zhang, Dazhi'
'Cui, Xiaoyan'
_publ_section_title
;
 Si-coumarin of hydrogen-bonding induced bathochromic effect for
 monitoring adipogenic differentiation
;
_journal_name_full               'Chemical Communications'
_journal_paper_doi               10.1039/C9CC05895H
_journal_year                    2019
_chemical_formula_moiety         'C15 H21 N O Si'
_chemical_formula_sum            'C15 H21 N O Si'
_chemical_formula_weight         259.42
_space_group_crystal_system      monoclinic
_space_group_IT_number           4
_space_group_name_Hall           'P 2yb'
_space_group_name_H-M_alt        'P 1 21 1'
_symmetry_space_group_name_Hall  'P 2yb'
_symmetry_space_group_name_H-M   'P 1 21 1'
_atom_sites_solution_hydrogens   geom
_atom_sites_solution_primary     dual
_audit_creation_date             2019-04-30
_audit_creation_method
;
Olex2 1.2
(compiled 2018.05.29 svn.r3508 for OlexSys, GUI svn.r5506)
;
_cell_angle_alpha                90
_cell_angle_beta                 108.156(2)
_cell_angle_gamma                90
_cell_formula_units_Z            2
_cell_length_a                   9.9331(2)
_cell_length_b                   7.24400(10)
_cell_length_c                   10.5483(2)
_cell_measurement_reflns_used    11548
_cell_measurement_temperature    100.00(10)
_cell_measurement_theta_max      74.0820
_cell_measurement_theta_min      5.3220
_cell_volume                     721.22(2)
_computing_cell_refinement       'CrysAlisPro 1.171.39.32a (Rigaku OD, 2017)'
_computing_data_collection       'CrysAlisPro 1.171.39.32a (Rigaku OD, 2017)'
_computing_data_reduction        'CrysAlisPro 1.171.39.32a (Rigaku OD, 2017)'
_computing_molecular_graphics    'Olex2 (Dolomanov et al., 2009)'
_computing_publication_material  'Olex2 (Dolomanov et al., 2009)'
_computing_structure_refinement  'ShelXL (Sheldrick, 2015)'
_computing_structure_solution    'ShelXT (Sheldrick, 2015)'
_diffrn_ambient_environment      N~2~
_diffrn_ambient_temperature      100.00(10)
_diffrn_detector                 'CCD plate'
_diffrn_measured_fraction_theta_full 0.999
_diffrn_measured_fraction_theta_max 0.991
_diffrn_measurement_details
;
List of Runs (angles in degrees, time in seconds):

  # Type    Start    End  Width  t~exp~   \w     \q     \k     \f   Frames
--------------------------------------------------------------------------
  1  \w     28.00  78.00   1.00    1.00    --    0.00  38.00 120.00   50
  2  \w    -55.00  -9.00   1.00    1.00    --    0.00 -57.00-180.00   46
  3  \w     -7.00  25.00   1.00    1.00    --    0.00  38.00 -60.00   32
  4  \w    -33.00  -7.00   1.00    1.00    --    0.00 -82.00 -90.00   26
  5  \w    -19.00  28.00   1.00    1.00    --    0.00  38.00 -90.00   47
  6  \w      3.00  31.00   1.00    1.00    --    0.00 -82.00 -90.00   28
  7  \w    -84.00 -59.00   1.00    1.00    --    0.00 -57.00-180.00   25
  8  \w     29.00  88.00   1.00    1.00    --    0.00  38.00 -60.00   59
  9  \w     53.00  87.00   1.00    1.00    --    0.00  38.00  60.00   34
 10  \w    -86.00 -17.00   1.00    1.00    --    0.00 -82.00   0.00   69
 11  \w     -4.00  21.00   1.00    1.00    --    0.00 -57.00-180.00   25
 12  \w    -17.00  20.00   1.00    1.00    --    0.00  38.00  60.00   37
 13  \w    -37.00   0.00   1.00    1.00    --    0.00 -38.00  90.00   37
 14  \w    -88.00 -54.00   1.00    1.00    --    0.00 -38.00  90.00   34
 15  \w    -17.00  21.00   1.00    1.00    --    0.00  38.00 120.00   38
 16  \w     53.00 128.00   1.00    1.00    --   95.80 -82.00-150.00   75
 17  \w    124.00 163.00   1.00    1.00    --   95.80  45.00  90.00   39
 18  \w    160.00 185.00   1.00    1.00    --   95.80  77.00-150.00   25
 19  \w     76.00 118.00   1.00    1.00    --   95.80  45.00  90.00   42
 20  \w     65.00  91.00   1.00    1.00    --   95.80  77.00-120.00   26
 21  \w     65.00  91.00   1.00    1.00    --   95.80  77.00-150.00   26
 22  \w     76.00 146.00   1.00    1.00    --   95.80  45.00 -60.00   70
 23  \w    126.00 170.00   1.00    1.00    --   95.80  82.00   0.00   44
 24  \w     65.00  91.00   1.00    1.00    --   95.80  77.00 -60.00   26
 25  \w    112.00 181.00   1.00    1.00    --   95.80  77.00 -60.00   69
 26  \w     66.00  91.00   1.00    1.00    --   95.80  77.00 150.00   25
 27  \w     63.00  91.00   1.00    1.00    --   95.80  82.00 -30.00   28
 28  \w    128.00 181.00   1.00    1.00    --   95.80  82.00 -30.00   53
 29  \w     86.00 127.00   1.00    1.00    --   95.80 -82.00 120.00   41
 30  \w     77.00 184.00   1.00    1.00    --   95.80  45.00-150.00  107
 31  \w     64.00  90.00   1.00    1.00    --   95.80  82.00   0.00   26
 32  \w    160.00 185.00   1.00    1.00    --   95.80  82.00  60.00   25
 33  \w     73.00  99.00   1.00    1.00    --   95.80  61.00-180.00   26
 34  \w     66.00  93.00   1.00    1.00    --   95.80  82.00  60.00   27
 35  \w     75.00 168.00   1.00    1.00    --   95.80  45.00 -90.00   93
 36  \w     72.00 154.00   1.00    1.00    --   95.80  61.00 -30.00   82
 37  \w     74.00 100.00   1.00    1.00    --   95.80  61.00 150.00   26
 38  \w     76.00 173.00   1.00    1.00    --   95.80  45.00-180.00   97
 39  \w     65.00  91.00   1.00    1.00    --   95.80  82.00 -90.00   26
 40  \w     65.00  90.00   1.00    1.00    --   95.80  77.00-180.00   25
 41  \w     63.00  89.00   1.00    1.00    --   95.80  82.00-180.00   26
 42  \w     65.00  90.00   1.00    1.00    --   95.80  77.00 120.00   25
 43  \w    120.00 166.00   1.00    1.00    --   95.80  77.00  60.00   46
 44  \w     76.00 103.00   1.00    1.00    --   95.80  45.00 120.00   27
 45  \w     12.00 101.00   1.00    1.00    --   95.80 -61.00 -30.00   89
 46  \w     65.00  91.00   1.00    1.00    --   95.80  77.00  30.00   26
 47  \w     65.00  91.00   1.00    1.00    --   95.80  77.00  60.00   26
 48  \w     75.00 101.00   1.00    1.00    --   95.80  45.00 -30.00   26
 49  \w     76.00 118.00   1.00    1.00    --   95.80  45.00  30.00   42
 50  \w     75.00 123.00   1.00    1.00    --   95.80  45.00 150.00   48
 51  \w     58.00 119.00   1.00    1.00    --   95.80 -82.00  60.00   61
 52  \w     76.00 157.00   1.00    1.00    --   95.80  45.00-120.00   81
 53  \w     65.00  91.00   1.00    1.00    --   95.80  77.00 -90.00   26
 54  \w     74.00 117.00   1.00    1.00    --   95.80  61.00  60.00   43
 55  \w    154.00 179.00   1.00    1.00    --   95.80  45.00 -60.00   25
 56  \w     63.00  88.00   1.00    1.00    --   95.80  82.00  90.00   25
 57  \w     12.00 124.00   1.00    1.00    --   95.80 -82.00 -30.00  112
 58  \w     33.00  63.00   1.00    1.00    --   95.80 -82.00 120.00   30
 59  \w    104.00 180.00   1.00    1.00    --   95.80  78.00  16.81   76
 60  \w     65.00  91.00   1.00    1.00    --   95.80  78.00  16.81   26
;
_diffrn_measurement_device       'four-circle diffractometer'
_diffrn_measurement_device_type  'XtaLAB AFC12 (RINC): Kappa dual home/near'
_diffrn_measurement_method       '\w scans'
_diffrn_orient_matrix_type
'CrysAlisPro convention (1999,Acta A55,543-557)'
_diffrn_orient_matrix_UB_11      -0.0354644000
_diffrn_orient_matrix_UB_12      -0.0217572000
_diffrn_orient_matrix_UB_13      0.1313431000
_diffrn_orient_matrix_UB_21      0.1504200000
_diffrn_orient_matrix_UB_22      0.0651416000
_diffrn_orient_matrix_UB_23      0.0790202000
_diffrn_orient_matrix_UB_31      -0.0525699000
_diffrn_orient_matrix_UB_32      0.2012647000
_diffrn_orient_matrix_UB_33      -0.0113143000
_diffrn_radiation_monochromator  graphite
_diffrn_radiation_probe          x-ray
_diffrn_radiation_type           CuK\a
_diffrn_radiation_wavelength     1.54184
_diffrn_reflns_av_R_equivalents  0.0841
_diffrn_reflns_av_unetI/netI     0.0426
_diffrn_reflns_Laue_measured_fraction_full 0.999
_diffrn_reflns_Laue_measured_fraction_max 0.991
_diffrn_reflns_limit_h_max       12
_diffrn_reflns_limit_h_min       -12
_diffrn_reflns_limit_k_max       8
_diffrn_reflns_limit_k_min       -8
_diffrn_reflns_limit_l_max       13
_diffrn_reflns_limit_l_min       -13
_diffrn_reflns_number            13777
_diffrn_reflns_point_group_measured_fraction_full 0.974
_diffrn_reflns_point_group_measured_fraction_max 0.959
_diffrn_reflns_theta_full        67.684
_diffrn_reflns_theta_max         74.386
_diffrn_reflns_theta_min         4.411
_diffrn_source                   'fine-focus sealed X-ray tube'
_diffrn_source_type              'Enhance (Cu) X-ray Source'
_exptl_absorpt_coefficient_mu    1.334
_exptl_absorpt_correction_T_max  1.00000
_exptl_absorpt_correction_T_min  0.07906
_exptl_absorpt_correction_type   multi-scan
_exptl_absorpt_process_details
;
CrysAlisPro 1.171.39.32a (Rigaku Oxford Diffraction, 2017)
Empirical absorption correction using spherical harmonics,
 implemented in SCALE3 ABSPACK scaling algorithm.
;
_exptl_crystal_colour            'clear light yellow'
_exptl_crystal_colour_lustre     clear
_exptl_crystal_colour_modifier   light
_exptl_crystal_colour_primary    yellow
_exptl_crystal_density_diffrn    1.195
_exptl_crystal_description       plate
_exptl_crystal_F_000             280
_exptl_crystal_size_max          0.46
_exptl_crystal_size_mid          0.12
_exptl_crystal_size_min          0.09
_refine_diff_density_max         0.342
_refine_diff_density_min         -0.398
_refine_diff_density_rms         0.050
_refine_ls_abs_structure_details
;
 Flack x determined using 1192 quotients [(I+)-(I-)]/[(I+)+(I-)]
 (Parsons, Flack and Wagner, Acta Cryst. B69 (2013) 249-259).
;
_refine_ls_abs_structure_Flack   0.04(2)
_refine_ls_extinction_coef       0.008(2)
_refine_ls_extinction_expression Fc^*^=kFc[1+0.001xFc^2^\l^3^/sin(2\q)]^-1/4^
_refine_ls_extinction_method     'SHELXL-2016/6 (Sheldrick 2016)'
_refine_ls_goodness_of_fit_ref   1.073
_refine_ls_hydrogen_treatment    constr
_refine_ls_matrix_type           full
_refine_ls_number_parameters     168
_refine_ls_number_reflns         2822
_refine_ls_number_restraints     1
_refine_ls_restrained_S_all      1.073
_refine_ls_R_factor_all          0.0397
_refine_ls_R_factor_gt           0.0394
_refine_ls_shift/su_max          0.000
_refine_ls_shift/su_mean         0.000
_refine_ls_structure_factor_coef Fsqd
_refine_ls_weighting_details
'w=1/[\s^2^(Fo^2^)+(0.0730P)^2^+0.0880P] where P=(Fo^2^+2Fc^2^)/3'
_refine_ls_weighting_scheme      calc
_refine_ls_wR_factor_gt          0.1052
_refine_ls_wR_factor_ref         0.1054
_reflns_Friedel_coverage         0.785
_reflns_Friedel_fraction_full    0.945
_reflns_Friedel_fraction_max     0.920
_reflns_number_gt                2774
_reflns_number_total             2822
_reflns_threshold_expression     'I > 2\s(I)'
_cod_data_source_file            c9cc05895h3.cif
_cod_data_source_block           exp_796
_cod_database_code               7124081
_shelx_shelxl_version_number     2016/6
_shelx_space_group_comment
;
The symmetry employed for this shelxl refinement is uniquely defined
by the following loop, which should always be used as a source of
symmetry information in preference to the above space-group names.
They are only intended as comments.
;
_reflns_odcompleteness_completeness 100.00
_reflns_odcompleteness_iscentric 1
_reflns_odcompleteness_theta     66.97
_olex2_refinement_description
;
1. Fixed Uiso
 At 1.2 times of:
  All C(H) groups, All C(H,H) groups
 At 1.5 times of:
  All C(H,H,H) groups
2.a Secondary CH2 refined with riding coordinates:
 C12(H12A,H12B), C14(H14A,H14B)
2.b Aromatic/amide H refined with riding coordinates:
 C2(H2), C4(H4), C5(H5), C7(H7), C8(H8)
2.c Idealised Me refined as rotating group:
 C10(H10A,H10B,H10C), C11(H11A,H11B,H11C), C13(H13A,H13B,H13C), C15(H15A,H15B,
 H15C)
;
_shelx_res_file
;
TITL exp_796_a.res in P2(1)
    exp_796.res
    created by SHELXL-2016/6 at 09:45:29 on 30-Apr-2019
REM Old TITL exp_796 in P2(1)
REM SHELXT solution in P2(1)
REM R1 0.083, Rweak 0.028, Alpha 0.002, Orientation as input
REM Flack x = 0.049 ( 0.026 ) from Parsons' quotients
REM Formula found by SHELXT: C15 N O Si
CELL 1.54184 9.9331 7.244 10.5483 90 108.156 90
ZERR 2 0.0002 0.0001 0.0002 0 0.002 0
LATT -1
SYMM -X,0.5+Y,-Z
SFAC C H N O Si
UNIT 30 42 2 2 2

L.S. 64
PLAN  6
BOND $H
list 4
fmap 2 53
ACTA
OMIT -5 0 5
OMIT 3 0 3
OMIT 10 4 1
OMIT 0 -8 3
OMIT 1 -8 3
OMIT -8 -5 9
OMIT 10 3 2
OMIT -2 -5 6
OMIT -4 -6 6
OMIT 10 2 3
OMIT -11 -1 9
OMIT 0 -8 5
OMIT -2 -1 4
OMIT -3 -4 1
OMIT -2 -7 4
REM <olex2.extras>
REM <HklSrc "%.\\exp_796.hkl">
REM </olex2.extras>

WGHT    0.073000    0.088000
EXTI    0.007881
FVAR       1.29129
SI1   5    0.583618    0.561410    0.211158    11.00000    0.01445    0.01546 =
         0.01586   -0.00043    0.00630   -0.00190
O1    4    0.312316    0.543823    0.033956    11.00000    0.02235    0.03549 =
         0.03157    0.00377   -0.00121   -0.00248
N1    3    0.964553    0.432472    0.677251    11.00000    0.01772    0.02502 =
         0.01776    0.00046    0.00594    0.00195
C1    1    0.651092    0.431217    0.372139    11.00000    0.01720    0.01254 =
         0.01884   -0.00109    0.01156    0.00142
C2    1    0.779024    0.479061    0.465040    11.00000    0.01680    0.01666 =
         0.01736   -0.00124    0.01057   -0.00096
AFIX  43
H2    2    0.829285    0.578263    0.446482    11.00000   -1.20000
AFIX   0
C3    1    0.836835    0.382840    0.587710    11.00000    0.01774    0.01980 =
         0.01897   -0.00257    0.01084    0.00308
C4    1    0.756388    0.233223    0.610561    11.00000    0.02625    0.01823 =
         0.01782    0.00358    0.01181    0.00337
AFIX  43
H4    2    0.790240    0.164948    0.688738    11.00000   -1.20000
AFIX   0
C5    1    0.628459    0.186754    0.518821    11.00000    0.02352    0.01649 =
         0.02469    0.00048    0.01639   -0.00166
AFIX  43
H5    2    0.578455    0.087019    0.537011    11.00000   -1.20000
AFIX   0
C6    1    0.570450    0.284077    0.398775    11.00000    0.01836    0.01352 =
         0.02090   -0.00363    0.01248    0.00063
C7    1    0.430248    0.233480    0.313128    11.00000    0.02067    0.01584 =
         0.02758   -0.00539    0.01572   -0.00552
AFIX  43
H7    2    0.390278    0.130633    0.340200    11.00000   -1.20000
AFIX   0
C8    1    0.349266    0.315212    0.199047    11.00000    0.01404    0.02561 =
         0.02568   -0.00735    0.00969   -0.00595
AFIX  43
H8    2    0.259320    0.267243    0.158145    11.00000   -1.20000
AFIX   0
C9    1    0.393820    0.473023    0.136406    11.00000    0.01485    0.02258 =
         0.02228   -0.00366    0.00599   -0.00156
C10   1    0.681289    0.494229    0.093687    11.00000    0.02097    0.02513 =
         0.01878    0.00001    0.00828   -0.00511
AFIX 137
H10A  2    0.779447    0.526424    0.131415    11.00000   -1.50000
H10B  2    0.641938    0.558126    0.010604    11.00000   -1.50000
H10C  2    0.672871    0.363477    0.078439    11.00000   -1.50000
AFIX   0
C11   1    0.588374    0.813895    0.241497    11.00000    0.02912    0.01937 =
         0.02413    0.00079    0.00892   -0.00230
AFIX 137
H11A  2    0.524898    0.844195    0.290871    11.00000   -1.50000
H11B  2    0.559761    0.877947    0.157653    11.00000   -1.50000
H11C  2    0.682923    0.850218    0.291670    11.00000   -1.50000
AFIX   0
C12   1    1.037426    0.600361    0.657975    11.00000    0.01493    0.03052 =
         0.02177   -0.00231    0.00799   -0.00264
AFIX  23
H12A  2    1.042772    0.600514    0.567711    11.00000   -1.20000
H12B  2    1.133640    0.597271    0.718455    11.00000   -1.20000
AFIX   0
C13   1    0.967936    0.779547    0.680538    11.00000    0.02374    0.02508 =
         0.02428   -0.00297    0.01238   -0.00514
AFIX 137
H13A  2    0.869543    0.778318    0.628628    11.00000   -1.50000
H13B  2    1.013994    0.882159    0.653821    11.00000   -1.50000
H13C  2    0.976478    0.791092    0.773386    11.00000   -1.50000
AFIX   0
C14   1    1.011620    0.347620    0.810364    11.00000    0.02359    0.02692 =
         0.01957    0.00218    0.00391    0.00719
AFIX  23
H14A  2    1.111514    0.374106    0.851335    11.00000   -1.20000
H14B  2    1.001440    0.214768    0.800357    11.00000   -1.20000
AFIX   0
C15   1    0.931629    0.412467    0.903432    11.00000    0.04010    0.02766 =
         0.02026    0.00437    0.01131    0.00826
AFIX 137
H15A  2    0.831681    0.398222    0.860357    11.00000   -1.50000
H15B  2    0.952743    0.540112    0.925176    11.00000   -1.50000
H15C  2    0.959848    0.340100    0.983653    11.00000   -1.50000
AFIX   0
HKLF 4




REM  exp_796_a.res in P2(1)
REM R1 =  0.0394 for    2774 Fo > 4sig(Fo)  and  0.0397 for all    2822 data
REM    168 parameters refined using      1 restraints

END

WGHT      0.0731      0.0880

REM Highest difference peak  0.342,  deepest hole -0.398,  1-sigma level  0.050
Q1    1   0.4846  0.5389  0.1730  11.00000  0.05    0.34
Q2    1   0.6369  0.5641  0.1041  11.00000  0.05    0.30
Q3    1   0.5233  0.5532  0.3203  11.00000  0.05    0.24
Q4    1   0.6331  0.5455  0.3002  11.00000  0.05    0.23
Q5    1   0.3871  0.3929  0.1751  11.00000  0.05    0.20
Q6    1   0.5025  0.2769  0.3542  11.00000  0.05    0.20
;
_shelx_res_checksum              94800
_shelx_hkl_file
;
   0  -8  -3   49.04    3.94
   0  -8  -4  117.05    5.98
   0  -8  -4   78.21    4.79
   0  -8   5   66.93    7.22
   0  -8  -5   75.36    4.26
   0  -7  -5   18.01    2.87
   0  -7  -6  544.28   17.90
   0  -7   6  552.79   26.96
   0  -7  -7   64.30    4.55
   0  -7  -7   65.22    4.81
   0  -7  -7   79.40    5.24
   0  -6  -4  255.81   11.34
   0  -6  -5  221.24   11.01
   0  -6   5  333.66   15.01
   0  -6   6    7.99    3.70
   0  -6   6    4.56    2.93
   0  -6  -6    8.60    2.06
   0  -6   7   84.62   11.69
   0  -6  -7   53.31    4.57
   0  -6   7   79.00   12.06
   0  -6  -7   65.43    6.19
   0  -6   8   62.79   10.02
   0  -6  -8   37.63    4.34
   0  -6  -8   42.10    4.24
   0  -6  -8   46.34    4.28
   0  -6   8   68.73   11.17
   0  -6   9   15.29   11.08
   0  -6   9   14.72    4.95
   0  -6  -9   15.75    1.93
   0  -6  -9   17.69    2.24
   0  -6  -9   15.41    2.45
   0  -6  -9   17.24    2.44
   0  -5  -5   96.12    6.19
   0  -5  -6  546.14   20.02
   0  -5  -6  525.23   19.10
   0  -5   6  568.64   29.14
   0  -5   6  593.34   22.30
   0  -5   7    6.48    4.09
   0  -5   7   10.42    5.48
   0  -5   7    9.49    4.68
   0  -5  -7    8.47    2.16
   0  -5  -7    9.35    2.39
   0  -5   7    8.48    5.54
   0  -5   8  123.45   15.17
   0  -5   8  119.63   14.24
   0  -5   8   83.60   12.51
   0  -5  -8   77.28    7.43
   0  -5  -8   71.82    5.96
   0  -5   8   84.84   10.83
   0  -5  -8   90.77    7.28
   0  -5   9   90.96   12.59
   0  -5  -9   47.65    4.28
   0  -5   9   67.04   10.72
   0  -5   9   79.45   12.40
   0  -5   9   36.03   15.21
   0  -5  -9   49.93    4.69
   0  -5 -10   72.21    5.61
   0  -5  10   60.67   16.23
   0  -5 -10   67.08    5.07
   0  -5 -10   61.28    4.73
   0  -5 -10   59.80    3.87
   0  -4   0  743.56   23.94
   0  -4   0  565.80   18.25
   0  -4   1  431.71   16.63
   0  -4  -1  612.18   20.95
   0  -4   1  567.42   17.03
   0  -4   1  686.36   18.95
   0  -4  -1  305.81   21.63
   0  -4  -1  530.46   16.12
   0  -4  -1  517.98   20.94
   0  -4   1  574.91   26.80
   0  -4   2  547.15   21.25
   0  -4   2  686.25   30.99
   0  -4   2  763.87   24.86
   0  -4  -2  688.05   26.65
   0  -4   2  667.01   23.32
   0  -4  -2  828.34   22.66
   0  -4   3   82.50    7.55
   0  -4  -3   82.96    6.06
   0  -4   3   68.83    6.54
   0  -4   3   80.36    9.57
   0  -4   3   60.78    5.65
   0  -4   3   93.19    6.33
   0  -4  -5 1336.59   37.63
   0  -4  -5 1374.80   37.25
   0  -4   5 1234.40   45.68
   0  -4  -5 1305.22   39.15
   0  -4  -6   35.57    3.86
   0  -4   6   31.72    6.26
   0  -4   6   39.86    4.57
   0  -4   6   23.38    5.32
   0  -4  -6   29.37    4.13
   0  -4  -6   34.90    3.69
   0  -4  -6   34.51    4.13
   0  -4   7  246.99   18.09
   0  -4  -7  203.04   11.75
   0  -4   7  251.53   19.00
   0  -4  -7  208.19   10.32
   0  -4  -7  220.17   10.88
   0  -4   7  209.48   18.00
   0  -4  -7  230.41   11.48
   0  -4  -8  102.79    7.32
   0  -4   8  160.49   16.70
   0  -4   8  144.18   14.31
   0  -4   8  158.64   15.75
   0  -4  -8  103.07    8.13
   0  -4  -8  110.75    7.99
   0  -4   8  130.59   16.34
   0  -4  -9   88.28    6.88
   0  -4  -9   71.26    6.38
   0  -4  -9   93.11    7.96
   0  -4   9  119.24   14.83
   0  -4   9   59.56   16.97
   0  -4   9  127.08   16.35
   0  -4  -9   87.95    6.44
   0  -4   9  124.43   14.44
   0  -4  10   90.65   15.17
   0  -4  10   94.85   13.43
   0  -4 -10   43.00    3.85
   0  -4 -10   49.02    5.08
   0  -4  10   36.21   13.97
   0  -4 -11   47.03    3.71
   0  -4 -11   48.52    4.04
   0  -4 -11   49.56    4.43
   0  -3   0    0.79    1.30
   0  -3   0    2.51    1.80
   0  -3   0    1.10    0.39
   0  -3   0    0.14    0.48
   0  -3   0    0.05    0.73
   0  -3   1 2296.62   58.81
   0  -3  -1 2426.83   61.97
   0  -3  -1 2508.11   58.56
   0  -3   1 2421.57   59.51
   0  -3   1 2144.71   65.42
   0  -3  -1 2139.92   61.38
   0  -3   1 2092.50   60.91
   0  -3   2  847.14   29.65
   0  -3   2  823.78   27.29
   0  -3  -2  823.95   23.90
   0  -3   2  861.07   23.50
   0  -3  -3  163.91    8.25
   0  -3   3  205.58   13.17
   0  -3  -3  171.21    9.54
   0  -3   3  173.25   10.04
   0  -3   3  165.74    7.66
   0  -3  -3  191.08    6.16
   0  -3   3  193.50   11.70
   0  -3   4   21.75    3.64
   0  -3  -4   37.65    3.86
   0  -3   4   25.10    4.21
   0  -3  -4   34.67    3.33
   0  -3   4   28.42    2.46
   0  -3  -4   24.68    3.62
   0  -3   4   31.90    4.91
   0  -3  -5  196.23    9.88
   0  -3  -5  184.32    8.50
   0  -3   5  175.10   12.38
   0  -3  -6   94.27    6.14
   0  -3   6   84.23    9.00
   0  -3  -6   89.19    6.04
   0  -3  -6  101.28    6.61
   0  -3   6   96.18    6.74
   0  -3   7  183.22   15.88
   0  -3   7  204.92   15.84
   0  -3  -7  183.07    9.80
   0  -3  -7  189.62   11.19
   0  -3   7  157.02   14.77
   0  -3  -7  180.06    9.58
   0  -3   7  188.47   14.85
   0  -3   8   54.87    9.28
   0  -3   8   68.10   11.79
   0  -3  -8   69.11    6.86
   0  -3   8   91.55   12.38
   0  -3  -8   69.22    6.07
   0  -3   8   87.70   11.51
   0  -3   8   80.62   10.43
   0  -3  -9  699.10   25.76
   0  -3  -9  608.63   21.18
   0  -3   9  572.64   32.75
   0  -3   9  723.33   35.69
   0  -3  -9  538.01   23.05
   0  -3  -9  636.98   22.43
   0  -3  -9  528.63   21.71
   0  -3   9  349.18   37.10
   0  -3   9  796.74   41.90
   0  -3   9  730.23   37.15
   0  -3  10  249.21   29.40
   0  -3 -10  406.52   17.67
   0  -3 -11   83.09    6.17
   0  -3 -11   92.21    7.60
   0  -3  11  157.44   16.98
   0  -3 -11   74.38    5.47
   0  -3  11  141.24   15.25
   0  -2   0 1608.50   46.67
   0  -2   0 1684.96   42.64
   0  -2   0 1547.23   45.96
   0  -2  -1 2157.33   52.95
   0  -2   1 2171.95   55.62
   0  -2  -1 1952.26   53.09
   0  -2  -1 2088.83   51.58
   0  -2   1 2006.13   51.35
   0  -2   1 1967.21   55.34
   0  -2   1 2181.14   52.02
   0  -2   2  902.11   25.00
   0  -2  -2  813.54   23.74
   0  -2   2  888.68   28.61
   0  -2   3  176.62    6.46
   0  -2   3  192.56   11.04
   0  -2  -3  197.30    8.10
   0  -2   3  164.01    9.13
   0  -2  -3  173.82    5.54
   0  -2  -3  206.71    6.99
   0  -2   3  143.50    5.98
   0  -2  -4  921.91   22.07
   0  -2   4  660.72   22.40
   0  -2   4  748.69   27.21
   0  -2  -4  677.05   20.92
   0  -2   4  800.96   20.58
   0  -2   4  862.71   29.71
   0  -2  -4  824.79   24.02
   0  -2  -5   21.56    2.44
   0  -2   5   15.03    3.29
   0  -2  -5   21.91    2.29
   0  -2   5   23.66    3.85
   0  -2  -5   22.60    2.85
   0  -2   5   19.58    2.43
   0  -2  -5   19.86    2.80
   0  -2  -5   20.59    2.10
   0  -2  -5   21.18    3.12
   0  -2   5   20.46    3.81
   0  -2  -5   22.62    2.51
   0  -2   5   19.04    2.90
   0  -2  -6   63.91    4.78
   0  -2   6   45.79    6.87
   0  -2   6   48.57    6.93
   0  -2  -6   64.39    4.78
   0  -2   6   69.57    7.44
   0  -2   6   66.79    7.54
   0  -2   6   48.02    4.73
   0  -2  -6   64.77    4.87
   0  -2  -6   66.86    5.52
   0  -2   7  237.19   16.35
   0  -2  -7  196.63   10.08
   0  -2  -7  183.33    9.77
   0  -2   7  218.87   15.40
   0  -2   7  190.87   16.09
   0  -2   7  200.59   17.17
   0  -2  -7  215.52   10.54
   0  -2  -7  215.89   11.65
   0  -2   7  225.18   16.87
   0  -2   8    3.52    3.81
   0  -2  -8    1.83    1.45
   0  -2  -8    2.08    1.40
   0  -2   8    3.94    4.96
   0  -2  -8    1.92    1.69
   0  -2   8    0.64    3.60
   0  -2   8    0.48    2.37
   0  -2  -8    1.23    1.89
   0  -2   8   -0.88    8.70
   0  -2  -9  323.45   15.66
   0  -2   9  304.56   23.39
   0  -2  -9  241.46   12.74
   0  -2   9  328.51   23.59
   0  -2  -9  248.96   14.29
   0  -2   9  345.85   26.37
   0  -2 -10   27.16    4.09
   0  -2  10   15.36   10.24
   0  -2  10   29.57    7.25
   0  -2  10   35.43    9.04
   0  -2  10   35.55    8.83
   0  -2 -10   20.89    4.02
   0  -2  11   42.80    7.48
   0  -2  11   52.11    9.61
   0  -2  11   58.12   10.02
   0  -2 -11   37.33    5.34
   0  -2 -12  133.72    7.94
   0  -2 -12  141.41    8.38
   0  -1   0    1.02    1.28
   0  -1   0    0.52    0.62
   0  -1  -1  492.37   13.66
   0  -1   1  468.19   13.20
   0  -1   1  451.29   15.79
   0  -1  -1  496.00   13.96
   0  -1  -2 2039.65   52.27
   0  -1   2 1927.39   50.17
   0  -1  -3  191.82    7.22
   0  -1   3  197.56    6.03
   0  -1   4 1520.97   38.70
   0  -1  -4 1529.73   36.69
   0  -1  -4 1351.97   34.85
   0  -1   4 1235.14   34.59
   0  -1   4 1315.74   41.18
   0  -1  -4 1422.87   37.81
   0  -1   4 1541.05   42.92
   0  -1  -5  964.22   28.34
   0  -1   5  885.25   32.87
   0  -1  -5 1000.67   27.25
   0  -1  -5  827.47   27.93
   0  -1   5  849.06   31.05
   0  -1  -5  911.33   26.99
   0  -1   5  833.77   31.79
   0  -1   5 1060.44   34.25
   0  -1   5 1073.19   31.35
   0  -1  -5  941.23   28.52
   0  -1  -5 1067.60   27.21
   0  -1  -5  953.85   28.08
   0  -1   5  874.79   31.76
   0  -1   5  786.45   31.72
   0  -1  -5 1114.68   25.54
   0  -1   5  726.18   31.29
   0  -1   6  423.10   20.35
   0  -1   6  451.74   21.38
   0  -1   6  372.34   21.63
   0  -1   6  482.68   23.01
   0  -1  -6  449.23   15.32
   0  -1   6  460.10   19.76
   0  -1   6  372.16   20.92
   0  -1  -6  432.53   15.30
   0  -1  -6  425.97   15.06
   0  -1  -6  460.02   16.60
   0  -1  -6  368.22   15.92
   0  -1   7   70.62    9.85
   0  -1   7   47.32   12.16
   0  -1  -7   66.51    5.74
   0  -1  -7   64.96    5.23
   0  -1   7   71.95    9.41
   0  -1  -7   62.90    5.19
   0  -1   7   72.86    8.85
   0  -1   7   70.29    9.24
   0  -1  -8  105.34    7.41
   0  -1   8  117.72   14.02
   0  -1  -8  101.40    7.50
   0  -1  -8   92.20    7.97
   0  -1   8  117.19   13.36
   0  -1  -9   65.57    7.04
   0  -1  -9   77.20    7.53
   0  -1   9   82.94   11.63
   0  -1  -9   64.69    6.35
   0  -1   9   56.30   15.87
   0  -1 -10    4.50    2.44
   0  -1  10    5.37    4.09
   0  -1 -10    4.84    2.83
   0  -1  10    6.16    4.69
   0  -1 -11  458.41   21.65
   0  -1  11  532.37   29.77
   0  -1  11  500.09   28.26
   0  -1 -12   14.39    2.90
   0  -1 -12   14.08    2.69
   0  -1  12   13.99    4.07
   0   0   1  590.41   17.09
   0   0   1  679.25   16.83
   0   0  -2 1354.44   34.99
   0   0  -2 1419.46   34.66
   0   0  -2 1491.41   33.68
   0   0   2 1303.56   36.17
   0   0   2 1192.69   36.10
   0   0  -2 1229.78   37.59
   0   0  -3   23.33    3.19
   0   0  -3   20.97    1.99
   0   0  -3   23.00    1.42
   0   0   3   21.22    2.74
   0   0   3   21.00    2.68
   0   0  -3   22.23    2.08
   0   0  -3   21.00    1.84
   0   0   4  274.07   12.90
   0   0  -4  267.55   10.20
   0   0  -4  303.85    8.93
   0   0  -4  285.77   10.36
   0   0   4  299.17   12.73
   0   0   5  382.42   16.25
   0   0   5  269.89   16.62
   0   0  -5  343.19   12.53
   0   0  -5  380.47   13.17
   0   0   5  403.48   16.10
   0   0   5  210.82   19.50
   0   0  -5  342.86   12.32
   0   0  -5  312.19   13.96
   0   0  -5  407.22   11.25
   0   0  -5  330.34   11.83
   0   0   5  334.78   18.26
   0   0   5  324.64   17.14
   0   0   5  245.48   15.68
   0   0   5  330.33   15.58
   0   0  -5  356.04   12.75
   0   0  -6   89.76    7.08
   0   0  -6   90.15    5.75
   0   0   6   97.67    8.59
   0   0  -6   97.02    5.85
   0   0   6  113.01    9.10
   0   0   6   88.90    9.64
   0   0  -6  103.30    6.22
   0   0   6  104.27   10.64
   0   0  -6  106.15    6.60
   0   0  -6  108.99    7.23
   0   0  -6  113.96    6.97
   0   0   6  104.10   10.46
   0   0   6  104.40   11.15
   0   0  -7  670.38   22.88
   0   0  -7  681.43   23.85
   0   0   7  628.14   31.56
   0   0  -8  104.67    8.25
   0   0   8   92.11   19.31
   0   0  -8  101.69    8.16
   0   0   8  140.81   15.32
   0   0   8  108.42   13.22
   0   0   9  361.07   25.96
   0   0  -9  246.16   14.43
   0   0   9  320.40   24.02
   0   0   9  361.80   25.86
   0   0  -9  345.06   18.18
   0   0  -9  241.63   13.80
   0   0 -10  439.65   20.96
   0   0  10  543.20   32.49
   0   0  10  529.91   31.22
   0   0 -10  487.02   23.91
   0   0  10  481.71   30.61
   0   0  11  137.86   14.46
   0   0  11  140.99   14.19
   0   0 -11  123.98   10.03
   0   0  11  130.04   13.47
   0   0  12   67.04    8.24
   0   0 -12   59.01    5.20
   0   0  12   67.96    7.85
   0   1   0    0.16    0.33
   0   1   0   -0.22    0.74
   0   1   1  450.75   14.75
   0   1  -1  524.71   14.59
   0   1   2 2392.62   56.15
   0   1   2 2317.44   53.74
   0   1   2 2297.28   53.77
   0   1  -3  182.16    6.71
   0   1   3  168.46    7.35
   0   1  -3  190.02    7.55
   0   1  -4 1499.61   36.29
   0   1   4 1249.26   38.79
   0   1   5 1012.47   36.42
   0   1  -5  950.02   27.22
   0   1   5  815.11   34.51
   0   1  -5 1000.24   29.26
   0   1  -5  829.36   29.90
   0   1   5  906.67   30.79
   0   1  -5 1002.87   29.90
   0   1  -5  991.90   29.33
   0   1  -5  991.19   26.31
   0   1   5  697.75   42.63
   0   1   5 1137.78   33.32
   0   1   5  912.85   30.42
   0   1  -5  915.13   27.75
   0   1  -6  444.32   17.92
   0   1   6  448.30   24.66
   0   1  -6  467.13   17.40
   0   1  -6  491.45   14.68
   0   1   6  400.48   23.61
   0   1   6  381.68   18.79
   0   1   6  407.84   34.13
   0   1   6  364.75   22.40
   0   1  -6  414.13   15.45
   0   1  -6  427.77   16.23
   0   1  -6  428.02   17.31
   0   1  -6  456.94   16.97
   0   1   6  332.35   21.99
   0   1  -7   59.31    5.47
   0   1  -7   57.44    5.53
   0   1  -7   62.87    6.39
   0   1   7   74.34   10.56
   0   1   7   57.37    9.27
   0   1   7   65.28   10.12
   0   1  -8  102.84    8.72
   0   1   8  136.24   15.58
   0   1  -8  130.01   11.03
   0   1   8  125.62   14.85
   0   1   8  113.63   14.19
   0   1  -8  102.73    8.21
   0   1   9   91.22   13.25
   0   1   9   87.25   12.73
   0   1  -9   84.44    9.03
   0   1  -9   60.28    6.69
   0   1  -9   86.06    9.06
   0   1  -9   62.06    6.57
   0   1   9   78.06   12.23
   0   1 -10    2.06    1.99
   0   1  10    3.12    4.04
   0   1 -10    1.42    2.03
   0   1  10    2.44    3.70
   0   1  10    4.02    3.88
   0   1 -11  400.17   18.51
   0   1  11  457.69   26.51
   0   1 -11  443.11   21.41
   0   1 -11  387.34   17.99
   0   1  11  456.31   26.11
   0   1  12   14.75    3.73
   0   1  12   11.57    3.36
   0   1 -12   12.14    2.64
   0   2   0 1742.11   39.72
   0   2   0 1474.99   38.52
   0   2  -1 2103.40   55.81
   0   2  -1 2163.83   53.12
   0   2   1 2259.01   54.19
   0   2   1 1969.40   57.08
   0   2   1 2351.43   55.37
   0   2   2  873.44   24.91
   0   2  -2  854.82   25.36
   0   2  -2  891.96   22.59
   0   2  -3  160.64    6.06
   0   2  -3  152.16    8.71
   0   2   3  172.96    8.43
   0   2  -3  176.58    8.32
   0   2   3  171.57    6.85
   0   2  -4  942.22   27.98
   0   2   4  925.58   28.65
   0   2  -4  834.61   21.36
   0   2   4  802.90   30.71
   0   2  -4  746.72   27.10
   0   2  -4  866.63   26.92
   0   2  -4  767.00   23.29
   0   2  -4  865.35   28.88
   0   2   4  839.24   30.79
   0   2   4  844.58   25.63
   0   2  -4  880.37   26.21
   0   2   5   25.72    5.13
   0   2  -5   20.63    3.89
   0   2  -5   37.60    4.80
   0   2   5   41.61    6.45
   0   2  -5   26.09    3.12
   0   2   5   24.43    5.08
   0   2  -5   32.02    4.09
   0   2   5   21.45    4.77
   0   2   5   22.76    4.04
   0   2   5   19.10    6.12
   0   2  -5   31.89    4.30
   0   2   5   34.86    4.91
   0   2  -6   62.60    5.74
   0   2   6   53.28    8.53
   0   2   6   56.14    8.87
   0   2   6   36.64    8.62
   0   2  -6   47.53    4.29
   0   2   6   56.10    8.73
   0   2  -6   61.83    6.74
   0   2  -6   54.55    5.01
   0   2  -6   63.76    6.28
   0   2  -7  249.38   10.49
   0   2  -7  262.82   16.40
   0   2   7  235.66   19.98
   0   2  -7  182.63   10.65
   0   2  -7  231.56   14.51
   0   2  -7  189.68   12.34
   0   2  -7  191.93   11.67
   0   2   7  221.32   19.67
   0   2   8    5.27    4.24
   0   2  -8    2.48    1.45
   0   2   8    2.91    3.57
   0   2  -8    1.19    1.70
   0   2  -8    2.49    2.30
   0   2   8    3.42    4.32
   0   2  -8    1.64    1.74
   0   2  -8    1.29    1.33
   0   2   9  298.21   23.88
   0   2  -9  287.69   17.90
   0   2  -9  242.55   12.93
   0   2   9  309.48   24.96
   0   2  -9  278.89   16.64
   0   2 -10   24.34    4.81
   0   2  10   31.70    7.63
   0   2  10   24.19    7.07
   0   2 -10   24.66    4.39
   0   2 -10   28.37    5.58
   0   2  11   38.90    7.13
   0   2  11   45.80    7.56
   0   2 -11   40.74    5.16
   0   2 -11   36.72    5.28
   0   2  12  128.98    9.52
   0   2 -12  114.45    6.95
   0   3   0    0.43    0.54
   0   3   1 2254.31   58.35
   0   3  -1 2329.94   56.53
   0   3   2  826.47   27.45
   0   3  -2  819.23   26.00
   0   3   2  793.13   24.22
   0   3  -3  202.34    9.58
   0   3  -3  172.21    9.80
   0   3  -3  213.84    9.91
   0   3  -3  245.42   13.21
   0   3   3  204.55   12.25
   0   3  -3  231.44   10.93
   0   3   3  173.61   12.35
   0   3   3  191.12   10.15
   0   3  -3  212.49   11.75
   0   3  -3  189.06   10.57
   0   3   4   18.48    3.45
   0   3   4   23.37    4.51
   0   3  -4   18.79    3.29
   0   3  -4   22.32    4.20
   0   3  -4   18.72    3.34
   0   3  -4   26.72    3.47
   0   3   4   16.97    5.80
   0   3   4   15.58    3.86
   0   3   4   25.23    4.72
   0   3  -4   19.87    3.91
   0   3  -4   27.39    3.73
   0   3   5  178.80   14.63
   0   3  -5  191.75   12.25
   0   3   5  132.43   12.28
   0   3  -5  162.15   10.58
   0   3   5  102.41   15.49
   0   3   5  130.49   12.86
   0   3  -5  196.53   13.53
   0   3  -5  188.22   10.30
   0   3  -5  178.74   11.47
   0   3  -5  170.49   12.57
   0   3  -6   36.78    6.58
   0   3   6   81.47    9.58
   0   3  -6   82.89    9.27
   0   3   6   73.27   10.58
   0   3  -6  109.06   10.28
   0   3  -6   80.66    7.46
   0   3   6   56.20   11.97
   0   3   6   74.15   10.68
   0   3  -6   85.35    7.90
   0   3  -7  170.18   11.96
   0   3   7  210.43   16.05
   0   3  -7  201.29   15.36
   0   3   7  164.50   17.63
   0   3   7  157.27   17.15
   0   3   7  150.90   19.93
   0   3  -7  174.47   11.76
   0   3  -7  185.04   10.02
   0   3   8   73.97   12.28
   0   3  -8   64.44    6.93
   0   3   8   74.18   13.37
   0   3  -8   81.85    6.25
   0   3   8   61.10   11.22
   0   3  -8   79.13    9.56
   0   3   9  609.45   36.49
   0   3   9  674.57   38.06
   0   3  -9  663.32   30.03
   0   3  -9  648.17   29.30
   0   3  -9  558.41   23.66
   0   3  -9  662.00   21.83
   0   3 -10  394.82   19.99
   0   3  10  381.98   25.67
   0   3 -10  394.64   20.20
   0   3  10  419.59   25.79
   0   3  11   67.61    7.65
   0   3 -11   84.38    7.06
   0   3 -11   82.31    6.61
   0   4   0  736.33   22.68
   0   4   0  689.30   28.24
   0   4   0  779.98   27.35
   0   4  -1  597.01   19.39
   0   4   1  566.11   24.26
   0   4  -1  608.17   21.11
   0   4   1  581.81   27.55
   0   4  -1  590.29   21.56
   0   4  -1  553.71   21.52
   0   4   2  785.90   30.19
   0   4  -2  862.72   29.12
   0   4  -2  903.09   27.33
   0   4   2  859.09   39.41
   0   4  -2  899.03   30.45
   0   4  -2  801.31   28.40
   0   4  -3   92.51    7.51
   0   4  -3  106.17    9.25
   0   4  -3  102.41    8.42
   0   4  -3  111.39    7.19
   0   4   3   88.65    9.96
   0   4   3   93.39    8.96
   0   4  -3  108.69    8.03
   0   4   3  101.36    9.17
   0   4  -4  570.91   24.00
   0   4  -4  538.19   24.81
   0   4   4  618.44   28.41
   0   4   4  503.49   28.29
   0   4   4  619.42   28.74
   0   4  -4  580.30   26.79
   0   4  -4  608.99   22.37
   0   4   5  884.54   55.71
   0   4  -5 1118.19   40.62
   0   4   5 1297.19   50.39
   0   4  -5 1172.73   43.97
   0   4  -5 1705.74   47.52
   0   4  -5 1318.32   46.55
   0   4   5 1446.23   51.33
   0   4   5 1127.31   48.55
   0   4   6   15.58    7.58
   0   4  -6   32.33    6.31
   0   4  -6   23.63    5.47
   0   4   6   34.93    7.17
   0   4  -6   27.74    5.59
   0   4   6   31.15    7.33
   0   4   6   18.46    5.98
   0   4  -6   31.01    5.17
   0   4  -7  192.88   15.03
   0   4   7  190.50   18.80
   0   4  -7  238.02   17.14
   0   4   7  200.55   23.98
   0   4  -7  216.86   13.65
   0   4   7  184.63   18.74
   0   4  -7  197.38   11.16
   0   4   7  259.49   19.05
   0   4  -8  117.68    9.63
   0   4  -8  144.62    8.58
   0   4   8  112.99   14.92
   0   4  -8  125.38   11.94
   0   4   8  148.95   18.97
   0   4   8  122.29   14.77
   0   4  -8  116.85   11.09
   0   4  -9   76.21    8.68
   0   4   9   84.68   11.40
   0   4  -9   76.86    7.01
   0   4  -9   92.82    6.13
   0   4  -9   92.26    8.74
   0   4   9   88.82   12.12
   0   4  10   38.71    6.03
   0   4  10   42.57    7.14
   0   4 -10   40.64    4.61
   0   4 -11   46.11    4.43
   0   5   0   -0.14    1.56
   0   5   0    0.08    1.05
   0   5   0    0.76    1.44
   0   5   0   -0.12    1.40
   0   5   1  259.28   15.75
   0   5   1  345.94   19.85
   0   5  -1  244.85   14.87
   0   5  -1  324.90   16.06
   0   5  -1  338.86   15.37
   0   5   1  308.19   14.23
   0   5   1  317.12   20.74
   0   5  -1  333.21   17.20
   0   5  -1  322.52   14.71
   0   5   2  164.33   14.59
   0   5  -2  179.26   12.23
   0   5  -2  197.72   11.30
   0   5   2  223.55   19.16
   0   5   2  183.81   10.40
   0   5   2  157.96   12.23
   0   5  -2  205.71   12.43
   0   5  -2  180.57   11.91
   0   5   3  653.10   40.23
   0   5  -3  753.92   29.21
   0   5  -3  642.13   26.21
   0   5  -3  755.21   31.00
   0   5  -4   19.07    4.14
   0   5  -4   18.33    4.62
   0   5   4   16.00    5.55
   0   5   4   17.33    4.68
   0   5   4   12.35    6.43
   0   5  -4   15.26    3.82
   0   5  -5   80.51    9.76
   0   5   5   89.07   10.86
   0   5   5   88.89   12.10
   0   5  -5  114.05   10.45
   0   5  -5   92.63    9.03
   0   5   6  404.31   35.52
   0   5   6  463.27   27.59
   0   5  -6  481.66   25.83
   0   5   6  561.25   30.84
   0   5  -6  413.09   23.94
   0   5  -6  498.22   22.91
   0   5  -7    5.66    2.29
   0   5   7    5.93    5.14
   0   5   7    7.68    4.18
   0   5  -7    9.43    3.69
   0   5   7   12.01    4.27
   0   5   8   94.05    9.43
   0   5  -8   81.99    6.11
   0   5  -8   70.65    8.45
   0   5   8   86.03   13.34
   0   5  -8   62.28    6.68
   0   5  -9   41.78    3.61
   0   5  -9   42.75    5.75
   0   5 -10   64.71    5.65
   0   6   0  275.32   15.05
   0   6   0  309.51   18.17
   0   6   0  298.78   17.32
   0   6  -1  144.03   10.85
   0   6   1  168.20   10.77
   0   6   1  139.97   11.66
   0   6   1   95.20    9.96
   0   6  -1  129.01    9.94
   0   6  -1  123.36   10.69
   0   6   1  163.90   14.67
   0   6   1  161.42   14.15
   0   6  -2  125.04    9.80
   0   6   2   97.82   12.12
   0   6  -2  108.12    9.16
   0   6   2  135.30    9.50
   0   6  -2  127.66   10.42
   0   6   2  141.24   15.59
   0   6   2  119.26   10.89
   0   6   3  367.70   28.31
   0   6   3  331.47   19.76
   0   6  -3  321.70   17.88
   0   6   3  334.48   24.15
   0   6   4  163.40   13.80
   0   6  -4  187.94   14.30
   0   6  -4  197.40   13.53
   0   6   5  175.11   21.47
   0   6   5  143.21   12.94
   0   6   5  214.76   19.14
   0   6  -5  227.95   14.73
   0   6  -5  162.08   13.55
   0   6  -5  205.04   13.49
   0   6  -6    7.09    2.81
   0   6  -6    3.65    2.96
   0   6   6    7.46    4.07
   0   6  -6    8.60    3.30
   0   6   6    7.06    3.15
   0   6   7   76.52   12.36
   0   6  -7   68.31    5.67
   0   6  -7   64.71    7.61
   0   6   7   83.29    9.38
   0   6   8   51.64    8.38
   0   6  -8   44.32    3.86
   0   6  -8   46.84    5.61
   0   6   8   56.31    5.86
   0   6  -9   25.76    3.21
   0   6   9   28.33    4.55
   0   7   0    1.56    1.85
   0   7   0    0.14    1.96
   0   7   1  307.63   18.93
   0   7  -1  248.28   15.16
   0   7  -1  254.10   13.99
   0   7   1  315.35   19.10
   0   7   1  214.43   15.07
   0   7   2   23.07    4.82
   0   7   2   26.60    6.14
   0   7   2   18.75    4.67
   0   7  -2   23.66    4.43
   0   7   2   16.44    5.06
   0   7   3  179.20   14.01
   0   7  -3  275.23   14.84
   0   7   3  194.45   17.42
   0   7   3  263.74   21.06
   0   7   3  224.99   14.85
   0   7  -4  466.77   20.67
   0   7   4  393.59   20.25
   0   7   4  432.44   26.19
   0   7   4  356.31   26.64
   0   7  -5   19.09    4.07
   0   7   5   18.56    6.04
   0   7   5   29.89    6.40
   0   7   6  738.43   29.63
   0   7   6  686.83   34.26
   0   7   7  108.29   11.01
   0   7  -7   89.93    5.23
   0   7   7   95.56    7.68
   0   8   0  262.37   14.00
   0   8  -1   12.31    2.94
   0   8   1   11.29    2.97
   0   8   1    7.41    2.66
   0   8   2  161.33   11.06
   0   8   2  171.85   12.37
   0   8   3   98.90    9.51
   0   8  -3  121.18    8.44
   0   8   3   92.64    7.97
   0   8   4  137.96    9.50
   0   8  -4  141.17    7.43
   0   8  -5  123.29    6.07
   0   8   5   90.35    7.02
   1  -8  -5  154.86    6.91
   1  -8  -5  175.28    7.51
   1  -8  -4    6.08    1.35
  -1  -8   4    7.80    1.76
  -1  -8   0  182.09    9.49
  -1  -8  -3   22.39    2.49
  -1  -8  -4  119.51    5.96
  -1  -8  -5  426.79   13.90
  -1  -7   8   53.80   11.49
   1  -7  -8   62.94    3.95
  -1  -7   7    0.19    3.43
   1  -7  -7    1.38    0.75
   1  -7  -7    1.58    1.05
   1  -7  -7    2.62    1.34
   1  -7  -7    2.19    1.08
  -1  -7   7    5.15    3.70
  -1  -7   6  111.68   10.00
   1  -7  -6  109.38    5.75
   1  -7  -6  119.42    7.33
   1  -7  -5    7.22    1.52
  -1  -7   5   10.99    2.94
  -1  -7  -2  163.25    9.84
  -1  -7  -3   19.04    3.33
  -1  -7  -4  134.74    8.74
   1  -7   5  312.69   19.68
  -1  -7  -5  500.69   16.62
  -1  -7  -5  491.69   16.74
   1  -7   6  158.22   14.01
  -1  -7  -6  126.49    7.14
   1  -7   6  126.48   10.84
  -1  -7  -6  171.47    8.44
  -1  -7  -6  167.98    8.47
  -1  -7  -6  118.97    7.59
   1  -7   7   38.28   12.15
  -1  -7  -7   37.26    2.79
  -1  -7  -7   43.16    3.54
  -1  -6   9   53.62    8.97
   1  -6  -9   28.07    3.31
  -1  -6   9   32.74   11.05
   1  -6  -9   27.93    3.01
  -1  -6   9   54.62    8.70
   1  -6  -9   26.98    2.77
  -1  -6   8  431.69   25.66
  -1  -6   8  291.94   21.18
  -1  -6   8  443.17   25.20
   1  -6  -8  265.29   13.02
   1  -6  -8  282.66   12.67
   1  -6  -8  222.28   10.61
  -1  -6   8  388.04   21.47
   1  -6  -7   47.82    4.41
   1  -6  -7   46.26    3.97
  -1  -6   7   75.49   10.17
  -1  -6   7   67.61   10.28
   1  -6  -6  202.26   10.07
   1  -6  -6  191.94    9.17
   1  -6  -5  259.68   10.87
  -1  -6  -3  300.51   15.82
  -1  -6  -4  308.27   12.89
  -1  -6  -4  295.03   15.88
  -1  -6  -5  318.51   13.31
  -1  -6  -5  319.40   16.52
  -1  -6  -6  140.12    9.25
  -1  -6  -6  125.48    9.22
   1  -6   6  125.10   13.71
  -1  -6  -6   96.31    6.54
   1  -6   7  191.74   16.69
  -1  -6  -7  171.45   11.36
  -1  -6  -7  158.48    9.97
  -1  -6  -7  179.14    9.65
   1  -6   8   16.24    6.38
   1  -6   8    6.85   12.05
  -1  -6  -8   11.47    2.31
  -1  -6  -8   13.42    2.27
  -1  -6  -8   12.80    2.61
  -1  -6  -8   12.04    2.28
   1  -6   8    5.42    3.22
   1  -5 -10   14.83    2.12
  -1  -5  10    7.75    7.71
   1  -5 -10   14.75    2.60
   1  -5  -9  254.75   11.98
  -1  -5   9  446.42   29.80
   1  -5  -9  249.76   11.42
   1  -5  -9  204.64   10.65
  -1  -5   9  248.50   27.82
  -1  -5   9  373.66   23.65
  -1  -5   9  342.15   23.64
  -1  -5   8  221.93   18.30
   1  -5  -8  121.01    7.84
  -1  -5   8  232.44   18.45
   1  -5  -8  155.01    8.94
  -1  -5   8  215.97   18.84
   1  -5  -8  139.04    8.17
  -1  -5   8  220.87   21.70
   1  -5  -7   79.30    6.03
  -1  -5   7  106.98   12.43
  -1  -5   7  105.75    8.68
   1  -5  -7   78.89    5.69
   1  -5  -7   85.60    6.66
  -1  -5   7   84.56   11.45
  -1  -5   6  310.27   21.93
   1  -5  -6  311.17   12.95
   1  -5  -6  304.47   13.29
  -1  -5   5  456.43   25.37
   1  -5  -5  268.79   11.65
  -1  -5  -4  291.73   12.65
   1  -5   5   92.26    9.58
  -1  -5  -5  103.30    6.54
  -1  -5  -5  116.49    7.56
  -1  -5  -6  275.33   11.85
  -1  -5  -6  309.07   13.20
   1  -5   7   41.11    9.21
  -1  -5  -7   31.47    3.95
   1  -5   7   32.34    7.88
  -1  -5  -7   36.95    4.86
  -1  -5  -7   36.11    5.36
   1  -5   7   18.58    5.34
   1  -5   8  205.02   18.53
  -1  -5  -8  142.96    9.82
   1  -5   8  214.81   20.34
  -1  -5  -8  144.70    9.02
   1  -5   8   85.58   11.16
  -1  -5  -8  149.01    8.74
  -1  -5  -9   16.44    2.76
  -1  -5  -9   17.73    2.67
  -1  -5  -9   16.87    2.39
   1  -5   9   20.71    7.34
  -1  -5 -10  128.82    6.78
  -1  -5 -10  118.76    6.27
  -1  -4  11   53.77    9.76
  -1  -4  11   56.54    9.44
  -1  -4  11   27.83    8.85
   1  -4 -11   24.22    3.00
   1  -4 -11   27.90    3.82
  -1  -4  10  308.00   21.99
   1  -4 -10  179.27   10.15
   1  -4 -10  191.77   10.11
   1  -4 -10  254.17   12.59
   1  -4 -10  236.46   10.33
  -1  -4  10  154.59   20.87
  -1  -4   9   46.30    8.92
  -1  -4   9   53.76    9.51
   1  -4  -9   30.57    3.98
  -1  -4   9   51.02    9.83
   1  -4  -9   32.32    4.36
  -1  -4   9   56.22    9.42
  -1  -4   9   53.27   11.05
  -1  -4   8  249.95   20.82
   1  -4  -8  185.91   11.22
   1  -4  -8  199.34   10.63
  -1  -4   8  241.10   19.28
   1  -4  -8  187.88   10.26
  -1  -4   8  251.96   19.13
  -1  -4   8  266.45   19.31
   1  -4  -7  306.99   13.51
  -1  -4   7  334.86   15.79
   1  -4  -7  293.28   14.19
   1  -4  -7  298.56   13.18
  -1  -4   7  314.78   22.69
  -1  -4   6  333.13   21.74
   1  -4  -6  308.87   13.30
   1  -4  -6  318.29   14.26
  -1  -4   5  575.96   19.12
   1  -4  -5  458.20   17.61
   1  -4  -3  233.47   10.51
  -1  -4   3  282.82   12.60
  -1  -4   3  281.13   14.79
  -1  -4   3  240.93   18.42
  -1  -4   2  332.88   13.93
   1  -4  -2  262.36   10.24
  -1  -4   2  308.95   18.79
  -1  -4   2  329.74   13.05
  -1  -4   2  266.64   18.88
  -1  -4   1  571.85   20.77
   1  -4  -1  471.06   18.75
  -1  -4   1  543.71   17.37
  -1  -4   1  476.26   21.69
  -1  -4   0 1598.46   45.17
   1  -4   0  988.11   33.34
  -1  -4   0 1379.34   42.39
  -1  -4   0 1148.93   37.43
   1  -4   1   38.52    5.06
   1  -4   1   23.33    4.70
   1  -4   1   26.12    2.95
  -1  -4  -1   26.11    4.40
   1  -4   1   28.76    4.00
  -1  -4  -1   37.74    5.00
  -1  -4  -2  282.16   16.15
   1  -4   2  246.47   11.94
   1  -4   2  227.90   13.68
   1  -4   2  276.25   12.16
   1  -4   2  290.62   16.87
  -1  -4  -3   43.05    3.36
   1  -4   3   32.04    4.41
  -1  -4  -4  446.33   15.52
  -1  -4  -5  307.90   12.69
  -1  -4  -5  298.33   11.93
   1  -4   5  239.34   15.43
  -1  -4  -5  212.20   12.22
  -1  -4  -6  104.48    8.18
   1  -4   6  101.86   11.52
  -1  -4  -6  132.55    8.21
  -1  -4  -6  119.18    7.53
   1  -4   6   92.57    9.94
   1  -4   7   40.94    8.17
  -1  -4  -7   28.62    3.75
   1  -4   7   41.65    8.87
   1  -4   7   25.25    5.68
  -1  -4  -7   31.47    4.50
  -1  -4  -7   34.57    4.34
   1  -4   7   18.13    5.87
   1  -4   8   38.06    9.18
  -1  -4  -8   25.36    3.84
  -1  -4  -8   34.61    4.33
   1  -4   8   37.76    8.61
  -1  -4  -8   33.30    5.17
   1  -4   8   25.72    7.04
  -1  -4  -8   32.10    4.43
  -1  -4  -9  255.41   12.05
  -1  -4  -9  270.07   13.85
  -1  -4  -9  242.82   11.07
   1  -4   9  224.30   20.70
  -1  -4 -10   61.43    5.68
  -1  -4 -10   53.38    4.99
   1  -4  10   36.72    9.48
  -1  -4 -10   58.48    5.49
   1  -4  10   87.67   15.14
   1  -4  10   44.73   17.13
   1  -4  10   69.95   10.59
   1  -3 -12   13.83    2.42
  -1  -3  12   19.38    4.65
   1  -3 -11  169.67    9.51
  -1  -3  11  139.69   18.15
  -1  -3  11  276.20   18.90
  -1  -3  11  314.82   22.77
  -1  -3  11  341.34   23.34
   1  -3 -10   37.21    4.93
  -1  -3  10   27.82   11.43
  -1  -3  10   67.33   11.60
  -1  -3  10   67.72   10.83
   1  -3 -10   33.92    4.24
   1  -3 -10   49.54    5.57
  -1  -3   9   50.29   10.18
  -1  -3   9   37.95    7.82
  -1  -3   9   15.92    9.89
   1  -3  -9   24.64    3.90
  -1  -3   9   35.90    7.97
   1  -3  -9   23.19    4.03
  -1  -3   9   33.61    7.96
   1  -3  -9   19.84    3.69
  -1  -3   8   95.76   11.28
  -1  -3   8   92.36   13.22
   1  -3  -8   84.20    6.79
   1  -3  -8   80.53    6.49
   1  -3  -8   77.83    6.39
   1  -3  -8   81.35    7.22
  -1  -3   8   85.48   10.46
  -1  -3   8   91.71   12.02
   1  -3  -7  215.27   10.68
  -1  -3   7  210.55   15.59
  -1  -3   7  194.34   11.40
  -1  -3   7  220.91   17.40
   1  -3  -7  210.50   10.52
  -1  -3   7  229.82   16.04
   1  -3  -7  221.79   11.60
  -1  -3   6  533.92   26.12
   1  -3  -6  566.49   19.58
   1  -3  -6  517.40   18.31
  -1  -3   6  497.94   19.29
  -1  -3   6  542.22   19.08
   1  -3  -5   41.41    3.91
  -1  -3   5   51.87    4.15
   1  -3  -4  417.54   14.65
  -1  -3   4  430.28   18.99
  -1  -3   4  442.49   23.14
  -1  -3   4  385.12   13.21
   1  -3  -3   62.22    4.92
  -1  -3   3   72.02    4.87
   1  -3  -2  364.33   14.10
   1  -3  -2  417.02   11.42
  -1  -3   2  358.28   19.33
  -1  -3   2  406.48   11.45
  -1  -3   1 1121.45   28.73
  -1  -3   1 1319.29   31.48
  -1  -3   1  946.27   33.98
  -1  -3   1  928.85   29.77
   1  -3  -1  644.67   32.80
   1  -3  -1  989.51   27.24
   1  -3  -1 1004.41   28.22
   1  -3  -1 1021.82   30.07
  -1  -3   1  924.42   36.21
  -1  -3   0  950.92   29.98
   1  -3   0 1070.38   26.23
   1  -3   0 1104.30   36.00
  -1  -3   0  998.29   29.51
   1  -3   0  944.95   26.80
   1  -3   0  951.68   31.43
   1  -3   0  974.71   32.06
   1  -3   0  868.62   25.80
   1  -3   1   46.87    3.55
   1  -3   1   36.85    3.31
  -1  -3  -1   42.08    4.65
   1  -3   1   41.62    4.53
  -1  -3  -1   41.38    4.65
   1  -3   1   30.78    4.61
  -1  -3  -1   42.26    2.43
   1  -3   1   48.42    4.66
  -1  -3  -2   60.81    6.21
   1  -3   2   49.20    4.30
   1  -3   2   47.77    6.36
   1  -3   2   56.76    4.94
  -1  -3  -2   66.46    4.95
  -1  -3  -2   74.78    5.76
   1  -3   2   71.04    4.97
   1  -3   3 1544.78   48.90
  -1  -3  -3 1749.95   52.91
   1  -3   3 1347.13   46.87
   1  -3   3 1705.50   43.94
   1  -3   3 1526.56   53.58
  -1  -3  -3 1783.20   48.41
  -1  -3  -4  756.82   21.17
   1  -3   4  610.91   26.20
  -1  -3  -4  780.09   21.63
  -1  -3  -4  706.79   23.57
  -1  -3  -4  686.74   24.84
   1  -3   4  556.25   24.40
  -1  -3  -5  421.80   15.18
  -1  -3  -5  412.92   14.52
  -1  -3  -5  390.46   14.05
  -1  -3  -5  378.40   16.40
   1  -3   6  208.50   16.46
  -1  -3  -6  282.71   12.28
   1  -3   6  240.86   16.58
  -1  -3  -6  256.58   13.37
   1  -3   6  204.32   14.53
  -1  -3  -6  263.90   11.50
   1  -3   6  159.83   15.24
  -1  -3  -7  225.30   11.72
   1  -3   7  260.15   18.92
  -1  -3  -7  217.31   11.09
  -1  -3  -7  224.16   13.00
   1  -3   7  278.56   20.58
   1  -3   7  198.99   15.69
   1  -3   7  168.43   17.11
  -1  -3  -8   58.39    6.67
   1  -3   8   51.72    9.52
   1  -3   8   60.44   10.94
   1  -3   8   42.40    9.23
  -1  -3  -8   45.83    5.75
  -1  -3  -8   55.40    5.38
  -1  -3  -8   49.34    5.43
   1  -3   8   29.69   15.24
   1  -3   9   78.05   12.68
  -1  -3  -9   71.74    5.57
  -1  -3  -9   79.96    7.48
  -1  -3  -9   71.85    6.07
  -1  -3 -10  294.82   13.87
   1  -3  10  352.82   26.41
  -1  -3 -10  331.01   16.67
  -1  -3 -11   33.33    3.03
  -1  -3 -11   40.85    4.43
   1  -2 -12  177.86   10.34
  -1  -2  12  209.39   14.60
  -1  -2  12  210.47   14.13
  -1  -2  11  195.15   16.98
  -1  -2  11  179.64   16.33
   1  -2 -10  387.81   19.37
  -1  -2  10  302.69   30.29
   1  -2  -9   19.43    3.90
  -1  -2   9   30.89    7.47
   1  -2  -9   17.33    3.27
   1  -2  -9   18.73    3.35
  -1  -2   9   19.47    7.02
   1  -2  -8  592.50   22.15
  -1  -2   8  726.00   31.53
   1  -2  -8  636.88   22.85
   1  -2  -8  649.61   22.86
  -1  -2   8  781.48   35.91
   1  -2  -8  657.97   24.29
  -1  -2   8  577.44   29.97
  -1  -2   7  150.13   12.05
  -1  -2   7  162.43   13.88
   1  -2  -7  153.97    9.14
   1  -2  -7  166.66    8.69
   1  -2  -7  150.53    8.50
  -1  -2   6   81.28    8.47
   1  -2  -6   79.50    5.37
  -1  -2   6   86.92    8.08
  -1  -2   6   81.89    5.99
   1  -2  -6   93.99    6.10
  -1  -2   5  276.72    9.45
   1  -2  -5  251.62   11.12
   1  -2  -5  239.97    9.52
  -1  -2   5  282.58   10.72
  -1  -2   5  318.78   11.27
  -1  -2   5  350.94   16.10
  -1  -2   4  223.22    8.08
  -1  -2   4  225.06   11.97
   1  -2  -4  208.97    9.64
   1  -2  -4  233.36    8.58
   1  -2  -4  228.97    9.87
  -1  -2   3  571.31   19.52
  -1  -2   3  493.67   15.46
   1  -2  -3  432.48   15.85
   1  -2  -3  595.04   15.13
   1  -2  -2  676.16   18.63
  -1  -2   2  762.87   21.45
  -1  -2   2  704.60   24.29
  -1  -2   2  672.76   19.75
   1  -2  -2  609.04   19.12
   1  -2  -1 3193.96   91.99
  -1  -2   1 3178.00   93.63
  -1  -2   1 3338.31   98.54
   1  -2  -1 4137.39   92.49
  -1  -2   1 5027.49   93.86
  -1  -2   1 4524.00   93.45
   1  -2  -1 2959.42   97.33
   1  -2  -1 3715.24   90.85
   1  -2   0 1018.66   26.06
  -1  -2   0  985.54   29.29
   1  -2   0 1071.08   28.41
   1  -2   0 1115.68   32.88
   1  -2   0 1016.80   28.66
   1  -2   0 1091.11   26.83
   1  -2   0 1081.44   26.29
  -1  -2   0 1006.25   30.08
   1  -2   0  941.19   26.59
  -1  -2  -1    8.10    1.95
  -1  -2  -1   10.18    1.54
   1  -2   1    8.25    0.83
  -1  -2  -1   10.44    2.08
   1  -2   1    8.73    1.50
   1  -2   1    9.74    1.47
   1  -2   1    7.19    1.51
   1  -2   1   10.94    2.65
   1  -2   2  168.30    8.52
   1  -2   2  166.13   11.44
  -1  -2  -2  191.36    8.24
  -1  -2  -2  198.60    6.60
  -1  -2  -3  383.02   12.25
   1  -2   3  304.15   17.33
   1  -2   3  308.48   13.39
   1  -2   3  325.80   14.31
  -1  -2  -3  363.93   13.37
   1  -2   3  305.80    9.09
  -1  -2  -4  759.29   25.74
  -1  -2  -4  842.02   23.72
  -1  -2  -4  836.14   24.53
  -1  -2  -4  826.66   23.16
  -1  -2  -4  845.27   25.53
  -1  -2  -5  354.93   12.72
  -1  -2  -5  332.83   10.97
  -1  -2  -5  341.34   12.55
   1  -2   5  240.17   15.23
   1  -2   5  259.35   14.85
   1  -2   5  268.09   15.56
  -1  -2  -5  379.34   14.95
  -1  -2  -5  403.34   13.56
  -1  -2  -5  341.37   12.82
  -1  -2  -6    9.10    2.09
   1  -2   6    7.52    3.70
  -1  -2  -6   12.06    2.73
   1  -2   6   11.33    4.04
   1  -2   6    5.57    3.11
   1  -2   6    7.30    2.91
   1  -2   6    9.28    3.24
   1  -2   7  107.35   12.44
   1  -2   7   92.94   11.17
  -1  -2  -7   78.02    6.25
  -1  -2  -7  107.38    7.17
  -1  -2  -7   94.40    7.98
  -1  -2  -7  104.88    7.41
   1  -2   7   62.26    8.87
   1  -2   7   79.80   11.30
  -1  -2  -7   89.07    6.82
  -1  -2  -8  310.90   13.98
  -1  -2  -8  255.43   13.23
   1  -2   8  305.43   23.56
  -1  -2  -8  274.70   15.23
  -1  -2  -8  320.09   16.12
   1  -2   8  300.61   23.97
   1  -2   8  226.23   18.79
  -1  -2  -8  305.27   13.13
   1  -2   9  586.22   35.02
   1  -2   9  196.85   23.34
   1  -2   9  624.36   38.63
  -1  -2  -9  425.28   19.52
   1  -2   9  409.83   26.20
  -1  -2  -9  460.78   17.22
  -1  -2  -9  515.72   20.77
   1  -2   9  289.48   34.32
   1  -2  10  149.07   16.90
  -1  -2 -10  114.42    8.16
   1  -2  10  157.60   18.75
   1  -2  10   95.68   11.24
   1  -2  10  124.40   22.38
   1  -2  11  141.15   16.22
   1  -2  11  134.93   14.84
  -1  -2 -11  101.55    7.91
  -1  -1  12   14.12    4.32
   1  -1 -12   13.18    2.78
  -1  -1  12   12.89    3.63
  -1  -1  12   17.02    4.49
  -1  -1  11   45.47    8.28
   1  -1 -11   28.26    4.46
  -1  -1  11   46.48    8.17
  -1  -1  11   52.84    9.01
   1  -1 -11   41.77    5.98
   1  -1 -10   45.99    5.94
   1  -1 -10   40.88    5.57
  -1  -1  10   35.60   12.44
  -1  -1  10   54.65   10.01
  -1  -1  10   56.42    9.64
  -1  -1   9  207.44   25.36
   1  -1  -9  332.91   15.47
   1  -1  -9  360.97   17.07
  -1  -1   9  471.41   28.09
  -1  -1   9  472.31   27.99
   1  -1  -9  306.05   14.39
  -1  -1   8  231.01   17.96
   1  -1  -8  169.81   10.16
   1  -1  -8  162.62    9.16
  -1  -1   8  102.56   17.08
  -1  -1   8  203.78   16.87
  -1  -1   8  143.87   14.96
   1  -1  -8  178.25   10.53
   1  -1  -8  166.41    9.22
   1  -1  -7  358.71   15.23
   1  -1  -7  378.97   14.48
  -1  -1   7  397.39   20.28
  -1  -1   7  403.90   22.33
   1  -1  -7  390.58   14.49
   1  -1  -7  367.93   15.49
  -1  -1   7  406.70   22.68
  -1  -1   7  415.95   23.19
  -1  -1   6 1054.00   36.51
  -1  -1   6 1122.49   39.00
   1  -1  -6 1056.16   31.90
  -1  -1   6 1125.63   39.06
  -1  -1   6 1186.70   41.63
   1  -1  -6 1106.11   29.58
   1  -1  -6 1058.35   32.04
   1  -1  -6 1020.95   31.73
  -1  -1   6 1164.32   39.51
   1  -1  -6 1122.76   30.78
  -1  -1   6 1036.26   38.45
   1  -1  -5  250.85   13.41
  -1  -1   5  272.13    9.58
  -1  -1   5  261.06   13.38
  -1  -1   5  309.22   14.89
  -1  -1   5  251.98   12.68
   1  -1  -5  232.81    9.73
   1  -1  -5  301.53    9.30
   1  -1  -5  278.45   10.76
  -1  -1   5  229.13   12.45
  -1  -1   5  275.18   14.06
   1  -1  -4  194.97    9.86
   1  -1  -4  246.60    7.82
  -1  -1   4  177.53    9.44
  -1  -1   4  234.26    7.67
   1  -1  -3 1094.02   26.88
   1  -1  -3 1038.43   25.71
  -1  -1   3  914.37   27.57
  -1  -1   3  914.85   25.31
   1  -1  -2 2096.14   49.97
  -1  -1   2 1930.53   49.63
  -1  -1   1 8248.81  210.02
   1  -1  -1 8102.12  209.59
  -1  -1   0 1128.04   30.25
  -1  -1   0 1081.23   29.53
   1  -1   0 1094.49   28.02
  -1  -1  -1 2432.16   62.45
   1  -1   1 2917.22   63.92
  -1  -1  -1 2752.24   64.09
  -1  -1  -1 2474.42   64.44
   1  -1   1 2608.19   63.49
   1  -1   1 2551.46   63.89
   1  -1   1 2435.44   62.17
   1  -1   2 2210.63   53.83
  -1  -1  -2 2271.42   54.44
   1  -1   2 2152.93   51.66
  -1  -1  -3 1094.96   29.75
  -1  -1  -3 1142.26   30.21
  -1  -1  -4  750.07   19.41
   1  -1   4  722.35   28.19
  -1  -1  -4  729.08   23.60
  -1  -1  -4  731.08   22.36
  -1  -1  -4  709.25   22.39
  -1  -1  -4  766.44   23.50
   1  -1   4  671.90   24.89
   1  -1   5  101.11    9.01
   1  -1   5   79.41    8.80
  -1  -1  -5  109.01    6.16
  -1  -1  -5  116.20    6.36
   1  -1   5   89.86    8.72
  -1  -1  -5  129.48    7.74
   1  -1   5   78.68    7.84
  -1  -1  -5  118.95    7.55
  -1  -1  -5  132.78    7.00
   1  -1   5   97.59    8.39
  -1  -1  -5  146.08    4.90
  -1  -1  -5  106.60    6.73
   1  -1   5  110.26    9.73
  -1  -1  -5  126.96    7.70
   1  -1   5  129.53    9.76
  -1  -1  -6   39.21    4.28
   1  -1   6   28.32    9.48
  -1  -1  -6   43.97    4.15
  -1  -1  -6   52.55    4.45
   1  -1   6   46.16    7.58
   1  -1   6   32.15    5.83
  -1  -1  -6   53.70    4.22
   1  -1   6   43.24    7.51
   1  -1   7   21.85    5.43
   1  -1   7   31.97    7.61
  -1  -1  -7   27.81    3.69
   1  -1   7   14.98   10.71
  -1  -1  -7   33.15    3.73
  -1  -1  -7   30.41    4.37
   1  -1   7   28.03    6.98
  -1  -1  -8  640.91   23.98
   1  -1   8  681.56   37.30
   1  -1   9  507.44   33.92
  -1  -1  -9  455.54   23.21
   1  -1   9  260.34   33.15
  -1  -1  -9  380.99   17.57
   1  -1   9  449.38   30.81
   1  -1   9  349.64   25.07
   1  -1  10  402.95   29.30
  -1  -1 -10  350.42   19.34
   1  -1  10  378.67   27.54
   1  -1  11  186.68   15.01
   1  -1  11  292.65   21.61
  -1  -1 -11  232.43   13.80
   1  -1  11  302.21   22.42
  -1  -1 -11  227.62   13.37
  -1  -1 -12   14.35    2.36
   1  -1  12   19.35    4.52
   1   0 -12  167.31    9.66
  -1   0  12  211.88   15.20
  -1   0  12  189.94   14.04
  -1   0  11   65.44    9.08
   1   0 -11   63.49    7.11
  -1   0  11   69.57   10.07
  -1   0  11   91.30   11.65
   1   0 -11   61.01    6.55
   1   0 -10    5.08    2.63
  -1   0  10    7.52    4.16
   1   0 -10    3.86    1.92
  -1   0  10    5.65    4.33
   1   0 -10    3.42    2.17
   1   0 -10    5.90    2.74
  -1   0  10    5.73    3.97
  -1   0   9   -0.50    9.13
   1   0  -9    1.69    1.68
  -1   0   9    4.87    4.35
   1   0  -9    2.21    2.01
  -1   0   9    4.58    4.28
   1   0  -8   61.57    5.20
   1   0  -8   72.56    6.45
  -1   0   8   98.73   11.86
  -1   0   8   89.96   11.40
   1   0  -8   71.20    6.78
  -1   0   8   38.58   13.12
   1   0  -7  367.43   14.52
   1   0  -7  424.07   17.17
  -1   0   7  430.59   25.19
   1   0  -7  435.03   16.20
   1   0  -7  409.81   15.85
  -1   0   7  467.35   24.60
  -1   0   7  493.90   24.98
   1   0  -7  385.37   14.56
   1   0  -6  192.13    8.77
  -1   0   6  193.64   13.38
   1   0  -6  178.51    8.27
   1   0  -6  173.41    8.38
  -1   0   6  198.35   14.30
  -1   0   6  185.25   11.97
   1   0  -6  179.34    9.40
  -1   0   6  172.04   13.25
   1   0  -6  182.15    8.95
   1   0  -6  175.49    7.75
  -1   0   6  193.53   13.33
   1   0  -6  176.64    7.97
   1   0  -6  193.51    8.04
  -1   0   6  199.91   13.70
   1   0  -6  177.12    8.43
  -1   0   6  174.28   13.05
  -1   0   5 1257.06   41.65
  -1   0   5 1356.37   42.32
  -1   0   5 1286.79   40.44
   1   0  -5 1183.55   41.51
   1   0  -5 1398.05   35.16
  -1   0   5 1445.94   44.00
   1   0  -5 1357.07   35.98
  -1   0   5 1393.91   42.26
   1   0  -5 1259.83   35.51
   1   0  -4  205.04   11.17
  -1   0   4  236.92   11.21
  -1   0   4  220.70   11.01
   1   0  -4  254.04    8.19
  -1   0   3 3167.62   79.44
   1   0  -3 3369.25   79.33
  -1   0   3 3270.60   79.80
  -1   0   3 3240.34   78.68
   1   0  -3 3164.05   76.48
  -1   0   2    2.75    0.94
   1   0  -2    2.47    0.62
   1   0  -2    2.81    0.75
  -1   0   2    4.59    0.86
  -1   0   2    3.73    0.73
   1   0  -2    3.91    0.94
  -1   0   2    2.94    1.09
  -1   0   1   85.30    3.86
  -1   0   1   93.11    4.98
  -1   0   0  638.42   16.70
   1   0   0  686.96   15.83
  -1   0   0  623.60   16.81
   1   0   0  716.13   16.64
   1   0   0  555.95   16.51
   1   0   0  521.47   16.76
   1   0   1  183.52    6.51
   1   0   1  179.80    5.80
  -1   0  -1  197.74    6.72
  -1   0  -2  129.54    3.53
  -1   0  -2  124.33    5.32
  -1   0  -2  117.82    5.59
  -1   0  -2  120.90    5.93
   1   0   2  122.06    5.26
   1   0   2  127.41    4.99
  -1   0  -2  116.26    5.41
   1   0   2  126.52    8.02
  -1   0  -3  211.59    8.88
  -1   0  -3  230.01    8.83
  -1   0  -3  220.70    9.90
  -1   0  -3  247.67    6.44
   1   0   4 1302.73   40.68
   1   0   4 1223.69   39.22
  -1   0  -4 1236.60   38.12
  -1   0  -4 1296.50   36.38
  -1   0  -4 1295.25   37.17
  -1   0  -5  435.07   14.75
   1   0   5  192.01   21.66
   1   0   5  392.34   18.24
   1   0   5  309.43   19.41
   1   0   5  327.68   20.04
  -1   0  -5  415.31   15.63
  -1   0  -5  486.53   15.92
  -1   0  -5  408.31   14.83
   1   0   5  449.69   18.26
  -1   0  -5  403.81   15.32
  -1   0  -5  435.94   16.39
  -1   0  -5  361.13   13.74
  -1   0  -5  393.16   16.27
   1   0   5  320.84   18.86
  -1   0  -6  165.86    9.59
  -1   0  -6  191.32    9.60
  -1   0  -6  156.22    7.69
   1   0   6  141.70   13.00
  -1   0  -6  171.13   10.00
   1   0   7    5.73   10.66
  -1   0  -7   18.49    3.85
   1   0   7    6.41    5.85
  -1   0  -7   11.66    2.53
  -1   0  -7   12.88    3.06
   1   0   7    8.47    3.86
  -1   0  -7   10.54    2.69
  -1   0  -8 1175.33   39.54
  -1   0  -8 1034.13   35.49
   1   0   8  796.49   58.79
  -1   0  -8  877.69   30.39
   1   0   8 1034.32   49.62
   1   0   8  774.07   41.25
  -1   0  -8  815.37   31.46
  -1   0  -9    2.61    2.63
   1   0   9    2.06    4.77
  -1   0  -9    1.85    1.66
   1   0   9    0.57    2.80
   1   0  10  133.13   16.28
   1   0  10  113.61   13.66
  -1   0 -10  130.45   11.11
  -1   0 -11   44.52    6.06
   1   0  11   55.87    9.21
  -1   0 -11   53.59    6.16
   1   0  11   53.46    8.20
  -1   0 -12  248.83   11.53
   1   1 -12   10.09    2.63
  -1   1  12    9.15    3.26
   1   1 -12    9.61    2.17
  -1   1  12   10.85    3.55
  -1   1  11   36.50    7.53
  -1   1  11   31.76    6.79
   1   1 -11   29.06    4.86
   1   1 -11   26.54    4.25
  -1   1  10   50.38    9.13
   1   1 -10   31.57    4.61
   1   1 -10   47.48    6.89
  -1   1  10   44.11    9.10
   1   1 -10   38.76    5.44
   1   1 -10   43.15    6.08
  -1   1  10   47.74    8.37
  -1   1   9  409.19   26.15
   1   1  -9  416.79   20.72
   1   1  -9  305.74   15.85
   1   1  -9  324.45   17.11
  -1   1   9  443.51   27.70
  -1   1   8  205.15   17.38
   1   1  -8  156.04    9.79
   1   1  -8  169.64   11.28
   1   1  -8  148.96    9.74
  -1   1   8  207.52   17.64
   1   1  -7  361.23   16.71
   1   1  -7  345.02   14.89
   1   1  -7  357.79   16.30
   1   1  -7  388.72   15.91
  -1   1   6  865.10   47.82
  -1   1   6  772.62   37.62
  -1   1   6  936.51   38.72
   1   1  -6 1081.70   30.62
   1   1  -6 1034.66   31.09
   1   1  -6 1065.65   29.49
  -1   1   6 1119.98   39.79
   1   1  -6 1039.92   33.96
  -1   1   6  956.62   32.91
   1   1  -6 1017.86   28.01
   1   1  -6 1046.94   31.68
   1   1  -6  958.33   28.45
   1   1  -5  266.76   11.18
   1   1  -5  249.38    9.20
  -1   1   5  192.44   13.27
  -1   1   5  232.35   14.10
  -1   1   5  281.67   14.86
   1   1  -5  256.94   14.81
   1   1  -5  260.89   11.15
  -1   1   5  272.29   12.30
  -1   1   5  211.21   13.90
  -1   1   4  212.67   11.42
   1   1  -4  225.01    8.81
   1   1  -3  876.18   24.33
  -1   1   3  964.33   24.62
  -1   1   2 2116.81   52.94
   1   1  -2 2167.43   50.34
   1   1  -2 2140.25   53.34
   1   1  -1 9052.07  219.66
  -1   1   1 7689.88  219.32
   1   1   0 1180.28   28.64
   1   1   0 1109.85   32.26
   1   1   0 1204.93   28.65
  -1   1   0  979.23   28.37
  -1   1   0 1268.73   31.29
   1   1   0 1129.93   29.84
  -1   1   0 1239.68   28.66
   1   1   0 1013.78   32.53
   1   1   1 2430.36   66.28
   1   1   1 2486.26   64.67
   1   1   1 2831.94   63.99
  -1   1  -1 2339.19   64.80
   1   1   1 2694.63   62.63
  -1   1  -1 2539.18   64.04
  -1   1  -2 2135.82   55.93
   1   1   2 2300.16   55.05
   1   1   2 2235.25   56.23
  -1   1  -2 2347.55   55.48
   1   1   2 2331.97   58.77
  -1   1  -3 1229.80   32.91
  -1   1  -3 1170.46   31.03
   1   1   3 1262.56   34.13
  -1   1  -4  700.95   19.32
   1   1   4  774.44   22.56
   1   1   4  544.80   22.12
  -1   1  -4  722.12   23.72
   1   1   4  526.43   25.62
  -1   1  -4  646.93   22.32
  -1   1  -5  145.94    9.12
  -1   1  -5  139.71    7.56
   1   1   5  128.10   12.15
   1   1   5  116.07   14.34
  -1   1  -5  154.29    6.94
   1   1   5  132.96   11.81
  -1   1  -5  141.40    9.17
  -1   1  -5  146.13    8.81
   1   1   5  131.42   12.61
   1   1   5  137.61   19.70
   1   1   5  155.10    8.83
  -1   1  -5  129.40    7.92
  -1   1  -5  135.35    8.12
   1   1   5  142.15    9.95
   1   1   5  148.51   13.20
   1   1   6   63.48   10.09
  -1   1  -6   58.40    6.01
  -1   1  -6   48.03    5.06
  -1   1  -6   59.49    4.49
  -1   1  -6   75.67    7.67
   1   1   6   45.71    8.23
  -1   1  -6   71.61    7.47
   1   1   6   48.03    7.87
  -1   1  -6   53.86    5.11
  -1   1  -7   31.73    3.62
  -1   1  -7   40.32    5.87
  -1   1  -7   24.93    4.33
   1   1   7   33.20    8.71
  -1   1  -7   34.77    5.69
   1   1   7   33.71    8.24
   1   1   7   23.94    6.38
  -1   1  -7   29.05    3.78
  -1   1  -7   26.35    4.12
  -1   1  -8  719.14   30.87
  -1   1  -8  709.57   29.58
   1   1   8  679.09   39.69
   1   1   8  714.29   41.39
   1   1   9  357.17   27.14
   1   1   9  398.22   29.99
  -1   1  -9  380.25   20.19
   1   1   9  421.63   31.21
  -1   1  -9  403.61   21.47
  -1   1 -10  326.13   18.07
   1   1  10  317.95   24.79
   1   1  10  278.86   22.20
   1   1  10  324.61   25.16
  -1   1 -10  283.00   15.61
  -1   1 -10  325.79   19.35
  -1   1 -11  212.48   12.13
   1   1  11  233.99   18.16
  -1   1 -11  210.38   13.26
   1   1  11  188.42   15.32
   1   1  11  210.24   16.24
  -1   1 -12   15.04    2.46
   1   1  12   18.35    3.71
   1   2 -12  128.09    7.79
   1   2 -12  134.60    8.09
  -1   2  12  111.35    8.56
   1   2 -11  131.17   10.36
   1   2 -11  128.71   10.04
  -1   2  11  139.87   12.89
   1   2 -10  582.48   26.58
  -1   2  10  614.56   33.69
  -1   2  10  633.77   33.59
   1   2  -9   14.47    3.57
  -1   2   9   24.26    7.91
   1   2  -9   14.15    3.09
   1   2  -9   15.74    3.92
   1   2  -9   21.00    5.14
  -1   2   9   13.92    6.13
  -1   2   9   25.02    7.00
   1   2  -8  554.18   23.76
   1   2  -8  695.73   27.02
  -1   2   8  677.42   43.07
   1   2  -8  547.74   24.24
   1   2  -8  537.77   21.63
  -1   2   8  748.04   37.01
  -1   2   8  720.70   37.03
  -1   2   7  153.86   15.42
  -1   2   7  159.69   15.18
   1   2  -7  153.15    9.75
   1   2  -7  135.33    8.39
   1   2  -7  138.84    7.61
   1   2  -7  158.76   11.13
   1   2  -7  135.79   10.20
  -1   2   7  119.27   17.39
   1   2  -6   85.20    7.82
  -1   2   6   72.53    9.20
   1   2  -6   88.23    6.81
   1   2  -6   96.28    7.36
  -1   2   6   72.50    8.05
  -1   2   6   78.75    9.85
  -1   2   5  226.99   13.87
  -1   2   5  122.60   16.20
  -1   2   5  140.66   11.85
   1   2  -5  180.97    9.68
   1   2  -5  217.68   12.50
  -1   2   5  183.86   12.13
  -1   2   5  154.37   11.13
  -1   2   5  175.85   12.50
   1   2  -5  224.32   10.63
   1   2  -4  278.47   11.46
   1   2  -4  219.45    7.03
  -1   2   4  248.73   12.61
   1   2  -4  244.05    8.90
   1   2  -4  238.44   10.25
   1   2  -4  284.46   14.89
  -1   2   4  244.29   11.53
   1   2  -3  504.33   13.29
   1   2  -3  501.83   16.58
  -1   2   3  538.07   17.13
   1   2  -3  551.52   21.43
  -1   2   3  570.90   18.90
   1   2  -3  485.80   14.47
   1   2  -2  642.56   18.72
  -1   2   2  652.12   19.39
   1   2  -1 3606.26   81.64
  -1   2   1 3241.69   80.44
   1   2   0 1103.96   33.68
   1   2   0 1137.99   29.38
   1   2   0 1051.94   29.31
  -1   2  -1   10.38    2.10
   1   2   1    7.48    2.83
   1   2   1   13.15    1.77
   1   2   2  205.74    9.62
  -1   2  -2  204.99    8.28
   1   2   2  228.18    8.99
  -1   2  -3  353.42   14.48
   1   2   3  375.72   17.54
   1   2   3  369.65   13.88
   1   2   4  853.82   32.83
  -1   2  -4  658.77   24.51
   1   2   4  848.42   33.20
  -1   2  -4  834.41   28.82
  -1   2  -4  709.71   26.53
   1   2   4  598.92   21.16
   1   2   4  889.30   32.20
  -1   2  -4  765.44   25.26
   1   2   4  534.18   30.93
  -1   2  -4  775.20   25.08
  -1   2  -4  711.39   25.47
   1   2   5  201.36   13.23
   1   2   5  281.82   20.11
   1   2   5  227.11   17.60
  -1   2  -5  267.29   11.20
   1   2   5  200.92   18.54
   1   2   5  228.26   18.61
  -1   2  -5  323.87   14.26
  -1   2  -5  410.72   18.69
  -1   2  -5  308.92   15.94
   1   2   6    6.07    3.66
  -1   2  -6    7.54    2.65
   1   2   6    7.93    4.22
  -1   2  -6    9.37    2.17
   1   2   6    4.26    3.18
  -1   2  -6   11.90    3.50
  -1   2  -6   10.25    3.18
   1   2   6    8.98    5.02
  -1   2  -6    9.97    2.62
  -1   2  -7  101.54   10.10
   1   2   7   94.04   14.49
   1   2   7   75.19   11.74
  -1   2  -7   90.07    9.27
   1   2   7   56.26   10.26
  -1   2  -7  101.08    6.68
  -1   2  -7   86.13    7.42
   1   2   7   90.85   13.59
   1   2   8  256.48   23.33
  -1   2  -8  314.77   18.64
  -1   2  -8  306.07   18.44
   1   2   8  291.08   25.76
   1   2   8  330.04   28.35
  -1   2  -8  320.45   13.60
  -1   2  -8  276.34   14.26
   1   2   9  571.27   36.29
  -1   2  -9  509.37   24.69
   1   2   9  581.13   36.68
  -1   2  -9  530.37   25.15
   1   2   9  464.99   31.67
  -1   2  -9  554.33   27.79
  -1   2 -10  125.67    9.89
   1   2  10  127.26   15.00
   1   2  10  110.92   13.39
  -1   2 -10  119.17   10.83
  -1   2 -10  110.23    9.39
   1   2  10  114.71   13.39
  -1   2 -11   91.69    7.78
   1   2  11   96.90   10.50
  -1   2 -11   83.28    6.45
   1   2  11   82.13    9.43
  -1   3  12   12.03    2.69
   1   3 -12    9.50    1.92
  -1   3  11  197.80   15.01
   1   3 -11  185.38   10.57
   1   3 -11  198.70   12.10
  -1   3  11  168.70   12.34
  -1   3  10   42.62    7.73
  -1   3  10   42.06    8.51
   1   3 -10   37.25    6.07
   1   3 -10   36.32    4.49
   1   3 -10   42.65    5.99
  -1   3  10   56.96    9.70
   1   3  -9   19.08    4.36
  -1   3   9   27.78    8.35
  -1   3   9   26.48    7.40
   1   3  -9   22.47    4.10
  -1   3   9   27.71    7.13
   1   3  -9   31.87    5.80
   1   3  -8   88.98    6.41
   1   3  -8   97.81   10.52
   1   3  -8   74.94    8.03
  -1   3   8   77.34   11.60
  -1   3   8   85.55   12.55
   1   3  -8   78.95    7.82
  -1   3   8   87.11   15.55
   1   3  -8   89.21    9.90
  -1   3   7  168.84   16.22
   1   3  -7  179.57   12.72
  -1   3   7  174.40   22.41
  -1   3   7  216.38   16.69
   1   3  -7  171.64   11.19
   1   3  -7  197.48   12.57
  -1   3   7  188.02   17.95
  -1   3   6  386.69   25.18
  -1   3   6  506.67   26.50
   1   3  -6  544.33   22.02
  -1   3   6  363.74   33.05
   1   3  -6  548.07   21.06
   1   3  -6  533.27   23.61
   1   3  -6  669.48   27.55
  -1   3   6  447.73   25.86
   1   3  -5   38.21    4.45
  -1   3   5   35.71    6.12
  -1   3   5   32.48    5.83
   1   3  -5   40.79    4.88
  -1   3   5   38.77    5.98
  -1   3   5   27.35    8.48
   1   3  -4  456.92   17.75
   1   3  -4  394.14   17.86
   1   3  -4  462.04   16.80
   1   3  -4  445.71   16.98
   1   3  -4  466.14   20.66
  -1   3   4  405.43   21.37
  -1   3   4  492.54   21.75
  -1   3   4  414.56   19.73
   1   3  -3   86.35    7.64
  -1   3   3   68.75    5.93
  -1   3   3   74.26    7.64
  -1   3   3   81.14    4.91
   1   3  -3   68.26    5.84
   1   3  -2  348.92   11.55
  -1   3   2  337.96   13.50
   1   3  -1  960.83   27.26
   1   3  -1  951.20   26.55
   1   3   0 1081.89   29.18
   1   3   0 1011.36   26.42
   1   3   1   45.65    3.75
   1   3   2   77.21    5.32
   1   3   2   63.53    8.55
  -1   3  -2   71.66    6.58
  -1   3  -2   57.82    4.63
   1   3   2   52.86    5.72
  -1   3  -2   71.14    6.02
   1   3   2   50.76    5.94
   1   3   2   56.66    7.34
   1   3   3 1825.81   61.13
  -1   3  -3 1845.26   52.43
   1   3   3 1799.68   54.88
  -1   3  -3 1717.02   53.08
  -1   3  -3 1763.28   51.07
  -1   3  -3 1900.18   54.65
  -1   3  -3 1735.26   50.81
   1   3   3 1770.16   55.33
  -1   3  -4  709.32   29.78
  -1   3  -4  784.19   30.67
  -1   3  -4  876.18   27.36
   1   3   4  934.14   37.17
   1   3   4  863.97   34.47
   1   3   4  804.71   27.78
   1   3   4  563.05   28.02
   1   3   4  587.00   36.22
  -1   3  -4  682.45   27.99
   1   3   4  801.50   33.19
  -1   3  -4  683.17   26.49
   1   3   5  303.27   18.68
  -1   3  -5  409.51   17.90
  -1   3  -5  400.84   20.55
   1   3   5  251.22   23.55
   1   3   5  410.09   26.33
   1   3   5  369.10   23.71
   1   3   5  295.89   21.09
  -1   3  -5  378.29   20.50
  -1   3  -5  286.51   17.13
  -1   3  -5  347.78   18.75
   1   3   6  234.80   16.80
  -1   3  -6  237.80   15.67
  -1   3  -6  255.98   12.17
   1   3   6  246.13   21.45
   1   3   6  252.02   23.26
   1   3   6  215.41   19.44
  -1   3  -6  288.69   18.66
  -1   3  -6  276.06   14.74
   1   3   7  210.19   21.67
  -1   3  -7  246.22   16.89
   1   3   7  190.49   20.95
  -1   3  -7  222.22   15.68
   1   3   7  260.22   24.88
  -1   3  -7  276.52   12.49
  -1   3  -7  238.10   17.51
  -1   3  -7  225.51   13.59
  -1   3  -8   49.48    7.62
   1   3   8   42.54    9.87
  -1   3  -8   45.67    6.64
  -1   3  -8   48.07    7.32
  -1   3  -8   38.09    5.19
  -1   3  -8   46.89    4.81
   1   3   8   42.03    9.35
  -1   3  -9   81.21    8.06
  -1   3  -9   77.03    5.88
  -1   3  -9   74.28    8.80
   1   3   9   87.81   13.30
  -1   3  -9   69.63    8.29
  -1   3 -10  265.97   14.94
  -1   3 -10  278.58   15.62
   1   3  10  251.65   19.21
   1   3  10  288.29   20.84
  -1   3 -11   36.45    3.93
   1   3  11   33.05    5.09
  -1   3 -11   34.78    3.94
   1   4 -10  223.36   13.98
  -1   4  10  228.87   17.00
   1   4 -10  200.39   10.97
  -1   4   9   39.65    8.26
   1   4  -9   37.47    5.17
   1   4  -9   44.54    4.11
   1   4  -9   48.33    7.07
  -1   4   9   44.28    9.91
  -1   4   8  246.17   17.82
   1   4  -8  168.71   13.08
  -1   4   8  158.65   15.90
   1   4  -8  205.06   10.64
  -1   4   8  231.37   25.40
   1   4  -8  181.09   12.46
   1   4  -8  189.56   15.04
  -1   4   8  177.92   17.92
  -1   4   7  335.33   22.12
  -1   4   7  229.43   20.15
  -1   4   7  282.04   29.39
   1   4  -7  272.87   15.46
   1   4  -7  324.04   19.38
   1   4  -7  256.13   14.75
  -1   4   7  237.59   19.04
  -1   4   6  222.93   26.76
  -1   4   6  307.40   21.99
   1   4  -6  286.61   15.78
  -1   4   6  276.80   19.40
  -1   4   6  240.62   19.54
   1   4  -6  340.83   20.26
   1   4  -6  296.14   18.40
   1   4  -6  311.80   15.26
  -1   4   5  365.17   24.02
   1   4  -5  354.44   17.64
   1   4  -5  410.56   20.27
   1   4  -5  423.14   17.91
   1   4  -5  412.51   21.89
  -1   4   5  399.47   23.05
  -1   4   4  306.75   20.98
   1   4  -4  295.32   14.94
  -1   4   4  361.55   19.37
   1   4  -4  374.34   16.98
   1   4  -4  371.72   15.94
   1   4  -4  381.06   15.82
   1   4  -4  356.36   18.82
   1   4  -4  363.94   18.54
  -1   4   4  262.10   25.82
   1   4  -3  337.30   13.77
   1   4  -3  325.95   16.29
  -1   4   3  294.92   15.68
   1   4  -3  282.11   14.07
   1   4  -3  324.07   16.77
   1   4  -2  312.44   15.54
   1   4  -2  321.95   13.26
   1   4  -2  320.12   15.69
   1   4  -2  290.75   12.91
  -1   4   2  277.77   20.92
   1   4  -2  333.98   14.25
   1   4  -1  655.18   23.50
  -1   4   1  536.78   27.55
  -1   4   1  492.11   20.84
  -1   4   1  577.88   24.80
   1   4  -1  624.24   19.54
   1   4  -1  647.15   22.69
   1   4  -1  640.47   24.61
  -1   4   1  642.18   20.34
   1   4  -1  578.63   18.28
   1   4  -1  532.15   22.54
  -1   4   0  999.28   35.64
  -1   4   0 1260.84   35.80
   1   4   0 1300.94   34.14
   1   4   0 1321.99   40.61
  -1   4   0 1078.06   36.39
   1   4   0 1229.19   42.37
   1   4   0 1085.27   39.44
  -1   4   0 1111.90   36.31
  -1   4   0 1268.28   35.25
  -1   4   0 1263.19   39.07
  -1   4  -1   40.25    4.62
  -1   4  -1   35.54    4.22
  -1   4  -1   32.37    3.81
   1   4   1   38.69    6.58
  -1   4  -1   30.87    4.48
   1   4   1   36.32    5.47
  -1   4  -1   29.22    3.94
   1   4   1   46.20    4.25
   1   4   1   33.54    5.16
  -1   4  -2  296.27   15.93
   1   4   2  286.26   16.65
  -1   4  -2  315.98   15.05
  -1   4  -2  293.92   13.68
   1   4   2  319.04   21.91
  -1   4  -2  267.84   14.77
  -1   4  -3   31.82    5.22
  -1   4  -3   42.31    4.85
  -1   4  -3   36.43    5.86
   1   4   3   35.63    6.21
   1   4   3   34.94    5.86
   1   4   3   38.16    6.53
  -1   4  -3   38.05    5.17
   1   4   3   27.47    7.22
  -1   4  -4  534.35   20.69
  -1   4  -4  402.29   21.74
   1   4   4  304.27   27.29
  -1   4  -4  422.60   19.92
   1   4   4  434.95   24.75
   1   4   4  472.59   25.79
   1   4   4  357.55   22.89
  -1   4  -4  418.99   22.39
  -1   4  -5  248.54   17.23
   1   4   5  287.82   21.56
   1   4   5  253.85   20.10
  -1   4  -5  283.77   18.14
  -1   4  -5  253.79   15.69
   1   4   5  232.23   18.05
  -1   4  -6  105.50    7.90
  -1   4  -6  136.97   12.55
   1   4   6  100.73   16.07
   1   4   6  112.75   14.51
   1   4   6  127.09   13.05
  -1   4  -6  137.52   10.49
   1   4   6   90.82   13.12
  -1   4  -6  113.91   11.55
   1   4   7   27.73    7.82
   1   4   7   56.87    8.50
  -1   4  -7   42.08    7.06
   1   4   7   36.56    9.09
  -1   4  -7   45.26    7.38
   1   4   7   44.28   10.44
  -1   4  -7   47.09    5.12
  -1   4  -7   41.91    5.82
   1   4   8   24.31    7.25
   1   4   8   40.31    9.17
  -1   4  -8   32.09    5.85
  -1   4  -8   36.30    4.28
   1   4   8   26.40    7.72
  -1   4  -9  246.51   14.99
  -1   4  -9  246.22   11.01
   1   4   9  219.94   18.95
   1   4   9  251.91   20.20
  -1   4 -10   52.00    5.58
   1   4  10   45.63    6.47
  -1   4 -10   47.28    4.80
  -1   5  10   17.81    4.00
   1   5 -10   18.00    3.20
   1   5  -9  222.86   14.13
   1   5  -9  245.38    9.91
   1   5  -9  205.74   11.83
   1   5  -8  171.81    9.48
  -1   5   8  221.57   15.74
   1   5  -8  151.10   11.00
  -1   5   8  216.44   22.45
   1   5  -8  165.80   13.21
  -1   5   7  102.69   12.05
  -1   5   7   70.51   10.22
   1   5  -7   79.07    9.39
  -1   5   7   94.76   16.45
  -1   5   6  245.53   19.25
   1   5  -6  307.37   18.98
   1   5  -6  248.27   17.67
  -1   5   6  331.03   23.64
   1   5  -6  295.75   16.90
   1   5  -5  254.58   15.55
   1   5  -5  220.79   16.11
  -1   5   5  187.30   24.15
  -1   5   5  236.43   20.49
   1   5  -4  507.52   23.39
   1   5  -4  465.90   21.47
   1   5  -4  516.61   24.87
  -1   5   3   20.83    5.78
   1   5  -3   29.17    4.86
  -1   5   3   20.30    4.14
  -1   5   3   27.07    7.90
   1   5  -3   27.17    4.68
   1   5  -2  831.95   27.06
  -1   5   2  527.75   30.26
   1   5  -2  674.58   27.55
  -1   5   2  629.63   26.82
   1   5  -2  850.05   27.70
   1   5  -2  752.88   27.79
  -1   5   2  835.41   39.83
  -1   5   1  365.50   17.92
  -1   5   1  420.46   22.46
   1   5  -1  316.06   17.47
   1   5  -1  454.55   21.01
   1   5  -1  432.49   17.54
  -1   5   1  397.10   16.98
   1   5  -1  444.07   19.91
  -1   5   1  410.52   23.56
   1   5  -1  394.50   19.75
  -1   5   0  270.30   13.58
  -1   5   0  216.80   13.46
   1   5   0  319.87   17.88
   1   5   0  283.29   13.53
   1   5   0  250.99   15.62
   1   5   0  300.91   18.30
  -1   5   0  292.00   15.30
  -1   5   0  313.51   16.91
  -1   5  -1  335.54   15.90
  -1   5  -1  333.72   15.89
   1   5   1  282.81   18.08
  -1   5  -1  300.43   16.39
   1   5   1  357.03   22.30
   1   5   1  256.84   16.58
  -1   5  -1  270.31   14.14
  -1   5  -1  273.81   15.56
   1   5   1  350.96   20.12
  -1   5  -1  271.67   15.03
  -1   5  -2  208.95   13.06
  -1   5  -2  207.81   14.16
   1   5   2  159.02   14.67
  -1   5  -2  210.11   12.45
   1   5   2  202.95   15.25
   1   5   2  223.90   19.44
   1   5   3  547.75   36.19
   1   5   3  634.27   31.15
  -1   5  -3  602.28   26.22
  -1   5  -3  621.63   28.86
   1   5   4  252.86   19.42
   1   5   4  231.60   19.58
  -1   5  -4  238.27   14.99
  -1   5  -4  220.50   15.69
  -1   5  -4  217.56   16.64
   1   5   4  220.37   23.51
  -1   5  -5  111.44   10.35
  -1   5  -5  100.08   10.47
  -1   5  -5  118.73   10.23
  -1   5  -5   98.78   11.14
   1   5   5  115.05   13.47
   1   5   5  116.02   13.81
  -1   5  -6  233.44   16.17
  -1   5  -6  300.88   19.24
   1   5   6  260.30   21.48
   1   5   6  259.14   25.88
  -1   5  -6  271.27   13.23
  -1   5  -7   34.72    6.32
   1   5   7   44.16   10.27
  -1   5  -7   39.35    4.60
   1   5   7   49.38    7.79
  -1   5  -7   30.21    5.34
   1   5   7   26.88    7.24
  -1   5  -8  149.01   10.54
   1   5   8  133.32   13.71
  -1   5  -8  156.28   12.20
  -1   5  -8  168.33    8.86
  -1   5  -9   17.99    3.58
   1   5   9   26.78    5.33
  -1   5  -9   18.31    2.40
  -1   5 -10   85.72    5.87
  -1   5 -10  123.54    6.93
  -1   6   9   35.35    5.70
   1   6  -9   22.92    3.17
  -1   6   8  311.19   22.58
  -1   6   8  295.99   15.85
   1   6  -8  273.22   11.03
   1   6  -8  243.68   13.92
   1   6  -8  231.91   12.56
   1   6  -7   42.60    5.55
   1   6  -7   38.41    5.77
  -1   6   7   54.61    8.08
   1   6  -6  163.10   12.84
   1   6  -6  169.82   13.71
  -1   6   6  193.38   22.40
   1   6  -6  193.37   12.91
   1   6  -5  369.51   19.32
   1   6  -5  252.02   16.75
  -1   6   5  269.97   27.32
  -1   6   5  316.63   24.03
   1   6  -5  314.33   17.42
  -1   6   4   56.11    6.99
   1   6  -4   61.38    7.28
  -1   6   3  320.31   17.78
  -1   6   3  358.96   27.51
   1   6  -3  317.90   17.21
  -1   6   3  281.60   22.37
   1   6  -3  325.05   17.17
   1   6  -3  353.86   18.15
  -1   6   2   46.01    8.12
   1   6  -2   56.55    6.21
  -1   6   2   52.82    6.71
   1   6  -2   51.86    6.84
   1   6  -2   53.73    5.95
  -1   6   2   62.84    9.94
   1   6  -2   57.59    6.51
   1   6  -1    5.92    3.05
   1   6  -1    7.77    2.86
  -1   6   1    4.06    2.60
  -1   6   1    5.37    2.19
  -1   6   1    6.18    3.22
  -1   6   1    3.46    2.47
   1   6  -1    2.86    2.39
  -1   6   0   78.11    8.53
   1   6   0   48.78    6.92
   1   6   0   80.13    9.09
   1   6   0   71.44    8.53
  -1   6   0   44.84    5.88
   1   6   0   76.34    7.20
  -1   6   0   55.01    6.86
   1   6   0   75.33    9.26
   1   6   1    7.24    3.61
   1   6   1    5.59    3.39
  -1   6  -1    2.60    1.77
   1   6   1    2.68    1.83
  -1   6  -1    3.20    2.38
   1   6   1    3.41    2.72
  -1   6  -2  407.34   21.28
   1   6   2  343.23   24.51
   1   6   2  550.62   31.99
   1   6   2  420.90   23.76
  -1   6  -2  503.27   21.25
   1   6   2  463.17   19.95
   1   6   3  325.47   24.09
  -1   6  -3  378.74   21.46
  -1   6  -3  364.82   20.74
   1   6   3  329.41   21.44
   1   6   3  361.86   28.35
   1   6   3  381.45   23.25
   1   6   4  309.35   21.34
  -1   6  -4  325.94   20.15
   1   6   4  251.40   25.17
   1   6   4  350.83   24.88
   1   6   4  277.35   19.88
  -1   6  -5  273.00   17.07
   1   6   5  305.51   21.03
   1   6   5  332.92   29.15
  -1   6  -5  275.38   18.59
  -1   6  -6  138.34    8.71
  -1   6  -6  123.40   11.38
   1   6   7  227.12   19.85
  -1   6  -7  170.53   12.38
   1   6   7  137.41   11.46
   1   6   7  230.24   14.60
  -1   6  -7  198.68    9.59
  -1   6  -8   14.71    2.21
  -1   6  -8   11.35    2.66
  -1   6  -8   14.55    3.07
   1   6   8   21.88    5.23
   1   7  -7    5.01    1.55
  -1   7   7    6.84    2.60
  -1   7   7    8.00    3.63
  -1   7   6  162.62   13.03
  -1   7   6  148.77   15.27
  -1   7   5    8.26    4.34
   1   7  -5    8.78    3.09
   1   7  -4   76.50    7.58
  -1   7   4   62.81    9.69
  -1   7   4   50.87    6.91
  -1   7   4   64.84   10.59
  -1   7   3    0.24    2.08
  -1   7   3    1.15    2.05
  -1   7   3    1.81    3.09
   1   7  -3    2.83    2.12
   1   7  -2  186.21   12.46
  -1   7   2  197.06   15.68
  -1   7   2  148.02   11.78
  -1   7   2  168.93   14.79
   1   7  -2  125.69   10.32
  -1   7   1   89.57    9.73
   1   7  -1   68.80    7.41
  -1   7   1   70.34    7.82
   1   7  -1   81.71    7.81
   1   7  -1   74.50    8.15
   1   7   0   21.45    4.31
   1   7   0   32.10    5.56
  -1   7   0   30.39    5.02
   1   7   0   20.48    4.72
  -1   7   0   22.80    4.49
   1   7   1  182.81   14.52
   1   7   1  142.51   10.56
   1   7   1  110.44   10.92
   1   7   1  172.22   13.47
  -1   7  -1  142.73   10.52
   1   7   2  249.62   13.53
   1   7   2  173.78   15.93
  -1   7  -2  271.85   14.36
   1   7   2  308.01   21.71
   1   7   2  234.22   16.15
   1   7   2  175.97   14.31
   1   7   3   29.00    7.00
   1   7   3   25.36    6.30
   1   7   3   19.66    4.77
  -1   7  -3   26.64    4.52
  -1   7  -4  123.36    9.82
   1   7   4  113.01   14.19
   1   7   4  119.20   10.86
  -1   7  -5  320.30   15.98
  -1   7  -5  442.74   15.52
   1   7   5  525.70   30.26
   1   7   5  372.16   18.82
   1   7   5  571.50   26.21
   1   7   6  243.25   14.22
   1   7   6  260.70   19.20
  -1   7  -7   54.73    3.73
   1   8  -6   39.40    2.87
  -1   8   6   33.68    3.93
   1   8  -5  156.83    7.38
  -1   8   5  150.30    8.46
  -1   8   4   10.51    2.58
   1   8  -4   10.51    2.59
  -1   8   4   10.96    3.34
  -1   8   3  180.13   10.86
  -1   8   3  172.22   12.66
  -1   8   2  173.58   12.04
  -1   8   2  157.76   10.22
   1   8  -1   39.25    5.12
  -1   8   1   38.05    4.90
  -1   8   1   38.18    4.82
  -1   8   0  229.87   11.92
   1   8   0  220.75   12.88
   1   8   0  220.70   12.27
   1   8   1   96.10    8.55
   1   8   1   89.33    8.19
  -1   8  -1  109.91    7.68
  -1   8  -2   22.41    3.42
  -1   8  -2   13.97    2.49
   1   8   2   19.59    4.27
   1   8   2   16.84    3.75
  -1   8  -3   38.09    4.50
   1   8   3   38.67    5.29
  -1   8  -3   43.34    3.91
   1   8   3   45.81    6.29
  -1   8  -4  198.49    8.30
   1   8   4  176.34   12.03
   1   8   5  627.04   22.17
  -1   8  -5  589.27   16.74
  -2  -8   6   61.98    5.94
  -2  -8   6   61.81    6.30
  -2  -8   5   27.83    2.90
   2  -8  -5   34.59    2.84
  -2  -8   4   15.51    2.52
  -2  -8   2   12.25    2.33
  -2  -8   0   91.49    6.30
  -2  -8  -1  319.12   13.62
  -2  -8  -2   38.08    4.00
  -2  -8  -3   45.28    4.09
   2  -7  -8   51.79    3.73
  -2  -7   8   81.53    8.14
   2  -7  -7   61.70    3.91
  -2  -7   7   98.30    8.88
   2  -7  -7   67.65    4.92
  -2  -7   7   31.10    5.28
  -2  -7   7  102.78   10.12
  -2  -7   6   28.39    5.95
   2  -7  -6   24.62    2.63
  -2  -7   6   32.33    4.29
   2  -7  -5  155.17    7.69
  -2  -7   5  239.48   11.86
  -2  -7   4  211.50   11.17
  -2  -7   3   95.51    7.68
  -2  -7  -1  239.38   12.09
  -2  -7  -2  312.31   14.62
  -2  -7  -2  354.66   15.54
  -2  -7  -3  139.53    8.88
  -2  -7  -3  114.04    8.17
  -2  -7  -4  102.87    7.37
  -2  -7  -4  120.93    7.85
  -2  -7  -5  302.45   12.07
  -2  -7  -5  303.46   12.23
   2  -7   6    8.13    7.33
  -2  -7  -6   11.04    1.82
  -2  -7  -6   12.99    2.11
  -2  -7  -6   14.59    2.27
  -2  -7  -6   10.17    1.88
   2  -6  -9   97.44    6.49
   2  -6  -9   85.08    5.28
  -2  -6   9  171.56   15.03
  -2  -6   9  166.56   13.47
  -2  -6   9   98.50   14.62
   2  -6  -9  110.49    6.04
   2  -6  -9  108.45    6.30
   2  -6  -8  249.04   10.82
  -2  -6   8  409.14   26.68
   2  -6  -8  212.82    9.72
  -2  -6   8  433.26   23.01
  -2  -6   8  372.02   21.56
  -2  -6   7   88.08    7.81
   2  -6  -7   61.84    4.78
   2  -6  -7   64.55    5.22
  -2  -6   7   88.54   11.02
   2  -6  -6  180.62    9.00
  -2  -6   6  192.77   17.30
   2  -6  -6  177.21    8.54
   2  -6  -5  140.92    7.67
  -2  -6   5  221.02   11.71
  -2  -6   4  223.77   12.22
  -2  -6  -1  138.48    9.85
  -2  -6  -2  245.40   15.37
  -2  -6  -3   63.47    6.86
  -2  -6  -3   75.89    7.40
  -2  -6  -3   62.05    7.76
  -2  -6  -4  489.16   24.84
  -2  -6  -4  472.95   22.36
  -2  -6  -5   81.88    7.09
   2  -6   5   52.14    7.98
  -2  -6  -5   54.76    7.15
  -2  -6  -5   64.82    6.86
  -2  -6  -5   84.25    7.42
   2  -6   6   20.74    5.09
  -2  -6  -6   24.17    4.44
  -2  -6  -6   27.32    3.99
  -2  -6  -6   24.94    4.04
   2  -6   6   25.51    6.56
   2  -6   7   42.93   15.87
  -2  -6  -7   47.82    3.78
  -2  -6  -7   56.01    4.78
  -2  -6  -7   44.67    4.73
   2  -6   7   47.17    8.20
  -2  -6  -7   49.43    5.47
  -2  -6  -8    9.72    2.08
  -2  -6  -8    8.96    1.73
  -2  -6  -8    8.24    1.56
   2  -6   8    8.75   12.27
  -2  -6  -8    7.64    1.71
   2  -5 -10   31.67    3.81
   2  -5 -10   27.79    2.99
   2  -5  -9  113.95    7.04
   2  -5  -9   97.38    6.54
  -2  -5   9  197.53   15.85
   2  -5  -9  123.91    7.69
  -2  -5   9  226.39   17.24
  -2  -5   9  245.08   19.12
  -2  -5   9  250.84   22.34
   2  -5  -8   90.41    6.39
  -2  -5   8   95.52    8.56
   2  -5  -8   74.38    5.98
   2  -5  -8   94.22    6.86
   2  -5  -8   81.43    5.93
  -2  -5   8  123.33   13.06
  -2  -5   8  129.68   15.28
   2  -5  -7  106.10    7.27
   2  -5  -7  118.50    7.46
   2  -5  -7  121.77    7.63
  -2  -5   6  192.88   17.48
  -2  -5   6  197.30   11.20
  -2  -5   6  153.34    9.74
  -2  -5   5   48.40    5.24
  -2  -5   4 1034.54   35.61
  -2  -5  -1   14.85    3.64
  -2  -5  -2  196.20   12.49
  -2  -5  -3  492.86   18.33
  -2  -5  -3  539.60   23.54
  -2  -5  -4   15.64    2.87
  -2  -5  -4   13.99    3.82
  -2  -5  -5  323.03   15.88
  -2  -5  -5  286.97   16.54
  -2  -5  -6  111.93    8.36
  -2  -5  -6   96.07    8.90
   2  -5   6   79.62   10.55
  -2  -5  -6   79.55    6.46
   2  -5   6   81.77   11.72
  -2  -5  -7  128.65    9.98
  -2  -5  -7  155.19   10.15
  -2  -5  -7  142.68    9.38
  -2  -5  -7  142.90    9.02
   2  -5   7  110.06   12.68
   2  -5   7  150.34   16.28
  -2  -5  -8  269.63   12.24
   2  -5   8  181.01   30.87
  -2  -5  -8  265.34   11.60
   2  -5   8  167.20   17.83
  -2  -5  -8  254.65   13.10
   2  -5   9   54.73   10.23
   2  -5   9   51.21   16.57
   2  -5   9   78.10   24.46
  -2  -5  -9   75.69    5.90
   2  -4 -11  151.99    8.36
  -2  -4  11  103.83   12.99
   2  -4 -10  134.33    7.54
  -2  -4  10  242.65   20.83
   2  -4 -10  103.22    7.04
  -2  -4  10   80.69   14.08
   2  -4 -10  115.96    7.54
   2  -4 -10  105.05    7.52
  -2  -4  10  153.68   14.73
  -2  -4  10  250.34   20.08
  -2  -4   9   22.35    6.94
  -2  -4   9   20.79    6.31
   2  -4  -9   12.75    2.89
   2  -4  -9    0.07    2.68
  -2  -4   9   21.02    7.12
   2  -4  -9   12.83    2.72
   2  -4  -9   11.65    2.80
  -2  -4   9   19.62    6.28
   2  -4  -8  144.89    9.36
   2  -4  -8  157.10    9.32
  -2  -4   8  189.73   15.94
  -2  -4   8  147.41   10.71
  -2  -4   8  200.39   18.58
  -2  -4   8  157.03   14.72
   2  -4  -8  155.82    9.23
  -2  -4   7  157.49   10.02
   2  -4  -7  144.68    8.84
  -2  -4   7  151.42   10.63
   2  -4  -7  157.95    9.39
  -2  -4   6   31.50    4.13
   2  -4  -6   32.48    3.87
  -2  -4   6   47.62    5.00
  -2  -4   6   44.58    7.99
  -2  -4   5 1192.87   32.68
  -2  -4   5  697.38   25.40
  -2  -4   4  307.62   14.62
  -2  -4   3  657.92   33.56
   2  -4  -3  504.04   19.46
   2  -4  -2   79.65   10.28
  -2  -4   2   97.99   10.46
   2  -4  -1   30.09    6.43
  -2  -4   1   43.63    5.36
  -2  -4   1   37.61    5.10
  -2  -4   0  386.45   18.51
  -2  -4   0  440.39   21.10
   2  -4   1  842.37   28.99
  -2  -4  -1  545.83   25.02
  -2  -4  -1  681.67   26.06
  -2  -4  -3  125.21    7.25
  -2  -4  -4  413.33   15.86
  -2  -4  -4  382.55   14.71
  -2  -4  -5   30.96    3.67
  -2  -4  -5   42.05    6.05
  -2  -4  -5   32.11    4.06
  -2  -4  -6   68.61    6.80
  -2  -4  -6   67.99    7.68
   2  -4   6   30.84    6.32
  -2  -4  -6   54.45    5.45
   2  -4   6   44.18    8.70
   2  -4   6   46.52    8.00
  -2  -4  -7  120.14    8.87
   2  -4   7  105.19   13.67
  -2  -4  -7  117.51    8.43
   2  -4   7   87.66   11.55
  -2  -4  -8   96.04    7.41
  -2  -4  -8  101.00    8.59
  -2  -4  -8  106.35    9.21
   2  -4   8   69.41   12.67
  -2  -4  -8   94.96    6.97
   2  -4   8   51.90   20.28
   2  -4   8  101.17   14.27
   2  -4   8   56.03    9.13
   2  -4   9    5.01    4.76
  -2  -4  -9    8.18    2.03
  -2  -4  -9    6.06    1.62
  -2  -4  -9    8.79    2.49
   2  -4   9    5.64    3.23
  -2  -4  -9    7.95    2.51
  -2  -4  -9    8.71    2.68
  -2  -4 -10   26.50    3.04
  -2  -4 -10   26.70    3.10
  -2  -4 -10   20.68    2.66
   2  -3 -12   69.42    5.82
  -2  -3  12   83.44    8.45
   2  -3 -11  301.69   14.33
  -2  -3  11  243.76   21.81
   2  -3 -10  138.48    8.77
   2  -3 -10  150.58    9.99
   2  -3 -10  155.18    9.18
  -2  -3  10  171.35   15.93
   2  -3  -9  613.40   23.27
   2  -3  -9  609.90   24.32
  -2  -3   9  711.12   34.16
   2  -3  -9  624.10   23.16
  -2  -3   9  757.35   33.34
  -2  -3   8   23.39    6.33
   2  -3  -8   21.75    3.56
   2  -3  -8   20.76    3.69
  -2  -3   8   24.56    5.88
  -2  -3   8   22.08    6.05
  -2  -3   7  235.76   13.16
   2  -3  -7  278.98   12.92
  -2  -3   7  277.71   13.08
   2  -3  -7  261.79   12.22
  -2  -3   7  292.08   17.54
  -2  -3   7  270.13   19.15
  -2  -3   6  568.16   25.14
  -2  -3   6  538.52   18.63
  -2  -3   6  603.75   23.57
  -2  -3   6  433.39   17.33
   2  -3  -6  443.78   17.55
  -2  -3   5  390.08   14.32
  -2  -3   5  389.48   14.57
  -2  -3   5  346.27   13.48
  -2  -3   4  718.59   22.26
  -2  -3   4  820.44   24.76
  -2  -3   4  713.47   30.19
  -2  -3   4  794.75   35.58
   2  -3  -4  734.31   22.55
  -2  -3   4  716.88   22.43
  -2  -3   3  168.50    8.45
  -2  -3   3  235.14   11.48
  -2  -3   3  166.50   13.94
   2  -3  -3  222.82    7.98
   2  -3  -3  117.65   10.97
  -2  -3   3  197.47   11.93
   2  -3  -3  130.87    7.36
   2  -3  -2  373.75   13.50
  -2  -3   2  394.70   22.25
  -2  -3   2  441.46   17.72
  -2  -3   2  379.20   21.54
  -2  -3   2  470.82   16.33
   2  -3  -2  342.10   20.13
   2  -3  -2  435.17   14.18
   2  -3  -1 1258.28   34.76
  -2  -3   1 1148.05   41.34
   2  -3  -1 1343.95   37.40
   2  -3  -1 1097.99   44.13
  -2  -3   1 1232.06   39.04
   2  -3  -1 1250.48   36.38
  -2  -3   0  993.12   35.40
  -2  -3   0  898.94   32.14
   2  -3   0 1013.35   26.81
   2  -3   0 1075.49   30.76
   2  -3   0  990.40   26.44
  -2  -3   0 1011.61   31.56
   2  -3   0 1144.15   30.82
   2  -3   1  514.16   14.43
  -2  -3  -1  489.23   15.83
  -2  -3  -1  474.90   20.94
   2  -3   1  565.96   21.14
  -2  -3  -1  507.55   20.91
   2  -3   1  616.33   25.81
   2  -3   1  459.24   14.34
  -2  -3  -2  624.79   16.70
   2  -3   2  484.90   19.02
  -2  -3  -2  529.05   23.26
  -2  -3  -2  600.50   21.84
   2  -3   2  590.80   20.22
   2  -3   2  421.54   14.80
   2  -3   2  467.40   24.98
   2  -3   3 1055.81   41.60
  -2  -3  -3 1552.07   39.11
  -2  -3  -3 1579.01   49.93
  -2  -3  -3 1689.83   40.24
   2  -3   3 1150.50   49.19
  -2  -3  -3 1362.82   41.37
  -2  -3  -4    9.80    2.47
  -2  -3  -4   12.11    2.09
  -2  -3  -4   11.53    2.22
  -2  -3  -5    6.45    1.92
  -2  -3  -5    3.76    2.01
  -2  -3  -5    6.86    2.05
   2  -3   5    3.94    2.48
   2  -3   5    3.19    2.37
  -2  -3  -6    1.92    1.56
  -2  -3  -6    1.78    1.89
  -2  -3  -6    2.73    1.89
  -2  -3  -6    2.04    2.14
   2  -3   6    1.30    2.94
   2  -3   6    1.94    2.24
   2  -3   6    1.68    2.91
  -2  -3  -7  264.82   14.99
  -2  -3  -7  199.24   11.29
   2  -3   7  159.37   16.38
   2  -3   7  206.63   18.83
  -2  -3  -7  239.81   12.79
   2  -3   7  174.93   16.64
  -2  -3  -7  241.55   12.34
   2  -3   7  151.91   25.71
  -2  -3  -8  152.98    9.18
  -2  -3  -8  160.18   11.38
   2  -3   8  153.41   17.41
  -2  -3  -8  156.78    9.89
   2  -3   9    0.59    2.43
  -2  -3  -9    2.07    1.94
  -2  -3  -9    0.11    0.88
   2  -3   9    7.86    8.81
   2  -3   9    1.21    4.50
  -2  -3  -9    1.49    1.70
  -2  -3  -9    0.30    1.43
  -2  -3 -10  146.54    9.57
  -2  -3 -10  139.60    8.37
   2  -3  10   96.62   14.76
   2  -3  10  177.72   21.06
   2  -3  10  121.10   14.05
  -2  -3 -10  138.45    8.20
  -2  -2  12    6.02    3.23
  -2  -2  12    5.42    2.74
  -2  -2  12    8.50    3.61
   2  -2 -12    5.90    2.07
  -2  -2  11  129.47   13.61
  -2  -2  11  144.83   14.36
   2  -2 -10    6.00    2.23
  -2  -2  10    6.87    6.94
  -2  -2  10    9.87    5.15
  -2  -2  10   10.59    5.24
   2  -2 -10    7.05    2.23
   2  -2  -9  209.54   12.55
  -2  -2   9  314.69   22.16
   2  -2  -9  233.58   11.92
  -2  -2   9  250.48   18.47
   2  -2  -9  240.87   11.93
  -2  -2   9  259.84   18.29
  -2  -2   9  302.31   21.90
  -2  -2   9  147.56   19.73
   2  -2  -9  228.98   12.25
  -2  -2   9  234.44   18.92
   2  -2  -8  401.34   17.08
  -2  -2   8  446.84   25.18
  -2  -2   8  434.05   22.97
  -2  -2   8  474.87   26.57
   2  -2  -8  449.33   18.35
   2  -2  -8  435.68   16.97
  -2  -2   8  436.04   23.56
   2  -2  -8  423.29   16.85
  -2  -2   7   14.26    4.27
  -2  -2   7    7.33    3.62
  -2  -2   7    5.93    2.26
   2  -2  -7    7.20    2.21
  -2  -2   7    2.36    2.89
  -2  -2   7    7.85    3.26
  -2  -2   7    6.77    3.44
   2  -2  -7    8.05    2.19
   2  -2  -6  116.49    7.23
  -2  -2   6  106.78    9.23
  -2  -2   6   95.82    8.53
  -2  -2   6   99.62    6.40
  -2  -2   6  103.17    5.63
  -2  -2   6  107.60    6.94
  -2  -2   5  152.22   10.39
   2  -2  -5  113.04    6.72
  -2  -2   5  135.71    6.69
   2  -2  -5  115.51    7.60
  -2  -2   5  129.48    6.62
  -2  -2   5  122.84   12.64
  -2  -2   5  119.05    5.80
  -2  -2   5  119.90   11.34
   2  -2  -5  140.68    7.38
   2  -2  -5  131.31    6.18
   2  -2  -4  708.61   22.04
  -2  -2   4  710.25   21.18
   2  -2  -4  700.31   21.14
  -2  -2   4  698.14   28.23
   2  -2  -3 2160.22   56.70
  -2  -2   3 2336.01   62.81
   2  -2  -3 2393.87   57.95
  -2  -2   3 2122.24   56.91
  -2  -2   2 1635.33   49.68
   2  -2  -2 1595.88   39.37
   2  -2  -1 1112.98   29.67
   2  -2  -1 1048.66   35.78
  -2  -2   1 1074.48   31.58
   2  -2   0  418.42   14.11
  -2  -2   0  447.12   16.37
   2  -2   0  473.01   15.42
   2  -2   0  513.89   16.18
  -2  -2   0  468.49   18.48
   2  -2   0  407.32   11.51
   2  -2   1  323.58   12.92
   2  -2   1  314.28   13.33
   2  -2   1  319.06   12.13
  -2  -2  -1  292.79   13.48
   2  -2   2 1451.46   38.04
  -2  -2  -2 1531.12   39.17
  -2  -2  -3  534.64   16.32
   2  -2   3  402.73   18.21
  -2  -2  -3  590.22   22.86
   2  -2   3  399.48   22.92
   2  -2   4  243.83   15.44
  -2  -2  -4  361.12   12.86
  -2  -2  -4  386.20   18.60
   2  -2   4  195.49   13.04
  -2  -2  -4  326.47   14.68
  -2  -2  -4  397.14   14.50
  -2  -2  -4  328.76   12.24
   2  -2   4  316.78   16.13
  -2  -2  -5  150.62    9.71
   2  -2   5  101.84    8.87
   2  -2   5  107.29   10.87
  -2  -2  -5  146.67    8.07
  -2  -2  -5  185.43    9.46
   2  -2   5   99.86   10.28
   2  -2   5  102.89    9.65
  -2  -2  -6  241.03   13.36
   2  -2   6  151.49   14.88
  -2  -2  -6  195.43   12.29
   2  -2   6  157.08   13.97
   2  -2   6  169.51   15.13
  -2  -2  -6  232.05   11.18
  -2  -2  -6  236.54   11.70
  -2  -2  -7  175.80   11.95
  -2  -2  -7  204.69   12.86
  -2  -2  -7  200.46   10.62
   2  -2   7  156.87   16.53
   2  -2   7  170.85   17.11
  -2  -2  -7  209.32   11.36
  -2  -2  -8  490.42   21.13
  -2  -2  -8  452.27   18.38
  -2  -2  -8  439.12   17.36
  -2  -2  -9  356.39   19.20
   2  -2   9  233.88   33.34
  -2  -2  -9  306.93   15.47
   2  -2   9  178.40   22.91
   2  -2   9  301.77   24.96
  -2  -2  -9  323.38   16.38
  -2  -2 -10   32.07    4.66
   2  -2  10   39.59   10.45
  -2  -2 -10   31.10    3.85
   2  -2  10   32.43    7.91
  -2  -2 -10   33.74    5.22
  -2  -2 -10   30.89    3.74
  -2  -2 -11  128.60    8.23
   2  -2  11  127.91   16.18
   2  -2  11  135.01   13.95
  -2  -1  12   60.70    6.93
  -2  -1  12   88.15    9.32
  -2  -1  12   98.54   10.42
   2  -1 -12   71.26    6.48
  -2  -1  11   17.89    4.98
  -2  -1  11   21.83    5.74
   2  -1 -11   13.26    3.13
  -2  -1  11   21.22    5.93
   2  -1 -11   15.52    3.38
  -2  -1  10   45.95   12.23
  -2  -1  10   88.35   11.58
   2  -1 -10   63.36    6.78
   2  -1 -10   61.94    6.00
   2  -1 -10   53.38    5.10
  -2  -1  10   84.79   11.80
   2  -1  -9  320.16   15.35
  -2  -1   9  426.60   25.36
   2  -1  -9  288.45   13.54
  -2  -1   9  395.50   24.29
   2  -1  -9  335.33   15.73
   2  -1  -9  298.51   13.52
   2  -1  -8   70.19    6.05
   2  -1  -8   76.93    5.79
  -2  -1   8   88.13   10.67
   2  -1  -8   73.16    5.78
  -2  -1   8   78.01   10.55
  -2  -1   8   81.37   10.34
   2  -1  -8   91.22    7.06
  -2  -1   8   86.36   10.39
   2  -1  -8   76.35    6.61
   2  -1  -7  145.15    8.84
   2  -1  -7  145.01    8.42
   2  -1  -7  170.00    8.99
  -2  -1   7  171.69   13.46
   2  -1  -7  156.70    8.05
  -2  -1   7  165.06   12.74
  -2  -1   7  158.16   12.85
  -2  -1   6  187.61   12.23
   2  -1  -6  197.31    8.78
   2  -1  -6  188.95    9.12
  -2  -1   6  200.34   12.05
   2  -1  -6  163.22    9.31
   2  -1  -6  144.10   10.93
  -2  -1   6  207.80   16.56
   2  -1  -6  204.72    8.25
   2  -1  -6  193.15    8.98
  -2  -1   6  159.34   12.12
  -2  -1   6  182.76   11.29
  -2  -1   6  240.47   13.73
  -2  -1   6  204.11   12.87
  -2  -1   6  108.91   10.32
  -2  -1   6  167.49    9.13
  -2  -1   5  402.48   14.57
   2  -1  -5  409.79   16.71
  -2  -1   5  492.45   17.72
   2  -1  -5  444.93   15.12
  -2  -1   5  400.62   14.31
  -2  -1   5  389.01   20.84
  -2  -1   5  383.43   13.26
   2  -1  -5  432.07   13.43
  -2  -1   5  487.02   18.29
   2  -1  -4 1615.24   42.03
  -2  -1   4 1704.32   43.52
   2  -1  -4 1575.24   39.80
  -2  -1   3 1942.33   57.64
   2  -1  -3 1962.37   52.67
  -2  -1   2 7583.05  197.49
   2  -1  -2 7838.71  192.75
  -2  -1   1  826.27   29.25
   2  -1  -1  869.20   23.75
   2  -1  -1 1022.93   24.74
   2  -1  -1  976.21   28.66
   2  -1  -1  928.81   27.82
   2  -1   0  679.50   21.07
   2  -1   0  746.21   21.39
   2  -1   0  685.39   22.62
  -2  -1   0  747.52   23.47
   2  -1   1 1007.45   23.86
   2  -1   1  939.57   24.76
  -2  -1  -1  908.00   26.57
   2  -1   1 1032.18   27.91
   2  -1   2  772.71   22.31
   2  -1   2  824.26   20.92
  -2  -1  -2  788.18   22.73
  -2  -1  -3  991.41   31.37
  -2  -1  -3  915.56   27.58
   2  -1   3  928.81   34.89
   2  -1   4  523.92   26.16
   2  -1   4  539.35   25.33
   2  -1   4  616.91   24.79
  -2  -1  -4  706.54   25.15
  -2  -1  -4  647.52   16.81
  -2  -1  -4  590.00   22.13
  -2  -1  -4  751.60   23.23
  -2  -1  -4  731.15   20.82
  -2  -1  -4  669.14   21.52
   2  -1   4  377.40   21.99
  -2  -1  -4  716.52   21.09
  -2  -1  -5  439.55   19.02
  -2  -1  -5  426.50   16.68
  -2  -1  -5  404.96   14.19
  -2  -1  -5  361.95   16.23
   2  -1   5  313.44   19.84
  -2  -1  -5  402.11   14.68
   2  -1   5  275.15   18.36
   2  -1   5  236.83   16.78
   2  -1   5  303.76   17.63
  -2  -1  -5  357.04   14.48
  -2  -1  -6   12.96    2.39
  -2  -1  -6   13.57    2.60
  -2  -1  -6   14.98    3.08
  -2  -1  -6   13.86    3.29
   2  -1   6    9.83    4.04
   2  -1   6   11.91    3.69
   2  -1   6   13.89    5.07
  -2  -1  -7  842.82   26.19
   2  -1   7  690.86   39.05
   2  -1   7  668.71   34.47
  -2  -1  -7  908.07   30.49
  -2  -1  -7  867.64   27.29
   2  -1   8  174.04   16.18
   2  -1   8  198.66   20.28
   2  -1   8  152.00   27.79
   2  -1   8  128.95   19.63
  -2  -1  -8  217.91   12.77
   2  -1   8  202.35   22.13
  -2  -1  -9   87.85    7.36
   2  -1   9  111.37   16.60
   2  -1   9   92.61   14.03
   2  -1   9   64.12   13.37
   2  -1   9   62.79    9.50
  -2  -1 -10  154.56   11.61
   2  -1  10  177.41   20.04
   2  -1  10  164.03   17.80
   2  -1  11   50.50    9.50
  -2  -1 -11   30.66    4.00
   2  -1  11   49.22    8.50
   2  -1  11   19.80    5.98
  -2  -1 -11   32.38    4.41
  -2   0  12   19.06    4.93
   2   0 -12   14.87    2.80
  -2   0  12   16.21    4.15
   2   0 -12   12.35    2.53
  -2   0  11   29.69    6.78
  -2   0  11   30.61    6.54
   2   0 -11   28.03    4.91
   2   0 -11   22.59    3.68
  -2   0  11   27.98    5.56
   2   0 -11   22.95    3.88
   2   0 -11   29.10    4.75
   2   0 -10  158.85   11.06
   2   0 -10  167.17   11.09
  -2   0  10  219.03   17.84
  -2   0  10  206.08   16.53
   2   0  -9    0.06    1.05
   2   0  -9    1.63    1.75
  -2   0   9    0.22    2.71
   2   0  -9    0.19    1.58
  -2   0   8 1022.49   39.23
   2   0  -8  832.81   26.99
   2   0  -8  749.26   24.74
  -2   0   8  537.53   40.01
   2   0  -8  877.32   27.57
   2   0  -8  750.11   25.17
   2   0  -8  847.95   28.87
   2   0  -7 2270.23   57.01
   2   0  -7 2083.66   57.15
  -2   0   7 2364.68   65.91
  -2   0   7 2423.16   68.61
   2   0  -7 2140.87   54.74
  -2   0   7 2244.43   70.16
  -2   0   7 2244.83   67.69
   2   0  -7 2052.03   56.17
   2   0  -7 1996.87   55.10
  -2   0   6 2141.61   67.29
   2   0  -6 1970.09   56.33
   2   0  -6 2269.21   54.20
   2   0  -6 2044.73   56.13
  -2   0   6 1988.49   74.05
   2   0  -6 2190.80   55.03
  -2   0   6 2324.83   62.41
  -2   0   6 1287.04   64.08
   2   0  -6 2373.77   55.96
  -2   0   6 2321.18   64.24
  -2   0   6 1754.14   68.37
  -2   0   6 2356.05   66.21
  -2   0   6 2425.58   62.17
   2   0  -6 1712.22   58.96
  -2   0   6 2231.04   64.39
   2   0  -6 1621.39   60.94
   2   0  -5    3.66    1.10
  -2   0   5    4.05    1.51
  -2   0   5    2.74    1.64
  -2   0   5    3.13    2.30
  -2   0   5    3.70    2.24
  -2   0   5    4.61    2.05
   2   0  -5    2.66    1.24
  -2   0   5    0.58    1.46
   2   0  -5    2.31    1.56
  -2   0   4   34.07    4.24
  -2   0   4   30.14    4.58
  -2   0   4   32.37    2.71
   2   0  -4   39.97    3.58
   2   0  -4   31.99    2.61
  -2   0   3  190.46   10.49
   2   0  -3  177.22    6.81
   2   0  -2 6448.61  163.43
  -2   0   2 5980.82  167.57
   2   0  -2 7227.35  163.58
  -2   0   2 7012.27  164.76
  -2   0   1 1420.95   32.30
   2   0  -1 1069.02   34.18
  -2   0   1 1421.88   34.52
   2   0  -1 1003.12   37.28
   2   0  -1 1269.69   32.76
   2   0  -1 1317.66   36.50
  -2   0   1 1341.96   36.36
  -2   0   0 1531.49   40.36
  -2   0   0 1477.77   40.32
   2   0   0 1476.92   40.19
  -2   0   0 1550.85   37.84
   2   0   0 1558.46   38.51
  -2   0   0 1494.52   39.86
   2   0   1 1297.15   36.98
   2   0   1 1625.85   38.41
  -2   0  -1 1605.52   39.02
  -2   0  -1 1416.20   34.83
   2   0   2 2574.47   66.83
  -2   0  -2 2726.17   67.45
   2   0   2 2708.52   66.31
   2   0   2 2484.64   68.36
   2   0   3   76.47    7.20
   2   0   3   86.80    4.72
  -2   0  -3   75.19    5.05
   2   0   3   65.18    5.71
  -2   0  -4   33.67    3.08
   2   0   4   37.49    5.34
  -2   0  -4   45.46    4.55
  -2   0  -4   41.61    4.15
   2   0   4   40.15    5.10
  -2   0  -4   33.79    3.98
   2   0   4   39.98    5.99
  -2   0  -4   49.80    4.74
  -2   0  -4   37.66    3.76
  -2   0  -5   70.89    6.27
  -2   0  -5   85.34    7.33
   2   0   5   73.12    7.34
  -2   0  -5   59.30    4.53
  -2   0  -5   64.60    4.88
  -2   0  -5   76.63    6.44
  -2   0  -5   67.59    6.08
  -2   0  -5   67.99    4.68
  -2   0  -5   70.13    5.79
   2   0   5   64.59    7.85
   2   0   5   65.32    8.88
   2   0   6   32.94   13.27
   2   0   6   26.29    9.40
  -2   0  -6   42.31    4.16
   2   0   6   43.36    9.03
   2   0   6   43.55    8.30
  -2   0  -6   44.13    5.28
  -2   0  -6   53.30    5.35
  -2   0  -6   54.23    6.19
   2   0   6   36.09    6.81
   2   0   7  187.90   30.14
  -2   0  -7  188.05   11.12
  -2   0  -7  232.37   15.39
   2   0   7  185.06   20.68
   2   0   7  164.23   18.12
  -2   0  -7  205.44   12.94
   2   0   7  130.93   19.86
   2   0   7  150.08   15.38
   2   0   8    2.96    3.14
  -2   0  -8    2.67    1.80
   2   0   8    1.32    6.11
   2   0   8    1.19    3.99
   2   0   8    3.13    4.45
  -2   0  -8    2.64    2.36
  -2   0  -8    1.69    1.58
  -2   0  -9  997.66   36.98
   2   0   9  960.13   51.53
   2   0   9  858.39   47.55
  -2   0 -10    4.26    2.39
  -2   0 -10    1.61    2.10
   2   0  10    2.72    4.98
   2   0  10    1.60    4.63
   2   0  10    1.73    2.52
   2   0  10   -0.90    3.79
  -2   0 -11  128.51    8.97
   2   0  11  145.26   14.20
   2   0  11  149.56   14.94
  -2   0 -11  131.31    9.14
   2   1 -12   81.76    7.30
  -2   1  12   79.91    8.18
   2   1 -12   73.33    6.60
  -2   1  11   28.08    6.24
   2   1 -11   20.95    3.84
   2   1 -11   27.31    4.96
   2   1 -11   23.97    3.80
   2   1 -10   66.99    7.24
  -2   1  10   97.41   11.83
   2   1 -10   67.57    6.60
   2   1 -10   79.78    8.04
  -2   1  10   92.13   12.35
  -2   1   9  451.27   27.19
   2   1  -9  335.83   15.77
  -2   1   9  408.27   25.21
   2   1  -9  353.55   17.81
   2   1  -9  299.57   15.69
  -2   1   8  106.02   11.73
   2   1  -8   84.35    7.64
   2   1  -8   79.32    6.38
   2   1  -8   81.28    7.06
   2   1  -8   76.24    7.65
  -2   1   8   87.74   15.09
  -2   1   8   86.43   11.23
   2   1  -7  164.73    8.66
   2   1  -7  165.51   10.13
  -2   1   7  174.91   14.65
   2   1  -7  161.49    9.76
  -2   1   7  141.48   18.36
  -2   1   7  201.26   14.94
   2   1  -7  151.34   11.40
   2   1  -6  181.17    8.71
   2   1  -6  185.85   10.03
  -2   1   6  207.47   15.46
   2   1  -6  216.63    8.87
   2   1  -6  178.41    7.98
  -2   1   6  157.81   18.22
  -2   1   6  227.96   14.28
   2   1  -6  182.23   13.54
   2   1  -6  187.88   12.52
  -2   1   6  215.42   14.56
   2   1  -5  301.06   12.63
  -2   1   5  319.60   23.37
   2   1  -5  294.44   15.84
  -2   1   5  362.86   18.12
   2   1  -5  360.26   12.87
  -2   1   5  381.72   17.42
   2   1  -5  310.81   15.71
   2   1  -4 1235.37   36.93
  -2   1   4 1473.61   37.23
  -2   1   3 1329.21   48.99
   2   1  -3 1670.87   43.58
   2   1  -3 1819.71   44.51
  -2   1   3 1453.26   47.58
   2   1  -3 1636.42   45.91
  -2   1   2 9839.83  220.47
  -2   1   2 8478.82  217.47
   2   1  -2 9999.00  219.42
   2   1  -2 8562.80  220.57
   2   1  -1 1022.71   26.49
  -2   1   1  946.17   25.52
   2   1   0  743.17   20.60
  -2   1   0  769.11   20.53
   2   1   0  708.82   25.15
   2   1   1 1037.31   31.91
   2   1   1 1108.55   29.25
  -2   1  -1 1137.38   29.42
   2   1   1  956.03   29.08
  -2   1  -1 1213.75   30.02
  -2   1  -2  752.40   21.16
   2   1   2  753.34   22.04
   2   1   2  752.62   22.17
  -2   1  -2  789.14   22.77
   2   1   3  740.08   28.23
  -2   1  -3  806.84   27.63
  -2   1  -3  835.67   25.29
   2   1   3  954.20   26.04
   2   1   3 1014.47   31.54
  -2   1  -3  893.44   26.23
   2   1   3 1018.87   34.60
  -2   1  -4  633.72   24.46
  -2   1  -4  591.23   22.39
   2   1   4  571.96   25.65
  -2   1  -4  574.60   19.85
   2   1   4  598.69   25.82
   2   1   4  545.10   28.33
   2   1   4  460.97   26.60
   2   1   4  625.01   22.17
  -2   1  -4  775.52   26.04
   2   1   4  554.47   34.51
  -2   1  -4  604.60   21.19
   2   1   4  491.45   25.71
  -2   1  -4  701.80   19.51
  -2   1  -5  417.66   14.77
  -2   1  -5  483.91   20.81
  -2   1  -5  412.52   19.87
  -2   1  -5  397.41   18.09
   2   1   5  368.90   30.34
   2   1   5  418.17   23.30
   2   1   5  415.94   26.79
  -2   1  -5  379.66   16.09
   2   1   5  414.53   23.25
   2   1   6    9.41    4.02
  -2   1  -6   12.56    3.58
   2   1   6   12.49    8.50
   2   1   6   12.44    5.62
  -2   1  -6   13.38    2.54
  -2   1  -6   11.75    3.36
  -2   1  -6   11.33    2.43
  -2   1  -7  936.76   34.56
  -2   1  -7  987.79   36.99
   2   1   7  779.96   47.12
   2   1   7  773.37   50.75
  -2   1  -7  838.99   27.51
   2   1   7  737.42   39.99
  -2   1  -8  260.93   15.85
  -2   1  -8  265.18   17.59
   2   1   8  256.09   26.33
   2   1   8  201.83   19.91
  -2   1  -9   97.71    9.97
   2   1   9  106.07   16.55
  -2   1  -9   93.75    8.59
   2   1   9   72.71   13.42
   2   1   9   75.80   11.53
  -2   1 -10  126.14    8.52
   2   1  10  121.05   13.31
   2   1  10  149.76   17.45
  -2   1 -10  146.57   11.19
   2   1  11   28.56    5.76
  -2   1 -11   32.95    4.15
   2   1  11   26.40    4.79
  -2   2  12    6.00    2.75
   2   2 -12    4.46    1.57
   2   2 -12    6.16    2.09
   2   2 -11   90.65    8.47
   2   2 -11   88.39    8.75
  -2   2  11   85.14    9.70
  -2   2  11   90.52   10.95
  -2   2  10    9.61    4.89
   2   2 -10    6.68    3.00
  -2   2  10   10.85    4.57
   2   2 -10   11.69    4.23
   2   2 -10    9.61    2.46
   2   2  -9  206.41   11.44
  -2   2   9  323.28   29.44
  -2   2   9  270.11   20.51
   2   2  -9  213.15   13.31
  -2   2   9  294.07   22.24
  -2   2   8  439.69   25.84
  -2   2   8  400.29   34.20
   2   2  -8  353.69   18.99
   2   2  -8  371.05   17.68
  -2   2   8  430.69   26.66
   2   2  -8  337.35   15.12
  -2   2   7    5.68    3.44
   2   2  -7    5.73    2.29
   2   2  -7    5.35    2.19
   2   2  -7    4.22    2.45
  -2   2   7    4.06    2.98
  -2   2   7   10.81    3.54
  -2   2   7    7.92    5.13
   2   2  -6  119.57    8.03
  -2   2   6   87.94    9.06
  -2   2   6  114.40    9.89
  -2   2   6   95.18   10.17
   2   2  -6   96.85    7.36
  -2   2   6   90.35   14.86
   2   2  -6  105.29    9.65
  -2   2   5   81.83    8.00
  -2   2   5  107.81   10.08
  -2   2   5  126.25    9.59
   2   2  -5  105.49    6.21
  -2   2   5   81.65    8.47
   2   2  -5  101.89    9.42
   2   2  -5  130.12    9.20
  -2   2   5  101.75    5.82
   2   2  -5  102.92    8.05
   2   2  -5  111.89    7.20
   2   2  -5  109.94   10.01
  -2   2   5   88.07   13.77
   2   2  -4  677.62   22.50
   2   2  -4  716.43   24.44
  -2   2   4  757.80   26.90
  -2   2   4  697.32   20.98
  -2   2   4  735.42   22.66
   2   2  -3 2193.40   59.29
  -2   2   3 2203.41   53.02
  -2   2   3 2082.64   58.45
   2   2  -2 1451.21   39.74
   2   2  -2 1409.02   42.79
   2   2  -1 1062.53   29.65
   2   2  -1 1030.68   32.48
   2   2  -1 1278.27   31.43
  -2   2   1 1233.72   29.80
  -2   2   0  560.00   15.54
   2   2   0  583.50   15.34
   2   2   1  323.41    8.90
  -2   2  -1  279.56   10.08
   2   2   1  233.79   14.03
   2   2   1  296.35   10.37
   2   2   1  267.10    8.15
   2   2   1  264.71   10.61
  -2   2  -2 1509.77   37.33
  -2   2  -2 1524.82   42.72
  -2   2  -3  583.62   23.67
  -2   2  -3  567.08   18.30
   2   2   3  584.14   24.91
   2   2   3  515.08   15.61
  -2   2  -3  586.59   20.80
   2   2   3  647.04   27.65
   2   2   3  561.74   23.61
  -2   2  -3  494.67   21.60
  -2   2  -3  631.71   23.86
   2   2   3  578.60   18.68
   2   2   4  448.72   26.01
   2   2   4  475.71   24.12
  -2   2  -4  421.94   20.59
  -2   2  -4  351.45   18.21
   2   2   4  459.71   25.99
   2   2   4  231.59   14.77
   2   2   4  458.90   22.03
  -2   2  -4  371.52   14.10
   2   2   4  301.01   20.76
  -2   2  -4  476.12   20.69
  -2   2  -4  406.76   15.04
   2   2   4  383.28   24.77
  -2   2  -4  412.02   17.16
   2   2   4  434.11   22.10
  -2   2  -5  167.61   13.15
   2   2   5  107.44   13.01
   2   2   5  121.94   15.79
  -2   2  -5  168.30   12.39
   2   2   5  112.70   14.80
  -2   2  -5  172.56    8.49
  -2   2  -5  154.67    9.90
   2   2   5   93.19   11.63
  -2   2  -5  142.76   11.46
   2   2   5  126.02   13.12
  -2   2  -6  240.31   10.95
   2   2   6  214.50   22.95
   2   2   6  201.96   20.14
  -2   2  -6  211.00   15.04
  -2   2  -6  235.64   16.64
  -2   2  -6  234.59   15.24
  -2   2  -6  205.97   12.01
   2   2   6  199.01   18.56
  -2   2  -7  220.66   16.80
   2   2   7  161.92   19.98
   2   2   7  219.15   24.81
  -2   2  -7  218.06   11.10
  -2   2  -7  211.51   14.89
  -2   2  -7  206.35   15.30
   2   2   7  161.69   18.18
  -2   2  -8  481.52   24.59
  -2   2  -8  477.55   26.08
   2   2   8  487.71   37.76
  -2   2  -8  453.28   17.95
   2   2   8  419.65   33.09
  -2   2  -8  468.19   23.24
   2   2   8  366.91   28.68
   2   2   9  365.77   29.84
  -2   2  -9  319.27   19.60
   2   2   9  318.50   26.88
   2   2   9  256.40   22.10
  -2   2  -9  290.36   16.79
  -2   2  -9  316.18   18.40
  -2   2 -10   36.30    5.57
   2   2  10   35.21    7.67
  -2   2 -10   32.53    4.46
   2   2  10   35.62    8.07
   2   2  10   31.80    6.74
  -2   2 -10   34.45    4.93
  -2   2 -11  125.41    8.28
   2   2  11  127.11   11.11
   2   3 -12   52.34    4.86
  -2   3  12   51.81    5.61
  -2   3  11  372.77   21.06
   2   3 -11  317.42   12.99
   2   3 -10  132.76   10.19
   2   3 -10  160.18   11.50
   2   3 -10  150.49   10.01
  -2   3  10  176.78   16.22
   2   3  -9  612.87   25.68
   2   3  -9  637.35   28.21
   2   3  -9  666.80   30.91
  -2   3   9  738.53   45.86
  -2   3   9  588.25   31.69
   2   3  -9  532.30   24.14
  -2   3   9  676.90   35.80
   2   3  -8   28.16    6.00
   2   3  -8   23.15    4.53
  -2   3   8   16.91    5.17
  -2   3   8   23.05    8.75
  -2   3   8   24.85    5.74
  -2   3   8   22.62    6.64
   2   3  -8   18.10    4.46
   2   3  -7  254.23   14.08
   2   3  -7  209.17   12.38
  -2   3   7  264.19   18.45
  -2   3   7  221.13   18.35
  -2   3   7  267.73   28.50
   2   3  -7  241.67   15.52
  -2   3   6  367.11   21.87
   2   3  -6  350.80   19.65
   2   3  -6  399.07   17.50
  -2   3   6  333.26   31.32
   2   3  -6  363.57   16.62
   2   3  -6  372.04   19.91
   2   3  -5  394.49   17.20
  -2   3   5  351.68   20.03
   2   3  -5  375.73   16.27
  -2   3   5  389.39   22.03
   2   3  -4  896.19   27.30
   2   3  -4  741.90   24.71
   2   3  -4  765.20   31.41
  -2   3   4  716.71   30.15
   2   3  -4  802.00   24.27
  -2   3   4  624.65   27.37
  -2   3   4  449.25   35.38
   2   3  -4  666.74   24.61
  -2   3   4  776.73   28.08
   2   3  -4  719.01   29.50
  -2   3   4  852.99   28.59
   2   3  -3  177.78    9.62
   2   3  -3  199.03    9.17
   2   3  -3  189.90   10.20
   2   3  -3  211.28   11.32
   2   3  -3  194.95   12.56
   2   3  -3  171.71    9.09
   2   3  -3  183.60   12.34
   2   3  -2  371.60   16.42
   2   3  -2  351.64   15.42
   2   3  -1 1261.52   36.18
   2   3  -1 1332.14   38.49
   2   3   0 1003.01   29.75
   2   3   0 1067.23   36.41
   2   3   1  454.66   20.86
   2   3   1  513.92   17.63
   2   3   1  561.79   25.43
   2   3   1  495.43   24.25
  -2   3  -1  496.97   20.55
  -2   3  -1  558.35   19.87
  -2   3  -2  559.31   22.89
   2   3   2  389.35   20.10
   2   3   2  502.97   27.22
  -2   3  -2  461.77   20.88
  -2   3  -2  555.06   17.84
   2   3   2  441.33   23.92
  -2   3  -2  549.88   22.59
  -2   3  -2  581.53   21.15
   2   3   2  484.44   22.51
   2   3   2  545.10   18.46
   2   3   2  462.87   21.35
  -2   3  -2  496.87   21.78
  -2   3  -3 1378.51   47.32
   2   3   3 1586.70   52.16
  -2   3  -3 1598.16   50.09
   2   3   3 1140.30   45.72
   2   3   3 1627.83   43.99
  -2   3  -3 1720.12   44.03
   2   3   3 1701.86   57.25
   2   3   3 1627.93   61.09
   2   3   3 1001.55   50.64
  -2   3  -3 1600.43   49.70
  -2   3  -3 1452.38   49.04
  -2   3  -4    9.81    3.37
  -2   3  -4    9.02    3.20
   2   3   4   14.39    4.76
   2   3   4   17.20    5.71
   2   3   4   11.94    4.65
   2   3   4   11.89    3.44
  -2   3  -4    8.84    2.54
  -2   3  -4   10.54    2.89
   2   3   5    5.50    2.70
  -2   3  -5    5.43    3.02
   2   3   5    9.40    5.56
  -2   3  -5    6.12    3.23
   2   3   5    7.29    4.22
  -2   3  -5    7.19    2.21
   2   3   5    7.55    4.19
  -2   3  -5    5.95    3.17
  -2   3  -5    5.96    2.38
   2   3   6   -0.30    3.07
  -2   3  -6    1.17    2.18
   2   3   6   -0.31    2.48
   2   3   6   -0.85    4.87
   2   3   6    0.70    3.00
  -2   3  -6    1.26    1.73
  -2   3  -6    2.09    2.62
  -2   3  -6    0.18    1.98
   2   3   6    1.03    2.03
  -2   3  -6    0.68    1.67
  -2   3  -7  220.02   16.05
   2   3   7  242.30   26.23
   2   3   7  184.61   21.55
   2   3   7  160.09   17.87
  -2   3  -7  230.68   17.18
  -2   3  -7  249.38   12.11
  -2   3  -7  225.74   16.13
   2   3   7  177.03   19.54
   2   3   8  188.37   22.53
  -2   3  -8  173.42   14.59
  -2   3  -8  176.50   13.57
  -2   3  -8  162.89   13.13
   2   3   8  149.71   19.05
   2   3   8  140.32   17.00
  -2   3  -8  173.15   10.00
   2   3   8  197.61   18.23
   2   3   9    0.26    3.19
   2   3   9    0.58    3.84
  -2   3  -9    0.92    2.19
  -2   3  -9   -0.13    1.43
  -2   3  -9    0.93    1.84
  -2   3  -9    0.82    1.46
   2   3   9   -0.32    3.82
  -2   3 -10  137.78    9.89
   2   3  10  153.86   14.21
  -2   3 -10  141.56    9.26
   2   4 -11  148.66    9.52
  -2   4  11  133.13   10.14
   2   4 -10  123.65   10.30
  -2   4  10  135.02   12.63
   2   4 -10  119.53    8.45
  -2   4   9   11.20    4.82
  -2   4   9   16.28    6.72
   2   4  -9   13.30    4.13
   2   4  -9   11.85    3.23
   2   4  -8  127.84   10.26
   2   4  -8  128.07    9.77
  -2   4   8  120.22   13.98
  -2   4   8  145.04   20.69
   2   4  -8  148.24   12.96
  -2   4   8  159.15   14.52
   2   4  -8  106.37    9.70
  -2   4   7  169.12   15.66
   2   4  -7  162.68   10.98
   2   4  -7  176.54   14.37
   2   4  -7  150.15   11.01
  -2   4   7  154.21   22.48
  -2   4   7  118.18   13.41
   2   4  -6   20.26    3.88
   2   4  -6   18.64    3.83
  -2   4   6   19.76    5.61
   2   4  -6   22.23    5.03
   2   4  -6   20.72    4.77
  -2   4   6   22.32    5.45
   2   4  -6   19.21    4.71
  -2   4   5  671.48   33.70
   2   4  -5  641.08   25.16
   2   4  -5  718.29   30.32
  -2   4   5  679.31   29.76
   2   4  -5  680.99   25.27
   2   4  -5  682.80   29.66
   2   4  -5  651.98   25.01
   2   4  -4  306.10   13.86
   2   4  -4  248.03   12.91
  -2   4   4  270.02   15.36
   2   4  -4  308.03   15.46
   2   4  -4  287.42   13.60
   2   4  -4  287.21   16.22
  -2   4   4  239.09   18.06
   2   4  -4  300.57   17.62
   2   4  -3  858.29   26.78
   2   4  -3  772.50   28.28
  -2   4   3  720.33   27.19
   2   4  -3  927.33   31.38
   2   4  -3  886.59   26.62
  -2   4   3  767.04   34.13
   2   4  -3  814.37   31.50
   2   4  -2  149.00    8.01
   2   4  -2  107.27    8.34
  -2   4   2   92.67    9.49
   2   4  -2  161.24    9.80
   2   4  -2  144.39   10.65
  -2   4   2  113.72    8.42
   2   4  -2  132.72    9.76
  -2   4   2  120.27   13.67
  -2   4   1   47.89    4.81
  -2   4   1   53.89    5.70
   2   4  -1   67.32    5.13
   2   4  -1   75.62    7.01
  -2   4   1   82.00    6.75
   2   4  -1   61.77    4.84
  -2   4   1   58.34    8.02
  -2   4   1   62.63    6.95
   2   4  -1   73.88    7.74
  -2   4   1   61.51    5.36
  -2   4   0  488.26   19.98
  -2   4   0  362.66   16.63
  -2   4   0  391.53   18.75
   2   4   0  518.62   22.18
   2   4   0  477.87   17.11
   2   4   0  408.47   21.28
   2   4   0  540.78   24.77
  -2   4   0  570.42   19.37
   2   4   1  568.79   26.78
  -2   4  -1  630.55   25.94
  -2   4  -1  571.73   21.67
   2   4   1  605.95   26.85
   2   4   1  585.01   28.49
  -2   4  -1  622.60   21.77
  -2   4  -1  566.36   24.94
   2   4   1  710.05   32.10
   2   4   1  759.08   30.15
   2   4   1  664.49   22.24
  -2   4  -1  698.21   24.70
  -2   4  -2  279.31   16.56
   2   4   2  248.52   18.56
  -2   4  -2  269.10   16.08
   2   4   2  326.99   20.30
  -2   4  -2  315.36   13.68
   2   4   2  297.75   18.55
  -2   4  -2  310.28   17.46
   2   4   2  326.97   22.65
   2   4   2  236.38   16.66
  -2   4  -2  320.25   15.86
  -2   4  -3  105.92   10.10
   2   4   3  119.37   12.29
  -2   4  -3  105.86   10.57
   2   4   3  100.82   10.77
  -2   4  -3  110.06   10.76
  -2   4  -3  139.04    8.84
   2   4   3   96.09   12.27
  -2   4  -3  123.28    9.77
  -2   4  -4  373.98   21.92
   2   4   4  300.45   20.51
   2   4   4  435.10   26.65
  -2   4  -4  384.11   18.34
  -2   4  -4  348.10   21.15
  -2   4  -4  353.48   20.23
   2   4   4  341.79   27.13
   2   4   4  314.84   25.20
   2   4   4  394.71   24.28
   2   4   5   16.41    5.79
  -2   4  -5   27.84    6.07
   2   4   5   24.49    5.79
  -2   4  -5   14.42    4.03
   2   4   5   34.07    8.15
  -2   4  -5   24.34    4.05
   2   4   5   23.30    8.46
  -2   4  -5   30.74    5.21
  -2   4  -5   29.93    6.20
   2   4   5   19.87    7.01
  -2   4  -5   31.27    5.88
  -2   4  -6   44.53    6.98
   2   4   6   49.53    7.87
   2   4   6   43.95   10.09
   2   4   6   35.25    9.86
  -2   4  -6   49.25    7.90
  -2   4  -6   58.91    5.81
   2   4   6   34.72    8.98
  -2   4  -6   50.44    6.37
   2   4   6   41.12    9.05
  -2   4  -7  124.57   12.30
  -2   4  -7  117.61   10.78
   2   4   7  113.80   16.37
  -2   4  -7  137.00    8.76
   2   4   7  107.28   15.02
  -2   4  -8  102.01   10.24
  -2   4  -8  106.51    7.30
   2   4   8   91.24   13.86
   2   4   8  121.89   14.24
  -2   4  -8   98.37    9.92
  -2   4  -9    6.03    2.47
   2   4   9    6.07    4.16
  -2   4  -9    3.46    2.11
  -2   4  -9    4.82    1.74
  -2   4 -10   28.60    3.27
  -2   4 -10   28.28    3.55
   2   4  10   27.13    4.58
  -2   5  10   32.55    5.78
   2   5 -10   27.38    4.00
   2   5 -10   22.70    3.22
   2   5  -9  138.35    6.82
   2   5  -9  135.07   10.65
   2   5  -9  119.31    8.93
  -2   5   9  138.54   10.35
  -2   5   8  101.00   10.98
   2   5  -8   69.50    5.88
   2   5  -8   90.37    9.50
  -2   5   8   98.42   15.97
   2   5  -7  122.17   11.67
   2   5  -7  116.32   10.28
  -2   5   7   99.49   11.38
   2   5  -6   92.09   10.08
   2   5  -6  107.23    8.68
  -2   5   6  113.65   13.88
  -2   5   6   98.01   17.87
   2   5  -6  112.01   10.32
   2   5  -5   30.96    4.99
  -2   5   5   37.04    8.14
   2   5  -5   42.11    6.53
   2   5  -5   33.04    5.77
   2   5  -5   36.77    6.07
  -2   5   5   25.63    9.49
   2   5  -5   34.14    4.79
   2   5  -4  949.14   33.02
   2   5  -4  951.89   30.59
   2   5  -4  855.62   34.24
   2   5  -4  941.77   32.15
   2   5  -3  235.18   13.95
  -2   5   3  229.20   18.60
   2   5  -3  236.50   14.85
  -2   5   3  230.22   22.35
  -2   5   2  422.10   18.55
  -2   5   2  452.26   28.06
   2   5  -2  474.05   19.06
   2   5  -2  487.64   20.57
   2   5  -2  466.54   20.56
  -2   5   1   18.46    4.40
  -2   5   1   12.01    3.16
   2   5  -1   11.17    3.72
   2   5  -1   18.59    2.93
   2   5  -1   12.10    3.36
  -2   5   1   13.82    3.10
  -2   5   1   19.77    4.86
   2   5  -1   24.14    4.52
   2   5   0  197.80   15.11
   2   5   0  135.54   11.71
  -2   5   0  174.66   12.07
   2   5   0  186.68   13.70
  -2   5   0  137.94   10.68
  -2   5   0  125.91    9.36
   2   5   1    9.01    3.64
  -2   5  -1    8.59    3.29
   2   5   1   10.80    4.28
  -2   5  -1    6.96    2.35
   2   5   1    8.74    3.87
   2   5   2  177.53   15.55
   2   5   2  209.74   19.40
  -2   5  -2  194.59   11.35
  -2   5  -2  186.02   14.49
   2   5   3  570.75   31.14
   2   5   3  539.62   30.04
   2   5   3  567.99   31.07
  -2   5  -3  528.57   27.81
   2   5   3  457.53   33.01
  -2   5  -4   14.18    4.62
  -2   5  -4   16.05    3.80
   2   5   4   16.12    5.75
  -2   5  -4   13.91    4.31
   2   5   4   14.17    4.97
  -2   5  -5  261.93   17.84
   2   5   5  307.41   21.31
   2   5   5  246.75   24.79
  -2   5  -5  265.46   18.71
   2   5   5  261.62   22.37
  -2   5  -6   85.08    9.81
   2   5   6   90.26   13.31
   2   5   6  117.91   12.52
  -2   5  -6   97.01   10.77
  -2   5  -6  116.73    8.11
   2   5   6   87.12   14.56
   2   5   7  211.01   14.68
   2   5   7  129.90   15.68
  -2   5  -7  149.64   12.13
  -2   5  -7  148.52   12.63
  -2   5  -7  173.76    9.53
   2   5   7  181.19   18.65
  -2   5  -8  261.47   14.06
  -2   5  -8  266.26   11.44
  -2   5  -8  260.19   15.21
   2   5   8  254.07   19.00
   2   5   9   57.73    6.38
  -2   5  -9   63.97    3.95
   2   6  -9   83.93    6.03
  -2   6   9  133.14   11.85
   2   6  -8  254.16   10.81
   2   6  -8  243.95   13.44
   2   6  -8  255.61   13.31
  -2   6   7   66.37    9.23
  -2   6   7   76.99   13.34
   2   6  -7   51.49    6.35
   2   6  -7   56.74    6.48
  -2   6   6  213.85   18.42
  -2   6   6  185.52   22.14
   2   6  -6  187.32   12.80
  -2   6   5   92.34   15.78
   2   6  -5  112.42    9.96
  -2   6   4  147.35   18.93
   2   6  -4  174.11   12.47
  -2   6   4  192.15   18.41
  -2   6   3  474.18   31.50
   2   6  -3  497.52   21.46
   2   6  -3  426.08   20.32
   2   6  -2   41.11    5.63
  -2   6   2   33.10    6.82
   2   6  -2   42.65    5.59
  -2   6   2   28.95    4.98
  -2   6   2   37.61    7.60
   2   6  -1  237.78   16.57
   2   6  -1  264.79   14.48
   2   6  -1  264.50   16.31
  -2   6   1  270.86   17.92
  -2   6   0  165.36   12.05
  -2   6   0  214.09   14.17
  -2   6   0  188.90   12.36
   2   6   0  202.00   15.31
   2   6   0  239.57   16.65
   2   6   0  215.04   12.97
  -2   6  -1  141.75   11.88
   2   6   1  187.88   15.67
  -2   6  -1  169.31   11.16
   2   6   1  206.01   17.78
   2   6   1  169.68   11.52
   2   6   1  160.85   14.10
  -2   6  -2  265.31   17.41
   2   6   2  250.85   14.73
   2   6   2  241.84   19.45
   2   6   2  352.27   25.73
   2   6   2  266.35   19.06
  -2   6  -2  326.88   15.67
   2   6   3   67.87   12.16
  -2   6  -3   95.78    8.43
  -2   6  -3   71.76    9.13
   2   6   3   86.98   11.48
   2   6   3   79.41    7.48
   2   6   4  595.71   32.42
  -2   6  -4  512.71   26.80
   2   6   4  629.21   33.35
  -2   6  -4  549.22   24.66
  -2   6  -4  520.28   27.35
   2   6   4  592.23   37.92
   2   6   5   50.12    9.03
  -2   6  -5   68.81    6.13
  -2   6  -5   55.04    7.98
   2   6   5   76.70   10.31
  -2   6  -5   55.72    7.87
   2   6   6   34.60    8.43
  -2   6  -6   33.35    5.75
   2   6   6   42.84    6.88
  -2   6  -6   23.15    4.93
   2   6   6   28.27    6.48
  -2   6  -7   59.24    4.64
  -2   6  -7   52.15    6.22
   2   6   7   48.94    6.65
  -2   6  -7   60.48    6.75
   2   6   7   41.03    6.48
  -2   6  -8    4.48    1.66
  -2   6  -8    6.67    1.53
  -2   7   8   62.30    6.99
  -2   7   7   78.23    9.82
   2   7  -7   57.88    4.42
  -2   7   7   47.08    4.99
  -2   7   7   82.53    8.03
  -2   7   6   24.87    5.59
  -2   7   6   17.87    3.52
  -2   7   6   24.84    6.25
   2   7  -6   21.71    3.54
  -2   7   5  126.36    9.96
  -2   7   5  165.72   14.91
  -2   7   5  160.58   16.36
   2   7  -5  127.81    9.17
  -2   7   4  132.90   10.46
  -2   7   4  156.87   14.99
  -2   7   4  166.74   16.20
   2   7  -4  128.17    9.08
  -2   7   3   59.85    9.22
  -2   7   3   90.80   10.92
   2   7  -3   69.67    7.36
  -2   7   3   68.94    7.38
  -2   7   2  320.17   20.19
   2   7  -2  304.92   16.37
   2   7  -1  159.55   11.37
  -2   7   1  129.12    9.93
  -2   7   1  164.10   12.86
   2   7  -1  167.45   11.98
   2   7   0  202.33   14.32
   2   7   0  199.10   15.00
  -2   7   0  180.91   11.43
   2   7   0  175.79   12.07
  -2   7   0  175.06   11.71
   2   7   1  315.22   16.76
   2   7   1  347.30   21.02
  -2   7  -1  337.25   15.88
   2   7   1  338.75   20.37
  -2   7  -2  512.11   20.14
   2   7   2  447.93   24.29
   2   7   2  498.82   20.69
  -2   7  -3  125.48   10.01
  -2   7  -3  123.82    8.15
   2   7   3  139.66   12.64
  -2   7  -3  140.99    9.80
  -2   7  -4   89.64    8.22
  -2   7  -4  123.54    7.42
   2   7   4  144.61   13.48
  -2   7  -4   57.05    6.55
   2   7   4   98.52   10.15
  -2   7  -5  243.27   14.15
   2   7   5  416.92   21.07
   2   7   5  300.40   17.21
  -2   7  -5  371.68   13.51
  -2   7  -6   12.38    2.41
   2   7   6   16.08    3.11
   2   7   7    1.87    1.24
  -2   7  -7    2.46    0.97
   2   8  -6   62.83    3.78
   2   8  -5   27.90    3.99
  -2   8   5   54.99    6.08
   2   8  -4   15.21    3.19
  -2   8   4   12.20    2.22
  -2   8   4   10.80    3.15
  -2   8   3  212.27   13.54
   2   8  -3  245.76   12.72
  -2   8   3  234.74   11.05
  -2   8   2   13.71    3.20
  -2   8   2   12.46    2.43
  -2   8   1  142.23    8.28
  -2   8   0  111.81    7.14
  -2   8  -1  427.15   16.04
   2   8   1  438.60   19.90
  -2   8  -2   64.14    4.48
   2   8   2   50.89    6.60
   2   8   3   77.08    7.87
  -2   8  -3   77.50    4.80
  -2   8  -4   11.55    1.73
  -3  -8   5   39.31    3.44
  -3  -8   5   32.89    3.96
  -3  -8   4  139.38    7.37
  -3  -8   3   92.02    5.53
  -3  -8   3  136.68    6.80
  -3  -8   2   27.77    3.37
  -3  -8   1  313.74   13.39
  -3  -8   0  100.69    6.36
  -3  -8  -1   19.92    2.81
  -3  -8  -2   37.88    3.67
  -3  -8  -3   73.59    4.72
  -3  -8  -4   25.42    2.21
  -3  -7   8   15.55    3.70
  -3  -7   7    3.92    1.95
   3  -7  -7    3.23    1.07
  -3  -7   7    5.31    3.04
  -3  -7   7    2.06    2.75
   3  -7  -6   13.35    1.76
  -3  -7   6   17.74    3.28
   3  -7  -6   15.04    2.12
  -3  -7   5  172.25   13.18
   3  -7  -5  159.44    7.39
  -3  -7   4   62.65    5.76
  -3  -7   3   91.73    7.64
  -3  -7   2  261.30   12.54
  -3  -7   2  207.96   12.75
  -3  -7   1   98.20    8.08
  -3  -7  -1   25.82    4.42
  -3  -7  -2   16.19    2.84
  -3  -7  -2   12.82    2.62
  -3  -7  -3  117.26    7.74
  -3  -7  -3   97.72    7.11
  -3  -7  -4   11.24    2.38
  -3  -7  -4   11.80    2.36
  -3  -7  -4    8.75    2.10
  -3  -7  -5   79.84    5.30
  -3  -7  -5   85.96    5.33
   3  -7   5   47.10    9.46
  -3  -7  -5   75.60    5.25
  -3  -7  -5   51.07    4.47
  -3  -7  -6   48.19    3.40
  -3  -7  -6   41.09    3.65
  -3  -6   9    1.15    4.47
  -3  -6   9    5.26    3.50
   3  -6  -9    1.31    0.91
  -3  -6   9    3.46    3.28
   3  -6  -9    2.37    1.16
  -3  -6   9    4.50    3.05
  -3  -6   8  197.17   14.54
  -3  -6   8  190.13   15.33
   3  -6  -8  108.41    6.01
   3  -6  -8  135.91    7.43
   3  -6  -8  121.78    6.67
  -3  -6   8  138.95    9.39
  -3  -6   8  163.07   13.40
  -3  -6   7   63.91    6.59
   3  -6  -7   57.16    4.66
   3  -6  -7   55.87    4.43
  -3  -6   7   70.68    6.63
  -3  -6   7   72.89   10.15
  -3  -6   6  135.59   14.11
  -3  -6   6  162.15   10.08
  -3  -6   6  119.01    8.59
   3  -6  -6   96.55    6.43
  -3  -6   5   32.47    4.53
  -3  -6   5   33.43    4.34
  -3  -6   4  701.74   27.19
  -3  -6   4  585.05   23.51
  -3  -6   3  102.84    9.56
  -3  -6   2    3.49    2.00
  -3  -6   1  209.11   13.95
  -3  -6   0   37.92    4.74
  -3  -6  -1  257.14   14.15
  -3  -6  -1  262.58   14.17
  -3  -6  -2  293.06   17.51
  -3  -6  -2  308.42   16.26
  -3  -6  -2  329.21   16.35
  -3  -6  -3  258.77   14.89
  -3  -6  -3  287.40   15.50
  -3  -6  -3  274.72   17.24
  -3  -6  -4  318.08   15.09
  -3  -6  -4  297.82   15.01
  -3  -6  -4  232.06   15.67
  -3  -6  -4  222.90   13.76
  -3  -6  -5   10.93    2.78
  -3  -6  -5    7.18    2.78
  -3  -6  -5   10.20    2.71
  -3  -6  -5    5.27    2.18
  -3  -6  -6  175.01    9.74
  -3  -6  -6  170.61    8.42
  -3  -6  -6  170.49   11.05
  -3  -6  -6  161.44    9.85
   3  -6   7   24.92   11.92
  -3  -6  -7   25.77    3.19
  -3  -6  -7   25.88    2.92
  -3  -6  -7   27.96    3.67
  -3  -5  10  214.35   14.90
   3  -5 -10  156.36    8.07
  -3  -5  10   86.75   12.05
  -3  -5  10  339.30   19.49
   3  -5 -10  201.00    8.82
   3  -5 -10  173.27    8.55
  -3  -5  10  232.70   15.06
  -3  -5  10  387.33   23.19
  -3  -5   9  208.08   15.73
   3  -5  -9  159.53    8.49
   3  -5  -9  162.06    8.70
  -3  -5   9  301.49   21.88
   3  -5  -9  139.25    8.16
  -3  -5   9  284.55   22.28
  -3  -5   9  218.48   15.60
  -3  -5   9  235.77   16.41
   3  -5  -8  154.62    8.71
  -3  -5   8  200.14   15.58
  -3  -5   8  150.58   10.53
   3  -5  -8  153.50    8.74
  -3  -5   8  167.78   14.17
   3  -5  -8  131.43    8.07
  -3  -5   8  154.80   14.01
  -3  -5   8  226.24   19.37
  -3  -5   7  330.00   16.39
   3  -5  -7  287.85   13.10
  -3  -5   7  322.51   23.97
  -3  -5   7  304.08   14.80
  -3  -5   6   24.01    3.95
  -3  -5   6   18.83    3.14
  -3  -5   6   22.78    3.83
   3  -5  -6   16.36    2.62
  -3  -5   5  490.34   20.86
  -3  -5   5  323.01   15.33
  -3  -5   4  236.14   14.17
  -3  -5   4  200.62   11.40
  -3  -5   3  169.10    9.84
  -3  -5   2  238.32   14.09
  -3  -5   0  743.42   26.72
  -3  -5  -1  222.70   14.91
  -3  -5  -1  223.53   13.16
  -3  -5  -2   51.42    6.54
  -3  -5  -2   49.02    7.38
  -3  -5  -2   47.04    5.97
  -3  -5  -3  372.52   20.11
  -3  -5  -3  409.49   23.20
  -3  -5  -3  380.93   18.79
  -3  -5  -4  310.26   16.18
  -3  -5  -4  258.78   18.34
  -3  -5  -4  242.18   15.95
  -3  -5  -4  317.20   15.88
  -3  -5  -5   68.95    7.90
  -3  -5  -5   79.03    9.57
  -3  -5  -5   89.57    8.12
   3  -5   5   58.39    8.73
   3  -5   6    7.66    3.67
  -3  -5  -6   24.57    5.15
   3  -5   6   13.88    4.89
  -3  -5  -6   20.32    3.75
  -3  -5  -6   20.79    4.20
  -3  -5  -7  119.02    8.11
  -3  -5  -7  112.25    7.51
  -3  -5  -7  120.76    8.97
   3  -5   7   83.09   20.67
   3  -5   7   68.71    9.91
  -3  -5  -8   74.84    6.00
  -3  -5  -8   71.33    4.91
   3  -5   8   94.91   23.88
   3  -4 -11  136.34    7.33
   3  -4 -11  136.06    7.76
  -3  -4  10   73.11   12.33
  -3  -4  10  143.69   13.25
  -3  -4  10  147.81   12.98
   3  -4 -10  123.01    8.20
   3  -4 -10  141.05    8.26
  -3  -4  10  196.34   14.75
  -3  -4  10  257.26   19.81
   3  -4  -9   58.07    5.56
   3  -4  -9   53.78    5.62
   3  -4  -9   63.81    5.85
  -3  -4   9   73.27    9.94
  -3  -4   9   71.24    9.55
  -3  -4   9   67.59    9.09
   3  -4  -8   82.21    6.79
  -3  -4   8   76.14    9.80
  -3  -4   8   81.57    9.96
   3  -4  -8   84.97    6.70
  -3  -4   8   79.58    7.49
  -3  -4   8   93.51   10.60
   3  -4  -8   84.21    6.80
  -3  -4   8  104.92   12.87
  -3  -4   7  394.28   24.88
  -3  -4   7  394.21   25.77
  -3  -4   7  436.29   18.70
   3  -4  -7  403.97   16.61
  -3  -4   7  391.38   17.38
  -3  -4   6  748.12   25.23
  -3  -4   6  658.74   23.88
   3  -4  -6  697.79   24.72
  -3  -4   6  670.41   24.30
  -3  -4   5   63.57    6.43
  -3  -4   5   48.88    4.77
  -3  -4   4  483.48   20.47
  -3  -4   3   83.17    7.10
  -3  -4   3   84.18    6.03
  -3  -4   2  205.83   11.88
  -3  -4   1  473.37   21.58
   3  -4  -1  428.26   15.49
  -3  -4   0   39.28    5.29
  -3  -4   0   42.65    4.71
   3  -4   0   38.80    6.45
  -3  -4  -1 2172.87   62.33
  -3  -4  -1 2197.54   63.32
  -3  -4  -1 2239.78   66.92
  -3  -4  -2   56.61    6.67
  -3  -4  -3  148.56   11.37
  -3  -4  -3  153.37   10.31
  -3  -4  -4   47.50    6.61
  -3  -4  -4   52.91    6.20
  -3  -4  -4   34.95    4.36
  -3  -4  -5  309.75   17.41
  -3  -4  -5  322.79   15.28
  -3  -4  -6  141.31   11.14
  -3  -4  -6  128.18   10.84
  -3  -4  -6  130.38    9.54
  -3  -4  -6  127.44    9.05
  -3  -4  -7   40.21    5.54
   3  -4   7   25.54    7.23
  -3  -4  -7   33.20    4.66
  -3  -4  -7   30.66    5.66
  -3  -4  -7   30.64    4.18
   3  -4   7   16.83   14.87
   3  -4   7   18.97    6.17
  -3  -4  -8  431.31   16.76
  -3  -4  -8  521.86   21.73
  -3  -4  -8  463.43   17.89
  -3  -4  -8  504.86   20.21
   3  -4   8  322.66   27.24
  -3  -4  -8  444.49   19.51
   3  -4   8  360.94   43.63
  -3  -4  -9    2.90    1.29
   3  -4   9    8.52   11.31
   3  -4   9    4.33   14.56
  -3  -4  -9    4.47    1.71
  -3  -4  -9    3.67    1.63
   3  -4   9    7.42    5.45
  -3  -3  12  290.35   15.87
  -3  -3  12  201.69   12.49
  -3  -3  12  335.73   17.33
   3  -3 -11   12.71    2.79
   3  -3 -11   18.34    3.05
  -3  -3  11   24.86    5.99
  -3  -3  11   26.15    6.23
   3  -3 -11   12.34    2.36
  -3  -3  10   36.33    9.55
  -3  -3  10   90.26   10.36
  -3  -3  10  103.97   12.61
   3  -3 -10   75.62    6.88
   3  -3 -10   75.79    6.21
  -3  -3  10   76.70   10.30
   3  -3 -10   78.24    6.40
  -3  -3  10   77.37   10.09
  -3  -3  10  118.44   13.46
   3  -3  -9   70.66    6.18
  -3  -3   9   61.61    8.85
   3  -3  -9   65.30    6.25
   3  -3  -9   69.64    6.11
   3  -3  -9   67.40    6.56
  -3  -3   9   71.28   10.24
  -3  -3   9   69.62    9.46
  -3  -3   9   88.10   11.73
  -3  -3   8    1.27    2.94
   3  -3  -8    4.42    2.25
   3  -3  -8    7.10    2.41
  -3  -3   8    1.06    3.14
   3  -3  -8    5.42    2.31
  -3  -3   8    5.01    3.99
  -3  -3   8    3.00    2.55
  -3  -3   8    5.53    3.85
  -3  -3   7  452.35   24.91
  -3  -3   7  447.85   18.76
  -3  -3   7  466.54   18.43
  -3  -3   7  404.01   22.60
   3  -3  -7  470.45   18.88
  -3  -3   6  159.37    8.85
  -3  -3   6  149.03    8.47
   3  -3  -6  160.46    9.41
  -3  -3   5 1397.87   38.61
  -3  -3   5 1128.24   34.78
  -3  -3   4 1840.23   49.72
   3  -3  -4 1540.40   46.40
  -3  -3   4 1595.79   60.37
  -3  -3   4 1940.16   71.89
  -3  -3   4 1798.82   47.54
  -3  -3   4 1832.15   47.78
  -3  -3   3 2260.54   56.19
  -3  -3   3 2301.42   53.67
  -3  -3   3 1804.45   68.17
  -3  -3   3 1956.66   68.94
   3  -3  -3 2340.49   53.42
   3  -3  -3 2429.59   59.87
  -3  -3   3 2273.19   55.43
   3  -3  -2  143.86    7.42
   3  -3  -2  263.04    9.63
  -3  -3   2  215.53   15.14
   3  -3  -2  223.33   10.56
   3  -3  -2  173.95   14.12
   3  -3  -2  256.07    9.48
  -3  -3   2  226.14   11.09
  -3  -3   1  214.08    7.14
   3  -3  -1  150.25    6.75
  -3  -3   1  206.21   12.42
   3  -3  -1  177.17    7.87
   3  -3  -1  210.37    8.76
   3  -3  -1  228.41   11.27
   3  -3  -1  245.86   13.25
  -3  -3   1  185.78   11.32
  -3  -3   1  237.69   11.55
   3  -3   0   94.07    8.79
   3  -3   0  113.10    8.35
  -3  -3   0   90.52    8.05
   3  -3   0   83.97    5.38
   3  -3   0   90.42    5.08
   3  -3   0   87.87    4.80
  -3  -3   0   99.57    7.73
   3  -3   0   96.53    7.77
  -3  -3   0   96.67    7.32
  -3  -3   0   92.89    8.83
   3  -3   0  102.90    5.56
   3  -3   1  278.25   14.48
   3  -3   1  292.01   15.15
   3  -3   1  221.42   10.31
  -3  -3  -1  243.38   10.79
  -3  -3  -1  275.76   12.32
  -3  -3  -1  255.47   14.62
   3  -3   1  203.16    8.04
   3  -3   1  266.94   10.58
  -3  -3  -1  285.05   13.41
   3  -3   1  290.36   12.24
  -3  -3  -1  242.33   14.97
  -3  -3  -2  765.91   27.24
   3  -3   2  861.88   31.40
   3  -3   2 1057.83   35.85
  -3  -3  -2 1071.88   28.73
  -3  -3  -2 1024.48   33.28
   3  -3   2 1084.82   43.35
  -3  -3  -3  408.09   19.06
  -3  -3  -3  453.93   17.69
  -3  -3  -4  105.17    9.10
  -3  -3  -4   91.77    6.64
  -3  -3  -5  393.92   16.50
  -3  -3  -5  397.87   15.99
   3  -3   5  257.85   17.33
   3  -3   5  192.08   15.98
   3  -3   5  199.94   15.27
  -3  -3  -6   21.02    3.58
   3  -3   6   17.50   11.79
   3  -3   6   16.39    4.73
  -3  -3  -6   20.07    4.42
   3  -3   6   14.53    5.22
   3  -3   6   10.09    4.12
  -3  -3  -6   20.92    3.88
  -3  -3  -7  310.55   14.72
   3  -3   7  210.48   31.94
  -3  -3  -7  338.93   17.79
   3  -3   7  266.74   24.69
  -3  -3  -7  330.85   15.70
  -3  -3  -7  401.45   20.44
   3  -3   7  226.91   19.25
  -3  -3  -8   39.90    5.86
   3  -3   8   36.82   17.45
  -3  -3  -8   35.31    5.16
   3  -3   8   26.21    6.35
  -3  -3  -8   32.70    3.94
  -3  -3  -8   38.27    5.70
   3  -3   8   20.95    7.62
   3  -3   9   21.74    5.69
  -3  -3  -9   34.27    4.43
   3  -3   9   40.79   18.40
   3  -3   9   28.15   12.18
   3  -3   9   29.93    9.38
  -3  -3  -9   32.01    4.36
  -3  -3  -9   39.01    5.11
   3  -3  10    3.86    5.95
  -3  -3 -10    4.18    1.34
   3  -3  10   -1.14    8.55
  -3  -3 -10    3.93    1.46
  -3  -2  12    8.12    3.47
   3  -2 -12    6.57    2.19
  -3  -2  12    5.42    2.48
  -3  -2  12    9.40    3.29
   3  -2 -12    5.75    1.94
  -3  -2  11  252.07   17.75
  -3  -2  11  262.68   18.96
  -3  -2  10  400.40   23.98
  -3  -2  10  167.71   19.49
   3  -2 -10  284.84   13.47
   3  -2 -10  294.14   13.26
  -3  -2  10  427.11   25.09
   3  -2  -9  135.19    8.93
   3  -2  -9  157.14    9.20
   3  -2  -9  155.29    9.06
  -3  -2   9  167.49   15.32
  -3  -2   9  160.40   14.67
  -3  -2   9  155.76   13.86
  -3  -2   9  176.83   15.75
   3  -2  -8  760.33   24.67
  -3  -2   8  615.67   29.29
   3  -2  -8  726.52   25.44
   3  -2  -8  676.35   25.66
  -3  -2   8  818.34   34.32
  -3  -2   8  769.84   32.40
  -3  -2   8  806.30   34.57
  -3  -2   7  386.18   20.36
   3  -2  -7  365.48   14.99
  -3  -2   7  347.88   18.45
   3  -2  -7  394.33   16.64
  -3  -2   7  357.49   15.40
  -3  -2   7  382.33   19.21
  -3  -2   7  361.88   19.56
  -3  -2   6  889.22   32.11
  -3  -2   6  815.04   25.31
   3  -2  -6  757.94   24.85
  -3  -2   6 1001.69   30.74
  -3  -2   6  682.30   24.49
   3  -2  -6  832.96   26.66
   3  -2  -5   64.51    5.05
  -3  -2   5   54.15    4.17
  -3  -2   5   81.89    7.24
   3  -2  -5   57.55    4.56
   3  -2  -5   52.30    4.34
  -3  -2   5   54.72    9.05
  -3  -2   5   44.71    8.33
  -3  -2   5   69.88    5.40
   3  -2  -5   56.83    3.99
  -3  -2   5   54.89    4.24
  -3  -2   5   50.05    3.72
  -3  -2   4  689.01   34.97
  -3  -2   4  562.13   18.20
  -3  -2   4  580.05   28.88
  -3  -2   4  540.33   19.01
   3  -2  -4  479.73   23.46
  -3  -2   4  495.96   26.45
  -3  -2   4  567.92   17.86
   3  -2  -4  721.47   20.96
  -3  -2   3 3124.53  105.66
   3  -2  -3 4225.07   94.65
  -3  -2   3 3159.84  107.98
   3  -2  -3 3915.12  101.61
   3  -2  -3 3869.75   95.79
   3  -2  -3 3092.22  101.95
  -3  -2   3 3976.48   95.56
  -3  -2   2  406.60   21.41
   3  -2  -2  472.57   14.38
   3  -2  -2  478.30   16.34
   3  -2  -2  409.38   20.23
  -3  -2   1 1126.55   37.17
   3  -2  -1 1112.51   33.40
  -3  -2   1 1133.75   29.80
   3  -2  -1 1106.54   30.19
  -3  -2   1 1070.62   34.65
  -3  -2   1 1271.24   33.39
   3  -2  -1 1278.70   37.16
   3  -2   0  267.69   13.15
  -3  -2   0  248.19   12.30
   3  -2   0  293.05    8.82
   3  -2   0  247.31   10.26
   3  -2   0  246.48    9.88
  -3  -2   0  233.31   12.56
   3  -2   0  304.95   13.31
   3  -2   0  261.46   12.65
  -3  -2   0  235.14   13.55
   3  -2   1  634.88   23.49
   3  -2   1  602.77   15.95
   3  -2   1  655.02   21.40
  -3  -2  -1  583.40   22.72
   3  -2   1  626.12   23.20
   3  -2   1  639.96   22.10
   3  -2   2 1296.36   41.49
  -3  -2  -2 1331.99   40.50
   3  -2   2 1316.54   36.34
   3  -2   2 1415.98   44.01
  -3  -2  -2 1353.61   37.10
  -3  -2  -2 1200.11   37.71
  -3  -2  -2 1439.56   45.23
   3  -2   3   27.93    3.01
  -3  -2  -3   31.81    5.44
  -3  -2  -3   32.71    3.75
  -3  -2  -3   28.77    3.67
  -3  -2  -3   31.06    4.34
  -3  -2  -3   29.05    3.35
   3  -2   3   28.74    4.94
  -3  -2  -4  148.95    8.46
   3  -2   4  127.27   10.66
  -3  -2  -4  148.78    8.81
  -3  -2  -4  117.29    7.48
  -3  -2  -5    1.13    1.44
  -3  -2  -5    1.36    1.77
   3  -2   5    0.88    8.21
   3  -2   5    3.17    2.39
  -3  -2  -5    2.58    1.79
   3  -2   5    0.36    2.08
   3  -2   5    0.48    2.03
  -3  -2  -6   90.75    7.00
  -3  -2  -6   87.03    7.30
  -3  -2  -6   92.71    8.67
   3  -2   6   74.87   10.40
   3  -2   6   57.29    9.51
   3  -2   6   71.72   19.23
  -3  -2  -7  372.58   20.35
   3  -2   7  267.00   21.82
   3  -2   7  200.51   31.46
  -3  -2  -7  325.12   17.03
   3  -2   7  246.04   24.91
  -3  -2  -7  298.71   14.71
  -3  -2  -7  299.26   13.95
   3  -2   8   57.47   12.33
  -3  -2  -8   68.16    7.07
   3  -2   8   60.37   20.66
   3  -2   8   46.73    9.46
   3  -2   8   50.69   14.92
  -3  -2  -8   69.96    7.51
  -3  -2  -8   71.27    8.51
  -3  -2  -9  127.66    9.65
   3  -2   9  106.37   13.62
   3  -2   9  125.26   19.79
   3  -2   9  121.84   18.14
  -3  -2  -9  130.22    8.91
  -3  -2  -9  131.15   10.53
  -3  -2  -9  124.22    8.80
   3  -2  10   44.42    8.05
  -3  -2 -10   45.51    4.34
  -3  -2 -10   49.21    5.42
  -3  -2 -10   47.52    4.03
  -3  -1  13   68.44    6.33
  -3  -1  12   82.14    8.60
   3  -1 -12   67.16    5.86
   3  -1 -12   76.21    6.22
   3  -1 -12   78.49    6.55
  -3  -1  11    9.95    4.50
   3  -1 -11    7.76    2.17
  -3  -1  11    7.66    3.41
  -3  -1  11    8.82    3.85
   3  -1 -11    4.47    2.18
   3  -1 -10  232.33   11.83
   3  -1 -10  278.25   14.21
   3  -1 -10  297.38   14.68
   3  -1 -10  230.45   11.26
  -3  -1  10  336.10   21.37
   3  -1  -9  246.15   13.44
   3  -1  -9  227.07   11.42
   3  -1  -9  226.46   11.00
   3  -1  -9  230.44   12.19
  -3  -1   9  277.65   19.08
   3  -1  -9  255.23   13.43
   3  -1  -8   30.10    4.35
   3  -1  -8   36.75    4.42
   3  -1  -8   34.72    4.52
   3  -1  -8   35.61    3.79
  -3  -1   8   35.01    7.34
  -3  -1   8   34.33    6.17
  -3  -1   8   32.10    6.59
   3  -1  -8   34.93    3.87
   3  -1  -7  898.05   28.61
   3  -1  -7  963.78   27.36
  -3  -1   7  966.77   33.20
  -3  -1   7  727.37   31.95
  -3  -1   7 1083.87   35.59
   3  -1  -7  776.59   28.67
  -3  -1   7 1105.38   37.48
  -3  -1   6   26.19    4.37
  -3  -1   6   20.08    3.18
   3  -1  -6   30.21    3.53
   3  -1  -6   28.84    4.33
   3  -1  -6   31.02    3.80
  -3  -1   6   30.69    7.02
  -3  -1   6   22.19    4.03
  -3  -1   6   29.14    4.50
  -3  -1   6   26.03    2.94
  -3  -1   6   25.19    4.60
   3  -1  -6   27.94    3.01
  -3  -1   6   25.43    3.52
  -3  -1   6   25.01    4.03
  -3  -1   5 1536.74   40.24
  -3  -1   5 1627.13   43.72
   3  -1  -5 1433.05   40.68
  -3  -1   5 1463.25   52.11
   3  -1  -5 1585.01   42.71
  -3  -1   5 1349.86   39.00
   3  -1  -5 1467.83   41.31
   3  -1  -5 1425.75   39.53
   3  -1  -4  195.92   11.88
  -3  -1   4  225.72   14.53
  -3  -1   4  232.85    8.46
   3  -1  -4  227.52    8.60
  -3  -1   3 1345.37   45.24
   3  -1  -3 1327.58   42.42
   3  -1  -3 1419.48   36.79
  -3  -1   2  536.23   23.07
   3  -1  -2  555.78   15.75
   3  -1  -2  521.92   20.52
   3  -1  -1  578.63   20.21
   3  -1  -1  593.56   20.90
   3  -1  -1  612.93   23.14
  -3  -1   1  590.70   22.41
   3  -1   0  724.66   23.59
  -3  -1   0  837.57   23.17
   3  -1   0  712.87   22.83
   3  -1   0  743.41   24.07
   3  -1   0  742.09   25.39
  -3  -1   0  732.75   25.36
   3  -1   0  820.07   20.47
  -3  -1   0  783.21   25.07
  -3  -1   0  763.28   21.73
  -3  -1  -1  340.44   14.82
  -3  -1  -1  425.64   14.61
  -3  -1  -1  355.25   12.00
   3  -1   1  387.39   16.39
  -3  -1  -1  349.07   13.31
   3  -1   1  392.11   15.54
  -3  -1  -1  407.59   16.29
   3  -1   1  375.60   15.35
   3  -1   2 2719.51   73.02
   3  -1   2 2451.20   65.62
   3  -1   2 2751.48   63.66
  -3  -1  -2 2652.57   68.45
  -3  -1  -2 2500.96   65.99
   3  -1   2 2525.58   69.96
   3  -1   2 2715.05   72.56
  -3  -1  -2 2778.61   72.38
  -3  -1  -2 2312.60   63.70
  -3  -1  -3   91.19    8.14
   3  -1   3   79.28    5.29
  -3  -1  -3   84.89    5.62
   3  -1   3   84.18    8.70
  -3  -1  -3   80.12    6.54
   3  -1   3   89.82   12.73
  -3  -1  -3   78.52    5.71
  -3  -1  -3   91.96    6.36
   3  -1   3  104.93   10.29
  -3  -1  -3   83.82    4.08
   3  -1   4   81.45    9.82
  -3  -1  -4   99.04    6.37
  -3  -1  -4  106.81    9.26
   3  -1   4  100.82    9.86
  -3  -1  -4  104.50    7.24
  -3  -1  -4  107.87    7.99
   3  -1   4   80.04   14.31
  -3  -1  -4  100.76    6.76
   3  -1   4  108.10   11.53
  -3  -1  -5  121.51    7.49
   3  -1   5   88.34   17.91
  -3  -1  -5  123.84    9.19
   3  -1   5  123.54   14.20
   3  -1   5  121.27   12.58
  -3  -1  -5  114.47    7.74
   3  -1   6  109.25   23.31
  -3  -1  -6  172.90   11.41
  -3  -1  -6  163.30    9.69
  -3  -1  -6  216.59   14.65
  -3  -1  -6  160.47    9.17
   3  -1   6  152.81   15.89
   3  -1   6  156.82   18.38
   3  -1   7   93.98   13.56
  -3  -1  -7  117.48    9.67
  -3  -1  -7  113.22    9.28
   3  -1   7   80.98   17.99
   3  -1   7   99.06   24.48
  -3  -1  -7  133.62   11.84
  -3  -1  -8  255.34   16.95
   3  -1   8  203.33   26.56
  -3  -1  -8  238.68   13.41
  -3  -1  -8  222.74   13.32
   3  -1   8  204.50   20.87
  -3  -1  -9   27.35    5.04
   3  -1   9   23.98    9.08
  -3  -1  -9   25.40    3.81
   3  -1   9   20.05    9.75
   3  -1   9   19.66    6.80
  -3  -1  -9   25.06    5.12
  -3  -1 -10  167.11   10.63
   3  -1  10  168.57   16.86
   3  -1  10  180.71   21.60
   3  -1  10  220.97   22.93
   3  -1  11  154.19   15.72
   3   0 -12    0.54    1.18
  -3   0  12    0.68    1.74
   3   0 -12    0.61    1.34
   3   0 -11   10.21    2.73
   3   0 -11   11.21    2.85
  -3   0  11   11.14    4.03
   3   0 -11   11.06    2.87
  -3   0  10    6.92    4.45
   3   0 -10    5.93    2.55
  -3   0  10    4.74    3.47
   3   0 -10    6.04    2.34
   3   0  -9  123.29    8.35
   3   0  -9  102.22    7.06
   3   0  -9  127.73    8.86
   3   0  -9  126.29    9.68
  -3   0   9  151.71   13.88
  -3   0   9  149.04   14.44
   3   0  -8   88.33    7.63
   3   0  -8   77.54    5.67
   3   0  -8   88.48    7.00
  -3   0   8   96.19   10.29
   3   0  -8   91.29    6.76
   3   0  -8   80.98    6.34
  -3   0   8  100.64   15.87
   3   0  -8   78.08    8.06
  -3   0   8  106.61   11.20
  -3   0   7   26.07    5.01
   3   0  -7   24.18    2.77
   3   0  -7   17.43    4.07
   3   0  -7   22.43    3.03
  -3   0   7   26.26    4.96
   3   0  -7   21.11    3.57
   3   0  -7   23.98    3.52
  -3   0   7   31.31    8.08
  -3   0   7   26.14    6.13
  -3   0   7   28.02    5.98
  -3   0   7   26.00    5.26
   3   0  -6 1035.22   29.84
  -3   0   6 1146.05   42.91
   3   0  -6  806.66   28.69
   3   0  -6  856.86   29.31
   3   0  -6  951.89   33.50
   3   0  -6  962.53   27.35
   3   0  -6 1046.65   29.56
  -3   0   6 1085.11   36.74
  -3   0   6 1061.64   34.93
  -3   0   6 1062.60   33.42
  -3   0   6 1054.23   31.77
  -3   0   6  974.29   34.27
  -3   0   5  302.04   14.97
  -3   0   5  384.18   14.02
   3   0  -5  360.04   13.44
  -3   0   5  327.66   14.75
   3   0  -5  399.99   15.61
  -3   0   5  383.79   19.43
   3   0  -5  339.45   13.30
  -3   0   4 1281.08   40.90
   3   0  -4 1356.83   35.76
   3   0  -4 1270.86   38.04
  -3   0   4 1295.27   34.60
  -3   0   4 1211.59   45.92
  -3   0   3 1440.45   43.21
   3   0  -3 1496.90   40.72
   3   0  -2   23.50    3.28
  -3   0   2   17.30    3.39
   3   0  -2   20.11    2.24
   3   0  -1   89.51    4.61
  -3   0   1   94.51    6.37
   3   0  -1  100.25    5.29
   3   0  -1   82.76    5.72
  -3   0   1   97.46    5.82
   3   0  -1   81.01    7.07
  -3   0   1   86.49    5.71
  -3   0   1  102.36    3.99
  -3   0   0 5218.13  129.17
   3   0   0 4873.72  129.18
  -3   0   0 5352.25  129.70
  -3   0   0 5329.26  125.25
   3   0   1 1878.58   55.91
   3   0   1 2054.41   60.51
  -3   0  -1 2245.41   52.66
   3   0   1 2394.78   58.32
   3   0   2  276.58   10.93
   3   0   2  278.36   10.40
  -3   0  -2  284.73   11.21
   3   0   2  312.08   15.95
   3   0   2  273.88   12.25
   3   0   2  328.13   15.64
   3   0   3   22.51    2.74
  -3   0  -3   18.68    2.65
   3   0   3   29.53    4.76
  -3   0  -3   20.05    3.11
   3   0   3   22.00    4.67
   3   0   3   24.85    4.66
   3   0   3   27.46    5.21
  -3   0  -3   15.16    2.37
   3   0   3   27.84    4.87
   3   0   3   14.42    6.81
  -3   0  -3   25.02    4.10
  -3   0  -3   21.84    3.43
   3   0   3   25.53    2.70
   3   0   4  629.08   29.90
   3   0   4  791.63   48.50
  -3   0  -4  855.91   28.63
  -3   0  -4  771.53   26.67
   3   0   4  809.17   37.10
   3   0   4  768.00   36.66
  -3   0  -4  670.97   23.48
  -3   0  -4  908.34   31.34
  -3   0  -4  868.01   28.05
   3   0   4  810.58   34.12
  -3   0  -4  736.29   23.89
  -3   0  -4  819.50   26.19
   3   0   4  730.13   29.55
  -3   0  -4  846.06   28.49
   3   0   4  779.15   34.06
  -3   0  -5   42.18    5.35
  -3   0  -5   30.81    4.34
   3   0   5   39.73   14.25
   3   0   5   20.46    9.26
   3   0   5   34.10    7.27
  -3   0  -5   40.04    4.86
  -3   0  -5   33.16    5.43
  -3   0  -5   26.21    3.47
   3   0   5   34.04    5.87
  -3   0  -6 3344.08   88.80
   3   0   6 3180.20  112.86
   3   0   6 2921.69  122.14
   3   0   6 3183.48  106.92
  -3   0  -6 3475.03   89.22
   3   0   6 2931.62   96.69
  -3   0  -7  668.83   25.31
   3   0   7  664.89   49.66
   3   0   7  686.15   44.35
   3   0   7  638.48   39.14
   3   0   7  558.15   31.48
   3   0   8   13.29    4.67
   3   0   8   18.19    8.60
  -3   0  -8   20.03    4.90
   3   0   8   13.36    9.40
  -3   0  -8   14.90    3.09
   3   0   8   14.27    6.64
   3   0   9    5.61    3.09
  -3   0  -9    7.47    3.33
  -3   0  -9    4.74    2.70
   3   0   9    9.26    7.14
   3   0   9    8.23    5.03
   3   0   9    8.75    7.06
  -3   0 -10   44.49    5.66
   3   0  10   54.93   11.47
   3   0  10   32.19    8.96
   3   0  10   41.64    8.73
  -3   0 -10   48.26    6.05
  -3   0 -11   68.48    5.15
   3   0  11   79.67    9.93
   3   0  11   83.09    9.26
  -3   0 -11   76.01    5.72
  -3   1  13   46.71    4.93
  -3   1  12   69.73    7.21
   3   1 -12   87.46    7.70
  -3   1  12   86.13    9.12
  -3   1  11    9.82    4.11
   3   1 -11    6.88    2.51
  -3   1  11   10.52    3.78
   3   1 -11    7.80    2.21
   3   1 -10  267.69   15.42
  -3   1  10  305.24   20.33
   3   1 -10  245.68   13.12
  -3   1  10  339.69   22.35
   3   1  -9  262.49   15.05
   3   1  -9  236.61   14.96
   3   1  -9  251.70   12.84
  -3   1   9  278.86   28.10
   3   1  -9  251.85   13.81
  -3   1   9  305.51   20.32
  -3   1   9  300.70   21.33
  -3   1   8   47.45    7.54
   3   1  -8   35.90    4.89
   3   1  -8   39.72    4.33
  -3   1   8   36.37   10.11
   3   1  -8   36.03    5.08
   3   1  -8   37.16    6.03
  -3   1   8   45.61    7.88
  -3   1   7  898.75   50.50
   3   1  -7  991.49   29.67
  -3   1   7 1154.61   39.55
   3   1  -7  819.24   36.36
  -3   1   7 1093.73   40.55
   3   1  -6   28.77    3.93
  -3   1   6   34.53    4.42
   3   1  -6   28.09    3.01
  -3   1   6   33.92    4.99
  -3   1   6   34.17    8.15
  -3   1   6   23.20    6.78
  -3   1   6   34.44    5.55
   3   1  -6   24.85    4.96
   3   1  -6   29.27    3.81
   3   1  -5 1376.42   35.30
   3   1  -5 1337.57   36.04
  -3   1   5 1491.47   40.48
   3   1  -5 1402.47   35.12
  -3   1   5 1016.45   43.62
   3   1  -5 1328.87   33.98
   3   1  -5  945.03   34.27
   3   1  -5 1170.56   35.62
  -3   1   5 1398.05   40.43
  -3   1   4  256.09    8.71
  -3   1   4  166.29   12.36
   3   1  -4  269.96   11.41
  -3   1   4  206.18   10.48
   3   1  -4  243.43    9.28
   3   1  -4  197.11   10.08
  -3   1   3 1436.09   40.44
   3   1  -3 1424.33   36.46
  -3   1   3 1497.38   43.49
   3   1  -3 1504.37   43.66
   3   1  -3 1543.54   41.11
  -3   1   2  616.55   17.31
  -3   1   2  612.90   20.16
  -3   1   1  636.70   20.08
  -3   1   0  777.75   22.20
   3   1   0  729.71   23.89
   3   1   1  370.16   13.13
  -3   1  -1  387.40   13.21
   3   1   2 2499.39   65.20
   3   1   2 2417.57   65.08
   3   1   2 2457.77   65.28
   3   1   2 2715.21   73.55
  -3   1  -2 2596.04   64.96
  -3   1  -2 2617.92   66.17
  -3   1  -3   63.06    4.74
  -3   1  -3   77.16    7.82
  -3   1  -3   61.43    6.10
   3   1   3   90.18    9.87
   3   1   3   84.79    8.53
   3   1   3   81.43    9.83
   3   1   3   76.61    8.37
   3   1   3   77.53    5.24
  -3   1  -3   71.38    4.83
  -3   1  -3   78.10    7.23
   3   1   3   73.20    7.01
   3   1   3   78.17    7.43
  -3   1  -3   65.60    5.24
   3   1   4  104.95    8.79
   3   1   4   92.33   12.05
   3   1   4  101.46   11.17
  -3   1  -4   97.89    9.18
  -3   1  -4   94.86    8.17
  -3   1  -4   85.13    6.83
   3   1   4  129.88   18.83
   3   1   4  104.27   11.29
  -3   1  -4  120.72    9.74
  -3   1  -4  114.45    6.66
   3   1   4  115.72   10.48
  -3   1  -5   97.27    7.63
   3   1   5  151.29   22.65
   3   1   5  121.98   16.26
   3   1   5  116.72   13.92
  -3   1  -5  110.42    7.14
  -3   1  -5  122.68   10.24
  -3   1  -5  115.37   10.62
   3   1   5  105.40   11.45
  -3   1  -6  202.03   15.67
  -3   1  -6  158.48   10.15
  -3   1  -6  186.19   14.35
   3   1   6  202.67   27.53
   3   1   6  192.48   22.77
   3   1   6  179.65   19.59
  -3   1  -6  167.92    9.64
   3   1   6  165.36   16.02
  -3   1  -6  183.20   13.20
   3   1   7  123.55   19.87
  -3   1  -7  143.51   13.16
   3   1   7  118.37   17.01
  -3   1  -7  131.37   11.06
  -3   1  -7  122.77    8.47
   3   1   7  157.45   24.29
  -3   1  -7  134.19   12.51
   3   1   7  108.71   13.70
  -3   1  -8  237.19   17.07
   3   1   8  188.68   21.93
  -3   1  -8  248.68   16.85
   3   1   8  252.27   28.92
   3   1   8  255.61   28.27
  -3   1  -8  223.31   13.97
   3   1   9   18.40    8.03
   3   1   9   16.61    5.16
  -3   1  -9   22.12    4.92
  -3   1  -9   24.43    5.19
   3   1   9   22.91    8.98
   3   1   9   23.45    7.69
  -3   1 -10  176.85   11.71
   3   1  10  171.23   16.97
   3   1  10  210.33   20.00
  -3   1 -10  192.66   12.05
  -3   1 -11   96.48    6.28
   3   1  11  105.54    9.70
  -3   2  12    7.56    2.85
   3   2 -12    7.92    2.45
   3   2 -11  201.08   12.50
   3   2 -11  206.25   14.05
   3   2 -11  186.59   11.67
  -3   2  11  218.16   16.62
  -3   2  10  345.15   21.47
  -3   2  10  420.42   32.26
   3   2 -10  286.45   15.55
  -3   2  10  360.58   23.93
  -3   2   9  165.69   21.86
   3   2  -9  150.43   10.77
   3   2  -9  142.30   11.74
  -3   2   9  174.03   15.27
  -3   2   9  185.44   16.85
   3   2  -8  740.31   29.20
   3   2  -8  766.35   28.88
  -3   2   8  816.27   35.36
  -3   2   8  730.67   48.94
   3   2  -8  720.70   32.46
   3   2  -7  394.00   17.80
  -3   2   7  404.25   21.46
  -3   2   7  350.49   31.82
   3   2  -7  374.96   21.43
  -3   2   7  431.57   23.88
   3   2  -7  359.79   17.40
   3   2  -6  641.13   22.42
  -3   2   6  590.43   39.66
  -3   2   6  649.78   27.65
   3   2  -6  569.50   27.50
   3   2  -5   48.82    6.03
   3   2  -5   44.24    4.47
   3   2  -5   39.90    5.85
   3   2  -5   51.33    4.66
  -3   2   5   57.64    6.20
  -3   2   5   33.80    5.16
   3   2  -5   53.58    5.74
  -3   2   5   46.95    9.74
   3   2  -5   52.64    4.16
  -3   2   5   64.82    7.50
   3   2  -5   37.08    6.14
   3   2  -4  644.24   21.25
   3   2  -4  697.45   22.23
  -3   2   4  804.10   26.08
  -3   2   4  605.56   21.38
  -3   2   4  764.18   23.70
   3   2  -4  691.22   25.35
  -3   2   4  616.32   35.68
   3   2  -4  684.05   22.45
   3   2  -4  571.25   24.47
  -3   2   4  637.98   25.80
  -3   2   3 3951.55   98.72
   3   2  -3 3368.26  102.66
   3   2  -2  427.73   17.51
  -3   2   2  466.79   13.64
  -3   2   2  419.21   11.51
   3   2  -1 1207.48   31.16
   3   2  -1 1186.65   34.56
   3   2   0  261.31   10.07
   3   2   0  269.38   10.60
  -3   2   0  279.88   13.91
  -3   2   0  276.80   10.19
  -3   2   0  258.27   10.00
   3   2   1  529.09   19.45
   3   2   1  551.38   17.72
   3   2   1  536.75   26.71
   3   2   1  542.87   16.11
  -3   2  -1  621.20   23.30
   3   2   1  465.76   24.60
  -3   2  -1  552.21   17.95
  -3   2  -2 1359.46   35.41
   3   2   2 1438.27   46.64
   3   2   2 1217.34   39.84
   3   2   2 1340.77   45.52
  -3   2  -2 1206.80   40.43
   3   2   2 1243.46   35.25
   3   2   2  882.08   35.71
   3   2   2  907.33   42.55
   3   2   2 1265.79   41.49
  -3   2  -2 1215.76   34.43
   3   2   2 1317.17   43.85
  -3   2  -2 1412.43   42.43
  -3   2  -3   30.19    3.37
  -3   2  -3   22.86    4.51
   3   2   3   17.77    6.03
   3   2   3   13.14    2.83
   3   2   3   21.90    2.95
   3   2   3   26.85    6.22
   3   2   3   24.87    5.50
   3   2   3   21.72    4.84
  -3   2  -3   22.79    4.39
   3   2   3   12.38    3.64
  -3   2  -3   24.06    4.54
   3   2   3   23.56    4.62
   3   2   4   65.05    6.99
   3   2   4  134.45   15.71
  -3   2  -4  134.34    7.53
   3   2   4   84.14    9.93
  -3   2  -4  118.72   10.48
  -3   2  -4   97.54    9.76
   3   2   4  102.95   15.11
   3   2   4  124.93   12.03
   3   2   5    0.47    2.24
  -3   2  -5    0.34    2.13
   3   2   5    1.79    6.21
  -3   2  -5    0.31    1.83
  -3   2  -5    1.79    1.70
   3   2   5    1.05    1.72
   3   2   5   -1.19    4.73
  -3   2  -6   83.26    9.96
   3   2   6   99.31   17.82
  -3   2  -6   83.70    6.74
   3   2   6   48.38    8.17
  -3   2  -6   78.99    9.10
   3   2   6   87.42   18.49
   3   2   6   74.16   11.58
  -3   2  -7  314.12   20.19
  -3   2  -7  320.78   14.66
   3   2   7  286.46   31.40
   3   2   7  329.14   33.61
  -3   2  -7  320.01   18.93
   3   2   7  278.94   23.61
   3   2   8   82.68   16.52
  -3   2  -8   72.59    8.96
  -3   2  -8   66.98    6.01
  -3   2  -8   67.14    7.82
   3   2   8   54.26   10.12
  -3   2  -9  141.59   11.34
   3   2   9  137.16   18.69
  -3   2  -9  132.50    9.66
   3   2   9   98.16   12.20
   3   2  10   39.27    7.74
  -3   2 -10   49.89    5.36
  -3   3  12  175.61   10.59
  -3   3  11   16.79    4.97
  -3   3  11   12.06    3.81
   3   3 -11   17.09    3.82
   3   3 -11   12.56    2.44
   3   3 -10   72.36    7.53
  -3   3  10  103.71   14.90
   3   3 -10   93.54    9.71
   3   3 -10   71.31    7.02
  -3   3  10   85.99   10.88
   3   3  -9   45.34    6.18
   3   3  -9   50.57    6.24
   3   3  -9   57.13    8.23
  -3   3   9   59.51   13.17
   3   3  -9   47.01    6.49
  -3   3   9   51.30    9.03
   3   3  -8    5.19    2.85
  -3   3   8    4.56    3.43
   3   3  -8    4.09    2.47
  -3   3   8    3.02    2.71
  -3   3   8    6.57    5.38
   3   3  -7  429.03   18.79
  -3   3   7  416.58   36.11
  -3   3   7  448.87   24.09
   3   3  -7  356.72   17.48
   3   3  -7  405.82   22.43
  -3   3   7  328.38   21.54
   3   3  -6  134.76   11.65
   3   3  -6  139.99    9.58
   3   3  -6  122.55    8.49
  -3   3   6  123.81   19.34
  -3   3   6  140.64   12.77
  -3   3   6  113.17   11.16
   3   3  -5 1188.80   37.29
   3   3  -5  887.01   36.42
  -3   3   5 1262.61   44.46
   3   3  -5 1600.16   42.33
  -3   3   5  867.02   54.64
   3   3  -5 1282.76   36.70
  -3   3   5 1523.08   44.10
  -3   3   5 1211.41   41.25
   3   3  -5 1123.28   44.25
   3   3  -4 1872.73   58.49
   3   3  -4 1965.30   55.07
   3   3  -4 2165.60   56.21
  -3   3   4 2605.79   60.05
   3   3  -4 1969.84   56.07
  -3   3   4 2234.56   63.48
   3   3  -4 2392.18   58.77
  -3   3   4 1383.68   72.34
   3   3  -4 2014.99   54.73
   3   3  -4 1685.39   61.83
  -3   3   4 1852.11   58.59
   3   3  -4 1583.77   60.28
   3   3  -3 2312.47   65.71
  -3   3   3 2237.25   65.65
   3   3  -3 2023.54   66.53
   3   3  -3 2541.47   63.33
  -3   3   3 2671.52   69.84
   3   3  -3 2367.80   64.29
   3   3  -3 2558.57   63.30
   3   3  -3 2473.21   65.94
   3   3  -3 2139.57   69.45
  -3   3   2  191.61   11.27
   3   3  -2  207.15   11.48
   3   3  -2  209.27    7.57
   3   3  -2  220.30   11.74
   3   3  -2  299.69   13.44
   3   3  -2  268.33   10.82
  -3   3   2  240.44   13.10
  -3   3   2  240.59   11.71
   3   3  -2  186.70   10.34
   3   3  -2  208.32    8.69
   3   3  -2  186.19   11.14
  -3   3   2  107.96   13.50
   3   3  -2  229.47   11.04
   3   3  -2  210.36   13.81
   3   3  -1  206.67    8.04
  -3   3   1  181.70   11.00
   3   3  -1  266.97   13.11
  -3   3   1  193.35   12.19
   3   3  -1  210.58   11.09
  -3   3   1  183.59   10.76
   3   3  -1  189.59   13.77
   3   3  -1  178.10   12.37
   3   3  -1  263.89   15.50
  -3   3   1  263.02   13.03
  -3   3   1  215.02   10.86
   3   3   0   67.10    6.45
  -3   3   0   58.43    6.21
  -3   3   0   63.39    6.47
   3   3   0   49.87    3.87
   3   3   0   70.16    8.44
   3   3   0   63.19    5.17
   3   3   0   76.04    6.94
   3   3   0   55.93    7.65
   3   3   0   57.33    6.71
  -3   3   0   61.63    6.30
   3   3   0   92.22    9.03
  -3   3   0   71.69    6.34
  -3   3   0   63.19    6.67
   3   3   1  238.66   11.09
   3   3   1  213.96   13.96
  -3   3  -1  223.70   13.64
  -3   3  -1  220.91   13.50
   3   3   1  206.42   12.79
   3   3   1  229.36   14.05
   3   3   1  210.68   16.89
  -3   3  -1  252.19   12.37
   3   3   1  173.74   14.61
  -3   3  -1  249.46   14.22
  -3   3  -2  868.14   32.05
  -3   3  -2  610.99   23.01
   3   3   2  846.40   33.09
   3   3   2  792.33   33.37
  -3   3  -2  815.88   31.18
   3   3   2  822.07   40.24
  -3   3  -2  973.70   34.14
   3   3   2  947.23   37.20
   3   3   2  683.85   28.56
   3   3   2  815.03   36.48
  -3   3  -3  396.89   21.20
   3   3   3  403.21   21.88
   3   3   3  370.85   23.97
   3   3   3  314.46   17.65
  -3   3  -3  384.33   20.42
   3   3   3  426.53   23.91
  -3   3  -3  253.09   13.76
  -3   3  -3  353.06   14.54
   3   3   3  315.84   22.09
   3   3   3  454.69   28.31
  -3   3  -4   92.73   10.45
   3   3   4   59.52    7.53
   3   3   4   97.38   11.40
   3   3   4  116.81   15.89
   3   3   4   98.89   12.63
   3   3   4   63.36   11.57
   3   3   4   76.52   11.09
  -3   3  -4   93.54    9.97
  -3   3  -4   81.04    9.40
   3   3   5  228.12   22.40
  -3   3  -5  295.95   20.19
  -3   3  -5  293.38   19.64
  -3   3  -5  381.49   15.34
   3   3   5  241.08   20.91
  -3   3  -5  340.30   20.30
   3   3   5  318.44   30.44
   3   3   5  266.49   17.49
   3   3   5  251.63   21.18
   3   3   6   21.94    6.75
  -3   3  -6   19.47    5.48
  -3   3  -6   17.85    4.82
   3   3   6   16.95    8.92
   3   3   6   25.76    8.71
   3   3   6   12.27    4.96
  -3   3  -6   23.01    5.44
  -3   3  -6   20.91    3.61
  -3   3  -7  361.53   22.02
   3   3   7  295.20   28.49
  -3   3  -7  346.80   20.89
   3   3   7  350.20   34.40
  -3   3  -7  354.40   15.38
   3   3   7  290.16   22.89
  -3   3  -7  328.47   19.78
   3   3   7  270.22   24.11
   3   3   8   24.20    7.14
  -3   3  -8   30.70    5.99
   3   3   8   24.65    8.40
   3   3   8   27.00    9.80
  -3   3  -8   33.43    4.25
  -3   3  -8   32.58    5.57
  -3   3  -8   31.12    5.62
  -3   3  -9   33.71    5.38
   3   3   9   29.34    7.74
   3   3   9   24.98    6.97
  -3   3  -9   35.80    4.93
  -3   3  -9   41.77    5.38
   3   3  10    2.75    2.61
  -3   3 -10    2.52    1.43
  -3   3 -10    1.30    0.96
  -3   4  11  141.07   11.14
   3   4 -11  136.54    9.10
   3   4 -11  126.34    7.19
  -3   4  11  119.06    8.97
  -3   4  10  172.64   17.40
   3   4 -10  150.42   11.40
   3   4 -10  133.69    9.30
  -3   4  10  139.19   12.31
   3   4  -9   46.78    5.96
   3   4  -9   60.11    8.00
  -3   4   9   59.24    7.77
  -3   4   9   60.64   12.68
   3   4  -9   46.90    6.10
  -3   4   9   49.63    8.14
   3   4  -8   90.21    8.54
  -3   4   8   71.60   10.07
   3   4  -8   96.24    8.54
  -3   4   8  114.69   18.76
  -3   4   8  109.04   11.97
   3   4  -8  108.13   11.09
   3   4  -8   90.46    9.67
   3   4  -7  398.38   18.96
  -3   4   7  400.41   25.00
   3   4  -7  399.25   18.82
   3   4  -7  224.91   18.58
  -3   4   7  332.38   33.87
   3   4  -7  455.27   23.66
  -3   4   7  299.03   20.56
   3   4  -6  529.34   22.25
  -3   4   6  433.98   39.36
   3   4  -6  450.87   20.77
   3   4  -6  589.29   26.44
   3   4  -6  571.11   26.84
   3   4  -6  522.82   22.44
  -3   4   6  542.77   29.84
   3   4  -6  540.15   27.29
  -3   4   6  490.29   25.19
   3   4  -5   46.90    5.40
  -3   4   5   31.42    9.98
   3   4  -5   57.86    6.62
  -3   4   5   35.16    7.18
   3   4  -5   45.80    6.57
   3   4  -5   50.09    5.52
  -3   4   5   61.07    6.74
   3   4  -5   48.28    7.48
   3   4  -4  531.84   20.35
   3   4  -4  556.56   21.82
   3   4  -4  522.05   20.02
   3   4  -4  514.24   25.58
  -3   4   3   87.32    7.82
   3   4  -3   98.53    7.21
   3   4  -3   83.69    6.97
   3   4  -3   85.15    7.45
   3   4  -3   93.46    9.89
   3   4  -3   98.80    8.66
  -3   4   3   90.18    9.96
   3   4  -2  210.57   11.04
  -3   4   2  187.29   12.10
   3   4  -2  298.27   14.63
   3   4  -2  249.23   11.86
   3   4  -2  178.72   11.43
  -3   4   2  174.47   13.37
  -3   4   2  288.28   14.01
   3   4  -2  236.47   11.52
   3   4  -2  209.86   13.12
  -3   4   2  211.64   18.80
   3   4  -2  223.36   14.85
  -3   4   1  502.62   23.00
   3   4  -1  629.85   22.07
   3   4  -1  607.32   21.74
  -3   4   1  709.28   24.48
   3   4  -1  474.29   23.10
   3   4  -1  552.38   26.60
   3   4  -1  743.74   26.69
  -3   4   1  585.49   25.02
   3   4   0   36.90    4.58
  -3   4   0   37.04    5.54
  -3   4   0   40.19    4.98
  -3   4   0   42.05    4.93
   3   4   0   36.52    7.07
   3   4   0   41.08    5.95
   3   4   0   50.21    7.52
   3   4   0   31.73    5.85
  -3   4   0   33.52    5.68
   3   4   1 2125.45   58.85
   3   4   1 1898.74   64.17
  -3   4  -1 1814.05   61.68
  -3   4  -1 1820.06   55.32
   3   4   1 1844.46   67.25
  -3   4  -1 2107.82   63.15
  -3   4  -1 2008.13   61.81
  -3   4  -2   41.06    6.66
   3   4   2   45.28    8.89
  -3   4  -2   45.47    6.95
  -3   4  -2   52.69    4.86
   3   4   2   39.25    6.68
   3   4   2   58.47    8.62
  -3   4  -2   52.48    7.52
  -3   4  -3  133.93   12.59
  -3   4  -3  138.91    9.32
   3   4   3  128.42   12.18
   3   4   3  122.78   15.89
  -3   4  -3  112.59    8.11
   3   4   3  117.90   14.53
  -3   4  -3  151.71   13.35
  -3   4  -3  139.73   12.59
   3   4   3  152.01   15.10
  -3   4  -4   23.11    5.78
   3   4   4   35.44    8.52
   3   4   4   27.03    8.89
   3   4   4   35.44    6.68
  -3   4  -4   26.34    5.97
  -3   4  -4    9.88    3.38
  -3   4  -4   27.76    4.21
  -3   4  -4   26.94    6.12
   3   4   4   25.64    7.60
  -3   4  -5  226.94   18.09
   3   4   5  281.59   19.03
  -3   4  -5  245.97   17.80
   3   4   5  235.06   22.96
   3   4   5  227.23   21.89
   3   4   5  210.75   24.28
  -3   4  -6   97.39   11.32
   3   4   6  128.46   12.35
   3   4   6   83.69   14.47
  -3   4  -6  131.32    8.60
   3   4   6   95.44   13.83
  -3   4  -6  101.61   11.18
  -3   4  -6  111.63   11.44
   3   4   6  100.19   17.46
  -3   4  -7   32.42    6.21
   3   4   7   41.11    8.61
   3   4   7   28.68    8.89
   3   4   7   32.29    9.26
  -3   4  -7   35.59    5.93
  -3   4  -7   37.34    4.64
  -3   4  -7   36.35    6.37
  -3   4  -8  518.47   21.61
  -3   4  -8  496.73   23.45
   3   4   8  445.91   30.69
  -3   4  -8  488.71   18.04
  -3   4  -8  499.16   22.91
  -3   4  -9    1.19    1.42
  -3   4  -9    0.83    1.22
   3   4   9    2.50    2.90
  -3   4  -9    1.48    1.46
   3   5 -10  167.36    9.99
  -3   5  10  190.56   15.02
   3   5 -10  160.66    9.09
  -3   5   9  184.66   12.50
  -3   5   9  197.09   19.73
   3   5  -9  173.56   11.91
   3   5  -9  147.78   10.33
  -3   5   8  156.62   13.70
   3   5  -8  134.33   11.29
  -3   5   7  310.76   22.20
   3   5  -7  303.07   15.22
  -3   5   7  308.53   31.01
   3   5  -7  251.75   16.61
   3   5  -7  280.36   16.94
   3   5  -6   16.54    4.35
  -3   5   6   16.66    5.88
  -3   5   6   10.92    6.89
   3   5  -6   13.14    3.23
   3   5  -6    8.47    3.08
   3   5  -6    8.61    2.89
   3   5  -6   18.12    4.59
   3   5  -5  285.23   15.51
   3   5  -5  336.21   17.44
   3   5  -5  300.84   15.45
   3   5  -5  284.35   18.20
   3   5  -4  233.89   13.25
  -3   5   4  198.02   17.83
   3   5  -4  221.21   12.51
   3   5  -4  221.61   13.50
   3   5  -4  197.14   14.83
  -3   5   4  213.83   12.75
  -3   5   3  155.28   10.98
  -3   5   3  138.73   14.38
   3   5  -3  168.29   11.72
  -3   5   3  157.82   18.37
   3   5  -3  166.33   12.92
   3   5  -3  184.85   11.44
   3   5  -2  289.04   15.50
  -3   5   2  190.82   12.67
   3   5  -2  269.80   12.80
  -3   5   2  171.71   14.96
   3   5  -2  192.77   12.73
  -3   5   2  171.68   10.96
   3   5  -2  233.44   15.09
  -3   5   2  230.69   19.45
   3   5  -1   19.47    3.24
  -3   5   1   13.59    3.68
   3   5  -1   14.33    3.94
  -3   5   1   14.92    4.10
  -3   5   1    9.64    2.44
   3   5  -1   10.45    3.27
   3   5  -1   10.84    3.84
  -3   5   0  773.79   29.23
  -3   5   0  642.34   29.14
   3   5   0  870.25   33.81
   3   5   0  983.29   39.50
   3   5   0  688.95   33.28
  -3   5   0  638.04   24.68
  -3   5  -1  203.41   15.07
   3   5   1  218.57   17.00
   3   5   1  206.44   17.32
  -3   5  -1  233.92   11.88
   3   5   2   43.07    8.36
  -3   5  -2   41.48    4.84
  -3   5  -2   37.27    6.87
   3   5   2   41.24    8.63
  -3   5  -2   39.03    7.17
   3   5   2   46.28    9.67
  -3   5  -2   42.07    7.07
  -3   5  -3  378.74   21.96
   3   5   3  398.16   24.49
   3   5   3  403.34   27.99
  -3   5  -3  379.97   17.85
   3   5   3  402.81   26.87
  -3   5  -3  318.03   15.76
  -3   5  -3  402.16   23.65
  -3   5  -4  231.08   17.44
   3   5   4  253.02   19.49
  -3   5  -4  288.02   13.56
  -3   5  -4  262.59   18.77
   3   5   4  318.22   26.62
   3   5   4  287.76   23.43
  -3   5  -4  265.41   17.57
   3   5   4  238.07   22.20
  -3   5  -5   44.99    7.52
   3   5   5   58.98    8.82
   3   5   5   46.82   10.43
  -3   5  -5   55.30    8.47
   3   5   5   50.39   10.80
  -3   5  -5   57.02    7.62
   3   5   5   49.63   10.23
  -3   5  -6   18.12    4.67
   3   5   6   30.34    6.08
  -3   5  -6   24.51    5.54
  -3   5  -6   21.70    3.66
   3   5   6   24.21    7.35
   3   5   6   15.86    6.51
  -3   5  -7  109.11    9.74
   3   5   7  110.80   14.14
  -3   5  -7  121.27    7.58
  -3   5  -8   84.62    5.49
   3   5   8   86.14   10.08
  -3   6   9    3.51    1.54
  -3   6   9    2.58    2.44
   3   6  -9    2.51    1.41
  -3   6   8  139.11   11.15
  -3   6   8  148.16   16.22
   3   6  -8  126.15    8.76
  -3   6   7   61.77    8.85
  -3   6   7   60.77   11.79
   3   6  -7   51.46    6.12
  -3   6   6  106.90   12.84
   3   6  -6   92.32    9.38
  -3   6   6   76.35   14.06
   3   6  -6   91.22    8.74
   3   6  -5   29.70    4.04
   3   6  -5   31.17    5.22
  -3   6   5   17.94    6.95
   3   6  -5   21.79    4.25
   3   6  -5   24.74    4.74
   3   6  -4  579.00   23.51
  -3   6   4  449.96   29.51
   3   6  -4  580.30   23.83
  -3   6   4  443.86   33.02
   3   6  -4  429.56   21.88
  -3   6   3   81.69   11.56
   3   6  -3  113.53    9.52
  -3   6   3   81.84    7.77
  -3   6   3  127.38   15.10
   3   6  -3  104.80    8.90
  -3   6   2    7.96    3.73
   3   6  -2    7.57    2.80
  -3   6   2    5.31    2.15
   3   6  -2    6.70    3.65
  -3   6   2    5.16    2.29
   3   6  -2    5.30    2.56
   3   6  -2    6.21    2.58
   3   6  -1  237.49   15.64
  -3   6   1  182.14   12.68
  -3   6   1  233.26   15.98
  -3   6   1  168.15   10.81
   3   6  -1  167.69   12.78
   3   6  -1  236.05   14.04
   3   6   0   43.87    5.94
  -3   6   0   33.65    5.75
   3   6   0   46.10    7.57
  -3   6   0   36.45    4.59
   3   6   0   29.23    5.42
  -3   6   0   39.91    5.71
  -3   6  -1  297.62   13.89
  -3   6  -1  239.77   16.62
   3   6   1  272.47   19.56
   3   6   1  217.89   17.62
  -3   6  -2  290.68   19.13
   3   6   2  320.35   23.22
   3   6   2  283.99   21.07
  -3   6  -2  248.58   13.62
   3   6   2  297.73   20.88
   3   6   3  335.84   22.93
  -3   6  -3  257.45   18.12
  -3   6  -3  227.40   13.70
  -3   6  -3  284.22   13.62
   3   6   3  269.58   24.41
   3   6   3  308.87   22.93
  -3   6  -4  263.25   18.35
   3   6   4  362.10   23.38
  -3   6  -4  361.54   15.14
   3   6   4  291.51   23.07
   3   6   5    6.73    3.62
  -3   6  -5    7.22    3.30
   3   6   5    7.83    4.44
  -3   6  -5    6.53    2.25
  -3   6  -6  194.51   12.94
   3   6   6  169.64   15.43
  -3   6  -7   25.48    3.82
   3   6   7   25.78    4.89
  -3   6  -7   27.10    2.96
   3   6   7   24.17    4.36
  -3   7   8   12.40    2.38
  -3   7   8   14.52    3.46
  -3   7   7    4.95    2.94
  -3   7   7    3.91    2.29
   3   7  -7    5.64    1.74
   3   7  -6    8.32    2.82
  -3   7   6   12.12    4.56
   3   7  -6   12.45    2.61
  -3   7   5  184.86   15.33
   3   7  -5  188.33   11.94
  -3   7   5  175.24   16.35
   3   7  -4   48.61    5.95
  -3   7   4   37.26    4.61
  -3   7   4   45.70    7.89
  -3   7   4   45.63    7.82
  -3   7   3   79.14    9.99
  -3   7   3   78.83    6.84
   3   7  -3   94.70    8.56
   3   7  -3  104.42    8.79
  -3   7   2  248.75   16.95
   3   7  -2  227.77   13.93
  -3   7   2  215.84   11.84
   3   7  -1  107.35    9.24
  -3   7   1   93.09    7.03
   3   7  -1   72.87    7.97
  -3   7   1   94.21    9.01
   3   7   0  836.56   32.68
   3   7   0  556.43   27.04
  -3   7   0  663.08   23.00
   3   7   0  777.38   32.54
   3   7   0  707.72   27.69
  -3   7  -1   22.53    4.24
   3   7   1   25.63    5.71
   3   7   1   25.80    4.48
   3   7   1   31.87    6.23
   3   7   1   17.20    4.27
  -3   7  -1   26.73    3.67
   3   7   2   33.98    4.84
  -3   7  -2   24.71    4.66
   3   7   2   21.05    4.76
  -3   7  -2   28.27    3.69
   3   7   2   28.09    5.99
   3   7   2   25.65    5.92
  -3   7  -3  118.53    9.87
   3   7   3  102.19   10.29
   3   7   3  130.99   12.27
   3   7   4   12.27    4.11
   3   7   4    5.21    2.63
  -3   7  -4   10.95    2.25
   3   7   4   10.48    3.68
  -3   7  -4    8.45    2.70
  -3   7  -5   85.27    6.82
   3   7   5   75.91    7.77
  -3   7  -5  104.79    5.97
   3   7   5  102.76    9.06
   3   7   6   45.98    4.98
  -3   7  -6   62.39    3.98
   3   8  -5   20.05    3.31
  -3   8   5   35.12    4.68
  -3   8   4  107.63    8.81
   3   8  -4  138.52    8.85
  -3   8   3  112.20    8.79
   3   8  -3  144.91    8.95
   3   8  -2   35.54    4.52
  -3   8   2   29.82    3.96
   3   8  -1  397.57   16.47
   3   8  -1  253.53   13.74
   3   8   0  120.35    8.76
   3   8   0   95.35    7.42
   3   8   1   24.70    4.08
   3   8   2   44.30    5.30
  -3   8  -3   86.63    4.44
   3   8   3   93.97    7.34
  -4  -8   5  119.25    6.04
  -4  -8   4   86.81    4.78
  -4  -8   4  133.78    6.51
  -4  -8   3   23.74    2.66
  -4  -8   2   78.02    5.39
  -4  -8   1  504.98   16.52
  -4  -8   1  547.59   18.41
  -4  -8   0   32.22    3.08
  -4  -8   0  139.03    6.96
  -4  -8  -1  152.20    7.42
  -4  -8  -2    1.47    0.87
  -4  -8  -2    1.10    0.79
  -4  -7   8  178.19   10.17
   4  -7  -7   12.25    1.55
  -4  -7   7   16.32    3.75
   4  -7  -7   15.96    1.96
  -4  -7   7   16.98    2.85
  -4  -7   7   14.85    3.60
  -4  -7   7   18.88    3.95
  -4  -7   6   41.29    5.77
  -4  -7   6   44.96    4.36
   4  -7  -6   34.87    2.91
  -4  -7   6   41.88    4.51
  -4  -7   5  463.15   24.21
  -4  -7   5  499.36   17.97
  -4  -7   5  464.08   18.31
  -4  -7   4    1.94    1.46
  -4  -7   3   38.29    4.82
  -4  -7   3   42.29    5.01
  -4  -7   2  160.52    9.42
  -4  -7   2  132.64    9.81
  -4  -7   1   71.99    6.65
  -4  -7   0  162.42   10.55
  -4  -7   0  149.02   10.32
  -4  -7  -1   20.59    3.68
  -4  -7  -1   19.72    3.78
  -4  -7  -2   17.29    3.52
  -4  -7  -2   15.48    2.64
  -4  -7  -2   17.44    3.30
  -4  -7  -3    1.56    1.18
  -4  -7  -3    2.50    1.47
  -4  -7  -3    1.73    1.43
  -4  -7  -4   49.09    4.10
  -4  -7  -4   43.95    4.71
  -4  -7  -5    8.02    1.32
  -4  -7  -5    6.01    1.50
  -4  -6   9  181.78   13.92
  -4  -6   9   68.36    8.71
   4  -6  -9  113.78    6.14
  -4  -6   9  166.67   11.20
  -4  -6   9  145.33   10.44
  -4  -6   9  147.51   10.47
   4  -6  -9  111.22    5.83
  -4  -6   9  131.85   10.26
  -4  -6   8   15.47    4.64
  -4  -6   8   14.18    4.22
   4  -6  -8    9.03    1.80
   4  -6  -8   11.47    2.20
   4  -6  -8    8.97    1.88
  -4  -6   8   10.60    2.91
  -4  -6   8   12.44    4.00
  -4  -6   8   10.52    3.67
  -4  -6   7   40.47    7.36
  -4  -6   7   29.88    4.38
   4  -6  -7   29.58    3.35
  -4  -6   7   27.59    4.24
  -4  -6   6  131.48   12.82
  -4  -6   6  112.40    8.12
  -4  -6   5   84.94    7.14
  -4  -6   5   91.93    7.41
  -4  -6   4  113.84    9.57
  -4  -6   4  105.60    8.38
  -4  -6   3   26.47    3.89
  -4  -6   2  417.40   19.01
  -4  -6   2  404.97   20.21
  -4  -6   1   57.17    6.81
  -4  -6   1   54.01    7.07
  -4  -6   0   25.58    3.89
  -4  -6   0   26.47    5.30
  -4  -6  -1   59.59    6.33
  -4  -6  -1   61.74    6.50
  -4  -6  -1   57.33    7.02
  -4  -6  -2  277.51   15.04
  -4  -6  -2  296.08   17.29
  -4  -6  -2  276.07   15.14
  -4  -6  -3   27.53    4.42
  -4  -6  -3   24.39    4.11
  -4  -6  -3   31.62    5.48
  -4  -6  -3   26.54    4.45
  -4  -6  -4   26.48    3.97
  -4  -6  -4   27.81    3.95
  -4  -6  -4   19.66    3.67
   4  -6   4   16.67    7.43
  -4  -6  -4   21.24    4.36
  -4  -6  -4   25.29    4.07
  -4  -6  -5   57.87    5.30
  -4  -6  -5   45.58    5.05
  -4  -6  -5   47.96    5.84
  -4  -6  -5   55.96    5.44
  -4  -6  -5   55.17    4.67
  -4  -6  -6   87.34    6.06
  -4  -6  -6  101.27    7.34
  -4  -6  -6   89.95    4.78
  -4  -6  -7   15.68    2.14
   4  -6   7   27.34   11.54
  -4  -6  -7   17.42    2.33
   4  -5 -10  124.13    6.89
  -4  -5  10  218.83   15.68
   4  -5 -10  101.98    5.94
   4  -5 -10  136.91    7.18
  -4  -5  10  140.26   10.90
  -4  -5  10  145.47   10.92
  -4  -5  10  236.33   15.81
  -4  -5  10  186.93   12.43
   4  -5  -9   30.99    3.64
   4  -5  -9   30.39    3.58
  -4  -5   9   38.88    6.42
   4  -5  -9   25.17    3.17
   4  -5  -9   34.89    3.95
  -4  -5   9   46.83    7.15
  -4  -5   9   38.67    6.37
  -4  -5   9   45.56    8.09
  -4  -5   8  337.49   19.64
   4  -5  -8  312.37   13.73
   4  -5  -8  300.22   13.04
   4  -5  -8  313.62   13.81
  -4  -5   8  317.16   15.58
  -4  -5   8  310.14   19.05
  -4  -5   8  337.66   19.37
  -4  -5   8  375.19   24.01
  -4  -5   7    5.20    3.39
  -4  -5   7    4.01    2.20
  -4  -5   7    1.34    2.37
   4  -5  -7    1.26    1.18
  -4  -5   7    3.77    2.58
  -4  -5   6  132.69    8.99
   4  -5  -6  128.35    8.51
  -4  -5   6  121.27    8.38
  -4  -5   6  118.16    8.58
  -4  -5   5  367.82   18.24
  -4  -5   5  308.88   15.03
  -4  -5   4   88.65    7.50
  -4  -5   4   87.19    8.53
  -4  -5   3  316.27   15.12
  -4  -5   3  355.91   17.91
  -4  -5   2  223.11   12.96
  -4  -5   2  203.59   13.57
  -4  -5   1  252.25   15.97
  -4  -5   0  724.92   26.27
  -4  -5   0  642.06   27.83
  -4  -5   0  644.33   25.21
  -4  -5  -1   38.53    5.45
  -4  -5  -1   42.43    6.66
  -4  -5  -1   37.27    5.39
  -4  -5  -2  485.45   22.09
  -4  -5  -2  491.80   23.32
  -4  -5  -2  477.01   22.23
  -4  -5  -3  111.71    9.26
  -4  -5  -3  110.03   10.32
  -4  -5  -3  118.79   12.00
  -4  -5  -3  108.37    9.46
  -4  -5  -4  145.75   10.24
  -4  -5  -4  107.29   10.28
  -4  -5  -4  117.62   12.06
  -4  -5  -4  146.74   10.77
  -4  -5  -5   29.83    5.06
  -4  -5  -5   32.41    6.15
  -4  -5  -5   32.10    4.07
   4  -5   5   17.61    9.83
  -4  -5  -5   32.91    4.92
  -4  -5  -6   55.93    6.29
  -4  -5  -6   62.06    5.69
  -4  -5  -6   60.22    4.58
  -4  -5  -6   66.26    7.67
  -4  -5  -7  210.58    9.90
  -4  -5  -7  214.00   11.45
  -4  -5  -8   26.52    2.96
  -4  -5  -8   31.46    3.39
   4  -5   8   21.12    7.76
  -4  -5  -8   22.93    2.52
   4  -4 -11  183.88    9.44
   4  -4 -11  194.01    8.88
  -4  -4  11  315.16   17.74
  -4  -4  11  367.00   19.44
   4  -4 -10   29.80    3.71
   4  -4 -10   30.60    3.82
  -4  -4  10   36.96    7.28
   4  -4 -10   26.18    3.67
   4  -4 -10   31.07    3.73
  -4  -4  10   27.92    5.81
  -4  -4  10   30.12    5.98
  -4  -4  10   42.92    7.86
   4  -4  -9  143.34    9.01
   4  -4  -9  147.13    9.27
  -4  -4   9  159.26   13.59
  -4  -4   9  150.06   12.78
  -4  -4   9  182.38   16.23
  -4  -4   8   82.59   10.74
  -4  -4   8   54.72    6.55
  -4  -4   8   50.54    9.26
   4  -4  -8   77.13    6.61
   4  -4  -8   73.28    6.38
   4  -4  -8   52.48    5.76
  -4  -4   8   73.21    7.05
  -4  -4   8   68.62    8.98
  -4  -4   8   75.14    9.04
  -4  -4   7   64.33    9.89
  -4  -4   7   68.13    6.60
   4  -4  -7   65.83    6.38
  -4  -4   7   54.15    5.98
  -4  -4   6 1220.46   38.06
   4  -4  -6 1309.26   40.50
  -4  -4   6 1191.11   37.76
  -4  -4   5   61.10    6.45
  -4  -4   5   52.95    5.26
  -4  -4   4  735.72   24.08
  -4  -4   4  727.23   25.54
  -4  -4   3  115.70    7.80
  -4  -4   3  119.69    9.10
  -4  -4   2  524.50   20.55
  -4  -4   2  460.06   20.94
  -4  -4   1  478.84   18.20
  -4  -4   1  430.23   19.82
  -4  -4   0   44.67    5.29
  -4  -4   0   43.39    6.20
  -4  -4   0   41.94    5.04
  -4  -4  -1  890.98   31.66
  -4  -4  -1  901.50   33.53
  -4  -4  -1  958.03   36.91
  -4  -4  -1  903.33   32.05
  -4  -4  -2  404.23   18.88
  -4  -4  -2  423.37   21.68
  -4  -4  -2  399.84   19.35
  -4  -4  -3  127.08   11.39
  -4  -4  -3  138.04   13.30
  -4  -4  -3  123.86    9.95
  -4  -4  -3  131.44    9.90
   4  -4   4   59.66    8.40
  -4  -4  -4   60.81    7.87
  -4  -4  -4   67.71    9.40
  -4  -4  -4   65.52    7.13
  -4  -4  -5  299.56   15.14
  -4  -4  -5  283.36   13.51
  -4  -4  -5  299.84   17.75
   4  -4   5  226.59   28.58
   4  -4   5  245.96   19.24
  -4  -4  -6  285.61   14.04
   4  -4   6  213.08   18.95
  -4  -4  -6  286.84   16.55
   4  -4   6  192.03   27.97
  -4  -4  -6  253.30   11.28
  -4  -4  -6  322.47   18.95
  -4  -4  -6  286.93   14.79
  -4  -4  -7   41.97    4.54
   4  -4   7   30.34    7.21
   4  -4   7   48.91   18.16
  -4  -4  -7   43.11    6.08
  -4  -4  -8   34.20    4.32
   4  -4   8   24.75    6.72
   4  -4   8   69.88   21.09
   4  -4   8   58.54   19.36
  -4  -4  -8   36.40    4.61
   4  -4   9   72.21   18.06
  -4  -4  -9   35.55    3.28
   4  -4   9   78.07   22.84
  -4  -3  12  222.57   12.85
  -4  -3  12  263.76   14.67
   4  -3 -11   27.97    3.42
  -4  -3  11   43.83    6.97
   4  -3 -11   32.43    4.26
   4  -3 -11   27.68    3.22
  -4  -3  11   49.52    7.69
   4  -3 -10  133.05    8.36
   4  -3 -10  137.20    9.27
  -4  -3  10  117.14   11.34
   4  -3 -10  135.55    8.16
  -4  -3  10  142.85   13.76
  -4  -3  10  124.71   12.37
  -4  -3  10  129.12   12.04
  -4  -3  10  168.20   15.11
  -4  -3   9   24.55    6.35
   4  -3  -9   19.43    3.42
   4  -3  -9   19.50    3.66
  -4  -3   9   23.80    6.18
  -4  -3   9   20.81    5.64
  -4  -3   9   18.49    5.26
  -4  -3   8   92.94   10.98
  -4  -3   8   88.14    9.74
   4  -3  -8   84.79    7.89
  -4  -3   8   79.74    7.53
  -4  -3   8   98.95   10.56
  -4  -3   8  106.22   10.48
  -4  -3   7  943.99   38.62
  -4  -3   7  993.52   33.06
  -4  -3   7  916.60   31.97
  -4  -3   6  261.78   12.14
   4  -3  -6  267.52   12.27
   4  -3  -6  267.34   13.80
  -4  -3   6  237.20   11.98
   4  -3  -5  506.10   18.65
  -4  -3   5  478.91   19.25
  -4  -3   5  458.24   17.65
  -4  -3   4 1566.36   41.51
  -4  -3   4 1481.99   43.81
  -4  -3   4 1607.35   43.00
  -4  -3   3   89.77   10.69
   4  -3  -3  101.78    6.45
   4  -3  -3   93.23    9.94
  -4  -3   3  100.78    6.38
  -4  -3   3   87.38    7.01
   4  -3  -3   95.28    5.59
  -4  -3   2  111.77   10.35
  -4  -3   2  106.02    7.62
   4  -3  -2  130.91    7.49
   4  -3  -2  109.01    8.41
   4  -3  -2  127.15    6.27
  -4  -3   2  114.92    8.19
  -4  -3   2  132.37    8.22
  -4  -3   2  137.01    8.00
   4  -3  -1  349.58   20.27
   4  -3  -1  453.07   23.59
  -4  -3   1  364.16   15.05
  -4  -3   1  384.69   15.15
  -4  -3   1  368.92   18.66
  -4  -3   1  370.03   20.86
  -4  -3   1  360.73   17.01
   4  -3  -1  390.94   15.95
   4  -3  -1  437.58   19.70
  -4  -3   1  365.43   18.73
   4  -3  -1  473.48   13.97
  -4  -3   1  432.78   17.38
  -4  -3   0 1458.06   50.91
   4  -3   0 1666.91   53.54
   4  -3   0 1724.47   52.51
  -4  -3   0 1481.47   46.33
  -4  -3   0 1616.75   49.63
   4  -3   0 1414.14   45.04
  -4  -3   0 1550.53   45.98
  -4  -3   0 1602.13   45.60
  -4  -3   0 1592.36   48.48
  -4  -3   0 1637.08   47.40
   4  -3   0 1873.79   56.08
  -4  -3  -1   14.99    2.69
  -4  -3  -1   11.02    2.61
  -4  -3  -1   16.01    2.97
  -4  -3  -1   18.67    3.74
  -4  -3  -1   18.58    4.21
   4  -3   1   14.32    3.97
  -4  -3  -1   13.58    2.89
  -4  -3  -2  106.15   10.46
  -4  -3  -2   94.78    8.91
  -4  -3  -2   83.74    7.40
  -4  -3  -2   88.27    7.25
  -4  -3  -3   15.49    3.91
   4  -3   3   15.14    4.09
  -4  -3  -3   15.49    3.45
  -4  -3  -4  219.97   14.50
  -4  -3  -4  204.94   11.91
  -4  -3  -4  194.43   13.93
   4  -3   4  211.20   17.12
  -4  -3  -4  203.89   15.96
  -4  -3  -5   95.97    6.76
  -4  -3  -5  122.19    8.82
   4  -3   5   98.83   12.73
  -4  -3  -5  123.28   12.18
  -4  -3  -5  105.10    8.74
  -4  -3  -5  123.86   10.94
  -4  -3  -6   66.32    7.96
  -4  -3  -6   60.83    6.44
  -4  -3  -6   56.94    5.97
   4  -3   6   50.03   16.98
   4  -3   6   44.23    9.38
  -4  -3  -6   65.94    8.38
  -4  -3  -7  136.20    8.84
   4  -3   7  129.51   16.72
  -4  -3  -7  174.82   12.62
   4  -3   7  149.16   27.87
  -4  -3  -7  143.09   11.05
  -4  -3  -7  169.25   12.31
   4  -3   8    3.96   12.92
   4  -3   8    1.08    3.33
   4  -3   8    4.48   11.50
  -4  -3  -8    3.32    1.96
  -4  -3  -8    1.97    1.71
  -4  -3  -8    2.21    1.86
  -4  -3  -9  147.55    8.68
  -4  -3  -9  148.05    8.32
  -4  -3  -9  152.35    8.07
   4  -3   9  162.32   19.50
  -4  -2  12   33.48    5.10
   4  -2 -12   26.17    3.58
  -4  -2  12   33.89    5.63
  -4  -2  11  251.73   16.66
   4  -2 -11  219.00   11.86
  -4  -2  11  276.65   18.26
   4  -2 -10   14.30    3.10
   4  -2 -10   15.08    2.88
   4  -2 -10   13.54    2.79
  -4  -2  10   18.96    5.33
   4  -2 -10   16.12    2.81
   4  -2  -9   51.39    5.61
   4  -2  -9   53.81    5.16
   4  -2  -9   53.76    5.63
  -4  -2   9   50.46    7.53
  -4  -2   9   54.89    8.75
  -4  -2   9   61.83    8.62
   4  -2  -8  282.64   14.23
  -4  -2   8  303.41   17.44
   4  -2  -8  316.89   13.89
   4  -2  -8  251.12   14.75
  -4  -2   8  343.86   20.21
  -4  -2   8  325.33   18.63
  -4  -2   7  331.40   19.54
  -4  -2   7  354.47   16.91
   4  -2  -7  497.53   18.42
  -4  -2   7  399.39   19.88
  -4  -2   7  440.10   21.53
   4  -2  -7  517.16   19.90
  -4  -2   7  461.02   22.31
  -4  -2   7  450.03   21.27
  -4  -2   6  144.41    8.14
   4  -2  -6  140.57    9.20
   4  -2  -6  148.18    8.76
   4  -2  -5  320.08   13.45
   4  -2  -5  302.63   13.54
   4  -2  -5  319.61   13.15
  -4  -2   5  319.38   13.66
  -4  -2   5  305.36   12.54
  -4  -2   5  321.63   12.39
  -4  -2   4 1451.63   64.39
   4  -2  -4 2058.36   55.33
  -4  -2   4 1586.74   63.97
  -4  -2   4 1646.42   50.60
   4  -2  -4 2015.73   52.23
   4  -2  -4 1549.03   56.96
  -4  -2   4 1928.00   50.29
  -4  -2   4 1883.54   49.34
   4  -2  -4 2078.02   52.32
  -4  -2   3  265.30   18.14
  -4  -2   3  321.90   12.04
   4  -2  -3  330.30   13.90
   4  -2  -3  255.34   16.40
   4  -2  -3  255.25   16.37
  -4  -2   3  300.21   13.19
   4  -2  -3  306.26   11.20
   4  -2  -2  600.88   22.06
   4  -2  -2  668.77   29.28
  -4  -2   2  497.23   24.23
  -4  -2   2  594.27   19.73
  -4  -2   2  528.77   20.48
   4  -2  -2  632.29   18.24
  -4  -2   2  617.03   19.84
   4  -2  -1   48.56    5.06
   4  -2  -1   49.73    6.87
  -4  -2   1   48.82    4.34
  -4  -2   1   38.41    5.66
   4  -2  -1   50.78    4.50
  -4  -2   1   39.96    4.53
   4  -2  -1   39.57    5.25
   4  -2  -1   47.45    5.34
  -4  -2   1   41.10    5.38
   4  -2  -1   56.52    3.53
  -4  -2   1   48.83    4.28
   4  -2   0  149.09   11.28
  -4  -2   0  122.21    7.43
  -4  -2   0  142.60    7.99
   4  -2   0  139.39    7.93
  -4  -2   0  136.65    9.41
  -4  -2   0  129.17    9.10
  -4  -2   0  146.62    7.97
  -4  -2   0  124.61    7.69
   4  -2   0  167.26   11.22
   4  -2   0  143.00    5.77
  -4  -2   0  135.62    7.62
   4  -2   1  285.14   12.87
  -4  -2  -1  281.03   15.30
   4  -2   1  276.31    8.49
  -4  -2  -1  235.93   11.62
  -4  -2  -1  295.08   13.22
  -4  -2  -1  280.22   13.96
  -4  -2  -1  260.67   14.46
  -4  -2  -1  262.60   12.20
  -4  -2  -1  250.50   12.28
   4  -2   1  324.89   16.96
   4  -2   1  283.73   16.52
  -4  -2  -1  280.70   16.04
   4  -2   1  274.33   14.39
   4  -2   1  227.81    7.66
  -4  -2  -1  257.26   11.16
   4  -2   2   92.03    6.44
   4  -2   2   91.61    9.62
  -4  -2  -2   90.67    7.40
  -4  -2  -2   85.51    7.88
   4  -2   2   89.72    8.81
  -4  -2  -2   85.82    6.30
   4  -2   2   93.40    8.86
  -4  -2  -2   71.51    6.25
  -4  -2  -2   94.01    9.56
  -4  -2  -2   76.34    5.28
  -4  -2  -3  155.19   11.34
  -4  -2  -3  132.50    7.65
  -4  -2  -3  125.21   10.02
   4  -2   3  134.60   17.93
   4  -2   3  129.08   12.16
  -4  -2  -3  122.07    8.67
  -4  -2  -3  157.36   12.38
  -4  -2  -3  126.29    8.32
  -4  -2  -4  117.57    8.28
  -4  -2  -4  136.97   11.37
  -4  -2  -4  116.98    7.01
   4  -2   4   89.94   17.19
   4  -2   4  150.09   14.85
  -4  -2  -4  121.45    8.75
  -4  -2  -4  126.74   11.52
  -4  -2  -5  380.89   16.95
   4  -2   5  288.63   33.93
  -4  -2  -5  391.69   20.37
   4  -2   5  394.54   27.89
   4  -2   5  384.60   22.82
  -4  -2  -5  466.44   23.23
  -4  -2  -5  383.99   17.66
  -4  -2  -5  478.66   23.20
  -4  -2  -6  425.88   21.44
  -4  -2  -6  347.12   16.08
  -4  -2  -6  374.41   19.52
   4  -2   6  296.87   38.09
   4  -2   6  344.85   28.32
   4  -2   6  305.94   22.07
  -4  -2  -6  423.65   21.64
  -4  -2  -6  354.84   17.00
  -4  -2  -6  461.81   22.83
  -4  -2  -7  178.52   12.30
  -4  -2  -7  206.67   13.76
  -4  -2  -7  207.14   14.69
   4  -2   7  245.73   36.32
   4  -2   7  182.56   21.82
   4  -2   7  171.27   27.85
   4  -2   7  146.86   15.49
  -4  -2  -7  196.67   13.41
   4  -2   8   25.25   13.98
  -4  -2  -8   21.14    3.80
  -4  -2  -8   16.51    3.46
   4  -2   8   16.39    7.43
   4  -2   8   13.86    4.88
  -4  -2  -8   17.47    3.51
  -4  -2  -8   23.15    4.61
   4  -2   9    6.99    8.95
  -4  -2  -9    7.64    2.07
   4  -2   9    9.55    6.85
   4  -2   9    9.81    9.04
   4  -2   9    5.66    3.05
  -4  -2  -9    7.10    2.48
  -4  -2 -10   99.03    6.36
   4  -2  10  145.66   21.97
   4  -2  10  170.44   20.07
   4  -1 -12  156.12    8.97
  -4  -1  12  170.86   11.59
   4  -1 -12  145.14    8.75
   4  -1 -11   35.99    4.53
  -4  -1  11   34.92    6.14
   4  -1 -11   31.95    4.54
   4  -1 -10   56.19    6.22
  -4  -1  10   58.78    8.25
   4  -1 -10   52.15    4.88
   4  -1 -10   60.05    6.25
   4  -1 -10   44.54    4.17
  -4  -1  10   57.39    8.98
   4  -1  -9  316.33   16.29
   4  -1  -9  348.50   15.93
  -4  -1   9  322.98   19.27
   4  -1  -9  308.76   14.44
  -4  -1   9  333.76   20.34
   4  -1  -9  309.92   12.91
   4  -1  -9  291.76   13.16
  -4  -1   9  364.78   21.80
   4  -1  -8  471.91   20.15
   4  -1  -8  477.93   17.43
  -4  -1   8  508.63   23.54
  -4  -1   8  518.61   26.67
  -4  -1   8  535.22   25.50
   4  -1  -8  490.74   18.29
  -4  -1   8  484.05   24.72
   4  -1  -7   42.66    4.85
  -4  -1   7   23.45    5.35
   4  -1  -7   39.92    4.16
   4  -1  -7   38.85    5.02
  -4  -1   7   38.06    5.58
  -4  -1   7   47.63    7.12
  -4  -1   7   46.18    6.57
  -4  -1   7   31.25    5.54
  -4  -1   6  519.99   22.40
   4  -1  -6  577.28   20.26
  -4  -1   6  620.65   23.24
   4  -1  -6  505.63   24.10
  -4  -1   6  517.86   21.32
   4  -1  -6  592.95   20.87
  -4  -1   6  468.32   19.14
  -4  -1   6  554.81   23.40
  -4  -1   6  552.00   22.25
   4  -1  -5  615.01   20.96
  -4  -1   5  678.24   20.20
   4  -1  -5  602.19   21.09
  -4  -1   5  586.56   21.41
  -4  -1   5  486.47   28.98
   4  -1  -5  617.70   21.20
   4  -1  -5  679.48   22.84
   4  -1  -5  508.49   24.11
  -4  -1   5  450.34   31.92
  -4  -1   5  738.98   23.93
  -4  -1   5  604.36   19.22
  -4  -1   5  567.00   19.60
   4  -1  -5  610.77   20.18
  -4  -1   4  846.03   24.02
   4  -1  -4  900.90   29.09
  -4  -1   4  661.64   32.77
  -4  -1   4  840.96   25.56
   4  -1  -4  804.63   26.70
   4  -1  -4  703.78   29.23
  -4  -1   4  635.84   34.64
  -4  -1   4  911.50   25.33
  -4  -1   4  978.91   24.82
   4  -1  -4  732.36   24.32
   4  -1  -3  243.70   13.91
   4  -1  -3  251.63   14.80
   4  -1  -3  253.03   10.29
  -4  -1   3  222.12   15.42
   4  -1  -2  129.26   11.94
   4  -1  -2  116.49    8.58
   4  -1  -2  178.40    8.79
  -4  -1   2  149.68    7.54
   4  -1  -2  128.33    9.28
  -4  -1   2  187.77    7.19
   4  -1  -2  143.44    6.83
   4  -1  -1  379.88   20.18
   4  -1  -1  371.84   15.97
  -4  -1   1  372.70   17.21
  -4  -1   1  366.32   17.12
   4  -1  -1  379.95   17.70
   4  -1  -1  379.83   16.20
  -4  -1   1  416.58   13.09
   4  -1  -1  420.08   13.09
  -4  -1   0  565.00   21.67
   4  -1   0  568.64   24.08
  -4  -1   0  550.37   19.25
   4  -1   0  599.29   20.76
   4  -1   0  548.76   19.94
  -4  -1   0  600.06   21.68
  -4  -1   0  573.07   21.87
   4  -1   0  536.43   16.29
   4  -1   1 1233.08   36.98
  -4  -1  -1 1337.03   38.90
  -4  -1  -1 1333.58   41.50
  -4  -1  -1 1554.62   41.16
  -4  -1  -1 1248.35   37.05
  -4  -1  -1 1347.46   40.51
  -4  -1  -1  944.14   35.38
   4  -1   1 1667.04   43.65
   4  -1   1 1289.01   43.38
  -4  -1  -1 1200.64   38.38
   4  -1   1 1295.04   41.92
   4  -1   2  188.52    9.48
  -4  -1  -2  179.86   11.66
  -4  -1  -2  136.45    8.29
  -4  -1  -2  173.61   10.52
   4  -1   2  212.35    8.22
  -4  -1  -2  191.73   11.77
  -4  -1  -2  165.13    7.95
   4  -1   2  182.23   13.27
   4  -1   2  126.81   14.90
  -4  -1  -2  191.55   12.33
   4  -1   2  222.06   14.22
  -4  -1  -2  131.18    8.56
  -4  -1  -2  172.82    9.19
   4  -1   2  196.09   12.34
   4  -1   2  182.53   13.58
   4  -1   3   64.95    5.42
  -4  -1  -3   89.93    8.33
  -4  -1  -3   60.02    5.27
  -4  -1  -3   66.32    4.51
  -4  -1  -3   59.66    6.42
   4  -1   3   66.53    8.99
   4  -1   3   57.21   12.31
   4  -1   3   71.09    9.26
   4  -1   3   65.49    7.29
  -4  -1  -3   61.56    7.27
  -4  -1  -3   55.97    5.40
  -4  -1  -3   71.22    7.54
  -4  -1  -3   71.11    7.50
   4  -1   4  497.07   41.17
  -4  -1  -4  538.04   23.07
   4  -1   4  678.24   34.56
   4  -1   4  536.48   27.08
  -4  -1  -4  602.49   25.18
  -4  -1  -4  522.12   20.63
  -4  -1  -4  612.94   26.43
  -4  -1  -4  509.78   19.77
  -4  -1  -5 1653.28   52.16
  -4  -1  -5 1314.32   42.18
  -4  -1  -5 1395.12   46.67
   4  -1   5 1663.65   66.13
   4  -1   5 1517.56   56.38
  -4  -1  -5 1556.25   49.24
   4  -1   5 1391.01   81.00
  -4  -1  -6  187.18   14.27
  -4  -1  -6  171.94   13.98
   4  -1   6  149.12   25.94
   4  -1   6  178.38   31.74
  -4  -1  -6  154.78   11.44
   4  -1   6  159.80   20.14
   4  -1   6  146.89   15.94
  -4  -1  -6  166.97   11.94
  -4  -1  -7  229.49   15.73
  -4  -1  -7  223.74   15.88
   4  -1   7  213.13   30.47
   4  -1   7  153.34   17.58
  -4  -1  -7  209.43   12.95
   4  -1   7  194.15   23.53
  -4  -1  -7  205.39   13.02
  -4  -1  -8   44.04    6.30
  -4  -1  -8   40.60    5.20
   4  -1   8   36.63   13.95
   4  -1   8   32.70    8.09
   4  -1   8   44.27   11.90
  -4  -1  -8   44.61    6.78
  -4  -1  -9   46.55    6.06
  -4  -1  -9   49.20    5.63
   4  -1   9   39.93    8.03
   4  -1   9   55.84   15.15
   4  -1  10   47.82   11.18
   4  -1  10   37.57    6.57
  -4  -1 -10   56.97    5.32
  -4   0  13    0.78    1.31
  -4   0  12    1.75    2.30
   4   0 -12    0.86    1.15
  -4   0  12    1.15    1.67
   4   0 -12    1.35    1.29
   4   0 -11  347.75   16.85
  -4   0  11  378.20   20.69
   4   0 -11  337.32   15.67
  -4   0  11  401.36   22.71
   4   0 -10   30.31    4.97
  -4   0  10   34.57    6.51
   4   0 -10   25.87    4.09
  -4   0  10   28.52    6.57
  -4   0   9   23.32    5.85
   4   0  -9   18.50    4.04
   4   0  -9   19.96    3.53
   4   0  -9   19.43    3.23
  -4   0   9   24.22    5.37
   4   0  -9   20.73    2.96
  -4   0   9   20.53    8.07
   4   0  -9   20.47    3.56
   4   0  -9   22.22    4.52
   4   0  -8  618.98   24.82
   4   0  -8  653.77   20.90
   4   0  -8  629.08   22.11
  -4   0   8  741.85   30.11
   4   0  -8  621.56   24.01
   4   0  -8  565.89   28.43
  -4   0   8  721.84   31.36
  -4   0   8  672.84   42.39
   4   0  -7  337.86   15.54
  -4   0   7  364.28   18.33
   4   0  -7  324.19   13.29
   4   0  -7  330.55   12.21
  -4   0   7  341.93   18.84
  -4   0   6 1319.80   37.68
   4   0  -6 1390.72   38.27
   4   0  -6 1310.52   38.25
  -4   0   6 1044.77   54.27
  -4   0   6 1310.66   50.16
   4   0  -6 1112.45   37.49
  -4   0   6  721.61   38.27
  -4   0   6 1625.76   38.76
  -4   0   6 1288.52   42.80
  -4   0   6 1333.04   41.89
  -4   0   6 1348.94   40.73
  -4   0   6 1175.61   40.74
  -4   0   5  290.22   13.86
  -4   0   5  217.03   11.34
  -4   0   5  276.15   11.49
   4   0  -5  276.37   12.26
  -4   0   5  220.87   19.03
   4   0  -5  317.23   13.04
  -4   0   5  241.89   16.76
  -4   0   5  328.11   14.33
   4   0  -5  338.03   14.25
   4   0  -5  315.92   12.88
  -4   0   5  299.51   13.41
   4   0  -5  303.20   12.98
   4   0  -5  260.80   13.78
  -4   0   5  280.76   11.66
  -4   0   5  426.70   16.21
   4   0  -5  322.60   12.95
  -4   0   5  437.46   21.18
   4   0  -5  253.21   12.23
   4   0  -4  590.64   20.16
  -4   0   4  451.55   24.78
   4   0  -4  616.66   21.59
  -4   0   4  466.27   23.50
  -4   0   4  790.04   20.84
   4   0  -4  564.23   20.58
   4   0  -4  538.41   19.80
   4   0  -4  488.43   20.59
  -4   0   4  558.78   20.39
  -4   0   4  684.49   25.17
  -4   0   3   41.25    5.58
   4   0  -3   51.84    5.43
  -4   0   3   50.42    3.58
   4   0  -3   51.34    4.36
  -4   0   2  353.50   15.89
   4   0  -2  381.18   17.18
   4   0  -2  349.35   14.43
  -4   0   2  447.22   16.54
   4   0  -2  475.73   18.93
  -4   0   2  365.01   17.12
  -4   0   2  500.03   13.41
   4   0  -2  421.49   14.83
   4   0  -1  256.91   10.64
  -4   0   1  247.38   12.06
  -4   0   1  229.70   11.07
   4   0  -1  201.10   13.28
   4   0  -1  224.94   11.72
  -4   0   1  265.10   11.85
   4   0  -1  244.72    9.74
  -4   0   0  321.58   13.24
   4   0   0  261.84   12.62
  -4   0   0  233.20   11.43
  -4   0   0  328.57    9.16
   4   0   1  933.47   31.20
  -4   0  -1  957.30   32.93
   4   0   1  812.85   35.98
   4   0   1 1202.31   34.74
  -4   0  -1 1141.30   26.79
  -4   0  -1 1019.12   33.27
   4   0   2  193.52    9.72
  -4   0  -2  212.27   11.69
   4   0   2  221.55   15.34
  -4   0  -2  193.27   11.53
   4   0   2  219.41   15.45
   4   0   2  235.99    9.83
   4   0   2  220.43   20.42
  -4   0  -2  215.09   13.07
  -4   0  -2  167.65   10.57
   4   0   2  251.05   15.89
  -4   0  -2  189.86   11.17
  -4   0  -2  209.12   10.14
   4   0   2  208.06   11.57
  -4   0  -2  224.45   10.66
   4   0   3 1276.98   36.63
  -4   0  -3 1563.66   45.49
   4   0   3 1449.13   50.70
  -4   0  -3 1296.31   43.03
  -4   0  -3 1176.64   39.10
   4   0   3 1352.66   65.45
   4   0   3 1403.60   51.70
  -4   0  -3 1053.95   37.72
   4   0   3 1553.56   52.77
   4   0   3 1044.40   57.71
   4   0   3 1506.37   46.41
  -4   0  -3  822.36   33.59
  -4   0  -3 1174.63   38.80
   4   0   3 1563.23   37.01
  -4   0  -4   20.91    4.65
  -4   0  -4   19.43    4.42
  -4   0  -4   18.22    3.64
   4   0   4   22.02    6.75
   4   0   4   19.42   10.32
  -4   0  -4   18.02    3.52
   4   0   4   16.97    4.84
  -4   0  -4   13.83    2.78
   4   0   4   21.97   12.49
  -4   0  -5  887.30   35.37
  -4   0  -5  929.56   36.71
   4   0   5 1004.65   51.27
  -4   0  -5  780.75   30.13
   4   0   5 1024.28   64.34
   4   0   5  893.88   42.23
  -4   0  -5  805.77   29.96
   4   0   5  676.75   32.07
  -4   0  -6   70.34    9.00
  -4   0  -6   61.92    6.87
  -4   0  -6   73.58    9.09
   4   0   6   77.00   19.98
   4   0   6   57.45   10.78
   4   0   6   53.30    7.97
   4   0   7    6.49    3.15
  -4   0  -7   13.47    4.19
  -4   0  -7   12.01    4.08
   4   0   7   13.35   11.45
   4   0   7    9.00    5.49
  -4   0  -7    9.03    2.79
  -4   0  -8    2.05    2.09
   4   0   8   -0.60    8.21
   4   0   8    0.35    3.43
   4   0   8    6.70    7.75
  -4   0  -9    1.45    1.65
   4   0   9   -2.37    7.48
   4   0   9   -2.22    5.87
   4   0   9    0.29    2.97
  -4   0 -10  118.27    7.67
   4   0  10  116.52   12.16
  -4   1  13  122.55    7.94
   4   1 -12  148.34    9.13
   4   1 -12  179.38   11.56
  -4   1  12  178.80   12.86
   4   1 -11   32.12    4.88
   4   1 -11   28.28    3.68
  -4   1  11   33.60    6.71
   4   1 -10   52.88    6.60
   4   1 -10   54.82    5.88
  -4   1  10   55.78    7.98
   4   1 -10   50.46    5.27
  -4   1  10   62.72   12.94
   4   1 -10   46.33    6.00
  -4   1  10   56.75    9.01
   4   1  -9  333.04   17.65
   4   1  -9  347.75   17.21
  -4   1   9  404.03   22.31
   4   1  -9  351.69   15.34
  -4   1   9  344.43   31.68
   4   1  -9  310.86   19.25
  -4   1   9  383.47   23.59
   4   1  -8  499.62   21.82
  -4   1   8  611.67   27.04
   4   1  -8  528.97   19.14
  -4   1   8  457.69   36.16
   4   1  -8  435.23   25.37
  -4   1   8  562.35   28.01
  -4   1   7   62.21    6.48
   4   1  -7   48.03    4.27
  -4   1   7   56.23   11.43
  -4   1   7   65.88    8.11
   4   1  -7   39.79    7.04
   4   1  -6  508.45   19.36
  -4   1   6  602.15   21.25
   4   1  -6  540.69   16.79
   4   1  -6  498.99   20.02
  -4   1   6  565.50   23.86
  -4   1   5  536.87   17.13
   4   1  -5  592.92   19.43
  -4   1   5  482.38   24.84
  -4   1   5  611.59   20.14
   4   1  -5  587.27   18.80
   4   1  -5  596.81   20.49
   4   1  -5  573.38   21.68
  -4   1   5  418.51   20.90
  -4   1   5  275.11   19.89
   4   1  -5  576.40   19.58
  -4   1   5  689.56   21.26
   4   1  -5  521.35   19.49
   4   1  -5  607.63   25.96
  -4   1   5  741.56   28.41
  -4   1   5  550.23   21.97
   4   1  -5  412.49   19.44
   4   1  -4  926.57   26.06
   4   1  -4  862.40   26.69
  -4   1   4  740.54   29.43
   4   1  -4  929.38   27.69
   4   1  -4 1043.87   28.78
   4   1  -4  854.88   26.94
   4   1  -4  876.83   26.49
   4   1  -4  693.33   22.01
   4   1  -4  908.55   25.89
   4   1  -4  873.83   32.22
   4   1  -4  760.12   27.34
   4   1  -3  237.94   13.58
  -4   1   3  221.31   12.04
   4   1  -3  255.59   12.56
  -4   1   3  212.34    9.56
  -4   1   2  141.63    8.58
  -4   1   2  149.55    6.82
   4   1  -2  173.25   11.50
   4   1  -2  145.99    9.34
   4   1  -1  356.28   21.16
   4   1  -1  374.27   16.41
   4   1  -1  353.27   18.97
   4   1   0  505.47   18.03
   4   1   0  463.82   24.70
   4   1   0  525.01   19.92
   4   1   0  503.77   25.23
  -4   1   0  562.80   18.17
   4   1   1 1183.26   34.42
  -4   1  -1  958.94   32.68
   4   1   1 1127.92   34.42
   4   1   1  996.78   42.55
   4   1   1 1266.92   44.26
   4   1   1 1275.58   42.54
   4   1   1 1334.98   35.85
  -4   1  -1 1242.56   34.59
  -4   1  -1 1406.92   35.58
   4   1   1 1341.58   52.10
   4   1   1 1310.15   49.02
  -4   1  -1 1209.04   39.03
   4   1   2  177.01    9.15
  -4   1  -2  203.34   12.99
  -4   1  -2  184.19   12.53
   4   1   2  203.57   17.19
   4   1   2  231.97   16.26
   4   1   2  185.46    9.29
   4   1   2  221.08   16.20
   4   1   2  200.35   20.98
   4   1   2  212.55   13.46
  -4   1  -2  154.02    8.43
  -4   1  -2  216.04   12.60
   4   1   2  184.33    9.70
  -4   1  -2  208.49   10.13
   4   1   2  163.06   16.80
   4   1   2  107.87   12.86
   4   1   2  184.93   11.57
  -4   1  -3   66.47    7.92
   4   1   3   68.89    5.46
  -4   1  -3   45.17    5.25
   4   1   3   53.02   13.36
   4   1   3   89.04   13.24
   4   1   3   51.39   10.65
  -4   1  -3   68.93    7.43
  -4   1  -3   58.53    7.37
   4   1   3   82.92   10.86
   4   1   3   70.36    8.81
   4   1   3   71.89    7.62
   4   1   3   53.54    9.71
   4   1   3   67.05    7.43
   4   1   4  581.97   39.86
  -4   1  -4  581.98   27.06
  -4   1  -4  412.86   19.72
   4   1   4  573.57   30.83
   4   1   4  453.07   33.54
   4   1   4  732.61   51.92
  -4   1  -4  510.08   19.04
  -4   1  -4  597.29   25.15
   4   1   4  510.89   25.64
  -4   1  -5 1478.17   52.00
   4   1   5 2167.94   88.85
  -4   1  -5 1229.74   42.75
   4   1   5 1805.21   76.16
   4   1   5 2066.52   97.31
   4   1   5 1487.24   61.63
  -4   1  -5 1324.53   41.53
  -4   1  -5 1478.00   48.46
   4   1   5 1216.93   50.56
   4   1   6  179.68   24.87
  -4   1  -6  155.72   13.80
   4   1   6  229.23   30.89
  -4   1  -6  117.51   12.12
   4   1   6  214.31   32.24
   4   1   6  155.30   19.07
  -4   1  -6  128.62    8.97
  -4   1  -6  142.81   11.60
   4   1   6  122.28   13.53
  -4   1  -7  211.37   16.31
  -4   1  -7  219.40   16.24
   4   1   7  209.44   27.83
   4   1   7  215.65   23.39
  -4   1  -7  213.89   13.70
   4   1   7  170.41   16.34
   4   1   8   48.88   13.68
  -4   1  -8   49.29    7.34
  -4   1  -8   47.97    7.15
   4   1   8   42.80   13.75
   4   1   8   35.86    9.47
   4   1   8   30.84    6.50
  -4   1  -9   42.84    5.93
   4   1   9   41.04    9.73
   4   1   9   38.62    8.89
   4   1   9   60.03   12.97
  -4   1  -9   56.88    6.89
  -4   1 -10   58.30    5.31
  -4   1 -10   63.71    5.74
   4   1  10   48.96    7.70
   4   1  10   58.42    9.57
   4   2 -12   20.20    3.12
  -4   2  12   23.91    4.36
  -4   2  11  251.83   20.46
  -4   2  11  235.01   16.50
  -4   2  10   13.49    4.62
   4   2 -10   16.00    3.51
  -4   2  10   16.21    6.69
   4   2 -10   11.59    3.26
   4   2  -9   63.24    7.22
   4   2  -9   61.87    6.93
  -4   2   9   55.54   12.85
   4   2  -9   52.02    7.63
  -4   2   9   69.18    9.72
   4   2  -8  292.15   15.96
  -4   2   8  309.01   18.72
   4   2  -8  288.11   16.08
  -4   2   8  272.01   28.78
   4   2  -8  266.41   19.05
  -4   2   8  337.85   21.44
   4   2  -7  419.18   18.98
  -4   2   7  471.96   22.61
  -4   2   7  411.93   34.05
  -4   2   7  469.99   24.26
   4   2  -7  363.61   23.73
   4   2  -6  106.93    7.96
   4   2  -6  106.36    8.49
  -4   2   6  142.50   10.49
   4   2  -6   61.00    8.13
  -4   2   6  115.39   16.67
  -4   2   6  176.62   13.90
  -4   2   6  105.82    9.84
   4   2  -6   94.84   11.21
   4   2  -5  294.50   13.44
   4   2  -5  312.31   14.10
   4   2  -5  280.29   17.48
  -4   2   5  353.77   16.58
  -4   2   5  336.19   14.84
   4   2  -5  333.26   16.26
  -4   2   5  331.21   18.26
   4   2  -4 2272.66   59.79
   4   2  -4 2133.21   61.05
   4   2  -4 2370.30   61.91
  -4   2   4 2576.92   64.70
   4   2  -4 2463.19   63.71
  -4   2   4 2096.62   61.12
   4   2  -4 2224.13   60.02
  -4   2   4 1951.61   60.18
   4   2  -4 1880.34   65.34
   4   2  -4 2887.75   63.27
   4   2  -4 2169.21   59.28
  -4   2   4 2168.65   65.43
  -4   2   3  287.73   15.36
   4   2  -3  409.98   15.13
   4   2  -3  347.61   14.57
   4   2  -3  336.81   13.14
   4   2  -3  313.08   13.88
  -4   2   3  476.04   17.10
  -4   2   3  348.93   15.68
   4   2  -3  265.79   15.74
   4   2  -3  279.82   13.82
   4   2  -2  570.63   21.77
  -4   2   2  733.19   22.16
   4   2  -2  531.13   23.64
   4   2  -2  509.15   22.55
  -4   2   2  575.17   18.89
   4   2  -2  677.96   27.36
   4   2  -2  536.63   25.18
  -4   2   2  636.81   17.68
  -4   2   2  520.47   22.74
   4   2  -1   49.43    4.25
  -4   2   1   41.17    5.03
  -4   2   1   44.05    5.46
   4   2  -1   45.76    5.67
   4   2  -1   61.87    5.01
  -4   2   1   56.12    4.18
   4   2  -1   47.81    5.30
  -4   2   1   52.60    5.30
  -4   2   1   61.76    4.13
   4   2  -1   47.21    5.82
   4   2  -1   48.15    6.65
   4   2   0  121.68    6.97
  -4   2   0  110.72    8.72
   4   2   0  133.89   13.27
  -4   2   0  116.16    8.74
   4   2   0  115.57    9.25
   4   2   0  153.94    9.55
   4   2   0   78.86    9.16
  -4   2   0  124.98    9.98
  -4   2   0  134.42    7.14
   4   2   0   92.80    9.40
  -4   2   0  128.76    8.55
  -4   2   0  145.68    7.35
  -4   2  -1  218.25   13.54
   4   2   1  222.91   10.27
   4   2   1  200.20   17.28
   4   2   1  147.29   13.89
   4   2   1  170.45   11.13
   4   2   1  204.54   10.55
   4   2   1  295.13   19.19
   4   2   1  219.42   13.89
   4   2   1  217.15   18.09
  -4   2  -1  255.28   10.54
  -4   2  -1  248.57   14.11
   4   2   1  219.38    9.42
  -4   2  -1  268.70   15.49
  -4   2  -1  212.29   11.80
   4   2   1  321.44   18.23
  -4   2  -1  240.02   10.69
  -4   2  -2   81.97    8.61
   4   2   2   78.62    6.01
  -4   2  -2   71.07    8.11
   4   2   2   64.81    6.53
   4   2   2   81.56   11.50
   4   2   2   56.20    9.92
   4   2   2   73.83    5.90
   4   2   2   65.67    9.98
   4   2   2   79.80    8.85
  -4   2  -2   96.22    6.27
   4   2   2   84.67    9.27
  -4   2  -2   92.42    8.83
  -4   2  -2   90.10    9.21
  -4   2  -2   75.60    6.77
   4   2   2   92.00   11.08
   4   2   2   73.60    9.19
  -4   2  -2   81.38    6.03
  -4   2  -3  136.32   12.09
   4   2   3   85.22    8.24
   4   2   3  127.30   14.26
   4   2   3  179.89   17.93
   4   2   3  161.24   14.26
  -4   2  -3  151.18    8.55
  -4   2  -3  126.23   11.67
   4   2   3  110.47   11.30
  -4   2  -3  156.94   12.26
  -4   2  -3  120.72    8.77
   4   2   3  123.73   16.87
   4   2   3  135.06   11.87
   4   2   4  112.66   16.92
  -4   2  -4  113.45   11.65
   4   2   4   78.12   16.14
   4   2   4  112.90   14.01
   4   2   4   81.42    9.97
  -4   2  -4  114.57   10.89
  -4   2  -4  101.09   10.93
   4   2   4  102.56   11.38
  -4   2  -5  364.57   22.66
   4   2   5  449.15   38.25
   4   2   5  333.41   27.79
  -4   2  -5  395.95   16.57
  -4   2  -5  378.50   21.66
  -4   2  -5  347.23   21.93
   4   2   5  311.55   23.09
   4   2   5  435.21   40.87
  -4   2  -6  405.78   24.23
   4   2   6  461.00   34.81
  -4   2  -6  398.62   17.48
  -4   2  -6  399.06   22.08
   4   2   6  438.65   42.87
  -4   2  -6  423.79   24.16
   4   2   6  384.65   26.87
  -4   2  -7  187.84   15.58
   4   2   7  180.96   22.37
  -4   2  -7  197.63   15.76
   4   2   7  198.86   27.01
  -4   2  -7  186.18   10.89
  -4   2  -7  207.20   14.25
   4   2   7  210.40   28.93
   4   2   7  152.44   16.34
  -4   2  -8   23.85    5.23
  -4   2  -8   23.88    5.05
   4   2   8   19.85    9.48
  -4   2  -8   22.02    4.09
   4   2   8   13.90    6.59
  -4   2  -9    7.78    2.73
   4   2   9    6.17    5.65
   4   2   9    7.21    4.48
  -4   2  -9    8.64    2.76
  -4   2 -10  105.71    6.96
  -4   2 -10  112.11    6.80
   4   2  10  106.68   10.30
   4   3 -12  146.32    8.74
   4   3 -11   28.60    4.17
  -4   3  11   35.13    7.06
   4   3 -11   35.49    5.20
   4   3 -11   29.59    3.81
  -4   3  11   32.72    5.54
   4   3 -10  130.31   10.03
   4   3 -10  124.75    9.33
  -4   3  10  138.39   17.65
   4   3 -10  157.28   12.79
   4   3 -10  129.96   10.23
  -4   3  10  144.35   13.32
  -4   3   9   22.42    5.69
   4   3  -9   18.90    4.22
  -4   3   9   18.82    4.68
   4   3  -9   15.79    3.87
  -4   3   9   17.51    7.68
   4   3  -9   15.20    4.17
   4   3  -8  121.90    9.97
  -4   3   8  110.09   11.72
  -4   3   8  121.39   19.26
   4   3  -8  109.18   11.68
  -4   3   8  112.84   12.15
   4   3  -7  970.43   30.33
  -4   3   7  985.88   37.03
  -4   3   7  900.22   54.66
  -4   3   7  771.63   33.07
   4   3  -7  845.41   36.84
  -4   3   6  269.26   17.83
   4   3  -6  246.58   13.45
   4   3  -6  263.14   12.64
   4   3  -6  227.30   15.34
   4   3  -5  518.77   19.31
   4   3  -5  477.75   19.80
   4   3  -5  469.66   20.85
  -4   3   5  622.92   23.03
   4   3  -5  650.21   23.82
  -4   3   5  425.02   35.31
  -4   3   5  581.19   26.01
  -4   3   5  494.24   23.05
   4   3  -5  397.84   25.03
  -4   3   4 1624.77   53.15
   4   3  -4 1580.94   48.40
   4   3  -4 1712.26   50.51
   4   3  -4 1857.51   51.06
  -4   3   4 1921.77   52.09
   4   3  -4 2196.84   52.87
   4   3  -4 1536.54   54.13
  -4   3   4 1329.27   67.81
   4   3  -4 1621.97   59.04
  -4   3   3   68.59    7.05
   4   3  -3   70.80    7.40
   4   3  -3   88.62    7.74
   4   3  -3   97.28    6.96
   4   3  -3   84.03    6.87
  -4   3   3   94.24    8.34
   4   3  -3   84.73    6.78
   4   3  -3   78.96    7.04
  -4   3   3   62.32   10.97
  -4   3   2  112.16    9.09
   4   3  -2  175.56    9.84
   4   3  -2  155.05    8.86
   4   3  -2  134.60    9.06
  -4   3   2  138.23    9.05
  -4   3   2  142.60    9.98
   4   3  -2  114.54    7.91
   4   3  -2  102.68    8.40
  -4   3   2   77.13   11.32
  -4   3   2  168.15   10.91
   4   3  -2  124.40    9.52
   4   3  -1  367.83   13.73
  -4   3   1  370.02   18.87
  -4   3   1  339.15   17.32
   4   3  -1  369.06   17.72
   4   3  -1  423.66   16.86
   4   3  -1  341.83   20.75
   4   3  -1  337.62   18.98
   4   3  -1  408.50   22.19
  -4   3   1  331.64   15.97
  -4   3   1  420.80   18.44
   4   3   0 1606.11   44.83
  -4   3   0 1476.98   50.42
   4   3   0 1741.67   49.26
  -4   3   0 1891.50   47.74
   4   3   0 1232.43   53.68
   4   3   0 1383.02   51.39
   4   3   0 1545.71   57.48
  -4   3   0 1801.60   46.14
  -4   3   0 1527.85   51.61
  -4   3   0 1666.27   49.82
   4   3   0 1620.29   52.34
  -4   3  -1   11.39    3.54
   4   3   1   14.95    4.37
   4   3   1    9.71    3.02
   4   3   1    7.85    4.41
   4   3   1   11.85    3.86
  -4   3  -1   14.77    2.71
   4   3   1   18.49    4.87
  -4   3  -1   11.01    3.74
  -4   3  -1    9.66    2.83
  -4   3  -2  103.46   10.72
  -4   3  -2  111.28   10.94
   4   3   2  111.74   12.66
   4   3   2   93.08    9.15
  -4   3  -2  127.43    7.88
   4   3   2  111.43   12.32
  -4   3  -2  113.59   10.98
  -4   3  -2   91.91    7.90
   4   3   2  103.99   13.60
  -4   3  -3   13.69    4.52
  -4   3  -3   13.45    4.61
   4   3   3   18.43    7.02
   4   3   3   18.87    7.35
  -4   3  -3   14.70    3.02
   4   3   3   12.52    4.48
  -4   3  -3   13.59    4.35
  -4   3  -4  161.02   14.92
  -4   3  -4  159.40   14.40
   4   3   4  119.28   17.68
   4   3   4  127.75   11.62
   4   3   4  173.92   22.23
   4   3   4  155.21   15.78
  -4   3  -4  189.95   15.08
  -4   3  -5   86.19   10.79
   4   3   5   96.14   16.63
  -4   3  -5   82.41   10.59
  -4   3  -5   96.93    7.73
   4   3   5   68.90   10.66
  -4   3  -5   97.32   10.80
   4   3   5   71.21   16.40
  -4   3  -6   58.91    8.93
  -4   3  -6   62.70    8.95
  -4   3  -6   66.07    6.46
  -4   3  -6   60.43    8.35
   4   3   6   81.28   17.80
  -4   3  -7  173.38   14.47
  -4   3  -7  176.63   14.41
  -4   3  -7  179.98   10.46
  -4   3  -7  171.08   13.19
   4   3   7  169.32   24.63
  -4   3  -8    1.60    2.21
  -4   3  -8    2.46    2.15
   4   3   8    2.81    6.40
  -4   3  -8    4.01    2.17
  -4   3  -9  171.64   10.54
  -4   3  -9  167.32    9.69
  -4   3  -9  139.72    8.11
   4   4 -11  198.95   10.86
   4   4 -11  182.93    9.21
   4   4 -10   22.36    3.67
   4   4 -10   29.13    4.85
  -4   4  10   32.60    8.01
   4   4 -10   23.81    3.93
   4   4  -9  136.37   10.03
  -4   4   9  147.65   12.41
   4   4  -9  144.67   10.21
  -4   4   9  152.38   19.94
   4   4  -9  145.26   12.12
   4   4  -9  127.90   10.77
  -4   4   9  114.20   11.13
   4   4  -8   79.93    7.86
  -4   4   8   83.86   10.45
   4   4  -8   81.79    8.09
  -4   4   8   86.75   16.50
   4   4  -8   86.01    9.67
   4   4  -7   47.28    6.04
  -4   4   7   53.54    8.67
   4   4  -7   26.94    5.97
   4   4  -7   52.90    7.70
   4   4  -7   51.49    6.58
   4   4  -7   50.32    8.05
   4   4  -6 1153.83   43.72
   4   4  -6 1154.03   39.32
   4   4  -6 1147.39   38.24
  -4   4   6 1121.94   47.79
  -4   4   6 1007.25   63.13
   4   4  -6 1189.96   42.63
   4   4  -6 1167.64   47.34
   4   4  -5   53.29    5.74
   4   4  -5   68.75    6.83
   4   4  -5   63.68    6.18
  -4   4   5   61.07    9.01
   4   4  -5   80.07    7.71
  -4   4   5   49.70   12.78
   4   4  -5   58.18    8.88
  -4   4   5   59.99    6.97
   4   4  -4  854.83   28.34
   4   4  -4  694.74   27.64
  -4   4   4  807.01   34.81
   4   4  -4  868.92   29.12
   4   4  -4  749.42   26.65
   4   4  -4  758.93   35.14
  -4   4   4  689.15   28.52
  -4   4   3  107.11    9.39
   4   4  -3  132.85    9.15
  -4   4   3  117.36   11.48
  -4   4   3  134.13   10.12
   4   4  -3  105.08    8.53
   4   4  -3  121.63    9.82
   4   4  -3  137.65    9.11
   4   4  -3  117.77   12.08
  -4   4   2  437.71   21.11
   4   4  -2  529.77   20.80
   4   4  -2  569.21   20.16
  -4   4   2  391.96   21.71
  -4   4   2  555.46   22.16
   4   4  -2  407.42   19.13
   4   4  -2  406.82   20.80
  -4   4   2  468.40   29.68
   4   4  -2  649.83   25.19
   4   4  -2  447.70   24.16
  -4   4   1  423.59   21.41
   4   4  -1  530.48   21.36
   4   4  -1  605.03   25.53
  -4   4   1  543.35   22.98
  -4   4   1  564.98   21.83
   4   4  -1  406.37   23.53
   4   4  -1  351.06   18.15
  -4   4   0   49.54    7.21
  -4   4   0   57.85    6.11
   4   4   0   58.64    7.51
  -4   4   0   49.92    5.75
   4   4   0   49.33    8.72
   4   4   0   51.75    6.31
  -4   4   0   49.76    5.05
  -4   4   0   44.15    6.96
   4   4   0   43.11    7.24
  -4   4  -1  859.15   35.47
   4   4   1  931.53   33.90
   4   4   1  786.93   39.77
   4   4   1  796.63   36.36
  -4   4  -1  856.07   28.01
  -4   4  -1  827.18   35.25
  -4   4  -1  722.88   28.02
  -4   4  -2  397.22   23.29
  -4   4  -2  417.65   23.67
   4   4   2  434.16   26.34
   4   4   2  380.15   22.19
   4   4   2  452.36   23.20
  -4   4  -2  322.10   16.01
   4   4   2  374.07   27.96
  -4   4  -2  451.53   17.82
  -4   4  -2  449.81   24.81
   4   4   2  465.61   29.17
  -4   4  -2  401.94   23.27
  -4   4  -3  116.47   12.83
   4   4   3  116.12   11.92
   4   4   3  115.31   16.88
   4   4   3  134.41   15.48
  -4   4  -3  146.73    9.34
   4   4   3  131.52   15.73
  -4   4  -3  122.77   12.74
   4   4   3  116.64   12.08
   4   4   4   48.58    7.84
  -4   4  -4   47.51    8.39
   4   4   4   64.71   11.81
   4   4   4   36.43   11.28
  -4   4  -4   46.90    8.12
  -4   4  -4   65.92    6.23
   4   4   4   60.63   10.96
  -4   4  -5  264.39   19.45
  -4   4  -5  253.54   18.61
   4   4   5  210.13   26.34
  -4   4  -5  298.37   19.72
   4   4   5  219.22   23.33
  -4   4  -6  288.41   19.19
   4   4   6  283.58   27.05
   4   4   6  234.20   27.15
  -4   4  -6  282.44   13.56
  -4   4  -6  266.04   18.05
  -4   4  -6  262.96   18.01
  -4   4  -7   53.28    7.32
  -4   4  -7   45.67    6.38
   4   4   7   41.68   10.77
   4   4   7   35.50    9.51
  -4   4  -7   45.06    4.77
  -4   4  -7   50.80    6.82
  -4   4  -7   53.12    6.90
  -4   4  -8   42.30    5.46
   4   4   8   35.85    7.83
  -4   4  -8   41.43    5.14
  -4   4  -8   46.17    5.06
   4   4   9   36.25    5.49
   4   5 -10  108.02    7.26
   4   5 -10  108.36    7.20
  -4   5   9   36.74    5.53
  -4   5   9   42.05    9.31
   4   5  -9   34.43    4.84
   4   5  -8  300.06   14.93
   4   5  -8  270.64   15.92
  -4   5   8  301.73   19.62
   4   5  -8  269.84   16.20
  -4   5   7    5.74    3.71
   4   5  -7    4.15    1.90
   4   5  -7    5.90    2.52
   4   5  -7    1.51    2.23
  -4   5   7    5.82    5.88
   4   5  -7    3.91    2.18
   4   5  -7    4.38    2.89
   4   5  -6   89.91    8.23
  -4   5   6   97.27   12.45
   4   5  -6  102.26    8.87
   4   5  -6  110.30   10.08
  -4   5   6  103.47   18.10
   4   5  -6   94.94   10.51
   4   5  -5  320.51   16.30
   4   5  -5  296.67   16.13
   4   5  -5  337.10   17.41
   4   5  -5  311.50   20.14
  -4   5   5  351.67   17.30
  -4   5   4   87.67   11.59
   4   5  -4   89.59    8.16
  -4   5   4   58.15   12.50
   4   5  -4   96.05    8.25
   4   5  -4   93.10   10.22
  -4   5   4   84.84    8.18
  -4   5   3  281.57   16.34
   4   5  -3  364.33   16.71
   4   5  -3  340.30   16.50
   4   5  -3  294.58   16.08
   4   5  -3  342.83   18.94
  -4   5   3  312.85   26.04
  -4   5   3  241.82   19.17
   4   5  -3  289.59   18.37
  -4   5   2  182.12   13.11
  -4   5   2  178.34   15.03
   4   5  -2  170.71   12.00
   4   5  -2  193.80   14.21
  -4   5   1  239.09   15.99
   4   5  -1  312.26   15.22
  -4   5   1  321.51   18.20
   4   5  -1  354.12   19.49
  -4   5   1  336.04   16.85
   4   5  -1  188.84   13.35
   4   5  -1  214.73   15.69
  -4   5   0  625.15   29.22
   4   5   0  777.20   33.18
  -4   5   0  659.86   26.73
   4   5   0  762.47   26.63
  -4   5   0  651.86   26.08
   4   5   0  587.98   32.13
  -4   5   0  665.62   23.97
   4   5   0  520.09   27.88
  -4   5  -1   43.41    7.35
   4   5   1   41.46    8.25
  -4   5  -1   39.81    4.95
  -4   5  -1   37.52    4.89
   4   5   2  506.46   31.20
  -4   5  -2  491.69   27.48
   4   5   2  476.94   28.25
   4   5   2  566.07   34.83
  -4   5  -2  517.10   27.59
  -4   5  -2  528.94   20.65
  -4   5  -3  103.21   11.93
   4   5   3  129.46   15.72
  -4   5  -3  121.10   12.52
   4   5   3  115.71   12.97
   4   5   3  116.50   16.27
  -4   5  -3  143.39    9.18
   4   5   4  118.39   16.00
  -4   5  -4  112.92   12.32
   4   5   4  129.67   13.27
   4   5   4   97.74   15.36
  -4   5  -4  147.25    9.22
  -4   5  -4  107.63   12.16
  -4   5  -4  108.60   11.51
  -4   5  -5   36.27    6.19
  -4   5  -5   34.54    6.57
   4   5   5   35.97    9.51
   4   5   5   27.61    8.42
  -4   5  -5   39.82    4.71
  -4   5  -5   30.57    6.32
  -4   5  -6   76.26    7.63
   4   5   6   66.33   10.63
   4   5   6   67.93   11.83
   4   5   7  212.53   18.09
  -4   5  -7  228.04   13.17
  -4   5  -7  230.31   10.40
  -4   5  -8   34.42    3.74
   4   5   8   26.37    4.82
  -4   6   9  115.37    7.69
   4   6  -9  124.69    7.49
  -4   6   8   11.06    3.44
  -4   6   8   11.46    4.73
   4   6  -8    9.46    2.56
  -4   6   7   22.85    5.66
   4   6  -7    7.21    3.06
  -4   6   7   20.06    6.89
   4   6  -7   21.76    4.09
   4   6  -6   67.24    7.67
  -4   6   6   64.13   12.31
   4   6  -6   81.10    6.68
   4   6  -6   62.32    7.13
  -4   6   5   76.48   11.15
   4   6  -5   82.07    7.81
   4   6  -5   89.12    7.08
   4   6  -5   92.90    8.48
  -4   6   5   67.60   12.43
   4   6  -5   64.91    7.43
   4   6  -4  100.05    8.74
  -4   6   4   87.63   11.72
   4   6  -4   95.28    8.43
  -4   6   4   78.17   12.76
   4   6  -4   78.52    8.00
  -4   6   3   21.23    5.75
   4   6  -3   27.39    4.74
  -4   6   3   23.96    6.35
  -4   6   3   22.94    4.26
  -4   6   2  369.68   19.25
   4   6  -2  421.41   19.91
  -4   6   2  419.56   23.88
   4   6  -2  343.86   18.49
   4   6  -2  429.56   22.46
  -4   6   1   42.54    6.50
   4   6  -1   56.97    6.78
  -4   6   1   52.74    7.23
   4   6  -1   43.40    6.28
   4   6  -1   53.63    7.76
  -4   6   0   20.16    4.99
   4   6   0   26.48    6.09
   4   6   0   17.65    4.33
  -4   6   0   27.99    3.89
   4   6   0   21.99    5.47
  -4   6  -1   87.25   10.04
   4   6   1   65.21    8.15
   4   6   1   87.29   11.10
  -4   6  -1   92.87    7.17
  -4   6  -2  311.33   20.39
   4   6   2  319.35   24.34
  -4   6  -2  362.24   15.52
  -4   6  -3   30.93    6.18
   4   6   3   39.58    7.70
   4   6   3   35.88    8.33
  -4   6  -3   37.18    4.43
  -4   6  -4   25.33    5.41
   4   6   4   22.71    6.79
  -4   6  -4   33.67    4.05
  -4   6  -5   67.22    7.63
   4   6   5   60.54    9.84
  -4   6  -5   74.77    5.57
  -4   6  -6   99.57    7.92
   4   6   6   99.13   10.81
   4   6   6  105.35   10.18
  -4   6  -6   95.23    5.95
  -4   6  -7   20.29    2.72
  -4   6  -7   16.62    2.02
   4   6   7   19.80    3.21
  -4   7   7   18.89    3.86
  -4   7   7   14.71    3.94
   4   7  -7   15.07    2.37
  -4   7   6   42.12    6.70
   4   7  -6   22.51    4.10
  -4   7   6   41.94    7.06
   4   7  -6   36.84    3.98
   4   7  -5  351.71   16.59
  -4   7   5  330.67   21.01
  -4   7   5  347.99   21.24
   4   7  -4    2.47    1.85
   4   7  -4    1.54    1.78
  -4   7   4    1.68    2.31
  -4   7   3   34.96    6.39
   4   7  -3   37.54    4.96
   4   7  -2  185.73   11.97
  -4   7   2  156.59   12.30
   4   7  -2  147.95   10.50
   4   7  -1   87.61    8.31
   4   7  -1   66.88    7.14
  -4   7   0  149.45   10.74
   4   7   0  144.75   11.15
   4   7   0  172.70   11.64
  -4   7  -1   20.99    4.21
   4   7   1   29.27    4.67
   4   7   1   23.55    4.58
  -4   7  -1   24.34    3.10
  -4   7  -2   23.44    4.47
   4   7   2   22.09    4.49
  -4   7  -2   29.66    3.43
   4   7   2   27.45    5.80
   4   7   2   36.11    4.83
  -4   7  -3    1.93    2.06
   4   7   3    1.28    1.73
  -4   7  -3    3.55    1.53
   4   7   3    5.69    3.14
  -4   7  -4   53.46    5.56
   4   7   4   42.10    5.58
   4   7   4   55.37    7.10
  -4   7  -5    9.38    1.97
  -4   7  -5   11.90    1.80
   4   7   5    6.74    1.97
  -4   8   5   90.26    6.51
   4   8  -5   50.66    4.76
  -4   8   4  116.58    8.02
   4   8  -4  128.15    7.88
  -4   8   3   23.11    3.31
   4   8  -3   28.88    3.73
   4   8  -2  110.38    7.52
   4   8  -1  516.72   21.40
   4   8  -1  733.03   23.36
   4   8   0  170.35    9.73
   4   8   0  190.49   10.46
   4   8   1  181.11    9.01
   4   8   1  198.50   10.65
   4   8   2    2.02    1.26
  -5  -8   3    0.95    0.73
  -5  -8   3    1.51    0.83
  -5  -8   3    1.39    0.95
  -5  -8   2  189.86    8.07
  -5  -8   2  240.97    9.21
  -5  -8   1    4.62    1.28
  -5  -8  -1   43.76    3.02
   5  -7  -7   83.53    4.24
  -5  -7   7  118.78    8.22
   5  -7  -7   98.77    4.89
  -5  -7   7  100.53    6.12
  -5  -7   7  106.78    7.32
  -5  -7   7  119.03    7.86
  -5  -7   7   72.01    6.43
  -5  -7   6   69.26    7.06
  -5  -7   6   83.50    5.68
   5  -7  -6   60.46    3.75
   5  -7  -6   72.26    4.21
  -5  -7   6   86.85    5.88
  -5  -7   5   20.77    2.96
  -5  -7   4   49.14    4.89
  -5  -7   4   45.56    4.44
  -5  -7   4   46.65    4.72
  -5  -7   3  141.10    9.22
  -5  -7   3  157.65    9.45
  -5  -7   2    5.42    1.86
  -5  -7   2    4.20    2.10
  -5  -7   2    3.75    1.93
  -5  -7   1  299.78   13.91
  -5  -7   1  271.40   13.60
  -5  -7   0   73.69    6.70
  -5  -7   0   75.24    6.54
  -5  -7  -1   82.09    6.60
  -5  -7  -1   76.92    6.83
  -5  -7  -2   68.80    6.20
  -5  -7  -3   99.29    5.93
  -5  -7  -3   88.51    4.97
  -5  -7  -4  103.40    4.96
  -5  -7  -4   72.68    5.13
   5  -6  -9   89.86    4.93
  -5  -6   9   98.65    7.82
   5  -6  -9   78.80    4.41
  -5  -6   9  120.49    9.87
  -5  -6   9   79.20    6.65
  -5  -6   9  100.07    7.50
  -5  -6   9  119.59    9.04
   5  -6  -8   58.22    4.35
   5  -6  -8   56.62    4.26
  -5  -6   8   53.62    5.25
  -5  -6   8   66.06    6.99
  -5  -6   8   63.10    6.78
  -5  -6   8   65.39    8.00
  -5  -6   7  221.01   15.68
  -5  -6   7  197.01   10.98
   5  -6  -7  207.59    9.87
  -5  -6   7  210.46   11.05
  -5  -6   6   37.77    4.60
  -5  -6   6   50.92    6.27
  -5  -6   5   47.42    5.12
  -5  -6   5   64.36    6.75
   5  -6  -5   54.35    5.30
  -5  -6   5   51.43    5.44
  -5  -6   4   27.90    4.76
  -5  -6   4   31.58    4.52
  -5  -6   3  116.48    8.39
  -5  -6   3  114.89    9.90
  -5  -6   3  121.28    9.33
  -5  -6   2  303.54   15.69
  -5  -6   2  303.96   17.05
  -5  -6   1   75.61    7.64
  -5  -6   1   69.70    7.99
  -5  -6   0   23.13    4.42
  -5  -6   0   17.86    4.38
  -5  -6  -1   38.31    4.89
  -5  -6  -1   35.11    5.35
  -5  -6  -1   37.43    5.54
  -5  -6  -1   43.15    6.55
  -5  -6  -2   33.15    4.66
  -5  -6  -2   40.60    5.30
  -5  -6  -2   36.07    5.57
  -5  -6  -2   40.04    6.42
  -5  -6  -3   85.66    8.44
  -5  -6  -3   85.92    7.13
  -5  -6  -3  103.01    7.65
  -5  -6  -4   21.87    3.32
  -5  -6  -4   23.78    3.16
  -5  -6  -4   17.83    2.97
  -5  -6  -4   20.20    3.81
  -5  -6  -5   83.51    4.82
  -5  -6  -5   80.14    6.53
   5  -6   6    7.93    6.53
  -5  -6  -6    4.51    1.31
  -5  -6  -6    3.43    1.15
   5  -5 -10   27.75    3.01
   5  -5 -10   27.63    2.68
   5  -5 -10   34.01    3.24
  -5  -5  10   41.86    6.17
  -5  -5  10   32.14    4.75
  -5  -5  10   44.07    6.27
  -5  -5   9    2.44    2.81
   5  -5  -9    1.18    1.35
   5  -5  -9    2.23    1.24
  -5  -5   9    3.70    3.09
  -5  -5   9    1.93    2.56
  -5  -5   8  320.20   20.16
  -5  -5   8  281.60   17.05
   5  -5  -8  302.98   13.22
   5  -5  -8  286.38   12.15
  -5  -5   8  285.53   13.99
  -5  -5   8  281.47   17.12
  -5  -5   8  299.36   16.94
  -5  -5   7  264.67   18.55
  -5  -5   7  220.22   12.15
  -5  -5   7  270.21   16.56
   5  -5  -7  179.37    9.76
   5  -5  -7  197.65   11.08
  -5  -5   6  304.50   14.48
   5  -5  -6  318.46   15.77
  -5  -5   6  294.57   14.56
  -5  -5   5   29.59    4.37
  -5  -5   5   31.11    5.13
  -5  -5   4   19.81    3.27
  -5  -5   4   15.01    3.77
  -5  -5   4   16.02    3.45
  -5  -5   3  151.44   10.22
  -5  -5   3  165.10   12.05
  -5  -5   3  152.93   10.67
  -5  -5   2   88.97    8.26
  -5  -5   2   93.46    9.32
  -5  -5   1  366.92   18.77
  -5  -5   1  354.19   19.69
  -5  -5   0   63.86    7.90
  -5  -5   0   65.50    6.84
  -5  -5   0   86.77    8.62
  -5  -5  -1   94.86    8.58
  -5  -5  -1  100.04   10.55
  -5  -5  -1   95.54    8.80
  -5  -5  -2  315.81   17.01
  -5  -5  -2  374.57   18.36
  -5  -5  -2  333.80   18.43
  -5  -5  -2  388.30   22.34
  -5  -5  -2  326.26   17.70
  -5  -5  -3  147.68   10.62
  -5  -5  -3  161.16   10.62
  -5  -5  -3  146.56   11.87
  -5  -5  -3  167.14   14.13
  -5  -5  -3  146.34   11.06
  -5  -5  -4  105.55    8.42
  -5  -5  -4  110.96    7.78
  -5  -5  -4   89.73    8.90
  -5  -5  -4   93.28   10.17
  -5  -5  -4  105.75    8.81
  -5  -5  -5  115.99    6.85
  -5  -5  -5   98.70    8.63
  -5  -5  -5  110.29    9.90
  -5  -5  -6   85.56    7.00
   5  -5   6   86.02   11.79
   5  -5   6  119.88   16.50
   5  -5   6   81.97   17.23
  -5  -5  -6   91.09    7.76
   5  -5   7   12.41   11.63
  -5  -5  -7   13.91    2.10
  -5  -4  11  115.49    9.32
   5  -4 -11   89.08    5.79
   5  -4 -11   84.45    5.04
   5  -4 -11   78.67    5.11
  -5  -4  11  126.54   10.28
  -5  -4  10   44.65    6.22
   5  -4 -10   41.26    4.17
   5  -4 -10   39.21    4.28
  -5  -4  10   45.34    7.10
   5  -4 -10   38.50    4.27
   5  -4 -10   43.19    4.16
  -5  -4  10   41.88    6.51
  -5  -4  10   34.17    5.65
  -5  -4  10   46.27    7.29
  -5  -4   9  424.74   21.64
   5  -4  -9  441.73   17.73
   5  -4  -9  437.93   17.76
   5  -4  -9  439.54   17.19
  -5  -4   9  446.98   22.95
  -5  -4   9  429.26   21.81
  -5  -4   9  461.27   25.32
  -5  -4   8   22.92    5.68
  -5  -4   8   18.81    3.95
  -5  -4   8   22.10    5.34
   5  -4  -8   31.10    4.34
  -5  -4   8   20.79    5.51
   5  -4  -8   24.97    4.37
  -5  -4   8   21.08    4.32
  -5  -4   8   23.66    5.42
  -5  -4   8   23.16    5.10
  -5  -4   7  258.19   17.30
  -5  -4   7  199.91   11.69
  -5  -4   7  266.23   15.92
   5  -4  -7  201.32   12.48
  -5  -4   6 1185.86   37.77
  -5  -4   6 1150.59   38.07
  -5  -4   6 1249.96   38.13
   5  -4  -5  886.84   29.28
  -5  -4   5  827.71   30.62
  -5  -4   5  816.62   28.75
  -5  -4   4   52.00    5.16
  -5  -4   4   43.46    5.76
  -5  -4   4   54.03    5.67
  -5  -4   3   67.30    6.30
  -5  -4   3   69.16    7.29
  -5  -4   2  513.98   22.78
  -5  -4   2  566.37   24.86
  -5  -4   1  463.39   19.59
  -5  -4   1  573.70   23.11
  -5  -4   1  474.26   22.50
  -5  -4   1  540.08   24.47
  -5  -4   0  113.84    8.87
  -5  -4   0  112.26    9.09
  -5  -4   0  109.53   10.46
  -5  -4   0  111.81    8.96
  -5  -4  -1  908.07   33.34
  -5  -4  -1 1032.64   34.91
  -5  -4  -1  925.96   35.48
  -5  -4  -1  988.53   39.47
  -5  -4  -1  886.66   33.90
  -5  -4  -2  490.24   22.49
  -5  -4  -2  548.47   22.71
  -5  -4  -2  523.91   25.76
  -5  -4  -2  476.13   22.74
  -5  -4  -3  152.91   11.01
  -5  -4  -3  167.11   13.47
   5  -4   3  128.51   18.00
  -5  -4  -3  179.45   15.49
  -5  -4  -3  162.14   11.99
  -5  -4  -3  163.25   10.63
  -5  -4  -4   16.12    3.13
  -5  -4  -4   17.12    4.45
   5  -4   4   15.23    9.27
  -5  -4  -4   17.38    3.96
  -5  -4  -4   17.76    5.19
  -5  -4  -5  109.40   10.08
  -5  -4  -5  106.36    8.39
  -5  -4  -5  106.50    6.89
   5  -4   5   78.96   16.79
  -5  -4  -6   49.15    6.20
   5  -4   6   52.28   15.33
   5  -4   6   43.36    7.54
  -5  -4  -6   55.66    7.01
   5  -4   7  206.37   22.13
  -5  -4  -7  181.78   10.96
   5  -4   8   73.39   14.63
  -5  -4  -8   60.04    4.64
  -5  -3  12  283.09   13.48
   5  -3 -12  239.50   10.88
   5  -3 -11   59.64    4.73
  -5  -3  11   86.47    8.63
   5  -3 -11   73.59    6.04
   5  -3 -11   60.60    4.46
  -5  -3  11   90.49    9.43
   5  -3 -10  310.10   13.38
  -5  -3  10  321.22   17.99
   5  -3 -10  312.99   14.15
  -5  -3  10  321.92   19.52
   5  -3 -10  341.81   15.41
   5  -3 -10  315.47   13.13
  -5  -3  10  298.30   18.75
  -5  -3  10  286.15   17.66
  -5  -3   9  930.53   36.25
   5  -3  -9  946.01   30.31
   5  -3  -9  906.90   31.14
   5  -3  -9 1037.66   33.14
  -5  -3   9  977.89   38.97
  -5  -3   9  970.23   37.57
  -5  -3   8   67.63    7.22
   5  -3  -8   94.06    7.25
  -5  -3   8   86.15    9.16
  -5  -3   8   62.10    8.94
   5  -3  -8   96.01    8.54
  -5  -3   8  101.90   10.44
  -5  -3   8  101.42    9.94
  -5  -3   7   33.80    6.14
  -5  -3   7   30.10    4.43
   5  -3  -7   31.29    4.26
  -5  -3   7   36.54    5.68
   5  -3  -7   48.25    5.95
  -5  -3   7   25.60    4.19
  -5  -3   6   78.92    6.36
   5  -3  -6  102.75    7.81
  -5  -3   6  111.04    8.67
  -5  -3   6   90.53    7.05
   5  -3  -5 1350.13   43.20
  -5  -3   5 1385.38   42.78
  -5  -3   5 1413.87   41.59
  -5  -3   4  476.19   20.37
   5  -3  -4  580.11   21.80
  -5  -3   4  564.11   22.44
  -5  -3   4  513.10   21.21
  -5  -3   4  546.25   20.34
  -5  -3   3  756.77   25.35
  -5  -3   3  705.82   26.80
  -5  -3   2   12.98    2.88
  -5  -3   2   10.01    2.87
  -5  -3   2   10.37    2.84
   5  -3  -2   13.10    2.09
  -5  -3   1  352.33   15.54
  -5  -3   1  444.08   18.01
  -5  -3   1  324.04   15.62
  -5  -3   1  388.21   18.76
   5  -3  -1  409.55   18.30
  -5  -3   1  403.77   19.36
  -5  -3   0   50.64    5.55
  -5  -3   0   53.86    5.76
  -5  -3   0   49.60    6.78
  -5  -3   0   44.23    5.36
  -5  -3   0   45.12    5.67
  -5  -3  -1  357.97   17.30
  -5  -3  -1  413.95   17.85
  -5  -3  -1  405.91   20.35
  -5  -3  -1  436.24   22.86
  -5  -3  -1  365.56   18.13
  -5  -3  -2   81.03    7.50
  -5  -3  -2   92.13    7.45
  -5  -3  -2   91.63    9.47
  -5  -3  -2  108.18   11.38
  -5  -3  -2   80.69    7.92
  -5  -3  -3  204.21   11.13
  -5  -3  -3  210.85   15.00
   5  -3   3  179.71   21.91
   5  -3   3  187.26   15.56
  -5  -3  -3  193.81   12.70
  -5  -3  -4  338.63   16.60
  -5  -3  -4  328.13   14.56
  -5  -3  -4  344.23   19.97
   5  -3   4  355.32   23.87
  -5  -3  -4  379.37   22.49
  -5  -3  -5  625.35   21.38
  -5  -3  -5  661.70   28.51
  -5  -3  -5  631.45   24.54
   5  -3   5  564.66   48.12
   5  -3   5  656.06   36.02
  -5  -3  -6  371.44   19.41
   5  -3   6  401.64   41.62
  -5  -3  -6  397.06   20.64
  -5  -3  -7   35.58    5.04
   5  -3   7   31.24    7.85
   5  -3   7   52.38   18.48
  -5  -3  -7   38.68    5.36
  -5  -3  -7   41.82    5.38
  -5  -3  -8  133.48    8.16
  -5  -3  -8  133.89    8.40
   5  -3   8  140.43   16.50
  -5  -3  -8  146.44    8.52
  -5  -2  12   70.23    6.56
   5  -2 -12   72.52    5.67
   5  -2 -11   16.89    2.60
  -5  -2  11   23.92    4.80
   5  -2 -11   20.79    3.56
   5  -2 -10  165.89   10.20
   5  -2 -10  154.90    8.74
  -5  -2  10  158.08   12.73
   5  -2 -10  156.86    9.48
   5  -2 -10  175.65   10.82
   5  -2 -10  153.31    8.25
  -5  -2  10  161.13   13.30
  -5  -2  10  173.94   14.47
   5  -2  -9   95.03    8.03
  -5  -2   9   88.24    9.40
   5  -2  -9   97.42    6.83
   5  -2  -9   92.22    7.23
  -5  -2   9   99.76   11.18
  -5  -2   9   90.48   10.19
  -5  -2   9   88.07   10.29
   5  -2  -8  283.65   14.49
   5  -2  -8  287.98   13.20
  -5  -2   8  258.90   16.11
   5  -2  -8  286.33   15.62
  -5  -2   8  317.36   19.13
  -5  -2   8  291.67   17.52
  -5  -2   7  660.63   27.80
   5  -2  -7  649.49   23.81
   5  -2  -7  671.89   25.00
  -5  -2   7  662.55   27.75
  -5  -2   7  618.89   26.20
  -5  -2   7  674.94   27.33
   5  -2  -6   45.96    4.96
   5  -2  -6   48.03    5.34
  -5  -2   6   53.36    5.73
   5  -2  -6   46.58    5.02
  -5  -2   6   39.65    4.58
   5  -2  -5   87.72    7.43
  -5  -2   5   88.99    6.05
   5  -2  -5  101.76    7.62
  -5  -2   5   95.69    7.74
  -5  -2   5   95.16    6.79
  -5  -2   5  106.59    6.66
   5  -2  -4  256.10   15.87
  -5  -2   4  216.40   11.27
  -5  -2   4  225.67   12.21
  -5  -2   3  208.41   15.59
   5  -2  -3  223.08   13.92
  -5  -2   3  249.55   11.30
   5  -2  -3  261.66   13.94
  -5  -2   3  224.98   12.26
  -5  -2   3  260.37   11.54
  -5  -2   3  251.10   10.86
   5  -2  -3  245.68   10.71
   5  -2  -2   50.69    6.26
   5  -2  -2   56.29    9.40
   5  -2  -2   38.19    5.70
  -5  -2   2   53.02    4.81
  -5  -2   2   41.10    6.04
  -5  -2   2   41.24    6.31
  -5  -2   2   40.47    4.91
   5  -2  -2   50.35    6.08
  -5  -2   2   49.60    4.53
   5  -2  -2   56.86    4.36
  -5  -2   2   47.06    4.26
   5  -2  -1  146.74   15.11
   5  -2  -1  143.99   11.23
  -5  -2   1  147.24   11.57
  -5  -2   1  146.99   10.98
  -5  -2   1  137.84    9.93
   5  -2  -1  162.98   11.84
   5  -2  -1  168.71   11.49
  -5  -2   1  163.60    9.09
  -5  -2   1  153.77   10.26
   5  -2  -1  163.61    7.68
  -5  -2   1  161.11    8.34
   5  -2   0   32.01    6.17
  -5  -2   0   24.28    3.55
   5  -2   0   38.91    7.16
  -5  -2   0   34.71    4.09
  -5  -2   0   30.12    4.39
  -5  -2   0   32.97    5.16
  -5  -2   0   33.72    3.47
   5  -2   1   61.92    6.58
  -5  -2  -1   44.45    5.02
  -5  -2  -1   53.39    5.01
  -5  -2  -1   59.59    6.31
  -5  -2  -1   52.65    6.44
  -5  -2  -2  208.91   10.62
  -5  -2  -2  224.03   14.48
   5  -2   2  159.74   18.56
   5  -2   2  278.78   17.72
  -5  -2  -2  182.74   11.65
  -5  -2  -2  245.84   16.23
  -5  -2  -3  432.87   18.91
   5  -2   3  419.15   35.10
  -5  -2  -3  446.25   22.38
  -5  -2  -3  533.25   25.68
  -5  -2  -3  371.93   18.72
  -5  -2  -3  550.24   24.87
   5  -2   3  474.47   27.24
  -5  -2  -3  479.47   17.46
  -5  -2  -4  219.09   15.46
  -5  -2  -4  185.82   11.45
  -5  -2  -4  198.43    9.69
   5  -2   4  180.10   26.28
   5  -2   4  235.92   20.42
  -5  -2  -4  211.01   15.57
  -5  -2  -5   84.14    9.64
  -5  -2  -5   76.02    8.50
   5  -2   5   81.02   20.59
   5  -2   5   72.27   12.29
  -5  -2  -5   74.88    8.88
  -5  -2  -6   25.31    5.31
  -5  -2  -6   19.56    4.43
   5  -2   6   23.10    7.66
   5  -2   6   17.08   15.16
  -5  -2  -6   23.37    4.72
   5  -2   6   26.67   16.60
  -5  -2  -7   33.82    5.70
  -5  -2  -7   34.05    5.03
   5  -2   7   27.03    8.44
   5  -2   7   41.51   18.28
  -5  -2  -7   34.65    5.02
   5  -2   8  175.88   25.65
   5  -2   8  132.88   18.06
   5  -2   8  166.77   27.18
  -5  -2  -8  111.72    7.40
  -5  -2  -8  118.43    9.14
   5  -2   9  152.81   18.62
  -5  -2  -9  125.90    7.59
  -5  -1  13   90.69    6.72
   5  -1 -12  178.79    8.87
  -5  -1  12  181.83   11.16
   5  -1 -12  197.25    9.92
   5  -1 -11   51.17    5.54
  -5  -1  11   50.49    6.85
   5  -1 -11   51.87    5.46
  -5  -1  11   54.00    7.71
   5  -1 -10   93.22    8.30
   5  -1 -10   79.62    5.85
   5  -1 -10   82.27    6.59
  -5  -1  10   96.80    9.97
   5  -1 -10   98.16    7.74
  -5  -1  10   98.61   10.72
   5  -1  -9   89.86    8.25
  -5  -1   9   97.04    9.93
   5  -1  -9   88.43    6.83
  -5  -1   9   92.40    9.79
   5  -1  -9   84.84    5.71
  -5  -1   9   91.88   15.18
  -5  -1   9   91.50   10.32
   5  -1  -9   90.06    6.19
   5  -1  -8  645.62   24.40
  -5  -1   8  663.46   26.88
   5  -1  -8  596.39   20.85
   5  -1  -8  520.54   23.75
  -5  -1   8  685.93   30.53
  -5  -1   8  677.78   28.92
   5  -1  -8  567.22   27.60
  -5  -1   8  588.99   27.50
  -5  -1   7   42.09    6.26
   5  -1  -7   49.57    5.66
   5  -1  -7   42.08    4.86
  -5  -1   7   47.72    6.15
   5  -1  -7   48.31    5.78
  -5  -1   7   55.86    7.51
  -5  -1   7   49.30    6.72
   5  -1  -6  274.38   13.36
  -5  -1   6  254.02   14.99
  -5  -1   6  268.30   12.80
   5  -1  -6  288.08   13.82
   5  -1  -6  272.76   12.94
  -5  -1   6  309.68   15.03
   5  -1  -6  292.47   13.94
  -5  -1   6  260.23   14.14
  -5  -1   6  252.48   12.72
  -5  -1   6  312.47   15.37
   5  -1  -5   16.62    3.20
  -5  -1   5   25.82    3.12
   5  -1  -5   15.97    3.26
   5  -1  -5   22.51    3.30
  -5  -1   5   22.95    6.31
  -5  -1   5   27.40    3.62
   5  -1  -5   17.88    3.28
  -5  -1   5   20.70    3.57
   5  -1  -5   15.52    3.79
  -5  -1   5   23.62    3.14
  -5  -1   4  111.10    6.10
   5  -1  -4   77.53    6.98
   5  -1  -4  109.90    8.15
  -5  -1   4   89.16   10.44
   5  -1  -4  106.19    9.11
  -5  -1   4  102.05    6.82
  -5  -1   4  120.12    6.36
  -5  -1   4   93.23    7.27
  -5  -1   4  109.56    6.74
  -5  -1   4  129.64    6.58
   5  -1  -4   86.55    6.54
   5  -1  -3  590.60   26.82
  -5  -1   3  721.43   31.41
   5  -1  -3  694.24   28.94
  -5  -1   3  749.08   25.01
   5  -1  -3  652.86   30.99
   5  -1  -3  852.98   30.82
  -5  -1   3  994.46   24.70
  -5  -1   3  945.60   25.66
   5  -1  -3  899.75   32.43
  -5  -1   3  732.27   26.38
   5  -1  -3  949.88   26.70
   5  -1  -3  656.73   29.07
   5  -1  -2   42.33    7.86
   5  -1  -2   32.42    4.54
  -5  -1   2   36.75    5.35
   5  -1  -2   56.07    5.77
  -5  -1   2   45.39    4.52
  -5  -1   2   40.37    4.44
   5  -1  -2   41.81    5.58
  -5  -1   2   43.96    3.81
  -5  -1   2   45.14    3.45
   5  -1  -2   42.98    4.05
   5  -1  -1  452.25   26.65
  -5  -1   1  523.76   18.05
   5  -1  -1  498.00   20.66
  -5  -1   1  476.16   21.09
  -5  -1   1  489.48   21.42
   5  -1  -1  491.47   23.86
  -5  -1   1  546.94   20.04
  -5  -1   1  504.73   19.63
   5  -1  -1  522.45   22.15
  -5  -1   1  518.40   16.86
  -5  -1   1  489.34   15.76
   5  -1  -1  514.92   17.21
   5  -1   0  109.84   11.32
   5  -1   0  128.90    9.10
   5  -1   0  116.72   11.99
  -5  -1   0  120.13    7.12
  -5  -1   0  110.11    8.29
  -5  -1   0  133.18    9.49
   5  -1   0   91.82   11.38
  -5  -1   0  123.19    9.26
  -5  -1   0  127.98    8.74
  -5  -1   0  118.65    5.58
   5  -1   1   50.00    5.49
   5  -1   1   55.94    4.88
  -5  -1  -1   46.25    5.50
  -5  -1  -1   41.71    5.42
   5  -1   1   50.73    8.21
  -5  -1  -1   45.34    4.17
  -5  -1  -1   41.05    5.37
   5  -1   1   49.86    6.76
   5  -1   1   25.17    7.58
  -5  -1  -1   43.39    4.77
  -5  -1  -1   49.20    6.15
   5  -1   1   60.85    7.55
  -5  -1  -1   55.59    6.76
  -5  -1  -2  302.11   16.74
  -5  -1  -2  258.05   11.23
   5  -1   2  230.89   23.26
   5  -1   2  352.36   21.02
   5  -1   2  165.20   21.33
  -5  -1  -2  282.35   16.16
  -5  -1  -3   57.24    4.47
  -5  -1  -3   49.57    6.61
   5  -1   3   67.86   15.75
   5  -1   3   53.49    9.32
   5  -1   3   56.44   16.04
  -5  -1  -3   51.20    6.90
  -5  -1  -3   51.66    7.21
  -5  -1  -4 1835.67   56.55
  -5  -1  -4 1631.09   56.45
  -5  -1  -4 1489.58   52.02
   5  -1   4 1844.69   71.42
   5  -1   4 1375.37   55.32
  -5  -1  -4 1671.27   53.77
  -5  -1  -5  148.47   12.67
  -5  -1  -5  139.86   12.71
  -5  -1  -5  125.87   10.79
   5  -1   5  165.06   20.43
   5  -1   5  137.82   14.30
  -5  -1  -5  150.41   11.81
  -5  -1  -6   32.07    5.71
  -5  -1  -6   28.92    5.91
  -5  -1  -6   25.11    4.70
   5  -1   6   27.08    9.48
   5  -1   6   37.19   17.98
   5  -1   6   28.37    6.94
  -5  -1  -6   33.21    5.17
  -5  -1  -7    9.01    3.00
   5  -1   7   10.84   11.05
  -5  -1  -7    8.20    2.78
   5  -1   7    7.71    6.59
   5  -1   7   15.44   13.55
   5  -1   7    4.46    3.54
  -5  -1  -7    7.93    2.38
  -5  -1  -7    8.47    3.38
  -5  -1  -8   24.75    3.92
   5  -1   8   28.71   12.60
  -5  -1  -8   21.78    4.38
   5  -1   8   20.82    8.89
   5  -1   8   43.88   15.33
   5  -1   8   18.53    5.38
  -5  -1  -9   36.14    4.56
   5  -1   9   47.38   11.31
   5  -1   9   44.83   13.75
  -5   0  13   58.71    5.27
   5   0 -12   84.64    6.44
   5   0 -12   74.73    5.45
  -5   0  12   94.25    8.86
   5   0 -11  391.21   18.09
  -5   0  11  405.76   20.21
   5   0 -11  362.66   15.85
  -5   0  11  423.71   22.62
  -5   0  10   10.33    4.13
   5   0 -10   11.62    3.36
   5   0 -10    9.52    2.42
  -5   0  10   10.94    3.64
   5   0 -10   10.89    2.72
  -5   0  10   10.87    6.06
   5   0  -9   96.29    8.89
   5   0  -9  108.11    8.48
   5   0  -9   94.86    6.88
  -5   0   9  124.00   11.07
   5   0  -9  110.60    8.13
   5   0  -9   83.82    5.71
  -5   0   9   90.56   15.49
   5   0  -9   90.86   10.20
  -5   0   9  121.86   12.06
   5   0  -8   11.05    4.05
  -5   0   8   12.10    4.01
   5   0  -8   10.81    3.14
   5   0  -8   10.31    1.93
   5   0  -8    9.50    2.21
  -5   0   8    9.70    3.30
  -5   0   8   10.76    5.59
   5   0  -7  365.42   16.27
   5   0  -7  327.06   16.00
  -5   0   7  393.23   15.83
   5   0  -7  313.45   12.77
  -5   0   7  354.50   18.07
   5   0  -7  302.10   15.64
  -5   0   7  329.04   18.30
   5   0  -6   19.56    3.36
  -5   0   6   22.94    3.95
  -5   0   6   12.51    3.65
   5   0  -6   23.82    3.68
   5   0  -6   23.87    3.71
  -5   0   6   17.91    3.80
  -5   0   5   11.07    2.63
  -5   0   5    7.07    2.02
   5   0  -5   10.20    2.50
  -5   0   5   10.71    4.07
   5   0  -5   12.13    2.20
  -5   0   5   16.31    4.21
  -5   0   5   12.47    2.64
   5   0  -5   12.01    2.67
   5   0  -5   12.76    2.73
   5   0  -5   11.86    2.56
  -5   0   5   11.61    2.76
   5   0  -4 3089.14   80.09
  -5   0   4 2915.25   76.38
   5   0  -4 3098.21   79.24
   5   0  -4 3098.52   81.39
  -5   0   4 2609.60   85.05
   5   0  -4 3334.05   83.68
   5   0  -4 2299.26   77.42
  -5   0   4 3128.01   76.81
  -5   0   4 2934.80   78.82
  -5   0   4 2781.29   79.32
  -5   0   4 2572.52   75.93
   5   0  -4 3365.46   88.90
  -5   0   4 3143.24   84.04
   5   0  -4 2903.77   79.88
   5   0  -3  201.10   12.51
   5   0  -3  235.14   14.59
   5   0  -3  185.32   10.37
  -5   0   3  188.34   12.78
  -5   0   3  195.94   11.67
   5   0  -3  230.04   14.57
   5   0  -3  194.59   12.85
  -5   0   3  270.84   10.48
   5   0  -3  245.07   14.36
  -5   0   3  233.54    9.26
  -5   0   3  211.70   10.81
   5   0  -3  211.42   13.49
   5   0  -3  247.78   11.80
  -5   0   3  196.34   11.79
   5   0  -2 2532.72   76.80
  -5   0   2 2092.58   63.87
   5   0  -2 2221.41   60.86
  -5   0   2 2104.66   61.82
   5   0  -2 2081.95   68.52
   5   0  -2 2729.02   69.37
   5   0  -2 2160.37   65.58
  -5   0   2 2446.34   63.56
  -5   0   2 2324.94   57.07
  -5   0   2 2165.61   61.36
  -5   0   2 2007.38   60.67
   5   0  -2 2081.97   67.26
   5   0  -2 2327.24   60.96
   5   0  -1 1020.54   35.19
   5   0  -1  993.81   40.63
  -5   0   1 1135.01   33.42
   5   0  -1  935.52   38.26
  -5   0   1  980.34   32.52
  -5   0   1 1132.07   35.12
   5   0  -1  845.97   40.26
  -5   0   1 1164.39   35.18
  -5   0   1 1047.36   31.46
  -5   0   1 1096.17   27.59
  -5   0   0 2574.08   73.17
   5   0   0 2626.26   85.78
  -5   0   0 2575.18   70.97
  -5   0   0 2658.27   72.73
   5   0   0 2726.99   83.27
   5   0   0 2784.58   77.45
   5   0   0 2754.01   73.98
   5   0   1  485.45   19.38
  -5   0  -1  505.97   21.24
   5   0   1  494.90   28.37
   5   0   1  500.94   19.11
   5   0   1  528.74   33.43
  -5   0  -1  469.45   20.53
   5   0   1  553.24   25.78
  -5   0  -1  471.80   18.47
  -5   0  -1  473.19   22.12
  -5   0  -2  492.89   22.38
  -5   0  -2  464.57   22.54
   5   0   2  501.20   18.10
  -5   0  -2  356.80   18.70
   5   0   2  548.58   28.42
   5   0   2  397.89   33.80
   5   0   2  472.53   22.21
  -5   0  -2  387.72   19.11
   5   0   2  455.67   21.26
  -5   0  -3  695.46   29.07
  -5   0  -3  487.39   23.16
   5   0   3  749.36   38.48
   5   0   3  696.22   30.51
  -5   0  -3  532.31   23.62
  -5   0  -3  572.19   27.78
  -5   0  -4  546.22   27.07
  -5   0  -4  594.94   27.93
   5   0   4  602.79   39.18
   5   0   4  495.55   29.00
  -5   0  -4  492.69   22.39
  -5   0  -4  475.50   22.64
  -5   0  -5  700.39   32.25
  -5   0  -5  691.53   32.02
   5   0   5 1094.67   65.60
  -5   0  -5  601.81   26.72
   5   0   5  930.18   53.74
   5   0   5  695.00   37.95
  -5   0  -5  671.85   26.58
   5   0   5 1041.19   73.81
   5   0   5  544.07   39.21
   5   0   5  560.82   45.06
  -5   0  -6  350.95   21.28
  -5   0  -6  359.11   21.81
   5   0   6  449.96   39.98
   5   0   6  344.35   27.42
   5   0   6  519.49   52.77
   5   0   6  589.85   51.14
   5   0   6  280.18   28.31
  -5   0  -7   16.12    4.23
  -5   0  -7   13.44    4.35
   5   0   7   13.80   12.58
   5   0   7    6.27    7.80
   5   0   7   26.17   15.67
   5   0   7   13.89    5.66
  -5   0  -8   42.80    5.82
   5   0   8   60.94   16.99
   5   0   8   42.37    8.64
  -5   0  -8   46.74    6.69
  -5   0  -9   79.26    6.25
  -5   0  -9   87.38    7.52
   5   0   9   92.92   15.09
   5   0   9   68.89    9.22
   5   1 -13   73.77    5.13
   5   1 -12  184.14   10.31
   5   1 -12  221.78   12.81
  -5   1  12  190.47   12.71
   5   1 -11   43.97    5.56
   5   1 -11   37.94    4.00
  -5   1  11   45.50    7.01
   5   1 -10   86.41    8.36
   5   1 -10   78.17    7.27
   5   1 -10   74.29    6.10
  -5   1  10   72.14   13.57
   5   1 -10   77.59    8.48
  -5   1  10   87.91   10.38
   5   1  -9   91.84    8.43
   5   1  -9   96.65    7.07
  -5   1   9   76.02   14.48
   5   1  -9   89.76   10.73
  -5   1   9   99.93   11.09
  -5   1   8  719.34   27.80
  -5   1   8  580.90   40.86
  -5   1   8  758.36   32.21
   5   1  -8  511.51   30.69
   5   1  -7   49.98    5.75
   5   1  -7   42.53    5.68
   5   1  -7   45.03    4.04
  -5   1   7   49.05   10.79
  -5   1   7   50.54    5.93
  -5   1   7   58.33    7.53
   5   1  -6  323.15   14.61
   5   1  -6  318.61   15.30
   5   1  -6  329.45   14.45
  -5   1   6  338.72   15.39
  -5   1   6  351.43   14.99
  -5   1   6  306.55   16.79
   5   1  -5   20.96    3.23
   5   1  -5   22.58    3.32
  -5   1   5   13.78    3.73
  -5   1   5   10.66    3.50
   5   1  -5   17.85    2.97
   5   1  -5   19.39    3.23
   5   1  -5   20.55    3.34
  -5   1   5   18.33    3.03
  -5   1   5   19.04    4.53
   5   1  -4  109.88    7.16
   5   1  -4  111.53    7.79
   5   1  -4  110.83   10.44
   5   1  -4  116.72    8.35
  -5   1   4   91.73    8.43
   5   1  -4  118.72    8.78
   5   1  -4  110.36    7.59
  -5   1   4  117.46    8.26
  -5   1   4  115.81    8.25
   5   1  -4  123.06    7.16
  -5   1   4  115.36    9.50
  -5   1   3  803.38   29.79
   5   1  -3  771.51   28.65
  -5   1   3  812.85   25.27
  -5   1   3  749.73   28.94
   5   1  -3  908.88   29.66
   5   1  -3  835.89   30.67
  -5   1   3  853.78   28.48
  -5   1   3  828.09   27.93
   5   1  -2   42.74    4.85
  -5   1   2   38.09    4.91
  -5   1   2   39.53    5.11
   5   1  -2   34.55    5.17
   5   1  -2   31.12    5.06
   5   1  -2   47.81    7.09
   5   1  -2   35.11    5.79
  -5   1   2   42.20    4.96
   5   1  -2   39.47    6.06
   5   1  -2   42.04    5.49
  -5   1   2   41.25    4.79
  -5   1   2   37.51    4.37
   5   1  -2   49.52    6.80
   5   1  -2   37.83    5.39
   5   1  -1  428.99   18.63
  -5   1   1  471.91   19.31
   5   1  -1  458.61   26.92
  -5   1   1  446.81   19.68
   5   1  -1  352.39   20.12
   5   1  -1  289.33   18.71
   5   1  -1  344.26   20.16
  -5   1   1  490.53   17.72
   5   1  -1  454.09   23.90
  -5   1   1  563.87   22.09
   5   1  -1  469.45   20.44
  -5   1   1  476.84   18.08
   5   1  -1  526.53   25.04
   5   1   0   99.09   12.43
   5   1   0  103.53    7.40
  -5   1   0  106.50    8.63
  -5   1   0  116.69    8.75
   5   1   0  133.39   14.36
   5   1   0  122.27    9.40
  -5   1   0  114.82    7.29
  -5   1   0   78.11    5.98
  -5   1   0  136.90   10.64
   5   1   0   99.46   11.76
  -5   1   0  126.44    9.01
   5   1   0  111.08   10.50
   5   1   0  138.05   13.38
  -5   1   0  108.70    9.10
   5   1   1   57.25    5.29
  -5   1  -1   60.87    7.03
  -5   1  -1   58.99    6.60
  -5   1  -1   57.57    7.18
   5   1   1   60.56   10.79
   5   1   1   41.14    8.59
   5   1   1   54.78    9.57
   5   1   1   58.35    5.47
   5   1   1   62.44    8.65
   5   1   1   68.63   12.47
   5   1   1   61.57    7.08
  -5   1  -1   52.32    5.40
  -5   1  -1   42.50    4.54
   5   1   1   67.67    6.26
  -5   1  -1   59.02    5.32
  -5   1  -1   64.35    7.71
  -5   1  -1   64.84    5.60
   5   1   1   58.12    9.86
  -5   1  -2  309.03   17.82
  -5   1  -2  286.50   17.67
   5   1   2  277.94   24.16
   5   1   2  189.03   21.30
   5   1   2  345.99   23.20
   5   1   2  298.08   18.07
  -5   1  -2  225.18   12.65
  -5   1  -2  215.33   11.74
  -5   1  -2  330.05   17.19
   5   1   2  266.74   13.89
   5   1   2  197.92   20.29
  -5   1  -2  312.89   16.62
  -5   1  -3   64.28    8.57
   5   1   3   71.14   14.67
   5   1   3   61.69   13.47
   5   1   3   86.90   13.95
   5   1   3   71.12    9.71
   5   1   3   87.49   19.82
  -5   1  -3   73.94    8.24
   5   1   3   58.22   11.92
  -5   1  -3   62.40    8.49
  -5   1  -4 1702.33   58.88
  -5   1  -4 1532.14   56.95
   5   1   4 1758.86   88.27
   5   1   4 1707.00   77.86
   5   1   4 1710.69   64.98
  -5   1  -4 1488.54   47.94
  -5   1  -4 1738.01   55.41
   5   1   4 1655.15   68.48
   5   1   4 1778.11   78.67
  -5   1  -5  136.99   13.23
   5   1   5  142.35   17.16
  -5   1  -5  126.55   12.95
  -5   1  -5  131.10   11.33
  -5   1  -5  136.71   10.19
  -5   1  -6   35.77    6.74
   5   1   6   57.85   19.50
   5   1   6   46.19   10.70
  -5   1  -7    7.65    3.29
   5   1   7    7.27   11.35
   5   1   7    5.70    8.52
   5   1   7    5.54    5.21
  -5   1  -8   27.52    4.86
   5   1   8   29.73   11.02
   5   1   8   31.49   11.99
   5   1   8   22.06    7.10
  -5   1  -9   40.45    4.60
  -5   1  -9   37.89    4.87
   5   1   9   44.89   10.38
   5   1   9   33.90    6.67
   5   2 -12   54.93    5.04
   5   2 -12   71.27    6.52
  -5   2  12   63.56    6.31
  -5   2  11   14.85    4.05
  -5   2  11   16.95    5.56
   5   2 -11   15.36    2.96
   5   2 -10  174.36   11.88
  -5   2  10  159.71   19.59
   5   2 -10  164.52   12.73
  -5   2  10  186.12   15.14
   5   2 -10  176.35   11.44
   5   2  -9   85.98    8.47
  -5   2   9   95.34    9.71
   5   2  -9   80.34    8.16
  -5   2   9   73.92   14.76
   5   2  -9   81.18   10.08
  -5   2   9  102.09   11.19
   5   2  -8  272.41   15.42
  -5   2   8  287.04   17.44
  -5   2   8  257.21   27.69
  -5   2   8  308.43   19.56
   5   2  -8  244.47   19.36
   5   2  -7  558.29   22.84
   5   2  -7  504.77   23.94
  -5   2   7  636.72   26.24
  -5   2   7  526.47   39.69
  -5   2   7  599.34   27.04
   5   2  -7  448.80   28.25
   5   2  -6   54.41    5.73
   5   2  -6   55.51    5.85
  -5   2   6   60.03    6.15
   5   2  -6   45.96    5.83
  -5   2   6   54.02    6.62
  -5   2   6   62.91    8.18
   5   2  -5   85.91    6.71
   5   2  -5   91.93    7.39
  -5   2   5  111.33    8.89
  -5   2   5   91.29    7.36
  -5   2   5   87.21    8.97
   5   2  -4  258.40   11.30
   5   2  -4  231.89   12.30
   5   2  -4  255.56   12.83
  -5   2   4  207.33   11.37
   5   2  -4  229.50   11.78
   5   2  -4  243.01   11.53
   5   2  -4  169.62   10.24
  -5   2   4  197.08   13.07
  -5   2   3  315.19   14.29
   5   2  -3  286.54   11.73
   5   2  -3  214.91   14.97
   5   2  -3  223.78   12.87
   5   2  -3  255.38   13.47
  -5   2   3  219.66   11.07
   5   2  -3  255.42   12.08
   5   2  -3  300.98   13.55
   5   2  -3  225.16   13.04
  -5   2   3  319.14   14.47
  -5   2   3  255.30   13.92
   5   2  -2   48.40    5.07
  -5   2   2   38.23    5.25
   5   2  -2   43.79    5.50
   5   2  -2   38.21    6.45
   5   2  -2   43.43    6.69
   5   2  -2   50.24    5.20
  -5   2   2   44.24    4.23
   5   2  -2   39.54    5.96
   5   2  -2   40.35    4.41
  -5   2   2   48.20    5.11
  -5   2   2   39.06    5.66
   5   2  -2   38.62    5.55
   5   2  -1  205.32   10.25
   5   2  -1  152.65    9.01
  -5   2   1  141.93   10.86
  -5   2   1  135.14   10.29
   5   2  -1  134.95   11.19
   5   2  -1  133.60   10.75
   5   2  -1  109.66   11.53
   5   2  -1  130.20   10.78
   5   2  -1  152.98   13.49
   5   2  -1  179.55   10.64
  -5   2   1  119.98    7.23
  -5   2   1  158.48    8.52
  -5   2   1  161.32   10.58
  -5   2   1  152.89    9.24
  -5   2   1  182.85    8.65
   5   2   0   33.99    5.65
   5   2   0   39.91    4.31
  -5   2   0   36.67    5.62
  -5   2   0   41.08    5.78
   5   2   0   48.48    9.50
  -5   2   0   38.26    5.96
   5   2   0   35.46    6.63
   5   2   0   33.17    6.17
   5   2   0   31.82    6.57
   5   2   0   39.48    5.62
  -5   2   0   35.86    4.01
  -5   2   0   43.05    4.40
  -5   2   0   37.33    5.06
  -5   2   0   39.50    4.37
  -5   2   0   44.14    4.33
   5   2   0   63.87    9.10
  -5   2  -1   55.55    7.29
  -5   2  -1   65.25    7.70
   5   2   1   49.63    9.06
   5   2   1   39.12    7.61
  -5   2  -1   56.35    7.59
   5   2   1   47.79    8.50
   5   2   1   73.04   11.13
   5   2   1   56.48    7.63
  -5   2  -1   58.78    5.38
  -5   2  -1   55.47    6.29
   5   2   1   66.50    9.81
  -5   2  -1   59.72    5.39
  -5   2  -2  228.41   16.32
   5   2   2  174.98   19.87
   5   2   2  154.25   17.86
   5   2   2  216.18   16.58
  -5   2  -2  204.73   11.10
  -5   2  -2  253.78   16.56
  -5   2  -2  234.77   15.67
  -5   2  -2  198.71   12.70
   5   2   2  228.19   19.05
  -5   2  -3  517.16   27.42
   5   2   3  404.89   35.77
   5   2   3  630.98   37.00
   5   2   3  553.00   30.95
  -5   2  -3  482.68   19.98
  -5   2  -3  555.50   26.96
  -5   2  -3  459.54   21.55
   5   2   3  753.95   34.80
  -5   2  -4  197.27   16.55
   5   2   4  146.30   24.65
   5   2   4  220.87   26.94
   5   2   4  220.63   21.04
  -5   2  -4  225.38   16.44
  -5   2  -4  216.51   12.87
  -5   2  -4  157.47   14.99
  -5   2  -5   60.00    9.04
  -5   2  -5   48.45    8.36
   5   2   5   80.18   20.42
   5   2   5   90.87   19.57
   5   2   5   63.55   12.39
  -5   2  -5   56.82    6.20
  -5   2  -5   62.33    8.31
  -5   2  -6   19.66    5.31
  -5   2  -6   23.64    5.70
   5   2   6   30.82   13.95
   5   2   6   27.80   13.34
   5   2   6   25.58    8.57
  -5   2  -6   17.81    3.79
  -5   2  -6   23.01    4.79
   5   2   7   35.90   13.69
  -5   2  -7   36.06    6.48
  -5   2  -7   42.64    5.63
   5   2   7   67.52   15.50
   5   2   7   47.44   10.98
  -5   2  -7   42.57    6.96
  -5   2  -8  121.82    9.96
  -5   2  -8  128.15   10.47
   5   2   8  134.24   19.72
   5   2   8  103.17   14.11
  -5   2  -9  133.39    8.32
   5   2   9  101.55   12.82
   5   2   9  108.11   11.34
  -5   2  -9  137.56    8.64
   5   3 -12  238.32   11.09
   5   3 -11   71.95    6.29
  -5   3  11   85.95   10.83
   5   3 -11   83.56    7.64
   5   3 -11   67.72    5.83
   5   3 -10  310.68   16.06
   5   3 -10  327.46   15.93
  -5   3  10  314.25   26.77
   5   3 -10  372.14   19.68
   5   3 -10  292.97   16.68
  -5   3  10  294.98   18.21
   5   3  -9  920.61   33.45
  -5   3   9  933.54   37.07
   5   3  -9  939.84   33.97
  -5   3   9  894.82   53.20
   5   3  -9  926.20   38.21
  -5   3   9  882.48   37.13
   5   3  -8   72.88    7.60
  -5   3   8   68.70    8.99
  -5   3   8   65.77   14.72
   5   3  -8   71.33    9.85
   5   3  -7   34.02    5.15
  -5   3   7   35.54    6.34
   5   3  -6   73.35    7.01
   5   3  -6   76.05    7.26
   5   3  -6   76.03    6.23
  -5   3   6   78.14    9.16
   5   3  -6   67.32    7.54
   5   3  -6   53.83    7.26
  -5   3   6   65.54   14.30
  -5   3   6   82.01    8.94
   5   3  -6   52.74    9.18
  -5   3   5 1568.85   46.91
   5   3  -5 1422.13   44.40
   5   3  -5 1478.71   45.86
   5   3  -5 1440.30   43.26
  -5   3   5 1600.05   52.20
   5   3  -5 1759.54   49.10
  -5   3   5 1205.25   66.15
   5   3  -5 1507.48   46.72
  -5   3   5 1440.98   49.33
   5   3  -5 1282.32   55.32
  -5   3   4  510.14   23.97
   5   3  -4  535.15   20.70
   5   3  -4  612.47   23.28
  -5   3   4  567.29   23.06
   5   3  -4  726.46   23.96
  -5   3   4  440.14   34.59
  -5   3   4  613.54   26.14
  -5   3   3  688.82   29.33
   5   3  -3  770.37   28.73
   5   3  -3  892.40   29.09
  -5   3   3  885.06   31.56
   5   3  -3  833.40   27.43
   5   3  -3  878.94   26.38
   5   3  -3  711.75   27.84
  -5   3   3  553.26   37.56
   5   3  -2   14.06    3.15
  -5   3   2    9.75    3.45
  -5   3   2   11.90    3.11
   5   3  -2   12.14    3.21
   5   3  -2    9.41    2.73
  -5   3   2    7.26    3.90
  -5   3   2   13.06    3.50
  -5   3   1  364.69   16.95
   5   3  -1  438.52   19.17
   5   3  -1  327.33   20.04
   5   3  -1  394.93   20.09
  -5   3   1  417.79   19.72
  -5   3   0   46.59    7.17
   5   3   0   50.22    6.55
   5   3   0   43.54    7.05
  -5   3   0   55.59    5.29
   5   3   0   44.63    7.15
  -5   3   0   48.89    4.89
  -5   3   0   43.65    6.03
  -5   3  -1  398.59   22.81
  -5   3  -1  416.67   22.81
   5   3   1  402.66   25.01
   5   3   1  427.61   22.39
   5   3   1  357.48   22.48
  -5   3  -1  430.69   17.06
  -5   3  -1  374.59   18.98
   5   3   2   84.43   12.65
   5   3   2   60.02   12.37
   5   3   2   75.14   10.63
  -5   3  -2   80.51    6.83
  -5   3  -2   84.36   10.29
  -5   3  -2   65.22    9.53
  -5   3  -2   68.56    7.37
  -5   3  -2   77.29    9.70
  -5   3  -3  210.01   16.74
  -5   3  -3  182.43   16.52
   5   3   3  206.80   22.65
   5   3   3  208.41   24.73
   5   3   3  229.48   20.54
  -5   3  -3  221.25   12.15
  -5   3  -3  223.42   17.37
  -5   3  -3  208.28   12.83
  -5   3  -4  281.34   20.94
   5   3   4  258.76   27.79
   5   3   4  271.01   31.06
   5   3   4  312.56   26.93
  -5   3  -4  359.41   16.04
  -5   3  -4  319.43   20.93
   5   3   5  688.76   52.98
  -5   3  -5  642.42   32.80
   5   3   5  642.90   42.45
  -5   3  -5  705.33   32.69
  -5   3  -6  354.06   20.13
  -5   3  -6  375.46   22.24
   5   3   6  344.21   38.10
   5   3   6  392.13   32.17
  -5   3  -6  358.69   16.41
  -5   3  -6  389.30   21.07
  -5   3  -7   42.09    5.66
  -5   3  -7   43.02    6.48
   5   3   7   32.67   12.18
   5   3   7   39.39    9.79
  -5   3  -8  137.73    8.25
   5   3   8  135.55   14.94
  -5   3  -8  165.99   10.71
   5   3   8  126.35   15.89
   5   3   9   25.86    4.71
  -5   4  11   75.64    8.53
   5   4 -11   76.42    5.90
   5   4 -11   69.45    5.21
   5   4 -10   34.22    4.26
   5   4 -10   34.27    4.83
  -5   4  10   31.36    7.61
   5   4 -10   29.26    4.34
   5   4  -9  409.94   18.62
  -5   4   9  404.46   21.62
   5   4  -9  421.51   18.88
  -5   4   9  410.60   32.55
   5   4  -9  453.10   21.73
   5   4  -9  382.03   20.44
   5   4  -8   33.56    5.02
  -5   4   8   22.47    5.35
   5   4  -8   22.03    4.45
   5   4  -8   28.70    5.41
   5   4  -7  205.68   12.35
  -5   4   7  194.16   16.14
   5   4  -7  133.74    9.28
   5   4  -7  181.30   12.59
  -5   4   7  177.40   24.37
   5   4  -7  191.57   14.20
   5   4  -7  178.68   15.47
   5   4  -6 1185.92   38.59
   5   4  -6 1190.77   37.28
  -5   4   6 1070.53   45.60
   5   4  -6 1056.28   41.15
  -5   4   6 1003.75   62.19
  -5   4   6 1277.49   42.16
   5   4  -6 1130.56   47.82
   5   4  -5  953.83   32.09
   5   4  -5  759.76   31.36
   5   4  -5  853.05   29.60
   5   4  -5 1043.68   33.63
  -5   4   5  621.14   47.03
   5   4  -5  808.21   39.43
  -5   4   5  796.06   32.57
  -5   4   4   40.78    6.11
   5   4  -4   49.26    5.83
  -5   4   4   60.77    8.52
   5   4  -4   45.42    5.69
   5   4  -4   51.37    5.80
  -5   4   4   29.54    9.15
   5   4  -4   43.10    8.10
  -5   4   3   59.78    7.42
   5   4  -3   70.79    7.14
  -5   4   3   76.38    7.70
   5   4  -3   63.27    6.40
   5   4  -3   57.57    6.78
  -5   4   3   57.87   11.43
  -5   4   3   57.14    7.98
   5   4  -3   50.92    8.39
   5   4  -3   79.97    7.21
  -5   4   2  492.07   23.93
   5   4  -2  568.47   23.25
   5   4  -2  672.76   23.18
  -5   4   2  435.27   23.04
  -5   4   2  592.84   23.78
   5   4  -2  484.44   20.85
   5   4  -2  462.71   22.39
  -5   4   2  489.10   31.14
   5   4  -2  386.88   24.81
  -5   4   1  471.19   24.09
   5   4  -1  537.02   23.54
   5   4  -1  673.49   22.80
  -5   4   1  582.41   24.29
  -5   4   1  530.42   22.83
   5   4  -1  405.43   25.00
   5   4  -1  391.50   19.66
  -5   4   0  113.13   11.55
   5   4   0  121.96   10.94
  -5   4   0  132.20    9.49
  -5   4   0  108.05    9.20
   5   4   0  104.49   13.73
  -5   4   0  147.30    8.99
  -5   4   0  124.36   12.54
   5   4   1  776.88   36.96
  -5   4  -1  833.14   38.20
   5   4   1 1094.73   40.14
  -5   4  -1  802.98   31.42
   5   4   1  923.29   46.62
  -5   4  -1 1072.30   32.17
  -5   4  -1  981.94   41.14
  -5   4  -2  546.61   29.92
  -5   4  -2  491.22   21.33
   5   4   2  559.73   37.28
  -5   4  -2  606.60   22.30
   5   4   2  602.75   30.74
   5   4   3  141.19   14.89
  -5   4  -3  144.17   14.80
  -5   4  -3  152.37   14.73
   5   4   3  159.83   21.42
  -5   4  -3  175.82   10.57
  -5   4  -3  160.57   15.21
  -5   4  -4   15.11    5.14
  -5   4  -4   19.23    5.59
   5   4   4   16.62    5.47
  -5   4  -4   16.67    5.44
   5   4   4   16.27    9.69
  -5   4  -4   19.65    3.81
  -5   4  -4   20.74    5.59
  -5   4  -5  112.93   12.06
  -5   4  -5  111.00   11.38
   5   4   5   96.51   18.39
  -5   4  -5  119.23    8.48
  -5   4  -5  106.67   11.62
  -5   4  -6   53.16    7.65
  -5   4  -6   51.74    6.94
  -5   4  -6   61.09    7.82
   5   4   6   57.23   13.60
  -5   4  -7  183.28   12.28
  -5   4  -7  199.13   12.13
  -5   4  -7  175.44   11.07
   5   4   7  152.10   16.94
  -5   4  -8   54.22    4.29
   5   4   8   44.60    7.09
  -5   5  10   34.19    6.28
   5   5 -10   26.33    3.36
  -5   5   9    2.36    2.03
   5   5  -9    3.00    1.67
   5   5  -9    1.91    1.73
  -5   5   8  284.00   18.71
   5   5  -8  286.00   14.42
  -5   5   8  284.24   26.54
   5   5  -8  264.96   15.91
  -5   5   7  179.08   15.89
   5   5  -7  190.31   11.71
  -5   5   7  164.48   21.64
   5   5  -7  179.96   13.93
   5   5  -6  232.69   13.40
   5   5  -6  260.39   14.72
   5   5  -6  208.38   14.71
  -5   5   6  207.58   25.25
   5   5  -6  256.84   18.07
   5   5  -5   25.72    5.82
   5   5  -5   25.85    4.56
  -5   5   5    9.65    5.81
  -5   5   5   23.64    6.51
  -5   5   5   23.00    4.38
   5   5  -5   25.71    4.27
   5   5  -4   12.71    4.11
  -5   5   4   10.18    3.34
  -5   5   4   12.06    4.66
   5   5  -4   14.28    3.39
  -5   5   4    9.67    5.68
   5   5  -4   13.14    3.32
   5   5  -4   11.75    3.12
  -5   5   3  130.99   11.25
   5   5  -3  188.24   11.82
   5   5  -3  140.63   10.61
  -5   5   3  131.02   13.51
   5   5  -3  152.65   10.75
   5   5  -3  158.69   12.22
  -5   5   3  140.19   16.56
   5   5  -3  139.56   12.57
  -5   5   2   71.72    8.63
   5   5  -2  102.15    8.64
  -5   5   2   75.10    9.31
  -5   5   2  106.60    9.56
   5   5  -2   73.56    7.48
   5   5  -2   71.02    8.41
  -5   5   1  329.49   20.28
   5   5  -1  438.29   19.67
  -5   5   1  402.19   20.75
  -5   5   1  418.50   19.60
   5   5  -1  295.59   16.82
   5   5  -1  299.97   19.18
  -5   5   0   64.18    8.90
   5   5   0   72.77    7.61
   5   5   0   57.71    9.67
  -5   5   0   61.09    6.82
   5   5   0   44.77    6.13
  -5   5   0   73.77    6.34
   5   5   0   56.74    8.27
  -5   5  -1   97.38   11.40
   5   5   1   93.87    8.97
  -5   5  -1   90.92    7.76
   5   5   1   94.60   12.79
  -5   5  -1  101.72    7.77
  -5   5  -2  389.05   23.87
  -5   5  -2  386.41   24.09
   5   5   2  416.24   31.63
   5   5   2  390.53   27.83
  -5   5  -2  408.09   17.32
   5   5   3  187.72   19.71
  -5   5  -3  165.14   14.94
  -5   5  -3  162.43   14.76
  -5   5  -3  191.29   10.74
   5   5   3  170.14   20.29
  -5   5  -4   94.78   10.42
   5   5   4   71.50   13.66
   5   5   4   63.12   12.02
  -5   5  -4  104.66    7.67
  -5   5  -5  111.45   10.10
   5   5   5  127.56   16.46
   5   5   5   98.31   14.38
  -5   5  -5  112.41    7.59
  -5   5  -6  108.48    8.88
  -5   5  -6  117.32    8.51
   5   5   6   95.18   12.73
  -5   5  -7   11.75    2.30
   5   5   7    9.37    3.63
  -5   6   9   81.27    6.17
  -5   6   9   91.69    9.40
   5   6  -9   85.98    5.69
  -5   6   8   59.23    7.04
  -5   6   8   64.30    9.76
   5   6  -8   50.06    5.17
  -5   6   7  182.21   14.52
   5   6  -7  186.75    9.71
  -5   6   7  158.31   17.59
   5   6  -7  157.86   10.62
   5   6  -6   19.80    3.47
   5   6  -6   36.15    4.28
   5   6  -6   19.31    4.05
  -5   6   6   23.06    7.27
   5   6  -6   30.81    4.94
   5   6  -5   40.32    5.26
  -5   6   5   37.22    7.41
   5   6  -5   41.84    5.41
  -5   6   5   32.18    8.24
   5   6  -5   32.21    5.16
  -5   6   5   54.47    5.74
   5   6  -4   26.60    4.48
   5   6  -4   24.91    4.22
  -5   6   4   18.29    5.85
   5   6  -4   19.66    3.90
  -5   6   4   18.58    5.38
  -5   6   4   26.23    4.35
   5   6  -3  118.05    9.65
  -5   6   3   89.14   10.79
   5   6  -3  116.72    9.17
  -5   6   3  103.26    9.26
  -5   6   2  275.26   16.87
  -5   6   2  315.97   19.43
   5   6  -2  271.13   15.50
   5   6  -2  324.15   19.04
  -5   6   1   65.14    8.16
   5   6  -1   77.40    7.01
  -5   6   1   71.57    7.81
   5   6  -1   51.92    6.44
   5   6  -1   61.38    8.15
  -5   6   0   25.80    5.55
   5   6   0   26.70    4.84
   5   6   0   24.05    5.48
  -5   6  -1   31.30    6.15
   5   6   1   29.34    5.13
  -5   6  -1   35.50    4.32
   5   6   1   32.41    6.52
  -5   6  -2   39.49    6.66
   5   6   2   30.50    5.39
  -5   6  -2   39.01    4.46
   5   6   2   38.58    7.42
  -5   6  -3   79.27    8.93
   5   6   3   76.38   11.53
  -5   6  -3   96.71    6.73
  -5   6  -4   24.63    4.66
   5   6   4   18.43    3.88
   5   6   4   21.39    6.38
  -5   6  -4   26.23    3.37
  -5   6  -5   97.51    7.72
  -5   6  -5   84.95    5.49
   5   6   5   97.02   10.11
  -5   6  -6    4.50    1.53
   5   6   6    6.86    2.49
  -5   7   7   64.22    6.67
  -5   7   6   78.14    8.06
  -5   7   6   53.93    6.61
   5   7  -5   14.28    3.04
  -5   7   5   15.29    4.03
   5   7  -4   46.04    5.25
  -5   7   4   36.23    6.04
   5   7  -4   48.43    5.29
  -5   7   3  135.30   11.16
   5   7  -3  143.67    9.45
   5   7  -2    6.55    2.51
   5   7  -2    4.80    2.11
  -5   7   2    6.44    2.16
  -5   7   1  281.69   14.83
   5   7  -1  303.11   15.22
  -5   7   0   86.72    7.83
   5   7   0   80.00    7.41
   5   7   0   83.67    7.81
   5   7   0   94.89    9.46
  -5   7  -1   68.08    7.02
   5   7   1   89.55    7.71
   5   7   1   73.74    7.08
   5   7   1   92.05    9.40
  -5   7  -2   78.23    7.22
   5   7   2   74.75    7.03
  -5   7  -2   77.84    5.01
  -5   7  -3   77.75    6.49
   5   7   3   72.04    6.29
  -5   7  -3   81.50    4.73
  -5   7  -4  119.61    7.01
   5   7   4  151.40   10.12
   5   8  -3    1.51    1.08
   5   8  -2  209.96   10.88
   5   8  -2  299.91   11.67
   5   8  -1    4.21    1.63
   5   8  -1    5.66    1.60
   5   8   0   98.89    6.29
  -6  -7   7   10.95    2.27
  -6  -7   6  140.01    9.02
  -6  -7   6  117.09    6.36
   6  -7  -6   88.55    4.67
  -6  -7   6  160.50    7.39
  -6  -7   6  118.78    7.14
  -6  -7   5   25.39    2.96
  -6  -7   5   18.64    2.71
  -6  -7   5   20.81    2.81
  -6  -7   4   11.95    2.24
  -6  -7   4   13.55    2.43
  -6  -7   4   13.33    2.47
  -6  -7   4   14.61    2.52
  -6  -7   3  173.18    9.62
  -6  -7   3  198.95   10.10
  -6  -7   2   31.32    4.04
  -6  -7   1    2.89    1.63
  -6  -7   1    4.43    1.77
  -6  -7   0   14.08    2.60
  -6  -7   0   15.87    2.78
  -6  -7   0   12.85    2.37
  -6  -7  -1  248.73   11.15
  -6  -7  -1  246.75   11.78
  -6  -7  -1  266.93   10.71
  -6  -7  -2   29.75    3.34
  -6  -7  -2   32.01    2.59
  -6  -6   9   57.26    5.00
   6  -6  -9   51.49    3.35
   6  -6  -8   81.54    5.04
  -6  -6   8   82.26    7.12
   6  -6  -8   81.35    5.03
  -6  -6   8   75.86    6.38
  -6  -6   8   86.30    8.05
  -6  -6   7  320.73   16.94
  -6  -6   7  232.19   11.48
  -6  -6   7  175.64   12.64
   6  -6  -7  296.19   11.52
  -6  -6   7  231.77   11.51
  -6  -6   7  239.44   13.06
  -6  -6   7  279.03   13.95
  -6  -6   6   51.95    4.98
   6  -6  -6   40.87    4.13
  -6  -6   6   43.21    4.73
  -6  -6   5   16.34    3.06
  -6  -6   5   17.98    3.27
  -6  -6   5   18.48    3.32
  -6  -6   5   18.09    3.51
  -6  -6   4   63.84    6.71
  -6  -6   4   63.19    6.27
  -6  -6   3   39.77    5.56
  -6  -6   3   42.37    5.46
  -6  -6   2  157.40   10.58
  -6  -6   2  164.47   11.76
  -6  -6   1  129.30    9.82
  -6  -6   1  133.62   10.83
  -6  -6   1  131.44    9.71
  -6  -6   0  175.29   11.39
  -6  -6   0  179.25   12.86
  -6  -6   0  163.97   10.66
  -6  -6  -1   39.53    5.28
  -6  -6  -1   50.33    6.69
  -6  -6  -1   49.78    5.22
  -6  -6  -2  251.71   12.53
  -6  -6  -2  214.63   13.01
  -6  -6  -2  241.43   14.72
  -6  -6  -2  250.35   11.22
  -6  -6  -3   73.84    5.51
  -6  -6  -3   57.24    5.93
  -6  -6  -3   59.43    6.39
  -6  -6  -3   63.43    4.09
   6  -6   4    5.31    4.49
  -6  -6  -4    1.68    1.32
  -6  -6  -5   58.43    4.23
  -6  -5  10    0.10    1.36
   6  -5 -10    0.44    0.84
  -6  -5  10    0.08    1.46
   6  -5 -10    0.30    0.87
  -6  -5  10    1.10    1.53
   6  -5 -10    0.27    0.80
  -6  -5   9   82.09    7.49
   6  -5  -9   83.52    5.80
   6  -5  -9   75.77    5.07
  -6  -5   9   73.47    7.04
  -6  -5   9   87.02    8.84
  -6  -5   8  243.69   16.68
  -6  -5   8  205.46   11.81
  -6  -5   8  272.62   15.08
   6  -5  -8  299.99   12.71
  -6  -5   8  167.01   14.41
   6  -5  -8  264.96   11.17
   6  -5  -8  202.42   11.16
  -6  -5   8  292.82   15.44
  -6  -5   8  281.01   14.99
  -6  -5   7  172.73   13.31
  -6  -5   7  126.80    8.79
  -6  -5   7  156.18   11.25
   6  -5  -7  136.41    9.18
  -6  -5   7  119.97    8.50
  -6  -5   7  101.94    9.54
  -6  -5   6  446.07   18.61
   6  -5  -6  477.46   20.94
  -6  -5   6  442.83   18.73
  -6  -5   5  188.11   12.26
  -6  -5   5  186.34   11.38
  -6  -5   4  302.87   16.88
  -6  -5   4  325.55   16.19
  -6  -5   3  136.79    9.84
  -6  -5   3  132.73   11.16
  -6  -5   2   66.85    7.19
  -6  -5   2   68.52    8.10
  -6  -5   2   66.01    7.22
  -6  -5   1  105.38    9.36
  -6  -5   1   82.72    8.65
  -6  -5   1  107.26   10.56
  -6  -5   0  112.83   10.67
  -6  -5   0  118.19   11.70
  -6  -5  -1  384.30   18.90
  -6  -5  -1  370.16   21.32
  -6  -5  -1  391.21   22.75
  -6  -5  -2   37.31    5.13
  -6  -5  -2   39.69    6.76
  -6  -5  -3  123.67    8.36
  -6  -5  -3   95.11    8.84
  -6  -5  -3  120.55   11.16
  -6  -5  -3  126.15   11.31
  -6  -5  -3  118.35    6.82
  -6  -5  -4  121.98    7.11
  -6  -5  -4   89.13    8.05
   6  -5   4   84.63   14.84
  -6  -5  -4   98.50    9.50
  -6  -5  -4  107.05    9.35
   6  -5   5    3.75    6.55
  -6  -5  -5    0.41    1.43
  -6  -5  -5    0.35    1.07
   6  -5   6  217.91   22.88
  -6  -5  -6  116.39    6.51
  -6  -4  11   88.99    6.98
   6  -4 -11   68.23    4.30
   6  -4 -11   76.29    5.06
   6  -4 -11   64.38    3.84
  -6  -4  11   92.69    7.77
   6  -4 -10   56.54    4.55
  -6  -4  10   53.53    6.20
  -6  -4  10   58.16    6.91
   6  -4 -10   60.94    5.16
   6  -4 -10   57.89    4.52
  -6  -4   9  120.62   10.04
   6  -4  -9  129.72    7.77
   6  -4  -9  134.30    8.36
  -6  -4   9  119.01   10.18
  -6  -4   9  121.56   10.10
  -6  -4   8    3.14    2.06
  -6  -4   8    2.73    2.79
  -6  -4   8    1.41    2.47
   6  -4  -8    4.64    2.42
  -6  -4   8    3.65    2.74
  -6  -4   8    5.14    3.24
  -6  -4   8    3.85    2.81
  -6  -4   7  263.91   16.68
  -6  -4   7  212.37   12.11
  -6  -4   7  272.90   15.84
   6  -4  -7  233.27   13.87
  -6  -4   7  203.79   11.78
  -6  -4   7  173.25   13.15
   6  -4  -6  194.85   11.17
  -6  -4   6  194.75   12.41
  -6  -4   6  177.88   10.86
   6  -4  -5  691.57   26.72
  -6  -4   5  662.90   26.54
  -6  -4   5  678.12   25.52
  -6  -4   4  203.82   13.14
  -6  -4   3   21.34    3.97
  -6  -4   3   19.41    4.29
  -6  -4   3   19.28    3.86
  -6  -4   3   18.18    3.90
  -6  -4   2  120.76    9.71
  -6  -4   2  112.61   10.39
  -6  -4   2  119.95    9.54
  -6  -4   1  406.34   19.38
  -6  -4   1  342.23   19.63
  -6  -4   1  371.41   21.19
  -6  -4   0  299.64   19.09
  -6  -4  -1  107.69    9.49
  -6  -4  -1  125.09    9.91
  -6  -4  -1  122.27   11.01
  -6  -4  -1  146.99   13.40
  -6  -4  -2  273.33   15.79
  -6  -4  -2  298.85   15.47
  -6  -4  -2  299.98   18.50
   6  -4   3   43.35    9.74
  -6  -4  -3   46.74    6.03
  -6  -4  -3   52.77    5.55
  -6  -4  -3   50.20    7.35
  -6  -4  -3   52.27    8.32
   6  -4   4    9.18    6.09
  -6  -4  -4   10.59    2.32
  -6  -4  -4    9.15    3.25
   6  -4   4   16.39   10.88
   6  -4   5  122.92   16.01
   6  -4   5  100.76   20.03
  -6  -4  -5  123.26   10.65
  -6  -4  -5  114.80    9.62
   6  -4   6   18.13    7.31
   6  -4   6   28.25   12.69
  -6  -4  -6   24.50    4.05
  -6  -4  -6   17.88    2.96
   6  -4   7  123.94   15.76
   6  -4   7  154.90   20.61
  -6  -4  -7  155.21    8.12
   6  -3 -12   23.59    2.68
   6  -3 -11   88.33    5.42
  -6  -3  11  102.44    8.34
   6  -3 -11  115.04    7.30
   6  -3 -11   88.54    4.87
  -6  -3  11   98.27    9.08
   6  -3 -10   27.16    3.37
  -6  -3  10   24.86    4.91
   6  -3 -10   25.00    3.56
  -6  -3  10   23.74    4.81
   6  -3 -10   28.10    4.05
   6  -3 -10   25.69    3.08
  -6  -3  10   23.42    5.35
  -6  -3   9    0.17    4.28
   6  -3  -9   14.37    2.89
  -6  -3   9   15.82    4.25
   6  -3  -9   14.23    3.14
  -6  -3   9    2.75    3.39
   6  -3  -9   10.78    3.36
  -6  -3   9   16.34    4.86
  -6  -3   9   14.62    4.24
  -6  -3   8  397.69   22.80
  -6  -3   8  319.34   17.96
   6  -3  -8  540.48   20.44
  -6  -3   8  487.74   22.71
  -6  -3   8  312.65   20.84
   6  -3  -8  554.26   22.46
  -6  -3   8  439.59   19.73
  -6  -3   8  601.46   25.75
  -6  -3   8  563.67   24.35
  -6  -3   7  264.25   17.28
   6  -3  -7  248.42   13.54
  -6  -3   7  261.12   16.16
   6  -3  -7  274.80   15.07
  -6  -3   7  231.80   13.04
  -6  -3   7  240.52   15.38
  -6  -3   7  223.35   14.52
   6  -3  -6  400.27   17.79
  -6  -3   6  384.74   16.41
   6  -3  -6  401.50   18.47
  -6  -3   6  430.33   18.81
  -6  -3   6  348.28   16.14
   6  -3  -5   29.49    5.18
  -6  -3   5   30.88    3.97
   6  -3  -5   40.56    5.14
  -6  -3   5   31.08    4.76
  -6  -3   5   34.29    4.65
  -6  -3   5   39.25    4.56
   6  -3  -4  550.22   22.78
  -6  -3   4  469.80   20.67
  -6  -3   3  380.05   17.22
  -6  -3   3  364.34   18.77
  -6  -3   3  404.87   17.59
  -6  -3   2   22.43    4.49
  -6  -3   2   25.06    4.72
  -6  -3   2   23.38    3.85
  -6  -3   1  331.60   18.89
  -6  -3   1  361.68   16.20
  -6  -3   0  428.57   18.99
  -6  -3   0  416.83   22.40
  -6  -3   0  440.20   22.79
   6  -3   1  509.98   32.35
  -6  -3  -1  488.30   20.36
  -6  -3  -1  467.41   23.67
  -6  -3  -1  519.84   26.64
   6  -3   2  223.43   22.09
  -6  -3  -2  178.36   12.18
  -6  -3  -2  217.89   12.05
  -6  -3  -2  213.71   15.54
  -6  -3  -3  461.67   18.55
  -6  -3  -3  437.92   23.84
  -6  -3  -3  460.83   25.99
  -6  -3  -4    2.77    1.44
  -6  -3  -4    1.45    2.71
   6  -3   4    3.95    7.71
   6  -3   4    2.51    2.98
   6  -3   4    7.57   10.82
  -6  -3  -4    4.08    3.16
   6  -3   5   36.67   11.13
   6  -3   5   22.25    6.32
   6  -3   5   26.51   14.80
  -6  -3  -5   23.97    5.05
   6  -3   6   53.40   13.19
   6  -3   6   43.82    8.47
  -6  -3  -6   48.63    6.04
  -6  -3  -6   43.41    4.73
   6  -3   7   16.55    9.21
   6  -3   7    8.95    4.20
   6  -3   7   13.63   13.82
  -6  -3  -7   12.16    2.59
   6  -3   7    9.00    8.23
   6  -3   7   14.13    6.97
   6  -3   8  291.72   28.84
   6  -2 -12  192.84    9.39
  -6  -2  12  223.27   12.50
   6  -2 -11  100.64    6.68
   6  -2 -11   76.80    5.06
  -6  -2  11  100.12    8.52
   6  -2 -11  110.03    7.50
  -6  -2  11  109.31    9.90
   6  -2 -10  536.59   21.02
   6  -2 -10  483.29   17.50
   6  -2 -10  503.72   18.92
  -6  -2  10  522.94   24.07
   6  -2 -10  585.34   21.44
   6  -2 -10  459.22   16.60
  -6  -2  10  541.59   25.84
   6  -2  -9  398.72   15.44
   6  -2  -9  426.97   18.85
  -6  -2   9  435.60   21.11
   6  -2  -9  414.53   16.56
  -6  -2   9  394.27   22.03
  -6  -2   8  242.49   16.28
   6  -2  -8  301.34   15.07
  -6  -2   8  267.88   15.87
   6  -2  -8  287.04   15.73
  -6  -2   8  294.92   17.24
  -6  -2   7   39.71    6.44
  -6  -2   7   36.51    4.90
   6  -2  -7   53.79    6.08
  -6  -2   7   44.70    6.08
   6  -2  -7   50.01    6.20
  -6  -2   7   40.47    5.51
  -6  -2   7   52.39    6.71
   6  -2  -6  250.21   13.81
  -6  -2   6  269.80   12.79
   6  -2  -6  255.57   14.26
   6  -2  -6  268.96   14.27
  -6  -2   6  302.98   15.98
  -6  -2   6  270.41   13.20
  -6  -2   5  460.83   16.88
  -6  -2   5  443.70   18.47
   6  -2  -5  458.61   20.07
  -6  -2   5  404.61   19.00
  -6  -2   5  455.56   17.22
   6  -2  -4  228.04   13.52
  -6  -2   4  187.61   11.39
  -6  -2   4  244.76   12.04
  -6  -2   4  184.94   12.09
  -6  -2   4  268.07   11.06
   6  -2  -3  590.96   27.52
   6  -2  -3  546.08   28.50
  -6  -2   3  538.29   23.15
  -6  -2   2  997.24   31.22
  -6  -2   2  965.93   33.61
  -6  -2   2 1035.36   30.36
  -6  -2   1  124.44    8.58
  -6  -2   1  119.79   10.16
  -6  -2   1  125.85   10.08
  -6  -2   1  122.07    7.70
   6  -2   0  315.06   23.27
  -6  -2   0  337.69   15.11
  -6  -2   0  295.12   17.96
  -6  -2   0  359.05   18.42
  -6  -2   0  321.26   13.24
   6  -2   1  261.47   22.58
  -6  -2  -1  234.73   12.00
  -6  -2  -1  246.72   15.65
   6  -2   2  227.41   22.85
  -6  -2  -2  205.65   11.03
  -6  -2  -2  194.10   14.68
   6  -2   2  260.46   19.32
   6  -2   2  173.21   23.88
  -6  -2  -2  234.45   16.76
  -6  -2  -3  727.20   31.55
  -6  -2  -3  703.12   23.63
  -6  -2  -3  611.64   29.59
   6  -2   3  694.43   37.25
   6  -2   3  617.16   50.31
  -6  -2  -3  714.24   32.38
   6  -2   4  261.90   23.21
   6  -2   4  324.94   39.33
  -6  -2  -4  295.55   18.79
  -6  -2  -4  279.83   18.27
  -6  -2  -5  423.34   22.68
  -6  -2  -5  381.91   20.59
   6  -2   5  435.05   31.43
  -6  -2  -5  431.59   21.75
  -6  -2  -5  378.17   17.96
  -6  -2  -6    5.48    2.64
   6  -2   6    7.69    9.06
  -6  -2  -6    4.32    2.30
   6  -2   6    5.80    5.03
   6  -2   6    3.80   15.22
  -6  -2  -6    2.60    1.89
  -6  -2  -7  278.78   14.89
   6  -2   7  282.66   26.69
   6  -2   7  263.35   24.07
  -6  -2  -7  274.98   13.02
   6  -2   8   67.38   11.21
  -6  -2  -8   53.26    4.55
   6  -1 -12   24.13    2.96
   6  -1 -12   19.36    2.79
  -6  -1  12   27.36    4.36
   6  -1 -11   57.30    5.83
  -6  -1  11   55.07    6.27
   6  -1 -11   56.99    5.35
  -6  -1  11   64.90    7.82
   6  -1 -10  191.00   12.15
   6  -1 -10  159.83    8.20
   6  -1 -10  170.34    9.41
  -6  -1  10  186.74   13.20
   6  -1 -10  222.57   11.66
  -6  -1  10  205.09   14.98
   6  -1  -9   79.26    7.93
   6  -1  -9   88.96    5.83
  -6  -1   9   92.72    9.40
   6  -1  -9   83.45    6.41
  -6  -1   9  106.48    9.88
  -6  -1   9   88.60   14.19
  -6  -1   9   96.08   10.28
   6  -1  -8  107.96    8.87
  -6  -1   8  105.87    9.71
   6  -1  -8   88.07    6.52
  -6  -1   8   84.18    9.46
   6  -1  -7  178.30   11.26
   6  -1  -7  170.62   10.57
  -6  -1   7  168.70   11.62
  -6  -1   6  475.86   21.29
   6  -1  -6  410.23   18.44
  -6  -1   6  305.25   16.09
   6  -1  -6  430.62   18.87
   6  -1  -6  464.40   18.75
  -6  -1   6  403.34   18.42
  -6  -1   6  561.41   21.17
   6  -1  -6  446.31   19.37
  -6  -1   6  520.85   21.28
   6  -1  -6  407.90   18.12
  -6  -1   6  376.39   17.22
   6  -1  -5   87.87    7.76
  -6  -1   5  106.23    6.89
   6  -1  -5  102.42    8.19
  -6  -1   5  108.97    7.90
   6  -1  -5   94.60    8.25
  -6  -1   5   88.60    7.88
  -6  -1   5  100.65    7.14
  -6  -1   4 1558.97   40.17
   6  -1  -4 1023.52   41.62
   6  -1  -4 1406.62   45.35
   6  -1  -4 1482.97   49.10
  -6  -1   4 1494.95   41.35
  -6  -1   4 1284.94   40.91
  -6  -1   4 1250.48   42.51
  -6  -1   4 1580.63   39.78
   6  -1  -4 1312.05   46.37
  -6  -1   3  845.51   22.83
   6  -1  -3  656.06   27.75
   6  -1  -3  692.94   29.87
  -6  -1   3  690.12   29.22
   6  -1  -3  708.31   32.12
  -6  -1   3  774.35   25.17
  -6  -1   3  755.45   25.89
  -6  -1   3  950.80   25.75
  -6  -1   3  733.31   26.71
   6  -1  -3  687.71   31.09
  -6  -1   3  436.31   22.43
   6  -1  -2  232.95   15.80
   6  -1  -2  146.81   14.08
   6  -1  -2  221.55   13.80
  -6  -1   2  217.31   14.02
   6  -1  -2  217.00   17.60
   6  -1  -2  296.20   17.81
  -6  -1   2  271.74   13.93
  -6  -1   2  291.82   10.67
  -6  -1   2  287.15   11.89
   6  -1  -2  281.64   13.01
   6  -1  -1  227.26   18.11
   6  -1  -1  271.42   16.61
  -6  -1   1  269.22   14.63
  -6  -1   1  249.29   13.66
  -6  -1   1  263.01    9.68
  -6  -1   1  263.74   10.85
   6  -1   0   47.22    9.23
   6  -1   0   60.65   11.20
  -6  -1   0   60.54    7.25
  -6  -1   0   64.16    6.63
  -6  -1  -1  458.36   22.08
   6  -1   1  438.22   30.49
   6  -1   1  516.73   27.14
   6  -1   1  410.64   33.64
  -6  -1  -1  461.46   22.55
  -6  -1  -1  445.75   20.41
  -6  -1  -2   45.49    7.00
   6  -1   2   37.58   10.77
   6  -1   2   54.87    9.69
   6  -1   2   37.02   13.18
  -6  -1  -2   38.67    6.30
  -6  -1  -2   42.27    5.57
  -6  -1  -3  142.56   13.11
   6  -1   3  153.12   22.11
  -6  -1  -3  125.98   11.38
   6  -1   3  133.25   16.65
  -6  -1  -3  135.52   11.89
  -6  -1  -3  140.70   10.12
   6  -1   4  311.16   33.69
  -6  -1  -4  231.41   17.56
  -6  -1  -4  228.81   15.41
   6  -1   4  268.11   25.70
   6  -1   4  319.92   41.66
  -6  -1  -4  231.50   15.50
  -6  -1  -5   68.95    9.18
  -6  -1  -5   66.14    7.69
   6  -1   5   90.36   15.90
  -6  -1  -5   74.56    7.87
  -6  -1  -6   60.34    8.05
   6  -1   6   56.82   15.08
   6  -1   6   69.15   14.46
   6  -1   6   92.55   25.20
  -6  -1  -6   54.85    6.03
   6  -1   6   60.30   12.35
  -6  -1  -7   22.00    4.50
   6  -1   7   29.25   14.68
   6  -1   7   20.18    8.62
   6  -1   7   35.87   17.24
  -6  -1  -7   18.43    3.21
  -6  -1  -8  164.05   10.14
   6  -1   8  203.79   27.15
   6  -1   8  192.56   21.25
  -6   0  12    6.89    2.51
   6   0 -12    8.92    2.19
   6   0 -12    5.21    1.43
   6   0 -11  229.23   12.82
   6   0 -11  210.65   10.68
  -6   0  11  237.49   15.48
   6   0 -10   11.85    3.49
  -6   0  10   12.89    4.16
   6   0 -10   13.38    3.57
   6   0 -10   15.52    3.04
   6   0 -10   14.03    2.86
  -6   0  10    9.10    5.42
   6   0  -9  402.86   19.58
   6   0  -9  445.78   19.32
   6   0  -9  371.56   15.27
  -6   0   9  384.29   31.22
   6   0  -9  345.61   22.80
  -6   0   9  465.25   23.99
   6   0  -8   71.28    7.34
   6   0  -8   60.79    6.92
  -6   0   8   76.06    7.00
   6   0  -8   64.97    5.22
   6   0  -8   45.04    6.47
  -6   0   8   73.49    8.81
  -6   0   7   14.42    3.81
   6   0  -7   15.66    3.35
  -6   0   7   14.73    3.08
  -6   0   7   11.92    3.42
   6   0  -7   12.43    2.26
  -6   0   7    4.34    3.54
   6   0  -7   12.75    3.37
  -6   0   6    5.98    2.40
  -6   0   6    3.67    2.43
   6   0  -6    6.75    2.51
   6   0  -6    5.89    2.31
  -6   0   6    9.37    3.12
  -6   0   5  193.90   11.40
   6   0  -5  193.21   11.51
   6   0  -5  174.94   10.88
   6   0  -5  199.23   10.79
   6   0  -5  208.77   12.23
  -6   0   5  230.29   12.19
   6   0  -5  165.07   10.99
  -6   0   5  191.28   11.86
  -6   0   5  194.65   11.40
   6   0  -5  196.92   10.73
  -6   0   5  200.27   14.09
  -6   0   4    3.70    1.53
   6   0  -4    7.12    2.73
   6   0  -4    5.36    2.02
   6   0  -4    6.57    2.55
  -6   0   4    9.10    2.21
  -6   0   4    5.87    2.04
  -6   0   4    6.50    2.36
  -6   0   4    4.23    2.14
   6   0  -3  163.17   11.39
   6   0  -3  211.54   13.05
   6   0  -3  198.70   13.57
  -6   0   3  179.05   11.38
   6   0  -3  215.11   15.82
   6   0  -3  210.07   11.72
  -6   0   3  208.51    9.51
  -6   0   3  208.30   11.80
   6   0  -3  200.06   14.64
  -6   0   3  175.95   11.49
   6   0  -3  233.16   12.92
  -6   0   2  548.01   22.90
  -6   0   2  606.95   24.53
   6   0  -2  568.25   26.86
   6   0  -2  660.30   31.82
  -6   0   2  665.27   24.20
   6   0  -2  763.46   30.84
   6   0  -2  429.68   25.08
  -6   0   2  696.08   21.21
  -6   0   2  642.04   19.52
  -6   0   2  670.30   24.96
  -6   0   2  626.44   24.40
   6   0  -2  637.35   30.45
   6   0  -2  662.97   28.89
  -6   0   1  172.37   10.64
   6   0  -1  129.09   12.93
   6   0  -1  184.11   17.33
   6   0  -1  136.88   12.41
   6   0  -1  194.19   15.94
  -6   0   1  236.84   14.13
  -6   0   1  213.95   11.28
  -6   0   1  174.95   11.68
  -6   0   1  204.44   12.43
   6   0  -1  171.15   16.16
   6   0  -1  208.92   14.02
   6   0   0  122.00   15.55
   6   0   0  113.13   11.44
  -6   0   0  109.33    9.08
  -6   0   0  110.56    9.61
  -6   0   0  114.03    8.02
   6   0   0  120.16   15.03
  -6   0  -1   23.81    4.50
  -6   0  -1   23.38    4.97
   6   0   1   19.76    7.60
   6   0   1   21.84    9.88
   6   0   1   24.20    6.16
   6   0   1   27.05   10.46
  -6   0  -1   19.62    4.21
  -6   0  -1   22.58    3.50
  -6   0  -2  158.39   12.60
  -6   0  -2  147.78   13.17
   6   0   2  149.94   20.07
   6   0   2  138.35   22.18
   6   0   2  178.37   17.77
   6   0   2  156.44   25.17
  -6   0  -2  129.77   10.65
  -6   0  -3  207.11   15.50
  -6   0  -3  186.71   15.73
   6   0   3  211.40   29.24
   6   0   3  261.65   24.67
   6   0   3  304.70   39.13
   6   0   3  205.74   16.43
  -6   0  -3  159.85   12.01
  -6   0  -4   78.38    9.61
  -6   0  -4   86.59   10.65
   6   0   4   90.98   21.35
   6   0   4   92.20   20.97
   6   0   4   82.74   16.56
   6   0   4   60.37    9.67
  -6   0  -4   80.58    7.90
   6   0   4   77.03   16.40
  -6   0  -5    0.18    1.52
  -6   0  -5    0.61    2.28
   6   0   5   -2.35   10.69
   6   0   5    4.97    7.89
   6   0   5   -1.64    6.90
   6   0   5   -2.87   17.78
   6   0   5    0.82    2.59
  -6   0  -5    0.74    1.33
   6   0   5   -0.39    5.64
  -6   0  -6  217.96   15.18
   6   0   6  325.62   42.23
  -6   0  -6  228.38   16.64
   6   0   6  303.99   32.87
   6   0   6  195.70   18.47
  -6   0  -6  218.34   12.86
  -6   0  -7   90.96    8.32
  -6   0  -7   92.88    9.29
   6   0   7   93.65   22.35
   6   0   7  123.55   20.64
   6   0   7   80.98   10.78
  -6   0  -8    7.19    1.88
  -6   0  -8   10.12    2.71
   6   0   8   12.02    9.01
   6   0   8   12.36    7.47
   6   0   8    6.13    3.02
   6   1 -12   19.62    3.10
  -6   1  12   20.35    3.61
   6   1 -11   61.25    6.31
   6   1 -11   63.53    5.43
  -6   1  11   64.63   10.40
   6   1 -11   52.99    5.59
  -6   1  11   68.73    7.94
   6   1 -10  193.29   11.73
   6   1 -10  175.63    9.26
  -6   1  10  148.67   18.80
   6   1 -10  170.78   13.62
  -6   1  10  195.44   14.92
   6   1  -9   78.23    7.89
   6   1  -9   81.66    6.25
  -6   1   9   69.06   13.51
   6   1  -9   66.92    9.69
  -6   1   9   99.62   10.58
   6   1  -8  100.47    9.12
   6   1  -8   95.23    9.23
  -6   1   8  129.43   10.10
  -6   1   8  105.36   16.47
  -6   1   8  132.01   11.94
   6   1  -8  102.23   12.54
   6   1  -7  144.53   10.49
  -6   1   7  162.86   10.97
   6   1  -7  155.09   11.25
   6   1  -6  471.67   19.50
   6   1  -6  498.19   19.79
   6   1  -6  489.46   20.68
  -6   1   6  466.21   20.35
  -6   1   6  442.37   18.29
   6   1  -6  467.64   19.73
   6   1  -5   86.75    6.93
   6   1  -5   89.24    7.35
   6   1  -5   93.56    7.87
  -6   1   5   69.63    6.15
   6   1  -5   89.22    7.31
  -6   1   5   83.51    7.77
   6   1  -5   83.90    6.83
  -6   1   5   92.34    9.36
   6   1  -4 1501.17   42.32
   6   1  -4 1328.33   39.80
   6   1  -4 1269.37   41.24
   6   1  -4 1369.80   42.86
   6   1  -4 1284.77   40.73
  -6   1   4 1483.40   42.73
  -6   1   4 1366.49   42.15
   6   1  -4 1572.68   39.95
  -6   1   4 1346.93   44.34
  -6   1   3  721.23   29.96
   6   1  -3  963.32   30.71
   6   1  -3  741.21   30.15
  -6   1   3  821.07   29.90
   6   1  -3  951.95   27.42
  -6   1   3  813.20   29.61
   6   1  -2  255.19   17.46
   6   1  -2  296.16   15.40
  -6   1   2  250.91   14.59
  -6   1   2  268.96   15.59
   6   1  -2  243.01   15.89
   6   1  -2  227.80   15.69
   6   1  -2  347.41   21.52
   6   1  -2  300.57   19.07
  -6   1   2  293.87   15.23
  -6   1   2  282.09   14.39
   6   1  -2  356.93   20.99
   6   1  -1  211.56   13.36
  -6   1   1  210.46   13.07
  -6   1   1  203.36   13.46
   6   1  -1  174.02   14.63
   6   1  -1  152.09   13.55
   6   1  -1  223.60   14.28
   6   1  -1  149.89   13.88
  -6   1   1  221.57   12.37
   6   1  -1  257.89   19.09
  -6   1   0   62.21    7.01
  -6   1   0   56.21    7.42
   6   1   0   47.37    8.75
   6   1   0   71.63   12.08
   6   1   0   49.00    8.27
   6   1   0   57.83    7.32
  -6   1   0   65.55    7.28
  -6   1   0   57.13    6.20
   6   1   0   69.00   11.41
  -6   1  -1  487.93   24.15
  -6   1  -1  485.16   22.66
   6   1   1  570.33   37.40
   6   1   1  478.32   29.17
   6   1   1  493.78   24.59
  -6   1  -1  445.38   21.97
   6   1   1  453.93   31.65
  -6   1  -1  471.03   24.74
  -6   1  -2   38.55    6.81
  -6   1  -2   46.16    6.60
  -6   1  -2   45.30    7.61
   6   1   2   37.86   11.85
   6   1   2   35.58   12.13
   6   1   2   60.16   11.44
   6   1   2   48.17    7.81
  -6   1  -2   35.71    5.69
   6   1   2   47.87   11.63
   6   1   3  175.76   26.24
  -6   1  -3  170.48   14.83
  -6   1  -3  160.64   12.66
  -6   1  -3  155.84   14.62
   6   1   3  213.22   26.97
   6   1   3  208.41   24.03
   6   1   3  175.99   16.50
  -6   1  -3  153.68   11.99
   6   1   3  200.51   22.63
  -6   1  -4  232.31   17.84
  -6   1  -4  223.26   15.01
   6   1   4  237.67   34.74
  -6   1  -4  224.00   18.07
   6   1   4  296.36   30.22
   6   1   4  263.60   30.50
   6   1   4  219.09   20.42
  -6   1  -4  240.84   14.68
   6   1   4  309.59   25.97
   6   1   5   87.49   13.19
  -6   1  -5   75.62    9.90
  -6   1  -5   80.40   10.35
   6   1   5  104.64   26.10
   6   1   5   88.75   14.61
  -6   1  -5   81.62    7.78
  -6   1  -6   63.08    8.29
  -6   1  -6   56.67    8.48
   6   1   6   63.28   11.23
  -6   1  -7   18.23    3.98
  -6   1  -7   17.27    4.36
   6   1   7   23.88   12.55
   6   1   7   22.26    6.46
  -6   1  -8  178.34   10.12
  -6   1  -8  160.16   10.66
   6   1   8  154.15   20.47
   6   1   8  142.44   13.26
   6   2 -12  180.31   10.15
   6   2 -11  100.73    7.87
   6   2 -11  110.55    7.44
  -6   2  11   97.45   12.31
   6   2 -11   93.30    7.50
  -6   2  11  105.07    8.98
   6   2 -10  518.55   22.40
   6   2 -10  575.20   22.84
  -6   2  10  463.59   34.21
   6   2 -10  518.23   25.05
  -6   2  10  595.78   26.75
   6   2  -9  389.69   19.52
  -6   2   9  390.35   20.52
   6   2  -9  408.67   19.85
  -6   2   9  336.12   31.58
  -6   2   9  433.97   22.77
   6   2  -9  380.32   23.63
   6   2  -8  255.51   14.92
  -6   2   8  269.32   16.31
  -6   2   8  228.85   26.17
   6   2  -8  225.92   19.29
   6   2  -7   51.39    6.07
   6   2  -7   62.17    7.27
  -6   2   7   58.76    7.30
   6   2  -7   57.46    9.92
   6   2  -6  229.58   12.91
   6   2  -6  257.81   13.97
  -6   2   6  237.81   13.15
  -6   2   6  255.75   15.31
  -6   2   6  253.45   25.85
  -6   2   6  259.92   16.84
   6   2  -5  450.94   18.40
   6   2  -5  442.80   19.25
  -6   2   5  390.79   18.21
   6   2  -5  428.63   18.58
   6   2  -4  260.63   12.25
   6   2  -4  209.20   12.96
   6   2  -4  242.02   13.77
   6   2  -4  227.98   12.33
  -6   2   4  246.46   14.49
  -6   2   4  187.31   13.66
  -6   2   3  567.64   25.91
   6   2  -3  700.43   23.12
   6   2  -3  543.89   25.06
   6   2  -3  643.50   26.15
  -6   2   3  763.90   26.30
   6   2  -3  599.26   23.57
  -6   2   3  776.40   26.96
  -6   2   3  643.94   26.45
   6   2  -2 1200.53   35.14
  -6   2   2  968.14   35.70
  -6   2   2  902.63   36.33
   6   2  -2  763.84   34.33
   6   2  -2  965.08   36.11
   6   2  -2  886.33   39.35
  -6   2   2 1120.10   34.76
   6   2  -1  152.44    9.88
  -6   2   1  113.17   10.03
  -6   2   1  117.83   10.92
   6   2  -1  105.90   10.61
   6   2  -1   86.23   11.19
   6   2  -1  112.63   10.82
  -6   2   1   86.60    6.77
  -6   2   1  127.76   10.38
  -6   2   1  123.08    8.82
   6   2   0  351.64   20.61
  -6   2   0  382.63   20.30
   6   2   0  343.70   23.02
  -6   2   0  367.80   21.14
   6   2   0  316.51   21.29
   6   2   0  275.62   21.70
  -6   2   0  301.77   14.81
  -6   2   0  380.80   19.22
  -6   2   0  365.68   16.37
  -6   2  -1  239.49   16.88
  -6   2  -1  251.40   16.58
   6   2   1  221.74   21.13
   6   2   1  183.41   18.06
  -6   2  -1  204.14   12.06
   6   2   1  185.39   19.00
  -6   2  -1  231.12   17.22
  -6   2  -1  217.47   14.39
   6   2   1  224.51   20.22
  -6   2  -2  240.79   17.87
  -6   2  -2  261.82   17.54
   6   2   2  244.14   24.77
  -6   2  -2  235.30   18.18
   6   2   2  241.26   25.78
   6   2   2  168.43   19.73
   6   2   2  234.99   19.01
  -6   2  -2  197.41   12.19
  -6   2  -2  205.36   14.10
  -6   2  -3  698.03   33.85
  -6   2  -3  695.48   32.02
  -6   2  -3  573.86   31.94
   6   2   3  611.04   47.81
   6   2   3  431.74   37.05
   6   2   3  797.22   39.50
  -6   2  -3  634.69   25.05
  -6   2  -3  680.19   27.54
  -6   2  -4  281.48   20.07
  -6   2  -4  272.65   18.02
   6   2   4  286.05   35.62
   6   2   4  246.76   28.36
   6   2   4  258.52   23.55
  -6   2  -4  243.12   13.93
  -6   2  -4  282.38   15.42
  -6   2  -5  393.58   24.31
  -6   2  -5  439.78   22.45
   6   2   5  460.73   33.16
  -6   2  -6    5.97    3.12
  -6   2  -6    3.62    2.09
   6   2   6    9.81    9.61
   6   2   6    9.26    9.44
   6   2   6    1.76    3.75
  -6   2  -7  272.03   15.82
  -6   2  -7  290.02   16.89
   6   2   7  283.58   30.91
   6   2   7  250.40   21.71
  -6   2  -8   68.11    5.88
  -6   2  -8   73.87    6.53
   6   2   8   58.68   11.36
   6   2   8   60.64    8.44
   6   3 -11   96.48    6.88
  -6   3  11   97.46   11.10
   6   3 -11  111.64    8.18
   6   3 -11   92.63    6.81
   6   3 -10   20.74    3.78
   6   3 -10   20.28    3.72
  -6   3  10   17.20    6.55
   6   3 -10   20.14    4.25
   6   3  -9   22.57    5.38
   6   3  -9   21.56    4.12
  -6   3   9   18.80    4.39
   6   3  -9   21.79    4.39
  -6   3   9   17.10    7.56
   6   3  -8  515.81   22.26
  -6   3   8  480.69   24.94
   6   3  -7  211.05   13.10
   6   3  -7  147.00   12.49
  -6   3   7  210.44   15.49
  -6   3   7  186.31   24.45
  -6   3   7  250.85   16.40
   6   3  -7  144.04   16.07
   6   3  -6  366.35   17.69
   6   3  -6  412.69   18.82
  -6   3   6  420.75   22.53
   6   3  -6  373.96   19.52
  -6   3   6  411.33   19.07
  -6   3   6  324.41   32.29
  -6   3   6  412.04   21.21
   6   3  -6  305.88   24.36
   6   3  -5   29.96    4.29
   6   3  -5   33.58    4.92
   6   3  -5   33.26    5.02
  -6   3   5   33.74    5.16
  -6   3   5   35.46   10.51
  -6   3   5   30.01    5.58
   6   3  -5   32.72    7.73
  -6   3   4  465.24   23.33
   6   3  -4  565.57   22.65
  -6   3   4  578.50   25.30
  -6   3   4  470.66   21.58
  -6   3   4  386.54   32.66
   6   3  -3  390.27   18.09
  -6   3   3  361.87   19.17
   6   3  -3  391.49   15.98
  -6   3   2   18.57    3.85
   6   3  -2   19.24    4.48
   6   3  -2   22.95    4.43
   6   3  -2   17.14    3.63
  -6   3   2   15.01    5.45
  -6   3   2   23.31    5.03
  -6   3   1  326.67   19.35
   6   3  -1  361.59   18.78
  -6   3   1  327.52   16.16
   6   3  -1  255.34   21.13
   6   3  -1  275.49   19.28
   6   3  -1  309.65   19.13
  -6   3   1  364.19   19.37
  -6   3   0  447.23   23.59
   6   3   0  443.64   25.40
   6   3   0  463.56   23.50
  -6   3   0  484.76   18.65
   6   3   0  312.76   25.03
   6   3   0  374.17   23.49
  -6   3   0  387.98   17.43
  -6   3   0  402.42   21.26
  -6   3  -1  557.92   28.36
   6   3   1  587.64   32.82
   6   3   1  589.76   29.10
   6   3   1  495.50   28.86
  -6   3  -1  484.00   20.84
  -6   3  -1  474.56   23.50
  -6   3  -2  229.50   18.34
  -6   3  -2  235.64   17.93
  -6   3  -2  206.47   17.59
   6   3   2  275.62   24.17
   6   3   2  219.79   18.37
   6   3   2  243.40   20.64
  -6   3  -2  195.77   12.15
  -6   3  -2  212.65   14.14
  -6   3  -3  454.83   27.28
  -6   3  -3  497.33   26.81
  -6   3  -3  404.22   26.48
   6   3   3  473.54   36.06
   6   3   3  413.82   37.53
   6   3   3  548.34   34.00
  -6   3  -3  460.51   20.19
  -6   3  -3  515.07   22.16
  -6   3  -4    7.05    4.23
  -6   3  -4    5.77    3.46
   6   3   4    6.26    6.98
   6   3   4    8.97   10.56
   6   3   4    5.47    5.06
  -6   3  -4    8.07    3.12
  -6   3  -4    3.39    3.48
  -6   3  -5   20.02    5.32
  -6   3  -5   24.12    5.93
  -6   3  -5   21.41    4.84
   6   3   5   33.46   10.22
   6   3   5   20.01   12.46
   6   3   5   29.42    8.81
  -6   3  -6   45.31    6.79
  -6   3  -6   40.44    5.45
   6   3   6   29.53   12.66
   6   3   6   39.82    9.59
  -6   3  -6   38.73    6.51
   6   3   6   56.33    9.24
  -6   3  -7   13.36    2.43
  -6   3  -7   11.16    3.03
   6   3   7   13.18    7.60
   6   3   7   11.61    4.96
  -6   3  -7   12.12    3.26
   6   3   8  157.01   12.21
  -6   3  -8  215.39    9.86
  -6   4  11   61.93    7.30
   6   4 -11   59.59    4.49
   6   4 -10   45.67    4.53
  -6   4  10   47.64    5.08
  -6   4  10   46.94    8.66
   6   4 -10   44.51    4.88
   6   4 -10   44.10    5.24
   6   4  -9  122.99    8.61
  -6   4   9  110.67   10.36
   6   4  -9  120.10    9.00
   6   4  -9  128.42    9.82
   6   4  -8    2.47    3.16
   6   4  -8    3.71    2.04
  -6   4   8    3.59    2.70
   6   4  -8    1.62    2.15
  -6   4   8    5.47    5.43
   6   4  -8    3.32    2.03
   6   4  -7  225.46   12.94
  -6   4   7  204.10   16.60
  -6   4   7  214.56   26.14
  -6   4   7  232.39   15.14
   6   4  -7  198.91   17.09
   6   4  -6  130.15   11.07
   6   4  -6  159.61    9.72
  -6   4   6  162.43   14.78
   6   4  -6   96.05    9.98
  -6   4   6  122.70   20.18
  -6   4   6  167.20   12.32
   6   4  -6  160.57   15.89
   6   4  -5  600.85   25.01
   6   4  -5  601.75   25.85
   6   4  -5  575.64   22.75
  -6   4   5  592.28   29.97
  -6   4   5  662.92   26.49
   6   4  -5  687.17   26.28
  -6   4   5  609.91   26.91
   6   4  -5  562.87   32.55
   6   4  -4  254.25   14.37
   6   4  -4  260.34   14.64
  -6   4   4  230.11   17.05
   6   4  -4  212.55   18.91
  -6   4   4  234.91   15.50
   6   4  -3    8.33    4.06
   6   4  -3   14.04    3.63
   6   4  -3   21.90    4.11
  -6   4   3   11.59    4.06
  -6   4   3   14.42    4.18
  -6   4   3   16.94    4.28
   6   4  -3   13.93    3.52
  -6   4   3    5.69    4.41
  -6   4   2   94.60   10.21
   6   4  -2  124.97   10.56
   6   4  -2  133.79   10.03
  -6   4   2  100.38    9.89
  -6   4   2  113.14   10.10
   6   4  -2   90.76    8.88
  -6   4   1  359.09   21.78
   6   4  -1  492.22   20.38
  -6   4   1  435.89   20.36
  -6   4   1  351.71   18.98
   6   4  -1  279.77   18.01
   6   4  -1  373.88   20.59
   6   4   0  295.29   19.07
  -6   4   0  270.00   19.91
  -6   4   0  244.56   14.82
   6   4   0  268.40   23.30
   6   4   0  228.96   19.49
  -6   4   0  266.93   13.82
  -6   4  -1  137.92   14.36
   6   4   1  157.97   14.43
  -6   4  -1  117.80    9.63
   6   4   1  129.33   17.24
   6   4   1  133.51   15.11
  -6   4  -1  124.06    9.20
  -6   4  -1  139.97   11.52
  -6   4  -2  317.25   21.46
  -6   4  -2  339.34   22.83
  -6   4  -2  310.63   15.36
   6   4   2  312.76   28.86
   6   4   2  317.44   25.24
  -6   4  -2  288.33   15.11
   6   4   2  304.57   22.21
  -6   4  -3   58.70    8.83
   6   4   3   63.11   11.89
   6   4   3   55.34   13.73
  -6   4  -3   52.98    6.06
   6   4   3   52.06    9.21
  -6   4  -3   56.85    9.19
  -6   4  -4   11.78    4.57
  -6   4  -4   15.31    4.66
   6   4   4   19.04    5.33
   6   4   4   14.22    9.67
   6   4   4   12.38    6.42
  -6   4  -4   13.74    3.44
  -6   4  -5  126.48   11.63
  -6   4  -5  124.75   10.64
   6   4   5  134.72   20.26
   6   4   5  118.42   16.16
  -6   4  -5  117.46    8.19
  -6   4  -6   24.96    3.98
  -6   4  -6   27.76    4.70
   6   4   6   25.96    8.74
   6   4   6   28.13    7.49
  -6   4  -7  140.91    7.39
  -6   4  -7  175.25    9.16
   6   4   7  145.62   12.66
   6   4   7  150.02   13.13
  -6   5   9   73.87    7.30
   6   5  -9   84.11    6.19
  -6   5   9   86.23   11.79
   6   5  -9   75.33    6.67
  -6   5   8  253.41   16.88
   6   5  -8  262.67   13.30
  -6   5   8  266.66   24.28
   6   5  -8  245.11   15.02
  -6   5   7  110.57   12.09
   6   5  -7  115.77    9.02
  -6   5   7  104.64   16.35
   6   5  -7  118.36   11.31
   6   5  -6  359.27   15.95
   6   5  -6  388.66   18.09
  -6   5   6  405.08   18.83
   6   5  -6  399.07   22.64
   6   5  -5  174.06   10.81
  -6   5   5  160.47   15.44
   6   5  -5  176.55   11.77
  -6   5   5  122.35   17.71
   6   5  -5  168.91   15.09
  -6   5   5  176.01   12.45
   6   5  -4  338.03   16.92
  -6   5   4  253.48   19.60
   6   5  -4  355.73   16.31
   6   5  -4  289.52   15.16
  -6   5   4  228.32   23.02
   6   5  -4  263.39   19.10
  -6   5   4  286.74   17.13
  -6   5   3  144.89   12.16
   6   5  -3  164.05   11.46
   6   5  -3  135.37   10.38
  -6   5   3  115.38   12.07
  -6   5   3  175.64   12.62
   6   5  -3  148.00   10.08
   6   5  -3  144.71   11.39
  -6   5   2   66.73    8.56
   6   5  -2   80.80    8.07
  -6   5   2   74.15    8.95
  -6   5   2   86.22    8.64
   6   5  -2   69.61    6.88
   6   5  -2   62.72    7.63
  -6   5   1  100.05   11.09
  -6   5   1  113.93    9.99
  -6   5   1  115.59    9.78
   6   5  -1   96.06    8.39
   6   5  -1  119.73   10.24
   6   5  -1   87.99    9.57
  -6   5   0  131.91   12.97
   6   5   0  133.85   10.93
  -6   5   0  113.07    9.26
   6   5   0   98.17    8.77
  -6   5   0  114.98    8.21
   6   5   0  101.13   10.93
  -6   5  -1  387.42   23.25
   6   5   1  368.43   19.65
  -6   5  -1  409.75   17.31
  -6   5  -1  340.99   15.98
   6   5   2   33.38    5.37
   6   5   2   39.23   10.28
   6   5   2   27.74    4.71
  -6   5  -2   34.61    4.62
   6   5   3  103.06   16.17
  -6   5  -3  134.72    8.78
  -6   5  -3  134.22   12.64
  -6   5  -4  120.20   10.53
  -6   5  -4  126.88   11.10
   6   5   4  127.92   16.81
  -6   5  -4  117.45    7.70
  -6   5  -5    0.81    1.35
  -6   5  -5    1.78    1.85
  -6   5  -6  141.28    8.05
  -6   6   9   56.23    6.38
   6   6  -9   52.08    3.80
  -6   6   8   81.77    7.75
  -6   6   8   77.08    9.42
   6   6  -8   72.21    5.69
  -6   6   7  204.94   18.19
   6   6  -7  229.89   12.20
   6   6  -6   25.86    3.61
  -6   6   6   33.03    6.35
   6   6  -6   42.61    4.38
  -6   6   6   28.56    6.94
   6   6  -6   32.54    4.66
   6   6  -5   22.26    3.68
   6   6  -5   17.06    3.42
  -6   6   5   17.97    5.01
  -6   6   5   16.68    5.27
   6   6  -5   16.89    3.39
  -6   6   5   25.55    4.09
   6   6  -4   54.91    5.96
  -6   6   4   44.67    7.51
   6   6  -4   62.29    6.20
  -6   6   4   50.47    6.07
   6   6  -3   46.46    5.78
  -6   6   3   41.02    6.82
   6   6  -3   51.65    5.54
  -6   6   3   42.55    5.95
  -6   6   2  137.62   11.55
  -6   6   2  161.94   12.32
   6   6  -2  157.87   10.26
   6   6  -2  152.12   11.88
  -6   6   1  111.46   10.77
   6   6  -1  148.29    9.89
   6   6  -1  130.85    9.53
   6   6  -1  124.43   11.02
  -6   6   0  181.42   13.94
   6   6   0  177.91   11.34
   6   6   0  185.00   14.12
  -6   6  -1   50.62    7.23
   6   6   1   52.84    5.89
  -6   6  -1   44.47    4.40
   6   6   1   55.08    7.79
  -6   6  -2  232.88   14.96
  -6   6  -2  209.88   10.27
   6   6   2  247.49   17.05
  -6   6  -3   70.29    7.44
  -6   6  -3   69.36    5.11
   6   6   3   64.05    8.55
  -6   6  -4    3.01    1.89
  -6   6  -4    2.07    1.18
   6   6   4    6.71    3.13
   6   6   5   95.09    7.82
  -6   7   7   10.88    2.37
  -6   7   6  126.53    9.30
  -6   7   5   16.70    3.60
   6   7  -4   12.08    2.60
  -6   7   4   12.52    3.17
   6   7  -4   10.14    2.22
   6   7  -3  192.53   10.82
  -6   7   3  157.43   10.33
   6   7  -3  182.47    9.71
  -6   7   3  183.52    9.52
   6   7  -2   40.51    4.21
  -6   7   2   35.57    4.34
  -6   7   1    2.14    1.69
   6   7  -1    2.88    1.86
   6   7  -1    3.50    1.53
  -6   7   0   15.80    3.19
   6   7   0   14.35    3.10
   6   7   1  346.91   14.98
   6   7   1  308.29   16.31
  -6   7  -2   33.92    3.98
   6   7   2   39.45    5.33
   6   7   3   30.77    4.18
  -7  -7   5   30.19    2.88
  -7  -7   5   35.07    3.03
  -7  -7   4  144.90    7.33
  -7  -7   4  142.22    6.68
  -7  -7   3   32.81    3.11
  -7  -7   3   34.10    3.45
  -7  -7   3   33.02    2.89
  -7  -7   2   91.40    5.29
  -7  -7   2   95.58    6.11
  -7  -7   2   96.26    5.91
  -7  -7   2   81.88    4.47
  -7  -7   1   14.29    2.35
  -7  -7   1   13.40    2.06
  -7  -7   0   21.03    2.68
  -7  -7   0   24.12    2.38
   7  -6  -8  182.60    7.46
  -7  -6   8  180.88    9.27
   7  -6  -8  173.03    7.40
  -7  -6   8  173.13   10.33
  -7  -6   7  106.45    8.48
  -7  -6   7  103.85    7.51
   7  -6  -7  114.06    6.16
  -7  -6   7   95.91    6.30
  -7  -6   6  100.62    6.75
  -7  -6   6  119.66    8.26
   7  -6  -6   95.85    6.35
  -7  -6   6  105.61    6.80
  -7  -6   5  121.16    8.25
   7  -6  -5  102.04    7.61
  -7  -6   5   97.06    6.74
  -7  -6   4  122.87    7.85
  -7  -6   4  126.11    8.88
  -7  -6   4  131.11    8.70
  -7  -6   4  140.28    8.19
  -7  -6   3   43.13    5.35
  -7  -6   2   22.33    4.23
  -7  -6   2   24.98    3.93
  -7  -6   1   27.03    4.59
  -7  -6   1   26.23    3.87
  -7  -6   0  170.20   11.52
  -7  -6   0  171.99    9.41
  -7  -6  -1   52.78    6.04
  -7  -6  -1   53.91    4.34
  -7  -6  -2  167.47   10.28
   7  -6   3   30.75    6.71
  -7  -5  10    4.72    1.71
   7  -5 -10    3.90    1.10
   7  -5  -9    1.33    1.07
  -7  -5   9    1.10    1.62
   7  -5  -9    0.88    0.85
  -7  -5   8  546.29   21.21
   7  -5  -8  584.07   17.54
  -7  -5   7  346.63   18.48
  -7  -5   7  350.46   17.70
   7  -5  -7  376.85   16.46
  -7  -5   7  320.86   14.80
  -7  -5   6   15.88    3.52
   7  -5  -6   14.92    3.67
  -7  -5   6   10.42    2.92
  -7  -5   5   83.78    6.80
  -7  -5   5   91.33    8.16
  -7  -5   5   89.70    7.61
  -7  -5   5   92.19    7.05
   7  -5  -4  145.86   11.81
  -7  -5   4  145.93   10.89
  -7  -5   4  168.43    9.73
  -7  -5   3   11.07    3.22
  -7  -5   2  159.55   12.57
  -7  -5   2  164.62   11.11
  -7  -5   2  132.73   10.41
  -7  -5   1   66.73    7.21
  -7  -5   1   60.79    7.93
  -7  -5   1   61.40    6.54
  -7  -5   0  174.70   13.18
  -7  -5   0  171.69   13.97
  -7  -5   0  173.01   10.56
  -7  -5  -1  235.78   13.10
  -7  -5  -1  227.32   15.45
  -7  -5  -1  225.90   11.24
   7  -5   2   28.05    8.14
  -7  -5  -2   39.44    6.10
  -7  -5  -2   37.86    6.01
   7  -5   3  140.81   16.25
  -7  -5  -3  145.09   10.87
  -7  -5  -3  158.93   10.95
   7  -5   4   18.68    7.12
  -7  -5  -4   21.36    3.63
  -7  -5  -4   21.83    3.36
   7  -5   5   37.46    9.34
  -7  -5  -5   43.55    4.05
  -7  -5  -5   40.24    3.33
  -7  -4  11  104.34    7.18
   7  -4 -10  101.85    5.79
  -7  -4  10  102.26    7.60
   7  -4 -10  104.95    6.31
  -7  -4  10   98.66    7.87
   7  -4 -10  120.79    6.91
   7  -4 -10  105.68    5.60
  -7  -4  10  110.14    8.91
  -7  -4   9   60.99    6.46
   7  -4  -9   59.19    5.22
   7  -4  -9   64.72    5.45
   7  -4  -9   45.98    5.40
  -7  -4   9   52.20    6.94
  -7  -4   8   38.06    6.36
  -7  -4   8   44.76    6.00
  -7  -4   8   25.23    5.40
   7  -4  -8   46.18    5.84
  -7  -4   8   43.94    5.36
  -7  -4   7  664.22   27.79
   7  -4  -7  594.10   22.28
  -7  -4   7  688.08   26.78
   7  -4  -7  644.65   25.45
  -7  -4   6   57.67    5.75
   7  -4  -6   59.62    6.37
  -7  -4   6   54.55    6.51
  -7  -4   6   46.49    5.40
   7  -4  -5  391.35   19.93
  -7  -4   5  373.19   16.67
   7  -4  -5  389.38   19.83
  -7  -4   5  442.11   17.53
  -7  -4   4    8.82    2.99
  -7  -4   4    6.25    2.46
  -7  -4   3  162.04   12.58
  -7  -4   3  161.59   11.08
  -7  -4   3  128.20   10.61
   7  -4  -3  134.01   14.86
  -7  -4   2   83.27    9.33
  -7  -4   2   81.74    7.74
  -7  -4   1   50.38    7.38
  -7  -4   1   53.75    6.05
  -7  -4   0  604.40   24.94
  -7  -4   0  579.91   28.68
  -7  -4   0  590.17   22.73
  -7  -4  -1  152.03   10.53
  -7  -4  -1  152.80   13.75
  -7  -4  -1  158.54   13.78
  -7  -4  -1  142.34    8.68
  -7  -4  -2  145.45    9.63
   7  -4   2  106.88   17.12
  -7  -4  -2  144.61   13.44
  -7  -4  -2  145.44   12.68
   7  -4   3  174.46   22.18
  -7  -4  -3  176.38   14.02
  -7  -4  -3  197.85   13.70
   7  -4   4  170.81   21.95
  -7  -4  -4  160.13   10.54
   7  -4   5   15.00    5.75
   7  -4   5   31.73   11.38
  -7  -4  -5   25.46    4.00
  -7  -4  -5   20.34    2.97
   7  -4   6  121.70   16.53
  -7  -4  -6  105.36    6.52
   7  -4   6  111.18   13.77
   7  -3 -11  383.77   13.28
  -7  -3  11  427.88   16.94
   7  -3 -11  486.34   16.53
  -7  -3  11  529.99   20.31
   7  -3 -10   30.16    3.23
   7  -3 -10   31.55    3.67
  -7  -3  10   32.12    4.79
   7  -3 -10   38.50    4.41
   7  -3 -10   29.56    2.90
  -7  -3  10   27.30    5.03
   7  -3  -9  137.92    8.94
  -7  -3   9  152.16   10.90
   7  -3  -9  143.76    8.48
   7  -3  -9  113.81    9.52
  -7  -3   9  132.79   11.34
  -7  -3   8   74.95    8.70
   7  -3  -8   99.19    7.95
  -7  -3   8   86.28    8.59
   7  -3  -8   94.46    8.66
  -7  -3   7  222.71   15.07
  -7  -3   7  174.28   11.09
   7  -3  -7  234.13   13.32
  -7  -3   7  174.28   12.60
   7  -3  -7  227.43   13.87
  -7  -3   7  194.17   11.92
   7  -3  -6  324.65   16.65
  -7  -3   6  330.31   15.22
   7  -3  -6  326.63   17.18
   7  -3  -6  317.26   15.92
  -7  -3   6  329.01   17.14
  -7  -3   6  315.34   15.34
   7  -3  -5   61.42    7.81
  -7  -3   5   72.69    6.26
  -7  -3   5   65.13    6.98
   7  -3  -5   78.53    7.97
  -7  -3   5   62.98    7.06
  -7  -3   5   74.03    6.44
  -7  -3   4  436.30   20.78
   7  -3  -4  509.19   24.47
  -7  -3   4  540.84   21.74
  -7  -3   4  422.50   21.22
  -7  -3   4  580.22   19.80
   7  -3  -3  221.23   19.43
  -7  -3   3  245.81   15.38
  -7  -3   3  247.14   13.40
  -7  -3   3  206.27   13.91
   7  -3  -3  184.90   17.59
   7  -3  -2   43.78    8.94
   7  -3  -2   43.70   10.07
  -7  -3   2   47.86    5.58
  -7  -3   1  877.10   35.70
  -7  -3   1  948.25   36.39
  -7  -3   1  866.66   29.45
  -7  -3   0  869.12   31.75
  -7  -3   0  928.99   38.12
  -7  -3   0  965.36   37.87
  -7  -3   0  882.22   29.11
   7  -3   1  215.53   22.60
  -7  -3  -1  272.74   14.33
   7  -3   1  202.20   24.25
  -7  -3  -1  283.81   19.71
  -7  -3  -1  293.60   18.88
  -7  -3  -1  259.23   11.69
   7  -3   2  312.59   28.29
   7  -3   2  327.82   32.59
  -7  -3  -2  365.77   20.85
   7  -3   3  117.32   17.70
   7  -3   3  171.39   25.08
  -7  -3  -3  144.41   13.28
  -7  -3  -3  136.04   11.41
   7  -3   4  156.54   20.43
  -7  -3  -4  185.68   13.94
  -7  -3  -4  179.41   11.88
   7  -3   5  117.78   17.44
  -7  -3  -5  123.56    9.69
  -7  -3  -5  104.59    7.31
   7  -3   6  202.60   21.83
   7  -3   6  270.51   27.06
  -7  -3  -6  233.26   11.71
   7  -3   6  257.39   22.91
   7  -3   7    7.10    5.28
   7  -2 -12  123.86    6.45
  -7  -2  12  129.71    8.07
   7  -2 -11  154.45    8.43
   7  -2 -11  173.55    9.16
  -7  -2  11  163.59   11.28
  -7  -2  10   17.97    4.25
   7  -2 -10   18.34    3.45
   7  -2 -10   17.39    2.37
   7  -2 -10   15.81    2.72
  -7  -2  10   14.98    3.45
   7  -2 -10   19.65    3.46
   7  -2  -9  111.93    8.93
  -7  -2   9  100.85    9.32
   7  -2  -9  104.03    7.03
   7  -2  -9   78.05    8.16
  -7  -2   9  100.35   10.13
  -7  -2   8    3.05    2.74
   7  -2  -8    3.15    2.26
  -7  -2   8    4.66    2.70
   7  -2  -8    3.04    2.73
  -7  -2   7  196.31   14.86
  -7  -2   7  175.74   11.70
   7  -2  -7  263.59   14.46
  -7  -2   7  236.64   14.11
  -7  -2   7  258.19   15.95
   7  -2  -6  276.95   15.55
  -7  -2   6  282.16   14.10
   7  -2  -6  285.94   15.98
   7  -2  -6  315.20   16.51
  -7  -2   6  298.16   16.35
  -7  -2   6  258.90   14.23
   7  -2  -5  459.46   23.26
  -7  -2   5  618.07   21.40
  -7  -2   5  596.71   22.97
   7  -2  -5  567.59   25.05
  -7  -2   5  472.94   22.66
  -7  -2   5  606.85   21.49
  -7  -2   4   27.22    3.57
   7  -2  -4   27.52    5.18
  -7  -2   4   28.65    4.46
  -7  -2   4   21.12    4.38
   7  -2  -4   21.85    5.62
   7  -2  -3  237.93   17.84
   7  -2  -3  234.33   19.34
  -7  -2   3  238.98   13.36
  -7  -2   3  250.73   15.18
  -7  -2   3  236.85   13.52
  -7  -2   3  287.78   13.71
  -7  -2   3  218.25   14.21
   7  -2  -3  224.17   18.34
   7  -2  -2  144.92   15.64
   7  -2  -2  165.13   18.18
  -7  -2   2  217.68   13.97
  -7  -2   2  213.58   11.18
   7  -2  -1  140.75   15.41
  -7  -2   1  152.30   12.77
  -7  -2   1  173.88   12.85
  -7  -2   1  168.13    9.38
   7  -2   0   58.19   11.46
   7  -2   0   79.44   14.14
  -7  -2   0   73.92    8.54
  -7  -2   0   75.72    5.60
   7  -2   1  135.10   18.83
   7  -2   1  166.25   23.12
  -7  -2  -1  169.43   14.55
  -7  -2  -1  170.37   13.09
   7  -2   2  406.80   34.34
   7  -2   2  461.91   41.84
  -7  -2  -2  421.05   23.97
  -7  -2  -2  411.17   21.35
   7  -2   3   42.77   12.80
   7  -2   3   51.54    9.63
   7  -2   3   62.63   18.66
  -7  -2  -3   57.63    8.08
  -7  -2  -3   48.59    6.21
   7  -2   4  215.71   27.15
   7  -2   4  183.98   18.92
  -7  -2  -4  195.45   14.17
  -7  -2  -4  178.27   11.17
   7  -2   5    9.96    9.58
   7  -2   5    0.58    9.62
   7  -2   5    4.86    4.21
   7  -2   5    3.66   12.79
  -7  -2  -5    5.50    2.43
   7  -2   5    3.65    7.36
   7  -2   6  109.87   19.29
   7  -2   6   89.18   12.33
   7  -2   6  115.39   18.20
  -7  -2  -6   97.30    7.18
   7  -2   6  114.20   15.00
   7  -2   7  105.06   11.84
  -7  -2  -7  153.23    7.54
   7  -1 -12   99.92    5.91
   7  -1 -12  104.02    5.78
  -7  -1  12  119.51    8.07
  -7  -1  11   10.79    3.17
   7  -1 -11   13.39    2.87
   7  -1 -11   14.12    2.59
   7  -1 -10  219.79   13.05
   7  -1 -10  199.54    9.77
   7  -1 -10  242.20   11.91
  -7  -1  10  203.44   20.10
  -7  -1  10  248.77   15.70
   7  -1  -9  254.31   14.49
   7  -1  -9  237.66   11.15
  -7  -1   9  265.61   23.99
   7  -1  -9  209.10   16.46
  -7  -1   9  261.78   16.90
   7  -1  -8   63.34    6.95
  -7  -1   8   62.27    7.26
  -7  -1   8   70.82    6.23
   7  -1  -8   49.68    4.68
   7  -1  -8   52.39    6.64
  -7  -1   8   51.23    7.23
  -7  -1   7   61.88    7.56
   7  -1  -7   69.19    7.17
   7  -1  -7   74.33    7.13
   7  -1  -7   63.95    6.81
  -7  -1   6  446.96   20.54
   7  -1  -6  441.30   20.13
  -7  -1   6  327.04   17.33
   7  -1  -6  429.81   19.91
   7  -1  -6  501.84   20.77
  -7  -1   6  547.89   21.97
   7  -1  -6  454.55   20.96
  -7  -1   6  482.87   21.57
   7  -1  -6  426.73   19.20
   7  -1  -5  136.85   10.67
  -7  -1   5  140.75    9.02
   7  -1  -5  151.08   11.13
   7  -1  -5  144.65   11.06
  -7  -1   5  137.62   10.66
  -7  -1   4  646.45   20.18
   7  -1  -4  399.26   22.04
   7  -1  -4  534.57   25.31
  -7  -1   4  628.06   21.95
  -7  -1   4  482.72   21.05
  -7  -1   4  503.25   22.60
   7  -1  -4  518.80   26.50
   7  -1  -3  322.13   17.84
   7  -1  -3  286.15   19.45
   7  -1  -3  278.28   21.10
  -7  -1   3  329.32   14.89
  -7  -1   3  297.58   16.00
  -7  -1   3  283.92   16.57
   7  -1  -2  589.31   28.99
   7  -1  -2  588.93   33.82
  -7  -1   2  591.27   21.88
  -7  -1   2  655.43   25.72
  -7  -1   2  612.61   25.49
   7  -1  -2  571.32   32.23
   7  -1  -1   15.43    5.90
   7  -1  -1    4.74    6.04
  -7  -1   1    5.07    2.40
   7  -1  -1    9.32    6.98
   7  -1   0   13.86    7.12
   7  -1   0   18.17    9.65
   7  -1   0   14.59    8.23
  -7  -1   0   14.81    4.22
  -7  -1   0   16.94    3.74
  -7  -1  -1  214.36   15.06
   7  -1   1  183.56   22.02
   7  -1   1  244.65   20.09
   7  -1   1  252.46   29.03
  -7  -1  -1  207.89   15.27
  -7  -1  -1  197.20   12.89
   7  -1   2  121.56   20.45
   7  -1   2  161.26   17.66
   7  -1   2  176.94   27.97
  -7  -1  -2  116.64   11.33
  -7  -1  -2  117.67    9.38
  -7  -1  -2  144.67   13.08
  -7  -1  -3  105.84   11.51
   7  -1   3   96.25   20.08
   7  -1   3  153.74   27.07
   7  -1   3  134.35   17.56
   7  -1   3  182.57   32.04
  -7  -1  -3   93.49    9.79
   7  -1   4  304.99   35.73
  -7  -1  -4  244.84   17.89
   7  -1   4  315.54   37.58
   7  -1   4  270.01   26.01
  -7  -1  -4  246.98   15.55
   7  -1   4  304.27   32.44
  -7  -1  -5  248.42   16.79
   7  -1   5  313.95   36.99
   7  -1   5  293.06   33.14
   7  -1   5  322.01   28.84
  -7  -1  -5  241.76   13.85
   7  -1   5  313.25   28.75
  -7  -1  -6  204.73   13.30
   7  -1   6  207.96   22.20
   7  -1   6  214.61   22.55
  -7  -1  -6  194.22   11.23
   7  -1   7  126.60   20.41
  -7  -1  -7   92.35    7.13
   7  -1   7   95.99   13.48
   7   0 -12   19.56    2.84
  -7   0  12   18.13    3.04
   7   0 -11  253.34   13.14
   7   0 -11  247.60   10.95
   7   0 -10  731.64   28.41
   7   0 -10  804.69   26.83
   7   0 -10  817.26   25.88
  -7   0  10  644.55   40.11
   7   0 -10  700.40   30.92
  -7   0  10  871.08   33.34
   7   0  -9    3.80    3.10
  -7   0   9    9.62    3.34
   7   0  -9    5.76    2.81
   7   0  -9    5.90    1.65
  -7   0   9   10.79    5.81
   7   0  -8  173.16   12.13
  -7   0   8  183.25   11.35
   7   0  -8  163.53    8.35
  -7   0   8  187.04   13.88
   7   0  -7  184.93   11.93
  -7   0   7  163.64   10.66
   7   0  -7  143.13   10.39
  -7   0   7  158.06   12.15
   7   0  -6    4.88    2.55
   7   0  -6    4.64    2.39
  -7   0   6    2.96    2.34
   7   0  -6    5.08    2.54
   7   0  -6    4.74    2.21
  -7   0   6    6.32    2.80
   7   0  -5 1434.10   45.77
   7   0  -5 1331.60   44.01
   7   0  -5 1494.31   44.68
   7   0  -5 1497.17   47.30
  -7   0   5 1561.38   47.28
  -7   0   5 1396.20   46.57
  -7   0   5 1412.12   45.11
   7   0  -5 1498.73   44.06
  -7   0   5 1301.54   47.68
   7   0  -4   63.02    6.77
   7   0  -4   55.10    7.22
  -7   0   4   60.32    6.59
  -7   0   4   53.56    6.61
   7   0  -3  229.62   15.24
   7   0  -3  237.42   16.86
   7   0  -3  296.66   20.87
   7   0  -3  245.13   15.80
  -7   0   3  272.51   15.19
  -7   0   3  264.41   15.38
   7   0  -3  279.47   19.28
  -7   0   3  217.70   13.63
   7   0  -2  436.45   23.44
  -7   0   2  556.90   23.51
   7   0  -2  524.36   26.61
   7   0  -2  437.02   25.73
   7   0  -2  588.09   32.74
  -7   0   2  579.74   24.46
  -7   0   2  564.75   23.95
   7   0  -2  594.81   31.44
  -7   0   2  452.63   20.70
  -7   0   1  241.37   15.02
   7   0  -1  182.92   17.02
   7   0  -1  262.72   23.46
   7   0  -1  197.50   16.68
  -7   0   1  262.29   15.82
  -7   0   1  245.91   15.23
   7   0   0  216.51   18.72
  -7   0   0  258.37   16.58
   7   0   0  272.52   25.71
  -7   0  -1    7.12    3.74
   7   0   1    8.50    7.71
   7   0   1    7.71    9.63
   7   0   1   13.08    5.44
   7   0   1   10.29    8.72
  -7   0  -2  382.48   21.25
  -7   0  -2  369.31   23.01
   7   0   2  315.81   33.23
   7   0   2  433.92   42.17
   7   0   2  472.91   46.43
   7   0   2  447.51   32.07
  -7   0  -2  299.46   18.19
   7   0   2  464.53   38.96
  -7   0  -3  160.55   13.45
  -7   0  -3  147.54   14.31
   7   0   3  216.41   30.90
   7   0   3  175.06   21.98
  -7   0  -3  143.74   11.24
   7   0   3  207.10   26.76
  -7   0  -4   45.20    6.88
  -7   0  -4   44.15    7.83
   7   0   4   60.66   16.66
   7   0   4   58.25   13.75
  -7   0  -4   47.84    6.54
   7   0   4   63.36   14.33
  -7   0  -5    9.63    3.20
  -7   0  -5   12.63    4.29
   7   0   5   18.08   15.19
   7   0   5   24.62    9.89
   7   0   5   18.21    9.35
  -7   0  -5   10.33    3.05
   7   0   5   14.96    6.74
  -7   0  -6  112.21   10.41
   7   0   6  125.19   19.74
  -7   0  -6  104.64    7.60
  -7   0  -7   97.05    7.97
   7   0   7   99.20   14.75
   7   0   7   98.00   15.53
   7   1 -12  103.39    6.60
   7   1 -11   13.71    2.44
  -7   1  11   11.55    4.52
   7   1 -11   12.33    2.82
   7   1 -10  235.63   12.80
   7   1 -10  212.62    9.73
  -7   1  10  188.34   20.33
   7   1 -10  206.59   15.25
  -7   1  10  255.96   15.55
   7   1  -9  250.01   14.39
  -7   1   9  255.01   14.41
  -7   1   9  224.43   23.70
  -7   1   9  283.88   17.08
   7   1  -9  191.76   17.13
   7   1  -8   64.62    7.11
   7   1  -8   64.53    7.58
  -7   1   8   65.66    7.28
  -7   1   8   56.06   12.38
   7   1  -8   58.61    9.83
   7   1  -7   61.91    7.13
   7   1  -7   66.29    6.74
   7   1  -7   73.12    6.82
  -7   1   7   65.44    7.15
   7   1  -6  466.82   20.24
   7   1  -6  511.56   20.78
   7   1  -6  510.83   22.13
  -7   1   6  531.44   22.25
  -7   1   6  431.89   18.82
   7   1  -6  461.31   20.67
   7   1  -6  409.74   19.63
  -7   1   6  529.10   25.92
   7   1  -5  136.27    9.40
   7   1  -5  141.37   10.05
   7   1  -5  154.55   11.10
   7   1  -5  136.24    9.90
   7   1  -5  149.05    9.49
  -7   1   5  143.67   10.94
  -7   1   5  155.67   12.19
   7   1  -4  603.29   24.02
   7   1  -4  525.97   21.56
   7   1  -4  531.90   24.16
   7   1  -4  503.82   22.58
   7   1  -4  525.51   23.46
  -7   1   4  580.05   24.40
   7   1  -4  649.90   22.07
  -7   1   4  556.89   23.85
  -7   1   4  523.87   24.66
   7   1  -3  285.84   17.30
  -7   1   3  311.09   17.52
  -7   1   3  319.83   17.05
  -7   1   3  296.58   17.00
  -7   1   2  607.48   26.46
   7   1  -2  739.72   28.24
  -7   1   2  611.52   27.53
   7   1  -2  544.08   27.70
   7   1  -2  511.64   27.70
   7   1  -2  593.53   30.72
  -7   1   2  693.35   27.78
  -7   1   2  640.28   26.08
   7   1  -2  795.22   35.96
   7   1  -1    6.83    3.48
  -7   1   1   10.05    3.36
  -7   1   1   10.97    4.11
   7   1  -1    6.44    4.55
   7   1  -1    8.15    4.86
   7   1  -1    6.24    4.16
  -7   1   1    9.80    3.19
   7   1  -1    8.81    6.08
   7   1   0   22.80    5.51
  -7   1   0   22.02    4.67
  -7   1   0   22.24    5.72
   7   1   0   22.14    7.26
   7   1   0   15.34    6.98
   7   1   0   26.73   10.25
   7   1   0   17.03    6.22
   7   1   0   23.06    5.18
  -7   1   0   18.00    4.65
  -7   1   0   26.40    4.60
   7   1   0   27.28    9.38
   7   1   1  214.13   16.06
  -7   1  -1  237.46   15.22
  -7   1  -1  234.29   17.77
   7   1   1  159.42   19.84
   7   1   1  245.57   27.34
   7   1   1  212.19   21.08
   7   1   1  249.23   17.58
  -7   1  -1  217.03   15.16
  -7   1  -1  192.48   12.93
   7   1   1  233.56   24.84
  -7   1  -2  136.11   13.02
  -7   1  -2  134.18   11.18
   7   1   2  168.06   24.73
   7   1   2  155.83   19.94
   7   1   2  145.09   14.18
  -7   1  -2  129.83   13.73
  -7   1  -2  116.80   11.06
  -7   1  -2  103.04    8.92
   7   1   2  188.51   22.74
  -7   1  -3  119.60   12.51
  -7   1  -3  122.10   13.54
   7   1   3  110.81   22.99
   7   1   3  163.18   24.05
   7   1   3  146.47   21.46
   7   1   3  120.57   13.72
  -7   1  -3  112.35   10.66
  -7   1  -4  252.19   18.27
  -7   1  -4  253.64   19.64
   7   1   4  333.24   40.93
   7   1   4  442.83   35.05
   7   1   4  323.71   33.78
   7   1   4  213.10   19.64
  -7   1  -4  278.14   16.03
   7   1   4  485.57   30.52
  -7   1  -5  232.31   16.21
  -7   1  -5  264.60   18.23
   7   1   5  375.60   42.72
   7   1   5  366.28   36.48
   7   1   5  227.82   19.57
  -7   1  -5  262.57   13.95
  -7   1  -6  203.67   13.05
  -7   1  -6  208.88   14.49
   7   1   6  213.23   27.08
   7   1   6  166.70   15.28
   7   1   6  244.60   24.67
  -7   1  -7   83.27    7.48
   7   1   7   82.24   14.86
   7   2 -12  103.41    6.15
   7   2 -12  117.08    6.94
   7   2 -11  148.57    9.04
   7   2 -11  157.62    8.55
  -7   2  11  142.32   14.06
   7   2 -11  141.42    9.22
   7   2 -10   10.13    3.44
   7   2 -10   13.05    3.19
   7   2 -10   14.70    3.30
  -7   2  10   15.81    6.26
   7   2  -9  103.00    8.66
  -7   2   9  104.73    9.46
  -7   2   9   93.86   15.80
   7   2  -9   93.38   11.14
   7   2  -8    4.14    3.72
   7   2  -8    5.36    2.58
   7   2  -8    3.50    2.58
  -7   2   8    5.29    2.57
  -7   2   8    6.83    5.73
   7   2  -7  215.79   13.31
   7   2  -7  247.90   13.85
  -7   2   7  257.23   15.85
   7   2  -7  236.26   14.83
   7   2  -6  266.77   14.29
   7   2  -6  272.51   14.74
  -7   2   6  280.97   16.56
  -7   2   6  239.68   13.60
   7   2  -5  515.95   20.49
   7   2  -5  471.64   21.02
  -7   2   5  445.72   20.44
   7   2  -5  513.96   20.99
  -7   2   5  489.27   24.15
   7   2  -4   25.98    3.93
   7   2  -4   23.57    4.58
   7   2  -4   25.07    4.79
   7   2  -4   24.48    4.16
  -7   2   4   35.79    5.70
  -7   2   4   25.66    5.23
  -7   2   4   26.46    5.22
  -7   2   3  236.02   15.68
   7   2  -3  274.05   13.14
   7   2  -3  221.61   14.90
   7   2  -3  237.01   15.47
  -7   2   3  284.96   15.29
   7   2  -3  225.22   13.64
  -7   2   3  315.10   16.32
  -7   2   3  262.44   16.32
   7   2  -2  219.88   13.29
  -7   2   2  164.14   13.07
   7   2  -2  166.01   13.57
  -7   2   2  189.74   11.76
   7   2  -2  162.12   15.49
   7   2  -2  168.21   11.59
  -7   2   2  206.31   12.81
   7   2  -2  149.63   13.07
   7   2  -1  167.08   11.63
  -7   2   1  146.40   12.67
  -7   2   1  144.92   13.50
   7   2  -1  143.59   13.68
  -7   2   1  159.33   10.19
   7   2  -1  133.21   12.98
   7   2  -1  118.66   14.06
  -7   2   1  157.00   11.04
  -7   2   1  169.37   13.12
  -7   2   0   92.07   10.22
  -7   2   0   88.55   11.16
   7   2   0   82.67   12.50
   7   2   0   92.76   12.36
  -7   2   0  106.72    7.59
   7   2   0   73.93   12.26
   7   2   0   89.98   10.79
  -7   2   0   89.36    9.64
  -7   2   0   84.33    7.75
  -7   2  -1  189.69   14.83
  -7   2  -1  183.04   16.28
   7   2   1  189.38   20.49
   7   2   1  141.75   18.53
   7   2   1  166.44   15.66
  -7   2  -1  153.92   12.74
   7   2   1  159.12   18.22
  -7   2  -2  503.73   27.94
  -7   2  -2  496.77   25.71
  -7   2  -2  480.80   28.52
   7   2   2  550.58   40.57
   7   2   2  439.18   33.83
   7   2   2  441.27   36.14
   7   2   2  491.40   29.48
  -7   2  -2  443.85   22.83
  -7   2  -3   52.86    8.69
  -7   2  -3   47.82    7.16
  -7   2  -3   52.74    9.07
   7   2   3   59.31   16.28
   7   2   3   49.22   12.91
   7   2   3   51.62    9.99
   7   2   3   57.39   15.56
  -7   2  -3   54.55    6.81
  -7   2  -4  177.71   15.19
  -7   2  -4  177.22   12.98
  -7   2  -4  164.05   15.40
   7   2   4  274.71   32.76
   7   2   4  257.61   26.93
   7   2   4  202.75   28.36
   7   2   4  149.07   17.11
  -7   2  -4  202.47   12.30
  -7   2  -5    4.28    2.77
  -7   2  -5    4.01    3.36
   7   2   5    4.29    8.26
   7   2   5    3.75    3.89
  -7   2  -6   94.82    8.64
   7   2   6  104.62   12.32
   7   2   7  176.41   11.81
   7   2   7  168.33   18.68
   7   2   7  126.43   11.09
   7   3 -11  413.88   15.55
   7   3 -11  452.50   15.57
  -7   3  11  422.41   23.09
   7   3 -11  442.59   16.60
   7   3 -11  386.65   15.82
   7   3 -10   24.59    3.71
  -7   3  10   25.18    3.88
   7   3 -10   26.52    3.88
   7   3 -10   33.29    4.70
  -7   3  10   27.43    7.39
   7   3 -10   23.19    4.37
   7   3  -9  138.85    9.63
  -7   3   9  129.23   10.84
   7   3  -9  136.77    9.98
  -7   3   9  108.33   16.68
   7   3  -9  132.27   12.38
   7   3  -8   79.36    7.47
  -7   3   8   64.43    8.17
   7   3  -7  191.81   12.07
   7   3  -7  152.69   12.24
  -7   3   7  196.43   14.75
  -7   3   7  174.38   23.39
  -7   3   7  219.25   15.47
   7   3  -7  159.61   16.50
   7   3  -6  234.72   13.54
   7   3  -6  253.25   14.52
   7   3  -6  245.84   15.16
  -7   3   6  275.05   17.89
  -7   3   6  256.84   14.44
  -7   3   6  201.49   25.20
  -7   3   6  282.47   17.28
   7   3  -6  213.24   19.91
   7   3  -5   61.49    6.26
   7   3  -5   60.69    6.87
   7   3  -5   65.61    7.34
  -7   3   5   62.47    6.92
  -7   3   5   49.43   12.13
  -7   3   5   56.40    7.74
   7   3  -4  388.20   19.62
   7   3  -4  465.96   21.16
  -7   3   4  482.42   23.10
  -7   3   4  408.50   20.21
  -7   3   4  329.09   29.91
  -7   3   3  206.83   15.13
   7   3  -3  253.36   15.10
  -7   3   3  213.62   14.72
   7   3  -3  257.92   13.12
  -7   3   3  172.57   19.64
   7   3  -2   33.90    5.66
  -7   3   2   33.00    6.52
   7   3  -2   29.51    5.67
  -7   3   2   35.55    5.40
  -7   3   2   38.90    6.77
  -7   3   1  911.78   37.68
  -7   3   1  893.31   39.81
   7   3  -1  875.82   37.74
   7   3  -1 1005.38   37.80
  -7   3   1  964.04   32.88
   7   3  -1  785.39   38.51
   7   3  -1  822.08   42.43
  -7   3   1  928.63   37.24
  -7   3   0  922.56   39.11
  -7   3   0  966.92   41.72
   7   3   0  957.54   42.14
   7   3   0 1088.06   40.79
  -7   3   0 1019.54   31.77
   7   3   0  831.36   45.20
   7   3   0  844.49   40.37
  -7   3   0  744.49   30.37
  -7   3   0  906.60   36.54
  -7   3  -1  279.39   19.62
  -7   3  -1  237.04   19.61
   7   3   1  325.21   24.67
   7   3   1  313.22   21.35
   7   3   1  241.31   24.93
   7   3   1  268.59   21.46
  -7   3  -1  218.94   13.59
  -7   3  -1  261.98   16.70
  -7   3  -2  392.41   23.03
   7   3   2  446.91   31.82
   7   3   2  310.80   22.26
   7   3   2  383.74   26.87
  -7   3  -2  289.03   16.17
  -7   3  -2  381.03   19.51
  -7   3  -3  126.17   12.07
   7   3   3  148.86   19.38
   7   3   3  139.77   16.53
  -7   3  -3  144.94   10.46
  -7   3  -4  178.67   13.51
   7   3   4  164.82   25.11
   7   3   4  182.45   19.08
  -7   3  -5  107.46    8.65
  -7   3  -5  108.83   11.01
   7   3   5  135.24   21.80
   7   3   5  134.15   15.46
   7   3   6  271.07   25.53
   7   3   6  215.95   17.65
  -7   3  -6  248.38   14.12
  -7   3  -7    8.15    1.95
   7   3   7    8.30    4.02
   7   4 -10   72.66    4.92
  -7   4  10   73.96    5.87
  -7   4  10   82.75   10.55
   7   4 -10   71.66    6.14
   7   4  -9   47.20    4.69
  -7   4   9   45.48    6.07
   7   4  -9   53.06    5.50
  -7   4   9   45.13    9.99
   7   4  -8   37.41    4.52
  -7   4   8   30.63    5.83
   7   4  -8   33.97    5.02
  -7   4   8   31.98    9.49
   7   4  -8   32.86    6.37
  -7   4   7  530.90   27.69
  -7   4   7  574.06   25.34
   7   4  -7  546.44   29.50
   7   4  -6   31.80    5.45
   7   4  -6   41.10    4.53
  -7   4   6   33.60   10.57
  -7   4   6   45.02    6.50
   7   4  -6   42.42    8.26
   7   4  -5  395.71   19.56
   7   4  -5  341.56   15.83
  -7   4   5  381.86   22.93
  -7   4   5  400.73   19.20
  -7   4   5  388.62   20.41
   7   4  -5  339.73   24.60
   7   4  -4    8.90    4.58
  -7   4   4    9.10    3.77
   7   4  -4    6.55    2.74
   7   4  -4    8.52    2.81
  -7   4   4    4.77    4.34
  -7   4   3  140.19   12.45
   7   4  -3  156.88   11.73
   7   4  -3  175.77   11.91
  -7   4   3  127.76   11.82
  -7   4   3  156.94   11.93
   7   4  -3  144.95   10.56
  -7   4   3  108.95   14.65
   7   4  -3   87.28   11.95
   7   4  -2   76.04    8.55
   7   4  -2   93.31    8.57
  -7   4   2   72.98    8.26
  -7   4   2   76.56    8.40
   7   4  -2   64.02    7.23
   7   4  -1   58.67    8.00
   7   4  -1   63.17    7.18
  -7   4   1   53.06    6.44
  -7   4   1   50.31    6.88
   7   4  -1   41.16    6.18
  -7   4   0  624.20   30.28
   7   4   0  642.70   29.89
  -7   4   0  504.07   23.20
   7   4   0  522.87   31.18
  -7   4   0  504.91   21.18
  -7   4  -1  154.50   14.31
  -7   4  -1  160.80   15.66
   7   4   1  157.50   14.72
  -7   4  -1  134.34   10.12
   7   4   1  150.06   16.24
  -7   4  -1  137.40    9.93
  -7   4  -2  137.36   13.12
  -7   4  -2  132.98   14.01
   7   4   2  122.37   13.60
  -7   4  -2  151.78    9.59
   7   4   2  156.74   20.82
   7   4   2  155.35   17.02
  -7   4  -2  110.54    8.83
  -7   4  -3  203.72   14.89
  -7   4  -3  181.34   15.48
   7   4   3  162.17   22.29
   7   4   3  199.53   19.97
  -7   4  -3  184.43   11.04
  -7   4  -4  162.96   11.99
   7   4   4  245.39   15.83
  -7   4  -4  171.38   13.79
   7   4   4  215.61   24.19
   7   4   4  157.69   17.42
  -7   4  -5   29.42    4.14
  -7   4  -5   32.89    5.12
   7   4   5   32.79    7.31
   7   4   5   43.34   10.38
  -7   4  -6  121.79    7.72
   7   4   6  125.92   12.51
   7   4   6  105.02   10.48
  -7   5  10    4.03    2.04
   7   5 -10    3.28    1.08
  -7   5   9    3.08    1.76
   7   5  -9    2.22    1.22
  -7   5   9    2.52    2.69
   7   5  -9    2.17    1.41
  -7   5   8  534.45   24.68
   7   5  -8  550.41   20.18
  -7   5   8  533.84   32.48
   7   5  -8  539.07   22.55
  -7   5   7  268.74   18.19
   7   5  -7  316.46   15.13
  -7   5   7  286.21   24.99
   7   5  -7  324.78   18.25
   7   5  -6    6.82    3.33
  -7   5   6    7.97    2.75
   7   5  -6    7.78    2.08
  -7   5   6    6.46    3.64
  -7   5   6    7.45    5.00
   7   5  -5   78.28    7.49
   7   5  -5   75.42    6.49
  -7   5   5   70.90    9.61
  -7   5   5   52.58   10.34
   7   5  -5   75.65    9.31
  -7   5   5   77.25    8.04
   7   5  -4  151.04   10.74
   7   5  -4  114.60    9.74
   7   5  -4  126.94    9.00
  -7   5   4  110.14   11.76
  -7   5   4   99.49   13.02
   7   5  -4  110.74   11.23
  -7   5   4  141.93   11.54
  -7   5   3   13.96    4.54
   7   5  -3   16.23    3.74
   7   5  -3   10.53    2.96
  -7   5   3   12.14    3.92
  -7   5   3   13.20    3.76
  -7   5   2  156.99   13.44
   7   5  -2  191.20   12.83
  -7   5   2  163.04   12.53
  -7   5   2  174.45   12.26
   7   5  -2  155.33   11.65
  -7   5   1   82.06    9.83
   7   5  -1   89.86    8.75
  -7   5   1   73.31    7.51
   7   5  -1   67.06    7.87
  -7   5   0  154.27   13.91
  -7   5   0  173.19   11.09
   7   5   0  153.82   12.93
   7   5   1  192.11   13.46
  -7   5  -1  190.72   10.74
   7   5   1  227.98   16.27
   7   5   2   47.31    5.89
  -7   5  -2   31.74    4.05
   7   5   2   39.34    6.99
  -7   5  -3  174.32   12.20
   7   5   3  143.07   15.65
  -7   5  -4   23.84    3.88
   7   5   4   33.21    7.18
   7   5   4   24.04    5.20
  -7   5  -5   48.37    4.17
   7   5   5   59.73    6.45
  -7   6   8  173.27   10.23
  -7   6   7   70.66    8.37
   7   6  -7   76.43    5.55
   7   6  -6   52.21    4.42
  -7   6   6   61.76    7.92
   7   6  -5   80.55    6.25
  -7   6   5   73.09    8.64
  -7   6   5   96.69    7.57
   7   6  -4  128.29    8.52
  -7   6   4  101.92   10.01
  -7   6   4  126.58    9.29
   7   6  -3   66.72    6.43
  -7   6   3   51.82    6.62
  -7   6   3   54.56    6.52
   7   6  -2   25.37    3.90
  -7   6   2   17.13    4.24
   7   6  -2   25.14    4.25
  -7   6   1   22.37    4.75
   7   6  -1   23.60    3.71
   7   6  -1   24.28    4.47
  -7   6   0  176.17   12.61
   7   6   0  180.44   12.54
  -7   6  -1   54.67    6.64
   7   6   1   63.36    7.35
  -7   6  -2  167.94   11.00
   7   6   2  179.48   12.51
   7   6   3   70.54    7.11
  -7   7   5   21.52    3.08
   7   7  -4  132.64    7.43
   7   7  -3   33.15    3.86
  -7   7   3   29.29    3.17
  -7   7   2  102.50    6.57
   7   7  -1   15.94    2.91
  -7   7   1    9.74    2.06
   7   7   0   26.77    3.55
  -7   7   0   23.68    3.03
   8  -6  -7   52.12    3.59
  -8  -6   7   52.21    5.02
  -8  -6   6   53.44    5.36
  -8  -6   6   36.25    3.59
  -8  -6   6   43.93    4.19
  -8  -6   6   40.44    4.30
   8  -6  -6   37.74    3.45
  -8  -6   6   39.97    3.60
  -8  -6   5   10.94    2.08
  -8  -6   5   13.97    2.60
   8  -6  -5    9.70    2.31
  -8  -6   5    9.68    2.02
  -8  -6   4    6.98    1.80
  -8  -6   4    3.91    1.67
  -8  -6   4    3.30    1.39
  -8  -6   3   29.97    3.29
  -8  -6   2    2.06    1.16
   8  -6  -2    1.20    1.78
  -8  -6   2    2.96    1.44
  -8  -6   1  200.01   10.87
  -8  -6   1  225.29    9.78
  -8  -6   0   70.18    5.52
   8  -6   0   44.91    6.28
  -8  -6  -1    0.89    0.96
   8  -6   1   -0.13    2.17
  -8  -5   9    8.25    2.14
   8  -5  -9    9.72    1.50
   8  -5  -9   10.12    1.65
   8  -5  -9    8.71    1.38
  -8  -5   8   34.53    3.99
   8  -5  -8   34.54    3.47
   8  -5  -8   34.85    2.97
   8  -5  -8   23.24    3.20
  -8  -5   8   28.92    4.37
  -8  -5   7  212.40   12.74
  -8  -5   7  219.22   11.53
  -8  -5   7  192.05   12.17
  -8  -5   6   49.47    4.90
  -8  -5   6   55.61    5.91
   8  -5  -6   52.13    5.83
  -8  -5   6   42.15    4.60
  -8  -5   5   82.62    6.48
  -8  -5   5   87.18    6.45
   8  -5  -4  149.87   11.14
  -8  -5   4  158.89    9.13
   8  -5  -4  135.22    9.74
  -8  -5   4  163.78   10.23
  -8  -5   4  155.71    8.65
  -8  -5   3   23.39    3.45
   8  -5  -3   22.24    5.45
  -8  -5   3   27.32    4.64
  -8  -5   3   27.56    4.22
  -8  -5   3   26.23    3.23
  -8  -5   2  302.45   16.49
  -8  -5   2  332.66   15.03
  -8  -5   2  275.07   14.86
   8  -5  -2  295.30   21.09
   8  -5  -1   42.24    8.97
  -8  -5   1   39.96    6.07
  -8  -5   1   41.28    4.56
  -8  -5   1   33.32    5.13
   8  -5  -1   34.71    8.47
   8  -5   0  197.16   19.56
  -8  -5   0  265.23   11.29
   8  -5   1    6.74    5.31
  -8  -5  -1   13.48    3.41
   8  -5   2   13.58    6.23
  -8  -5  -2   18.73    3.42
   8  -5   3  120.96   13.59
  -8  -5  -3  155.82    8.40
  -8  -5  -3  138.29    8.14
   8  -5   3  128.50   13.54
   8  -4 -10   59.52    3.60
   8  -4 -10   68.65    4.32
   8  -4 -10   71.38    4.68
  -8  -4  10   66.80    5.89
   8  -4  -9   32.26    3.16
  -8  -4   9   31.49    4.00
   8  -4  -9   33.92    3.54
   8  -4  -9   37.45    3.92
   8  -4  -9   22.55    3.67
  -8  -4   9   29.17    4.56
  -8  -4   8   61.98    7.08
  -8  -4   8   64.27    6.29
   8  -4  -8   68.30    6.67
  -8  -4   7  144.77   11.19
  -8  -4   7  108.20    8.32
   8  -4  -7  153.39    9.20
  -8  -4   7  133.10    9.72
   8  -4  -7  162.11   11.01
  -8  -4   7  127.97    8.97
  -8  -4   6  410.18   17.50
   8  -4  -6  434.18   18.86
  -8  -4   6  386.42   17.20
   8  -4  -5  128.94   10.69
  -8  -4   5  137.62    8.94
   8  -4  -5  126.36   10.52
  -8  -4   5  135.64    9.97
  -8  -4   5  139.56    8.92
   8  -4  -4   79.69    9.76
  -8  -4   4   86.79    6.94
  -8  -4   4   89.44    8.46
   8  -4  -4   93.24    8.17
  -8  -4   4   81.76    7.85
  -8  -4   4   99.34    8.47
  -8  -4   4   93.31    6.88
  -8  -4   3  131.47   10.65
   8  -4  -3  138.51   11.51
  -8  -4   3  148.17   10.32
  -8  -4   3  115.40   10.02
   8  -4  -3  122.73   14.01
   8  -4  -2   30.31    8.71
  -8  -4   2   28.69    4.38
  -8  -4   2   22.86    4.81
   8  -4  -2   29.98    8.73
   8  -4  -1  405.33   31.65
  -8  -4   1  440.84   21.20
  -8  -4   1  435.73   18.10
   8  -4   0  138.62   15.38
   8  -4   0  128.46   18.64
  -8  -4   0  181.45   14.13
  -8  -4   0  170.79    9.15
  -8  -4  -1  653.86   29.11
  -8  -4  -1  709.98   28.80
   8  -4   2    6.41    6.05
  -8  -4  -2    8.72    3.40
  -8  -4  -2    8.50    2.95
   8  -4   3   31.03   10.52
   8  -4   3   24.36    8.24
  -8  -4  -3   30.88    4.21
   8  -4   4  197.00   20.75
  -8  -4  -4  207.98    9.69
   8  -4   4  213.59   19.77
   8  -4   5   61.52   10.17
  -8  -3  11   72.49    5.74
  -8  -3  10    9.06    2.69
   8  -3 -10    5.71    1.32
   8  -3 -10    6.66    1.66
   8  -3  -9   68.32    5.92
  -8  -3   9   71.90    6.62
   8  -3  -9   65.13    5.19
   8  -3  -9   48.39    5.90
  -8  -3   9   63.73    7.28
   8  -3  -8   44.36    5.33
  -8  -3   8   43.36    5.60
   8  -3  -8   45.50    5.88
  -8  -3   8   39.10    5.97
  -8  -3   7  185.82   13.35
  -8  -3   7  166.26   11.08
   8  -3  -7  246.57   13.60
  -8  -3   7  214.90   12.87
  -8  -3   7  224.48   14.31
   8  -3  -7  238.07   13.74
   8  -3  -6  205.25   13.12
  -8  -3   6  187.15   11.22
   8  -3  -6  201.22   13.22
   8  -3  -6  212.42   12.74
  -8  -3   6  207.88   12.97
  -8  -3   6  176.88   11.23
   8  -3  -5  232.08   15.73
  -8  -3   5  291.39   13.70
  -8  -3   5  281.52   15.05
   8  -3  -5  265.38   15.83
  -8  -3   5  219.21   14.21
  -8  -3   5  271.00   13.19
  -8  -3   4   92.80    7.12
   8  -3  -4   70.87    9.32
  -8  -3   4   94.11    8.50
   8  -3  -4  101.33   10.27
  -8  -3   4   75.00    8.15
  -8  -3   4   97.92    6.85
  -8  -3   3  659.89   23.11
   8  -3  -3  639.20   36.14
  -8  -3   3  654.60   26.95
  -8  -3   3  585.72   27.63
   8  -3  -3  609.65   34.96
   8  -3  -2  213.91   18.57
   8  -3  -2  204.92   21.56
  -8  -3   2  218.05   15.49
  -8  -3   2  194.54   13.40
  -8  -3   2  205.86   11.69
  -8  -3   2  170.74   13.93
   8  -3  -2  179.26   19.61
   8  -3  -1   35.76    9.20
   8  -3  -1   42.35   11.43
  -8  -3   1   56.72    8.01
  -8  -3   1   55.85    5.42
   8  -3   0   19.87   10.20
  -8  -3   0   15.21    4.78
  -8  -3   0   18.06    4.70
  -8  -3   0   16.57    2.64
   8  -3   1  354.96   27.29
   8  -3   1  396.59   33.52
  -8  -3  -1  454.40   22.75
   8  -3   2   76.78   13.13
   8  -3   2  120.89   19.29
  -8  -3  -2  107.44   11.15
  -8  -3  -2  112.91    9.77
   8  -3   3  164.15   22.78
  -8  -3  -3  139.95   11.59
  -8  -3  -3  143.18    9.83
   8  -3   4   55.23   10.41
   8  -3   4   82.50   16.33
   8  -3   4  105.17   18.34
  -8  -3  -4   81.81    7.60
  -8  -3  -4   68.02    5.36
   8  -3   4   89.85   15.24
   8  -3   5  277.96   24.76
  -8  -3  -5  211.26   11.33
   8  -3   5  283.53   22.20
   8  -2 -11   42.48    3.76
   8  -2 -11   43.75    3.92
  -8  -2  11   42.66    4.90
   8  -2 -10  276.54   13.56
   8  -2 -10  254.05   10.78
   8  -2 -10  317.16   13.45
  -8  -2  10  299.71   15.86
   8  -2  -9   69.59    6.75
   8  -2  -9   62.08    4.37
   8  -2  -9   66.29    5.19
  -8  -2   9   75.14    8.19
   8  -2  -8  209.77   12.29
  -8  -2   8  172.11   12.84
  -8  -2   7   64.60    7.75
   8  -2  -7   92.40    8.43
  -8  -2   7   71.08    8.08
   8  -2  -7   83.63    8.08
  -8  -2   6  152.84   11.85
   8  -2  -6  145.76   11.01
  -8  -2   6  109.99    8.91
   8  -2  -6  148.18   11.36
  -8  -2   6  193.97   12.33
   8  -2  -6  156.96   11.62
  -8  -2   6  140.04   11.08
   8  -2  -5   63.55    7.94
  -8  -2   5   69.29    6.39
   8  -2  -5   79.33    7.86
  -8  -2   5   88.68    7.88
   8  -2  -5   74.89    8.47
  -8  -2   5   56.93    7.15
  -8  -2   5   64.89    6.05
  -8  -2   4   96.11    6.95
   8  -2  -4   67.23    8.89
   8  -2  -4   98.05   10.06
   8  -2  -4   91.38   11.47
  -8  -2   4   94.96    8.13
  -8  -2   4   72.63    8.23
   8  -2  -4   83.67   10.76
  -8  -2   3  461.82   16.71
   8  -2  -3  424.50   25.41
   8  -2  -3  375.16   26.97
  -8  -2   3  439.51   19.56
  -8  -2   3  409.52   19.98
  -8  -2   3  375.66   20.97
   8  -2  -3  376.51   26.44
   8  -2  -2  422.49   28.47
   8  -2  -2  448.54   32.64
  -8  -2   2  449.77   20.43
  -8  -2   2  521.93   24.62
  -8  -2   2  480.99   23.25
  -8  -2   2  473.00   24.28
   8  -2  -2  467.28   32.07
   8  -2  -1  449.66   27.95
   8  -2  -1  457.54   35.64
  -8  -2   1  496.29   23.92
  -8  -2   1  498.60   24.59
   8  -2  -1  405.60   32.94
   8  -2   0  153.00   18.08
   8  -2   0  159.04   22.85
   8  -2   0  181.01   22.10
  -8  -2   0  169.41   13.06
   8  -2   1   61.85   13.01
   8  -2   1   65.73   17.26
   8  -2   1   83.19   17.32
  -8  -2  -1   79.11    9.89
  -8  -2  -1   72.32    8.21
   8  -2   2    4.00    7.32
   8  -2   2    8.91   10.48
  -8  -2  -2    2.98    2.57
  -8  -2  -2    4.45    2.20
   8  -2   3   42.54   12.40
   8  -2   3   77.54   19.35
   8  -2   3   84.02   19.91
  -8  -2  -3   57.64    7.43
  -8  -2  -3   56.86    5.68
   8  -2   3   70.11   16.47
   8  -2   4   18.95    9.13
   8  -2   4   28.03   12.91
   8  -2   4   31.88   15.03
  -8  -2  -4   22.00    4.14
   8  -2   4   25.30   10.91
   8  -2   5  101.07   16.05
   8  -2   5  137.62   19.14
  -8  -2  -5  103.69    7.89
   8  -2   5  140.49   16.33
   8  -2   6   54.56   10.09
   8  -2   6   43.66    9.91
  -8  -2  -6   39.57    3.69
   8  -1 -11  313.12   13.55
   8  -1 -11  303.98   12.01
  -8  -1  11  316.46   15.00
   8  -1 -10  153.79   10.19
   8  -1 -10  170.09    9.17
  -8  -1  10  137.71   15.11
  -8  -1  10  172.35   11.89
   8  -1  -9  156.41   10.58
   8  -1  -9  143.92    7.49
  -8  -1   9  172.78   18.47
  -8  -1   9  167.15   12.34
   8  -1  -9  133.69   12.79
   8  -1  -8  141.47   10.21
  -8  -1   8  139.38    9.11
   8  -1  -8  117.35    6.95
   8  -1  -8  116.72    9.73
  -8  -1   8  138.41   11.43
   8  -1  -7  120.30    9.53
   8  -1  -7  123.85    9.42
   8  -1  -7  105.03    8.82
  -8  -1   7   95.72    9.31
   8  -1  -6  288.71   16.18
   8  -1  -6  333.46   16.94
  -8  -1   6  286.13   17.03
   8  -1  -6  306.91   17.02
  -8  -1   6  313.23   17.28
   8  -1  -6  304.21   15.64
   8  -1  -5   87.61    8.80
  -8  -1   5   62.94    6.26
   8  -1  -5   98.61    9.32
  -8  -1   5  117.36    9.08
   8  -1  -5   87.97    8.95
  -8  -1   5   74.35    8.22
  -8  -1   4  147.92    9.22
   8  -1  -4  163.56   13.11
   8  -1  -4  203.94   15.00
  -8  -1   4  273.59   13.29
  -8  -1   4  183.75   12.33
  -8  -1   4  186.79   13.38
   8  -1  -4  241.16   17.79
   8  -1  -3   16.88    4.32
   8  -1  -3   14.04    5.32
   8  -1  -3   14.55    6.42
  -8  -1   3   24.07    3.74
  -8  -1   3   18.45    4.33
  -8  -1   3   15.14    4.39
   8  -1  -3   17.28    6.39
   8  -1  -2  855.53   37.66
   8  -1  -2  841.85   44.73
  -8  -1   2  875.12   28.81
  -8  -1   2  874.63   34.21
   8  -1  -2  800.06   43.05
   8  -1  -1   23.24    6.84
   8  -1  -1   19.07    8.03
   8  -1  -1   24.04    9.85
  -8  -1   1   21.41    5.30
  -8  -1   1   25.41    5.65
   8  -1  -1   24.55    9.63
   8  -1   0   43.94   10.34
   8  -1   0   59.93   15.55
  -8  -1   0   62.68    7.18
  -8  -1   0   55.29    8.27
   8  -1   1   37.43   11.28
  -8  -1  -1   43.98    5.66
  -8  -1  -1   40.25    7.18
   8  -1   1   49.69   15.07
   8  -1   2   27.83   12.11
   8  -1   2   36.53   15.38
   8  -1   2   18.10    6.82
   8  -1   2   29.31   13.10
  -8  -1  -3   75.33    8.89
   8  -1   3   62.77   16.59
   8  -1   3  112.24   22.83
   8  -1   3   58.13   11.29
  -8  -1  -3   74.58    8.65
   8  -1   3  112.92   20.40
  -8  -1  -4   63.99    7.63
   8  -1   4   64.94   16.79
   8  -1   4   79.46   18.13
   8  -1   4   48.44   10.47
  -8  -1  -4   60.69    7.06
   8  -1   4   92.04   16.24
  -8  -1  -5  269.51   14.61
   8  -1   5  329.25   32.11
   8  -1   5  418.13   31.35
   8  -1   5  207.63   20.11
  -8  -1  -5  271.39   13.86
  -8  -1  -5  271.80   12.16
   8  -1   5  411.04   25.89
   8  -1   6   40.99   10.52
   8  -1   6   18.15    5.39
  -8  -1  -6   37.20    3.58
   8   0 -12   96.86    5.66
   8   0 -11    3.16    1.56
   8   0 -11    2.05    1.08
  -8   0  11    1.33    1.92
   8   0 -10  113.34    8.62
   8   0 -10  121.45    7.03
  -8   0  10   97.79   13.50
   8   0 -10  108.56   10.07
   8   0  -9   21.19    5.50
  -8   0   9   22.93    3.72
  -8   0   9   20.24    7.07
   8   0  -8  507.75   22.22
  -8   0   8  520.43   21.04
   8   0  -7   64.23    6.89
   8   0  -7   68.94    7.32
  -8   0   7   67.55    7.03
   8   0  -7   48.90    6.19
   8   0  -6  301.80   15.63
   8   0  -6  335.80   17.10
   8   0  -6  294.75   14.92
   8   0  -5   83.55    7.94
   8   0  -5   99.62    8.26
   8   0  -5  107.87    9.80
  -8   0   5   65.02    7.65
  -8   0   5   91.96    9.13
  -8   0   5   91.64    8.52
   8   0  -5  105.55    8.31
  -8   0   5   81.84    8.82
   8   0  -4  355.17   19.09
   8   0  -4  358.48   18.50
   8   0  -4  341.92   19.59
  -8   0   4  401.92   17.95
   8   0  -4  297.44   17.61
  -8   0   4  339.16   18.24
  -8   0   4  307.52   17.40
   8   0  -3  118.32   11.25
   8   0  -3  118.99   11.06
   8   0  -3  110.55   11.90
  -8   0   3  116.87   10.54
  -8   0   3  124.33   10.91
   8   0  -3  144.09   15.06
  -8   0   3  104.67    9.05
   8   0  -2  181.13   14.91
   8   0  -2  192.77   15.79
   8   0  -2  172.79   16.27
   8   0  -2  206.60   20.89
  -8   0   2  197.23   14.54
  -8   0   2  211.78   14.61
   8   0  -2  227.19   20.65
  -8   0   2  159.07   10.93
   8   0  -1  308.44   21.21
  -8   0   1  349.15   19.71
   8   0  -1  295.13   22.99
   8   0  -1  397.58   32.05
  -8   0   1  358.59   20.93
  -8   0   1  349.58   19.79
  -8   0   0  197.45   15.27
   8   0   0  172.58   19.37
   8   0   0  164.81   17.47
  -8   0   0  190.36   14.16
   8   0   0  214.30   24.93
  -8   0  -1    1.21    2.58
   8   0   1    1.28    6.90
   8   0   1   -1.14    8.78
   8   0   1    1.32    4.08
  -8   0  -1    0.17    2.45
  -8   0  -1    1.06    2.15
   8   0   1    2.41    8.43
   8   0   2  217.94   18.18
  -8   0  -2  211.45   16.95
   8   0   2  177.93   25.42
   8   0   2  292.30   34.19
   8   0   2  193.04   21.86
  -8   0  -2  188.82   14.51
  -8   0  -2  178.38   12.86
   8   0   2  308.72   32.01
  -8   0  -3  601.75   30.56
   8   0   3  573.85   48.43
   8   0   3 1021.86   61.75
   8   0   3  484.02   38.09
  -8   0  -3  631.34   27.49
  -8   0  -3  601.03   24.74
   8   0   3  960.52   53.27
  -8   0  -4  273.81   18.11
   8   0   4  398.20   35.08
   8   0   4  269.87   26.99
  -8   0  -4  254.98   15.19
   8   0   4  463.49   31.15
  -8   0  -5   36.01    5.61
   8   0   5   53.45   15.65
   8   0   5   36.87   12.19
   8   0   5   36.10   10.24
  -8   0  -5   31.61    4.25
  -8   0  -6  587.54   22.48
   8   0   6  459.16   31.38
   8   1 -11  262.05   10.31
  -8   1  11  233.75   17.48
   8   1 -11  238.95   11.80
   8   1 -10  141.37    9.60
   8   1 -10  162.68    9.68
  -8   1  10  124.92   15.45
   8   1 -10  135.13   11.41
   8   1  -9  131.71    9.66
  -8   1   9  140.38    9.94
  -8   1   9  105.52   16.27
   8   1  -9  114.90   12.37
   8   1  -8  125.06    9.61
   8   1  -8  121.92   10.28
  -8   1   8  131.91   10.31
  -8   1   8  124.36   18.19
   8   1  -8  118.50   13.81
   8   1  -7  103.84    8.65
   8   1  -7  120.64    8.86
   8   1  -7  118.04    9.89
  -8   1   7  104.11    9.41
   8   1  -6  297.26   14.91
   8   1  -6  300.73   15.25
   8   1  -6  285.73   16.03
  -8   1   6  301.98   16.56
  -8   1   6  244.66   13.44
   8   1  -6  274.95   15.07
  -8   1   6  285.75   18.21
   8   1  -5   72.69    7.07
   8   1  -5   71.09    7.28
   8   1  -5   72.42    7.97
   8   1  -5   69.65    7.26
  -8   1   5   85.02    8.91
   8   1  -5   68.49    6.71
  -8   1   5   79.31    8.24
  -8   1   5   72.60    8.58
   8   1  -4  217.59   14.02
   8   1  -4  194.15   12.02
   8   1  -4  169.28   12.45
   8   1  -4  187.49   13.71
   8   1  -4  195.83   12.85
  -8   1   4  218.78   14.47
  -8   1   4  204.48   14.11
  -8   1   4  192.15   13.85
   8   1  -3   17.01    4.47
  -8   1   3   14.93    4.03
   8   1  -3   11.11    3.79
   8   1  -3   14.65    3.95
  -8   1   3   13.43    4.22
  -8   1   3   12.02    3.88
   8   1  -2  778.08   36.07
   8   1  -2  793.63   37.24
   8   1  -2  893.99   41.06
  -8   1   2  922.27   36.42
  -8   1   2  904.96   35.00
  -8   1   2  839.09   33.92
   8   1  -1   27.62    5.83
  -8   1   1   18.52    4.39
  -8   1   1   22.05    5.57
   8   1  -1   17.97    6.11
   8   1  -1   19.10    6.90
   8   1  -1   18.89    6.50
  -8   1   1   18.77    4.29
   8   1  -1   25.89    8.96
  -8   1   0   71.12    7.98
   8   1   0   83.48    9.70
   8   1   0   70.90   12.34
   8   1   0   57.56   11.58
   8   1   0   99.09   17.47
   8   1   0   58.96   11.00
  -8   1   0   70.68    9.80
  -8   1   0   67.75    8.78
  -8   1   0   64.86    7.54
   8   1   0   92.26   15.79
  -8   1  -1   46.46    6.16
  -8   1  -1   43.94    8.08
   8   1   1   41.60   12.12
   8   1   1   49.96   12.38
   8   1   1   38.81   13.34
   8   1   1   33.93    9.58
  -8   1  -1   40.75    6.99
  -8   1  -1   36.27    5.38
   8   1   1   64.02   14.13
  -8   1  -2   27.28    6.80
   8   1   2   27.53   11.90
   8   1   2   42.67   13.63
   8   1   2   17.70    8.36
  -8   1  -2   21.89    4.98
  -8   1  -2   20.83    3.82
   8   1   2   45.82   11.96
  -8   1  -3   81.20   10.52
   8   1   3  100.24   21.17
   8   1   3   79.53   17.37
   8   1   3   69.93   15.17
  -8   1  -3   74.31    8.03
  -8   1  -4   62.11    8.57
   8   1   4  103.43   20.78
   8   1   4   84.78   17.45
   8   1   4   59.38   14.89
  -8   1  -4   68.43    6.87
  -8   1  -5  274.27   16.59
   8   1   5  532.83   40.18
   8   1   5  441.68   30.36
   8   1   5  272.17   27.95
  -8   1  -5  288.48   13.08
  -8   1  -6   41.47    4.98
   8   1   6   40.55    9.73
   8   2 -11   34.56    3.73
   8   2 -11   37.35    3.43
  -8   2  11   31.80    5.98
   8   2 -11   29.07    3.63
   8   2 -10  247.61   12.44
   8   2 -10  248.27   12.42
  -8   2  10  229.24   20.91
   8   2 -10  244.81   15.06
   8   2  -9   63.89    6.42
  -8   2   9   54.20    6.47
  -8   2   9   65.19   12.64
   8   2  -9   54.88    8.38
   8   2  -8  173.49   11.49
   8   2  -8  185.59   12.85
  -8   2   8  199.47   13.38
   8   2  -8  155.34   15.51
   8   2  -7   71.98    7.87
   8   2  -7   68.47    7.00
   8   2  -7   73.61    7.09
  -8   2   7   79.06    8.71
  -8   2   7   78.12    6.77
  -8   2   7   65.72   14.01
   8   2  -6  144.11   10.14
   8   2  -6  147.43   10.41
  -8   2   6  154.91   12.25
  -8   2   6  127.29    9.62
  -8   2   6  155.29   21.83
  -8   2   6  158.87   13.09
   8   2  -5   71.53    6.82
   8   2  -5   60.94    6.81
  -8   2   5   60.44    6.84
   8   2  -5   65.32    6.82
  -8   2   5   69.76    8.38
   8   2  -4  101.23    8.00
   8   2  -4   76.29    8.20
   8   2  -4   87.83    9.04
  -8   2   4   97.90    9.30
   8   2  -4   88.61    8.00
  -8   2   4   95.57   10.01
  -8   2   4   90.06    9.59
   8   2  -3  431.24   18.12
   8   2  -3  317.41   19.48
   8   2  -3  372.23   20.78
  -8   2   3  377.49   19.15
   8   2  -3  382.50   18.81
  -8   2   3  489.61   22.08
  -8   2   3  425.16   22.50
  -8   2   3  367.48   20.91
  -8   2   2  480.81   24.37
   8   2  -2  425.47   24.14
   8   2  -2  477.63   25.41
  -8   2   2  462.57   20.78
   8   2  -2  449.37   21.81
  -8   2   1  503.78   25.46
  -8   2   1  484.40   27.12
   8   2  -1  476.97   27.35
  -8   2   1  509.00   20.93
   8   2  -1  446.07   29.87
  -8   2   1  499.50   22.35
  -8   2   1  485.35   25.49
  -8   2   0  168.95   13.95
  -8   2   0  175.81   16.01
   8   2   0  188.70   18.08
  -8   2   0  178.86   10.32
   8   2   0  165.95   15.07
   8   2   0  163.73   18.47
  -8   2   0  151.52   10.64
  -8   2   0  155.51   13.43
  -8   2  -1  102.47   10.56
  -8   2  -1   91.46   11.80
   8   2   1  113.56   16.20
   8   2   1  103.31   14.79
   8   2   1   91.44   11.36
   8   2   1   95.07   15.48
  -8   2  -1   75.44    9.14
  -8   2  -2    2.24    2.33
  -8   2  -2    2.55    3.71
   8   2   2    0.86    6.55
   8   2   2    3.27    6.30
   8   2   2    2.67    5.99
   8   2   2    3.12    3.13
  -8   2  -2    1.58    2.06
  -8   2  -3   50.39    6.17
  -8   2  -3   55.65    8.76
   8   2   3   67.32   15.49
   8   2   3   75.20   13.52
   8   2   3   40.60    7.88
   8   2   3   46.29   13.52
  -8   2  -3   61.94    6.80
  -8   2  -4   23.70    5.55
   8   2   4   38.63   11.92
   8   2   4   30.88    7.86
   8   2   4   21.94   10.46
   8   2   4   16.94    5.03
  -8   2  -4   26.25    3.82
  -8   2  -5  114.92    9.89
   8   2   5  122.74   18.44
   8   2   5   84.46    9.43
  -8   2  -6   36.18    4.41
   8   2   6   41.95    5.95
   8   2   6   39.25    8.78
   8   3 -11   53.97    3.70
  -8   3  11   54.66    6.71
   8   3 -11   46.16    3.85
   8   3 -10    7.04    2.31
   8   3 -10    6.61    1.86
  -8   3  10    4.29    1.75
   8   3 -10    6.86    1.96
  -8   3  10    5.20    3.54
   8   3  -9   58.09    5.57
  -8   3   9   54.23    6.52
   8   3  -9   58.36    5.99
   8   3  -8   37.28    4.76
  -8   3   8   38.18    6.15
  -8   3   8   35.55   10.16
   8   3  -8   40.37    7.41
   8   3  -7  191.73   11.50
   8   3  -7  168.19   12.26
  -8   3   7  182.71   14.21
  -8   3   7  187.74   23.36
  -8   3   7  222.86   14.86
   8   3  -7  141.86   15.22
   8   3  -6  168.45   10.78
   8   3  -6  175.82   11.46
   8   3  -6  180.08   12.45
  -8   3   6  177.13   11.43
  -8   3   6  150.29   21.08
   8   3  -6  135.22   15.64
   8   3  -5  239.51   14.17
   8   3  -5  245.55   14.88
  -8   3   5  265.22   17.52
  -8   3   5  233.05   14.11
  -8   3   5  188.69   23.03
   8   3  -5  236.21   20.79
   8   3  -4   79.42    8.13
   8   3  -4   86.94    8.59
  -8   3   4   87.37    9.49
  -8   3   4   72.06    8.04
  -8   3   4   57.86   11.84
  -8   3   4   84.35    9.50
  -8   3   3  670.81   30.79
   8   3  -3  757.01   29.82
  -8   3   3  618.85   27.74
   8   3  -3  734.70   26.23
  -8   3   3  550.38   36.31
  -8   3   2  186.02   15.01
   8   3  -2  192.23   14.14
  -8   3   2  155.02   11.50
  -8   3   2  187.25   14.85
  -8   3   1   54.93    8.48
   8   3  -1   51.88    8.28
   8   3  -1   70.28    8.83
  -8   3   1   58.76    6.33
   8   3  -1   56.05   10.54
  -8   3   1   50.47    7.73
   8   3   0   38.10    8.07
  -8   3   0   25.84    5.89
  -8   3   0   24.59    6.67
   8   3   0   29.40    6.21
   8   3   0   27.41    8.63
  -8   3   0   23.03    5.25
  -8   3  -1  498.35   25.90
  -8   3  -1  499.29   28.76
   8   3   1  567.87   32.82
   8   3   1  504.66   27.23
   8   3   1  422.90   27.84
   8   3   1  513.36   36.17
  -8   3  -1  476.41   23.54
  -8   3  -2  112.50   10.93
  -8   3  -2  124.14   13.21
   8   3   2  119.48   15.81
   8   3   2  154.31   13.51
   8   3   2  120.28   14.16
   8   3   2  115.62   18.07
  -8   3  -2  132.55   10.34
  -8   3  -3  154.48   11.55
  -8   3  -3  149.86   13.81
   8   3   3  163.00   22.04
   8   3   3  134.17   14.87
  -8   3  -3  197.53   10.99
  -8   3  -4   67.48    6.11
   8   3   4   75.69   10.25
   8   3   5  323.39   16.37
   8   3   5  219.69   15.65
  -8   4   9   27.92    4.40
   8   4  -9   27.65    3.62
  -8   4   9   22.42    6.40
   8   4  -9   30.22    4.63
  -8   4   8   68.30    7.99
   8   4  -8   65.39    6.35
  -8   4   8   72.01   12.39
   8   4  -8   68.36    8.17
  -8   4   7  119.70   11.66
  -8   4   7  101.90   15.72
   8   4  -7  130.77   12.67
   8   4  -6  339.06   16.12
   8   4  -6  272.42   16.33
  -8   4   6  292.05   19.33
  -8   4   6  253.85   25.67
  -8   4   6  388.13   19.27
   8   4  -6  329.87   22.16
   8   4  -5  113.88    9.70
   8   4  -5   99.39    7.16
  -8   4   5  108.10   11.24
  -8   4   5  118.84    9.65
  -8   4   5   82.14   13.74
  -8   4   5  116.51   10.44
   8   4  -5  103.44   12.64
   8   4  -4   76.29    7.78
   8   4  -4   88.70    8.33
  -8   4   4   72.59    8.93
  -8   4   4   53.05   10.35
   8   4  -4   58.14    9.83
   8   4  -3  140.90   11.06
   8   4  -3  172.65   11.88
  -8   4   3  119.86   10.99
  -8   4   3  140.46   11.22
   8   4  -3   93.89   11.86
   8   4  -2   27.75    5.44
  -8   4   2   28.34    6.21
   8   4  -2   35.07    5.39
  -8   4   2   28.13    4.91
  -8   4   2   27.34    5.21
  -8   4   1  480.05   25.53
   8   4  -1  504.58   24.62
   8   4  -1  524.28   22.57
  -8   4   1  425.27   19.37
  -8   4   1  404.68   20.50
  -8   4   0  178.42   14.69
   8   4   0  192.87   15.07
  -8   4   0  151.37   10.99
   8   4   0  150.63   11.71
  -8   4  -1  745.13   31.83
   8   4   1  761.86   34.01
  -8   4  -1  695.37   25.56
  -8   4  -2   11.82    3.82
   8   4   2   15.20    4.79
  -8   4  -2   13.95    2.53
   8   4   2   12.61    5.24
  -8   4  -3   28.23    4.53
  -8   4  -3   31.70    5.67
   8   4   3   46.18    6.61
   8   4   3   32.63    9.84
   8   4   3   27.02    6.62
  -8   4  -4  220.08   10.92
   8   4   4  293.60   23.16
  -8   5   9    6.45    1.83
   8   5  -9    7.16    1.39
  -8   5   9    5.65    2.56
   8   5  -9    6.24    1.47
  -8   5   8   29.16    4.57
   8   5  -8   29.40    3.33
  -8   5   8   26.56    5.90
   8   5  -8   29.90    3.99
   8   5  -7  202.96   10.59
  -8   5   7  173.18   16.31
   8   5  -7  201.03   12.43
  -8   5   6   38.29    6.42
  -8   5   6   27.94    6.63
  -8   5   6   42.51    5.44
   8   5  -6   39.89    5.76
   8   5  -5   54.79    4.92
  -8   5   5   49.58    7.24
   8   5  -5   40.01    5.99
  -8   5   5   61.19    6.84
   8   5  -4  182.20   11.28
   8   5  -4  143.61    9.09
  -8   5   4  122.64   11.36
  -8   5   4  175.69   12.22
   8   5  -3   24.80    4.28
   8   5  -3   24.49    4.12
  -8   5   3   21.58    4.52
  -8   5   3   25.61    4.58
  -8   5   3   26.94    5.26
  -8   5   2  301.60   18.36
  -8   5   2  279.35   15.18
  -8   5   2  316.92   16.20
   8   5  -1   42.76    5.83
  -8   5   1   33.41    4.66
   8   5  -1   43.20    5.45
   8   5   0  281.08   15.62
  -8   5   0  278.53   13.07
   8   5   0  263.41   14.92
  -8   5  -1   10.63    3.61
   8   5   1   14.39    3.38
  -8   5  -1   12.27    2.15
   8   5   1   10.06    3.13
  -8   5  -2   21.03    3.92
   8   5   2   19.35    4.03
  -8   5  -3  174.83    9.62
   8   5   3  176.38   10.87
  -8   6   7   59.39    5.62
  -8   6   6   40.97    5.20
   8   6  -5   10.69    1.95
  -8   6   5    9.52    2.77
  -8   6   5   16.04    2.89
  -8   6   4    5.57    2.03
   8   6  -4    5.70    1.75
  -8   6   4    2.65    1.75
   8   6  -3   36.71    4.23
  -8   6   3   33.91    4.61
  -8   6   2    3.06    1.88
   8   6  -2    3.33    1.74
   8   6  -1  196.50   10.09
   8   6  -1  204.10   11.52
  -8   6   1  207.91   12.03
  -8   6   0   84.90    7.17
  -8   6  -1    0.15    1.29
  -9  -6   5   26.90    3.01
  -9  -6   4  264.22    9.74
   9  -6  -4   70.55    5.16
  -9  -6   3    6.07    1.52
  -9  -6   2   16.65    2.23
  -9  -6   1   60.03    3.89
   9  -5  -8   98.29    4.93
   9  -5  -7   67.78    5.17
  -9  -5   7   52.50    5.17
  -9  -5   6    8.29    2.34
  -9  -5   6    3.71    1.51
   9  -5  -6    6.36    2.09
  -9  -5   5  177.84    9.45
   9  -5  -5  213.69   11.90
  -9  -5   4    4.63    1.58
   9  -5  -4    4.45    2.08
   9  -5  -4    2.19    1.61
  -9  -5   4    4.47    1.98
   9  -5  -3   53.03    6.30
  -9  -5   3   57.26    4.46
  -9  -5   3   60.74    5.78
  -9  -5   2  366.38   12.40
   9  -5  -2  283.47   16.87
  -9  -5   2  364.44   15.47
  -9  -5   2  313.51   14.13
  -9  -5   1   12.53    2.64
  -9  -5   1    9.85    2.40
   9  -5  -1    9.72    3.89
   9  -5   0  126.58   11.48
  -9  -5   0  148.15    7.92
  -9  -5   0  139.96    8.68
   9  -5   0  123.39   11.76
   9  -5   1   64.06    7.96
  -9  -5  -1   80.68    4.67
  -9  -5  -1   79.18    5.87
   9  -5   1   66.92    8.32
   9  -5   2  114.21    9.64
   9  -4  -9   84.76    4.30
   9  -4  -9   93.39    4.98
  -9  -4   9   91.77    6.68
   9  -4  -8  172.22    8.15
   9  -4  -8  171.95   10.00
  -9  -4   8  158.88   10.25
  -9  -4   7   42.03    5.41
   9  -4  -7   54.64    4.90
  -9  -4   7   43.01    5.74
   9  -4  -7   58.90    5.99
  -9  -4   6  290.81   15.17
   9  -4  -6  254.14   12.76
  -9  -4   6  289.04   14.52
   9  -4  -6  234.55   13.47
   9  -4  -5   43.82    5.73
  -9  -4   5   45.24    4.76
   9  -4  -5   40.08    5.49
  -9  -4   5   50.58    5.73
   9  -4  -4  219.19   14.93
  -9  -4   4  264.41   11.96
  -9  -4   4  265.73   13.93
   9  -4  -4  249.96   13.01
  -9  -4   4  204.41   12.55
  -9  -4   3  517.16   17.87
   9  -4  -3  394.81   23.14
  -9  -4   3  513.58   21.10
   9  -4  -3  499.54   21.77
  -9  -4   3  429.14   20.57
  -9  -4   2   65.01    4.76
   9  -4  -2   70.21   10.67
  -9  -4   2   70.00    6.89
  -9  -4   2   58.75    7.05
   9  -4  -2   53.13    9.67
   9  -4  -1  361.09   26.51
  -9  -4   1  344.88   16.49
  -9  -4   1  372.33   17.19
  -9  -4   1  388.96   19.73
   9  -4  -1  357.22   25.72
   9  -4   0   65.95   11.86
  -9  -4   0   80.71    6.59
  -9  -4   0   84.44    7.73
  -9  -4   0   95.91    9.13
   9  -4   0   74.41   12.19
   9  -4   1  172.72   13.40
   9  -4   1  215.16   20.38
  -9  -4  -1  228.05   10.40
  -9  -4  -1  270.19   13.76
  -9  -4  -1  251.74   13.82
  -9  -4  -1  249.98   14.39
   9  -4   1  217.46   19.77
   9  -4   2   50.60    6.70
   9  -4   2   74.48   11.46
  -9  -4  -2   70.84    6.42
  -9  -4  -2   70.53    6.63
   9  -4   2   68.78   10.73
   9  -4   3   22.88    6.35
  -9  -4  -3   17.48    2.75
   9  -4   3   21.55    5.98
  -9  -3  10   31.90    3.65
   9  -3  -9  109.46    6.89
   9  -3  -9  102.41    5.00
   9  -3  -9  107.54    5.80
  -9  -3   9  109.60    8.29
   9  -3  -8  166.75    9.61
   9  -3  -8  140.31    7.47
  -9  -3   8  139.73   10.26
  -9  -3   7  347.45   18.45
  -9  -3   7  344.03   18.94
  -9  -3   6   83.96    8.17
   9  -3  -6   75.13    7.48
   9  -3  -6   69.84    7.51
  -9  -3   6   94.51    8.50
   9  -3  -6   78.58    7.26
  -9  -3   6   76.40    7.28
   9  -3  -6   79.57    7.77
   9  -3  -5  217.36   14.35
  -9  -3   5  181.08   10.91
   9  -3  -5  202.44   13.84
  -9  -3   5  186.00   12.53
  -9  -3   4    8.68    2.35
   9  -3  -4    7.52    4.10
  -9  -3   4    6.62    2.55
   9  -3  -4    4.91    2.95
  -9  -3   4    8.08    3.15
   9  -3  -4    8.66    4.22
  -9  -3   3   69.13    5.40
   9  -3  -3   47.21    8.40
   9  -3  -3   71.52   11.05
  -9  -3   3   65.75    6.81
  -9  -3   3   57.30    7.48
   9  -3  -3   57.56   10.05
   9  -3  -2  454.68   25.38
   9  -3  -2  415.22   30.20
  -9  -3   2  423.95   19.26
  -9  -3   2  422.16   20.47
  -9  -3   2  420.38   22.47
   9  -3  -2  393.44   28.83
   9  -3  -1   64.43   10.50
   9  -3  -1   49.31   11.78
  -9  -3   1   59.27    6.17
  -9  -3   1   66.52    7.94
  -9  -3   1   60.26    8.30
   9  -3  -1   55.90   12.14
   9  -3   0  187.87   18.65
   9  -3   0  217.46   24.13
  -9  -3   0  196.94   11.02
  -9  -3   0  242.07   14.83
  -9  -3   0  217.95   15.05
  -9  -3   0  234.63   16.09
   9  -3   0  198.34   22.39
   9  -3   1   12.32    6.24
   9  -3   1   19.21    9.29
  -9  -3  -1   27.38    4.53
  -9  -3  -1   23.27    4.86
   9  -3   1   29.88   10.02
   9  -3   2  141.50   19.17
  -9  -3  -2  134.47   10.50
   9  -3   3   26.42    6.99
  -9  -3  -3   39.98    5.04
  -9  -3  -3   47.33    5.33
   9  -3   3   53.96   10.49
   9  -3   4   30.06    6.16
   9  -3   4   49.09    9.21
  -9  -3  -4   38.09    3.75
   9  -3   4   45.53    7.94
   9  -2 -11   95.45    5.01
   9  -2 -10   19.16    2.95
   9  -2 -10   22.82    2.93
  -9  -2  10   20.00    3.21
   9  -2  -9  120.86    8.26
   9  -2  -9   99.42    5.57
  -9  -2   9  130.09    9.41
   9  -2  -8  161.85   10.18
  -9  -2   8  132.97    8.11
   9  -2  -8  130.48    7.01
   9  -2  -8  136.97    9.78
  -9  -2   8  133.89   10.35
  -9  -2   7   15.52    3.70
   9  -2  -7   21.57    4.17
  -9  -2   7   10.89    3.83
   9  -2  -7   20.70    4.23
  -9  -2   6    3.22    2.22
   9  -2  -6    1.20    2.07
   9  -2  -6    4.25    2.83
  -9  -2   6    5.49    2.65
   9  -2  -6    3.66    2.42
   9  -2  -6    5.25    2.71
  -9  -2   6    4.03    2.24
  -9  -2   5    4.82    2.11
   9  -2  -5    5.79    3.26
   9  -2  -5    4.80    3.56
   9  -2  -5    9.73    3.00
  -9  -2   5    9.64    2.98
   9  -2  -5    7.07    3.18
  -9  -2   5    4.65    2.59
  -9  -2   4  203.76   11.30
   9  -2  -4  251.35   17.37
   9  -2  -4  300.42   17.84
  -9  -2   4  365.72   16.48
   9  -2  -4  275.94   18.01
  -9  -2   4  256.01   16.44
   9  -2  -4  333.65   21.72
   9  -2  -3  227.33   17.45
   9  -2  -3  225.69   20.53
  -9  -2   3  236.09   12.96
  -9  -2   3  207.90   13.75
  -9  -2   3  193.59   14.70
   9  -2  -3  216.12   19.41
   9  -2  -2  467.73   28.97
   9  -2  -2  492.62   34.07
  -9  -2   2  475.20   19.59
  -9  -2   2  465.39   23.38
  -9  -2   2  486.27   24.97
   9  -2  -2  446.42   31.82
   9  -2  -1   24.04    8.04
   9  -2  -1   19.10    9.22
  -9  -2   1   18.61    3.18
  -9  -2   1   15.42    4.42
   9  -2  -1   12.50    8.27
   9  -2   0   13.32    5.36
   9  -2   0   15.92    8.12
   9  -2   0   14.10    9.69
  -9  -2   0   11.41    4.18
  -9  -2   0   13.61    4.58
   9  -2   0   11.01    9.18
   9  -2   1   16.71    6.59
   9  -2   1   18.32    8.50
   9  -2   1   17.39   10.51
  -9  -2  -1   15.64    4.54
   9  -2   2   26.92    7.82
   9  -2   2   19.86    9.16
  -9  -2  -2   34.09    5.72
   9  -2   2   39.11   11.57
   9  -2   3   94.29   12.93
   9  -2   3   77.35   13.58
   9  -2   3  135.17   19.75
  -9  -2  -3  113.78    8.75
   9  -2   3  140.69   17.90
   9  -2   4  166.98   15.24
   9  -2   4  206.32   20.07
  -9  -2  -4  135.14    8.96
  -9  -2  -4  148.17    8.39
   9  -2   4  233.78   18.86
  -9  -2  -5   28.72    2.90
   9  -1 -11    0.05    0.89
   9  -1 -11    0.82    0.73
   9  -1 -10  230.14   11.74
   9  -1 -10  262.34   10.67
   9  -1  -9  168.23   10.39
  -9  -1   9  184.79   18.09
   9  -1  -9  151.08   12.84
   9  -1  -8   39.45    5.28
  -9  -1   8   34.94    4.58
   9  -1  -8   27.81    4.65
   9  -1  -7  363.37   16.53
   9  -1  -7  310.62   15.17
   9  -1  -6   38.10    5.70
   9  -1  -6   48.10    6.08
  -9  -1   6   27.99    5.75
   9  -1  -6   48.72    6.60
  -9  -1   6   48.24    6.54
   9  -1  -6   43.73    5.55
   9  -1  -5   20.68    4.89
   9  -1  -5   17.51    4.14
   9  -1  -5   20.73    4.57
  -9  -1   5   21.54    4.32
   9  -1  -5   18.57    4.63
   9  -1  -5   19.55    4.05
  -9  -1   5   16.44    4.27
   9  -1  -4    6.83    3.38
  -9  -1   4   11.28    2.76
   9  -1  -4    5.18    3.47
  -9  -1   4    7.01    2.87
  -9  -1   4    7.51    3.44
   9  -1  -3  732.47   34.06
   9  -1  -3  780.24   32.18
   9  -1  -3  736.42   35.74
  -9  -1   3  757.69   32.06
   9  -1  -2  102.48   12.12
   9  -1  -2  113.57   11.83
   9  -1  -2  103.17   13.28
   9  -1  -2  109.76   16.03
  -9  -1   2  119.19   11.39
  -9  -1   2  124.19   11.81
   9  -1  -2  125.94   16.38
   9  -1  -1   15.43    6.24
   9  -1  -1   18.10    5.98
   9  -1  -1   17.81    7.41
   9  -1  -1   22.84    9.87
  -9  -1   1   19.24    5.09
  -9  -1   1   20.13    5.09
   9  -1  -1   23.33    9.68
   9  -1   0  186.00   19.30
   9  -1   0  153.37   19.61
   9  -1   0  190.30   25.60
  -9  -1   0  181.89   14.67
  -9  -1   0  181.75   14.25
   9  -1   1  137.25   17.95
   9  -1   1   94.04   16.76
  -9  -1  -1  113.18   11.18
  -9  -1  -1  116.50   10.88
   9  -1   2  378.03   23.18
   9  -1   2  279.80   26.38
   9  -1   2  423.03   38.12
  -9  -1  -2  274.20   16.32
   9  -1   2  429.79   35.06
   9  -1   3   43.39   11.13
   9  -1   3   34.23   11.05
   9  -1   3   60.75   14.59
  -9  -1  -3   40.18    5.66
  -9  -1  -3   40.93    4.99
   9  -1   3   65.84   13.12
   9  -1   4   52.95   10.93
   9  -1   4   41.69   10.78
   9  -1   4   66.51   12.34
  -9  -1  -4   40.87    4.82
  -9  -1  -4   37.64    3.74
   9  -1   4   74.37   10.79
   9  -1   5  149.48   14.17
   9  -1   5  128.96   13.57
   9   0 -11  425.61   14.23
  -9   0  11  208.56   14.81
   9   0 -10  136.72    6.59
  -9   0  10  115.14   13.28
   9   0 -10  122.81    9.76
  -9   0   9  276.92   13.26
  -9   0   9  259.91   23.10
   9   0  -9  241.86   17.32
   9   0  -8  303.28   15.24
   9   0  -8  300.80   16.02
  -9   0   8  304.46   15.45
   9   0  -7   92.76    8.08
   9   0  -7   97.91    8.71
  -9   0   7   98.74    8.55
   9   0  -7   79.67    7.72
   9   0  -6  141.62   10.15
   9   0  -6  153.87   11.22
   9   0  -6  140.12    9.99
   9   0  -5  261.79   14.60
   9   0  -5  280.18   14.34
   9   0  -5  272.99   16.21
  -9   0   5  283.81   15.69
   9   0  -5  288.03   14.26
   9   0  -4  280.93   16.70
   9   0  -4  231.24   14.51
   9   0  -4  264.89   15.51
   9   0  -4  255.55   16.83
   9   0  -4  234.99   15.48
  -9   0   4  248.66   16.49
  -9   0   4  259.63   15.95
   9   0  -4  293.35   14.36
  -9   0   4  214.57   14.10
   9   0  -3  155.82   13.10
   9   0  -3  134.38   11.82
   9   0  -3  137.08   13.30
  -9   0   3  145.09   12.42
  -9   0   3  150.66   12.56
   9   0  -2    4.34    3.78
   9   0  -2    4.71    3.42
   9   0  -2    6.55    4.73
  -9   0   2   10.75    4.13
  -9   0   2    4.73    3.21
   9   0  -2    6.48    6.77
   9   0  -1  434.10   24.93
   9   0  -1  414.47   26.71
   9   0  -1  464.60   35.93
  -9   0   1  367.17   22.14
  -9   0   1  354.83   20.80
   9   0   0   23.14    6.25
   9   0   0   23.84    7.84
  -9   0   0   15.73    4.21
   9   0   0   21.53   10.29
   9   0   1  447.20   24.04
  -9   0  -1  327.09   19.58
   9   0   1  318.47   27.92
   9   0   1  294.02   28.13
   9   0   1  412.43   37.47
   9   0   1  263.60   22.45
  -9   0  -1  262.91   17.90
  -9   0  -1  266.30   16.31
   9   0   1  485.21   36.58
  -9   0  -2    1.48    2.38
   9   0   2    3.27    7.08
   9   0   2    4.79    8.16
   9   0   2    8.60    9.17
   9   0   2   -0.30    3.96
  -9   0  -2    0.72    1.96
  -9   0  -2    0.85    1.50
   9   0   2    7.70    7.95
  -9   0  -3   92.81    9.09
   9   0   3   98.98   16.81
   9   0   3  111.98   18.29
   9   0   3   62.15   11.09
  -9   0  -3   89.92    8.27
  -9   0  -3   95.10    6.80
  -9   0  -4  246.00   13.44
   9   0   4  352.39   27.91
   9   0   4  358.25   27.48
   9   0   4  213.09   18.44
  -9   0  -4  236.66   12.32
   9   0   5    0.19    3.39
   9   0   5    0.46    2.12
  -9   0  -5    0.13    0.69
   9   1 -11    0.26    0.97
  -9   1  11    0.29    1.42
   9   1 -10  215.46   11.03
   9   1 -10  232.13   10.60
  -9   1  10  200.31   18.01
   9   1 -10  194.74   12.73
   9   1  -9  143.79    9.41
  -9   1   9  151.40    9.87
  -9   1   9  132.74   16.79
   9   1  -9  118.72   11.79
   9   1  -8   30.08    4.39
   9   1  -8   28.84    4.76
  -9   1   8   27.88    4.66
   9   1  -8   30.30    6.75
   9   1  -7  312.75   15.76
   9   1  -7  329.02   17.10
  -9   1   7  344.46   18.05
   9   1  -6   36.85    5.10
   9   1  -6   41.45    5.16
   9   1  -6   42.10    5.85
  -9   1   6   47.83    6.62
  -9   1   6   37.77    4.83
   9   1  -6   39.49    5.49
   9   1  -6   27.71    4.49
   9   1  -5   26.50    4.34
   9   1  -5   20.45    3.94
   9   1  -5   23.79    4.80
  -9   1   5   17.92    3.79
   9   1  -5   25.95    4.61
  -9   1   5   32.10    5.84
  -9   1   5   22.37    4.75
   9   1  -4   10.30    3.10
  -9   1   4    7.56    2.98
   9   1  -4    7.91    3.00
   9   1  -4   11.08    3.79
   9   1  -4    7.41    3.02
  -9   1   4    6.88    3.32
  -9   1   4   20.40    4.72
   9   1  -3  883.67   33.07
   9   1  -3  757.90   29.04
   9   1  -3  661.75   30.97
   9   1  -3  682.70   30.04
  -9   1   3  829.93   32.50
  -9   1   3  785.66   33.11
  -9   1   3  770.48   30.98
   9   1  -2  157.54   12.80
   9   1  -2  113.41   12.17
   9   1  -2  120.16   13.06
  -9   1   2  133.88   11.48
  -9   1   2  142.03   12.76
  -9   1   2  130.72   10.68
   9   1  -1   24.57    5.47
   9   1  -1   12.60    5.26
   9   1  -1   20.97    6.68
   9   1  -1   14.48    5.79
  -9   1   1   18.64    4.38
  -9   1   1   18.29    3.85
  -9   1   0  201.51   16.32
   9   1   0  219.04   20.86
   9   1   0  214.07   20.69
  -9   1   0  221.29   11.27
   9   1   0  201.53   19.61
  -9   1   0  194.91   15.13
  -9   1   0  176.33   12.48
  -9   1  -1  139.40   13.37
   9   1   1  142.31   18.01
   9   1   1  143.10   18.22
   9   1   1  126.04   16.36
  -9   1  -1  123.30   11.33
  -9   1  -1  120.11    9.11
  -9   1  -2  288.42   19.12
   9   1   2  321.09   27.97
   9   1   2  255.13   24.39
  -9   1  -2  285.16   16.40
  -9   1  -3   36.20    6.23
   9   1   3   58.21   12.10
   9   1   3   33.27    9.23
  -9   1  -3   35.44    4.95
  -9   1  -4   39.67    5.47
   9   1   4   72.96   12.59
   9   1   4   75.12   10.89
   9   1   4   36.28    8.69
  -9   1  -4   43.11    4.38
  -9   1  -5   82.52    6.13
   9   1   5   78.06    9.88
   9   2 -11   68.17    4.31
   9   2 -10   10.64    2.83
   9   2 -10   14.38    2.51
   9   2 -10   12.76    2.40
  -9   2  10   15.87    5.08
   9   2  -9  103.73    7.36
  -9   2   9   98.01    8.10
   9   2  -9   85.38    9.30
   9   2  -8  124.95    8.73
   9   2  -8  114.39    9.43
  -9   2   8  136.23   10.63
  -9   2   8  121.38   17.69
   9   2  -7   16.54    5.69
   9   2  -7   15.31    3.27
   9   2  -7   18.61    3.36
   9   2  -7   14.51    3.54
  -9   2   7   19.31    4.57
  -9   2   7   20.13    8.22
   9   2  -6   10.77    2.86
  -9   2   6    8.50    3.52
   9   2  -6    9.57    2.66
  -9   2   6    8.46    2.66
  -9   2   6   10.81    6.26
   9   2  -5    8.36    2.62
  -9   2   5    9.15    3.45
   9   2  -5    5.66    2.37
  -9   2   5    9.11    3.57
  -9   2   5    7.42    2.83
   9   2  -5    9.39    2.80
  -9   2   5    8.21    5.61
   9   2  -4  342.44   15.67
   9   2  -4  273.62   16.46
   9   2  -4  337.08   18.27
  -9   2   4  307.83   17.79
  -9   2   4  269.23   16.24
   9   2  -4  322.60   16.39
  -9   2   4  376.21   20.75
  -9   2   4  324.48   19.01
   9   2  -3  173.23   13.38
   9   2  -3  212.75   14.94
  -9   2   3  178.42   12.54
   9   2  -3  196.03   12.84
  -9   2   3  209.95   15.59
  -9   2   3  194.62   14.38
   9   2  -2  404.19   23.76
   9   2  -2  523.56   26.28
  -9   2   2  405.64   20.05
   9   2  -2  485.01   22.47
  -9   2   2  534.22   23.09
  -9   2   2  503.20   24.45
  -9   2   1   27.11    5.40
   9   2  -1   21.32    5.84
  -9   2   1   27.17    4.08
   9   2  -1   30.42    6.74
   9   2  -1   30.03    5.39
  -9   2   1   22.00    4.07
  -9   2   1   37.83    6.81
  -9   2   0   13.77    3.89
  -9   2   0   10.45    4.49
   9   2   0   15.10    6.06
   9   2   0   12.73    6.06
   9   2   0   11.91    3.80
  -9   2   0   13.91    4.38
  -9   2  -1   13.94    3.49
  -9   2  -1   11.33    4.79
   9   2   1   10.40    6.52
   9   2   1   20.02    6.81
   9   2   1   15.36    6.90
  -9   2  -1   11.06    3.57
  -9   2  -2   35.69    6.64
   9   2   2   44.99   10.62
   9   2   2   49.06    9.19
   9   2   2   40.38   10.39
  -9   2  -2   40.32    5.49
  -9   2  -3  102.37    9.96
   9   2   3  165.38   17.66
   9   2   3  178.61   14.39
   9   2   3  102.50   15.36
  -9   2  -3  118.81    8.21
  -9   2  -4  161.05   10.99
   9   2   4  176.75   17.84
  -9   2  -5   30.91    3.50
   9   2   5   39.65    6.77
   9   3 -10   24.21    2.75
   9   3 -10   24.37    3.36
   9   3  -9  106.35    6.41
  -9   3   9   96.58    7.99
   9   3  -9   96.99    6.93
  -9   3   9   99.93   13.17
   9   3  -8  154.81    8.77
  -9   3   8  148.01   11.36
  -9   3   8  137.09   17.36
   9   3  -8  144.15   12.65
   9   3  -7  375.45   15.62
   9   3  -7  304.27   16.55
  -9   3   7  389.96   20.38
  -9   3   7  336.66   29.18
   9   3  -7  337.55   22.21
   9   3  -6   60.27    6.19
   9   3  -6   63.49    6.96
  -9   3   6   61.88    6.33
  -9   3   6   45.85   10.75
  -9   3   6   68.30    7.87
   9   3  -6   57.46    9.51
   9   3  -5  204.79   12.56
   9   3  -5  227.85   13.64
  -9   3   5  223.58   15.37
  -9   3   5  216.78   13.23
  -9   3   5  236.98   15.56
   9   3  -5  201.73   18.43
   9   3  -4    2.59    3.65
  -9   3   4    6.07    3.15
   9   3  -4    6.24    2.60
  -9   3   4    4.29    2.49
   9   3  -4    6.58    2.78
  -9   3   4    4.80    2.87
  -9   3   4    3.26    3.56
   9   3  -3   36.87    5.84
   9   3  -3   55.97    7.07
  -9   3   3   42.10    5.94
  -9   3   3   53.73    7.54
   9   3  -2  529.08   24.00
  -9   3   2  418.17   19.86
  -9   3   2  382.84   20.36
  -9   3   2  502.99   25.06
  -9   3   2  473.29   23.99
  -9   3   1   63.16    8.25
   9   3  -1   59.69    8.61
   9   3  -1   77.74    8.86
  -9   3   1   59.42    5.86
  -9   3   1   61.63    8.16
  -9   3   0  255.74   16.45
   9   3   0  303.93   20.53
   9   3   0  294.72   18.08
  -9   3   0  256.40   16.21
  -9   3  -1   22.21    4.48
   9   3   1   23.94    6.51
   9   3   1   31.36    5.57
   9   3   1   25.82    8.43
  -9   3  -1   24.65    4.44
  -9   3  -2  132.65    9.34
   9   3   2  184.67   16.14
  -9   3  -2  132.46    8.10
   9   3   2  139.28   17.21
  -9   3  -2  170.29   10.04
   9   3   3   64.12    8.59
   9   3   3   53.85   10.51
   9   3   4   50.33    5.64
   9   3   4   46.08    8.31
  -9   4   9   81.99    6.48
   9   4  -9   84.62    5.36
  -9   4   9   88.82    9.87
   9   4  -9   83.05    6.25
  -9   4   8  140.33   10.47
   9   4  -8  143.71    8.43
  -9   4   8  131.69   14.11
   9   4  -8  148.94   10.40
  -9   4   7   45.23    8.87
   9   4  -7   54.76    7.15
   9   4  -6  176.70   11.64
  -9   4   6  197.14   14.23
  -9   4   6  172.23   17.61
  -9   4   6  229.65   13.67
   9   4  -6  208.58   15.63
   9   4  -5   36.83    4.81
   9   4  -5   37.09    5.16
  -9   4   5   35.57    5.90
  -9   4   5   41.21    5.36
  -9   4   5   24.99    6.42
   9   4  -5   39.40    7.04
   9   4  -4  225.70   13.04
  -9   4   4  219.46   14.30
   9   4  -3  504.73   22.14
   9   4  -3  559.45   22.50
  -9   4   3  477.50   21.48
  -9   4   3  512.98   24.23
   9   4  -2   72.01    7.83
   9   4  -2   69.04    7.10
  -9   4   2   56.03    6.02
  -9   4   2   59.79    6.70
  -9   4   2   67.15    8.24
  -9   4   1  428.26   21.61
   9   4  -1  464.33   22.13
   9   4  -1  412.89   18.71
  -9   4   0   97.67    9.23
   9   4   0  108.61   10.25
  -9   4   0   86.68    7.05
  -9   4  -1  224.15   13.27
  -9   4  -1  231.42   10.76
  -9   4  -2   83.47    6.62
   9   4   2  126.96    9.72
  -9   5   8   94.34    6.82
  -9   5   7   59.33    6.19
   9   5  -7   61.38    4.50
   9   5  -7   49.07    4.33
  -9   5   6    5.23    2.36
   9   5  -6    4.96    1.67
  -9   5   5  163.30   11.72
  -9   5   5  244.12   12.90
  -9   5   4    5.37    2.41
   9   5  -4    5.39    1.99
   9   5  -4    3.76    1.48
  -9   5   4    3.25    1.95
   9   5  -3   54.60    5.09
  -9   5   3   44.20    4.94
   9   5  -2  428.98   17.84
  -9   5   2  345.87   15.60
   9   5  -1   15.77    3.23
  -9   5   1   13.55    3.45
  -9   5   1   13.47    2.54
   9   5   0  183.73   10.41
  -9   5   0  151.67   10.06
  -9   5  -1   96.20    6.83
  -9   6   4  176.09    8.93
   9   6  -3    9.06    1.78
  -9   6   3   11.61    2.22
   9   6  -2   17.05    2.52
  -9   6   2   17.11    2.61
   9   6  -1   61.20    4.83
  -9   6   1   54.49    4.37
 -10  -5   5   57.59    4.79
  10  -5  -5   65.88    4.80
 -10  -5   4   21.34    2.81
 -10  -5   3   10.38    1.89
  10  -5  -2  324.43   13.03
 -10  -5   2  322.81   11.43
  10  -5  -1  132.65    7.44
  10  -4  -8   37.74    3.70
  10  -4  -7   40.74    3.10
 -10  -4   7   24.64    4.09
 -10  -4   6  207.24   11.90
 -10  -4   6  181.71   10.09
  10  -4  -5  116.70    7.81
  10  -4  -5  110.32    7.75
 -10  -4   5  134.64    8.75
  10  -4  -5  124.50    8.54
  10  -4  -4  126.27    8.98
  10  -4  -4   84.05    7.41
 -10  -4   4  141.41    8.53
 -10  -4   4   97.97    7.01
  10  -4  -3  228.96   13.73
  10  -4  -3  216.62   10.88
 -10  -4   3  211.67   11.79
  10  -4  -2   16.48    4.09
 -10  -4   2   16.65    2.55
  10  -4  -2   17.30    3.06
 -10  -4   2   17.46    3.26
  10  -4  -2   19.59    4.71
  10  -4  -1  139.11   10.91
 -10  -4   1  174.84    7.75
  10  -4  -1  157.48    9.52
 -10  -4   1  175.56   10.52
  10  -4  -1  168.31   13.33
  10  -4   0   66.92    7.20
  10  -4   0   85.27    9.26
  10  -4   0   75.63    6.09
 -10  -4   0   90.09    6.89
  10  -4   0   93.55    9.70
  10  -4   1  111.70    8.04
  10  -4   1  102.39    9.59
 -10  -4  -1  100.06    6.61
  10  -4   1  120.53   10.10
  10  -3  -8   57.99    3.61
  10  -3  -8   66.09    5.83
  10  -3  -7   79.34    6.34
 -10  -3   7   64.17    5.05
  10  -3  -7   72.26    6.31
  10  -3  -6    3.00    2.11
 -10  -3   6    2.10    1.86
  10  -3  -5  476.75   20.66
  10  -3  -5  426.83   20.10
 -10  -3   5  501.28   20.44
  10  -3  -5  472.23   19.67
 -10  -3   5  446.64   19.44
  10  -3  -5  444.21   19.51
  10  -3  -4   69.69    7.93
 -10  -3   4   90.58    7.25
  10  -3  -4   75.02    7.55
 -10  -3   4   67.79    7.09
  10  -3  -3  267.03   17.25
 -10  -3   3  344.65   14.61
  10  -3  -3  297.80   17.07
 -10  -3   3  271.33   16.09
  10  -3  -3  346.67   21.17
  10  -3  -2   37.24    5.36
 -10  -3   2   32.44    3.73
 -10  -3   2   33.78    4.61
 -10  -3   2   34.03    5.57
  10  -3  -2   34.79    7.73
  10  -3  -1  171.80   14.13
  10  -3  -1  205.76   13.98
  10  -3  -1  214.28   19.11
 -10  -3   1  212.45   12.62
 -10  -3   1  219.79   14.04
  10  -3  -1  188.00   17.65
  10  -3   0   99.26   10.30
  10  -3   0  109.79   10.26
  10  -3   0  114.30   14.13
 -10  -3   0  110.91    8.91
  10  -3   0  112.26   13.43
  10  -3   1   73.12    8.02
  10  -3   1   61.16    7.49
  10  -3   1   75.48   11.35
 -10  -3  -1   75.13    6.63
 -10  -3  -1   66.98    6.44
  10  -3   1   76.71   10.61
  10  -3   2  234.45   11.99
  10  -3   2  162.16   11.36
  10  -3   2  235.49   17.45
 -10  -3  -2  174.53    9.67
 -10  -3  -2  197.83   10.00
  10  -3   2  204.97   15.50
  10  -2 -10   21.00    2.19
  10  -2  -9   84.15    6.05
 -10  -2   9   60.34    8.41
 -10  -2   8  153.77    8.41
  10  -2  -8  153.48    9.76
  10  -2  -7  188.72   10.73
 -10  -2   7  183.69   10.08
  10  -2  -7  167.06   10.25
  10  -2  -6   51.69    5.95
  10  -2  -6   42.61    5.56
 -10  -2   6   49.35    5.98
  10  -2  -6   47.45    5.46
  10  -2  -5  169.16   11.95
  10  -2  -5  176.28   10.78
 -10  -2   5  139.91   10.42
  10  -2  -5  169.86   12.04
 -10  -2   5  163.91   11.67
  10  -2  -5  158.71   10.62
  10  -2  -4    5.54    3.58
  10  -2  -4    7.76    2.83
 -10  -2   4    9.33    2.60
  10  -2  -4    8.15    3.31
 -10  -2   4    6.40    2.92
  10  -2  -3  151.98   12.48
 -10  -2   3  152.01    9.08
  10  -2  -3  133.50   12.21
 -10  -2   3  135.07   10.24
 -10  -2   3  140.24   11.72
  10  -2  -3  172.46   16.01
  10  -2  -2   24.93    6.30
  10  -2  -2   32.82    6.61
 -10  -2   2   30.86    5.20
  10  -2  -2   33.49    8.58
  10  -2  -1   79.00   10.27
  10  -2  -1   82.95   10.69
  10  -2  -1   74.55   13.26
 -10  -2   1   72.10    8.13
  10  -2  -1   77.36   12.73
  10  -2   0  162.30   13.91
  10  -2   0  158.05   15.65
  10  -2   0  173.31   19.74
 -10  -2   0  163.56   12.12
 -10  -2   0  159.10   11.98
  10  -2   0  172.77   18.79
  10  -2   1  231.62   15.34
  10  -2   1  170.13   12.43
  10  -2   1  177.91   16.30
  10  -2   1  250.26   23.15
 -10  -2  -1  202.01   12.78
 -10  -2  -1  190.60   12.12
  10  -2   2   15.86    3.56
  10  -2   2   10.37    3.13
  10  -2   2   12.99    4.93
 -10  -2  -2   10.11    2.73
 -10  -2  -2   13.16    2.73
  10  -2   2   15.61    6.17
  10  -2   3  109.65   10.25
 -10  -2  -3   85.48    5.31
  10  -1 -10  308.20   12.20
  10  -1 -10  330.18   10.47
  10  -1  -9   34.06    4.05
 -10  -1   9   33.05    6.99
  10  -1  -9   31.02    4.99
 -10  -1   8  186.46   10.09
  10  -1  -8  131.01    9.21
  10  -1  -7   39.81    4.75
 -10  -1   7   43.86    5.30
  10  -1  -7   34.59    4.76
  10  -1  -6  128.95    9.32
  10  -1  -6  133.43    9.57
  10  -1  -6  127.14    9.70
 -10  -1   6  155.30   11.32
  10  -1  -6  112.12    8.64
  10  -1  -5   27.87    5.25
  10  -1  -5   30.65    4.99
  10  -1  -5   34.27    5.27
 -10  -1   5   16.29    3.93
  10  -1  -5   36.82    5.63
 -10  -1   5   32.30    5.55
  10  -1  -5   33.05    4.60
  10  -1  -4   66.08    7.69
  10  -1  -4   81.86    8.82
  10  -1  -4   69.86    8.35
 -10  -1   4   79.89    8.86
 -10  -1   4   82.00    8.00
  10  -1  -4   90.33    7.62
  10  -1  -3  345.69   19.84
  10  -1  -3  319.38   19.74
 -10  -1   3  307.58   17.82
  10  -1  -2   15.53    5.08
  10  -1  -2   10.59    3.38
  10  -1  -2   14.35    5.37
 -10  -1   2   13.66    4.08
 -10  -1   2   14.38    4.32
  10  -1  -2   19.25    7.56
  10  -1  -1  156.49   13.66
  10  -1  -1  134.00   12.35
  10  -1  -1  135.31   14.91
 -10  -1   1  140.64   12.15
 -10  -1   1  137.74   11.76
  10  -1  -1  176.74   19.54
  10  -1   0  234.34   16.33
  10  -1   0  194.18   15.89
  10  -1   0  177.21   18.10
  10  -1   0  220.36   23.61
 -10  -1   0  167.15   13.15
 -10  -1   0  156.90   12.05
  10  -1   1  131.23   13.24
  10  -1   1  130.54   15.48
 -10  -1  -1  129.02   10.62
 -10  -1  -1  121.23    9.39
  10  -1   2  167.72   14.65
 -10  -1  -2  182.50   10.14
  10  -1   3  133.32   11.21
  10  -1   3  139.02   13.13
 -10  -1  -3  109.00    7.31
 -10  -1  -3   90.95    5.24
  10   0 -10    0.76    1.12
 -10   0  10    1.29    2.14
  10   0  -9   40.81    4.41
 -10   0   9   38.48    4.07
 -10   0   9   37.56    7.99
  10   0  -9   32.41    5.52
  10   0  -8  245.46   12.42
  10   0  -8  216.43   12.34
 -10   0   8  249.51   13.04
 -10   0   8  256.38   23.00
  10   0  -7   94.52    7.39
  10   0  -7   89.03    7.73
 -10   0   7   93.74    8.25
  10   0  -6  144.06    9.74
  10   0  -6  149.69   10.64
 -10   0   6  159.97   11.25
  10   0  -5   92.52    8.15
  10   0  -5   96.83    9.07
 -10   0   5   79.26    6.91
  10   0  -5   92.12    8.60
  10   0  -5   89.78    7.31
  10   0  -4 1527.16   49.66
  10   0  -4 1412.80   46.66
  10   0  -4 1441.33   46.45
  10   0  -4 1460.71   49.99
  10   0  -4 1397.84   48.22
 -10   0   4 1622.35   52.17
 -10   0   4 1514.45   49.48
  10   0  -3  431.44   21.69
  10   0  -3  357.13   18.53
  10   0  -3  379.99   21.97
  10   0  -3  363.31   20.20
 -10   0   3  398.21   21.13
 -10   0   3  388.20   20.87
  10   0  -2  173.97   13.39
  10   0  -2  137.48   12.05
  10   0  -2  144.02   14.08
 -10   0   2  139.69   12.34
 -10   0   2  140.61   11.72
  10   0  -1    1.43    2.92
  10   0  -1   -0.20    2.62
 -10   0   1    0.49    2.44
 -10   0   1    4.79    2.69
  10   0   0    4.28    3.28
  10   0   0    1.34    3.20
 -10   0   0    2.40    2.90
 -10   0   0    1.62    1.85
  10   0   1  738.49   35.81
  10   0   1  725.65   37.94
 -10   0  -1  665.78   24.15
  10   0   2   33.26    7.45
  10   0   2   47.71    9.31
 -10   0  -2   32.55    3.48
 -10   0  -2   30.55    4.64
  10   0   3  113.71   11.70
  10   0   3  116.68   12.03
 -10   0  -3   90.03    6.53
  10   0   4   81.83    7.88
  10   1 -10  302.66   11.61
 -10   1  10  262.55   18.24
  10   1 -10  264.52   12.85
  10   1  -9   38.59    4.15
 -10   1   9   36.28    4.29
 -10   1   9   34.92    7.87
  10   1  -9   29.99    5.18
  10   1  -8  185.46   10.39
  10   1  -8  180.46   11.07
 -10   1   8  216.82   12.37
 -10   1   8  184.23   19.83
  10   1  -8  175.53   14.44
  10   1  -7   31.74    4.24
  10   1  -7   31.32    4.70
 -10   1   7   37.40    5.38
 -10   1   7   31.18    9.08
  10   1  -6  124.35    8.75
  10   1  -6  138.26    8.85
  10   1  -6  127.20    9.77
 -10   1   6  119.34   10.32
 -10   1   6  117.13    8.00
  10   1  -5   20.92    3.79
  10   1  -5   21.81    3.79
  10   1  -5   20.79    4.31
 -10   1   5   20.99    4.58
 -10   1   5   17.96    3.57
  10   1  -5   15.90    3.61
  10   1  -4   89.23    7.61
  10   1  -4   81.51    7.91
  10   1  -4   85.54    8.90
 -10   1   4   85.76    8.31
  10   1  -4   91.54    8.45
 -10   1   4  105.58    9.92
 -10   1   4   84.89    9.05
 -10   1   4   76.99    7.95
  10   1  -3  363.37   16.70
  10   1  -3  300.97   17.57
 -10   1   3  301.94   16.22
  10   1  -3  326.05   17.67
 -10   1   3  357.23   19.17
 -10   1   3  352.99   20.01
 -10   1   3  303.49   16.25
  10   1  -2   18.63    3.63
  10   1  -2   20.51    5.02
 -10   1   2   20.14    3.62
  10   1  -2   21.77    5.67
  10   1  -2   17.68    4.54
 -10   1   2   18.64    4.91
 -10   1   2   17.51    4.04
  10   1  -1  143.47   13.43
  10   1  -1  161.65   14.91
 -10   1   1  147.35    8.95
  10   1  -1  146.95   12.36
 -10   1   1  140.90   10.28
  10   1   0  186.46   16.44
  10   1   0  210.19   18.02
 -10   1   0  183.47   10.76
 -10   1   0  184.29   13.35
  10   1   1  162.81   15.82
  10   1   1  164.87   15.75
  10   1   1  121.26   12.77
 -10   1  -1  131.80   10.30
  10   1   2  242.78   18.91
  10   1   2  273.08   18.99
  10   1   2  161.20   14.17
  10   1   2  246.85   13.89
 -10   1  -2  194.63   11.38
  10   1   3  175.39   12.21
 -10   1  -3  109.32    6.86
 -10   2  10   14.31    3.91
  10   2 -10   13.80    2.39
  10   2  -9   63.07    4.73
 -10   2   9   59.80    5.53
  10   2  -9   61.84    5.05
 -10   2   9   61.17    9.76
  10   2  -9   65.88    6.85
  10   2  -8  174.21    9.33
 -10   2   8  182.01   11.62
 -10   2   8  174.97   18.73
  10   2  -7  154.62    9.17
  10   2  -7  155.34   10.35
 -10   2   7  181.20   12.37
 -10   2   7  150.22   18.35
  10   2  -7  149.32   13.89
  10   2  -6   50.42    5.14
  10   2  -6   54.75    5.46
 -10   2   6   50.62    5.29
 -10   2   6   53.17   10.85
  10   2  -5  146.48    9.10
  10   2  -5  145.80    9.86
 -10   2   5  149.85   11.56
 -10   2   5  141.74   10.03
 -10   2   5  139.86   16.97
 -10   2   5  164.58   12.07
 -10   2   4    3.34    2.18
  10   2  -4    1.59    1.80
 -10   2   4    1.96    2.04
  10   2  -4    2.50    2.28
 -10   2   4    1.95    2.05
  10   2  -4    1.29    1.56
 -10   2   4    4.64    3.84
  10   2  -3  128.89   10.77
  10   2  -3  166.78   12.45
 -10   2   3  123.08    9.63
  10   2  -3  164.31   10.70
 -10   2   3  156.80   12.77
 -10   2   3  162.13   11.81
  10   2  -2   24.20    5.04
  10   2  -2   28.94    5.61
 -10   2   2   22.86    3.76
  10   2  -2   27.31    4.50
 -10   2   2   30.64    4.90
  10   2  -1   71.49    8.97
  10   2  -1   89.31    9.91
 -10   2   1   67.59    5.63
  10   2  -1   77.81    7.40
 -10   2   1   73.30    8.43
 -10   2   1   74.06    6.89
  10   2   0  158.47   14.16
 -10   2   0  154.61   11.55
  10   2   1  261.27   16.77
 -10   2  -1  212.37   12.52
  10   2   2   14.48    4.73
  10   2   2   20.78    4.10
 -10   2  -2   13.98    2.63
  10   2   3  146.49   11.13
 -10   3   9   52.07    4.83
  10   3  -9   54.11    4.11
 -10   3   9   53.12    7.62
  10   3  -9   47.88    4.82
 -10   3   8   65.95    6.63
 -10   3   8   59.40    9.44
  10   3  -8   64.25    7.02
  10   3  -7   54.34    5.64
 -10   3   7   56.44    9.75
  10   3  -7   59.92    7.66
  10   3  -6    0.75    2.41
  10   3  -6    1.30    1.24
  10   3  -6    0.59    1.39
 -10   3   6    1.80    2.00
 -10   3   6    1.40    2.82
  10   3  -5  395.42   17.01
  10   3  -5  407.39   18.19
 -10   3   5  363.36   19.05
 -10   3   5  404.13   17.53
 -10   3   5  272.47   21.87
 -10   3   5  476.96   20.93
  10   3  -5  326.89   22.20
  10   3  -4   66.82    6.60
  10   3  -4   74.82    7.28
 -10   3   4   56.97    6.57
 -10   3   4   70.23    6.97
 -10   3   4   78.37    8.04
  10   3  -3  273.28   15.32
  10   3  -3  320.62   16.29
 -10   3   3  324.31   16.85
  10   3  -2   42.87    5.79
 -10   3   2   31.80    4.02
 -10   3   2   30.08    4.77
 -10   3   2   42.16    5.80
  10   3  -1  247.95   14.17
 -10   3   1  225.80   12.82
  10   3   0  117.09   10.75
 -10   3   0   95.88    7.20
 -10   3   0   99.61    7.42
  10   3   1   93.39    9.19
 -10   3  -1   68.55    5.14
  10   3   2  249.59   14.05
 -10   4   8   43.89    4.67
  10   4  -8   44.46    3.53
 -10   4   7   52.93    5.86
 -10   4   7   35.81    5.57
  10   4  -7   51.49    5.22
 -10   4   6  231.21   13.40
  10   4  -6  218.71   12.62
  10   4  -5  113.05    7.50
  10   4  -5   96.20    7.58
 -10   4   5   93.98    8.29
  10   4  -4  101.00    7.67
 -10   4   4   79.05    7.20
 -10   4   4   86.32    7.05
  10   4  -3  195.57   11.64
  10   4  -3  233.58   12.04
 -10   4   3  175.52   10.14
 -10   4   3  217.95   11.51
 -10   4   3  263.62   13.76
  10   4  -2   14.56    3.20
  10   4  -2   12.37    2.59
 -10   4   2   14.40    3.23
 -10   4   2   11.38    2.63
  10   4  -1  242.54   13.02
 -10   4   1  216.59   11.53
 -10   4   0   92.77    5.61
 -10   4   0   91.55    6.37
  10   4   1  174.74    9.63
  10   5  -3   10.04    2.05
 -10   5   3   12.45    2.42
  10   5  -2  396.36   14.35
 -10   5   2  399.45   14.62
  10   5  -1  112.46    6.71
 -10   5   1  159.50    7.53
  11  -4  -3   49.52    3.97
  11  -4  -3   16.40    2.34
  11  -3  -7    0.47    0.87
  11  -3  -7    0.80    1.10
  11  -3  -6   72.52    5.32
 -11  -3   6   65.65    4.92
  11  -3  -6   70.08    5.20
  11  -3  -5  196.87    9.80
  11  -3  -5  205.33    9.22
  11  -3  -4   24.13    3.78
  11  -3  -4   23.45    3.61
  11  -3  -4   24.71    3.28
 -11  -3   4   25.82    3.60
  11  -3  -4   21.61    3.05
  11  -3  -3   34.13    4.54
  11  -3  -3   30.59    3.85
 -11  -3   3   31.94    4.11
  11  -3  -3   20.13    2.87
  11  -3  -2    5.44    1.93
  11  -3  -2    2.35    1.22
 -11  -3   2    7.72    2.22
  11  -3  -1  259.36   12.37
 -11  -3   1  230.82   11.43
  11  -3   0   15.08    2.59
  11  -3   0    8.07    1.91
  11  -2  -8   19.71    2.69
 -11  -2   8   18.97    4.79
 -11  -2   7  158.80    8.55
  11  -2  -7  132.87    8.12
 -11  -2   6   34.18    4.15
  11  -2  -6   26.14    3.53
  11  -2  -5   61.62    5.97
  11  -2  -5   70.05    6.34
 -11  -2   5   81.99    7.16
  11  -2  -5   63.49    5.49
  11  -2  -4  146.04    9.99
  11  -2  -4  160.20    9.06
  11  -2  -4  164.07   10.52
 -11  -2   4  173.24   11.08
  11  -2  -4  135.87    8.15
  11  -2  -3   44.64    5.77
  11  -2  -3   34.63    5.00
  11  -2  -3   40.69    4.84
  11  -2  -3   38.98    5.31
 -11  -2   3   39.48    5.39
  11  -2  -2  266.44   14.47
  11  -2  -2  237.93   13.22
  11  -2  -2  222.14   13.61
 -11  -2   2  229.88   12.26
  11  -2  -1   20.58    3.97
  11  -2  -1   11.07    3.04
  11  -2  -1   13.32    3.40
 -11  -2   1   11.52    2.78
 -11  -2   1   11.25    2.87
  11  -2   0  226.17   12.99
 -11  -2   0  241.97   12.07
 -11  -2   0  237.31   11.85
  11  -2   1  171.71    9.92
 -11  -2  -1  165.07    8.64
 -11  -2  -1  190.47    8.54
 -11  -1   9   30.47    5.50
  11  -1  -8   36.83    3.83
 -11  -1   8   33.21    3.60
  11  -1  -8   33.57    5.16
  11  -1  -7  106.48    7.16
 -11  -1   7  100.22    7.35
  11  -1  -6  296.48   13.08
  11  -1  -6  275.96   12.43
 -11  -1   6  300.47   14.30
  11  -1  -5  338.03   15.43
  11  -1  -5  344.41   15.77
  11  -1  -5  327.39   16.04
  11  -1  -4  301.35   16.16
  11  -1  -4  312.31   15.29
  11  -1  -4  330.68   16.11
 -11  -1   4  311.42   14.79
  11  -1  -3   85.97    8.28
  11  -1  -3   73.85    7.11
  11  -1  -3   85.50    8.19
 -11  -1   3   82.39    8.10
 -11  -1   3   82.69    7.54
  11  -1  -2  121.44    9.69
  11  -1  -2   89.52    7.92
  11  -1  -2  104.27    9.66
  11  -1  -2  106.72    9.52
 -11  -1   2  103.13    8.86
 -11  -1   2  104.56    8.76
  11  -1  -1  165.33   10.85
  11  -1  -1  132.45   11.25
  11  -1  -1  123.47   10.35
 -11  -1   1  137.31    9.65
 -11  -1   1  136.47   10.03
  11  -1   0  161.05   12.17
  11  -1   0  155.93   11.19
 -11  -1   0  158.56    9.35
 -11  -1   0  149.96   10.08
  11  -1   1   24.66    4.62
  11  -1   1   24.44    4.07
 -11  -1  -1   22.81    2.69
 -11  -1  -1   21.97    3.29
  11   0  -9   55.32    4.17
 -11   0   9   47.50    7.42
  11   0  -9   43.06    4.80
  11   0  -8    8.26    2.98
  11   0  -8    8.64    2.01
 -11   0   8    6.98    2.00
  11   0  -7   41.63    4.36
  11   0  -7   42.67    4.59
 -11   0   7   43.95    5.11
 -11   0   7   50.60    9.71
  11   0  -6   21.91    3.38
  11   0  -6   22.17    3.63
 -11   0   6   24.70    4.20
  11   0  -5    3.91    2.02
  11   0  -5    4.57    2.23
 -11   0   5    3.62    2.31
 -11   0   5    2.82    1.52
  11   0  -5    5.22    2.31
  11   0  -4    6.79    2.55
 -11   0   4   17.11    3.45
  11   0  -4    8.07    2.87
  11   0  -4    7.46    2.67
 -11   0   4    7.69    2.71
 -11   0   4   10.56    3.39
  11   0  -3   26.25    3.99
  11   0  -3   22.96    3.51
  11   0  -3   29.03    5.04
 -11   0   3   26.48    3.92
  11   0  -3   28.25    4.80
 -11   0   3   34.05    5.18
 -11   0   3   30.04    4.96
  11   0  -2   84.37    6.97
  11   0  -2   81.73    7.27
  11   0  -2   97.02    9.57
 -11   0   2   90.05    6.57
  11   0  -2  103.46    9.02
 -11   0   2   89.36    7.92
 -11   0   2   93.72    8.80
  11   0  -1    0.56    1.72
 -11   0   1    0.94    0.95
  11   0  -1    0.62    2.13
 -11   0   1    0.12    1.81
 -11   0   1    0.35    1.20
  11   0   0  394.57   18.95
  11   0   0  438.70   19.78
 -11   0   0  432.06   16.14
 -11   0   0  400.95   18.25
  11   0   1   40.18    5.05
  11   0   1   51.55    6.59
  11   0   1   49.05    5.32
 -11   0  -1   35.38    4.30
  11   0   2   34.59    4.37
 -11   0  -2   25.28    2.80
  11   1  -9   45.06    4.81
  11   1  -8   47.36    4.10
 -11   1   8   53.02    5.24
 -11   1   8   48.60    8.58
  11   1  -7   87.99    6.15
  11   1  -7   95.82    7.11
 -11   1   7  105.79    8.28
 -11   1   7  100.10   13.08
  11   1  -7   98.36    9.91
  11   1  -6  287.77   12.79
  11   1  -6  305.74   14.35
 -11   1   6  280.08   22.71
  11   1  -5  288.04   12.82
  11   1  -5  288.90   12.59
  11   1  -5  307.93   15.07
 -11   1   5  287.13   15.19
 -11   1   5  281.85   13.05
 -11   1   5  265.64   21.38
  11   1  -4  280.68   12.50
  11   1  -4  277.73   13.25
  11   1  -4  302.14   15.48
 -11   1   4  258.99   13.92
 -11   1   4  259.63   13.51
  11   1  -4  313.26   14.56
 -11   1   4  248.05   19.17
  11   1  -3   89.50    7.48
 -11   1   3   76.05    6.53
  11   1  -3   98.95    7.89
 -11   1   3  106.88    9.28
  11   1  -2  100.20    8.49
  11   1  -2  122.60   10.26
 -11   1   2   91.67    6.53
  11   1  -2  110.43    8.60
 -11   1   2  112.82    8.08
 -11   1   2  104.43    9.21
  11   1  -1  147.44   10.78
  11   1  -1  165.30   12.31
  11   1  -1  167.13   10.54
  11   1   0  146.64   11.02
  11   1   0  186.72   12.72
  11   1   0  184.33   10.15
 -11   1   0  148.18    9.83
  11   1   1   20.10    3.83
  11   1   1   27.40    4.40
 -11   1  -1   22.25    3.14
 -11   2   8   18.98    3.10
 -11   2   8   20.65    5.08
  11   2  -8   18.38    3.53
  11   2  -7  153.01    9.01
 -11   2   7  171.05   10.55
 -11   2   7  160.75   15.08
  11   2  -7  148.42   11.67
 -11   2   6   27.60    4.34
 -11   2   6   18.71    5.35
  11   2  -6   22.45    5.12
  11   2  -5   62.03    5.21
 -11   2   5   54.39    5.99
 -11   2   5   67.01    5.64
 -11   2   5   45.95    7.57
  11   2  -5   54.52    7.98
  11   2  -4  146.77    8.98
  11   2  -4  160.66   10.27
 -11   2   4  126.04    8.99
 -11   2   4  146.36    9.30
  11   2  -4  133.90   12.52
  11   2  -3   38.10    4.69
  11   2  -3   41.65    5.37
 -11   2   3   30.05    3.86
 -11   2   3   29.63    4.28
  11   2  -3   30.27    5.64
 -11   2   2  189.72    9.30
 -11   2   2  198.25   11.30
  11   2  -1   14.18    3.35
  11   2  -1   14.23    3.32
 -11   2   1    9.31    2.39
  11   2   0  251.18   13.79
 -11   2   0  215.83   10.52
 -11   2  -1  160.59    7.09
  11   3  -7    0.81    1.21
  11   3  -6   69.65    5.69
 -11   3   6   66.95    6.26
  11   3  -6   57.48    6.11
  11   3  -5  194.41    9.08
  11   3  -5  191.23   10.06
 -11   3   5  205.69    9.51
  11   3  -4   20.46    3.05
  11   3  -4   20.78    3.35
 -11   3   4   16.71    2.91
 -11   3   4   20.67    3.12
  11   3  -3   31.11    3.91
  11   3  -3   32.15    4.07
 -11   3   3   22.32    2.84
 -11   3   3   26.38    3.60
 -11   3   3   30.41    3.68
  11   3  -2    6.35    2.11
  11   3  -2    9.35    2.26
 -11   3   2    4.15    1.65
 -11   3   1  192.94    8.96
  11   3   0   17.23    2.90
 -11   3   0   11.61    1.69
  11   4  -4   73.23    4.98
  11   4  -2   28.29    3.12
  12  -2  -5   30.81    3.01
 -12  -2   5   44.32    3.86
  12  -2  -4    2.67    1.19
 -12  -2   4    6.94    1.63
  12  -2  -4    5.25    1.42
 -12  -2   3    9.14    1.65
  12  -2  -3   11.15    1.92
 -12  -2   3   14.82    2.39
  12  -1  -6  280.42   11.20
 -12  -1   6  302.07   12.62
  12  -1  -5   -0.14    0.96
  12  -1  -4    9.87    1.91
  12  -1  -4   12.67    2.05
 -12  -1   4   13.53    2.35
  12  -1  -3    2.71    1.18
 -12  -1   3    6.67    1.59
  12  -1  -3    8.57    1.89
  12  -1  -3    9.47    2.15
  12  -1  -2   12.94    2.26
  12  -1  -2   12.88    2.33
 -12  -1   2   14.70    2.36
 -12   0   7    9.25    1.97
 -12   0   7    6.61    2.89
 -12   0   6  433.21   23.27
  12   0  -5  730.64   20.27
 -12   0   5  667.67   20.78
 -12   0   5  475.53   24.16
  12   0  -4   14.45    2.57
 -12   0   4   10.18    2.17
  12   0  -4   12.00    2.35
  12   0  -3  315.43   13.25
 -12   0   3  243.15   10.64
 -12   0   3  258.22   10.93
  12   0  -3  333.91   12.93
  12   0  -2  109.02    7.13
  12   0  -2  107.67    6.50
 -12   0   1   23.64    2.92
  12   1  -6  308.64   12.21
 -12   1   6  311.33   13.25
  12   1  -5    0.46    1.43
  12   1  -5    0.86    1.09
 -12   1   5    0.27    1.09
  12   1  -4    9.72    2.77
  12   1  -4   12.59    2.40
 -12   1   4   10.67    2.09
 -12   1   4   12.76    2.01
 -12   1   3   10.63    2.00
  12   1  -2   10.00    2.25
 -12   1   2    8.85    1.78
  12   2  -4    9.51    1.95
  12   2  -3    8.60    1.82
 -12   2   3    7.38    1.48
   0   0   0    0.00    0.00


TITL exp_796 in P2(1)
REM P2(1) (#4 in standard setting)
CELL 1.54184   9.933067   7.244005  10.548266  90.0000 108.1563  90.0000
ZERR    3.00   0.000185   0.000138   0.000198   0.0000   0.0020   0.0000
LATT -1
SYMM -x, y+1/2,-z
SFAC C H N O
UNIT 33.00 30.00 3.00 3.00
TREF
HKLF 4
END
_computing_structure_solution     'SHELXT 2014/5 (Sheldrick, 2014)'
;
_shelx_hkl_checksum              12713
_olex2_submission_special_instructions 'No special instructions were received'
_oxdiff_exptl_absorpt_empirical_details
;
Empirical correction (ABSPACK) includes:
- Absorption correction using spherical harmonics
- Frame scaling
;
_oxdiff_exptl_absorpt_empirical_full_max 10.907
_oxdiff_exptl_absorpt_empirical_full_min 0.281
loop_
_space_group_symop_operation_xyz
'x, y, z'
'-x, y+1/2, -z'
loop_
_atom_site_label
_atom_site_type_symbol
_atom_site_fract_x
_atom_site_fract_y
_atom_site_fract_z
_atom_site_U_iso_or_equiv
_atom_site_adp_type
_atom_site_occupancy
_atom_site_site_symmetry_order
_atom_site_calc_flag
_atom_site_refinement_flags_posn
Si1 Si 0.58362(6) 0.56141(9) 0.21116(6) 0.0149(2) Uani 1 1 d .
O1 O 0.3123(2) 0.5438(3) 0.03396(19) 0.0320(5) Uani 1 1 d .
N1 N 0.9646(2) 0.4325(3) 0.6773(2) 0.0201(5) Uani 1 1 d .
C1 C 0.6511(3) 0.4312(3) 0.3721(2) 0.0148(5) Uani 1 1 d .
C2 C 0.7790(2) 0.4791(4) 0.4650(2) 0.0157(5) Uani 1 1 d .
H2 H 0.829285 0.578263 0.446482 0.019 Uiso 1 1 calc R
C3 C 0.8368(3) 0.3828(4) 0.5877(3) 0.0177(5) Uani 1 1 d .
C4 C 0.7564(3) 0.2332(4) 0.6106(3) 0.0196(5) Uani 1 1 d .
H4 H 0.790240 0.164948 0.688738 0.024 Uiso 1 1 calc R
C5 C 0.6285(3) 0.1868(4) 0.5188(3) 0.0195(5) Uani 1 1 d .
H5 H 0.578455 0.087019 0.537011 0.023 Uiso 1 1 calc R
C6 C 0.5705(2) 0.2841(3) 0.3988(2) 0.0161(5) Uani 1 1 d .
C7 C 0.4302(3) 0.2335(4) 0.3131(3) 0.0195(5) Uani 1 1 d .
H7 H 0.390278 0.130633 0.340200 0.023 Uiso 1 1 calc R
C8 C 0.3493(3) 0.3152(4) 0.1990(3) 0.0210(6) Uani 1 1 d .
H8 H 0.259320 0.267243 0.158145 0.025 Uiso 1 1 calc R
C9 C 0.3938(3) 0.4730(4) 0.1364(3) 0.0199(5) Uani 1 1 d .
C10 C 0.6813(3) 0.4942(4) 0.0937(2) 0.0211(5) Uani 1 1 d .
H10A H 0.779447 0.526424 0.131415 0.032 Uiso 1 1 calc GR
H10B H 0.641938 0.558126 0.010604 0.032 Uiso 1 1 calc GR
H10C H 0.672871 0.363477 0.078439 0.032 Uiso 1 1 calc GR
C11 C 0.5884(3) 0.8139(4) 0.2415(3) 0.0241(6) Uani 1 1 d .
H11A H 0.524898 0.844195 0.290871 0.036 Uiso 1 1 calc GR
H11B H 0.559761 0.877947 0.157653 0.036 Uiso 1 1 calc GR
H11C H 0.682923 0.850218 0.291670 0.036 Uiso 1 1 calc GR
C12 C 1.0374(3) 0.6004(4) 0.6580(3) 0.0219(6) Uani 1 1 d .
H12A H 1.042772 0.600514 0.567711 0.026 Uiso 1 1 calc R
H12B H 1.133640 0.597271 0.718455 0.026 Uiso 1 1 calc R
C13 C 0.9679(3) 0.7795(4) 0.6805(3) 0.0232(6) Uani 1 1 d .
H13A H 0.869543 0.778318 0.628628 0.035 Uiso 1 1 calc GR
H13B H 1.013994 0.882159 0.653821 0.035 Uiso 1 1 calc GR
H13C H 0.976478 0.791092 0.773386 0.035 Uiso 1 1 calc GR
C14 C 1.0116(3) 0.3476(4) 0.8104(3) 0.0240(6) Uani 1 1 d .
H14A H 1.111514 0.374106 0.851335 0.029 Uiso 1 1 calc R
H14B H 1.001440 0.214768 0.800357 0.029 Uiso 1 1 calc R
C15 C 0.9316(4) 0.4125(5) 0.9034(3) 0.0289(6) Uani 1 1 d .
H15A H 0.831681 0.398222 0.860357 0.043 Uiso 1 1 calc GR
H15B H 0.952743 0.540112 0.925176 0.043 Uiso 1 1 calc GR
H15C H 0.959848 0.340100 0.983653 0.043 Uiso 1 1 calc GR
loop_
_atom_site_aniso_label
_atom_site_aniso_U_11
_atom_site_aniso_U_22
_atom_site_aniso_U_33
_atom_site_aniso_U_23
_atom_site_aniso_U_13
_atom_site_aniso_U_12
Si1 0.0145(3) 0.0155(4) 0.0159(3) -0.0004(2) 0.0063(2) -0.0019(2)
O1 0.0224(10) 0.0355(13) 0.0316(10) 0.0038(10) -0.0012(8) -0.0025(9)
N1 0.0177(10) 0.0250(12) 0.0178(10) 0.0005(9) 0.0059(9) 0.0020(9)
C1 0.0172(12) 0.0125(12) 0.0188(11) -0.0011(9) 0.0116(10) 0.0014(9)
C2 0.0168(11) 0.0167(12) 0.0174(11) -0.0012(9) 0.0106(9) -0.0010(9)
C3 0.0177(12) 0.0198(13) 0.0190(11) -0.0026(9) 0.0108(9) 0.0031(9)
C4 0.0263(13) 0.0182(14) 0.0178(12) 0.0036(9) 0.0118(10) 0.0034(10)
C5 0.0235(12) 0.0165(12) 0.0247(12) 0.0005(10) 0.0164(10) -0.0017(10)
C6 0.0184(12) 0.0135(13) 0.0209(11) -0.0036(9) 0.0125(10) 0.0006(9)
C7 0.0207(12) 0.0158(14) 0.0276(12) -0.0054(10) 0.0157(10) -0.0055(9)
C8 0.0140(11) 0.0256(14) 0.0257(12) -0.0073(11) 0.0097(10) -0.0060(10)
C9 0.0149(12) 0.0226(14) 0.0223(12) -0.0037(10) 0.0060(9) -0.0016(10)
C10 0.0210(12) 0.0251(14) 0.0188(11) 0.0000(10) 0.0083(9) -0.0051(10)
C11 0.0291(14) 0.0194(14) 0.0241(12) 0.0008(11) 0.0089(10) -0.0023(11)
C12 0.0149(11) 0.0305(17) 0.0218(12) -0.0023(10) 0.0080(9) -0.0026(10)
C13 0.0237(13) 0.0251(15) 0.0243(13) -0.0030(11) 0.0124(11) -0.0051(11)
C14 0.0236(14) 0.0269(15) 0.0196(13) 0.0022(11) 0.0039(10) 0.0072(11)
C15 0.0401(17) 0.0277(16) 0.0203(12) 0.0044(11) 0.0113(12) 0.0083(12)
loop_
_atom_type_symbol
_atom_type_description
_atom_type_scat_dispersion_real
_atom_type_scat_dispersion_imag
_atom_type_scat_source
C C 0.0181 0.0091 'International Tables Vol C Tables 4.2.6.8 and 6.1.1.4'
H H 0.0000 0.0000 'International Tables Vol C Tables 4.2.6.8 and 6.1.1.4'
N N 0.0311 0.0180 'International Tables Vol C Tables 4.2.6.8 and 6.1.1.4'
O O 0.0492 0.0322 'International Tables Vol C Tables 4.2.6.8 and 6.1.1.4'
Si Si 0.2541 0.3302 'International Tables Vol C Tables 4.2.6.8 and 6.1.1.4'
loop_
_geom_angle_atom_site_label_1
_geom_angle_atom_site_label_2
_geom_angle_atom_site_label_3
_geom_angle
C1 Si1 C9 103.49(11)
C10 Si1 C1 110.99(11)
C10 Si1 C9 106.82(11)
C11 Si1 C1 110.93(12)
C11 Si1 C9 111.72(12)
C11 Si1 C10 112.47(13)
C3 N1 C12 120.9(2)
C3 N1 C14 119.9(2)
C12 N1 C14 117.2(2)
C2 C1 Si1 120.35(19)
C2 C1 C6 120.0(2)
C6 C1 Si1 119.66(19)
C1 C2 H2 118.6
C1 C2 C3 122.8(2)
C3 C2 H2 118.6
N1 C3 C2 121.4(2)
N1 C3 C4 122.3(2)
C4 C3 C2 116.2(2)
C3 C4 H4 119.5
C5 C4 C3 121.0(2)
C5 C4 H4 119.5
C4 C5 H5 118.7
C4 C5 C6 122.6(2)
C6 C5 H5 118.7
C1 C6 C7 124.1(2)
C5 C6 C1 117.3(2)
C5 C6 C7 118.6(2)
C6 C7 H7 115.5
C8 C7 C6 129.1(2)
C8 C7 H7 115.5
C7 C8 H8 117.8
C7 C8 C9 124.4(2)
C9 C8 H8 117.8
O1 C9 Si1 120.8(2)
O1 C9 C8 120.7(2)
C8 C9 Si1 118.39(19)
Si1 C10 H10A 109.5
Si1 C10 H10B 109.5
Si1 C10 H10C 109.5
H10A C10 H10B 109.5
H10A C10 H10C 109.5
H10B C10 H10C 109.5
Si1 C11 H11A 109.5
Si1 C11 H11B 109.5
Si1 C11 H11C 109.5
H11A C11 H11B 109.5
H11A C11 H11C 109.5
H11B C11 H11C 109.5
N1 C12 H12A 108.6
N1 C12 H12B 108.6
N1 C12 C13 114.78(19)
H12A C12 H12B 107.5
C13 C12 H12A 108.6
C13 C12 H12B 108.6
C12 C13 H13A 109.5
C12 C13 H13B 109.5
C12 C13 H13C 109.5
H13A C13 H13B 109.5
H13A C13 H13C 109.5
H13B C13 H13C 109.5
N1 C14 H14A 108.6
N1 C14 H14B 108.6
N1 C14 C15 114.5(2)
H14A C14 H14B 107.6
C15 C14 H14A 108.6
C15 C14 H14B 108.6
C14 C15 H15A 109.5
C14 C15 H15B 109.5
C14 C15 H15C 109.5
H15A C15 H15B 109.5
H15A C15 H15C 109.5
H15B C15 H15C 109.5
loop_
_geom_bond_atom_site_label_1
_geom_bond_atom_site_label_2
_geom_bond_distance
Si1 C1 1.874(2)
Si1 C9 1.913(3)
Si1 C10 1.861(3)
Si1 C11 1.855(3)
O1 C9 1.241(3)
N1 C3 1.373(4)
N1 C12 1.462(4)
N1 C14 1.469(3)
C1 C2 1.385(3)
C1 C6 1.413(3)
C2 H2 0.9300
C2 C3 1.424(4)
C3 C4 1.411(4)
C4 H4 0.9300
C4 C5 1.378(4)
C5 H5 0.9300
C5 C6 1.406(4)
C6 C7 1.451(3)
C7 H7 0.9300
C7 C8 1.357(4)
C8 H8 0.9300
C8 C9 1.457(4)
C10 H10A 0.9600
C10 H10B 0.9600
C10 H10C 0.9600
C11 H11A 0.9600
C11 H11B 0.9600
C11 H11C 0.9600
C12 H12A 0.9700
C12 H12B 0.9700
C12 C13 1.523(4)
C13 H13A 0.9600
C13 H13B 0.9600
C13 H13C 0.9600
C14 H14A 0.9700
C14 H14B 0.9700
C14 C15 1.517(4)
C15 H15A 0.9600
C15 H15B 0.9600
C15 H15C 0.9600
