#------------------------------------------------------------------------------
#$Date: 2019-11-23 18:28:50 +0200 (Sat, 23 Nov 2019) $
#$Revision: 234429 $
#$URL: file:///home/coder/svn-repositories/cod/cif/7/12/50/7125017.cif $
#------------------------------------------------------------------------------
#
# This file is available in the Crystallography Open Database (COD),
# http://www.crystallography.net/
#
# All data on this site have been placed in the public domain by the
# contributors.
#
data_7125017
loop_
_publ_author_name
'Meyer, Andreas Uwe'
'Berger, Anna Lucia'
'K\"onig, Burkhard'
_publ_section_title
;
 Metal-free C-H sulfonamidation of pyrroles by visible light photoredox
 catalysis.
;
_journal_issue                   72
_journal_name_full
'Chemical communications (Cambridge, England)'
_journal_page_first              10918
_journal_page_last               10921
_journal_paper_doi               10.1039/c6cc06111g
_journal_volume                  52
_journal_year                    2016
_chemical_formula_moiety         'C15 H20 N2 O2 S'
_chemical_formula_sum            'C15 H20 N2 O2 S'
_chemical_formula_weight         292.39
_space_group_crystal_system      triclinic
_space_group_IT_number           2
_space_group_name_Hall           '-P 1'
_space_group_name_H-M_alt        'P -1'
_atom_sites_solution_hydrogens   geom
_atom_sites_solution_primary     direct
_audit_creation_date             2016-06-22
_audit_creation_method
;
Olex2 1.2-alpha
(compiled 2016.02.24 svn.r3266 for OlexSys, GUI svn.r5155)
;
_audit_update_record
;
2016-07-21 deposited with the CCDC.
2016-08-12 downloaded from the CCDC.
;
_cell_angle_alpha                98.630(2)
_cell_angle_beta                 96.960(3)
_cell_angle_gamma                92.679(3)
_cell_formula_units_Z            2
_cell_length_a                   6.2192(2)
_cell_length_b                   9.1506(2)
_cell_length_c                   13.4968(3)
_cell_measurement_reflns_used    6786
_cell_measurement_temperature    123.01(10)
_cell_measurement_theta_max      73.3320
_cell_measurement_theta_min      5.4570
_cell_volume                     752.15(3)
_computing_cell_refinement       'CrysAlisPro 1.171.38.42b (Rigaku OD, 2015)'
_computing_data_collection       'CrysAlisPro 1.171.38.42b (Rigaku OD, 2015)'
_computing_data_reduction        'CrysAlisPro 1.171.38.42b (Rigaku OD, 2015)'
_computing_molecular_graphics    'Olex2 (Dolomanov et al., 2009)'
_computing_publication_material  'Olex2 (Dolomanov et al., 2009)'
_computing_structure_refinement  'ShelXL (Sheldrick, 2015)'
_computing_structure_solution    'ShelXT (Sheldrick, 2015)'
_diffrn_ambient_environment      N~2~
_diffrn_ambient_temperature      123.01(10)
_diffrn_detector                 'CCD plate'
_diffrn_detector_area_resol_mean 5.1773
_diffrn_detector_type            Atlas
_diffrn_measured_fraction_theta_full 0.994
_diffrn_measured_fraction_theta_max 0.968
_diffrn_measurement_details
;
List of Runs (angles in degrees, time in seconds):

  # Type    Start    End  Width  t~exp~   \w     \q     \k     \f   Frames
#--------------------------------------------------------------------------
  1  \w   -115.00 -11.00   1.00    1.00    --  -40.71 -57.00-150.00  104
  2  \w    -70.00  33.00   1.00    1.00    --  -40.71  57.00   0.00  103
  3  \w    -20.00  83.00   1.00    1.00    --   40.71 -99.00 120.00  103
  4  \w     32.00  77.00   1.00    2.00    --  106.98 -45.00  60.00   45
  5  \w     32.00  77.00   1.00    2.00    --  106.98 -45.00 -30.00   45
  6  \w     76.00 158.00   1.00    2.00    --  106.98  30.00-180.00   82
  7  \w     32.00 121.00   1.00    2.00    --  106.98-125.00-120.00   89
  8  \w     23.00 109.00   1.00    2.00    --  106.98 -94.00 -30.00   86
  9  \w     23.00 109.00   1.00    2.00    --  106.98 -94.00  60.00   86
 10  \w     23.00 109.00   1.00    2.00    --  106.98 -94.00 -90.00   86
 11  \w     46.00 158.00   1.00    2.00    --  106.98  15.00 -60.00  112
 12  \w     29.00  69.00   1.00    2.00    --  106.98 -30.00 -60.00   40
 13  \w     23.00 109.00   1.00    2.00    --  106.98 -94.00 150.00   86
 14  \w     29.00  69.00   1.00    2.00    --  106.98 -30.00  30.00   40
 15  \w     29.00  69.00   1.00    2.00    --  106.98 -30.00 -90.00   40
 16  \w     29.00  69.00   1.00    2.00    --  106.98 -30.00   0.00   40
 17  \w    -67.00  35.00   1.00    1.00    --  -40.71  37.00 -90.00  102
 18  \w   -119.00  -7.00   1.00    1.00    --  -40.71 -77.00 -30.00  112
 19  \w   -115.00 -11.00   1.00    1.00    --  -40.71 -57.00  30.00  104
 20  \w   -115.00 -11.00   1.00    1.00    --  -40.71 -57.00 120.00  104
 21  \w     77.00 158.00   1.00    2.00    --  106.98  61.00  90.00   81
 22  \w     73.00 158.00   1.00    2.00    --  106.98  77.00 -60.00   85
 23  \w     46.00 158.00   1.00    2.00    --  106.98  15.00  60.00  112
 24  \w     73.00 158.00   1.00    2.00    --  106.98  77.00   0.00   85
 25  \w     73.00 158.00   1.00    2.00    --  106.98  77.00-180.00   85
 26  \w     77.00 113.00   1.00    2.00    --  106.98  61.00 120.00   36
 27  \w     77.00 158.00   1.00    2.00    --  106.98  61.00  60.00   81
;
_diffrn_measurement_device       'four-circle diffractometer'
_diffrn_measurement_device_type  'SuperNova, Single source at offset, Atlas'
_diffrn_measurement_method       '\w scans'
_diffrn_orient_matrix_type
'CrysAlisPro convention (1999,Acta A55,543-557)'
_diffrn_orient_matrix_UB_11      0.0398002000
_diffrn_orient_matrix_UB_12      -0.1662747000
_diffrn_orient_matrix_UB_13      -0.0172522000
_diffrn_orient_matrix_UB_21      0.0097122000
_diffrn_orient_matrix_UB_22      0.0053684000
_diffrn_orient_matrix_UB_23      -0.1129205000
_diffrn_orient_matrix_UB_31      0.2467190000
_diffrn_orient_matrix_UB_32      0.0380544000
_diffrn_orient_matrix_UB_33      0.0225482000
_diffrn_radiation_monochromator  mirror
_diffrn_radiation_probe          x-ray
_diffrn_radiation_type           CuK\a
_diffrn_radiation_wavelength     1.54184
_diffrn_reflns_av_R_equivalents  0.0134
_diffrn_reflns_av_unetI/netI     0.0118
_diffrn_reflns_Laue_measured_fraction_full 0.994
_diffrn_reflns_Laue_measured_fraction_max 0.968
_diffrn_reflns_limit_h_max       7
_diffrn_reflns_limit_h_min       -7
_diffrn_reflns_limit_k_max       11
_diffrn_reflns_limit_k_min       -11
_diffrn_reflns_limit_l_max       16
_diffrn_reflns_limit_l_min       -16
_diffrn_reflns_number            9320
_diffrn_reflns_point_group_measured_fraction_full 0.994
_diffrn_reflns_point_group_measured_fraction_max 0.968
_diffrn_reflns_theta_full        67.500
_diffrn_reflns_theta_max         73.448
_diffrn_reflns_theta_min         3.340
_diffrn_source                   'micro-focus sealed X-ray tube'
_diffrn_source_type              'SuperNova (Cu) X-ray Source'
_exptl_absorpt_coefficient_mu    1.937
_exptl_absorpt_correction_T_max  0.875
_exptl_absorpt_correction_T_min  0.839
_exptl_absorpt_correction_type   gaussian
_exptl_absorpt_process_details
;
CrysAlisPro 1.171.38.42b (Rigaku Oxford Diffraction, 2015)
Numerical absorption correction based on gaussian integration over
			a multifaceted crystal model
Empirical absorption correction using spherical harmonics,
 implemented in SCALE3 ABSPACK scaling algorithm.
;
_exptl_crystal_colour            'clear colourless'
_exptl_crystal_density_diffrn    1.291
_exptl_crystal_description       prism
_exptl_crystal_F_000             312
_exptl_crystal_size_max          0.237
_exptl_crystal_size_mid          0.188
_exptl_crystal_size_min          0.188
_refine_diff_density_max         0.288
_refine_diff_density_min         -0.364
_refine_diff_density_rms         0.041
_refine_ls_extinction_method     none
_refine_ls_goodness_of_fit_ref   1.052
_refine_ls_hydrogen_treatment    constr
_refine_ls_matrix_type           full
_refine_ls_number_parameters     183
_refine_ls_number_reflns         2944
_refine_ls_number_restraints     0
_refine_ls_restrained_S_all      1.052
_refine_ls_R_factor_all          0.0307
_refine_ls_R_factor_gt           0.0299
_refine_ls_shift/su_max          0.001
_refine_ls_shift/su_mean         0.000
_refine_ls_structure_factor_coef Fsqd
_refine_ls_weighting_details
'w=1/[\s^2^(Fo^2^)+(0.0348P)^2^+0.3698P] where P=(Fo^2^+2Fc^2^)/3'
_refine_ls_weighting_scheme      calc
_refine_ls_wR_factor_gt          0.0757
_refine_ls_wR_factor_ref         0.0764
_reflns_Friedel_coverage         0.000
_reflns_number_gt                2853
_reflns_number_total             2944
_reflns_threshold_expression     'I > 2\s(I)'
_cod_data_source_file            c6cc06111g2.cif
_cod_data_source_block           p093
_cod_original_cell_volume        752.15(4)
_cod_database_code               7125017
_chemical_oxdiff_formula         'C15 H20 N2 O2 S'
_chemical_oxdiff_usercomment     'Meyer_Koenig_AM-1267 (AM-III-019),F.1.2'
_shelx_space_group_comment
;
The symmetry employed for this shelxl refinement is uniquely defined
by the following loop, which should always be used as a source of
symmetry information in preference to the above space-group names.
They are only intended as comments.
;
_reflns_odcompleteness_completeness 99.44
_reflns_odcompleteness_iscentric 1
_reflns_odcompleteness_theta     66.97
_olex2_refinement_description
;
1. Fixed Uiso
 At 1.2 times of:
  All C(H) groups, All C(H,H) groups
 At 1.5 times of:
  All C(H,H,H) groups
2.a Secondary CH2 refined with riding coordinates:
 C2(H2A,H2B), C3(H3A,H3B), C9(H9A,H9B)
2.b Aromatic/amide H refined with riding coordinates:
 C5(H5), C11(H11), C6(H6), C7(H7), C15(H15), C12(H12), C13(H13), C14(H14)
2.c Idealised Me refined as rotating group:
 C8(H8A,H8B,H8C), C1(H1A,H1B,H1C)
;
_shelx_res_file
;
    p093.res created by SHELXL-2014/7

TITL p093_a.res in P-1
REM Old TITL P093 in P-1 #2
REM SHELXT solution in P-1
REM R1 0.093, Rweak 0.006, Alpha 0.042, Orientation as input
REM Formula found by SHELXT: C15 N2 O2 S
CELL 1.54184 6.2192 9.150586 13.496781 98.6297 96.96 92.6785
ZERR 2 0.000234 0.000241 0.000344 0.0022 0.0026 0.0026
LATT 1
SFAC C H N O S
UNIT 30 40 4 4 2

L.S. 10
PLAN  20
BOND $H
MORE -1
CONF
fmap 2
acta 135
REM <olex2.extras>
REM <HklSrc "%.\\P093.hkl">
REM </olex2.extras>

WGHT    0.034800    0.369800
FVAR       0.98747
S1    5    0.322023    0.560381    0.822030    11.00000    0.01916    0.01880 =
         0.01869    0.00207    0.00291    0.00313
O1    4    0.247368    0.669493    0.761899    11.00000    0.02650    0.02467 =
         0.02818    0.00649    0.00042    0.00756
O2    4    0.172003    0.488151    0.874919    11.00000    0.02437    0.02614 =
         0.02969    0.00267    0.01060    0.00186
N2    3    0.335672    0.175355    0.770019    11.00000    0.02184    0.01958 =
         0.02235    0.00031    0.00347   -0.00129
N1    3    0.415619    0.428087    0.745054    11.00000    0.02232    0.01834 =
         0.01486    0.00177    0.00290    0.00130
C10   1    0.444148    0.354791    0.564626    11.00000    0.02516    0.02038 =
         0.01507    0.00360    0.00306   -0.00238
C4    1    0.476222    0.299670    0.785408    11.00000    0.02010    0.01757 =
         0.01652    0.00043    0.00412    0.00017
C2    1    0.722612    0.717407    0.867983    11.00000    0.02393    0.01995 =
         0.01987    0.00172    0.00096    0.00156
AFIX  23
H2A   2    0.663322    0.790863    0.829381    11.00000   -1.20000
H2B   2    0.786895    0.644564    0.822610    11.00000   -1.20000
AFIX   0
C5    1    0.665676    0.270979    0.839678    11.00000    0.02245    0.02120 =
         0.02065   -0.00001    0.00089    0.00171
AFIX  43
H5    2    0.787856    0.335932    0.860261    11.00000   -1.20000
AFIX   0
C3    1    0.541889    0.642184    0.912303    11.00000    0.02772    0.01983 =
         0.01570    0.00061    0.00152    0.00112
AFIX  23
H3A   2    0.486798    0.714774    0.961338    11.00000   -1.20000
H3B   2    0.602397    0.566051    0.948036    11.00000   -1.20000
AFIX   0
C9    1    0.524012    0.463852    0.658743    11.00000    0.02384    0.02240 =
         0.01638    0.00270    0.00331   -0.00167
AFIX  23
H9A   2    0.679861    0.460471    0.674658    11.00000   -1.20000
H9B   2    0.493753    0.563327    0.647037    11.00000   -1.20000
AFIX   0
C11   1    0.579248    0.251545    0.524678    11.00000    0.03438    0.02651 =
         0.02420    0.00421    0.00608    0.00405
AFIX  43
H11   2    0.719738    0.248539    0.556659    11.00000   -1.20000
AFIX   0
C6    1    0.640158    0.123514    0.858506    11.00000    0.03263    0.02149 =
         0.02416    0.00259    0.00138    0.00692
AFIX  43
H6    2    0.742734    0.073402    0.893918    11.00000   -1.20000
AFIX   0
C8    1    0.119931    0.157812    0.713269    11.00000    0.02253    0.02837 =
         0.04030   -0.00025    0.00040   -0.00504
AFIX 137
H8A   2    0.058788    0.252530    0.716138    11.00000   -1.50000
H8B   2    0.029361    0.091982    0.741984    11.00000   -1.50000
H8C   2    0.128946    0.117322    0.644149    11.00000   -1.50000
AFIX   0
C7    1    0.436449    0.068221    0.814936    11.00000    0.03479    0.01715 =
         0.02566    0.00261    0.00795    0.00133
AFIX  43
H7    2    0.376685   -0.026588    0.815804    11.00000   -1.20000
AFIX   0
C15   1    0.234093    0.357290    0.516587    11.00000    0.02582    0.03929 =
         0.02166    0.00562    0.00162    0.00024
AFIX  43
H15   2    0.141730    0.425722    0.542943    11.00000   -1.20000
AFIX   0
C1    1    0.896230    0.791919    0.952161    11.00000    0.02914    0.02356 =
         0.02737   -0.00073   -0.00333   -0.00051
AFIX 137
H1A   2    1.008204    0.840454    0.923375    11.00000   -1.50000
H1B   2    0.957709    0.718593    0.988998    11.00000   -1.50000
H1C   2    0.832133    0.863643    0.997132    11.00000   -1.50000
AFIX   0
C12   1    0.506560    0.152538    0.437283    11.00000    0.05872    0.02552 =
         0.02965   -0.00203    0.01585    0.00070
AFIX  43
H12   2    0.598612    0.084028    0.410745    11.00000   -1.20000
AFIX   0
C13   1    0.299282    0.155704    0.390106    11.00000    0.06286    0.03531 =
         0.02001   -0.00395    0.00963   -0.02345
AFIX  43
H13   2    0.250912    0.089138    0.331663    11.00000   -1.20000
AFIX   0
C14   1    0.161439    0.257770    0.429184    11.00000    0.03379    0.05981 =
         0.02250    0.00957   -0.00397   -0.01873
AFIX  43
H14   2    0.020823    0.259697    0.397063    11.00000   -1.20000
AFIX   0
HKLF 4

REM  p093_a.res in P-1
REM R1 =  0.0299 for    2853 Fo > 4sig(Fo)  and  0.0307 for all    2944 data
REM    183 parameters refined using      0 restraints

END

WGHT      0.0348      0.3698

REM Highest difference peak  0.288,  deepest hole -0.364,  1-sigma level  0.041
Q1    1   0.4452  0.6005  0.8707  11.00000  0.05    0.29
Q2    1   0.4740  0.3998  0.6066  11.00000  0.05    0.23
Q3    1   0.3804  0.4810  0.7787  11.00000  0.05    0.23
Q4    1   0.3914  0.2427  0.7802  11.00000  0.05    0.22
Q5    1   0.3823  0.1579  0.4326  11.00000  0.05    0.21
Q6    1   0.5457  0.3055  0.8349  11.00000  0.05    0.20
Q7    1   0.4784  0.2783  0.5595  11.00000  0.05    0.20
Q8    1   0.4584  0.4442  0.7097  11.00000  0.05    0.20
Q9    1   0.5831  0.2866  0.7909  11.00000  0.05    0.20
Q10   1   0.3478  0.3552  0.5422  11.00000  0.05    0.20
Q11   1   0.4382  0.3676  0.7619  11.00000  0.05    0.20
Q12   1   0.6523  0.2043  0.8539  11.00000  0.05    0.19
Q13   1   0.0131  0.1878  0.7517  11.00000  0.05    0.17
Q14   1   0.0880  0.0537  0.6870  11.00000  0.05    0.16
Q15   1   0.2313  0.2258  0.3937  11.00000  0.05    0.16
Q16   1   0.5286  0.2192  0.4785  11.00000  0.05    0.16
Q17   1   0.5486  0.0838  0.8197  11.00000  0.05    0.15
Q18   1   0.8054  0.7577  0.9070  11.00000  0.05    0.15
Q19   1   0.6180  0.6754  0.8839  11.00000  0.05    0.15
Q20   1   0.2933 -0.0435  0.7973  11.00000  0.05    0.14
;
_shelx_res_checksum              64450
_shelx_hkl_file
;
   0   0   1   54.63    0.78
   0   0  -2 1357.96    4.98
   0   0   2 1343.75    5.78
   0   0   2 1346.86    5.55
   0   0   3 5967.44   15.56
   0   0  -3 6004.97   13.08
   0   0   3 6015.66   14.81
   0   0  -4   12.99    0.88
   0   0   4   13.06    0.86
   0   0   4   13.21    0.92
   0   0   4   12.45    0.66
   0   0  -4   12.27    0.73
   0   0  -5  410.64    5.48
   0   0   5  403.50    5.20
   0   0   5  419.70    4.14
   0   0   5  397.46    5.56
   0   0  -5  408.25    4.53
   0   0   6    1.74    0.80
   0   0  -6    2.04    0.49
   0   0   6    2.65    0.44
   0   0   7   67.21    1.92
   0   0  -7   66.36    2.69
   0   0   7   62.29    2.90
   0   0  -7   64.05    2.17
   0   0  -8   25.32    1.47
   0   0   8   24.55    2.07
   0   0  -8   25.61    1.80
   0   0  -9    1.30    0.63
   0   0   9    1.65    0.62
   0   0 -10  143.85    4.41
   0   0  10  148.13    3.87
   0   0  10  153.82    3.99
   0   0 -10  148.45    3.65
   0   0  10  146.80    5.37
   0   0  11    2.97    0.81
   0   0  11    1.81    0.74
   0   0 -11    3.93    0.76
   0   0  11    2.73    0.72
   0   0 -12   79.43    3.05
   0   0  12   81.26    3.31
   0   0  12   79.79    3.21
   0   0  13   23.16    1.82
   0   0  13   24.30    1.88
   0   0 -13   20.42    1.62
   0   0 -14   28.79    1.78
   0   0  14   28.80    1.85
   0   0  14   29.72    1.55
   0   0  15   33.22    1.71
   0   0  15   33.66    1.32
   0   0 -15   33.11    1.66
   0   0  16   39.58    1.41
   0   0 -16   38.04    1.37
   0   1 -16   20.27    1.07
   0  -1  16   21.33    1.14
   0   1 -15   78.09    2.57
   0  -1  15   77.79    2.69
   0   1 -14  111.46    3.46
   0  -1  14  119.23    3.77
   0  -1  13  104.07    3.70
   0   1 -13   97.47    3.39
   0  -1  13  101.98    3.12
   0  -1  12   30.07    1.80
   0  -1  12   32.65    2.16
   0   1 -12   30.59    1.88
   0  -1  12   30.74    2.06
   0  -1  11  242.25    5.32
   0  -1  11  229.75    5.12
   0  -1  11  233.55    7.05
   0   1 -11  229.52    4.82
   0  -1  11  216.82    4.58
   0  -1  10   81.34    2.52
   0   1 -10   80.83    2.94
   0  -1  10   80.10    2.81
   0  -1  10   84.35    2.92
   0   1 -10   78.60    2.59
   0  -1  10   75.25    3.86
   0  -1   9  183.55    5.78
   0   1  -9  183.09    4.50
   0   1  -9  193.92    4.99
   0   1  -8  107.49    3.30
   0   1  -8  106.71    3.49
   0  -1   8  101.77    3.74
   0   1  -7   20.94    1.46
   0   1  -7   20.98    1.42
   0  -1   7   20.48    1.67
   0  -1   7   18.44    1.32
   0  -1   7   22.55    1.12
   0   1  -6   59.36    2.20
   0   1  -6   60.57    2.20
   0  -1   6   62.00    1.73
   0  -1   6   60.04    2.46
   0  -1   6   59.87    2.16
   0  -1   5   83.92    2.57
   0  -1   5   79.24    2.21
   0   1  -5   81.50    2.31
   0  -1   4  261.10    3.53
   0  -1   4  270.25    4.01
   0   1  -4  263.52    3.76
   0  -1   3 4574.24   12.69
   0  -1   3 4638.04   14.08
   0  -1   2  326.29    2.87
   0  -1   2  326.03    3.07
   0  -1   1  473.56    3.04
   0   1  -1  472.03    2.32
   0  -1   1  468.85    3.13
   0   1   0 2857.96    7.25
   0  -1   0 2867.31    7.37
   0   1   1    0.91    0.20
   0   1   1    1.19    0.24
   0   1   2  145.39    2.02
   0   1   2  140.36    2.38
   0  -1  -2  142.86    2.38
   0   1   3  187.28    2.56
   0  -1  -3  192.32    3.19
   0   1   3  189.61    3.32
   0   1   4   51.99    1.49
   0  -1  -4   48.60    1.86
   0   1   4   51.74    2.05
   0  -1  -5   35.17    1.75
   0   1   5   33.88    1.90
   0   1   5   34.00    1.34
   0  -1  -6  731.46    8.70
   0   1   6  743.54    6.65
   0   1   7  143.61    4.54
   0  -1  -7  149.21    4.24
   0   1   7  156.89    3.20
   0  -1  -8  114.32    3.94
   0   1   8  117.29    4.40
   0  -1  -9   94.80    2.67
   0  -1  -9   87.73    3.65
   0   1   9   85.57    3.98
   0   1   9   96.42    2.88
   0  -1 -10    9.62    1.23
   0   1  10   10.51    1.56
   0   1  10    9.41    1.14
   0  -1 -10   11.18    1.10
   0   1  10   10.75    1.13
   0   1  10    9.67    0.79
   0   1  11    8.22    1.17
   0  -1 -11   10.72    1.19
   0   1  11    8.25    1.09
   0   1  12  372.54    6.66
   0   1  12  379.48    7.01
   0  -1 -12  383.52    6.66
   0   1  13   36.23    2.09
   0  -1 -13   34.61    2.03
   0   1  13   35.00    2.16
   0  -1 -14   49.47    2.23
   0   1  14   51.35    2.37
   0   1  14   51.18    2.23
   0   1  15  165.83    3.25
   0   1  15  160.80    3.05
   0  -1 -15  165.37    3.41
   0  -1 -16   15.87    0.80
   0   2 -16  138.24    2.73
   0  -2  16  136.19    2.85
   0  -2  15   33.01    1.80
   0   2 -15   33.09    1.70
   0  -2  14  359.77    5.78
   0   2 -14  368.45    6.27
   0  -2  14  360.55    6.50
   0  -2  13  331.72    6.05
   0   2 -13  334.60    6.23
   0  -2  13  321.47    6.43
   0  -2  12   36.16    2.21
   0  -2  12   34.35    2.07
   0   2 -12   35.03    2.06
   0   2 -11  319.88    5.69
   0  -2  11  341.23    8.55
   0   2 -11  326.97    7.23
   0  -2  11  301.07    5.88
   0  -2  11  313.77    5.98
   0   2 -11  321.84    6.13
   0   2 -10  152.38    5.06
   0  -2  10  163.95    4.16
   0   2 -10  155.99    3.72
   0  -2  10  152.64    5.19
   0   2 -10  149.62    4.53
   0  -2  10  158.31    3.87
   0  -2  10  159.65    3.94
   0   2  -9    1.75    0.61
   0   2  -9    1.53    0.58
   0  -2   9    1.25    0.54
   0   2  -8   51.31    2.39
   0  -2   8   48.21    2.65
   0  -2   8   48.25    2.23
   0   2  -8   47.50    2.43
   0  -2   7    6.35    0.76
   0  -2   7    6.62    1.07
   0  -2   7    6.45    0.66
   0   2  -7    7.09    0.99
   0   2  -6  301.14    5.30
   0  -2   6  306.28    5.59
   0  -2   6  302.78    4.76
   0  -2   5  234.80    4.44
   0   2  -5  238.78    4.41
   0  -2   5  239.34    3.91
   0  -2   4  646.14    5.88
   0  -2   4  634.50    6.56
   0   2  -4  647.40    6.62
   0   2  -3 1441.96    8.78
   0  -2   3 1426.42    8.82
   0   2  -2 7179.03   13.21
   0   2  -2 7258.59   17.30
   0  -2   2 7052.45   17.67
   0  -2   2 7104.34   17.67
   0   2  -1  178.31    1.80
   0  -2   1  174.67    2.62
   0   2  -1  183.54    2.37
   0   2  -1  171.33    2.54
   0  -2   1  182.91    2.65
   0  -2   0  872.34    6.14
   0   2   0  940.40    4.27
   0   2   0  930.88    4.48
   0   2   0  901.25    5.95
   0   2   0  876.34    5.98
   0   2   1 2316.23   10.37
   0   2   1 2294.74    9.95
   0   2   2  705.71    5.89
   0   2   2  700.54    6.40
   0   2   3  708.25    7.32
   0   2   3  717.13    6.28
   0  -2  -3  724.67    7.34
   0   2   4  554.57    5.86
   0  -2  -4  567.53    7.12
   0   2   4  561.09    7.16
   0   2   5  452.06    5.57
   0   2   5  451.12    7.13
   0  -2  -5  461.09    6.92
   0   2   6  859.72   10.64
   0   2   6  871.39    8.10
   0   2   7    0.13    0.28
   0   2   7    1.14    0.67
   0  -2  -7    0.45    0.47
   0  -2  -8    5.66    1.09
   0   2   8    3.77    0.90
   0  -2  -9  147.29    3.58
   0   2   9  145.56    3.27
   0   2   9  144.93    3.33
   0  -2  -9  142.68    4.85
   0   2   9  146.01    5.26
   0   2   9  149.18    3.80
   0  -2 -10   19.07    1.46
   0   2  10   18.08    1.40
   0   2  10   18.08    1.31
   0  -2 -10   15.58    1.55
   0   2  10   18.93    1.98
   0   2  10   19.08    1.54
   0   2  11  217.47    5.18
   0   2  11  216.72    4.45
   0   2  11  215.88    4.81
   0  -2 -11  217.00    4.99
   0  -2 -12  107.17    3.57
   0   2  12  106.28    3.66
   0   2  12  105.85    3.37
   0   2  12  115.40    3.14
   0   2  13   26.82    1.63
   0   2  13   26.12    1.78
   0  -2 -13   26.43    1.75
   0   2  14   40.76    1.91
   0  -2 -14   40.82    1.92
   0  -2 -15    6.36    0.65
   0   2  15    6.18    0.63
   0  -3  16   61.33    1.82
   0   3 -16   67.21    1.85
   0  -3  15   13.23    1.03
   0   3 -15   14.35    1.13
   0  -3  15   13.20    1.15
   0   3 -14  215.86    4.73
   0  -3  14  215.81    4.80
   0  -3  14  214.78    4.68
   0   3 -13  257.19    5.41
   0  -3  13  249.32    5.49
   0  -3  13  245.90    5.46
   0  -3  12   28.95    1.96
   0   3 -12   31.14    1.94
   0  -3  12   30.20    1.98
   0  -3  11   14.04    1.34
   0   3 -11   13.08    1.38
   0   3 -11   13.48    1.28
   0  -3  11   13.93    1.42
   0  -3  11   12.76    1.54
   0   3 -11   13.40    1.38
   0   3 -10  248.02    3.60
   0   3 -10  244.72    5.87
   0   3 -10  239.96    6.13
   0  -3  10  241.50    6.58
   0  -3  10  250.05    4.94
   0   3 -10  248.97    4.78
   0  -3  10  245.48    4.01
   0  -3  10  244.21    5.11
   0   3  -9   37.58    2.40
   0  -3   9   36.87    2.47
   0   3  -9   38.92    1.71
   0   3  -9   38.30    2.28
   0  -3   9   43.60    1.96
   0   3  -8    6.47    1.05
   0  -3   8    7.28    1.11
   0  -3   8    5.91    0.82
   0   3  -8    7.93    0.96
   0  -3   7   66.10    2.45
   0   3  -7   66.22    2.91
   0   3  -7   68.85    2.61
   0  -3   7   66.41    2.97
   0  -3   6   24.67    1.45
   0  -3   6   21.60    1.62
   0   3  -6   20.55    1.59
   0   3  -6   18.88    1.27
   0   3  -5  182.29    4.24
   0  -3   5  181.16    4.19
   0   3  -5  180.12    3.39
   0  -3   5  180.70    3.68
   0   3  -4    0.69    0.24
   0  -3   4    0.68    0.39
   0   3  -4    1.43    0.65
   0  -3   4    1.08    0.50
   0   3  -3  646.20    6.67
   0  -3   3  630.01    6.75
   0   3  -3  635.20    4.88
   0  -3   3  633.98    6.58
   0  -3   2  506.53    5.70
   0   3  -2  501.76    3.86
   0  -3   2  497.50    6.00
   0  -3   2  487.87    5.51
   0   3  -2  506.43    5.28
   0   3  -1   61.67    1.94
   0  -3   1   63.19    1.98
   0   3  -1   62.55    1.97
   0   3  -1   64.57    1.67
   0   3  -1   63.44    1.28
   0  -3   1   61.01    2.00
   0   3   0  487.98    3.83
   0   3   0  475.79    5.54
   0  -3   0  484.74    5.80
   0   3   0  476.12    5.61
   0   3   1    1.33    0.44
   0  -3  -1    1.31    0.54
   0   3   1    2.55    0.27
   0   3   1    1.38    0.47
   0   3   2    2.25    0.16
   0  -3  -2    2.92    0.70
   0   3   2    3.14    0.59
   0   3   2    3.32    0.67
   0   3   3   41.05    1.82
   0  -3  -3   41.17    2.06
   0   3   3   40.13    2.02
   0   3   4 1247.32   11.71
   0  -3  -4 1239.75   11.77
   0   3   4 1263.78   10.32
   0  -3  -5   77.41    3.15
   0   3   5   75.68    3.17
   0   3   5   76.51    2.63
   0   3   6  330.54    5.57
   0   3   6  326.84    6.92
   0  -3  -6  329.76    6.87
   0   3   7  648.79   10.39
   0  -3  -7  662.78   10.15
   0   3   8    6.43    0.81
   0  -3  -8    7.42    0.84
   0  -3  -8    6.53    1.11
   0   3   8    7.35    1.27
   0   3   8    7.27    0.84
   0   3   9  379.73    8.53
   0   3   9  369.86    6.36
   0   3   9  366.48    5.14
   0  -3  -9  367.41    5.99
   0   3   9  364.22    6.02
   0  -3  -9  354.01    7.78
   0   3  10  400.43    5.90
   0   3  10  396.74    6.41
   0  -3 -10  412.08    6.76
   0   3  10  410.27    6.96
   0  -3 -11   10.76    1.22
   0   3  11   10.29    1.14
   0   3  11   11.85    1.33
   0  -3 -12    9.35    1.16
   0   3  12    8.74    0.98
   0   3  12    8.92    0.97
   0   3  12    9.30    1.17
   0   3  13   39.87    1.95
   0  -3 -13   39.35    1.99
   0  -3 -14    9.61    0.87
   0   3  14    8.57    0.85
   0   3  15    3.48    0.44
   0  -3 -15    4.25    0.44
   0   4 -16   20.61    0.97
   0  -4  15  152.47    3.33
   0  -4  15  148.29    3.17
   0   4 -15  151.34    3.30
   0  -4  14    2.67    0.76
   0   4 -14    2.68    0.68
   0  -4  14    2.68    0.66
   0  -4  13  113.96    3.51
   0   4 -13  113.68    3.55
   0  -4  13  111.44    3.77
   0   4 -12  211.14    4.92
   0  -4  12  219.35    4.34
   0  -4  12  205.03    5.22
   0  -4  12  210.76    4.81
   0  -4  11   65.54    2.94
   0  -4  11   63.61    2.50
   0  -4  11   64.24    2.63
   0   4 -11   68.19    2.15
   0   4 -11   64.93    2.68
   0  -4  10  290.63    5.29
   0   4 -10  302.02    5.44
   0   4 -10  303.20    4.79
   0   4 -10  306.43    4.40
   0   4 -10  317.63    7.29
   0  -4  10  301.42    5.90
   0  -4  10  300.91    5.30
   0  -4  10  313.62    7.50
   0   4  -9  508.86    7.46
   0   4  -9  514.45    5.32
   0   4  -9  525.04    6.75
   0  -4   9  527.34    9.53
   0  -4   9  527.05    7.23
   0   4  -9  523.40    9.25
   0  -4   9  513.79    6.56
   0   4  -9  511.99    5.92
   0  -4   9  519.56    6.00
   0   4  -8  219.64    5.81
   0   4  -8  224.33    4.77
   0  -4   8  219.86    5.90
   0  -4   7 1201.85   10.65
   0  -4   7 1201.81   13.10
   0   4  -7 1197.77   10.42
   0   4  -7 1182.10   12.88
   0   4  -6    0.36    0.25
   0   4  -6    0.37    0.52
   0  -4   6    1.05    0.40
   0  -4   6    1.14    0.65
   0  -4   5  273.85    5.02
   0   4  -5  273.51    4.11
   0  -4   5  271.77    5.55
   0  -4   4  438.04    6.32
   0   4  -4  432.68    6.54
   0   4  -4  448.79    4.67
   0  -4   4  424.58    6.60
   0   4  -3  776.17    5.45
   0  -4   3  763.90    8.44
   0  -4   3  758.17    8.66
   0  -4   2  206.80    4.27
   0  -4   2  196.15    4.53
   0   4  -2  199.08    3.69
   0  -4   2  199.10    4.19
   0   4  -2  202.57    2.51
   0  -4   1  120.42    3.24
   0  -4   1  123.81    3.39
   0   4  -1  125.07    3.31
   0   4  -1  128.89    2.68
   0   4   0   25.81    1.07
   0  -4   0   23.10    1.50
   0   4   0   25.18    1.56
   0  -4   0   25.05    1.64
   0   4   0   24.97    1.59
   0   4   1  112.88    3.24
   0   4   1  121.89    3.42
   0  -4  -1  115.44    3.52
   0  -4  -2  360.37    6.51
   0   4   2  358.01    5.87
   0   4   2  366.16    6.25
   0  -4  -3  203.47    5.13
   0   4   3  196.72    4.83
   0   4   3  197.50    4.48
   0   4   4 1587.48   13.03
   0   4   4 1627.84   14.61
   0   4   5  276.98    6.39
   0   4   5  280.98    5.56
   0  -4  -5  289.80    6.69
   0   4   6  845.80    9.79
   0  -4  -6  842.09   11.90
   0   4   6  838.14   11.68
   0  -4  -7 1093.05    8.27
   0   4   7 1095.27   10.19
   0  -4  -7 1074.84   13.79
   0   4   7 1057.21   13.55
   0   4   7 1084.91    9.59
   0   4   8  133.28    3.81
   0   4   8  139.58    5.14
   0   4   8  138.19    3.82
   0  -4  -8  138.34    3.08
   0  -4  -8  138.28    5.07
   0   4   9  265.55    5.55
   0   4   9  263.42    5.47
   0  -4  -9  256.61    5.29
   0  -4 -10  423.05    6.97
   0   4  10  408.38    6.91
   0   4  10  406.80    6.85
   0   4  11    1.84    0.67
   0  -4 -11    2.01    0.69
   0   4  11    1.16    0.64
   0  -4 -12   23.20    1.60
   0   4  12   24.46    1.49
   0   4  12   24.28    1.55
   0  -4 -13    1.01    0.45
   0  -4 -14    2.40    0.39
   0   4  14    2.05    0.41
   0  -5  15   52.67    1.86
   0   5 -15   53.98    1.81
   0   5 -14   68.78    2.45
   0  -5  14   69.95    2.63
   0   5 -13   22.00    1.59
   0  -5  13   23.84    1.49
   0  -5  13   21.00    1.70
   0   5 -12  140.11    3.31
   0  -5  12  135.43    3.59
   0   5 -12  140.81    4.00
   0  -5  12  132.27    3.65
   0  -5  12  131.17    4.17
   0  -5  11   80.50    3.04
   0   5 -11   79.58    2.74
   0  -5  11   82.83    2.80
   0   5 -11   79.60    3.03
   0  -5  11   81.50    3.30
   0  -5  10    4.37    0.94
   0   5 -10    3.85    0.74
   0  -5  10    3.78    0.64
   0   5 -10    3.53    0.77
   0   5 -10    5.79    0.73
   0  -5  10    3.24    0.82
   0  -5   9  458.08    8.93
   0   5  -9  447.48    6.59
   0   5  -9  443.25    6.42
   0  -5   9  444.75    6.97
   0  -5   9  446.88    6.97
   0   5  -9  446.22    5.66
   0  -5   8   22.85    1.58
   0  -5   8   23.50    2.04
   0   5  -8   21.42    1.92
   0   5  -8   21.15    1.17
   0   5  -8   23.19    1.45
   0   5  -8   20.78    1.37
   0  -5   8   22.80    1.51
   0   5  -7   99.50    2.69
   0   5  -7   94.81    3.85
   0  -5   7   95.58    3.85
   0  -5   7   99.52    2.94
   0   5  -6   54.13    2.75
   0  -5   6   50.27    2.67
   0  -5   5   18.82    1.64
   0  -5   5   17.27    1.40
   0   5  -5   21.74    1.66
   0   5  -4    4.90    0.91
   0  -5   4    4.73    0.79
   0  -5   4    4.15    0.80
   0   5  -3  125.45    3.48
   0  -5   3  114.71    3.83
   0  -5   3  117.64    3.67
   0  -5   2  216.69    5.39
   0  -5   2  222.90    5.10
   0  -5   2  223.72    4.99
   0  -5   1   55.54    2.62
   0  -5   1   51.55    2.41
   0   5  -1   55.67    2.53
   0  -5   1   52.11    2.81
   0   5  -1   57.56    1.94
   0  -5   0  115.06    3.69
   0   5   0  115.81    3.68
   0   5   0  119.32    3.73
   0  -5   0  123.09    4.01
   0  -5  -1   48.73    2.50
   0   5   1   49.27    2.51
   0  -5  -1   52.40    2.71
   0   5   1   46.17    2.38
   0   5   2   21.95    1.77
   0   5   2   23.16    1.73
   0  -5  -2   22.65    1.87
   0   5   3  163.88    4.53
   0  -5  -3  172.77    5.27
   0   5   3  173.16    4.98
   0   5   4  715.60    9.49
   0   5   4  742.20   10.55
   0  -5  -4  735.51   11.28
   0   5   5   91.82    3.88
   0  -5  -5   96.14    2.71
   0   5   5   94.26    3.51
   0  -5  -5   91.42    4.12
   0   5   5   95.22    2.92
   0  -5  -6   35.38    2.67
   0  -5  -6   33.95    1.51
   0   5   6   35.06    2.02
   0   5   6   37.56    1.85
   0  -5  -6   37.78    1.83
   0   5   6   36.90    2.02
   0   5   6   33.47    2.38
   0   5   7  435.95    8.77
   0  -5  -7  435.87    5.49
   0  -5  -7  431.18    6.32
   0   5   7  418.53    6.92
   0   5   7  425.54    6.65
   0   5   8  358.34    6.39
   0  -5  -8  360.33    5.79
   0   5   8  368.56    6.68
   0  -5  -9   10.07    0.97
   0   5   9    9.85    1.24
   0  -5  -9   12.45    1.29
   0   5  10    8.07    1.12
   0   5  10    6.46    0.97
   0  -5 -10    7.41    1.05
   0   5  11   36.89    1.83
   0   5  11   36.28    1.92
   0  -5 -11   38.12    2.02
   0  -5 -12   -0.39    0.46
   0   5  12    0.49    0.46
   0   5  13    8.54    0.68
   0  -5 -13    8.63    0.71
   0   6 -15   43.31    1.38
   0  -6  15   43.82    1.47
   0   6 -14   63.61    2.11
   0  -6  14   64.32    2.25
   0   6 -13    0.48    0.52
   0  -6  13    0.42    0.62
   0  -6  12  237.58    5.29
   0   6 -12  239.60    4.39
   0   6 -12  235.55    5.01
   0  -6  12  251.55    5.04
   0   6 -11  180.97    4.54
   0   6 -11  179.65    4.13
   0  -6  11  181.33    4.62
   0  -6  11  180.57    4.76
   0  -6  10   72.98    3.07
   0   6 -10   76.12    2.98
   0  -6  10   71.48    3.03
   0   6 -10   74.84    2.79
   0   6  -9  557.01    7.65
   0  -6   9  557.19    8.34
   0   6  -9  564.49    7.79
   0  -6   9  544.65    7.88
   0   6  -8   49.34    2.24
   0  -6   8   49.42    2.80
   0   6  -8   51.92    2.94
   0  -6   8   47.49    2.43
   0   6  -8   52.15    2.32
   0  -6   8   47.07    2.24
   0   6  -7  161.62    3.99
   0   6  -7  156.52    5.04
   0  -6   7  152.39    4.03
   0  -6   7  151.75    3.59
   0   6  -7  154.15    3.77
   0  -6   7  149.69    4.93
   0  -6   6  445.11    5.36
   0   6  -6  462.14    6.26
   0   6  -6  460.08    8.26
   0  -6   6  456.12    6.61
   0   6  -6  449.99    6.44
   0  -6   5   53.27    2.12
   0  -6   5   50.28    2.75
   0   6  -5   55.29    2.06
   0   6  -5   56.62    2.16
   0   6  -5   55.31    2.77
   0  -6   4  611.42    8.89
   0  -6   4  591.23    9.20
   0   6  -4  617.56    8.69
   0  -6   3   84.59    3.59
   0  -6   3   86.00    3.40
   0   6  -3   87.39    3.03
   0  -6   2   14.64    1.60
   0  -6   2   13.57    1.42
   0  -6   1    8.62    1.25
   0  -6   1   11.03    1.26
   0   6  -1   12.25    1.36
   0  -6   1   10.35    1.30
   0  -6   0   17.86    1.56
   0  -6   0   16.43    1.78
   0   6   0   19.69    1.70
   0  -6   0   18.56    1.75
   0  -6  -1   22.36    1.97
   0   6   1   23.90    1.93
   0  -6  -1   23.06    1.81
   0  -6  -2    2.90    0.75
   0  -6  -2    0.78    0.53
   0   6   2    1.58    0.65
   0  -6  -2    1.81    0.52
   0   6   3  123.52    2.98
   0  -6  -3  119.24    4.29
   0  -6  -3  122.94    3.06
   0   6   3  125.62    3.18
   0   6   3  116.34    4.13
   0   6   3  123.03    4.42
   0  -6  -3  124.90    3.33
   0  -6  -3  127.78    4.86
   0  -6  -4  313.41    7.78
   0   6   4  290.41    4.91
   0  -6  -4  299.75    5.39
   0  -6  -4  299.46    4.90
   0   6   4  286.23    6.47
   0   6   4  293.00    5.41
   0   6   4  295.49    7.03
   0   6   5   56.25    2.50
   0  -6  -5   56.65    2.20
   0   6   5   57.02    2.38
   0   6   5   61.13    3.23
   0   6   5   54.12    2.68
   0  -6  -5   54.93    2.41
   0   6   6  329.14    5.89
   0  -6  -6  325.13    5.27
   0  -6  -6  314.03    5.76
   0   6   6  324.23    6.22
   0  -6  -7   22.64    1.60
   0  -6  -7   23.87    1.43
   0   6   7   21.68    1.77
   0   6   7   20.99    1.59
   0   6   8  206.35    5.09
   0   6   8  201.58    4.67
   0  -6  -8  211.09    3.89
   0  -6  -8  203.48    4.43
   0  -6  -9   42.14    2.22
   0  -6  -9   43.37    1.94
   0   6   9   42.86    2.32
   0   6   9   43.52    2.08
   0   6  10   20.96    1.55
   0  -6 -10   22.50    1.54
   0  -6 -10   23.51    1.18
   0  -6 -11   82.45    2.51
   0   6  11   78.62    2.45
   0  -6 -12    0.50    0.33
   0  -7  14    1.91    0.43
   0  -7  14    0.90    0.28
   0   7 -14    1.54    0.34
   0  -7  13   80.37    2.47
   0   7 -13   79.22    2.36
   0   7 -12    1.16    0.49
   0  -7  12    0.58    0.50
   0   7 -11   15.99    1.22
   0  -7  11   16.03    1.34
   0   7 -11   15.49    1.35
   0  -7  11   15.61    1.24
   0   7 -10  218.90    4.94
   0   7 -10  215.35    4.72
   0  -7  10  219.26    4.84
   0  -7  10  221.55    5.36
   0  -7   9   39.84    2.37
   0  -7   9   37.87    2.05
   0   7  -9   41.22    2.19
   0   7  -9   37.52    2.11
   0   7  -8   17.45    1.48
   0   7  -8   16.27    1.45
   0  -7   8   17.33    1.64
   0  -7   8   17.41    1.41
   0   7  -7  244.41    5.09
   0  -7   7  236.56    4.49
   0  -7   7  239.42    5.47
   0   7  -7  232.28    5.17
   0  -7   6   94.67    3.32
   0  -7   6   90.80    3.53
   0   7  -6   93.66    3.10
   0   7  -6   95.61    3.23
   0  -7   6   91.72    3.24
   0   7  -6   97.31    3.49
   0   7  -5  155.39    3.98
   0   7  -5  149.17    4.13
   0  -7   5  144.69    4.01
   0   7  -5  154.29    3.86
   0  -7   5  147.92    3.96
   0  -7   5  140.28    4.44
   0   7  -4  141.83    3.62
   0   7  -4  133.77    3.68
   0  -7   4  138.76    3.88
   0  -7   4  142.23    4.46
   0  -7   3   37.45    2.25
   0   7  -3   40.98    1.99
   0  -7   3   38.76    2.02
   0   7  -2  114.22    2.95
   0  -7   2  113.98    4.34
   0  -7   2  109.95    3.90
   0  -7   2  108.55    3.35
   0   7  -2  114.92    3.24
   0  -7   1   11.36    1.14
   0   7  -1   11.11    1.05
   0  -7   1   13.61    1.41
   0   7  -1    9.72    0.92
   0  -7   1   11.11    1.47
   0   7   0  204.66    4.00
   0  -7   0  197.62    6.38
   0  -7   0  200.50    4.46
   0   7   0  202.28    5.74
   0  -7   0  209.72    5.27
   0  -7   0  211.60    6.13
   0   7   0  205.30    4.14
   0  -7  -1    3.18    0.75
   0  -7  -1    5.03    0.80
   0  -7  -1    3.21    1.26
   0   7   1    2.54    0.61
   0   7   1    1.74    0.41
   0   7   1    2.27    0.53
   0  -7  -1    2.18    0.58
   0  -7  -1    2.68    0.77
   0   7   1    1.88    0.48
   0   7   2  570.37    7.07
   0   7   2  596.72    9.66
   0   7   2  593.72    6.71
   0  -7  -2  587.04    7.64
   0  -7  -2  580.41    7.71
   0   7   2  578.53    7.19
   0   7   3  122.73    4.35
   0  -7  -3  113.90    3.39
   0   7   3  115.80    3.48
   0  -7  -3  113.97    3.62
   0   7   3  119.04    3.37
   0  -7  -3  122.26    4.84
   0   7   3  120.95    2.94
   0   7   4   49.01    2.39
   0  -7  -4   50.84    2.25
   0  -7  -4   53.44    2.54
   0   7   4   49.34    2.25
   0  -7  -5  175.69    4.59
   0   7   5  178.11    4.60
   0  -7  -5  184.99    4.18
   0   7   5  179.64    4.36
   0   7   6   55.20    2.42
   0  -7  -6   54.22    2.53
   0   7   6   53.26    2.58
   0  -7  -6   57.56    2.28
   0   7   7    6.69    0.91
   0  -7  -7    5.47    0.90
   0   7   7    6.82    0.88
   0  -7  -7    4.55    0.68
   0   7   7    5.95    1.00
   0  -7  -8   63.07    2.37
   0   7   8   62.29    2.04
   0   7   8   61.54    2.62
   0  -7  -8   60.14    2.53
   0   7   9   89.74    2.89
   0  -7  -9   90.66    2.83
   0  -7  -9   86.68    2.42
   0  -7 -10   64.55    2.07
   0  -7 -10   63.20    1.45
   0   7  10   63.15    2.11
   0   7  11   20.61    0.97
   0  -7 -11   20.42    0.95
   0   8 -13    1.58    0.34
   0  -8  13    1.40    0.33
   0  -8  12    5.58    0.64
   0  -8  12    5.74    0.55
   0   8 -12    5.94    0.69
   0   8 -11   44.11    1.94
   0   8 -11   40.30    1.72
   0  -8  11   42.25    1.68
   0  -8  11   41.61    1.74
   0   8 -10   33.78    1.85
   0  -8  10   31.84    1.72
   0  -8  10   32.89    1.67
   0  -8  10   33.37    1.65
   0   8 -10   31.29    1.73
   0  -8   9   76.27    2.55
   0  -8   9   70.94    2.79
   0   8  -9   72.47    2.78
   0  -8   9   73.73    2.53
   0   8  -9   73.58    2.84
   0   8  -8   71.93    2.94
   0  -8   8   77.57    2.45
   0   8  -8   73.91    2.90
   0  -8   8   76.14    3.02
   0  -8   8   76.43    2.60
   0  -8   7  133.89    4.13
   0   8  -7  133.68    4.01
   0   8  -7  131.56    3.89
   0   8  -6  172.58    4.55
   0  -8   6  169.62    4.66
   0   8  -6  173.56    4.39
   0   8  -5  710.93    9.10
   0  -8   5  728.24    9.54
   0  -8   4  197.09    4.98
   0   8  -4  193.84    4.71
   0   8  -3  407.48    6.35
   0  -8   3  414.82    7.10
   0   8  -3  411.55    6.70
   0  -8   2  213.12    4.41
   0  -8   2  210.72    5.04
   0   8  -2  212.76    4.73
   0   8  -2  204.11    4.47
   0  -8   1  181.60    4.65
   0   8  -1  179.81    4.20
   0  -8   1  182.79    4.33
   0   8  -1  183.29    4.33
   0  -8   0  124.45    3.83
   0   8   0  126.00    3.53
   0  -8   0  127.58    3.72
   0   8   0  125.97    3.53
   0   8   1   16.37    1.31
   0   8   1   13.70    1.18
   0  -8  -1   16.37    1.46
   0  -8  -1   12.91    1.31
   0  -8  -2  951.36   10.56
   0   8   2  926.13    9.33
   0   8   2  957.63    9.74
   0  -8  -2  950.30   10.25
   0   8   2  970.31    9.15
   0   8   3   99.69    3.20
   0  -8  -3  101.71    3.29
   0  -8  -3  102.84    3.57
   0   8   3   97.29    3.12
   0  -8  -4   12.38    1.38
   0  -8  -4   14.57    1.26
   0   8   4   14.39    1.28
   0   8   4   14.53    1.23
   0   8   5   78.94    2.64
   0  -8  -5   78.50    3.03
   0   8   5   80.31    2.88
   0  -8  -5   78.60    2.60
   0   8   6    7.84    1.01
   0  -8  -6    6.32    0.73
   0   8   6    7.99    0.89
   0  -8  -6    8.67    1.07
   0  -8  -7   54.27    2.16
   0   8   7   50.33    1.88
   0   8   7   58.41    2.30
   0  -8  -7   54.62    1.67
   0   8   8   63.14    2.16
   0  -8  -8   63.24    2.15
   0   8   8   62.19    1.56
   0  -8  -8   64.21    2.01
   0  -8  -9   21.91    1.09
   0  -8  -9   21.53    0.87
   0   8   9   21.47    1.09
   0   9 -10    7.78    0.76
   0   9 -10    8.75    0.59
   0  -9   9  188.48    3.89
   0   9  -9  187.62    3.93
   0   9  -8   88.69    2.96
   0  -9   8   82.17    2.87
   0   9  -7  212.80    4.73
   0   9  -7  207.70    4.19
   0  -9   7  214.75    4.83
   0   9  -6  156.91    4.16
   0  -9   6  161.43    4.37
   0   9  -6  162.74    3.80
   0   9  -5  136.27    3.92
   0   9  -5  132.72    3.50
   0  -9   5  138.28    4.13
   0   9  -4   12.04    1.28
   0  -9   4   11.32    1.34
   0   9  -4   11.14    1.09
   0   9  -3   76.24    2.93
   0   9  -3   73.37    2.65
   0  -9   3   75.28    3.09
   0  -9   2   27.04    1.87
   0  -9   2   27.15    1.58
   0   9  -2   28.53    1.79
   0   9  -2   26.68    1.61
   0  -9   1    6.64    0.89
   0   9  -1    7.43    0.91
   0   9  -1    6.35    0.91
   0  -9   1    6.21    0.99
   0  -9   0   13.85    1.28
   0  -9   0   14.80    1.41
   0   9   0   14.31    1.21
   0   9   0   14.78    1.21
   0   9   1   19.60    1.33
   0  -9  -1   18.08    1.47
   0  -9  -1   20.51    1.57
   0   9   1   17.69    1.25
   0  -9  -2    8.08    1.05
   0  -9  -2    7.57    0.95
   0  -9  -3    7.11    0.87
   0  -9  -3    7.72    1.02
   0  -9  -4   11.19    1.20
   0   9   4   10.33    1.08
   0  -9  -4   11.76    0.99
   0  -9  -5    4.72    0.74
   0   9   5    4.43    0.70
   0  -9  -5    4.36    0.55
   0   9   5    4.88    0.64
   0   9   6    0.66    0.29
   0  -9  -6    1.65    0.32
   0  -9  -6    0.98    0.46
   0   9   6    0.89    0.41
   0  -9  -7   22.38    1.09
   0   9   7   22.79    0.89
   0  -9  -7   22.10    1.06
   0   9   7   23.73    1.04
   0  10  -9    2.80    0.42
   0  10  -8   51.88    1.81
   0 -10   8   56.43    1.86
   0  10  -7   64.23    2.17
   0 -10   7   65.41    2.22
   0  10  -6   10.54    0.97
   0 -10   6    9.94    1.00
   0 -10   5   37.14    1.90
   0  10  -5   33.01    1.71
   0  10  -4   67.43    2.41
   0 -10   4   72.33    2.69
   0  10  -3    2.95    0.62
   0 -10   3    2.88    0.70
   0  10  -2   28.10    1.53
   0 -10   2   30.03    1.75
   0 -10   1  327.76    5.52
   0  10  -1  337.47    4.80
   0  10  -1  333.13    4.86
   0 -10   0  263.86    4.26
   0 -10   0  260.15    4.74
   0  10   0  262.92    4.42
   0  10   0  259.50    4.06
   0 -10  -1    7.49    0.82
   0 -10  -1    9.87    0.90
   0  10   1    8.30    0.87
   0  10   2   15.59    1.11
   0 -10  -2   15.59    1.10
   0 -10  -2   15.26    1.04
   0 -10  -3  133.79    2.67
   0 -10  -3  136.93    2.97
   0  10   3  135.49    2.95
   0 -10  -4   55.81    1.75
   0  10   4   52.70    1.67
   0 -10  -4   53.15    1.33
   0 -10  -5    1.74    0.34
   0  10   5    1.43    0.30
   0 -10  -5    1.58    0.36
   0 -11   6    1.03    0.27
   0  11  -6    1.15    0.29
   0 -11   5  103.68    2.19
   0  11  -5  101.31    2.04
   0  11  -4   22.85    1.00
   0 -11   4   24.15    1.13
   0 -11   3   44.87    1.54
   0  11  -3   44.86    1.34
   0 -11   2   28.57    1.23
   0 -11   1   27.06    1.16
   0 -11   0   66.16    1.65
   0  11   1   37.33    1.08
  -1  11   1    0.08    0.18
   1 -11  -1    0.26    0.18
   1 -11   0    1.42    0.32
   1 -11   1   50.48    1.55
   1 -11   2    0.19    0.24
   1 -11   3   30.96    1.23
   1 -11   4    4.35    0.46
   1 -11   5    1.74    0.31
   1 -10  -5   56.14    1.55
   1 -10  -5   53.22    1.34
  -1  10   5   55.09    1.49
   1 -10  -5   57.16    1.54
  -1  10   4  129.34    2.67
   1 -10  -4  127.51    2.53
   1 -10  -3   -0.06    0.31
   1 -10  -3    0.04    0.34
   1 -10  -2  239.53    4.21
   1 -10  -2  250.10    3.86
  -1  10   1   17.70    1.18
   1 -10  -1   15.72    1.20
  -1  10   0    3.90    0.64
   1 -10   0    5.80    0.82
  -1  10  -1  175.52    3.09
   1 -10   1  180.48    4.08
  -1  10  -1  177.83    3.86
  -1  10  -2   35.68    1.77
  -1  10  -2   35.26    1.55
   1 -10   2   34.32    1.81
  -1  10  -3  131.32    3.34
   1 -10   3  129.43    2.74
   1 -10   3  136.15    3.49
  -1  10  -3  125.14    2.99
   1 -10   4   92.29    2.81
   1 -10   4   87.62    2.37
  -1  10  -4   88.03    2.56
  -1  10  -4   91.09    2.76
   1 -10   5    5.43    0.75
  -1  10  -5    6.60    0.79
  -1  10  -5    5.20    0.73
   1 -10   5    5.92    0.68
   1 -10   6   51.59    1.85
  -1  10  -6   48.77    1.92
  -1  10  -6   49.21    1.90
  -1  10  -7  213.10    3.69
  -1  10  -7  209.31    3.72
  -1  10  -8   72.57    1.99
  -1  10  -8   70.28    1.99
  -1  10  -9   11.75    0.72
  -1  10  -9   12.66    0.78
   1  -9  -8   50.16    1.33
  -1   9   8   48.92    1.33
   1  -9  -8   49.48    1.28
  -1   9   7  133.26    2.16
   1  -9  -7  133.93    2.68
  -1   9   7  140.61    2.76
   1  -9  -7  137.99    2.71
   1  -9  -6    3.82    0.62
  -1   9   6    2.59    0.53
   1  -9  -6    2.79    0.48
   1  -9  -5  185.01    3.73
   1  -9  -5  190.54    4.00
  -1   9   5  185.06    3.80
  -1   9   5  185.38    3.84
   1  -9  -4  166.94    3.86
  -1   9   4  166.17    3.79
   1  -9  -4  165.79    3.92
  -1   9   4  164.74    3.89
   1  -9  -3    5.78    0.90
   1  -9  -3    6.16    0.93
  -1   9   3    6.47    0.83
  -1   9   3    5.69    0.89
   1  -9  -2   36.14    2.03
   1  -9  -2   37.04    1.91
  -1   9   2   34.50    1.81
  -1   9   2   37.89    2.02
  -1   9   1   57.28    2.56
  -1   9   1   55.16    2.19
   1  -9  -1   56.28    2.28
   1  -9  -1   59.51    2.65
  -1   9   0    2.67    0.70
   1  -9   0    3.60    0.81
  -1   9   0    3.03    0.59
   1  -9   0    2.34    0.50
   1  -9   0    4.05    0.67
  -1   9  -1    3.57    0.64
  -1   9  -1    2.23    0.68
   1  -9   1    3.62    0.68
   1  -9   1    3.83    0.87
  -1   9  -2   25.79    1.78
  -1   9  -2   26.57    1.62
   1  -9   2   25.67    1.80
   1  -9   2   27.38    1.63
   1  -9   2   25.23    1.46
   1  -9   3    0.48    0.63
  -1   9  -3   -0.19    0.54
  -1   9  -3    0.11    0.57
   1  -9   3    0.26    0.33
   1  -9   4  185.30    4.52
   1  -9   4  182.93    4.02
  -1   9  -4  187.77    4.42
  -1   9  -4  181.89    4.55
  -1   9  -5   50.91    2.40
   1  -9   5   51.80    2.16
  -1   9  -5   50.42    2.36
   1  -9   5   49.34    2.30
  -1   9  -6   10.05    1.16
   1  -9   6   10.42    1.03
   1  -9   6   10.35    1.09
  -1   9  -6   11.06    1.16
   1  -9   7   77.15    2.58
  -1   9  -7   77.24    2.91
   1  -9   7   83.12    2.67
   1  -9   8    9.91    0.91
  -1   9  -8   11.34    1.14
  -1   9  -9    4.49    0.71
   1  -9   9    4.94    0.64
   1  -9  10    5.97    0.60
  -1   9 -10    5.48    0.69
  -1   9 -11   72.07    1.85
   1  -9  11   69.75    1.50
  -1   9 -11   75.53    1.93
  -1   8  10    2.31    0.33
  -1   8   9    5.79    0.65
   1  -8  -9    5.88    0.62
   1  -8  -9    6.61    0.62
   1  -8  -8   76.83    2.40
  -1   8   8   69.13    2.41
   1  -8  -8   72.78    2.28
  -1   8   8   71.56    1.69
  -1   8   8   73.62    2.29
  -1   8   7   96.66    2.97
   1  -8  -7   93.56    2.97
  -1   8   7   92.37    3.05
   1  -8  -7   95.18    2.67
   1  -8  -6    3.45    0.80
  -1   8   6    4.65    0.92
   1  -8  -6    3.46    0.65
  -1   8   6    3.24    0.78
  -1   8   5   99.45    3.46
   1  -8  -5  104.56    3.28
  -1   8   5  104.91    3.49
   1  -8  -5  108.29    3.50
  -1   8   4   83.32    3.16
   1  -8  -4   87.72    3.20
   1  -8  -4   86.10    3.12
  -1   8   4   87.05    3.26
   1  -8  -3   27.64    1.86
  -1   8   3   26.44    1.80
  -1   8   3   28.08    1.93
   1  -8  -3   30.97    1.93
   1  -8  -2  507.57    6.27
   1  -8  -2  499.00    7.66
  -1   8   2  479.82    7.27
  -1   8   2  499.05    7.82
   1  -8  -2  487.84    7.23
  -1   8   1  381.95    6.32
  -1   8   1  384.11    6.83
   1  -8  -1  391.36    6.28
   1  -8  -1  394.12    5.77
   1  -8  -1  393.55    6.82
   1  -8   0  163.73    3.85
  -1   8   0  171.89    4.51
  -1   8   0  170.65    3.99
   1  -8   0  175.44    4.03
   1  -8   0  163.14    4.38
  -1   8   0  170.46    3.76
   1  -8   1  216.92    4.11
  -1   8  -1  212.42    4.43
   1  -8   1  216.80    4.46
  -1   8  -1  216.09    4.99
   1  -8   1  218.23    5.05
   1  -8   2  555.66    7.24
  -1   8  -2  544.15    7.30
  -1   8  -2  545.96    7.91
   1  -8   2  548.54    7.96
  -1   8  -3    2.18    0.65
   1  -8   3    2.09    0.62
  -1   8  -3    1.76    0.71
   1  -8   3    2.04    0.67
   1  -8   4  357.97    6.07
   1  -8   4  358.51    6.36
  -1   8  -4  352.45    6.29
  -1   8  -5  184.48    4.69
   1  -8   5  181.29    4.48
   1  -8   5  181.52    4.42
   1  -8   6   42.69    2.21
   1  -8   6   42.75    2.17
   1  -8   6   47.77    2.02
  -1   8  -6   43.51    2.35
   1  -8   7  231.42    4.56
   1  -8   7  219.50    4.74
   1  -8   7  218.81    4.95
  -1   8  -7  215.78    5.17
  -1   8  -7  225.67    4.96
   1  -8   8   14.09    1.21
  -1   8  -8   14.54    1.42
  -1   8  -8   12.60    1.27
   1  -8   8   13.63    1.23
   1  -8   8   13.73    1.30
   1  -8   9   22.50    1.59
  -1   8  -9   21.32    1.50
   1  -8   9   22.14    1.47
  -1   8  -9   21.71    1.64
  -1   8 -10   36.28    1.80
   1  -8  10   36.43    1.88
   1  -8  10   36.69    1.80
  -1   8 -10   39.08    1.97
  -1   8 -11  107.40    2.87
   1  -8  11  107.58    2.89
   1  -8  11  109.10    2.82
  -1   8 -11  110.42    2.81
  -1   8 -12   19.24    1.04
  -1   8 -12   19.12    1.04
   1  -8  12   17.93    1.07
   1  -8  12   20.53    1.12
   1  -8  12   19.51    1.03
   1  -7 -11   17.27    0.92
  -1   7  11   16.34    0.91
  -1   7  10   89.23    2.54
   1  -7 -10   92.31    2.53
   1  -7 -10   89.18    2.19
  -1   7  10   88.70    2.45
  -1   7   9  154.72    3.78
   1  -7  -9  151.68    3.44
   1  -7  -9  155.21    3.71
  -1   7   9  152.47    3.85
   1  -7  -8   46.39    2.16
   1  -7  -8   46.38    1.96
  -1   7   8   45.33    2.26
   1  -7  -8   49.08    2.30
  -1   7   8   47.88    2.43
   1  -7  -7   36.58    1.91
   1  -7  -7   37.57    2.09
  -1   7   7   38.19    2.27
  -1   7   7   36.44    2.17
   1  -7  -6  442.78    7.17
  -1   7   6  444.65    7.56
   1  -7  -6  440.20    6.80
  -1   7   6  456.83    7.72
   1  -7  -5  177.61    4.39
   1  -7  -5  173.85    4.49
  -1   7   5  175.80    4.73
  -1   7   5  176.74    4.75
   1  -7  -4   83.43    3.04
  -1   7   4   77.57    3.10
   1  -7  -4   81.40    2.44
   1  -7  -4   80.43    3.06
  -1   7   4   78.55    3.14
   1  -7  -3  458.86    7.01
  -1   7   3  472.59    7.45
   1  -7  -3  476.21    7.10
  -1   7   3  485.69    8.83
  -1   7   3  472.93    7.37
   1  -7  -3  477.51    5.91
  -1   7   3  462.76    7.26
   1  -7  -3  500.06    9.82
   1  -7  -3  490.46   11.00
   1  -7  -2  102.96    2.79
   1  -7  -2  102.01    3.27
   1  -7  -2  110.45    5.27
   1  -7  -2  110.54    3.34
  -1   7   2  109.24    4.29
  -1   7   2  102.18    3.51
  -1   7   2  105.71    3.37
  -1   7   2  106.28    3.46
   1  -7  -2  108.76    4.60
   1  -7  -1   38.27    1.87
   1  -7  -1   43.09    2.91
   1  -7  -1   41.50    3.19
   1  -7  -1   39.12    1.76
  -1   7   1   38.29    2.22
  -1   7   1   42.23    2.02
   1  -7  -1   39.80    1.78
  -1   7   1   40.90    2.12
   1  -7  -1   36.86    1.97
  -1   7   0  120.21    2.81
   1  -7   0  115.34    2.99
  -1   7   0  116.50    3.07
   1  -7   0  113.61    5.15
   1  -7   0  119.06    3.43
   1  -7   0  117.93    3.03
  -1   7   0  116.94    3.47
   1  -7   1    7.09    0.92
  -1   7  -1    8.27    0.98
   1  -7   1    5.57    1.12
   1  -7   1    9.42    0.93
   1  -7   1    7.71    0.76
  -1   7  -1    7.90    0.84
  -1   7  -1    5.84    0.65
  -1   7  -2   95.13    2.84
   1  -7   2   91.88    4.38
   1  -7   2   98.25    2.85
   1  -7   2   99.85    3.15
   1  -7   3   74.17    2.58
  -1   7  -3   75.66    2.70
   1  -7   3   74.66    3.73
   1  -7   3   74.49    2.73
   1  -7   4   12.93    1.22
   1  -7   4   10.17    1.31
  -1   7  -4   12.28    1.27
  -1   7  -4   13.09    1.22
  -1   7  -4   12.72    1.14
   1  -7   4   12.41    1.17
   1  -7   5   58.35    2.15
  -1   7  -5   53.40    2.29
  -1   7  -5   53.55    2.42
   1  -7   5   52.38    2.39
   1  -7   5   60.58    2.98
  -1   7  -5   60.17    2.87
   1  -7   5   55.31    2.42
   1  -7   6  183.29    4.37
   1  -7   6  184.73    4.17
  -1   7  -6  192.04    5.21
  -1   7  -6  189.05    4.65
  -1   7  -6  186.88    4.34
   1  -7   7   67.36    2.64
  -1   7  -7   72.08    2.98
  -1   7  -7   72.74    2.79
   1  -7   7   68.87    2.69
  -1   7  -8    4.07    0.82
   1  -7   8    5.85    0.90
   1  -7   8    4.09    0.76
  -1   7  -8    3.19    0.77
   1  -7   9   45.51    2.32
  -1   7  -9   44.97    2.41
   1  -7   9   44.75    1.97
  -1   7  -9   45.08    2.24
  -1   7 -10    0.84    0.46
   1  -7  10    1.56    0.69
  -1   7 -10    1.29    0.61
  -1   7 -11   35.93    1.91
  -1   7 -11   34.96    1.85
   1  -7  11   35.63    2.00
  -1   7 -12   15.80    1.15
   1  -7  12   15.02    1.23
  -1   7 -12   15.22    1.13
  -1   7 -13   85.68    2.19
   1  -7  13   90.88    2.47
   1  -7  14   72.73    1.73
  -1   7 -14   74.48    1.51
   1  -7  14   76.66    1.73
   1  -6 -12   98.76    2.31
  -1   6  12  102.26    2.13
  -1   6  12   97.17    2.26
   1  -6 -11   75.18    2.44
   1  -6 -11   77.49    1.91
  -1   6  11   77.40    2.52
  -1   6  11   75.34    2.39
   1  -6 -10  109.85    3.31
  -1   6  10  107.29    3.29
   1  -6 -10  104.12    2.83
  -1   6  10  112.19    3.49
   1  -6  -9  633.75    8.33
  -1   6   9  628.39    8.64
   1  -6  -9  623.06    7.65
  -1   6   9  642.09    8.88
   1  -6  -8   81.76    3.00
   1  -6  -8   81.27    2.78
  -1   6   8   83.58    3.29
  -1   6   8   77.75    3.25
   1  -6  -7    1.01    0.52
  -1   6   7    0.50    0.67
  -1   6   7    0.69    0.71
   1  -6  -7    1.02    0.67
  -1   6   6  999.19   11.08
   1  -6  -6  995.45    9.88
  -1   6   6  994.54   11.21
   1  -6  -6  976.12   10.23
  -1   6   6  988.28   11.09
  -1   6   6 1018.51   11.74
  -1   6   5   75.60    3.48
   1  -6  -5   74.65    2.77
   1  -6  -5   83.91    4.11
  -1   6   5   77.28    3.26
   1  -6  -5   83.19    2.39
   1  -6  -5   81.83    2.80
  -1   6   5   77.60    3.04
  -1   6   5   78.99    3.05
  -1   6   4   61.08    2.57
   1  -6  -4   65.26    3.56
   1  -6  -4   63.23    2.48
  -1   6   4   62.79    3.20
  -1   6   4   61.82    2.91
  -1   6   4   63.21    2.64
   1  -6  -4   60.72    1.97
   1  -6  -4   62.57    2.42
   1  -6  -3  598.70    7.22
   1  -6  -3  584.93    7.08
  -1   6   3  569.02    9.40
   1  -6  -3  581.93    5.83
  -1   6   3  595.28    7.49
  -1   6   3  587.41    7.50
  -1   6   3  582.66    8.83
   1  -6  -3  588.18   10.45
   1  -6  -2  189.30    5.87
  -1   6   2  198.18    4.07
  -1   6   2  188.87    5.38
   1  -6  -2  202.51    3.98
   1  -6  -2  206.59    3.85
  -1   6   2  193.71    4.99
  -1   6   1   36.25    2.38
   1  -6  -1   34.89    2.51
  -1   6   1   41.53    2.28
   1  -6  -1   35.29    2.84
   1  -6   0  511.02    9.32
   1  -6   0  512.83   10.35
  -1   6   0  495.09    8.46
  -1   6  -1  284.20    5.04
   1  -6   1  265.89    7.21
   1  -6   2  159.66    5.54
  -1   6  -2  164.10    4.23
   1  -6   3  303.52    7.35
  -1   6  -3  307.62    6.20
   1  -6   4    3.19    0.95
  -1   6  -4    2.94    0.73
  -1   6  -5  417.82    5.68
  -1   6  -5  416.50    6.06
   1  -6   5  414.72    5.32
   1  -6   5  403.43    5.33
   1  -6   5  400.00    8.17
  -1   6  -6  232.56    4.75
  -1   6  -6  243.05    6.37
   1  -6   6  226.54    4.39
   1  -6   6  225.19    5.86
  -1   6  -6  232.61    4.50
   1  -6   6  226.83    4.08
  -1   6  -7   23.19    1.63
   1  -6   7   22.03    1.34
  -1   6  -7   24.36    1.56
  -1   6  -7   24.84    2.11
   1  -6   7   24.06    1.61
  -1   6  -8   48.75    2.23
   1  -6   8   44.83    2.26
  -1   6  -8   46.96    2.35
  -1   6  -9  226.35    4.93
  -1   6  -9  234.48    5.26
   1  -6   9  219.40    5.11
  -1   6 -10   83.99    3.06
   1  -6  10   85.06    3.29
  -1   6 -10   86.20    3.20
   1  -6  11  125.31    3.94
  -1   6 -11  126.95    3.68
  -1   6 -11  129.19    3.74
   1  -6  12   20.79    1.59
  -1   6 -12   23.53    1.51
  -1   6 -12   21.95    1.50
   1  -6  13  100.78    3.04
  -1   6 -13   90.52    2.63
   1  -6  14  141.47    2.98
  -1   6 -14  136.78    2.68
   1  -5 -13   41.33    1.54
  -1   5  13   43.56    1.61
  -1   5  12  104.19    3.07
  -1   5  12  106.68    2.69
   1  -5 -12  110.37    3.02
  -1   5  11  105.69    3.51
  -1   5  11  105.50    3.16
   1  -5 -11  105.86    3.32
   1  -5 -11  108.74    2.62
   1  -5 -10    1.81    0.53
   1  -5 -10    2.27    0.72
  -1   5  10    1.45    0.71
   1  -5 -10    1.97    0.43
  -1   5  10    1.85    0.71
  -1   5   9  113.23    3.97
   1  -5  -9  114.86    3.65
  -1   5   9  107.28    3.66
   1  -5  -9  109.08    3.28
   1  -5  -8   64.09    2.43
  -1   5   8   62.24    2.89
  -1   5   8   66.13    2.85
   1  -5  -8   65.00    2.57
   1  -5  -7    7.36    0.99
  -1   5   7    5.42    0.88
  -1   5   7    8.77    1.11
   1  -5  -7    9.31    1.37
   1  -5  -7    9.98    1.02
  -1   5   7    9.28    1.27
  -1   5   7    8.69    1.19
  -1   5   6    6.28    0.89
   1  -5  -6    8.05    0.87
   1  -5  -6    3.91    0.90
   1  -5  -6    5.84    0.81
  -1   5   6    5.23    0.94
   1  -5  -6    8.44    0.73
  -1   5   6    7.97    1.23
  -1   5   6    5.54    0.86
   1  -5  -5   53.52    3.06
   1  -5  -5   58.53    2.16
   1  -5  -5   53.02    1.99
  -1   5   5   50.26    2.69
  -1   5   5   53.32    2.23
  -1   5   5   55.43    2.88
  -1   5   5   51.75    2.23
  -1   5   4    1.40    0.54
   1  -5  -4    1.79    0.72
  -1   5   4    2.81    0.67
  -1   5   3  141.53    4.47
  -1   5   3  143.25    4.14
   1  -5  -3  144.58    4.84
   1  -5  -2   62.72    2.37
   1  -5  -2   64.60    3.18
  -1   5   2   62.23    2.61
  -1   5   2   63.10    2.92
  -1   5   1   36.52    1.94
  -1   5   1   32.59    2.07
   1  -5  -1   33.98    2.28
   1  -5  -1   36.62    1.73
  -1   5   0  218.75    5.12
  -1   5   0  225.84    4.68
  -1   5   0  221.31    4.15
   1  -5   0  234.63    4.22
   1  -5   0  231.27    5.65
   1  -5   0  221.90    6.28
   1  -5   1  585.33    9.94
  -1   5  -1  596.56    7.26
  -1   5  -1  581.35    8.12
   1  -5   2   41.26    2.65
   1  -5   2   44.91    1.91
  -1   5  -2   43.85    2.12
   1  -5   3  143.93    3.54
  -1   5  -3  142.15    4.01
   1  -5   3  137.83    4.61
   1  -5   4    1.19    0.50
   1  -5   4    0.02    0.50
  -1   5  -4    0.87    0.55
   1  -5   5    8.98    1.20
  -1   5  -5    9.40    1.18
   1  -5   5    7.28    0.89
   1  -5   6  424.39    7.16
  -1   5  -6  433.50    8.14
   1  -5   6  434.14    8.04
   1  -5   7   16.90    1.24
   1  -5   7   17.81    1.50
  -1   5  -7   19.24    1.36
  -1   5  -7   18.64    1.83
  -1   5  -7   19.47    1.24
   1  -5   7   19.61    1.77
   1  -5   7   18.77    1.09
   1  -5   7   24.01    1.51
  -1   5  -8   29.95    2.30
   1  -5   8   28.67    2.03
  -1   5  -8   28.80    1.74
   1  -5   8   25.66    1.67
   1  -5   8   29.56    1.99
   1  -5   8   29.35    1.52
   1  -5   8   31.22    1.76
  -1   5  -8   29.34    1.65
   1  -5   9  249.10    5.35
   1  -5   9  251.62    5.09
  -1   5  -9  253.09    5.18
  -1   5  -9  267.20    6.81
  -1   5  -9  251.01    4.97
   1  -5   9  253.39    4.84
   1  -5   9  234.95    5.56
   1  -5  10  268.79    5.23
   1  -5  10  266.80    5.72
  -1   5 -10  268.35    5.46
  -1   5 -10  262.75    5.25
   1  -5  11  421.47    7.34
  -1   5 -11  424.19    6.78
  -1   5 -11  406.69    6.67
   1  -5  11  417.34    6.63
   1  -5  12   99.45    3.51
  -1   5 -12  101.64    3.27
  -1   5 -12  100.97    3.14
  -1   5 -13   21.77    1.45
   1  -5  13   21.38    1.58
  -1   5 -14   92.38    2.53
   1  -5  14   95.26    2.72
   1  -5  15  154.45    2.55
  -1   5 -15  158.90    2.60
  -1   4  14   12.61    0.88
   1  -4 -14   13.69    0.87
  -1   4  13   30.56    1.71
   1  -4 -13   30.39    1.60
   1  -4 -12    1.76    0.61
  -1   4  12    2.25    0.53
  -1   4  12    2.66    0.74
  -1   4  11   17.09    1.68
  -1   4  11   18.89    1.39
  -1   4  11   16.88    1.33
   1  -4 -11   18.00    1.47
   1  -4 -10   59.80    2.15
   1  -4 -10   62.48    2.28
   1  -4 -10   57.29    2.58
  -1   4  10   58.41    2.41
  -1   4  10   57.25    2.90
  -1   4  10   57.60    2.52
   1  -4  -9  152.50    4.05
   1  -4  -9  141.08    4.44
  -1   4   9  151.44    4.11
  -1   4   9  152.54    3.76
   1  -4  -9  152.41    3.69
  -1   4   9  148.46    4.45
  -1   4   8  753.51    7.61
  -1   4   8  754.97   11.12
   1  -4  -8  783.60    7.99
   1  -4  -8  758.99    8.01
  -1   4   8  779.68    9.71
  -1   4   8  761.50    8.95
   1  -4  -8  757.11   11.09
  -1   4   8  771.65    9.55
  -1   4   7   35.59    1.98
   1  -4  -7   37.58    1.65
  -1   4   7   38.26    1.91
   1  -4  -7   32.12    2.32
   1  -4  -7   36.33    1.67
  -1   4   7   36.36    2.26
  -1   4   7   34.57    2.37
  -1   4   6   56.69    2.85
   1  -4  -6   58.49    3.02
  -1   4   6   57.77    2.82
  -1   4   5  943.06   10.89
   1  -4  -5  939.79   11.80
  -1   4   5  921.08   11.07
   1  -4  -4   20.90    1.76
  -1   4   4   23.55    1.79
  -1   4   4   21.04    1.59
   1  -4  -3  833.37   10.30
  -1   4   3  828.29    9.85
  -1   4   3  813.84    8.99
  -1   4   2    2.01    0.78
  -1   4   2    2.22    0.44
  -1   4   2    0.88    0.47
   1  -4  -2    0.72    0.65
   1  -4  -1   20.34    1.15
  -1   4   1   18.22    1.48
  -1   4   1   20.11    1.29
   1  -4  -1   18.19    1.52
  -1   4   0   55.90    2.00
   1  -4   0   51.42    2.45
   1  -4   0   57.44    1.82
   1  -4   0   51.85    2.76
  -1   4   0   56.35    2.03
  -1   4   0   51.33    2.24
   1  -4   1   82.55    2.18
  -1   4  -1   79.32    2.64
   1  -4   1   79.05    3.31
  -1   4  -1   79.56    2.42
  -1   4  -1   80.28    2.56
   1  -4   1   75.74    2.91
   1  -4   2 1252.51   12.70
  -1   4  -2 1240.55   10.49
  -1   4  -2 1223.30    9.91
   1  -4   2 1257.50    8.80
   1  -4   3  213.00    3.86
   1  -4   3  205.10    5.02
  -1   4  -3  202.68    4.55
  -1   4  -4 2329.02   16.18
   1  -4   4 2371.28   13.92
   1  -4   4 2344.12   17.07
   1  -4   5  365.14    5.93
   1  -4   5  360.32    6.83
  -1   4  -5  362.51    6.75
  -1   4  -6  156.20    4.63
   1  -4   6  151.87    4.49
   1  -4   6  155.16    4.16
  -1   4  -7  426.88    8.04
   1  -4   7  411.63    7.27
   1  -4   7  411.65    7.54
   1  -4   8  191.02    3.71
   1  -4   8  189.95    4.08
   1  -4   8  176.37    5.04
  -1   4  -8  185.03    5.46
   1  -4   8  180.35    5.11
  -1   4  -8  188.79    3.68
   1  -4   9  325.78    6.55
   1  -4   9  326.75    5.52
   1  -4   9  320.27    6.97
  -1   4  -9  337.05    7.54
   1  -4   9  331.63    5.86
   1  -4   9  324.81    4.82
  -1   4  -9  325.68    5.38
  -1   4 -10    3.46    0.72
   1  -4  10    3.30    0.79
  -1   4 -10    1.74    0.55
  -1   4 -10    1.21    0.51
   1  -4  10    2.12    0.71
  -1   4 -11  481.18    7.16
  -1   4 -11  492.34    7.15
   1  -4  11  497.32    7.76
   1  -4  11  486.84    7.47
   1  -4  12  170.65    4.54
  -1   4 -12  171.79    4.29
   1  -4  12  171.87    4.49
  -1   4 -12  178.12    4.18
   1  -4  13  216.41    4.83
   1  -4  13  211.97    4.77
  -1   4 -13  216.58    4.63
   1  -4  14    2.59    0.61
  -1   4 -14    2.52    0.54
   1  -4  14    2.74    0.66
  -1   4 -15   82.12    2.11
   1  -3 -15   14.55    0.83
  -1   3  15   14.15    0.81
  -1   3  14    3.82    0.70
   1  -3 -14    3.36    0.60
   1  -3 -13   23.14    1.56
  -1   3  13   23.22    1.72
  -1   3  13   21.32    1.41
   1  -3 -12   76.89    2.97
  -1   3  12   75.73    2.85
  -1   3  12   71.85    2.35
  -1   3  12   72.65    3.18
  -1   3  11    1.73    0.82
   1  -3 -11    2.48    0.51
  -1   3  11    2.18    0.61
  -1   3  11    0.91    0.58
   1  -3 -11    2.01    0.67
   1  -3 -10  133.23    3.19
  -1   3  10  123.53    4.10
  -1   3  10  129.46    3.49
   1  -3 -10  132.91    3.77
  -1   3  10  124.24    3.74
   1  -3  -9   32.76    1.79
  -1   3   9   35.36    1.81
   1  -3  -9   34.84    1.55
  -1   3   9   33.49    2.47
   1  -3  -9   31.03    2.14
  -1   3   9   32.31    1.84
  -1   3   9   35.06    2.10
  -1   3   8  275.94    4.57
   1  -3  -8  291.31    4.82
  -1   3   8  280.37    5.97
   1  -3  -8  265.49    6.35
  -1   3   8  280.49    5.37
   1  -3  -8  287.98    4.29
   1  -3  -8  277.13    4.01
  -1   3   8  273.34    6.70
  -1   3   8  279.16    4.59
  -1   3   7   45.87    2.62
   1  -3  -7   42.86    2.46
  -1   3   6   56.14    2.63
   1  -3  -6   56.95    2.72
  -1   3   6   54.54    2.69
  -1   3   5  190.57    4.67
  -1   3   5  188.19    4.59
   1  -3  -5  191.93    4.74
  -1   3   4    5.50    0.91
  -1   3   4    6.87    0.94
   1  -3  -4    4.27    0.81
  -1   3   3  698.74    6.06
   1  -3  -3  692.07    8.21
  -1   3   3  684.49    8.05
  -1   3   3  670.28    7.31
  -1   3   2 1032.41    8.24
  -1   3   2 1043.76    7.47
   1  -3  -2 1037.35    9.65
  -1   3   2 1052.07    9.41
   1  -3  -1  342.29    5.38
  -1   3   1  348.44    4.49
  -1   3   1  355.59    4.44
   1  -3   0  419.46    3.95
  -1   3   0  406.82    5.30
  -1   3   0  429.57    5.22
   1  -3   0  401.52    6.44
  -1   3   0  415.43    4.51
   1  -3   0  419.13    5.84
  -1   3  -1 2308.69   11.87
  -1   3  -1 2332.97   12.65
   1  -3   1 2273.67   15.08
   1  -3   1 2270.14    9.31
  -1   3  -2  788.41    6.56
   1  -3   2  790.62    5.93
  -1   3  -3    0.63    0.18
   1  -3   3    0.66    0.32
  -1   3  -3    1.13    0.59
   1  -3   3    1.26    0.60
   1  -3   4  750.39    8.72
   1  -3   4  727.85    7.15
  -1   3  -4  735.18    8.41
   1  -3   5   32.08    1.93
   1  -3   5   33.33    1.72
  -1   3  -5   32.68    1.95
   1  -3   6   88.42    3.27
   1  -3   6   79.51    2.89
  -1   3  -6   90.39    3.30
   1  -3   7  272.61    5.77
  -1   3  -7  277.71    6.12
   1  -3   7  277.58    5.97
   1  -3   8  152.13    4.62
   1  -3   8  157.45    4.67
  -1   3  -8  153.61    4.68
   1  -3   9  181.05    4.04
  -1   3  -9  173.62    3.65
  -1   3  -9  174.59    5.13
   1  -3   9  176.33    3.97
   1  -3   9  169.39    5.22
   1  -3   9  175.27    5.04
  -1   3 -10   -1.02    0.51
   1  -3  10    1.11    0.61
  -1   3 -10    2.84    0.56
  -1   3 -10    0.27    0.66
   1  -3  10    2.33    0.75
  -1   3 -10    0.86    0.46
   1  -3  10    0.72    0.64
  -1   3 -11   56.49    2.42
   1  -3  11   58.96    2.69
   1  -3  11   54.53    2.53
  -1   3 -12    1.81    0.45
  -1   3 -12    1.19    0.55
   1  -3  12   -0.04    0.52
   1  -3  12    1.67    0.80
   1  -3  13   29.50    1.75
  -1   3 -13   31.62    1.84
   1  -3  13   32.08    2.06
   1  -3  14   24.69    1.41
  -1   3 -14   24.93    1.52
   1  -3  14   26.40    1.71
   1  -3  15   11.47    1.00
  -1   3 -15   12.39    0.92
  -1   2  15    6.37    0.77
  -1   2  15    5.68    0.63
   1  -2 -15    7.05    0.72
  -1   2  14    0.24    0.53
   1  -2 -14    0.62    0.46
   1  -2 -14    1.64    0.33
  -1   2  14    0.52    0.48
   1  -2 -13    1.18    0.63
  -1   2  13    1.51    0.61
  -1   2  13    0.99    0.72
  -1   2  12   44.27    2.38
  -1   2  12   44.03    2.57
   1  -2 -12   41.14    2.21
   1  -2 -11   16.45    1.13
   1  -2 -11   17.38    1.44
  -1   2  11   17.82    1.65
  -1   2  11   16.93    1.56
   1  -2 -10  476.34    6.83
  -1   2  10  474.82    7.38
  -1   2  10  482.68    9.45
   1  -2 -10  481.13    5.86
  -1   2  10  486.43    7.72
   1  -2  -9   24.60    1.44
  -1   2   9   24.65    1.56
  -1   2   9   21.74    2.04
   1  -2  -9   24.04    1.72
  -1   2   9   24.73    1.67
   1  -2  -8  179.84    4.79
  -1   2   8  171.69    4.56
   1  -2  -7  590.56    8.14
  -1   2   7  596.40    8.09
  -1   2   7  595.23    9.14
  -1   2   6   12.11    1.31
  -1   2   6   12.50    1.20
   1  -2  -6   11.53    1.13
   1  -2  -5 3177.10   16.73
  -1   2   5 3195.02   17.72
  -1   2   5 3219.86   17.23
  -1   2   4  720.99    7.52
  -1   2   4  745.00    7.88
   1  -2  -4  741.10    7.55
  -1   2   3 2701.52   14.00
  -1   2   3 2681.64   12.79
   1  -2  -2 9465.60   23.86
  -1   2   2 9417.46   20.70
  -1   2   2 9448.29   24.35
   1  -2  -1  512.57    5.32
  -1   2   1  515.74    4.14
  -1   2   1  521.55    5.25
  -1   2   0  279.38    3.75
  -1   2   0  273.29    2.73
   1  -2   0  268.83    3.79
   1  -2   0  270.31    4.38
   1  -2   0  281.63    2.19
   1  -2   1  963.97    8.17
  -1   2  -1  961.30    6.09
  -1   2  -2 2741.03   13.11
  -1   2  -2 2668.14    9.24
   1  -2   2 2744.18   13.76
  -1   2  -3  452.09    5.57
   1  -2   3  454.48    4.61
   1  -2   3  463.82    5.98
   1  -2   4  145.88    3.54
   1  -2   4  144.92    3.01
  -1   2  -4  139.51    3.33
  -1   2  -5  348.28    5.64
   1  -2   5  359.09    5.94
   1  -2   5  364.35    5.46
   1  -2   6   28.36    1.73
   1  -2   6   32.97    1.97
  -1   2  -6   31.30    1.82
   1  -2   7  148.62    4.22
  -1   2  -7  150.05    4.14
   1  -2   7  147.64    4.27
  -1   2  -8  272.61    5.72
   1  -2   8  270.22    6.03
   1  -2   8  274.27    6.18
  -1   2  -9    1.68    0.48
   1  -2   9    4.43    0.92
  -1   2  -9    3.72    0.58
   1  -2   9    4.08    0.61
   1  -2   9    2.13    0.77
  -1   2  -9    5.51    0.96
   1  -2   9    4.63    0.72
  -1   2 -10  113.50    3.60
   1  -2  10  114.00    3.18
  -1   2 -10  114.16    3.23
   1  -2  10  112.67    3.41
   1  -2  10  106.07    4.57
  -1   2 -10  115.31    4.36
   1  -2  11    1.23    0.72
  -1   2 -11    1.20    0.52
   1  -2  11    1.54    0.61
   1  -2  12    0.12    0.47
  -1   2 -12    1.36    0.56
   1  -2  12    0.70    0.75
   1  -2  13  458.54    6.30
   1  -2  13  455.98    7.42
  -1   2 -13  463.32    6.91
   1  -2  14   74.75    2.87
  -1   2 -14   73.69    2.59
   1  -2  15  203.65    3.96
  -1   2 -15  199.02    3.56
  -1   2 -16   56.96    1.35
   1  -1 -16    6.58    0.57
  -1   1  16    6.83    0.58
   1  -1 -15  102.15    2.74
  -1   1  15   98.15    2.81
  -1   1  14    7.75    1.17
   1  -1 -14    9.07    1.06
   1  -1 -14    7.79    0.70
  -1   1  14    9.14    1.15
  -1   1  13   20.18    1.71
   1  -1 -13   20.30    1.59
  -1   1  13   18.33    1.73
  -1   1  12  104.62    3.82
  -1   1  12  101.34    3.70
   1  -1 -12  107.92    2.87
   1  -1 -12  104.00    3.47
   1  -1 -11    7.46    0.79
  -1   1  11    6.85    1.11
  -1   1  11    6.41    1.13
   1  -1 -11    8.00    1.00
  -1   1  11    7.16    1.14
  -1   1  10  166.47    3.42
   1  -1 -10  172.73    3.35
  -1   1  10  177.71    4.38
  -1   1  10  162.69    5.60
  -1   1  10  174.00    4.45
   1  -1 -10  169.61    3.92
  -1   1   9   10.01    1.07
  -1   1   9   10.45    1.06
  -1   1   9    8.91    1.37
  -1   1   9    8.92    0.98
  -1   1   8   79.63    2.93
  -1   1   8   78.93    3.52
   1  -1  -8   76.63    2.82
  -1   1   7  112.82    3.92
  -1   1   7  118.92    3.43
   1  -1  -7  111.57    3.19
   1  -1  -6  759.31    7.64
  -1   1   6  761.68    9.21
  -1   1   6  779.18    8.23
  -1   1   5  820.66    7.92
   1  -1  -5  802.21    7.16
  -1   1   4   45.45    1.79
   1  -1  -4   47.34    1.57
  -1   1   4   46.84    1.79
  -1   1   3 2119.73   10.10
  -1   1   3 2144.47   10.83
  -1   1   2  499.78    4.70
  -1   1   2  489.54    3.88
   1  -1  -2  504.76    4.12
   1  -1  -1    1.27    0.30
  -1   1   1    1.51    0.35
   1  -1   0 2524.61   10.05
   1  -1   0 2523.75    5.84
  -1   1  -1  897.87    4.17
  -1   1  -1  893.68    6.11
   1  -1   1  931.61    3.70
   1  -1   1  929.29    6.36
  -1   1  -2  196.32    3.10
   1  -1   2  198.48    3.24
  -1   1  -2  197.41    1.46
   1  -1   2  198.80    2.37
   1  -1   3  559.86    5.90
   1  -1   3  555.88    4.91
   1  -1   4  157.74    3.13
   1  -1   4  156.78    3.47
  -1   1  -4  156.97    3.11
  -1   1  -5  122.88    2.95
   1  -1   5  129.36    3.23
   1  -1   5  124.94    3.41
  -1   1  -6   20.03    1.34
   1  -1   6   17.09    1.45
  -1   1  -7   17.51    1.30
  -1   1  -7   15.97    1.52
   1  -1   7   16.19    1.58
   1  -1   7   16.85    1.51
   1  -1   8  160.20    4.67
   1  -1   8  162.63    5.09
  -1   1  -8  176.64    4.19
  -1   1  -8  166.34    5.03
   1  -1   9   23.42    1.41
   1  -1   9   20.70    1.97
  -1   1  -9   20.81    1.98
  -1   1 -10  241.37    4.65
   1  -1  10  243.03    4.00
   1  -1  10  241.39    6.87
  -1   1 -10  237.26    6.43
   1  -1  10  249.16    5.02
   1  -1  10  259.84    5.06
   1  -1  11    0.22    0.64
   1  -1  11    0.53    0.45
  -1   1 -11    0.76    0.53
  -1   1 -11    0.64    0.53
  -1   1 -12   46.44    2.27
   1  -1  12   45.66    2.05
   1  -1  12   43.67    2.38
   1  -1  13  335.66    5.29
  -1   1 -13  335.03    5.90
   1  -1  13  338.01    6.32
   1  -1  14    7.13    1.00
   1  -1  14    4.52    0.58
  -1   1 -14    5.87    0.82
   1  -1  15  118.62    2.93
  -1   1 -15  113.04    2.65
  -1   0  16  141.56    2.87
   1   0 -16  145.28    2.73
   1   0 -15  103.09    2.90
  -1   0  15  103.49    3.13
   1   0 -14    5.08    0.61
  -1   0  14    4.79    0.99
  -1   0  14    5.32    1.07
   1   0 -14    4.81    0.83
  -1   0  13  146.33    4.52
   1   0 -13  147.67    3.45
  -1   0  13  145.51    4.44
   1   0 -13  141.88    3.22
   1   0 -13  145.58    4.08
  -1   0  13  139.42    3.72
  -1   0  12  439.16    6.81
   1   0 -12  435.32    6.95
   1   0 -12  447.87    5.99
  -1   0  12  452.80    7.80
  -1   0  12  436.26    7.61
  -1   0  11   88.07    2.98
  -1   0  11   93.25    4.30
  -1   0  11   92.72    3.39
  -1   0  11   89.88    3.31
   1   0 -11   98.14    4.25
   1   0 -11   89.66    3.01
   1   0 -11   89.82    2.62
  -1   0  10  184.80    4.46
   1   0 -10  178.27    5.58
  -1   0  10  182.89    4.40
  -1   0  10  172.54    5.81
   1   0 -10  183.30    3.37
   1   0 -10  185.67    3.98
  -1   0  10  181.41    3.85
  -1   0   9   18.33    1.36
  -1   0   9   16.97    1.75
  -1   0   8  470.89    7.82
  -1   0   8  477.62    6.92
   1   0  -8  486.71    6.34
   1   0  -7   85.01    2.51
  -1   0   7   80.09    2.68
  -1   0   7   81.47    2.97
   1   0  -6  198.87    3.43
  -1   0   6  193.52    3.92
  -1   0   5 1623.08   10.57
  -1   0   5 1603.69   10.74
   1   0  -4  515.44    4.12
  -1   0   4  518.02    5.51
  -1   0   4  508.11    5.20
   1   0  -3 9951.35   20.92
  -1   0   3 9999.00   21.58
   1   0  -2   71.85    1.53
   1   0  -2   71.28    0.94
  -1   0   2   70.06    1.31
  -1   0   1  687.43    3.27
   1   0  -1  690.51    4.11
   1   0  -1  695.86    3.39
   1   0   1 2285.28    6.66
   1   0   1 2269.83    8.32
   1   0   2 1436.26    8.04
  -1   0  -2 1422.61    6.86
  -1   0  -3  224.02    2.86
   1   0   3  231.29    3.50
   1   0   4  298.45    4.74
  -1   0  -4  297.17    3.58
   1   0   4  297.57    4.67
  -1   0  -5    4.83    0.85
   1   0   5    5.62    0.90
   1   0   5    3.95    0.80
  -1   0  -5    4.95    0.58
   1   0   6   11.39    1.25
   1   0   6   11.10    1.22
  -1   0  -6   13.56    0.95
  -1   0  -6   10.23    1.24
  -1   0  -7  135.68    2.99
   1   0   7  127.79    4.24
  -1   0  -7  125.45    4.25
   1   0   7  124.48    3.98
  -1   0  -8    1.06    0.67
   1   0   8    0.69    0.49
   1   0   9   65.64    3.44
   1   0   9   66.21    2.28
  -1   0  -9   65.34    3.36
  -1   0  -9   64.93    2.12
   1   0   9   68.99    2.24
  -1   0 -10   10.15    1.04
  -1   0 -10    9.59    1.37
   1   0  10    7.69    1.29
   1   0  10   10.37    1.08
   1   0  10   10.19    1.08
   1   0  11   76.86    2.97
  -1   0 -11   79.69    2.84
   1   0  11   81.45    3.02
   1   0  12    8.35    1.10
  -1   0 -12    9.21    1.08
   1   0  12    8.64    1.03
   1   0  12    7.66    1.10
  -1   0 -13  111.46    3.39
   1   0  13  112.40    3.48
   1   0  13  110.45    3.24
  -1   0 -14   14.39    1.15
   1   0  14   12.42    1.01
  -1   0 -15   39.76    1.53
   1   0  15   43.21    1.62
   1   0  15   39.76    1.35
   1   1 -16  115.40    2.53
  -1  -1  16  107.37    2.63
  -1  -1  15  114.86    3.37
   1   1 -15  117.79    3.15
   1   1 -14  204.56    3.74
  -1  -1  14  200.05    4.44
   1   1 -14  208.13    4.70
  -1  -1  14  195.78    4.94
   1   1 -13   43.98    2.26
  -1  -1  13   41.66    2.48
  -1  -1  13   41.21    2.24
   1   1 -13   43.62    1.92
  -1  -1  13   43.39    2.48
  -1  -1  12  194.64    5.12
  -1  -1  12  196.15    5.02
   1   1 -12  193.18    4.05
   1   1 -12  194.56    4.08
   1   1 -12  191.12    4.56
  -1  -1  12  189.00    4.81
   1   1 -11  137.43    3.66
  -1  -1  11  132.71    3.92
   1   1 -11  134.12    5.09
  -1  -1  11  142.66    5.48
   1   1 -11  141.57    3.35
  -1  -1  11  135.80    4.00
  -1  -1  11  143.05    4.11
  -1  -1  10   95.56    3.16
   1   1 -10   91.75    4.00
  -1  -1  10   93.68    3.06
  -1  -1  10   95.14    3.98
  -1  -1  10   87.93    4.21
  -1  -1  10   93.63    2.96
   1   1 -10   94.21    2.47
   1   1 -10   96.42    2.82
   1   1  -9   53.49    2.90
  -1  -1   9   52.00    2.27
  -1  -1   9   51.46    2.83
  -1  -1   8   50.24    2.59
   1   1  -8   51.43    2.68
  -1  -1   8   50.61    2.24
  -1  -1   7    0.77    0.38
  -1  -1   7    1.83    0.75
   1   1  -7    2.52    0.72
   1   1  -7    0.96    0.56
   1   1  -7    1.89    0.35
  -1  -1   6  338.35    5.19
  -1  -1   6  335.50    5.70
   1   1  -6  323.93    5.38
   1   1  -5    6.92    0.83
   1   1  -5    8.04    0.54
  -1  -1   5    8.64    0.92
   1   1  -5    8.35    0.92
   1   1  -4 1265.45    8.78
   1   1  -4 1259.37    8.80
  -1  -1   4 1280.21    8.87
  -1  -1   3   73.66    1.93
   1   1  -3   74.06    1.90
   1   1  -3   75.43    1.94
   1   1  -2    6.84    0.56
  -1  -1   2    8.26    0.63
  -1  -1   1 4069.39   11.97
   1   1  -1 4064.62   11.85
   1   1   0    8.57    0.59
   1   1   0    8.96    0.52
  -1  -1   0    7.93    0.48
   1   1   1 1234.31    6.36
   1   1   1 1224.18    6.65
   1   1   2 3131.26   12.39
  -1  -1  -2 3113.43    7.35
   1   1   2 3097.36   13.22
  -1  -1  -2 3131.74   13.49
  -1  -1  -3    0.89    0.18
   1   1   3    1.58    0.22
  -1  -1  -3    1.33    0.47
   1   1   3    1.04    0.40
   1   1   3    1.32    0.47
   1   1   4 2076.29    6.62
  -1  -1  -4 2034.93    6.90
   1   1   4 2055.67   13.03
  -1  -1  -4 2038.03   13.91
   1   1   5   18.37    1.45
  -1  -1  -5   16.01    1.45
  -1  -1  -5   17.38    0.73
   1   1   6   62.50    2.84
  -1  -1  -6   66.74    2.99
   1   1   7  278.20    6.43
  -1  -1  -7  300.54    6.79
   1   1   8  104.51    4.22
  -1  -1  -8  102.15    4.15
   1   1   9  297.99    7.43
   1   1   9  302.14    4.70
  -1  -1  -9  295.41    7.30
  -1  -1  -9  292.21    4.75
   1   1   9  297.97    4.65
   1   1   9  299.51    4.73
   1   1  10   78.82    2.75
   1   1  10   80.22    3.98
  -1  -1 -10   78.76    3.76
  -1  -1 -10   78.28    2.78
   1   1  10   73.74    2.60
   1   1  10   76.25    2.74
   1   1  11  282.45    5.51
   1   1  11  283.90    5.43
  -1  -1 -11  284.06    5.43
   1   1  12  319.37    5.85
   1   1  12  317.46    5.71
  -1  -1 -12  325.19    5.88
  -1  -1 -13   25.10    1.61
   1   1  13   23.66    1.52
   1   1  13   25.07    1.63
  -1  -1 -14    8.85    0.88
   1   1  14    7.57    0.83
   1   1  15    9.86    0.72
  -1  -1 -15   10.64    0.75
   1   2 -16   18.40    1.04
  -1  -2  16   18.20    1.11
  -1  -2  15  170.26    3.98
   1   2 -15  177.41    3.86
  -1  -2  15  171.74    3.74
   1   2 -14  464.41    6.93
   1   2 -14  464.20    5.71
  -1  -2  14  459.52    7.26
  -1  -2  14  456.41    7.08
  -1  -2  13   80.49    3.29
   1   2 -13   80.31    3.01
   1   2 -13   82.81    2.64
  -1  -2  13   78.79    3.20
   1   2 -12  544.34    6.86
   1   2 -12  539.73    7.62
  -1  -2  12  534.86    8.08
  -1  -2  12  522.42    8.23
  -1  -2  11   54.72    2.55
  -1  -2  11   56.34    3.26
   1   2 -11   54.88    2.15
  -1  -2  11   58.13    3.53
  -1  -2  11   52.08    2.59
  -1  -2  11   56.67    2.60
   1   2 -11   54.49    2.15
   1   2 -11   58.86    3.20
   1   2 -11   54.88    2.35
  -1  -2  10   -0.11    0.44
  -1  -2  10    0.10    0.61
  -1  -2  10   -0.74    0.82
   1   2 -10    0.50    0.36
   1   2 -10   -0.56    0.54
  -1  -2  10    0.32    0.46
   1   2 -10    0.32    0.36
   1   2 -10    0.56    0.34
   1   2  -9  229.86    5.92
  -1  -2   9  240.56    5.00
   1   2  -9  230.64    5.69
  -1  -2   9  237.52    6.16
   1   2  -8    0.96    0.51
   1   2  -8    0.59    0.51
  -1  -2   8    0.66    0.43
  -1  -2   8    2.24    0.85
   1   2  -7    6.40    0.96
  -1  -2   7    6.17    1.03
   1   2  -7    7.18    0.99
   1   2  -6  192.00    4.32
   1   2  -6  188.89    4.39
  -1  -2   6  198.12    4.62
  -1  -2   5  973.15    9.42
   1   2  -5  966.73    8.77
   1   2  -5  989.47    9.19
  -1  -2   5  971.57    5.07
   1   2  -4  825.76    7.37
  -1  -2   4  829.36    3.90
  -1  -2   4  830.90    8.12
   1   2  -3 3021.59   12.92
  -1  -2   3 3084.15   14.47
   1   2  -3 3147.10   13.57
   1   2  -2 3674.83   13.26
  -1  -2   2 3663.19    8.63
  -1  -2   2 3674.13    9.33
   1   2  -2 3607.40   12.76
  -1  -2   2 3615.46   14.89
  -1  -2   1 2114.10   11.23
   1   2  -1 2017.66    9.60
   1   2  -1 2100.89    8.31
   1   2  -1 2096.29   10.06
  -1  -2   1 2032.17    8.07
  -1  -2   0  967.46    6.34
   1   2   0  982.61    6.92
   1   2   1  517.05    5.51
   1   2   1  516.63    5.46
   1   2   2 1118.21    8.88
   1   2   2 1109.79    8.80
  -1  -2  -2 1096.18    8.94
   1   2   3   16.01    0.86
   1   2   3   17.89    1.30
  -1  -2  -3   16.68    1.28
   1   2   4 1264.66    7.49
   1   2   4 1255.52   11.28
  -1  -2  -4 1253.08   11.65
  -1  -2  -5 1196.88   12.35
   1   2   5 1185.42   11.89
   1   2   6  565.27    8.82
  -1  -2  -6  554.01    9.01
  -1  -2  -7  174.36    5.36
   1   2   7  171.28    5.26
   1   2   8 1072.17   13.77
   1   2   8 1103.72    9.18
  -1  -2  -8 1066.15   13.81
  -1  -2  -8 1090.26    8.47
   1   2   9  273.92    5.12
   1   2   9  276.58    7.26
  -1  -2  -9  275.89    4.93
   1   2   9  271.68    4.20
  -1  -2  -9  282.91    7.32
   1   2   9  274.20    4.66
   1   2  10    0.28    0.42
   1   2  10    0.81    0.49
   1   2  10    0.77    0.43
  -1  -2 -10    1.66    0.61
   1   2  11  256.30    4.74
   1   2  11  254.18    5.13
   1   2  11  251.11    5.08
  -1  -2 -11  258.55    5.24
  -1  -2 -12    2.20    0.59
   1   2  12    1.92    0.59
   1   2  12    2.63    0.58
   1   2  13   11.17    1.16
  -1  -2 -13   11.91    1.06
  -1  -2 -14  100.07    2.53
   1   2  14  100.30    2.68
  -1  -2 -15   -0.17    0.17
   1   2  15   -0.09    0.24
  -1  -3  16   93.72    2.22
  -1  -3  16   92.84    2.18
   1   3 -16   97.15    2.24
   1   3 -15   35.07    1.71
  -1  -3  15   35.05    1.80
  -1  -3  15   33.59    1.67
  -1  -3  14   76.59    2.81
  -1  -3  14   77.96    3.07
   1   3 -14   78.84    2.35
   1   3 -14   80.50    2.85
  -1  -3  13   82.79    3.36
   1   3 -13   83.61    3.04
  -1  -3  13   80.92    3.07
   1   3 -13   82.98    2.65
  -1  -3  12  329.57    6.70
  -1  -3  12  337.42    6.14
  -1  -3  12  333.23    5.67
   1   3 -12  332.74    5.43
   1   3 -12  328.18    6.00
  -1  -3  11    6.98    1.12
  -1  -3  11    5.97    1.08
  -1  -3  11    5.97    0.94
   1   3 -11    8.48    1.01
   1   3 -11    5.93    0.87
   1   3 -11    6.88    0.84
  -1  -3  11    8.72    1.04
   1   3 -10    1.64    0.68
  -1  -3  10    0.33    0.60
   1   3 -10    0.23    0.37
   1   3 -10    0.46    0.67
  -1  -3  10    0.22    0.52
   1   3 -10    0.49    0.44
  -1  -3   9    1.10    0.53
   1   3  -9    1.91    0.46
  -1  -3   9    2.03    0.93
   1   3  -9    1.00    0.55
   1   3  -9    1.75    0.73
  -1  -3   9    1.65    0.39
   1   3  -9    2.39    0.43
   1   3  -8   15.72    1.47
   1   3  -8   15.00    1.48
  -1  -3   8   13.47    1.52
  -1  -3   7    9.47    1.23
   1   3  -7   11.40    1.27
   1   3  -6    1.04    0.41
  -1  -3   6    0.74    0.65
   1   3  -5    2.37    0.71
  -1  -3   5    3.13    0.84
   1   3  -4   41.61    1.75
   1   3  -4   44.51    1.97
  -1  -3   4   43.26    2.13
  -1  -3   4   43.26    1.14
  -1  -3   3  686.41    4.96
   1   3  -3  679.47    6.83
  -1  -3   3  683.28    7.87
   1   3  -3  677.64    6.58
  -1  -3   2   51.18    1.62
   1   3  -2   54.19    1.71
  -1  -3   2   54.13    1.61
   1   3  -2   53.75    2.03
   1   3  -2   52.42    1.76
  -1  -3   2   54.19    2.20
   1   3  -1   28.49    1.30
   1   3  -1   30.68    1.13
   1   3  -1   30.59    1.50
  -1  -3   1   28.91    1.63
  -1  -3   1   28.66    1.26
  -1  -3   0   12.68    0.94
   1   3   0   13.88    0.96
   1   3   1   74.47    2.32
   1   3   1   76.27    2.58
  -1  -3  -1   76.83    2.48
   1   3   2  880.89    9.19
  -1  -3  -2  872.70    8.96
   1   3   3   51.10    1.87
   1   3   3   47.84    2.34
  -1  -3  -3   48.84    2.34
  -1  -3  -4  474.49    7.79
   1   3   4  481.83    5.73
   1   3   4  466.82    7.55
   1   3   5 1391.61   13.84
  -1  -3  -5 1365.32   14.11
   1   3   6  737.80   10.73
  -1  -3  -6  740.02   10.99
   1   3   7  122.14    3.14
   1   3   7  118.23    4.53
  -1  -3  -7  121.58    4.70
  -1  -3  -8  141.42    3.46
   1   3   8  149.65    3.84
   1   3   8  143.88    5.12
   1   3   8  144.01    3.11
  -1  -3  -8  144.12    5.24
  -1  -3  -9    8.32    1.40
  -1  -3  -9    9.83    1.01
   1   3   9    6.86    0.94
   1   3   9    9.09    1.37
   1   3   9    9.69    0.98
  -1  -3 -10   79.75    2.91
   1   3  10   80.16    3.07
   1   3  10   85.14    2.81
  -1  -3 -11   36.69    1.99
   1   3  11   34.94    1.83
   1   3  11   36.46    2.07
  -1  -3 -12    5.25    0.85
  -1  -3 -13    8.47    0.85
   1   3  13    9.82    0.98
  -1  -3 -14    8.43    0.66
   1   3  14    9.82    0.79
   1   4 -16   54.40    1.55
  -1  -4  16   53.09    1.63
  -1  -4  15    5.35    0.63
  -1  -4  15    5.99    0.85
   1   4 -15    5.86    0.73
  -1  -4  14  100.42    3.47
  -1  -4  14  105.07    2.95
   1   4 -14  101.25    2.57
   1   4 -14  102.19    3.10
   1   4 -13   57.37    2.51
  -1  -4  13   58.42    2.85
   1   4 -13   56.51    2.17
  -1  -4  13   58.73    2.40
  -1  -4  13   51.84    2.27
   1   4 -12    2.76    0.73
  -1  -4  12    1.76    0.71
   1   4 -12    2.22    0.48
  -1  -4  12    3.05    0.81
   1   4 -12    3.35    0.67
  -1  -4  11  240.90    5.32
   1   4 -11  256.27    4.36
  -1  -4  11  249.71    5.77
  -1  -4  11  255.91    4.83
   1   4 -11  251.42    4.80
   1   4 -11  256.14    5.17
   1   4 -10  264.31    5.01
   1   4 -10  266.49    4.81
  -1  -4  10  263.03    5.44
   1   4 -10  272.34    6.83
  -1  -4  10  273.06    4.43
  -1  -4  10  269.76    7.20
   1   4 -10  260.63    5.83
  -1  -4  10  270.70    5.62
  -1  -4   9    8.77    1.38
   1   4  -9    9.51    0.96
  -1  -4   9   12.08    1.24
   1   4  -9    8.21    1.16
   1   4  -9   10.80    0.95
  -1  -4   9    9.61    1.05
   1   4  -9   10.08    1.19
   1   4  -8  408.25    7.26
   1   4  -8  412.85    8.00
  -1  -4   8  411.82    8.37
   1   4  -7  957.26   10.42
  -1  -4   7  969.57   12.33
   1   4  -7  953.39   11.49
   1   4  -6 2453.81   15.68
   1   4  -6 2451.94   17.51
  -1  -4   6 2416.62   18.70
   1   4  -5   76.46    2.60
   1   4  -5   77.60    2.94
  -1  -4   5   78.07    3.26
   1   4  -4  969.04    9.55
   1   4  -4  985.36    8.78
  -1  -4   4  994.66   11.15
   1   4  -3  109.30    2.93
  -1  -4   3  107.39    2.60
  -1  -4   3  106.40    3.55
  -1  -4   2    2.01    0.55
  -1  -4   2    1.88    0.65
  -1  -4   2    2.41    0.59
   1   4  -2    1.71    0.43
   1   4  -2    2.43    0.72
  -1  -4   1  338.74    5.24
   1   4  -1  344.95    4.03
   1   4  -1  347.01    5.87
  -1  -4   1  333.82    6.22
   1   4  -1  340.04    4.88
  -1  -4   0  319.25    6.22
   1   4   0  320.84    4.90
   1   4   0  324.50    5.79
  -1  -4   0  312.01    5.41
   1   4   1  198.54    4.10
  -1  -4  -1  192.47    4.48
   1   4   1  200.90    4.70
  -1  -4  -2   52.60    2.54
   1   4   2   56.86    2.64
  -1  -4  -3  294.25    6.25
   1   4   3  294.38    6.24
  -1  -4  -4 1316.25   14.04
   1   4   4 1301.02   13.72
  -1  -4  -5   82.28    3.75
   1   4   5   78.34    3.55
  -1  -4  -6 1299.47   15.29
   1   4   6 1330.96   10.62
  -1  -4  -7  181.67    5.90
   1   4   7  168.32    4.12
   1   4   7  173.21    5.61
   1   4   8  115.78    4.61
  -1  -4  -8  119.41    4.85
  -1  -4  -8  108.98    3.26
   1   4   8  110.16    3.54
   1   4   9  344.94    6.41
  -1  -4  -9  358.15    6.08
  -1  -4 -10    6.94    0.97
   1   4  10    6.89    1.10
  -1  -4 -11  149.49    3.82
   1   4  11  149.87    4.01
   1   4  12   63.06    2.33
  -1  -4 -12   67.03    2.32
  -1  -4 -13   48.24    1.64
   1   4  13   49.10    1.74
  -1  -5  16   13.47    0.74
   1   5 -15    0.20    0.30
  -1  -5  15    0.25    0.41
   1   5 -14   66.14    2.34
  -1  -5  14   64.98    2.60
  -1  -5  13    6.31    1.07
  -1  -5  13    8.10    0.99
   1   5 -13    7.04    0.92
  -1  -5  12    0.86    0.74
   1   5 -12    1.96    0.65
   1   5 -12    1.63    0.49
  -1  -5  12    1.63    0.83
  -1  -5  11  140.39    4.34
   1   5 -11  151.81    4.06
  -1  -5  11  149.24    4.40
   1   5 -11  147.48    3.79
   1   5 -11  151.34    3.39
  -1  -5  10   77.41    3.10
   1   5 -10   80.03    2.47
   1   5 -10   82.41    2.93
  -1  -5  10   77.22    3.21
   1   5 -10   79.08    2.76
  -1  -5   9  244.62    6.88
   1   5  -9  239.49    4.02
   1   5  -9  252.97    6.56
  -1  -5   9  244.61    5.30
  -1  -5   9  245.67    5.16
   1   5  -9  240.35    4.64
   1   5  -9  238.25    4.15
   1   5  -9  237.60    4.70
  -1  -5   8  765.09    8.93
  -1  -5   8  738.72   11.58
   1   5  -8  732.57    6.88
  -1  -5   8  737.76    8.03
   1   5  -8  734.32   10.89
   1   5  -8  737.23    7.76
   1   5  -8  750.70    6.94
   1   5  -8  736.69    7.85
  -1  -5   7  331.54    5.47
   1   5  -7  351.44    5.91
  -1  -5   7  325.64    7.52
   1   5  -7  346.23    4.91
   1   5  -7  345.56    4.86
   1   5  -6  636.88    9.27
  -1  -5   6  617.90   10.16
  -1  -5   5  635.69    9.99
   1   5  -5  648.30    8.79
  -1  -5   4  212.74    5.66
   1   5  -4  215.36    4.73
   1   5  -4  219.84    4.16
  -1  -5   3   11.32    1.35
   1   5  -3   14.21    1.15
   1   5  -3   12.74    0.98
  -1  -5   2  186.82    4.43
  -1  -5   2  182.47    4.21
   1   5  -2  190.72    4.96
   1   5  -2  184.53    3.70
  -1  -5   2  184.56    5.12
  -1  -5   1    4.52    0.92
   1   5  -1    4.73    0.63
   1   5  -1    4.89    0.90
  -1  -5   1    5.28    0.82
  -1  -5   0  418.61    7.08
   1   5   0  418.70    5.93
   1   5   0  434.33    7.45
  -1  -5  -1    6.94    1.04
   1   5   1    6.50    1.04
  -1  -5  -1    6.40    1.04
   1   5   2  136.53    4.45
  -1  -5  -2  142.60    4.59
   1   5   3  305.89    6.87
  -1  -5  -3  314.07    7.12
  -1  -5  -4  265.94    6.80
   1   5   4  264.02    6.59
   1   5   5    7.29    0.91
  -1  -5  -5    4.16    0.72
   1   5   5    7.61    1.19
  -1  -5  -5    4.09    1.00
   1   5   6  389.36    6.35
   1   5   6  390.19    5.51
  -1  -5  -6  415.45    9.07
   1   5   6  418.63    8.76
  -1  -5  -6  390.60    5.72
   1   5   7    5.79    0.77
  -1  -5  -7    5.54    0.79
   1   5   7    6.36    1.00
   1   5   8   53.82    2.60
  -1  -5  -8   52.75    2.38
  -1  -5  -8   53.89    2.02
   1   5   9  174.40    4.62
  -1  -5  -9  181.80    4.36
  -1  -5 -10   49.56    2.20
   1   5  10   52.39    2.47
   1   5  11   12.37    1.02
   1   5  11   10.37    1.04
  -1  -5 -11   10.79    0.98
  -1  -5 -12    0.55    0.32
   1   5  12    0.60    0.31
  -1  -6  15   39.56    1.43
   1   6 -15   42.03    1.32
   1   6 -14   13.13    0.95
  -1  -6  14   11.23    1.00
   1   6 -13   19.06    1.33
  -1  -6  13   18.40    1.46
  -1  -6  13   18.84    1.39
   1   6 -12   30.65    1.78
  -1  -6  12   33.54    2.03
  -1  -6  12   32.39    2.03
  -1  -6  11    2.78    0.87
   1   6 -11    2.46    0.72
   1   6 -11    3.00    0.54
  -1  -6  11    2.22    0.86
  -1  -6  10  231.69    5.67
  -1  -6  10  222.51    5.10
   1   6 -10  230.40    4.28
   1   6 -10  228.09    4.38
   1   6 -10  228.36    4.94
  -1  -6   9  279.84    5.50
  -1  -6   9  268.68    6.02
   1   6  -9  277.35    5.04
   1   6  -9  281.11    5.36
   1   6  -9  281.10    4.82
   1   6  -8 1088.31   10.12
  -1  -6   8 1049.62   11.35
  -1  -6   8 1086.33    9.90
  -1  -6   8 1113.56   14.23
   1   6  -8 1060.10    9.90
   1   6  -8 1075.81   12.78
   1   6  -8 1074.25    9.39
  -1  -6   7  446.23    9.19
   1   6  -7  443.57    6.26
   1   6  -7  442.55    8.13
  -1  -6   7  452.18    7.01
  -1  -6   7  452.75    5.56
   1   6  -7  448.85    5.89
   1   6  -7  443.59    6.31
   1   6  -6  136.69    3.17
   1   6  -6  134.41    3.40
   1   6  -6  126.93    4.23
  -1  -6   6  138.49    3.69
  -1  -6   6  136.59    4.99
   1   6  -6  139.18    3.36
   1   6  -5  412.82    5.71
  -1  -6   5  382.69    8.22
   1   6  -5  430.57    7.30
  -1  -6   5  394.19    5.69
   1   6  -5  411.40    5.42
   1   6  -5  404.70    5.27
   1   6  -4   65.32    2.61
   1   6  -4   64.70    2.20
  -1  -6   4   58.36    3.20
  -1  -6   3  103.73    4.18
  -1  -6   2   32.00    1.95
  -1  -6   2   32.32    2.34
  -1  -6   1   23.35    1.80
   1   6  -1   22.77    1.90
  -1  -6   1   23.02    1.81
  -1  -6   1   23.34    2.02
  -1  -6   0   53.32    2.82
   1   6   0   53.31    2.88
  -1  -6   0   54.40    3.08
   1   6   1  111.49    2.84
  -1  -6  -1  113.83    4.26
  -1  -6  -1  104.34    4.29
   1   6   1  110.04    4.17
  -1  -6  -2   35.78    2.61
   1   6   2   34.45    1.63
  -1  -6  -2   33.05    1.43
   1   6   2   37.04    2.48
  -1  -6  -2   36.26    2.52
   1   6   3    0.95    0.41
  -1  -6  -3   -1.05    0.60
  -1  -6  -3    0.30    0.74
  -1  -6  -3    0.82    0.32
   1   6   3    0.68    0.50
  -1  -6  -4   74.78    2.80
   1   6   4   82.76    3.85
  -1  -6  -4   80.39    3.93
   1   6   4   73.21    2.64
   1   6   5   17.16    1.35
   1   6   5   14.16    1.62
  -1  -6  -5   17.61    1.91
  -1  -6  -5   17.41    1.44
   1   6   5   17.02    1.39
  -1  -6  -6  121.18    3.59
   1   6   6  120.38    3.40
   1   6   6  125.35    3.81
  -1  -6  -7   63.87    2.49
   1   6   7   58.91    2.70
   1   6   7   59.14    2.31
  -1  -6  -8    0.22    0.48
  -1  -6  -8    1.24    0.43
   1   6   8    0.78    0.59
   1   6   9   85.61    3.05
  -1  -6  -9   81.03    2.75
  -1  -6 -10  248.87    4.31
   1   6  10  254.72    4.74
  -1  -6 -11    4.07    0.53
  -1  -7  14    6.06    0.60
   1   7 -14    6.29    0.56
  -1  -7  13  132.25    3.01
   1   7 -13  132.97    2.93
  -1  -7  12    3.22    0.68
  -1  -7  12    4.10    0.91
   1   7 -12    3.10    0.62
  -1  -7  11  143.88    3.67
   1   7 -11  153.93    3.83
  -1  -7  11  155.07    4.43
   1   7 -10  522.66    7.27
  -1  -7  10  525.06    7.09
   1   7 -10  518.39    6.74
   1   7 -10  518.86    6.18
  -1  -7  10  536.77    8.43
   1   7  -9  177.86    4.14
   1   7  -9  176.65    4.32
  -1  -7   9  179.41    4.06
   1   7  -9  173.07    3.80
  -1  -7   9  175.71    4.91
   1   7  -8  394.78    6.38
  -1  -7   8  390.44    7.19
   1   7  -8  400.48    6.44
   1   7  -8  392.39    5.92
   1   7  -7  223.57    4.82
  -1  -7   7  214.68    5.18
   1   7  -7  212.07    4.42
   1   7  -7  215.58    4.64
   1   7  -6   18.86    1.43
  -1  -7   6   18.02    1.76
  -1  -7   6   20.16    1.60
   1   7  -6   20.71    1.43
   1   7  -6   18.61    1.37
   1   7  -5    2.36    0.58
   1   7  -5    3.07    0.74
  -1  -7   5    1.17    0.49
   1   7  -5    1.82    0.53
  -1  -7   5    2.06    0.63
   1   7  -4   47.47    2.21
  -1  -7   4   47.37    2.91
  -1  -7   4   47.44    2.34
  -1  -7   4   49.95    2.07
   1   7  -4   46.30    2.07
   1   7  -4   46.17    1.74
   1   7  -3  111.22    3.30
  -1  -7   3  107.26    4.43
  -1  -7   3  111.63    3.44
  -1  -7   2   10.90    1.48
   1   7  -2    8.72    0.99
  -1  -7   2    9.24    1.07
  -1  -7   1   52.84    3.17
   1   7  -1   56.17    2.36
  -1  -7   1   56.00    2.38
   1   7   0  148.60    5.07
  -1  -7   0  138.58    3.65
   1   7   0  139.58    3.71
  -1  -7   0  136.75    5.03
  -1  -7   0  144.26    4.49
  -1  -7  -1    1.50    0.67
  -1  -7  -1    1.44    0.62
  -1  -7  -1    1.23    0.47
   1   7   1    0.40    0.45
   1   7   1    1.31    0.57
  -1  -7  -2   71.69    3.38
   1   7   2   74.15    2.71
  -1  -7  -2   69.69    2.50
  -1  -7  -2   69.91    3.46
   1   7   2   78.61    3.65
  -1  -7  -3    0.66    0.74
   1   7   3    0.25    0.45
   1   7   4   24.48    1.70
   1   7   4   25.41    1.65
  -1  -7  -4   25.88    1.85
  -1  -7  -4   25.67    1.41
  -1  -7  -5    0.79    0.58
   1   7   5    0.98    0.55
   1   7   5    1.86    0.66
  -1  -7  -6    0.78    0.58
   1   7   6    0.04    0.49
   1   7   6    1.12    0.52
  -1  -7  -7   90.18    2.96
   1   7   7   91.02    3.09
  -1  -7  -7   89.59    2.86
   1   7   7   87.94    2.69
  -1  -7  -8    0.06    0.35
   1   7   8    1.39    0.43
  -1  -7  -8    0.05    0.39
   1   7   8    0.04    0.47
  -1  -7  -9   27.93    1.37
   1   7   9   28.14    1.49
  -1  -7 -10   58.64    1.60
   1   8 -13   26.26    1.05
  -1  -8  12    8.16    0.80
   1   8 -12    6.25    0.66
  -1  -8  12    7.08    0.59
  -1  -8  11    2.09    0.38
   1   8 -11    1.79    0.48
  -1  -8  11    1.51    0.54
   1   8 -10   61.33    2.13
  -1  -8  10   66.61    2.74
   1   8 -10   65.29    2.40
   1   8  -9   39.55    1.94
  -1  -8   9   39.51    2.27
  -1  -8   9   38.85    2.22
   1   8  -9   44.03    2.07
   1   8  -8   39.74    2.06
  -1  -8   8   38.20    2.30
  -1  -8   8   40.83    2.35
   1   8  -8   40.58    2.04
  -1  -8   7    4.24    0.97
   1   8  -7    4.60    0.80
  -1  -8   7    4.86    0.96
   1   8  -7    4.45    0.83
   1   8  -6  280.40    5.65
  -1  -8   6  278.62    6.11
   1   8  -6  282.05    4.81
  -1  -8   5   11.03    1.34
   1   8  -5   12.74    1.05
   1   8  -5   11.52    1.23
  -1  -8   4  250.66    5.66
   1   8  -4  245.43    5.35
   1   8  -3  433.57    7.03
  -1  -8   3  435.71    7.38
   1   8  -2  156.00    4.20
  -1  -8   2  160.59    4.38
   1   8  -1  437.25    7.02
  -1  -8   1  449.27    7.13
  -1  -8   0    5.64    0.94
   1   8   0    3.66    0.81
   1   8   1  108.38    3.42
  -1  -8  -1  107.66    3.33
  -1  -8  -1  108.17    3.72
  -1  -8  -2  478.28    7.80
  -1  -8  -2  473.85    6.74
   1   8   2  477.10    6.95
   1   8   3   36.30    2.05
  -1  -8  -3   34.39    2.16
  -1  -8  -3   33.64    1.73
   1   8   3   34.98    1.68
  -1  -8  -4  254.52    4.20
   1   8   4  245.69    4.57
  -1  -8  -4  239.71    5.29
   1   8   4  239.64    5.02
   1   8   5   76.19    2.53
  -1  -8  -5   78.33    2.89
   1   8   5   79.59    2.80
  -1  -8  -6    1.19    0.45
   1   8   6    0.13    0.43
   1   8   6    0.27    0.38
  -1  -8  -7   15.82    1.07
   1   8   7   17.38    1.07
   1   8   7   16.87    1.11
  -1  -8  -7   18.00    1.11
   1   8   8   34.61    1.01
  -1  -8  -8   31.03    1.27
   1   8   8   36.04    1.40
  -1  -8  -8   31.42    1.12
   1   9 -11   19.95    0.85
  -1  -9  11   19.15    1.05
  -1  -9  10   20.29    1.28
   1   9 -10   20.85    1.01
   1   9  -9   54.81    1.96
   1   9  -9   54.02    1.73
  -1  -9   9   57.53    2.35
   1   9  -8    4.18    0.53
  -1  -9   8    4.17    0.82
   1   9  -8    5.11    0.75
   1   9  -7   19.31    1.44
   1   9  -7   17.94    1.05
  -1  -9   7   20.36    1.65
   1   9  -6  105.76    3.35
  -1  -9   6  104.89    3.60
   1   9  -5    4.59    0.89
  -1  -9   5    4.80    0.93
   1   9  -4  198.90    4.68
  -1  -9   4  203.99    5.02
  -1  -9   3   47.92    2.22
  -1  -9   3   53.56    2.57
   1   9  -3   56.52    2.55
  -1  -9   2   82.75    3.11
  -1  -9   2   87.07    3.00
   1   9  -2   83.30    3.05
   1   9  -2   86.72    2.67
  -1  -9   1  120.63    3.63
  -1  -9   1  120.55    3.60
   1   9  -1  119.35    3.58
   1   9  -1  118.60    3.29
   1   9   0   31.91    1.84
  -1  -9   0   30.91    1.80
   1   9   0   29.92    1.74
  -1  -9   0   29.70    1.89
  -1  -9  -1  205.26    4.27
   1   9   1  208.89    4.54
  -1  -9  -1  212.02    4.85
  -1  -9  -2  123.59    3.70
  -1  -9  -2  121.32    3.06
   1   9   2  121.22    3.43
  -1  -9  -3    7.43    0.71
  -1  -9  -3    7.59    1.04
   1   9   3    7.76    0.99
  -1  -9  -4   16.38    1.27
   1   9   4   15.57    1.22
   1   9   5    6.94    0.75
  -1  -9  -5    7.72    0.81
  -1  -9  -6   18.35    0.96
   1   9   6   18.32    0.98
  -1  -9  -6   20.00    1.06
   1  10  -9    4.52    0.45
  -1 -10   9    5.24    0.57
   1  10  -8    1.75    0.39
  -1 -10   8    1.26    0.41
   1  10  -7    2.87    0.53
  -1 -10   7    3.03    0.58
   1  10  -6    0.46    0.41
  -1 -10   6    1.17    0.46
  -1 -10   5   41.52    1.94
   1  10  -5   46.88    1.95
   1  10  -4   13.26    1.12
  -1 -10   4   13.44    1.16
   1  10  -3  233.31    4.43
  -1 -10   3  244.85    4.63
  -1 -10   2   18.58    1.26
   1  10  -2   21.80    1.39
   1  10  -1   35.51    1.66
   1  10  -1   38.21    1.54
  -1 -10   1   36.86    1.69
  -1 -10   1   37.96    1.68
  -1 -10   0  541.22    5.96
   1  10   0  557.12    5.93
  -1 -10   0  538.91    6.30
   1  10   1    1.29    0.41
  -1 -10  -1    1.36    0.35
  -1 -10  -1    1.58    0.54
  -1 -10  -2   42.74    1.23
  -1 -10  -2   43.56    1.73
   1  10   2   42.59    1.64
   1  10   3   81.66    2.07
  -1 -10  -3   84.15    2.21
  -1 -10  -4   42.00    1.15
   1  10   4   40.33    1.31
  -1 -10  -4   41.93    1.38
  -1 -11   5   31.86    1.12
   1  11  -5   31.75    1.09
  -1 -11   4   72.18    1.72
  -1 -11   3  118.78    2.14
  -1 -11   2   19.52    0.82
  -2  11  -1    4.71    0.44
  -2  11  -2   19.82    0.89
  -2  11  -3   67.06    1.60
  -2  10   5  336.46    3.26
  -2  10   4   41.38    1.49
   2 -10  -4   39.49    1.36
  -2  10   3  162.56    3.22
   2 -10  -3  167.81    3.06
  -2  10   2   65.88    2.23
   2 -10  -2   66.12    2.07
   2 -10  -1   56.27    1.61
   2 -10  -1   55.38    1.98
  -2  10   1   57.09    2.19
  -2  10   0   33.69    1.76
   2 -10   0   35.11    1.61
   2 -10   0   33.33    1.39
   2 -10   0   32.95    1.25
  -2  10  -1   28.19    1.64
   2 -10   1   29.32    1.47
   2 -10   1   28.19    1.37
   2 -10   2   38.67    1.63
  -2  10  -2   40.56    1.96
   2 -10   2   37.62    1.61
   2 -10   3   30.89    1.41
  -2  10  -3   30.47    1.17
  -2  10  -3   28.84    1.64
   2 -10   3   30.23    1.46
  -2  10  -4   15.62    1.22
  -2  10  -4   15.05    0.91
   2 -10   4   16.38    1.10
   2 -10   5    6.46    0.73
  -2  10  -5    5.54    0.61
   2 -10   5    5.19    0.60
  -2  10  -5    7.10    0.81
  -2  10  -6   36.36    1.63
  -2  10  -6   33.55    1.37
   2 -10   6   34.33    1.47
   2 -10   6   33.34    1.35
  -2  10  -7    0.43    0.28
   2 -10   7    1.33    0.31
   2 -10   7    0.80    0.33
  -2  10  -7    1.45    0.42
  -2  10  -8    3.43    0.40
  -2  10  -8    4.05    0.50
   2 -10   8    3.55    0.44
  -2   9   7   98.89    2.30
  -2   9   7   99.70    2.26
   2  -9  -7  102.20    2.17
  -2   9   6    8.90    0.88
   2  -9  -6    7.94    0.71
  -2   9   6    7.93    0.81
   2  -9  -6    8.03    0.74
   2  -9  -6    7.44    0.75
   2  -9  -5  191.00    3.75
   2  -9  -5  193.70    3.72
  -2   9   5  191.67    3.99
  -2   9   5  196.21    4.20
  -2   9   4    5.12    0.85
   2  -9  -4    3.77    0.68
  -2   9   4    5.19    0.84
   2  -9  -4    4.11    0.66
  -2   9   3   26.43    1.79
   2  -9  -3   26.62    1.47
   2  -9  -3   28.18    1.44
   2  -9  -3   29.83    1.73
  -2   9   3   29.19    1.70
   2  -9  -2    5.84    0.74
  -2   9   2    4.57    0.96
   2  -9  -2    4.59    0.59
   2  -9  -2    5.63    0.85
   2  -9  -2    5.38    0.72
  -2   9   2    5.02    0.83
   2  -9  -1    0.83    0.53
  -2   9   1    0.10    0.39
   2  -9  -1    0.41    0.41
  -2   9   0    4.27    0.92
   2  -9   0    3.64    0.74
  -2   9   0    4.20    0.69
   2  -9   0    3.82    0.68
  -2   9  -1   24.52    1.50
   2  -9   1   24.80    1.59
  -2   9  -1   23.42    1.80
   2  -9   1   25.24    1.62
  -2   9  -2    8.36    0.81
   2  -9   2    9.18    1.00
  -2   9  -2    8.66    1.17
   2  -9   2    8.27    0.98
   2  -9   2    8.15    1.00
  -2   9  -3    0.34    0.68
  -2   9  -3   -0.31    0.48
   2  -9   3    0.87    0.46
   2  -9   3    0.05    0.40
  -2   9  -4    5.30    0.78
   2  -9   4    5.08    0.70
  -2   9  -4    5.54    0.96
   2  -9   4    5.59    0.81
  -2   9  -5   37.09    2.10
  -2   9  -5   34.70    1.78
   2  -9   5   38.12    1.97
  -2   9  -6    2.99    0.68
  -2   9  -6    3.08    0.71
   2  -9   6    2.17    0.61
   2  -9   7    7.51    0.89
  -2   9  -7    9.01    1.05
  -2   9  -7    7.04    0.87
  -2   9  -8   18.92    1.26
   2  -9   8   20.16    1.32
  -2   9  -8   20.00    1.36
  -2   9  -9   29.84    1.49
  -2   9  -9   30.65    1.46
   2  -9   9   30.73    1.45
  -2   9 -10    0.97    0.33
   2  -9  10    1.50    0.36
  -2   9 -10    1.45    0.38
  -2   8   9   16.39    0.99
  -2   8   9   14.29    0.94
   2  -8  -9   14.61    0.64
   2  -8  -9   15.38    0.87
   2  -8  -8  116.77    2.58
  -2   8   8  116.86    2.97
   2  -8  -8  119.79    2.84
  -2   8   8  121.96    3.15
   2  -8  -7   49.33    1.89
  -2   8   7   50.74    2.28
   2  -8  -7   49.46    1.99
   2  -8  -7   51.48    2.13
  -2   8   7   51.48    2.33
  -2   8   6    5.03    0.92
   2  -8  -6    2.86    0.66
  -2   8   6    3.07    0.79
   2  -8  -6    3.29    0.70
   2  -8  -5   19.46    1.49
   2  -8  -5   20.54    1.53
  -2   8   5   20.90    1.74
   2  -8  -5   20.17    1.31
  -2   8   5   19.29    1.66
  -2   8   4  215.41    5.41
   2  -8  -4  214.77    4.88
   2  -8  -4  217.24    4.74
  -2   8   4  216.19    5.26
   2  -8  -4  212.86    4.42
  -2   8   3    2.75    0.87
   2  -8  -3    1.92    0.47
   2  -8  -3    1.89    0.64
   2  -8  -3    2.89    0.66
   2  -8  -3    2.19    0.67
  -2   8   3    1.68    0.61
  -2   8   2  121.49    4.10
   2  -8  -2  124.61    3.78
   2  -8  -2  114.45    3.43
   2  -8  -2  114.52    3.28
  -2   8   2  120.18    3.86
   2  -8  -1  506.71    7.49
   2  -8  -1  517.46    6.68
  -2   8   1  513.40    7.77
  -2   8   1  517.65    8.34
   2  -8  -1  506.37    7.28
  -2   8   0    3.13    0.77
   2  -8   0    3.49    0.76
   2  -8   0    2.56    0.67
   2  -8   0    3.60    0.73
  -2   8   0    2.93    0.85
  -2   8  -1  386.15    7.07
   2  -8   1  376.54    6.30
  -2   8  -1  372.96    6.42
   2  -8   1  378.73    6.56
   2  -8   1  376.70    6.46
  -2   8  -2   87.36    3.38
  -2   8  -2   84.53    2.71
   2  -8   2   79.20    2.85
  -2   8  -2   84.50    2.91
   2  -8   2   79.45    3.05
  -2   8  -3  154.35    4.41
  -2   8  -3  149.50    3.84
   2  -8   3  153.70    3.91
   2  -8   3  152.25    4.27
  -2   8  -4  192.32    4.48
   2  -8   4  194.88    4.32
   2  -8   4  197.73    4.88
  -2   8  -4  202.41    5.07
  -2   8  -5    1.65    0.64
   2  -8   5    0.65    0.34
   2  -8   5    0.46    0.57
  -2   8  -6   26.53    1.79
   2  -8   6   26.47    1.89
  -2   8  -7  218.75    4.98
   2  -8   7  221.58    5.14
   2  -8   7  223.49    3.99
   2  -8   8   47.01    2.36
   2  -8   8   45.19    1.86
  -2   8  -8   46.54    2.31
  -2   8  -9    1.58    0.57
   2  -8   9    2.68    0.55
   2  -8   9    2.71    0.73
  -2   8 -10   16.30    1.24
   2  -8  10   15.46    1.22
   2  -8  10   14.36    1.00
  -2   8 -11   -0.29    0.39
   2  -8  11    0.05    0.35
   2  -8  11    0.01    0.30
  -2   8 -12  117.35    2.22
   2  -8  12  112.67    1.96
   2  -8  12  110.97    2.27
  -2   7  11   25.90    0.93
  -2   7  11   26.26    1.14
  -2   7  10   28.71    1.51
   2  -7 -10   30.06    1.28
   2  -7 -10   27.54    1.05
   2  -7 -10   30.47    1.31
  -2   7  10   28.60    1.37
  -2   7   9    0.05    0.57
   2  -7  -9    0.66    0.46
   2  -7  -9   -0.02    0.31
  -2   7   9    0.55    0.45
   2  -7  -8    0.34    0.48
  -2   7   8    0.30    0.61
   2  -7  -8    1.22    0.47
  -2   7   8    0.08    0.62
  -2   7   7    0.00    0.69
   2  -7  -7    0.87    0.53
  -2   7   7    0.13    0.63
   2  -7  -7    0.95    0.55
  -2   7   6   26.57    2.01
   2  -7  -6   25.60    1.73
  -2   7   6   25.80    1.92
   2  -7  -6   24.14    1.74
   2  -7  -5  159.55    3.98
   2  -7  -5  162.83    4.27
  -2   7   5  164.95    4.74
  -2   7   5  163.54    4.82
   2  -7  -5  154.00    4.18
   2  -7  -4    2.16    0.70
  -2   7   4    0.99    0.75
   2  -7  -4    0.70    0.45
   2  -7  -4    1.16    0.57
   2  -7  -4    0.92    0.44
  -2   7   4    0.22    0.59
  -2   7   3    4.58    0.94
  -2   7   3    7.30    1.18
   2  -7  -3    4.24    0.78
   2  -7  -3    4.57    0.82
   2  -7  -3    5.11    0.79
  -2   7   2   52.86    2.63
  -2   7   2   53.71    2.59
  -2   7   2   55.02    2.93
   2  -7  -2   56.15    3.73
   2  -7  -2   51.22    2.22
   2  -7  -2   51.02    2.33
   2  -7  -2   53.82    2.33
   2  -7  -1  108.14    3.30
   2  -7  -1  107.96    3.28
  -2   7   1  112.92    4.23
   2  -7  -1  109.91    5.16
   2  -7  -1  107.15    3.36
   2  -7  -1  108.19    2.91
  -2   7   1  108.41    3.62
  -2   7   1  112.99    3.63
  -2   7   0   76.58    2.98
   2  -7   0   71.21    2.67
  -2   7   0   69.93    3.29
   2  -7   0   76.92    4.29
   2  -7   0   74.56    2.81
  -2   7   0   71.27    2.85
  -2   7  -1  327.78    6.04
   2  -7   1  320.75    5.55
   2  -7   1  344.74    8.91
   2  -7   1  324.36    5.83
  -2   7  -1  327.85    5.90
  -2   7  -2   98.41    3.32
  -2   7  -2   99.13    2.80
   2  -7   2   93.93    2.96
   2  -7   2   90.89    4.47
   2  -7   2   92.42    3.14
  -2   7  -3  481.06    6.62
  -2   7  -3  485.62    7.78
   2  -7   3  482.98    6.47
   2  -7   3  478.80    7.23
   2  -7   3  471.99    9.81
   2  -7   4  287.10    4.83
  -2   7  -4  284.38    5.38
  -2   7  -4  300.23    6.36
   2  -7   4  280.26    5.66
   2  -7   4  278.58    7.26
  -2   7  -5    0.50    0.47
  -2   7  -5    1.47    0.58
   2  -7   5    1.04    0.41
   2  -7   5    1.12    0.71
   2  -7   5    0.11    0.37
   2  -7   5    0.37    0.47
   2  -7   6  127.49    3.73
  -2   7  -6  127.23    3.46
  -2   7  -6  130.36    3.91
   2  -7   6  127.59    4.03
   2  -7   7   22.03    1.67
  -2   7  -7   22.97    1.75
   2  -7   7   21.41    1.76
  -2   7  -7   21.71    1.47
  -2   7  -8   89.98    3.36
   2  -7   8   87.57    3.21
   2  -7   8   83.38    3.36
  -2   7  -8   87.28    2.85
  -2   7  -9   44.16    2.32
   2  -7   9   40.79    2.21
  -2   7  -9   41.00    1.92
  -2   7 -10   61.26    2.66
   2  -7  10   60.56    2.60
  -2   7 -10   57.10    2.13
  -2   7 -11   11.21    1.09
   2  -7  11   10.49    1.07
   2  -7  11    9.29    1.06
   2  -7  11   11.11    1.02
  -2   7 -11    9.65    0.83
  -2   7 -12   98.93    2.59
   2  -7  12   98.93    2.65
   2  -7  12   90.32    2.66
   2  -7  12   95.72    2.50
  -2   7 -12   92.63    2.03
   2  -7  13  260.42    3.66
   2  -7  13  266.09    3.44
  -2   6  12   96.51    2.37
  -2   6  11    4.38    0.74
   2  -6 -11    3.84    0.48
   2  -6 -11    3.44    0.54
   2  -6 -11    4.14    0.56
  -2   6  11    5.08    0.65
   2  -6 -10   76.95    2.48
   2  -6 -10   78.56    2.53
  -2   6  10   83.73    3.17
  -2   6  10   80.56    2.70
   2  -6 -10   78.41    2.36
  -2   6   9   61.09    2.92
   2  -6  -9   61.01    2.46
  -2   6   9   59.96    2.61
  -2   6   8  108.43    3.69
  -2   6   8  110.67    4.03
   2  -6  -8  111.29    3.42
   2  -6  -8  106.62    3.26
   2  -6  -8  109.69    3.49
  -2   6   7    3.59    0.93
   2  -6  -7    3.95    0.82
   2  -6  -7    2.93    0.74
  -2   6   7    3.93    0.92
  -2   6   6  117.62    4.05
   2  -6  -6  119.85    3.59
  -2   6   6  120.46    4.01
   2  -6  -6  123.89    2.96
   2  -6  -6  122.85    3.52
   2  -6  -6  121.79    3.68
  -2   6   5   53.92    3.04
  -2   6   5   51.68    2.64
   2  -6  -5   48.44    3.44
   2  -6  -5   45.73    1.86
  -2   6   5   45.30    2.45
   2  -6  -5   49.85    2.27
   2  -6  -5   49.79    2.95
   2  -6  -5   47.00    2.27
   2  -6  -5   49.35    2.21
  -2   6   4    1.66    0.58
  -2   6   4   -0.46    0.69
   2  -6  -4    1.87    0.77
   2  -6  -4    0.72    0.55
  -2   6   4    0.82    0.51
   2  -6  -4    2.70    0.62
   2  -6  -4    0.72    0.45
   2  -6  -4    1.83    0.60
   2  -6  -3  288.33    5.13
   2  -6  -3  282.97    4.95
  -2   6   3  283.38    5.65
  -2   6   3  271.45    5.52
  -2   6   3  291.63    7.02
   2  -6  -3  268.00    8.06
   2  -6  -3  272.33    4.97
   2  -6  -3  263.76    6.99
  -2   6   2    3.72    0.79
  -2   6   2    2.93    0.81
   2  -6  -2    3.32    0.67
   2  -6  -2    2.50    0.50
   2  -6  -2    2.53    0.79
   2  -6  -2    3.53    0.63
   2  -6  -2    4.33    1.15
   2  -6  -2    3.29    0.60
  -2   6   1  744.12    8.49
   2  -6  -1  736.90    7.49
  -2   6   1  726.14   10.58
  -2   6   1  756.23    8.53
   2  -6  -1  711.73   12.60
   2  -6  -1  744.13    8.00
   2  -6  -1  758.33    6.57
   2  -6  -1  740.28    7.81
  -2   6   0  427.19    6.17
   2  -6   0  422.35    5.40
  -2   6   0  413.22    7.71
  -2   6   0  425.35    6.78
   2  -6   0  423.07    5.95
   2  -6   1  515.43   10.57
  -2   6  -1  537.66    8.50
   2  -6   1  541.32    6.76
   2  -6   1  529.24    5.85
  -2   6  -2  763.36   10.38
   2  -6   2  764.86    8.14
  -2   6  -3   82.81    2.44
   2  -6   3   88.15    2.52
  -2   6  -3   82.15    3.52
   2  -6   3   85.42    2.83
   2  -6   3   83.38    4.09
  -2   6  -3   82.59    2.23
  -2   6  -4   14.90    1.15
   2  -6   4   14.57    1.14
  -2   6  -4   13.97    1.56
  -2   6  -4   15.51    1.04
   2  -6   4   13.70    1.23
   2  -6   4   13.63    1.73
  -2   6  -5  120.74    3.50
   2  -6   5  124.26    3.42
   2  -6   5  123.55    4.94
  -2   6  -5  118.86    4.50
  -2   6  -5  119.23    2.95
  -2   6  -6    1.90    0.56
   2  -6   6    3.12    0.78
   2  -6   6    0.99    0.39
  -2   6  -6    2.96    0.89
  -2   6  -6    3.66    0.76
  -2   6  -7    4.99    0.74
  -2   6  -7    4.88    0.88
   2  -6   7    4.90    0.88
   2  -6   7    2.22    0.59
  -2   6  -8   50.07    2.57
   2  -6   8   49.38    2.49
  -2   6  -8   48.69    2.16
  -2   6  -9   17.13    1.61
   2  -6   9   16.74    1.56
  -2   6  -9   14.87    1.22
   2  -6  10   83.17    3.20
  -2   6 -10   82.57    3.21
  -2   6 -10   83.25    2.73
  -2   6 -11    1.02    0.38
   2  -6  11    3.66    0.89
  -2   6 -11    3.65    0.83
  -2   6 -12   11.47    1.07
   2  -6  12   13.86    1.20
  -2   6 -12   11.60    0.90
  -2   6 -13   31.44    1.42
   2  -6  13   34.12    1.53
   2  -6  13   31.19    1.44
  -2   6 -13   29.49    1.11
   2  -6  14    3.46    0.45
   2  -6  14    3.09    0.38
  -2   5  13   57.74    1.90
   2  -5 -12   90.91    2.44
  -2   5  12   91.89    2.07
   2  -5 -12   94.21    2.10
  -2   5  12   97.42    3.06
   2  -5 -12   97.28    2.10
   2  -5 -11   26.73    1.42
   2  -5 -11   26.29    1.52
  -2   5  11   26.58    1.91
   2  -5 -11   23.87    1.35
  -2   5  11   25.18    1.44
  -2   5  10  126.65    4.23
   2  -5 -10  120.09    3.40
  -2   5  10  121.04    3.35
  -2   5  10  124.74    3.57
   2  -5 -10  121.38    3.38
  -2   5   9   15.00    1.61
   2  -5  -9   15.86    1.32
  -2   5   9   14.73    1.33
   2  -5  -9   15.20    1.34
  -2   5   9   16.56    1.46
   2  -5  -8    5.44    0.85
  -2   5   8    5.17    0.87
   2  -5  -8    3.87    0.69
   2  -5  -8    3.47    0.80
  -2   5   8    6.86    1.02
  -2   5   8    5.27    1.13
  -2   5   7  324.76    6.61
   2  -5  -7  333.50    5.72
  -2   5   7  319.38    6.21
   2  -5  -7  330.37    6.79
   2  -5  -7  337.95    4.74
   2  -5  -7  318.43    5.73
  -2   5   6   28.90    1.93
   2  -5  -6   27.79    1.62
   2  -5  -6   26.65    1.63
  -2   5   6   30.26    2.28
   2  -5  -6   28.29    2.15
   2  -5  -6   28.55    1.40
   2  -5  -6   26.48    1.65
  -2   5   6   27.80    1.85
   2  -5  -5   52.99    2.17
   2  -5  -5   48.98    2.91
  -2   5   5   51.49    2.93
   2  -5  -5   51.61    2.08
   2  -5  -5   51.71    1.80
   2  -5  -5   51.69    2.16
  -2   5   5   47.68    2.31
  -2   5   5   51.60    2.45
  -2   5   4  499.23    6.85
   2  -5  -4  512.77    6.24
  -2   5   4  508.74    9.13
   2  -5  -4  484.17    8.85
   2  -5  -4  513.53    6.10
   2  -5  -4  515.85    6.14
  -2   5   4  505.99    6.91
  -2   5   3   94.20    3.88
   2  -5  -3   94.64    4.54
   2  -5  -3   91.71    3.83
   2  -5  -2  910.06   11.91
  -2   5   2  915.73   11.53
   2  -5  -2  877.12   13.47
  -2   5   1 1019.35   11.79
  -2   5   1 1019.36   10.66
   2  -5  -1  999.25   14.06
  -2   5   0  602.46    8.65
  -2   5   0  590.61    8.34
   2  -5   0  594.95   10.62
  -2   5  -1  625.48    8.44
  -2   5  -1  619.98    8.73
   2  -5   1  621.22   10.83
  -2   5  -2  265.76    5.25
  -2   5  -2  256.89    5.87
   2  -5   2  253.56    6.82
  -2   5  -3  446.40    7.94
   2  -5   3  441.91    8.87
  -2   5  -4   15.87    1.63
   2  -5   4   14.51    1.73
   2  -5   5  112.38    2.93
  -2   5  -5  114.99    4.28
   2  -5   5  113.49    4.59
  -2   5  -6   18.58    1.07
   2  -5   6   18.60    1.89
   2  -5   6   18.11    1.33
  -2   5  -6   19.60    1.88
  -2   5  -6   20.07    1.43
  -2   5  -7   60.77    2.58
   2  -5   7   54.30    2.37
  -2   5  -7   57.05    3.21
   2  -5   7   55.23    3.21
  -2   5  -7   56.30    2.01
  -2   5  -8   10.95    0.99
   2  -5   8   12.12    1.49
  -2   5  -8   11.49    1.26
   2  -5   8   10.53    1.17
  -2   5  -8   11.43    1.51
  -2   5  -9   17.46    1.59
   2  -5   9   14.28    1.42
  -2   5  -9   14.01    1.18
  -2   5 -10    3.28    0.62
  -2   5 -10    3.13    0.94
   2  -5  10    4.04    0.90
  -2   5 -11   37.39    2.17
   2  -5  11   40.69    2.22
  -2   5 -11   40.98    1.92
  -2   5 -12    6.32    0.75
   2  -5  12    6.32    0.91
   2  -5  13   55.59    2.06
  -2   5 -13   53.40    1.77
  -2   5 -13   53.12    2.01
   2  -5  13   54.39    2.05
  -2   5 -14    3.15    0.34
   2  -5  14    3.23    0.48
  -2   4  14   11.49    0.87
   2  -4 -13   14.92    1.00
   2  -4 -13   14.63    0.80
  -2   4  13   14.54    1.24
   2  -4 -12   25.76    1.53
   2  -4 -12   27.33    1.28
  -2   4  12   26.14    1.58
   2  -4 -12   26.32    1.38
  -2   4  12   25.18    1.85
  -2   4  11  120.23    4.09
   2  -4 -11  117.67    3.38
  -2   4  11  116.02    3.59
  -2   4  11  117.29    3.13
   2  -4 -11  120.88    3.27
   2  -4 -11  116.82    3.06
   2  -4 -10  135.34    3.69
   2  -4 -10  137.32    3.61
  -2   4  10  135.25    4.02
  -2   4  10  140.31    4.55
  -2   4  10  141.38    3.76
  -2   4   9    0.93    0.65
   2  -4  -9    1.93    0.61
  -2   4   9    1.25    0.49
  -2   4   9    0.51    0.63
   2  -4  -9    0.69    0.46
  -2   4   8  426.99    7.37
   2  -4  -8  429.38    6.35
   2  -4  -8  435.61    6.22
  -2   4   8  443.07    8.30
   2  -4  -8  439.60    5.38
  -2   4   8  420.84    6.85
   2  -4  -8  420.23    6.34
  -2   4   8  431.80    6.70
  -2   4   7  637.83    8.59
   2  -4  -7  639.24    7.46
   2  -4  -7  655.23    9.54
  -2   4   7  648.94   10.49
   2  -4  -7  641.61    6.28
  -2   4   7  645.39    7.85
   2  -4  -7  632.87    7.44
   2  -4  -6   10.86    0.95
  -2   4   6    9.38    1.27
  -2   4   6   10.30    1.02
   2  -4  -6    8.18    1.17
   2  -4  -6   11.42    0.97
   2  -4  -6   10.59    0.92
  -2   4   6   11.06    1.13
   2  -4  -5  266.99    6.14
  -2   4   5  270.87    6.50
  -2   4   5  277.32    5.14
   2  -4  -4  716.18    9.81
  -2   4   4  732.00   10.22
  -2   4   4  749.98    8.29
  -2   4   4  759.30    7.94
  -2   4   3  174.59    4.85
  -2   4   3  182.69    4.29
   2  -4  -3  170.36    4.70
  -2   4   3  179.87    3.59
  -2   4   2   46.87    2.44
  -2   4   2   49.90    2.30
   2  -4  -2   51.42    2.97
  -2   4   2   51.43    1.77
   2  -4  -2   51.75    2.59
   2  -4  -1  312.00    6.30
  -2   4   1  319.50    5.87
   2  -4  -1  311.31    7.08
  -2   4   1  317.32    4.03
  -2   4   1  304.75    5.88
  -2   4   0  353.06    6.05
  -2   4   0  355.39    6.39
   2  -4   0  349.73    7.43
  -2   4  -1  496.51    6.71
   2  -4   1  483.85    8.66
  -2   4  -1  509.23    7.84
   2  -4   2    1.16    0.66
  -2   4  -2    2.37    0.79
  -2   4  -3  524.35    8.24
   2  -4   3  505.69    8.81
  -2   4  -4  587.86    8.98
   2  -4   4  564.34    9.41
   2  -4   5  402.61    8.13
  -2   4  -5  417.67    7.87
  -2   4  -6  183.87    5.36
   2  -4   6  188.41    5.66
   2  -4   7   32.82    1.71
  -2   4  -7   32.60    2.35
   2  -4   7   32.41    2.41
   2  -4   7   35.68    1.76
   2  -4   8  761.82   11.61
  -2   4  -8  753.53    7.11
   2  -4   8  746.79    8.62
   2  -4   8  762.10    8.59
   2  -4   9   25.79    1.76
  -2   4  -9   29.14    1.57
   2  -4   9   24.82    2.06
  -2   4  -9   30.85    2.27
   2  -4   9   29.89    1.88
   2  -4  10  308.45    5.90
   2  -4  10  322.58    6.16
  -2   4 -10  315.64    5.33
  -2   4 -11  232.50    4.60
  -2   4 -11  232.11    5.30
   2  -4  11  231.15    5.05
  -2   4 -12   38.90    1.82
  -2   4 -12   36.70    2.05
   2  -4  12   40.69    2.01
  -2   4 -13  576.44    6.24
   2  -4  13  578.77    6.63
  -2   4 -13  587.15    6.92
  -2   4 -14    3.50    0.43
  -2   3  15   47.03    1.53
  -2   3  14   29.38    1.61
   2  -3 -14   29.31    1.30
  -2   3  14   30.58    1.46
   2  -3 -13    4.30    0.68
  -2   3  13    4.69    0.84
   2  -3 -13    4.75    0.63
  -2   3  13    2.83    0.83
  -2   3  12   39.64    2.41
   2  -3 -12   37.42    1.91
   2  -3 -12   38.28    1.82
  -2   3  12   37.37    2.19
  -2   3  11   14.96    1.61
   2  -3 -11   15.74    1.32
  -2   3  11   14.98    1.53
   2  -3 -11   15.56    1.29
   2  -3 -11   16.36    1.20
   2  -3 -10  124.43    3.48
  -2   3  10  127.86    4.27
   2  -3 -10  128.27    3.55
  -2   3  10  131.85    4.09
   2  -3 -10  129.30    3.36
   2  -3  -9   50.33    2.14
  -2   3   9   51.69    2.55
  -2   3   9   54.90    2.71
  -2   3   9   56.37    2.87
   2  -3  -9   60.19    2.05
  -2   3   9   55.73    2.14
   2  -3  -9   52.38    2.17
  -2   3   8   34.54    2.03
   2  -3  -8   34.84    1.60
  -2   3   8   37.46    1.65
  -2   3   8   34.34    1.95
  -2   3   8   35.02    2.41
   2  -3  -8   37.18    1.53
  -2   3   8   34.00    2.14
   2  -3  -8   36.59    1.71
   2  -3  -7   56.25    1.97
  -2   3   7   53.73    2.94
   2  -3  -7   56.82    2.62
  -2   3   7   56.57    2.63
  -2   3   6  137.07    4.53
  -2   3   6  138.00    3.84
   2  -3  -6  137.33    4.05
   2  -3  -5   11.22    1.14
  -2   3   5    9.22    1.22
  -2   3   5    9.65    0.99
   2  -3  -4  996.83   10.19
  -2   3   4  988.73   11.16
  -2   3   4 1007.77    8.52
  -2   3   3  219.18    5.02
   2  -3  -3  224.78    4.73
   2  -3  -2  453.75    6.58
  -2   3   2  449.89    6.83
  -2   3   2  481.88    6.84
   2  -3  -2  458.79    7.71
  -2   3   2  471.66    4.49
  -2   3   1 1543.07   11.81
   2  -3  -1 1529.04   13.79
  -2   3   1 1554.72    6.95
  -2   3   0    8.34    0.95
  -2   3   0    8.18    1.06
   2  -3   0   11.00    1.34
  -2   3  -1   39.74    1.65
  -2   3  -1   42.54    2.23
   2  -3   1   40.72    2.29
  -2   3  -2   68.60    2.02
  -2   3  -2   70.84    2.88
   2  -3   2   66.63    2.91
  -2   3  -3  145.64    2.51
  -2   3  -3  144.87    4.12
   2  -3   3  140.76    4.26
   2  -3   4  396.95    4.70
   2  -3   4  384.05    7.23
  -2   3  -4  381.32    6.84
   2  -3   5  975.85    8.74
  -2   3  -5  965.86   11.21
   2  -3   5  963.34   11.82
  -2   3  -6  269.13    6.11
   2  -3   6  253.60    6.25
  -2   3  -7   25.34    1.96
   2  -3   7   26.53    2.15
  -2   3  -8  524.24    5.32
   2  -3   8  528.79    9.49
   2  -3   8  518.37    6.49
   2  -3   8  540.92    6.98
  -2   3  -8  537.03    9.11
   2  -3   8  528.60    8.32
  -2   3  -9    2.16    0.51
   2  -3   9    4.99    0.84
   2  -3   9    2.88    0.79
  -2   3  -9    3.48    0.87
   2  -3   9    2.62    0.75
   2  -3  10  337.07    6.23
   2  -3  10  323.71    5.74
  -2   3 -10  337.87    5.35
  -2   3 -11  147.78    3.67
   2  -3  11  146.09    3.82
   2  -3  11  153.49    4.33
  -2   3 -12  183.65    3.98
   2  -3  12  182.64    4.06
   2  -3  12  183.04    4.71
  -2   3 -13    0.54    0.48
   2  -3  13    0.77    0.39
  -2   3 -13    1.30    0.45
  -2   3 -14    0.98    0.29
  -2   2  15   39.40    1.67
  -2   2  15   40.87    1.60
   2  -2 -15   40.07    1.20
  -2   2  14   98.67    3.18
   2  -2 -14   98.47    2.64
   2  -2 -14   97.07    2.29
  -2   2  14   94.84    3.02
  -2   2  13  322.50    6.42
   2  -2 -13  323.08    5.40
  -2   2  13  326.76    6.27
   2  -2 -13  323.11    5.01
  -2   2  12    8.60    1.31
  -2   2  12    8.48    1.27
   2  -2 -12    8.92    0.98
   2  -2 -12    8.94    0.96
  -2   2  11    2.40    0.76
  -2   2  11    1.42    0.83
   2  -2 -11    1.61    0.56
  -2   2  11    0.74    0.72
   2  -2 -11    1.76    0.55
   2  -2 -11    1.09    0.42
  -2   2  10 2074.06   16.20
  -2   2  10 2132.87   16.35
  -2   2  10 2084.94   16.56
   2  -2 -10 2086.57   13.85
   2  -2 -10 2087.34   13.99
  -2   2  10 2094.32   16.29
   2  -2 -10 2087.47   12.38
   2  -2 -10 2065.89   16.53
  -2   2   9    6.82    1.00
   2  -2  -9    8.57    0.85
  -2   2   9    5.96    1.02
   2  -2  -9    7.63    0.75
   2  -2  -9    7.54    1.15
  -2   2   9    7.29    1.14
  -2   2   9    7.47    1.06
   2  -2  -9    7.82    0.81
  -2   2   8  626.80    7.50
   2  -2  -8  596.78    8.87
  -2   2   8  593.23    9.36
  -2   2   8  609.23    9.12
  -2   2   8  636.75    7.64
  -2   2   7  456.10    8.02
  -2   2   7  457.86    7.46
  -2   2   6  516.59    8.19
  -2   2   6  508.52    7.21
   2  -2  -6  516.76    6.75
   2  -2  -6  507.88    6.90
   2  -2  -5 1847.84   12.19
  -2   2   5 1826.11   14.74
  -2   2   5 1798.61   12.09
   2  -2  -4   38.19    1.69
   2  -2  -4   35.20    1.49
  -2   2   4   38.09    2.12
  -2   2   4   36.60    1.57
  -2   2   3  609.59    7.70
   2  -2  -3  603.58    6.41
  -2   2   3  611.19    5.19
  -2   2   2    7.01    0.90
   2  -2  -2    5.81    0.69
  -2   2   2    6.34    0.42
   2  -2  -2    4.97    0.79
   2  -2  -1  315.32    2.98
  -2   2   1  320.48    4.77
   2  -2  -1  317.97    5.33
  -2   2   0   38.37    1.53
  -2   2   0   38.48    1.91
   2  -2   0   39.48    1.93
   2  -2   0   38.63    1.00
  -2   2  -1   36.48    1.36
  -2   2  -1   37.72    1.92
   2  -2   1   38.13    1.92
  -2   2  -2   86.18    1.76
  -2   2  -2   86.28    2.96
  -2   2  -3  621.56    7.95
   2  -2   3  633.48    8.27
   2  -2   4    1.18    0.75
  -2   2  -4    0.96    0.71
  -2   2  -5   12.26    1.25
   2  -2   5   10.81    1.27
  -2   2  -6  223.80    5.10
   2  -2   6  226.05    4.91
   2  -2   6  228.01    5.70
   2  -2   7    0.72    0.51
  -2   2  -7    0.09    0.48
   2  -2   8   86.74    3.81
   2  -2   8   92.67    2.76
  -2   2  -8   90.60    3.44
   2  -2   8   91.54    3.58
   2  -2   9  128.94    4.79
   2  -2   9  131.76    3.08
  -2   2  -9  132.37    2.92
  -2   2  -9  130.79    5.10
   2  -2   9  137.54    4.42
   2  -2   9  136.42    3.67
   2  -2   9  129.16    2.96
  -2   2 -10  275.28    4.68
   2  -2  10  278.43    4.73
   2  -2  10  265.61    4.62
   2  -2  10  269.80    6.56
  -2   2 -10  276.89    7.20
   2  -2  10  267.88    5.45
   2  -2  11  468.76    6.10
   2  -2  11  473.50    6.32
  -2   2 -11  470.73    6.48
   2  -2  11  459.47    7.43
  -2   2 -12    1.13    0.49
   2  -2  12    1.13    0.72
   2  -2  12    1.53    0.47
  -2   2 -13  190.34    3.77
   2  -2  13  193.56    4.53
  -2   2 -14  136.74    2.64
  -2   1  16   58.58    1.61
  -2   1  15   15.06    1.18
   2  -1 -15   16.26    0.92
   2  -1 -15   15.26    0.95
  -2   1  14  135.28    3.90
   2  -1 -14  137.22    3.30
   2  -1 -14  134.93    3.04
   2  -1 -14  136.37    3.22
  -2   1  14  142.91    4.03
  -2   1  13  181.29    4.90
   2  -1 -13  177.60    4.13
  -2   1  13  174.14    4.10
  -2   1  13  177.33    4.87
   2  -1 -13  180.72    3.97
  -2   1  12   32.98    2.22
   2  -1 -12   29.78    1.75
  -2   1  12   32.43    1.94
  -2   1  12   34.02    2.29
   2  -1 -12   31.07    1.76
   2  -1 -11  194.54    4.34
  -2   1  11  193.08    4.66
   2  -1 -11  196.03    4.37
  -2   1  11  196.57    5.16
  -2   1  11  196.42    5.10
   2  -1 -10  224.81    4.30
   2  -1 -10  230.78    6.22
  -2   1  10  228.18    5.45
  -2   1  10  223.98    5.13
   2  -1 -10  232.99    4.55
  -2   1  10  225.13    5.87
   2  -1 -10  225.95    3.66
  -2   1  10  229.96    5.18
  -2   1   9  254.85    4.98
  -2   1   9  262.69    5.21
   2  -1  -9  252.28    6.19
  -2   1   9  259.26    6.21
   2  -1  -9  258.02    3.99
  -2   1   9  259.22    6.32
   2  -1  -9  263.72    4.46
   2  -1  -9  256.09    3.66
   2  -1  -8  817.40   10.54
  -2   1   8  836.65   10.77
  -2   1   8  829.76   10.74
   2  -1  -7   58.93    2.68
  -2   1   7   54.80    2.67
  -2   1   7   55.81    2.58
   2  -1  -6 1360.51   11.70
  -2   1   6 1382.18   12.77
  -2   1   6 1352.86   11.46
  -2   1   5    1.69    0.47
   2  -1  -5    3.21    0.49
  -2   1   5    2.08    0.71
   2  -1  -5    1.26    0.47
  -2   1   5    1.92    0.57
  -2   1   4   22.57    1.55
   2  -1  -4   22.38    1.03
   2  -1  -4   24.11    1.30
  -2   1   4   22.23    1.01
  -2   1   4   22.23    1.17
  -2   1   3 1895.29    7.00
  -2   1   3 1869.45   12.30
   2  -1  -3 1862.43   10.85
   2  -1  -3 1864.54   10.18
  -2   1   3 1884.69    8.16
   2  -1  -3 1892.47    8.88
   2  -1  -2  137.93    2.53
  -2   1   2  137.78    3.06
  -2   1   2  130.20    1.42
   2  -1  -2  141.57    2.90
   2  -1  -1  462.27    4.35
   2  -1  -1  460.62    5.20
  -2   1   0 1263.54    7.47
   2  -1   0 1274.03    8.92
   2  -1   0 1276.46    7.23
  -2   1  -1    7.98    0.54
  -2   1  -1    5.58    0.75
   2  -1   1    7.25    0.79
   2  -1   1    7.18    0.64
  -2   1  -2   64.81    1.08
  -2   1  -2   64.96    2.32
   2  -1   2   67.74    1.34
   2  -1   2   68.09    2.34
   2  -1   3 1179.54    7.39
   2  -1   3 1174.25   10.31
  -2   1  -4   10.86    1.07
   2  -1   4    9.02    0.84
   2  -1   4    9.37    1.14
   2  -1   5    1.16    0.75
  -2   1  -5    0.82    0.52
   2  -1   6  655.08    9.42
  -2   1  -6  641.82    7.77
   2  -1   6  642.08    8.27
   2  -1   7  712.14   10.35
  -2   1  -7  727.79    8.45
  -2   1  -7  698.26   10.98
   2  -1   7  713.72    9.62
   2  -1   8    9.11    1.38
   2  -1   8    8.17    0.78
  -2   1  -8    3.69    0.97
   2  -1   8    5.23    0.96
   2  -1   8    6.56    0.80
  -2   1  -9  620.51    6.18
   2  -1   9  636.59   10.58
   2  -1   9  612.51    7.12
   2  -1   9  625.87    7.68
   2  -1   9  597.77    9.44
  -2   1  -9  645.26   11.54
   2  -1  10  261.82    4.99
   2  -1  10  260.54    5.98
   2  -1  10  265.27    5.28
  -2   1 -10  271.96    4.58
  -2   1 -11    0.59    0.43
   2  -1  11    1.80    0.72
   2  -1  11    0.15    0.53
   2  -1  12   27.00    1.64
   2  -1  12   27.64    1.81
  -2   1 -12   27.32    1.55
  -2   1 -13    0.45    0.34
   2  -1  13    0.04    0.39
   2  -1  13   -0.18    0.55
   2  -1  14    5.82    0.62
  -2   1 -14    6.39    0.60
  -2   0  16  200.49    3.30
   2   0 -15  106.75    2.57
   2   0 -15  105.10    2.48
  -2   0  15  105.73    3.09
  -2   0  14  129.43    3.85
   2   0 -14  128.86    3.28
  -2   0  14  129.63    3.95
   2   0 -14  123.18    3.04
   2   0 -14  124.57    3.17
  -2   0  14  130.79    3.49
  -2   0  13    5.62    1.04
   2   0 -13    4.42    0.74
  -2   0  13    4.30    0.95
   2   0 -13    6.21    0.83
  -2   0  13    4.64    1.04
  -2   0  12  185.75    4.78
   2   0 -12  181.86    4.21
   2   0 -12  184.42    4.30
  -2   0  12  188.16    5.10
  -2   0  12  190.19    5.03
  -2   0  11   33.76    2.08
  -2   0  11   34.13    2.13
  -2   0  11   32.67    2.15
  -2   0  11   33.42    2.35
   2   0 -11   31.31    1.76
   2   0 -11   35.99    1.86
  -2   0  10   19.40    1.52
   2   0 -10   17.39    1.18
   2   0 -10   17.67    1.80
  -2   0  10   18.57    1.63
  -2   0  10   16.83    1.74
   2   0 -10   19.20    1.31
  -2   0  10   18.80    1.54
  -2   0   9   14.03    1.08
   2   0  -9   10.59    1.32
  -2   0   9   11.71    1.32
  -2   0   9   10.98    1.06
  -2   0   9   12.08    1.50
   2   0  -9   12.90    0.98
  -2   0   8  196.42    4.83
   2   0  -8  194.95    5.33
  -2   0   8  196.33    5.12
  -2   0   8  184.64    5.12
  -2   0   7   18.81    1.41
   2   0  -7   16.97    1.51
  -2   0   7   17.34    1.52
  -2   0   7   17.12    1.48
  -2   0   6  361.58    5.56
   2   0  -6  379.44    6.31
  -2   0   6  361.37    6.38
   2   0  -5  486.42    6.58
  -2   0   5  475.92    5.63
   2   0  -4  322.97    4.93
  -2   0   4  330.05    5.34
   2   0  -4  337.55    3.31
  -2   0   4  328.47    4.12
   2   0  -3   79.06    2.26
  -2   0   3   77.83    1.78
  -2   0   3   77.11    2.42
   2   0  -3   82.29    1.52
   2   0  -2  305.37    4.17
  -2   0   2  306.59    3.09
   2   0  -2  303.35    2.92
   2   0  -1   14.73    0.96
  -2   0   1   14.59    0.91
   2   0  -1   15.58    0.74
  -2   0   1   17.07    0.71
  -2   0   0  208.54    2.88
   2   0   0  211.41    1.50
  -2   0  -1  524.02    3.89
   2   0   1  542.60    3.45
   2   0   1  533.93    5.42
   2   0   1  532.22    5.79
   2   0   2  287.11    4.44
  -2   0  -2  280.19    1.98
  -2   0  -2  277.82    4.23
   2   0   2  292.24    3.34
   2   0   2  269.22    4.47
   2   0   3 2661.52   14.73
   2   0   3 2642.84   12.04
  -2   0  -4 1141.12    8.60
   2   0   4 1156.84    9.22
   2   0   5  763.90    9.40
  -2   0  -5  773.55    7.18
  -2   0  -5  741.99    9.97
   2   0   5  759.87    8.40
  -2   0  -6 1619.42   15.90
   2   0   6 1614.91   13.65
   2   0   7  333.45    6.69
   2   0   7  347.13    7.19
   2   0   8  223.90    4.10
   2   0   8  206.68    5.69
  -2   0  -8  222.64    6.56
   2   0   8  222.83    3.79
  -2   0  -9  559.46    5.96
   2   0   9  559.70    7.16
   2   0   9  562.94    6.95
   2   0   9  545.86    9.32
  -2   0 -10    0.21    0.35
   2   0  10    0.54    0.56
   2   0  10    1.20    0.63
   2   0  10    0.18    0.52
   2   0  11  273.17    5.45
  -2   0 -11  272.31    4.90
   2   0  11  276.22    5.30
  -2   0 -12  207.21    4.18
   2   0  12  207.81    4.60
   2   0  12  205.98    4.45
   2   0  13   92.31    2.84
  -2   0 -13   96.54    2.59
   2   0  13   96.77    2.79
  -2   0 -14   35.32    1.22
   2   0  14   37.47    1.54
   2   1 -16  103.48    1.59
  -2  -1  16  100.33    2.41
   2   1 -16   99.05    1.66
   2   1 -15   47.14    1.75
  -2  -1  15   48.73    1.99
   2   1 -15   46.85    1.73
  -2  -1  15   45.66    2.07
  -2  -1  14   35.32    2.02
  -2  -1  14   36.06    2.11
   2   1 -14   36.10    1.76
   2   1 -14   36.06    1.79
  -2  -1  13   34.21    2.12
   2   1 -13   32.60    1.80
  -2  -1  13   32.40    2.11
  -2  -1  13   35.24    2.20
   2   1 -13   32.12    1.78
   2   1 -13   33.52    1.84
  -2  -1  12   36.37    2.20
   2   1 -12   38.36    2.00
  -2  -1  12   38.66    2.34
   2   1 -12   38.75    2.01
  -2  -1  12   39.66    2.32
   2   1 -12   38.47    1.94
  -2  -1  11   40.60    2.21
   2   1 -11   39.56    1.91
  -2  -1  11   40.51    2.35
  -2  -1  11   39.90    2.63
   2   1 -11   40.99    1.98
  -2  -1  11   39.82    2.25
  -2  -1  10  261.73    5.03
   2   1 -10  254.32    4.29
   2   1 -10  256.94    6.80
  -2  -1  10  250.57    5.22
  -2  -1  10  249.07    6.21
  -2  -1  10  254.34    5.82
  -2  -1  10  247.35    6.76
   2   1 -10  261.93    4.71
  -2  -1  10  255.83    5.36
   2   1  -9   39.39    2.58
  -2  -1   9   45.45    2.62
  -2  -1   9   38.98    2.37
   2   1  -9   39.08    1.66
   2   1  -8   93.72    3.72
  -2  -1   8   98.22    3.55
  -2  -1   8   93.70    3.53
   2   1  -7   51.01    2.59
  -2  -1   7   51.37    2.43
  -2  -1   7   50.13    2.55
   2   1  -6  226.63    5.07
  -2  -1   6  224.54    4.66
  -2  -1   6  228.28    5.08
   2   1  -5  179.97    4.22
  -2  -1   5  180.50    3.82
   2   1  -4 1320.95   10.57
  -2  -1   4 1307.28    9.49
   2   1  -3   16.46    1.16
  -2  -1   3   16.80    1.02
   2   1  -2  142.03    3.18
  -2  -1   2  147.58    2.81
   2   1  -1  736.75    3.91
   2   1  -1  704.63    6.89
  -2  -1   1  744.88    6.29
   2   1   0   91.75    1.82
  -2  -1   0   88.60    2.02
   2   1   0   89.12    1.77
   2   1   0   89.10    2.51
   2   1   1 2105.50   10.26
  -2  -1  -1 2099.46   11.49
   2   1   1 2092.27   12.77
   2   1   2  564.58    6.08
  -2  -1  -2  564.03    5.31
  -2  -1  -2  552.00    6.71
   2   1   2  557.67    5.55
   2   1   2  551.27    7.08
  -2  -1  -3 2651.44   10.88
  -2  -1  -3 2654.67   16.57
   2   1   4  528.38    7.28
  -2  -1  -4  523.83    4.47
   2   1   4  539.88    6.90
  -2  -1  -4  524.88    8.05
   2   1   5   68.09    2.88
   2   1   5   66.02    2.68
  -2  -1  -5   71.11    3.25
  -2  -1  -6    4.24    0.94
   2   1   6    5.79    0.91
   2   1   7    8.57    1.21
  -2  -1  -7    5.36    1.14
   2   1   8  224.51    6.11
   2   1   8  234.19    4.53
  -2  -1  -8  230.95    6.72
   2   1   9    0.51    0.44
  -2  -1  -9    0.61    0.32
   2   1   9    1.17    0.60
   2   1   9    1.61    0.60
  -2  -1  -9    0.02    0.75
  -2  -1 -10   -0.07    0.43
   2   1  10    0.44    0.56
   2   1  10    0.56    0.43
   2   1  11    5.35    0.75
   2   1  11    5.51    0.94
  -2  -1 -11    5.49    0.78
  -2  -1 -12   37.72    1.74
   2   1  12   40.59    1.80
   2   1  12   39.40    2.08
  -2  -1 -13   17.16    1.05
   2   1  13   16.63    1.26
   2   1  14   30.91    1.39
  -2  -2  16   24.43    1.16
   2   2 -16   23.51    0.84
  -2  -2  16   24.79    1.14
   2   2 -15   79.98    2.25
  -2  -2  15   76.30    2.61
   2   2 -15   77.46    2.21
   2   2 -15   79.31    2.11
  -2  -2  15   75.87    2.47
   2   2 -14    7.28    0.83
  -2  -2  14    5.43    0.92
  -2  -2  14    6.66    1.10
   2   2 -14    5.69    0.77
  -2  -2  13  118.44    3.32
   2   2 -13  118.67    3.33
  -2  -2  13  123.03    4.13
  -2  -2  13  122.53    3.83
   2   2 -13  123.55    3.48
   2   2 -12  313.75    5.49
  -2  -2  12  321.54    6.68
   2   2 -12  317.65    5.73
   2   2 -12  318.24    5.67
  -2  -2  12  318.28    6.12
  -2  -2  11  208.41    4.81
   2   2 -11  197.17    4.21
  -2  -2  11  202.61    5.12
  -2  -2  11  203.91    5.63
  -2  -2  11  194.98    4.66
  -2  -2  11  194.92    5.93
   2   2 -11  197.32    4.38
   2   2 -11  194.87    4.33
  -2  -2  10  194.97    4.20
   2   2 -10  183.85    5.75
   2   2 -10  180.62    3.63
  -2  -2  10  182.80    4.59
  -2  -2  10  181.57    5.52
  -2  -2  10  192.39    5.07
   2   2 -10  191.56    4.09
   2   2 -10  188.43    3.99
  -2  -2  10  184.23    4.15
  -2  -2   9   11.50    1.30
  -2  -2   9   11.20    1.15
   2   2  -9   11.19    1.48
  -2  -2   9   10.84    1.36
   2   2  -9   10.59    0.90
   2   2  -9   12.62    0.99
  -2  -2   8  109.65    3.98
  -2  -2   8  105.05    3.88
   2   2  -8  110.65    4.09
   2   2  -7   11.49    1.31
  -2  -2   7   13.87    1.41
   2   2  -6  229.57    5.25
  -2  -2   6  239.27    5.22
   2   2  -5  370.35    6.28
  -2  -2   5  367.18    6.13
   2   2  -4 1756.09   12.93
  -2  -2   4 1796.86   12.86
   2   2  -3 1529.73   11.62
  -2  -2   3 1587.52   11.59
   2   2  -2   36.51    1.77
  -2  -2   2   37.39    1.78
  -2  -2   1  643.66    4.70
   2   2  -1  642.64    5.97
   2   2   0    4.10    0.77
   2   2   0    2.38    0.46
  -2  -2   0    3.09    0.48
   2   2   1 1832.52   11.15
  -2  -2  -1 1844.77   11.54
   2   2   1 1820.65   13.18
   2   2   2  812.32    7.97
  -2  -2  -2  805.58    8.60
   2   2   2  820.17    9.46
   2   2   3  438.42    6.39
  -2  -2  -3  454.03    7.14
   2   2   4  667.28    8.56
  -2  -2  -4  687.90    9.55
   2   2   5  310.51    6.21
  -2  -2  -5  319.62    7.01
   2   2   6   53.51    2.77
  -2  -2  -6   53.00    3.09
   2   2   7  432.19    5.45
  -2  -2  -7  429.62    9.01
   2   2   7  440.50    6.08
  -2  -2  -8   11.60    0.89
   2   2   8    9.18    1.21
  -2  -2  -8   11.66    1.56
   2   2   8   10.68    1.02
   2   2   8   11.15    1.16
  -2  -2  -9    0.71    0.44
   2   2   9    1.01    0.29
  -2  -2 -10   79.87    2.63
   2   2  10   79.75    3.04
   2   2  11   83.02    3.07
  -2  -2 -11   83.73    2.67
  -2  -2 -12    0.27    0.37
   2   2  12   -0.12    0.59
   2   2  13   39.27    1.79
  -2  -2 -13   39.25    1.35
   2   2  14   79.54    2.02
  -2  -3  16   48.58    1.65
   2   3 -15   98.47    2.40
  -2  -3  15   94.31    2.94
   2   3 -15   91.79    2.34
  -2  -3  15   92.46    2.42
   2   3 -15   94.58    2.13
   2   3 -14   23.53    1.39
   2   3 -14   20.57    1.26
  -2  -3  14   22.49    1.75
  -2  -3  14   20.40    1.40
   2   3 -14   20.27    1.33
   2   3 -13  224.86    4.53
  -2  -3  13  226.40    5.60
  -2  -3  13  227.96    4.86
   2   3 -13  229.49    4.75
  -2  -3  13  228.48    4.75
  -2  -3  12  121.47    4.18
  -2  -3  12  119.75    3.54
   2   3 -12  123.91    3.57
   2   3 -12  116.35    3.31
  -2  -3  12  123.70    3.80
   2   3 -11  236.63    4.65
  -2  -3  11  232.99    5.62
   2   3 -11  233.50    4.83
  -2  -3  11  244.08    4.79
   2   3 -10  496.44    9.23
  -2  -3  10  519.45    9.72
  -2  -3  10  507.56    8.26
  -2  -3  10  500.58    7.68
   2   3 -10  491.95    6.66
  -2  -3  10  508.03    6.17
   2   3 -10  494.41    6.21
  -2  -3   9   37.02    1.97
   2   3  -9   31.30    2.29
  -2  -3   9   31.11    2.24
   2   3  -9   32.93    1.65
  -2  -3   9   30.97    2.35
   2   3  -9   34.68    1.68
   2   3  -9   31.56    1.40
   2   3  -8   65.97    3.18
  -2  -3   8   61.39    3.19
   2   3  -7  260.81    6.04
  -2  -3   7  261.15    6.22
   2   3  -6 2367.04   17.25
  -2  -3   6 2418.96   18.00
   2   3  -5   23.14    1.67
  -2  -3   5   22.05    1.74
   2   3  -4   84.91    3.01
  -2  -3   4   86.59    3.23
   2   3  -3  745.62    8.64
  -2  -3   3  745.63    9.17
  -2  -3   2    2.29    0.71
   2   3  -2    2.38    0.65
   2   3  -1   33.83    1.89
  -2  -3   1   32.27    2.00
  -2  -3   1   36.77    1.40
   2   3  -1   35.52    1.78
   2   3   0   45.68    2.20
  -2  -3   0   48.01    1.83
  -2  -3   0   40.52    2.30
   2   3   0   46.33    2.07
   2   3   1   74.48    2.66
   2   3   1   76.28    2.99
   2   3   2  509.92    7.93
  -2  -3  -2  502.75    7.37
   2   3   2  493.27    7.18
  -2  -3  -3  208.27    5.14
   2   3   3  211.22    4.93
   2   3   4   42.84    2.34
  -2  -3  -4   43.70    2.58
   2   3   5   15.41    1.51
  -2  -3  -5   13.84    1.55
   2   3   6   49.45    2.02
   2   3   6   47.28    2.72
  -2  -3  -6   48.57    2.98
   2   3   6   44.87    1.68
  -2  -3  -7  219.66    6.61
   2   3   7  219.31    4.64
   2   3   7  209.66    5.95
   2   3   7  213.42    3.95
   2   3   8    0.96    0.57
  -2  -3  -8    1.02    0.32
  -2  -3  -8    0.95    0.51
   2   3   8    0.32    0.44
   2   3   8    1.28    0.71
  -2  -3  -9   35.28    1.75
   2   3   9   35.74    2.01
   2   3   9   33.82    2.06
   2   3  10   82.23    3.02
  -2  -3 -10   81.83    2.66
   2   3  11   89.47    3.05
  -2  -3 -11   85.08    2.56
  -2  -3 -12   21.37    1.11
   2   3  12   22.53    1.46
   2   3  13  285.16    4.19
  -2  -4  16    1.36    0.34
  -2  -4  15    1.63    0.54
   2   4 -15    1.63    0.29
   2   4 -15    1.74    0.39
   2   4 -14   76.63    2.34
  -2  -4  14   76.96    2.95
   2   4 -14   71.31    2.36
   2   4 -14   75.03    2.19
   2   4 -13   38.20    1.82
  -2  -4  13   34.08    2.20
   2   4 -13   34.49    1.70
   2   4 -13   34.44    1.81
  -2  -4  13   37.31    2.09
   2   4 -12   22.60    1.48
  -2  -4  12   21.17    1.85
  -2  -4  12   21.10    1.77
   2   4 -12   21.99    1.56
   2   4 -12   21.98    1.48
   2   4 -11   18.17    1.36
  -2  -4  11   17.02    1.64
  -2  -4  11   17.17    1.64
   2   4 -11   16.00    1.28
   2   4 -11   18.52    1.47
   2   4 -10  152.15    3.62
   2   4 -10  151.39    4.73
  -2  -4  10  153.79    4.34
  -2  -4  10  158.28    5.34
   2   4 -10  150.33    3.88
  -2  -4  10  155.13    4.47
   2   4  -9  562.18    6.33
   2   4  -9  567.77    9.35
  -2  -4   9  579.02   10.45
  -2  -4   9  567.54    7.80
   2   4  -9  559.15    6.99
  -2  -4   8    9.85    0.99
  -2  -4   8    7.68    1.19
   2   4  -8    7.94    1.16
   2   4  -8    9.72    0.88
   2   4  -8   11.75    0.84
   2   4  -7   46.42    2.59
  -2  -4   7   43.44    2.74
   2   4  -6 1127.93   12.31
  -2  -4   6 1166.56   13.63
   2   4  -5   30.47    1.96
  -2  -4   5   30.72    2.18
   2   4  -4  275.20    5.63
  -2  -4   4  285.65    6.49
   2   4  -3   24.60    1.69
  -2  -4   3   25.94    1.98
   2   4  -2  143.31    3.98
  -2  -4   2  140.41    4.47
   2   4  -1   21.84    1.61
  -2  -4   1   21.77    1.82
   2   4  -1   20.98    1.58
  -2  -4   1   23.34    1.32
  -2  -4   0  134.33    4.48
   2   4   0  139.34    4.09
  -2  -4   0  137.19    3.54
   2   4   0  134.68    3.90
  -2  -4  -1   53.92    2.42
   2   4   1   49.89    2.45
   2   4   1   49.92    2.54
  -2  -4  -2    2.24    0.57
   2   4   2    2.63    0.64
  -2  -4  -3   91.93    3.64
   2   4   3   89.09    3.53
  -2  -4  -4   23.66    1.95
   2   4   4   23.17    1.88
   2   4   5  218.43    3.88
  -2  -4  -5  225.58    6.30
   2   4   5  221.50    3.57
   2   4   5  223.35    5.97
   2   4   5  229.05    4.27
  -2  -4  -6  238.59    6.81
   2   4   6  224.91    4.70
   2   4   6  228.17    4.08
   2   4   6  232.80    6.24
   2   4   6  228.73    3.87
  -2  -4  -7  299.77    7.50
  -2  -4  -7  290.62    4.61
   2   4   7  290.10    5.59
   2   4   7  287.12    6.81
   2   4   7  280.55    4.42
   2   4   7  288.51    4.54
  -2  -4  -8  383.71    5.61
   2   4   8  382.17    6.71
   2   4   8  388.16    6.09
  -2  -4  -9    3.80    0.64
   2   4   9    5.46    0.85
   2   4   9    4.42    0.97
  -2  -4 -10  459.99    5.98
   2   4  10  471.58    6.69
   2   4  11   26.08    1.52
  -2  -4 -11   26.57    1.29
   2   4  12   47.29    1.73
   2   4  13  178.55    2.56
  -2  -5  15    6.90    0.76
  -2  -5  14   76.97    2.66
  -2  -5  14   80.90    2.52
   2   5 -14   78.73    1.98
  -2  -5  13   50.66    2.40
   2   5 -13   46.89    1.90
  -2  -5  13   48.32    2.37
   2   5 -13   46.54    2.03
   2   5 -13   46.39    1.85
   2   5 -12  288.58    4.97
  -2  -5  12  290.12    6.01
  -2  -5  12  286.55    6.09
   2   5 -12  285.12    5.34
   2   5 -12  282.49    4.92
   2   5 -11  112.91    3.21
  -2  -5  11  112.51    3.77
   2   5 -11  119.76    3.57
  -2  -5  11  116.45    4.02
   2   5 -11  109.63    3.24
   2   5 -10   31.34    1.72
  -2  -5  10   31.33    1.97
  -2  -5  10   30.49    2.20
   2   5 -10   33.13    1.92
   2   5 -10   33.41    1.84
   2   5  -9  239.59    4.50
   2   5  -9  252.31    5.50
  -2  -5   9  245.21    5.10
  -2  -5   9  259.96    7.00
  -2  -5   9  236.66    5.56
   2   5  -9  237.25    4.91
   2   5  -9  242.18    4.73
   2   5  -8  868.21    7.92
   2   5  -8  876.40   10.64
  -2  -5   8  918.12    8.65
  -2  -5   8  919.49   13.36
  -2  -5   8  905.05   10.19
   2   5  -8  903.76    9.06
   2   5  -8  895.44    8.75
   2   5  -7   13.58    0.92
   2   5  -7   12.69    1.32
  -2  -5   7   14.40    1.78
   2   5  -7   15.10    1.17
   2   5  -7   13.33    1.10
   2   5  -6  121.42    3.99
   2   5  -6  126.06    3.05
   2   5  -6  123.06    3.02
  -2  -5   6  124.70    4.76
   2   5  -5  525.98    8.11
  -2  -5   5  541.75    9.77
   2   5  -4   49.20    2.54
  -2  -5   4   49.02    2.98
   2   5  -3  201.03    4.95
  -2  -5   3  193.81    5.78
   2   5  -2   20.92    1.62
  -2  -5   2   22.64    2.05
  -2  -5   1   98.08    4.14
   2   5  -1  103.72    3.76
   2   5  -1   97.71    3.49
  -2  -5   0  373.76    6.36
  -2  -5   0  350.66    7.90
   2   5   0  360.62    7.02
   2   5   0  354.49    6.80
  -2  -5  -1   13.71    1.56
   2   5   1   13.99    1.50
  -2  -5  -1   13.72    1.37
   2   5   2   29.41    1.47
   2   5   2   29.02    1.51
  -2  -5  -2   27.76    2.41
   2   5   2   26.81    2.03
  -2  -5  -2   26.66    2.03
  -2  -5  -3  215.62    5.90
   2   5   3  203.45    5.66
   2   5   3  207.60    3.47
   2   5   3  210.22    4.10
   2   5   4    7.48    0.88
  -2  -5  -4    6.23    1.08
   2   5   4    5.71    1.11
   2   5   4    6.40    0.66
  -2  -5  -5  433.22    8.83
   2   5   5  433.68    8.50
  -2  -5  -5  417.76    5.96
   2   5   5  423.27    6.37
   2   5   5  410.81    6.06
  -2  -5  -6  115.08    3.01
   2   5   6  109.18    3.16
   2   5   6  107.20    3.39
  -2  -5  -7  478.97    6.32
   2   5   7  485.09    6.23
   2   5   7  473.04    7.27
   2   5   7  459.36    6.25
  -2  -5  -8   60.42    2.26
   2   5   8   63.04    2.34
   2   5   8   63.87    2.15
   2   5   8   62.47    2.74
  -2  -5  -9   78.48    2.44
   2   5   9   81.22    2.54
   2   5   9   85.89    3.09
   2   5  10  188.73    3.60
  -2  -5 -10  184.29    3.27
  -2  -6  14   11.12    0.91
  -2  -6  14   10.30    0.87
  -2  -6  13   14.92    1.19
   2   6 -13   15.24    0.99
   2   6 -13   15.61    0.98
  -2  -6  13   15.71    1.30
   2   6 -12    1.19    0.39
  -2  -6  12    1.07    0.57
   2   6 -12    1.56    0.48
  -2  -6  12    1.47    0.78
   2   6 -11  285.86    4.90
  -2  -6  11  288.01    5.50
  -2  -6  11  303.40    6.43
   2   6 -11  288.20    5.06
   2   6 -10    4.92    0.73
  -2  -6  10    5.54    0.88
  -2  -6  10    5.66    1.19
   2   6 -10    6.10    0.88
   2   6  -9   34.57    1.80
  -2  -6   9   36.85    1.91
  -2  -6   9   34.65    2.32
   2   6  -9   35.11    1.92
   2   6  -8 1485.62   11.23
  -2  -6   8 1470.02   13.77
   2   6  -8 1452.45   12.06
   2   6  -7  276.02    4.62
  -2  -6   7  279.50    5.67
   2   6  -7  277.22    5.14
   2   6  -7  274.76    4.60
   2   6  -6  460.06    6.09
  -2  -6   6  454.96    9.56
  -2  -6   6  465.93    6.91
   2   6  -6  454.71    6.44
   2   6  -6  453.92    5.57
   2   6  -5   83.74    2.62
   2   6  -5   84.86    2.28
  -2  -6   5   87.27    2.69
   2   6  -5   84.59    2.76
  -2  -6   5   82.40    4.03
  -2  -6   4  325.82    4.56
   2   6  -4  330.56    5.23
  -2  -6   4  325.03    7.96
   2   6  -4  338.92    4.32
   2   6  -4  317.41    4.17
   2   6  -4  343.64    5.45
   2   6  -4  332.42    5.11
   2   6  -3  395.45    5.73
   2   6  -3  388.95    5.73
   2   6  -3  381.57    5.25
   2   6  -2    1.69    0.39
   2   6  -2    0.69    0.49
  -2  -6   2    0.37    0.66
  -2  -6   2    0.50    0.35
   2   6  -2    0.73    0.41
   2   6  -2    0.72    0.41
   2   6  -1   35.00    1.57
  -2  -6   1   35.10    2.61
  -2  -6   1   32.30    1.45
   2   6  -1   31.83    1.43
   2   6  -1   33.13    2.31
   2   6  -1   34.78    1.79
   2   6   0  171.00    3.73
   2   6   0  162.49    3.88
  -2  -6   0  162.21    5.66
   2   6   0  167.89    5.16
   2   6   0  154.50    3.10
   2   6   1   21.85    1.42
   2   6   1   20.98    1.53
  -2  -6  -1   23.19    2.20
   2   6   1   22.36    1.91
   2   6   1   21.01    1.15
   2   6   2   16.48    1.38
  -2  -6  -2   17.00    1.87
   2   6   2   18.70    1.80
  -2  -6  -2   16.01    1.47
   2   6   2   17.44    1.33
  -2  -6  -3  172.66    6.01
   2   6   3  180.61    5.43
   2   6   3  170.00    3.45
  -2  -6  -3  175.65    5.09
   2   6   3  164.99    4.06
   2   6   4  253.16    5.08
   2   6   4  255.09    4.76
  -2  -6  -5   26.08    1.68
   2   6   5   21.13    1.54
   2   6   5   22.03    1.53
   2   6   6   48.35    2.20
   2   6   6   49.30    2.29
  -2  -6  -6   52.55    2.25
  -2  -6  -7   71.55    2.41
  -2  -6  -7   72.13    2.33
   2   6   7   73.96    2.81
   2   6   7   72.94    2.50
  -2  -6  -8   54.53    1.96
   2   6   8   53.11    1.87
   2   6   8   53.52    2.32
  -2  -6  -9   36.64    1.38
  -2  -7  14   41.94    1.29
   2   7 -14   44.53    1.28
  -2  -7  13  110.50    2.20
   2   7 -13  105.66    1.77
  -2  -7  13  112.98    2.89
   2   7 -13  113.30    2.55
  -2  -7  12    0.84    0.38
   2   7 -12    0.15    0.29
  -2  -7  12    0.28    0.56
  -2  -7  11  147.20    3.16
  -2  -7  11  146.64    4.23
   2   7 -11  142.24    3.27
   2   7 -11  149.65    3.24
  -2  -7  10   42.38    2.42
   2   7 -10   42.55    1.97
   2   7 -10   42.52    1.85
   2   7  -9  109.73    2.88
   2   7  -9  107.52    3.26
  -2  -7   9  110.96    3.88
   2   7  -9  111.78    3.05
   2   7  -8  105.02    3.05
  -2  -7   8  105.45    3.74
   2   7  -8  107.28    3.35
   2   7  -8   99.56    2.94
   2   7  -7   52.67    2.24
   2   7  -7   53.22    2.40
  -2  -7   7   54.26    2.60
   2   7  -7   50.90    2.12
   2   7  -6  285.01    5.30
  -2  -7   6  285.27    5.59
   2   7  -6  279.21    5.47
   2   7  -6  283.11    5.23
   2   7  -6  287.60    4.90
   2   7  -5    3.45    0.68
  -2  -7   5    3.77    0.70
   2   7  -5    3.74    0.70
   2   7  -5    4.33    0.82
   2   7  -4  138.70    3.77
  -2  -7   4  139.35    4.00
   2   7  -4  136.17    3.49
   2   7  -4  132.70    3.74
   2   7  -3    3.27    0.76
   2   7  -3    2.83    0.66
   2   7  -3    5.37    0.75
  -2  -7   3    4.69    1.06
  -2  -7   3    4.40    0.82
   2   7  -2   98.78    3.26
  -2  -7   2   98.57    3.17
   2   7  -2  101.28    2.82
  -2  -7   2  102.91    4.47
   2   7  -2  104.27    2.89
  -2  -7   1  224.66    4.47
  -2  -7   1  232.51    6.73
   2   7  -1  215.31    4.87
   2   7  -1  232.25    4.60
   2   7  -1  220.76    4.02
  -2  -7   0   13.25    1.04
   2   7   0   14.67    1.36
   2   7   0   14.45    1.02
   2   7   0   14.09    1.26
   2   7   1   66.38    2.75
   2   7   1   65.57    2.63
   2   7   2    1.25    0.67
   2   7   3   12.45    1.29
  -2  -7  -4  240.35    5.29
   2   7   4  240.17    5.09
   2   7   4  248.61    4.50
  -2  -7  -5   38.43    2.04
   2   7   5   37.84    2.02
   2   7   5   37.86    1.86
   2   7   6   21.87    1.44
  -2  -7  -6   22.07    1.29
  -2  -7  -6   21.96    1.41
   2   7   6   20.28    1.34
   2   7   7    0.06    0.36
  -2  -7  -7    0.78    0.31
  -2  -7  -7    0.89    0.37
   2   7   7    0.04    0.38
   2   7   8  211.57    2.98
   2   8 -13   22.86    0.87
  -2  -8  12   47.63    1.78
   2   8 -12   46.97    1.55
  -2  -8  11   81.34    2.70
  -2  -8  11   81.54    2.66
   2   8 -11   79.70    2.30
  -2  -8  10   80.29    2.96
   2   8 -10   75.95    2.30
  -2  -8  10   81.77    2.87
   2   8 -10   79.87    2.52
  -2  -8   9   23.85    1.78
   2   8  -9   24.29    1.50
   2   8  -9   23.25    1.42
  -2  -8   9   24.45    1.71
   2   8  -8    4.82    0.73
  -2  -8   8    4.09    0.90
   2   8  -8    3.95    0.69
  -2  -8   8    4.57    0.87
   2   8  -8    3.70    0.71
   2   8  -7   39.20    1.95
  -2  -8   7   39.59    2.04
  -2  -8   7   39.69    2.33
   2   8  -7   41.12    2.07
   2   8  -7   40.63    1.96
   2   8  -6    1.30    0.64
  -2  -8   6    2.10    0.71
  -2  -8   6    0.98    0.52
   2   8  -6    0.60    0.39
   2   8  -5  156.05    4.08
  -2  -8   5  150.60    4.35
   2   8  -5  151.44    3.65
   2   8  -4   36.94    2.05
  -2  -8   4   37.64    2.15
   2   8  -4   36.52    1.80
   2   8  -3   12.77    1.32
  -2  -8   3   11.10    1.19
   2   8  -3   10.92    0.93
   2   8  -3   10.91    1.00
   2   8  -2  556.88    7.98
  -2  -8   2  551.60    7.59
   2   8  -2  555.50    6.28
   2   8  -2  562.76    6.87
   2   8  -1  136.42    4.01
  -2  -8   1  136.37    3.64
   2   8  -1  137.08    3.56
   2   8   0   33.33    2.03
  -2  -8   0   35.67    1.76
   2   8   0   35.41    1.96
   2   8   1  371.48    6.17
  -2  -8  -2  310.49    6.22
   2   8   2  328.92    5.98
  -2  -8  -3    7.39    1.10
   2   8   3    8.74    1.10
  -2  -8  -4   35.56    1.95
   2   8   4   31.82    1.80
   2   8   5    2.07    0.57
  -2  -8  -5    2.07    0.41
  -2  -8  -5    2.13    0.58
   2   8   6    2.84    0.49
  -2  -8  -6    3.85    0.57
  -2  -8  -7   16.51    0.73
   2   8   7   15.83    0.84
  -2  -9  11    2.10    0.40
   2   9 -11    1.40    0.29
  -2  -9  10  113.34    2.76
   2   9 -10  106.70    2.22
   2   9  -9    4.66    0.58
  -2  -9   9    3.87    0.64
   2   9  -8   76.26    2.18
  -2  -9   8   75.65    2.69
   2   9  -8   72.99    2.11
   2   9  -7   28.04    1.50
  -2  -9   7   27.34    1.74
   2   9  -7   28.23    1.36
   2   9  -6   38.56    1.87
  -2  -9   6   36.20    1.98
   2   9  -6   36.17    1.55
  -2  -9   5   63.29    2.60
   2   9  -5   64.14    2.02
   2   9  -5   67.25    2.53
   2   9  -4  228.01    4.80
  -2  -9   4  219.00    4.71
   2   9  -3   74.61    2.82
  -2  -9   3   72.92    2.64
   2   9  -2  571.43    7.78
  -2  -9   2  572.94    7.07
   2   9  -2  586.10    6.36
   2   9  -1  201.54    4.53
  -2  -9   1  205.30    3.98
  -2  -9   1  189.78    4.64
   2   9  -1  203.55    3.93
  -2  -9   0   64.32    2.00
   2   9   0   62.31    2.29
  -2  -9   0   63.29    2.69
  -2  -9  -1  154.59    4.04
   2   9   1  148.51    3.49
  -2  -9  -2   24.43    1.62
   2   9   2   26.89    1.55
  -2  -9  -3  100.95    2.93
   2   9   3  105.91    2.79
   2   9   4    1.39    0.41
  -2  -9  -4    1.19    0.40
   2   9   5   -0.09    0.29
  -2  -9  -5    0.09    0.28
  -2 -10   8    1.24    0.35
  -2 -10   7    7.09    0.69
   2  10  -7    6.29    0.58
  -2 -10   6    0.03    0.32
   2  10  -6    0.48    0.30
   2  10  -5    6.83    0.72
  -2 -10   5    6.25    0.69
   2  10  -4  291.85    4.45
  -2 -10   4  286.78    4.21
  -2 -10   3   54.05    1.76
  -2 -10   2  167.13    2.77
  -2 -10   2  160.78    3.19
  -2 -10   1   78.67    2.30
  -2 -10   0   12.16    0.96
   2  10   0   14.04    0.85
  -2 -10  -1   29.16    1.34
   2  10   1   29.41    1.18
  -2 -10  -2   19.55    1.02
   2  10   2   20.98    0.97
  -2 -10  -3    7.93    0.58
   2  10   3    7.64    0.55
  -3  10   3  135.03    2.65
   3 -10  -3  134.70    2.10
  -3  10   3  135.28    2.26
  -3  10   2    5.88    0.68
   3 -10  -2    6.49    0.52
   3 -10  -2    5.99    0.50
  -3  10   1  110.74    2.72
   3 -10  -1  111.26    2.31
   3 -10  -1  111.22    1.99
  -3  10   0    0.47    0.39
   3 -10   0    0.09    0.23
   3 -10   0   -0.07    0.28
  -3  10  -1    1.98    0.49
   3 -10   1    2.13    0.41
   3 -10   1    2.50    0.44
  -3  10  -2   78.78    2.39
   3 -10   2   79.19    2.15
  -3  10  -3    9.91    0.88
   3 -10   3    8.93    0.75
  -3  10  -4    9.94    0.86
   3 -10   4    8.86    0.73
  -3  10  -5   65.77    1.92
   3 -10   5   63.88    1.79
  -3  10  -6   18.23    0.95
   3 -10   6   18.97    0.93
  -3   9   7  151.21    2.42
  -3   9   6   28.95    1.32
   3  -9  -6   31.38    1.13
  -3   9   6   29.58    1.28
  -3   9   5    1.00    0.49
   3  -9  -5    0.84    0.34
  -3   9   5    0.83    0.39
  -3   9   4  250.68    4.71
   3  -9  -4  255.32    4.01
   3  -9  -4  243.52    3.12
  -3   9   4  253.70    4.54
  -3   9   3   41.15    2.07
   3  -9  -3   42.42    1.73
   3  -9  -3   43.78    1.80
   3  -9  -3   41.18    1.57
  -3   9   3   42.63    1.99
  -3   9   2   75.89    2.89
   3  -9  -2   77.07    2.37
   3  -9  -2   76.35    2.31
   3  -9  -2   76.78    2.53
  -3   9   2   77.51    2.73
  -3   9   1  240.80    5.19
   3  -9  -1  248.45    4.21
  -3   9   1  253.90    4.92
   3  -9  -1  241.31    4.63
  -3   9   0    2.22    0.61
  -3   9   0    1.52    0.68
   3  -9   0    1.50    0.43
   3  -9   0    1.18    0.54
  -3   9  -1   43.33    2.27
   3  -9   1   40.31    2.00
  -3   9  -1   42.15    1.97
  -3   9  -2  196.69    4.66
   3  -9   2  200.40    4.47
   3  -9   2  195.01    4.40
   3  -9   3   29.03    1.75
   3  -9   3   29.11    1.76
  -3   9  -3   31.11    1.88
  -3   9  -4    0.94    0.53
   3  -9   4    1.02    0.56
   3  -9   4    1.60    0.58
  -3   9  -5   44.01    2.06
  -3   9  -5   41.79    1.59
   3  -9   5   42.89    2.00
   3  -9   5   43.77    2.01
  -3   9  -6    0.84    0.52
  -3   9  -6   -0.08    0.31
   3  -9   6    0.28    0.42
  -3   9  -7   10.85    0.95
  -3   9  -7   10.19    0.80
   3  -9   7   10.53    0.94
  -3   9  -8  145.03    2.92
  -3   9  -8  144.15    2.65
   3  -9   8  143.61    2.97
  -3   9  -9    1.63    0.33
  -3   9  -9    1.55    0.30
   3  -9   9    1.27    0.30
   3  -9   9    1.06    0.27
  -3   8   9   28.74    1.12
   3  -8  -9   26.57    0.95
  -3   8   8   15.05    1.04
   3  -8  -8   15.48    0.92
  -3   8   8   14.59    0.95
   3  -8  -7    3.60    0.57
  -3   8   7    2.37    0.60
  -3   8   7    2.61    0.60
   3  -8  -6   24.33    1.41
   3  -8  -6   23.91    1.05
  -3   8   6   21.48    1.58
   3  -8  -6   23.92    1.39
  -3   8   6   23.53    1.58
  -3   8   5   67.65    2.85
   3  -8  -5   69.20    2.46
   3  -8  -5   66.66    2.41
   3  -8  -5   65.86    2.11
   3  -8  -5   67.57    2.37
  -3   8   5   69.71    2.83
   3  -8  -4    2.57    0.62
  -3   8   4    2.92    0.86
   3  -8  -4    2.67    0.55
   3  -8  -4    2.37    0.53
   3  -8  -4    2.15    0.63
  -3   8   4    3.63    0.88
  -3   8   3  169.00    4.74
   3  -8  -3  172.42    4.01
   3  -8  -3  170.27    3.91
   3  -8  -3  175.16    3.73
   3  -8  -3  170.58    4.21
  -3   8   3  168.66    4.69
  -3   8   2    4.47    0.95
  -3   8   2    5.10    1.00
   3  -8  -2    3.62    0.67
   3  -8  -2    3.08    0.58
   3  -8  -2    2.89    0.74
  -3   8   1    2.08    0.79
  -3   8   1    4.44    0.98
   3  -8  -1    3.35    0.66
   3  -8  -1    3.47    0.84
  -3   8   0  267.03    5.89
   3  -8   0  258.52    4.78
   3  -8   0  257.05    5.50
  -3   8   0  262.88    5.82
  -3   8  -1  166.37    4.65
   3  -8   1  161.75    3.68
   3  -8   1  162.69    4.46
   3  -8   1  154.80    4.29
  -3   8  -1  154.26    4.40
  -3   8  -2    0.54    0.54
  -3   8  -2    0.70    0.66
   3  -8   2    0.53    0.34
   3  -8   2    1.08    0.62
   3  -8   2    1.18    0.71
  -3   8  -3  114.40    3.78
   3  -8   3  114.63    3.77
  -3   8  -3  111.29    3.52
  -3   8  -4  119.57    3.80
  -3   8  -4  117.95    3.15
   3  -8   4  112.12    3.76
  -3   8  -4  110.82    3.39
  -3   8  -5   27.24    1.83
  -3   8  -5   27.51    1.59
   3  -8   5   26.80    1.89
  -3   8  -6   54.56    2.46
  -3   8  -6   53.29    2.22
   3  -8   6   52.98    1.82
   3  -8   6   52.55    2.52
  -3   8  -7   21.24    1.50
  -3   8  -7   20.95    1.43
   3  -8   7   20.56    1.57
   3  -8   7   18.78    1.13
  -3   8  -8   99.75    2.96
  -3   8  -8   94.67    2.83
   3  -8   8   95.30    3.05
   3  -8   8   97.64    2.48
  -3   8  -9    9.24    0.88
  -3   8  -9   10.48    0.93
   3  -8   9   10.65    1.00
   3  -8   9    9.37    0.75
  -3   8 -10    3.43    0.51
  -3   8 -10    3.72    0.56
   3  -8  10    2.86    0.49
   3  -8  10    3.43    0.45
  -3   8 -11   10.69    0.66
   3  -8  11   10.01    0.64
  -3   7  10    2.83    0.50
   3  -7 -10    3.07    0.43
   3  -7 -10    2.76    0.43
   3  -7 -10    4.07    0.45
  -3   7  10    3.04    0.37
  -3   7   9  203.87    4.19
   3  -7  -9  205.34    3.68
  -3   7   9  198.25    3.67
  -3   7   8   15.75    1.40
   3  -7  -8   16.91    1.26
  -3   7   8   16.11    1.27
  -3   7   7   12.63    1.38
   3  -7  -7   11.75    0.90
  -3   7   7   12.57    1.30
   3  -7  -7   13.34    1.23
  -3   7   6  172.04    4.83
   3  -7  -6  163.62    4.06
  -3   7   6  169.13    4.66
   3  -7  -6  172.76    3.70
   3  -7  -6  165.92    4.10
  -3   7   5   47.87    2.61
   3  -7  -5   44.04    2.18
   3  -7  -5   44.46    2.26
   3  -7  -5   44.79    2.03
   3  -7  -5   43.51    2.14
  -3   7   5   47.08    2.58
  -3   7   4   94.55    3.68
   3  -7  -4   89.91    3.06
   3  -7  -4   93.79    3.06
   3  -7  -4   92.72    3.01
   3  -7  -4   93.08    3.28
  -3   7   4   91.69    3.61
  -3   7   3  534.33    8.61
   3  -7  -3  527.50    7.27
   3  -7  -3  532.36    7.01
   3  -7  -3  537.13    7.84
  -3   7   3  546.22    8.70
  -3   7   2  217.49    5.40
   3  -7  -2  212.39    4.50
   3  -7  -2  217.34    4.21
   3  -7  -2  211.06    4.94
  -3   7   2  212.92    5.49
  -3   7   1    3.46    0.91
  -3   7   1    4.23    0.88
   3  -7  -1    4.65    0.76
   3  -7  -1    4.14    0.84
   3  -7  -1    2.78    0.69
  -3   7   0  813.82   10.05
   3  -7   0  808.26    8.39
   3  -7   0  789.81    9.76
   3  -7   0  805.05    9.65
  -3   7  -1  790.14    9.82
   3  -7   1  780.62    7.76
   3  -7   1  769.40    9.64
  -3   7  -2    0.50    0.60
   3  -7   2    0.83    0.62
  -3   7  -3  437.22    7.21
  -3   7  -3  441.58    5.97
   3  -7   3  425.32    7.27
  -3   7  -4    4.71    0.76
   3  -7   4    6.30    0.74
   3  -7   4    5.39    0.97
  -3   7  -5    2.25    0.67
   3  -7   5    1.72    0.73
   3  -7   5    1.95    0.58
  -3   7  -6   40.74    2.14
   3  -7   6   39.01    2.30
   3  -7   6   40.50    1.94
  -3   7  -7    2.52    0.76
   3  -7   7    2.30    0.78
   3  -7   7    2.68    0.68
  -3   7  -8    0.50    0.56
   3  -7   8    0.97    0.63
   3  -7   8    0.95    0.49
  -3   7  -9   20.12    1.51
   3  -7   9   17.44    1.41
   3  -7   9   19.61    1.35
  -3   7 -10   24.46    1.51
   3  -7  10   25.49    1.54
   3  -7  10   25.79    1.42
  -3   7 -11    8.20    0.81
   3  -7  11    7.52    0.78
   3  -7  11    8.37    0.76
  -3   7 -12   14.13    0.81
   3  -7  12   11.79    0.72
   3  -7  12   12.32    0.74
  -3   6  12    0.36    0.26
  -3   6  11  101.36    2.68
   3  -6 -11  100.77    2.25
   3  -6 -11   97.68    2.01
   3  -6 -11   99.26    2.23
  -3   6  10   19.85    1.47
   3  -6 -10   20.69    1.26
   3  -6 -10   21.34    1.30
  -3   6  10   20.16    1.21
  -3   6   9   21.94    1.71
  -3   6   9   20.46    1.40
   3  -6  -9   21.49    1.44
  -3   6   8    4.60    0.98
   3  -6  -8    3.73    0.83
  -3   6   8    3.86    0.77
   3  -6  -8    4.04    0.60
  -3   6   8    3.23    0.80
  -3   6   7   61.39    2.97
   3  -6  -7   62.01    2.59
   3  -6  -7   58.62    2.04
   3  -6  -7   61.72    2.32
   3  -6  -7   61.30    2.66
  -3   6   7   61.92    2.84
  -3   6   6    0.96    0.72
   3  -6  -6    1.06    0.48
   3  -6  -6    1.20    0.51
   3  -6  -6    0.94    0.60
   3  -6  -6    0.73    0.51
  -3   6   6    1.16    0.75
  -3   6   5    7.65    1.18
  -3   6   5    7.92    1.18
   3  -6  -5   10.41    1.09
   3  -6  -5    7.76    0.99
   3  -6  -5    6.03    0.90
   3  -6  -5    8.45    1.08
  -3   6   4    0.96    0.64
  -3   6   4    0.63    0.60
   3  -6  -4    1.95    0.57
   3  -6  -4    1.12    0.45
   3  -6  -4    1.29    0.50
   3  -6  -4    1.17    0.61
  -3   6   3    6.79    1.03
  -3   6   3    8.02    1.13
   3  -6  -3    7.62    0.89
   3  -6  -3    7.00    1.13
  -3   6   3    8.27    1.24
   3  -6  -3    6.63    0.85
   3  -6  -3    7.01    0.98
  -3   6   2  469.53    7.31
   3  -6  -2  462.61    6.34
  -3   6   2  481.75    8.74
   3  -6  -2  476.86   10.32
   3  -6  -2  489.43    5.93
   3  -6  -2  463.59    6.93
  -3   6   2  484.99    7.84
  -3   6   1  295.29    5.66
  -3   6   1  305.07    6.74
  -3   6   1  297.44    6.03
   3  -6  -1  298.46    4.73
   3  -6  -1  293.63    8.18
   3  -6  -1  300.73    5.62
   3  -6  -1  306.45    5.53
  -3   6   0  111.71    3.46
   3  -6   0  108.33    2.64
  -3   6   0  109.42    3.78
  -3   6   0  109.22    3.88
   3  -6   0  111.63    5.05
   3  -6   0  106.76    3.36
  -3   6  -1  485.14    7.08
  -3   6  -1  494.99    8.66
   3  -6   1  497.18    7.22
   3  -6   1  478.80   10.26
  -3   6  -2   24.51    1.62
  -3   6  -2   24.83    2.06
   3  -6   2   24.75    1.65
   3  -6   2   24.17    2.30
  -3   6  -3  567.82    6.46
   3  -6   3  563.93    7.77
   3  -6   3  547.34    6.15
   3  -6   3  552.90   10.86
  -3   6  -4    3.19    0.64
   3  -6   4    4.28    0.92
  -3   6  -4    4.83    1.07
   3  -6   4    4.29    0.85
   3  -6   4    3.23    0.64
  -3   6  -5   -0.30    0.55
   3  -6   5    0.38    0.49
   3  -6   5    0.05    0.50
  -3   6  -6  440.65    7.14
   3  -6   6  462.03    7.53
   3  -6   6  448.78    6.69
  -3   6  -7    0.06    0.63
   3  -6   7   -0.75    0.76
   3  -6   7    0.63    0.64
   3  -6   7    1.19    0.62
  -3   6  -8  103.17    3.61
   3  -6   8  106.25    3.57
   3  -6   8   99.57    3.55
   3  -6   8  102.29    3.33
  -3   6  -9   60.90    2.78
   3  -6   9   58.59    2.63
   3  -6   9   54.78    2.59
   3  -6   9   60.35    2.58
  -3   6 -10    2.69    0.68
   3  -6  10    3.09    0.72
   3  -6  10    2.50    0.64
  -3   6 -11   49.68    2.18
   3  -6  11   44.47    1.98
   3  -6  11   45.43    1.95
  -3   6 -12   65.80    2.09
   3  -6  12   63.79    2.00
   3  -6  12   64.09    1.97
  -3   6 -13   45.72    1.33
   3  -6  13   45.90    1.28
  -3   5  13  176.30    2.73
  -3   5  12   37.20    1.70
   3  -5 -12   37.02    1.32
   3  -5 -12   36.78    1.03
   3  -5 -12   35.26    1.38
   3  -5 -11  103.08    2.70
   3  -5 -11  103.74    2.51
   3  -5 -11  102.95    2.81
  -3   5  11  104.01    3.28
  -3   5  11  107.41    2.92
  -3   5  10   65.89    2.88
  -3   5  10   65.57    2.59
   3  -5 -10   66.50    2.54
   3  -5 -10   66.52    2.47
  -3   5  10   64.23    2.31
  -3   5   9   13.10    1.38
   3  -5  -9   11.73    0.92
   3  -5  -9   14.11    1.11
  -3   5   9   11.85    1.30
   3  -5  -9   11.84    1.20
  -3   5   9   13.63    1.23
  -3   5   8    3.83    1.00
  -3   5   8    2.95    0.79
   3  -5  -8    2.75    0.53
   3  -5  -8    2.52    0.74
  -3   5   8    3.14    0.73
  -3   5   7   77.40    3.28
   3  -5  -7   79.79    2.90
   3  -5  -7   78.18    2.74
   3  -5  -7   80.85    2.99
  -3   5   7   81.55    3.13
  -3   5   6   32.82    2.10
   3  -5  -6   34.10    1.84
   3  -5  -6   29.74    2.23
   3  -5  -6   35.36    1.87
   3  -5  -6   30.62    1.84
   3  -5  -6   32.52    1.92
  -3   5   6   33.35    2.05
  -3   5   5  347.10    6.46
   3  -5  -5  350.07    5.66
  -3   5   5  379.46    8.28
   3  -5  -5  358.52    8.30
   3  -5  -5  354.33    5.74
   3  -5  -5  353.51    5.79
   3  -5  -5  360.50    6.06
  -3   5   5  358.75    6.52
   3  -5  -4  159.66    3.68
  -3   5   4  155.02    4.14
   3  -5  -4  161.73    3.68
  -3   5   4  166.00    5.41
   3  -5  -4  160.09    5.79
   3  -5  -4  160.30    3.78
   3  -5  -4  164.00    3.98
  -3   5   4  161.94    4.40
  -3   5   3    0.26    0.53
  -3   5   3    0.33    0.45
   3  -5  -3    0.87    0.83
   3  -5  -3    1.02    0.32
  -3   5   3    1.78    0.57
  -3   5   3    0.96    0.53
   3  -5  -3   -0.12    0.36
   3  -5  -3    0.46    0.40
  -3   5   2  468.10    6.36
   3  -5  -2  472.91    5.26
  -3   5   2  480.65    8.63
  -3   5   2  488.79    8.55
   3  -5  -2  463.42    9.80
   3  -5  -2  503.51    6.65
   3  -5  -2  477.33    5.12
   3  -5  -2  494.69    6.46
  -3   5   1  169.23    3.59
  -3   5   1  169.58    4.91
  -3   5   1  176.94    5.34
   3  -5  -1  162.16    5.74
   3  -5  -1  181.36    3.91
   3  -5  -1  181.34    3.81
  -3   5   0   65.08    2.91
  -3   5   0   60.24    3.11
   3  -5   0   61.24    3.52
   3  -5   0   68.44    2.38
  -3   5  -1  570.84    7.83
  -3   5  -1  549.78    9.51
   3  -5   1  563.59    6.77
   3  -5   2    0.63    0.70
   3  -5   2    1.04    0.50
  -3   5  -3  382.11    4.80
  -3   5  -3  397.00    8.28
   3  -5   3  404.53    6.00
   3  -5   3  381.47    5.01
   3  -5   3  387.19    8.73
  -3   5  -4   88.64    2.66
   3  -5   4   86.47    4.21
  -3   5  -4   93.61    4.08
   3  -5   4   96.09    3.04
   3  -5   4   91.51    2.71
  -3   5  -5   32.86    1.82
   3  -5   5   35.24    1.92
  -3   5  -5   34.25    2.54
   3  -5   5   34.19    1.79
   3  -5   5   29.34    2.45
  -3   5  -6   84.57    3.01
   3  -5   6   85.00    3.07
  -3   5  -6   91.97    4.08
   3  -5   6   88.22    2.94
   3  -5   6   90.75    4.23
  -3   5  -7   17.42    1.50
   3  -5   7   19.09    1.56
   3  -5   7   16.66    1.40
  -3   5  -8   41.46    2.35
   3  -5   8   42.86    2.30
   3  -5   8   43.38    2.28
  -3   5  -9   13.18    1.49
   3  -5   9   13.61    1.34
   3  -5   9   13.93    1.32
  -3   5 -10    1.34    0.70
   3  -5  10    1.51    0.64
   3  -5  10    1.67    0.60
  -3   5 -11   14.99    1.37
   3  -5  11   14.84    1.21
   3  -5  11   14.30    1.21
  -3   5 -12   50.53    2.10
   3  -5  12   49.26    1.89
  -3   5 -13   17.49    1.02
   3  -5  13   14.15    0.83
  -3   4  13  241.31    4.11
   3  -4 -13  239.85    3.47
  -3   4  12  276.61    5.23
   3  -4 -12  276.36    4.13
   3  -4 -12  278.26    4.55
  -3   4  12  279.93    5.06
  -3   4  11   14.45    1.44
   3  -4 -11   16.46    1.11
   3  -4 -11   15.02    1.26
  -3   4  11   16.11    1.48
   3  -4 -11   16.43    1.24
  -3   4  10  185.80    4.97
   3  -4 -10  188.61    3.95
   3  -4 -10  184.50    4.33
   3  -4 -10  184.81    3.62
   3  -4 -10  187.81    4.49
  -3   4  10  194.37    5.01
  -3   4   9    7.28    1.12
   3  -4  -9    8.05    0.92
  -3   4   9    9.06    1.24
   3  -4  -9    7.80    1.03
  -3   4   9    8.82    0.95
  -3   4   8   11.71    1.32
   3  -4  -8   10.43    1.04
   3  -4  -8   11.34    1.18
  -3   4   8   12.19    1.22
  -3   4   7  167.72    4.54
   3  -4  -7  177.49    4.07
   3  -4  -7  180.27    4.11
   3  -4  -7  177.39    4.18
  -3   4   7  181.00    4.29
  -3   4   6    3.84    0.70
  -3   4   6    3.39    0.76
   3  -4  -6    3.09    0.79
   3  -4  -6    3.97    0.68
  -3   4   6    4.31    1.03
   3  -4  -6    4.81    0.72
   3  -4  -6    3.25    0.66
   3  -4  -6    4.42    0.75
  -3   4   5   42.27    1.98
   3  -4  -5   42.46    1.78
  -3   4   5   43.58    2.78
  -3   4   5   45.84    2.44
   3  -4  -5   45.79    2.92
   3  -4  -5   45.06    1.92
   3  -4  -5   42.32    1.87
   3  -4  -5   44.08    1.97
  -3   4   5   42.39    2.00
   3  -4  -4    6.23    1.27
  -3   4   4    7.95    1.17
  -3   4   4    7.85    1.04
   3  -4  -4    7.82    0.76
   3  -4  -4    8.86    0.84
  -3   4   3   11.93    1.48
  -3   4   3    9.75    1.25
   3  -4  -3   11.73    1.54
   3  -4  -2    5.54    1.06
  -3   4   2    4.48    0.91
  -3   4   2    5.43    0.94
  -3   4   1   26.06    1.81
  -3   4   1   24.86    2.02
   3  -4  -1   25.89    2.14
  -3   4   0   15.76    1.32
  -3   4   0   17.50    1.75
   3  -4   0   16.20    1.70
  -3   4  -1  238.14    6.28
  -3   4  -1  238.91    4.72
   3  -4   1  224.08    6.22
   3  -4   2    0.01    0.58
  -3   4  -2    0.31    0.56
  -3   4  -3   66.31    3.33
   3  -4   3   69.54    3.58
   3  -4   4   83.69    2.52
  -3   4  -4   78.85    3.72
   3  -4   4   82.16    3.90
   3  -4   5  422.81    6.00
  -3   4  -5  404.40    8.33
   3  -4   5  421.00    5.80
   3  -4   5  398.54    8.61
   3  -4   6    5.68    0.83
   3  -4   6    4.54    1.02
  -3   4  -6    3.92    1.04
   3  -4   7  480.84    9.65
   3  -4   7  473.91    6.90
   3  -4   8  395.14    6.44
   3  -4   9  143.24    3.90
   3  -4   9  147.17    4.03
   3  -4  10  431.43    6.50
   3  -4  10  441.79    6.83
  -3   4 -11  152.18    4.26
   3  -4  11  154.14    3.61
   3  -4  11  150.13    3.78
  -3   4 -12   49.27    2.32
   3  -4  12   54.60    2.03
  -3   4 -13   16.83    1.12
  -3   3  14    2.27    0.48
   3  -3 -14    2.68    0.39
  -3   3  14    2.50    0.49
  -3   3  13  128.25    3.39
   3  -3 -13  124.82    2.94
  -3   3  13  129.55    3.51
  -3   3  12  199.44    4.79
  -3   3  12  211.48    5.07
   3  -3 -12  204.02    4.31
   3  -3 -12  207.39    3.81
  -3   3  11  218.00    5.26
   3  -3 -11  218.32    3.92
   3  -3 -11  225.25    4.05
   3  -3 -11  223.16    4.83
   3  -3 -11  219.80    4.45
  -3   3  11  221.86    5.52
  -3   3  10    0.87    0.69
  -3   3  10    0.35    0.78
   3  -3 -10    2.41    0.58
   3  -3 -10    1.43    0.58
   3  -3 -10    0.48    0.45
  -3   3   9  112.35    3.77
   3  -3  -9  117.35    3.37
  -3   3   9  119.24    4.08
   3  -3  -9  111.66    3.35
  -3   3   8   64.76    2.80
  -3   3   8   73.51    3.66
   3  -3  -8   67.09    2.51
   3  -3  -8   65.08    2.48
  -3   3   7  149.25    3.84
   3  -3  -7  159.28    3.70
  -3   3   7  156.16    5.29
   3  -3  -7  157.20    3.68
  -3   3   6   19.79    1.26
  -3   3   6   19.98    1.91
   3  -3  -6   20.87    1.27
   3  -3  -6   20.44    1.19
   3  -3  -6   23.23    1.34
   3  -3  -6   24.77    1.41
   3  -3  -5    6.52    1.06
  -3   3   5    5.71    1.05
  -3   3   4  277.80    6.40
   3  -3  -4  271.33    6.31
  -3   3   3  131.01    4.21
   3  -3  -3  133.45    4.32
  -3   3   2  131.80    4.04
  -3   3   2  139.45    4.52
   3  -3  -2  129.54    4.25
  -3   3   1  234.27    5.02
  -3   3   1  241.41    5.93
  -3   3   0   25.03    1.57
  -3   3   0   25.04    2.02
   3  -3   0   24.17    1.86
  -3   3  -1  159.02    3.47
  -3   3  -1  160.56    4.95
  -3   3  -2  252.54    6.26
   3  -3   2  237.77    5.93
  -3   3  -3  161.69    5.04
   3  -3   3  161.89    5.05
  -3   3  -4  627.64    9.88
   3  -3   4  612.91   10.01
  -3   3  -5 1054.45   12.73
   3  -3   5 1032.39   13.35
   3  -3   6   66.15    2.19
   3  -3   6   63.19    1.94
  -3   3  -6   60.83    3.15
   3  -3   6   60.99    3.34
   3  -3   7 1462.09   16.48
   3  -3   7 1445.26   10.95
   3  -3   7 1453.84    9.94
  -3   3  -7 1471.90   14.94
   3  -3   8  328.28    7.73
   3  -3   8  319.23    5.41
   3  -3   8  319.24    5.00
  -3   3  -8  332.93    6.56
   3  -3   9   71.21    2.61
   3  -3   9   74.79    2.51
   3  -3   9   72.81    2.74
   3  -3  10   81.19    2.69
   3  -3  10   77.23    2.51
   3  -3  10   79.36    2.78
   3  -3  11   20.01    1.21
   3  -3  11   21.07    1.43
   3  -3  12  152.01    3.23
  -3   3 -13   13.49    1.07
   3  -2 -15   22.48    0.91
  -3   2  15   22.85    1.09
  -3   2  14    0.16    0.37
  -3   2  14    0.60    0.52
   3  -2 -14    0.73    0.35
   3  -2 -14    1.11    0.39
  -3   2  13  196.18    4.45
  -3   2  13  200.38    4.84
   3  -2 -13  200.82    4.10
  -3   2  12   17.87    1.53
  -3   2  12   16.05    1.38
   3  -2 -12   16.04    1.33
  -3   2  12   16.76    1.71
   3  -2 -12   15.86    1.13
  -3   2  11   13.09    1.50
  -3   2  11   13.64    1.46
   3  -2 -11   14.70    1.35
   3  -2 -11   14.23    1.17
  -3   2  10  399.45    7.00
   3  -2 -10  417.37    5.64
   3  -2 -10  409.88    6.61
  -3   2  10  406.51    7.59
   3  -2 -10  413.44    6.22
  -3   2   9  254.78    5.41
  -3   2   9  278.53    6.91
   3  -2  -9  266.80    5.02
   3  -2  -9  266.18    4.93
   3  -2  -9  270.19    5.18
  -3   2   9  270.52    5.92
  -3   2   8  392.87    6.04
  -3   2   8  413.86    8.56
   3  -2  -8  399.02    5.87
   3  -2  -8  404.73    5.81
   3  -2  -7   42.11    2.08
  -3   2   7   42.18    2.68
   3  -2  -7   43.28    1.80
   3  -2  -7   42.93    1.77
   3  -2  -6  228.71    4.68
  -3   2   6  199.70    5.64
   3  -2  -5  147.54    3.56
  -3   2   5  139.00    4.56
   3  -2  -4  125.52    3.07
  -3   2   4  118.91    4.01
   3  -2  -4  113.43    3.46
   3  -2  -3    1.28    0.57
  -3   2   3    1.95    0.73
   3  -2  -3    1.30    0.41
   3  -2  -2  503.59    5.33
  -3   2   2  491.62    7.21
   3  -2  -2  491.52    7.10
   3  -2  -1   95.37    2.26
  -3   2   1   95.85    2.92
   3  -2  -1   87.38    3.01
  -3   2   0  136.44    3.23
  -3   2   0  132.31    4.33
   3  -2   0  135.76    2.70
   3  -2   0  124.58    3.67
  -3   2  -1  479.24    5.30
  -3   2  -1  462.85    7.99
   3  -2   2    1.74    0.64
  -3   2  -2    1.78    0.78
  -3   2  -3   24.64    1.90
   3  -2   3   18.68    1.68
  -3   2  -4 1009.07   11.79
   3  -2   4  987.11   11.98
  -3   2  -5  418.66    7.55
   3  -2   5  420.77    8.15
   3  -2   6  269.16    6.75
  -3   2  -6  272.22    6.10
   3  -2   6  274.25    4.26
   3  -2   7  173.10    5.54
   3  -2   7  170.05    3.17
   3  -2   7  174.61    3.69
  -3   2  -7  175.40    4.70
   3  -2   7  180.12    3.72
   3  -2   8  535.57    9.90
   3  -2   8  501.70    6.73
  -3   2  -8  530.39   10.64
   3  -2   8  513.26    6.63
   3  -2   9   89.57    2.95
   3  -2   9   90.57    2.86
   3  -2  10   10.32    1.11
   3  -2  10   10.62    1.05
   3  -2  11  115.97    3.21
   3  -2  11  122.58    3.02
   3  -2  12   55.57    2.05
   3  -2  13    8.35    0.66
  -3   1  15    5.71    0.69
   3  -1 -15    5.52    0.56
  -3   1  14  229.68    4.31
  -3   1  14  230.49    4.78
   3  -1 -14  226.28    3.99
   3  -1 -14  234.72    4.16
  -3   1  13   31.53    1.86
  -3   1  13   33.10    1.92
   3  -1 -13   32.95    1.78
  -3   1  13   29.42    2.03
  -3   1  12   42.61    2.28
  -3   1  12   43.81    2.40
   3  -1 -12   45.67    2.24
  -3   1  12   44.22    2.60
  -3   1  11  685.20    8.99
   3  -1 -11  687.93    8.61
  -3   1  11  683.12    9.88
   3  -1 -11  682.01    7.69
  -3   1  10   43.76    2.25
  -3   1  10   41.51    2.44
   3  -1 -10   43.07    1.66
   3  -1 -10   40.63    2.09
   3  -1 -10   40.28    1.92
  -3   1   9  864.62    8.91
   3  -1  -9  888.33   11.10
  -3   1   9  902.42   12.67
   3  -1  -9  862.75    8.85
   3  -1  -9  856.96    7.46
   3  -1  -9  875.77    9.00
  -3   1   9  856.72   10.22
   3  -1  -9  857.10    8.45
  -3   1   8  249.89    4.14
   3  -1  -8  261.02    6.03
  -3   1   8  252.53    6.57
   3  -1  -8  253.78    4.53
   3  -1  -8  260.20    3.89
   3  -1  -8  253.90    4.53
   3  -1  -8  254.24    4.30
   3  -1  -7  211.44    5.19
  -3   1   7  218.27    5.94
   3  -1  -6 1717.81   13.96
  -3   1   6 1685.47   15.76
   3  -1  -5   97.44    3.15
  -3   1   5   94.53    3.61
   3  -1  -4   35.70    1.81
  -3   1   4   36.45    2.15
   3  -1  -3  550.35    6.70
  -3   1   3  557.76    7.75
   3  -1  -3  555.63    5.89
   3  -1  -2  141.83    3.24
  -3   1   2  134.96    3.55
   3  -1  -2  141.13    3.10
   3  -1  -1    3.40    0.60
  -3   1   1    3.44    0.63
   3  -1  -1    4.34    0.64
   3  -1   0  475.78    5.92
   3  -1   0  472.47    6.17
  -3   1   0  485.88    5.63
  -3   1  -1  369.39    6.70
   3  -1   1  377.05    5.90
   3  -1   1  373.20    5.49
  -3   1  -2   92.94    3.40
   3  -1   2   88.67    3.06
   3  -1   3  121.92    3.80
  -3   1  -3  123.84    3.91
   3  -1   4    0.98    0.56
  -3   1  -4    1.68    0.62
   3  -1   5  385.62    7.51
  -3   1  -5  379.52    6.61
   3  -1   6  384.28    7.85
  -3   1  -6  390.26    6.42
   3  -1   7   20.96    1.88
   3  -1   7   21.67    1.39
  -3   1  -7   20.19    2.02
   3  -1   7   24.06    1.21
   3  -1   7   22.82    1.34
   3  -1   8   19.34    1.40
   3  -1   8   21.33    2.00
   3  -1   8   19.01    1.41
  -3   1  -8   19.03    2.08
   3  -1   8   21.40    1.20
   3  -1   9   80.50    2.90
   3  -1   9   80.92    2.88
   3  -1  10  360.49    6.15
   3  -1  11    5.27    0.87
   3  -1  12    1.02    0.49
   3  -1  13   55.26    1.86
   3   0 -15    4.27    0.54
  -3   0  15    2.89    0.60
  -3   0  14  226.09    4.61
   3   0 -14  216.18    4.11
   3   0 -14  220.29    4.19
  -3   0  13  282.61    5.30
  -3   0  13  289.75    5.95
   3   0 -13  281.98    5.27
   3   0 -13  290.54    5.36
  -3   0  13  280.96    5.92
  -3   0  12    0.58    0.51
  -3   0  12    1.49    0.83
   3   0 -12    0.46    0.47
  -3   0  11   36.57    2.07
  -3   0  11   33.47    2.18
   3   0 -11   35.37    2.00
  -3   0  10   18.58    1.38
   3   0 -10   18.55    1.70
   3   0 -10   16.60    1.34
  -3   0  10   16.28    1.56
   3   0 -10   17.42    1.23
  -3   0   9  273.25    4.45
   3   0  -9  272.07    6.71
  -3   0   9  270.72    6.90
   3   0  -9  265.27    3.68
   3   0  -9  270.68    4.91
  -3   0   9  270.21    5.50
   3   0  -9  262.81    4.47
   3   0  -8  153.97    3.17
   3   0  -8  155.25    4.87
  -3   0   8  162.64    5.19
   3   0  -8  168.13    3.58
  -3   0   8  157.23    3.72
   3   0  -8  162.46    3.47
   3   0  -7   65.96    3.01
  -3   0   7   65.09    3.24
   3   0  -6  585.46    8.56
  -3   0   6  596.58    9.18
   3   0  -5  646.86    8.57
  -3   0   5  644.27    9.14
   3   0  -4    8.48    1.06
  -3   0   4    7.55    1.02
   3   0  -3  174.67    4.08
  -3   0   3  164.64    4.14
   3   0  -2  268.93    4.88
  -3   0   2  260.53    4.84
   3   0  -1   77.68    1.97
   3   0  -1   73.38    2.55
  -3   0   1   73.83    2.38
  -3   0   0    5.23    0.50
   3   0   0    4.74    0.62
   3   0   0    5.43    0.80
   3   0   1  666.30    7.12
  -3   0  -1  664.35    5.37
   3   0   1  653.25    8.17
  -3   0  -2 1103.86   10.70
   3   0   2 1102.58   10.97
   3   0   3  677.87    8.59
  -3   0  -3  706.32    8.46
   3   0   4   72.67    3.02
  -3   0  -4   72.72    2.60
  -3   0  -4   68.30    3.17
   3   0   5  194.53    5.18
  -3   0  -5  185.60    5.58
   3   0   6  158.13    4.95
   3   0   6  166.39    3.50
  -3   0  -6  156.21    5.44
   3   0   6  167.40    3.63
   3   0   7   54.13    3.05
   3   0   7   55.34    2.25
  -3   0  -7   55.46    3.41
   3   0   7   58.10    2.38
   3   0   7   53.22    1.81
   3   0   8   69.01    2.63
   3   0   8   71.41    2.29
   3   0   9  586.07    8.02
   3   0   9  606.09    7.17
   3   0  10   15.16    1.45
   3   0  11   24.49    1.67
   3   0  12  172.18    3.94
   3   0  13    0.85    0.46
   3   0  14  106.62    1.90
  -3  -1  15   81.05    2.44
   3   1 -15   80.71    2.19
  -3  -1  15   78.15    2.30
  -3  -1  14   13.21    1.30
   3   1 -14   12.40    1.07
  -3  -1  14   12.58    1.19
  -3  -1  13    2.28    0.88
  -3  -1  13    2.66    0.79
   3   1 -13    2.28    0.62
   3   1 -13    2.98    0.66
  -3  -1  12   96.59    3.16
  -3  -1  12   94.69    3.76
   3   1 -12   93.63    3.23
   3   1 -12   93.68    3.18
  -3  -1  12   93.36    3.45
  -3  -1  11  165.91    3.97
  -3  -1  11  166.26    4.84
  -3  -1  11  158.41    4.36
   3   1 -11  160.30    4.13
   3   1 -10    1.67    0.67
  -3  -1  10    2.16    0.65
   3   1 -10    1.63    0.53
   3   1  -9  260.45    6.76
  -3  -1   9  273.93    6.91
  -3  -1   9  261.75    4.92
   3   1  -9  257.15    4.73
   3   1  -8 1258.90   14.19
  -3  -1   8 1291.03   11.98
  -3  -1   8 1247.56   14.36
   3   1  -8 1288.08    9.59
   3   1  -7   25.06    2.01
  -3  -1   7   24.87    1.63
  -3  -1   7   27.35    2.10
   3   1  -6   15.21    1.49
  -3  -1   6   17.47    1.32
  -3  -1   6   14.70    1.48
   3   1  -5  884.89   10.63
  -3  -1   5  874.41    8.52
  -3  -1   5  851.39   10.69
   3   1  -4  440.64    7.20
  -3  -1   4  451.10    5.80
   3   1  -3   70.53    2.78
  -3  -1   3   71.72    2.23
   3   1  -2  376.31    6.34
  -3  -1   2  402.28    5.18
   3   1  -1  477.11    7.23
  -3  -1   1  507.73    5.90
   3   1   0   71.35    2.89
   3   1   0   79.91    2.03
  -3  -1   0   74.11    2.40
  -3  -1   0   72.41    2.19
   3   1   1   35.89    1.60
  -3  -1  -1   29.67    1.67
   3   1   1   33.38    2.04
   3   1   2  742.51    7.95
  -3  -1  -2  772.86    8.17
  -3  -1  -2  736.04    8.89
   3   1   2  773.02   10.01
   3   1   3   34.17    1.89
  -3  -1  -3   41.48    2.34
   3   1   4  365.77    6.63
  -3  -1  -4  371.49    7.54
  -3  -1  -5  313.27    7.34
   3   1   6    9.68    0.96
  -3  -1  -6   10.53    1.53
   3   1   6   10.00    1.00
   3   1   7    2.14    0.60
  -3  -1  -7    1.39    0.72
   3   1   7    1.59    0.66
   3   1   8  423.11    6.64
  -3  -1  -8  444.51    9.44
   3   1   9   96.27    3.34
   3   1  10    0.49    0.61
   3   1  11  411.40    6.61
   3   1  12   97.33    2.94
   3   1  13   63.51    1.99
  -3  -2  16  194.93    2.80
  -3  -2  15   21.89    1.39
   3   2 -15   21.83    1.15
  -3  -2  15   22.25    1.09
   3   2 -15   20.48    1.08
  -3  -2  14    7.45    1.10
   3   2 -14    7.27    0.86
  -3  -2  14    6.49    0.82
  -3  -2  13   21.88    1.85
  -3  -2  13   21.67    1.52
   3   2 -13   21.78    1.53
  -3  -2  12   95.54    3.75
   3   2 -12  101.88    3.33
   3   2 -12   94.95    3.18
  -3  -2  12   93.34    3.17
  -3  -2  11  329.14    6.82
   3   2 -11  326.18    5.89
   3   2 -11  325.46    5.81
  -3  -2  11  323.86    5.80
  -3  -2  10    0.47    0.78
  -3  -2  10    0.83    0.66
  -3  -2  10    0.49    0.61
   3   2 -10    0.42    0.43
   3   2 -10    0.18    0.43
   3   2  -9   74.09    3.70
  -3  -2   9   65.70    3.00
  -3  -2   9   76.92    3.71
   3   2  -9   71.55    2.52
   3   2  -9   73.95    2.50
   3   2  -8  164.24    5.31
  -3  -2   8  166.71    4.79
  -3  -2   8  168.97    5.42
   3   2  -8  169.76    3.51
   3   2  -8  169.86    3.47
   3   2  -7  152.43    4.96
  -3  -2   7  160.92    4.59
  -3  -2   7  162.44    5.29
   3   2  -6  517.34    8.83
  -3  -2   6  521.55    7.80
  -3  -2   6  506.29    8.87
   3   2  -5   70.26    3.16
  -3  -2   5   84.27    3.02
   3   2  -4 1337.17   13.28
  -3  -2   4 1345.79   11.60
  -3  -2   3    2.67    0.63
   3   2  -3    2.59    0.75
   3   2  -2  285.86    5.89
  -3  -2   2  288.18    5.29
   3   2  -1  547.70    8.29
  -3  -2   1  546.00    7.37
   3   2   0  183.84    4.92
  -3  -2   0  173.47    4.31
   3   2   0  180.15    3.25
  -3  -2   0  181.42    3.35
  -3  -2  -1  183.91    4.03
   3   2   1  180.89    3.49
   3   2   1  178.03    5.07
  -3  -2  -2   18.78    1.47
   3   2   2   16.99    1.14
   3   2   2   18.86    1.74
   3   2   3  185.29    4.01
  -3  -2  -3  183.53    4.92
  -3  -2  -4   57.42    2.97
   3   2   4   61.78    2.44
   3   2   5  917.39    7.90
   3   2   5  883.57    9.67
   3   2   5  912.50    8.55
  -3  -2  -5  900.55   12.46
   3   2   6   90.93    2.79
   3   2   6   85.03    2.85
   3   2   6   87.59    2.32
  -3  -2  -6   89.14    4.14
   3   2   7  113.44    3.31
   3   2   7  109.81    3.34
  -3  -2  -7  113.32    4.75
   3   2   8  306.47    5.75
   3   2   8  303.40    5.72
   3   2   9   24.42    1.72
   3   2  10    0.61    0.59
   3   2  11   18.26    1.39
   3   2  12   76.07    2.45
   3   2  13   15.85    0.92
  -3  -3  15    3.71    0.65
   3   3 -15    4.55    0.56
   3   3 -15    3.58    0.47
  -3  -3  14  155.76    4.07
   3   3 -14  158.98    3.39
  -3  -3  14  151.82    3.49
   3   3 -14  152.04    3.47
  -3  -3  13  140.09    4.26
   3   3 -13  132.83    3.60
   3   3 -13  143.57    3.62
  -3  -3  13  137.57    3.91
  -3  -3  12   16.43    1.65
   3   3 -12   16.83    1.42
  -3  -3  11  188.90    5.10
   3   3 -11  183.68    4.42
  -3  -3  10  487.21    7.87
   3   3 -10  477.23    6.99
  -3  -3   9    5.21    0.93
  -3  -3   9    3.02    0.79
  -3  -3   9    3.23    0.90
   3   3  -9    4.02    0.97
   3   3  -9    3.20    0.62
   3   3  -8   68.92    3.52
  -3  -3   8   71.25    2.60
  -3  -3   8   66.41    3.21
  -3  -3   8   69.25    3.57
   3   3  -8   70.19    2.39
   3   3  -8   71.07    2.42
   3   3  -7  261.83    6.59
  -3  -3   7  264.77    6.32
   3   3  -7  273.17    4.13
   3   3  -7  281.92    4.25
   3   3  -6  106.35    4.11
  -3  -3   6  106.13    3.88
   3   3  -5  145.90    4.72
  -3  -3   5  155.81    4.61
   3   3  -4  546.57    8.86
  -3  -3   4  568.66    8.68
   3   3  -3  200.49    5.28
  -3  -3   3  209.59    5.18
   3   3  -2  187.45    5.13
  -3  -3   2  193.40    4.96
   3   3  -1  354.51    7.10
  -3  -3   1  361.83    6.90
  -3  -3   0  461.42    7.98
   3   3   0  473.43    6.42
   3   3   0  461.56    8.25
  -3  -3  -1  526.95    6.96
  -3  -3  -1  501.71    8.60
   3   3   1  530.16    7.00
   3   3   1  520.74    9.06
  -3  -3  -2  231.90    5.26
   3   3   2  222.29    6.16
   3   3   2  232.64    4.84
  -3  -3  -3  786.97   10.52
   3   3   3  786.06    9.26
  -3  -3  -4   12.65    1.46
   3   3   4    9.69    0.74
   3   3   4    9.60    1.05
   3   3   4   10.47    0.86
   3   3   4   10.85    0.98
   3   3   4   11.28    0.95
  -3  -3  -5  189.06    5.74
   3   3   5  186.25    3.61
   3   3   5  184.39    4.78
   3   3   5  184.33    4.13
   3   3   5  181.28    3.76
   3   3   5  191.34    4.09
  -3  -3  -6    1.55    0.58
   3   3   6    1.28    0.60
   3   3   6    0.93    0.46
   3   3   6    1.17    0.53
   3   3   7    0.84    0.41
   3   3   7    1.24    0.58
   3   3   8    0.51    0.45
   3   3   8    0.64    0.56
   3   3   9   95.12    3.14
   3   3  10   95.18    3.04
   3   3  11   18.92    1.28
   3   3  12  109.02    2.47
  -3  -4  15    0.93    0.40
   3   4 -15    0.64    0.26
  -3  -4  14    6.84    0.92
  -3  -4  14    6.65    0.85
   3   4 -14    7.12    0.80
   3   4 -14    5.69    0.68
  -3  -4  13  178.96    4.53
  -3  -4  13  185.76    4.57
   3   4 -13  174.84    4.01
   3   4 -13  177.08    3.85
  -3  -4  12    1.73    0.79
   3   4 -12    0.93    0.55
  -3  -4  12    1.19    0.89
   3   4 -12    1.27    0.53
   3   4 -11  125.00    3.61
  -3  -4  11  125.13    4.01
   3   4 -11  126.94    3.71
  -3  -4  10  173.84    4.58
   3   4 -10  169.00    4.22
   3   4 -10  170.35    4.21
  -3  -4   9   86.67    3.10
   3   4  -9   84.56    2.89
   3   4  -8  189.20    5.64
  -3  -4   8  197.77    4.17
  -3  -4   8  190.12    5.66
   3   4  -8  191.17    4.10
   3   4  -8  194.58    4.23
  -3  -4   7    1.96    0.86
   3   4  -7    0.63    0.69
   3   4  -7    1.96    0.56
   3   4  -7    1.18    0.52
   3   4  -6   31.64    2.30
  -3  -4   6   29.15    2.27
   3   4  -6   28.77    1.20
   3   4  -6   31.42    1.43
   3   4  -6   30.94    1.55
   3   4  -5  179.52    5.31
  -3  -4   5  181.28    5.45
   3   4  -5  199.38    3.60
   3   4  -5  198.10    3.71
   3   4  -4  137.87    4.57
  -3  -4   4  145.10    4.86
  -3  -4   3   -0.03    0.70
   3   4  -3    0.72    0.51
   3   4  -2  205.76    5.62
  -3  -4   2  200.05    5.65
  -3  -4   1   24.72    2.02
   3   4  -1   29.03    2.20
  -3  -4   0    3.36    0.97
   3   4   0    4.35    0.96
   3   4   0    2.76    0.59
  -3  -4  -1  113.59    4.52
   3   4   1  120.70    3.77
   3   4   1  122.06    4.56
  -3  -4  -2  352.71    8.15
   3   4   2  380.00    5.11
   3   4   2  359.36    6.61
   3   4   2  371.22    5.27
   3   4   2  372.17    5.33
   3   4   3    0.23    0.50
  -3  -4  -3    1.77    0.68
   3   4   3    0.50    0.37
   3   4   3    0.31    0.47
   3   4   3    0.20    0.32
  -3  -4  -4   20.61    1.79
   3   4   4   18.80    1.50
   3   4   4   21.46    1.46
   3   4   4   18.35    1.21
   3   4   4   20.48    1.43
  -3  -4  -5  695.98   10.31
   3   4   5  698.13    6.88
   3   4   5  672.05    9.02
   3   4   5  672.39    8.04
   3   4   5  679.23    8.08
   3   4   5  658.85    7.83
   3   4   6   20.11    1.37
   3   4   6   18.69    1.39
   3   4   6   16.58    1.33
   3   4   7  144.05    3.61
   3   4   7  138.99    3.68
   3   4   7  140.82    3.47
   3   4   8    2.23    0.55
   3   4   9  258.95    4.65
   3   4  10  222.20    3.96
   3   4  11   11.19    0.80
  -3  -5  14    0.32    0.39
  -3  -5  14    0.69    0.38
   3   5 -14    0.28    0.27
  -3  -5  13   19.76    1.37
  -3  -5  13   19.68    1.51
   3   5 -13   18.28    1.24
   3   5 -13   18.62    1.19
   3   5 -13   19.69    1.13
  -3  -5  12   18.94    1.46
   3   5 -12   19.30    1.43
   3   5 -12   18.95    1.35
  -3  -5  12   20.68    1.75
  -3  -5  11    1.58    0.66
   3   5 -11    2.50    0.69
  -3  -5  11    1.83    0.81
   3   5 -11    1.74    0.67
  -3  -5  10   18.85    1.50
   3   5 -10   19.12    1.49
   3   5 -10   18.03    1.44
  -3  -5  10   18.88    1.82
  -3  -5   9   85.64    2.86
   3   5  -9   85.84    2.99
   3   5  -9   87.18    3.05
   3   5  -8   21.58    1.50
   3   5  -8   21.54    1.50
   3   5  -7  139.07    4.58
  -3  -5   7  158.32    5.35
   3   5  -7  145.27    3.62
   3   5  -7  152.85    3.85
  -3  -5   6    7.19    1.28
   3   5  -6    8.60    1.24
   3   5  -6    6.60    0.65
   3   5  -6    7.70    0.86
   3   5  -6    8.04    0.97
   3   5  -6    7.02    0.88
   3   5  -5  163.62    5.14
  -3  -5   5  178.54    5.83
   3   5  -5  179.21    3.38
   3   5  -5  176.74    3.91
   3   5  -5  180.42    4.00
   3   5  -4   61.72    3.19
   3   5  -4   65.26    1.97
  -3  -5   4   62.75    3.49
   3   5  -4   59.16    2.08
   3   5  -4   65.92    2.34
   3   5  -4   57.64    2.25
   3   5  -3    2.43    0.49
  -3  -5   3    0.24    0.75
   3   5  -3    0.55    0.46
   3   5  -3    1.13    0.44
   3   5  -3    1.05    0.46
   3   5  -3    0.60    0.40
   3   5  -2  282.27    4.81
   3   5  -2  281.30    4.49
  -3  -5   2  263.91    7.03
   3   5  -2  279.39    4.71
   3   5  -2  276.76    4.44
   3   5  -2  273.84    4.03
   3   5  -2  269.93    6.66
   3   5  -1  167.78    3.69
  -3  -5   1  162.85    5.57
   3   5  -1  167.88    3.70
   3   5  -1  165.36    3.36
   3   5  -1  166.85    3.74
   3   5  -1  163.77    5.23
   3   5  -1  171.74    3.47
   3   5   0  119.00    3.31
   3   5   0  129.42    3.31
  -3  -5   0  119.27    4.83
   3   5   0  133.04    3.35
   3   5   0  128.04    4.14
   3   5   0  123.12    4.59
   3   5   0  128.31    3.24
  -3  -5  -1  180.82    6.07
   3   5   1  195.59    4.12
   3   5   1  189.47    5.00
   3   5   1  181.63    3.98
   3   5   1  188.58    4.08
  -3  -5  -2  824.57   13.03
   3   5   2  850.84   10.44
   3   5   2  819.64    8.63
   3   5   2  859.84    8.84
   3   5   3   15.47    1.25
  -3  -5  -3   10.31    1.58
   3   5   3   14.11    1.37
   3   5   3   13.57    1.27
   3   5   4   92.78    2.98
   3   5   4  103.55    2.92
   3   5   4   97.09    3.16
   3   5   5  104.67    3.20
   3   5   5  105.22    3.16
   3   5   5  104.95    3.27
   3   5   6  159.57    3.77
   3   5   6  155.13    3.87
   3   5   7  301.66    4.90
   3   5   7  298.31    4.99
   3   5   8    6.48    0.69
  -3  -6  14    3.44    0.50
   3   6 -14    3.28    0.34
  -3  -6  13   22.28    1.08
  -3  -6  13   21.94    1.42
   3   6 -13   22.88    1.14
   3   6 -13   23.52    1.15
  -3  -6  12   13.34    1.02
   3   6 -12   13.29    1.06
  -3  -6  12   11.66    1.26
   3   6 -12   12.76    1.01
  -3  -6  11  151.26    3.33
  -3  -6  11  148.06    4.35
   3   6 -11  151.80    3.73
   3   6 -11  159.66    3.80
   3   6 -10  106.67    3.32
  -3  -6  10  108.90    3.83
   3   6 -10  109.04    3.33
   3   6  -9   96.02    3.26
   3   6  -9   99.06    3.26
  -3  -6   9   96.30    3.63
   3   6  -8   70.00    2.77
  -3  -6   8   69.24    3.00
   3   6  -8   69.43    2.77
  -3  -6   7  396.06    6.74
   3   6  -7  403.15    6.55
   3   6  -7  391.91    6.46
  -3  -6   6  225.20    4.87
   3   6  -6  226.46    4.86
   3   6  -6  219.50    4.79
   3   6  -5  133.14    3.28
   3   6  -5  126.77    3.10
   3   6  -5  133.13    3.68
  -3  -6   5  139.17    3.37
   3   6  -5  134.17    3.67
   3   6  -4  367.58    5.73
  -3  -6   4  385.66    8.67
   3   6  -4  361.28    5.56
   3   6  -4  378.47    6.07
   3   6  -4  370.84    5.98
   3   6  -4  379.36    6.81
   3   6  -3   30.59    1.75
  -3  -6   3   32.96    2.61
   3   6  -3   28.51    1.66
   3   6  -3   31.11    1.74
   3   6  -3   30.75    1.74
   3   6  -3   35.39    1.53
   3   6  -3   34.73    2.20
   3   6  -2   10.84    1.10
  -3  -6   2   10.92    1.62
   3   6  -2    8.72    1.02
   3   6  -2   13.78    1.40
   3   6  -2   11.26    1.09
   3   6  -2   12.47    1.06
   3   6  -2   11.12    1.08
   3   6  -1  379.75    6.24
  -3  -6   1  404.14    9.03
   3   6  -1  389.07    6.01
   3   6  -1  392.71    7.25
   3   6  -1  404.64    6.02
  -3  -6   0  329.50    8.05
   3   6   0  313.41    5.37
   3   6   0  315.11    5.48
   3   6   1   15.14    1.25
   3   6   1   15.05    1.34
   3   6   2    0.89    0.59
   3   6   2    0.05    0.43
   3   6   3  120.30    3.30
   3   6   3  114.30    3.60
   3   6   4   87.95    2.77
   3   6   4   89.14    3.13
   3   6   5    8.30    1.00
   3   6   5    7.57    0.81
  -3  -6  -5    8.09    0.90
   3   6   6    1.70    0.53
   3   6   7    2.40    0.51
   3   6   8   45.84    1.40
  -3  -7  13    4.58    0.56
   3   7 -13    4.66    0.40
   3   7 -13    5.36    0.49
  -3  -7  13    4.30    0.56
   3   7 -12  275.14    3.83
  -3  -7  12  284.32    4.67
   3   7 -11    3.24    0.58
  -3  -7  11    4.16    0.79
   3   7 -11    3.38    0.62
   3   7 -10    4.68    0.76
   3   7 -10    4.17    0.70
  -3  -7  10    4.00    0.84
   3   7  -9  363.31    5.99
   3   7  -9  370.33    6.01
  -3  -7   9  368.49    6.42
  -3  -7   8   11.07    1.22
   3   7  -8   10.40    1.18
   3   7  -8   10.30    1.13
   3   7  -7  311.68    4.76
   3   7  -7  304.77    5.78
  -3  -7   7  312.10    5.68
   3   7  -7  313.02    5.78
   3   7  -6  110.04    3.10
  -3  -7   6  109.38    3.22
   3   7  -6  105.28    3.46
   3   7  -6  104.90    3.36
   3   7  -5  149.29    3.71
  -3  -7   5  149.05    4.04
   3   7  -5  147.17    4.06
   3   7  -5  142.98    3.88
   3   7  -4  956.10    9.68
  -3  -7   4  956.38    9.76
   3   7  -4  954.24   10.24
   3   7  -4  957.48    9.85
   3   7  -3   20.22    1.56
   3   7  -3   17.58    1.38
   3   7  -3   19.17    1.26
   3   7  -2    3.43    0.66
   3   7  -2    2.95    0.80
   3   7  -2    3.46    0.69
   3   7  -1  219.51    5.02
   3   7  -1  205.60    4.40
   3   7  -1  215.78    4.52
   3   7   0  100.40    3.05
   3   7   0  107.28    3.31
   3   7   1   17.56    1.29
   3   7   1   16.94    1.39
   3   7   2   15.17    1.15
   3   7   2   14.20    1.33
   3   7   3  141.46    3.16
   3   7   3  148.60    3.95
   3   7   4    5.30    0.93
  -3  -7  -4    5.35    0.89
  -3  -7  -5  357.82    5.10
   3   7   5  341.63    5.41
   3   7   6   69.41    2.20
   3   7   7   93.90    2.10
  -3  -8  12  124.57    2.29
   3   8 -12  128.43    2.06
  -3  -8  11    3.46    0.56
   3   8 -11    4.70    0.55
  -3  -8  11    3.20    0.52
  -3  -8  10  112.45    2.97
  -3  -8  10  117.57    2.86
   3   8 -10  110.96    2.63
   3   8 -10  111.72    2.68
  -3  -8   9   16.76    1.30
   3   8  -9   16.38    1.16
   3   8  -9   15.65    1.15
  -3  -8   9   17.84    1.21
  -3  -8   8   12.18    1.16
   3   8  -8   12.33    1.13
  -3  -8   8   12.20    1.03
   3   8  -8   11.82    1.07
  -3  -8   7   39.06    2.03
  -3  -8   7   42.99    1.77
   3   8  -7   39.50    1.89
   3   8  -6   49.65    2.00
  -3  -8   6   48.13    2.20
   3   8  -6   47.61    2.12
   3   8  -5    3.40    0.74
  -3  -8   5    2.72    0.65
   3   8  -5    2.15    0.60
   3   8  -4    8.35    1.01
  -3  -8   4    8.33    0.91
   3   8  -4    8.35    0.94
   3   8  -3   22.17    1.61
   3   8  -3   23.48    1.46
   3   8  -2   49.77    2.02
   3   8  -2   56.49    2.11
   3   8  -1    2.15    0.59
   3   8  -1    2.43    0.57
   3   8   0   37.21    1.62
   3   8   0   38.27    1.89
   3   8   1    2.55    0.66
  -3  -8  -2   15.30    1.35
   3   8   2   15.00    1.22
  -3  -8  -3   56.34    2.24
   3   8   3   61.80    2.28
  -3  -8  -4   48.45    1.82
   3   8   4   49.51    1.89
  -3  -8  -5   14.92    0.82
   3   8   5   14.50    0.93
   3   8   6   15.65    0.78
  -3  -9   9    5.46    0.57
   3   9  -9    5.33    0.51
  -3  -9   8   20.41    1.14
   3   9  -8   19.10    0.99
  -3  -9   7    0.68    0.35
   3   9  -7    1.31    0.39
  -3  -9   6  134.60    2.93
   3   9  -6  128.66    2.71
  -3  -9   5    5.70    0.63
   3   9  -5    6.66    0.67
  -3  -9   4   41.36    1.47
   3   9  -4   40.92    1.53
   3   9  -3  135.43    2.63
  -3  -9   0  149.17    3.65
   3   9   0  163.31    3.12
  -3  -9  -1    6.82    0.84
   3   9   1    8.01    0.75
  -3  -9  -2   14.34    1.02
   3   9   2   13.96    0.91
  -3  -9  -3  102.51    2.24
   3   9   3  107.65    2.23
   3   9   4    3.10    0.36
  -3 -10   3    7.24    0.58
  -3 -10   2   58.35    1.69
  -3 -10   1   10.72    0.72
  -3 -10   0   55.33    1.46
  -4   9   5  162.74    2.60
  -4   9   4  307.63    3.95
   4  -9  -4  299.85    3.06
  -4   9   3    5.03    0.64
  -4   9   3    5.72    0.72
   4  -9  -3    5.05    0.53
   4  -9  -3    5.11    0.58
  -4   9   2  498.13    5.75
   4  -9  -2  487.66    5.52
   4  -9  -2  497.50    5.20
  -4   9   1  235.38    4.12
   4  -9  -1  239.91    3.87
   4  -9  -1  237.64    4.00
  -4   9   0    0.09    0.43
  -4   9   0    0.38    0.41
   4  -9   0    0.45    0.35
   4  -9   0   -0.01    0.38
  -4   9  -1   38.07    1.70
   4  -9   1   39.75    1.68
  -4   9  -1   39.35    1.71
   4  -9   1   38.11    1.68
  -4   9  -2   39.79    1.70
  -4   9  -2   43.05    1.72
   4  -9   2   42.66    1.75
  -4   9  -3   34.07    1.53
   4  -9   3   34.74    1.55
  -4   9  -4    5.71    0.66
   4  -9   4    6.18    0.67
  -4   9  -5   91.43    2.13
   4  -9   5   92.50    2.34
   4  -9   5   95.20    2.23
  -4   9  -6    9.47    0.60
   4  -9   6   10.92    0.75
   4  -9   6   11.01    0.71
   4  -9   7   21.07    0.88
  -4   8   7    6.24    0.58
   4  -8  -7    6.19    0.56
   4  -8  -7    6.24    0.52
  -4   8   7    6.23    0.60
  -4   8   6    2.08    0.53
   4  -8  -6    1.38    0.36
   4  -8  -6    2.21    0.35
  -4   8   6    2.09    0.47
  -4   8   5   85.55    2.62
   4  -8  -5   81.07    2.19
   4  -8  -5   77.67    2.09
  -4   8   5   86.45    2.71
  -4   8   4  101.78    3.02
   4  -8  -4  104.31    2.45
   4  -8  -4  104.03    2.74
   4  -8  -4  106.39    2.98
  -4   8   4  105.19    3.26
  -4   8   3   28.98    1.71
   4  -8  -3   28.85    1.57
   4  -8  -3   31.50    1.74
  -4   8   3   31.35    1.92
  -4   8   2  182.43    4.30
   4  -8  -2  178.19    4.01
   4  -8  -2  183.73    4.21
  -4   8   2  187.96    4.65
  -4   8   1   17.55    1.41
   4  -8  -1   15.61    1.27
   4  -8  -1   16.89    1.35
  -4   8   1   20.69    1.61
  -4   8   0   11.59    1.17
   4  -8   0   10.77    1.15
  -4   8   0   10.20    1.27
  -4   8  -1   20.37    1.46
   4  -8   1   21.81    1.54
  -4   8  -1   21.58    1.73
  -4   8  -2   34.93    1.85
   4  -8   2   34.72    1.97
   4  -8   2   35.05    1.90
  -4   8  -2   36.11    2.07
  -4   8  -3    1.45    0.67
  -4   8  -3    0.56    0.40
   4  -8   3    1.32    0.58
   4  -8   3    1.86    0.57
  -4   8  -4   93.61    2.82
   4  -8   4   95.53    3.07
   4  -8   4   96.55    2.95
  -4   8  -4   96.53    3.00
  -4   8  -5   58.75    2.16
   4  -8   5   60.65    2.36
   4  -8   5   58.09    2.18
  -4   8  -6   48.31    1.81
  -4   8  -6   49.23    1.52
   4  -8   6   49.98    1.48
   4  -8   6   50.61    2.05
   4  -8   6   49.10    1.85
  -4   8  -7    3.23    0.44
  -4   8  -7    4.54    0.52
   4  -8   7    4.87    0.63
   4  -8   7    4.42    0.47
   4  -8   7    4.64    0.55
  -4   8  -8   25.08    0.89
  -4   8  -8   26.35    1.00
   4  -8   8   26.64    0.96
   4  -8   8   27.36    1.23
   4  -8   9    6.01    0.48
  -4   7   9  218.75    3.14
   4  -7  -9  218.34    3.02
   4  -7  -9  220.54    3.12
  -4   7   8    2.91    0.56
   4  -7  -8    2.51    0.47
   4  -7  -8    2.61    0.39
   4  -7  -8    2.32    0.48
  -4   7   8    2.16    0.49
  -4   7   7   53.33    2.15
   4  -7  -7   53.23    1.81
   4  -7  -7   54.40    2.03
   4  -7  -7   54.53    1.96
  -4   7   7   56.19    2.16
  -4   7   6   98.55    3.12
   4  -7  -6   93.31    2.69
   4  -7  -6   98.25    2.72
  -4   7   6   95.02    3.12
  -4   7   5    0.81    0.59
   4  -7  -5    0.50    0.40
   4  -7  -5    0.58    0.45
   4  -7  -5    0.52    0.52
  -4   7   5    0.12    0.56
  -4   7   4   66.58    2.79
   4  -7  -4   61.27    2.15
   4  -7  -4   62.71    2.50
   4  -7  -4   65.47    2.24
   4  -7  -4   63.46    2.65
  -4   7   4   63.87    2.91
   4  -7  -3  176.62    3.50
  -4   7   3  168.72    4.44
   4  -7  -3  169.03    3.54
   4  -7  -3  166.39    4.20
   4  -7  -3  169.22    4.38
  -4   7   3  174.76    4.92
  -4   7   2    0.97    0.60
   4  -7  -2    1.44    0.38
   4  -7  -2    1.57    0.61
   4  -7  -2    1.09    0.61
  -4   7   1   41.18    2.20
   4  -7  -1   41.60    2.23
  -4   7   1   43.20    2.54
  -4   7   0   50.66    2.44
   4  -7   0   49.07    2.49
   4  -7   0   54.17    2.51
  -4   7   0   52.75    2.82
  -4   7  -1   35.17    1.98
   4  -7   1   36.56    2.13
   4  -7   1   38.35    2.13
  -4   7  -2   46.25    2.22
   4  -7   2   43.29    2.31
   4  -7   2   42.40    2.21
  -4   7  -3   40.97    2.09
   4  -7   3   40.43    1.70
   4  -7   3   39.12    2.18
   4  -7   3   39.80    2.11
  -4   7  -4  180.09    4.18
   4  -7   4  184.30    3.75
   4  -7   4  178.29    4.53
  -4   7  -5   25.20    1.56
  -4   7  -5   23.11    1.33
   4  -7   5   24.71    1.46
   4  -7   5   21.73    1.59
  -4   7  -6   11.38    1.02
  -4   7  -6   12.57    1.06
   4  -7   6   12.63    1.07
   4  -7   6   11.78    1.21
  -4   7  -7   33.44    1.55
  -4   7  -7   36.19    1.72
   4  -7   7   35.38    1.67
   4  -7   7   34.29    1.81
  -4   7  -8   20.48    1.06
  -4   7  -8   20.22    1.25
   4  -7   8   21.88    1.27
   4  -7   8   20.86    1.31
  -4   7  -9    1.09    0.34
   4  -7   9    1.63    0.37
   4  -7   9    1.14    0.36
  -4   7 -10   37.38    1.32
   4  -7  10   37.38    1.29
   4  -6 -11   47.36    1.25
  -4   6  10   28.94    1.31
   4  -6 -10   28.41    1.18
   4  -6 -10   28.75    1.27
   4  -6 -10   28.39    1.24
  -4   6   9    6.13    0.82
   4  -6  -9    6.31    0.64
   4  -6  -9    6.41    0.73
  -4   6   9    6.61    0.77
   4  -6  -9    6.79    0.75
   4  -6  -9    5.67    0.73
  -4   6   9    6.80    0.66
  -4   6   8   12.55    1.18
   4  -6  -8   11.54    0.96
   4  -6  -8   11.33    1.10
  -4   6   8   11.99    1.14
   4  -6  -8   12.19    1.13
  -4   6   8   10.21    0.99
  -4   6   7   21.86    1.59
   4  -6  -7   24.67    1.54
   4  -6  -7   24.54    1.58
  -4   6   7   23.86    1.59
  -4   6   6   16.53    1.47
   4  -6  -6   14.57    1.27
   4  -6  -6   14.96    1.29
  -4   6   6   16.30    1.45
  -4   6   5   68.96    2.91
   4  -6  -5   70.41    2.46
   4  -6  -5   71.64    2.78
   4  -6  -5   74.15    2.63
   4  -6  -5   72.65    2.92
  -4   6   5   71.28    3.06
  -4   6   4    8.14    1.25
  -4   6   4    9.11    1.14
   4  -6  -4    9.57    0.96
   4  -6  -4   11.25    1.22
   4  -6  -4    9.64    0.99
   4  -6  -4    9.94    1.19
  -4   6   3    5.71    1.06
  -4   6   3    5.34    0.93
   4  -6  -3    5.62    0.72
   4  -6  -3    6.26    0.94
   4  -6  -3    7.65    0.87
   4  -6  -3    8.03    1.03
  -4   6   2   26.08    1.77
   4  -6  -2   26.66    1.77
  -4   6   2   27.83    2.15
  -4   6   1   54.06    2.48
   4  -6  -1   51.84    2.43
  -4   6   0  304.84    5.66
   4  -6   0  300.40    5.86
   4  -6   0  292.45    5.63
  -4   6  -1    2.99    0.72
   4  -6   1    2.72    0.78
   4  -6   1    2.93    0.51
   4  -6   1    3.35    0.76
  -4   6  -2  179.21    4.20
   4  -6   2  176.71    3.79
   4  -6   2  173.37    4.47
   4  -6   2  175.23    4.25
  -4   6  -3  755.41    8.50
   4  -6   3  750.05    8.16
   4  -6   3  740.13    9.18
  -4   6  -4  177.02    4.05
   4  -6   4  171.06    4.01
   4  -6   4  171.36    4.41
  -4   6  -5  191.37    4.14
  -4   6  -5  184.92    4.18
   4  -6   5  187.22    4.29
   4  -6   5  183.70    4.55
  -4   6  -6  203.73    4.47
   4  -6   6  207.06    4.61
   4  -6   6  204.91    4.70
  -4   6  -7   72.66    2.74
   4  -6   7   73.88    2.74
   4  -6   7   70.32    2.66
  -4   6  -8  150.91    3.85
   4  -6   8  148.65    3.75
   4  -6   8  146.44    3.64
  -4   6  -9  114.47    3.21
   4  -6   9  116.71    3.10
   4  -6   9  111.30    2.89
  -4   6 -10    9.48    0.91
   4  -6  10    9.58    0.84
  -4   6 -11    0.25    0.29
   4  -6  11    0.11    0.23
   4  -5 -12    0.35    0.22
  -4   5  11  128.49    2.75
  -4   5  11  139.63    3.05
   4  -5 -11  136.13    2.52
   4  -5 -11  129.74    2.78
   4  -5 -11  139.91    2.76
  -4   5  10    3.59    0.65
   4  -5 -10    3.69    0.57
   4  -5 -10    3.24    0.59
  -4   5  10    3.01    0.71
   4  -5 -10    3.20    0.60
  -4   5   9   26.14    1.66
   4  -5  -9   27.68    1.54
   4  -5  -9   28.65    1.63
   4  -5  -9   28.51    1.69
  -4   5   9   28.53    1.86
   4  -5  -9   28.55    1.67
  -4   5   8   44.08    2.21
   4  -5  -8   45.49    2.21
   4  -5  -8   47.74    2.18
  -4   5   8   49.03    2.16
  -4   5   7    2.87    0.71
   4  -5  -7    2.32    0.65
   4  -5  -7    3.33    0.72
  -4   5   7    2.45    0.68
  -4   5   6    1.04    0.58
  -4   5   6    0.13    0.47
   4  -5  -6    1.27    0.55
   4  -5  -6    0.20    0.48
   4  -5  -6    0.31    0.55
  -4   5   5   81.16    3.08
   4  -5  -5   82.93    2.69
   4  -5  -5   83.02    3.07
   4  -5  -5   82.05    3.04
   4  -5  -5   82.21    2.83
  -4   5   5   80.93    3.22
  -4   5   4    5.31    1.00
  -4   5   4    5.07    0.85
   4  -5  -4    5.03    0.73
   4  -5  -4    5.35    0.91
   4  -5  -4    5.26    0.79
   4  -5  -4    5.25    0.87
  -4   5   3   81.33    2.81
   4  -5  -3   81.51    2.30
  -4   5   3   85.42    3.46
  -4   5   3   81.40    3.46
   4  -5  -3   82.50    2.95
   4  -5  -3   81.53    2.50
   4  -5  -3   82.10    2.93
  -4   5   2  122.25    3.27
  -4   5   2  123.88    3.96
  -4   5   2  131.51    4.70
   4  -5  -2  127.50    4.56
   4  -5  -2  124.61    3.51
  -4   5   1  115.82    3.06
  -4   5   1  125.06    4.71
   4  -5  -1  119.14    3.45
   4  -5  -1  116.54    4.52
   4  -5  -1  118.64    3.37
   4  -5   0  499.79    6.50
  -4   5   0  516.44    9.76
   4  -5   0  491.56    5.81
   4  -5   0  498.04    7.01
   4  -5   0  503.64    6.87
   4  -5   1  119.43    3.11
   4  -5   1  113.16    3.03
   4  -5   1  116.51    3.42
   4  -5   1  113.02    4.61
   4  -5   1  115.75    3.27
   4  -5   2 1421.47   10.44
   4  -5   2 1394.84   11.03
   4  -5   2 1402.17   11.87
   4  -5   3  170.71    3.57
   4  -5   3  169.52    3.99
   4  -5   3  169.53    4.16
  -4   5  -4  198.19    4.11
   4  -5   4  196.22    3.78
   4  -5   4  194.79    4.42
   4  -5   4  192.03    4.45
  -4   5  -5  830.44    9.16
   4  -5   5  825.31    9.23
   4  -5   5  819.07    9.36
  -4   5  -6   46.54    2.33
   4  -5   6   50.19    2.29
   4  -5   6   51.61    2.43
  -4   5  -7   19.58    1.65
   4  -5   7   20.25    1.48
   4  -5   7   23.06    1.65
  -4   5  -8   37.27    2.19
   4  -5   8   41.12    1.98
   4  -5   8   40.84    2.15
  -4   5  -9  102.75    3.38
   4  -5   9  106.62    2.95
   4  -5   9  109.49    3.27
  -4   5 -10    0.46    0.47
   4  -5  10    0.39    0.39
  -4   5 -11    8.50    0.88
   4  -5  11    7.90    0.71
  -4   5 -12   53.61    1.61
   4  -5  12   54.37    1.35
   4  -4 -13   99.96    1.86
  -4   4  13  103.25    2.08
  -4   4  12    0.21    0.29
   4  -4 -12    1.43    0.30
  -4   4  12    1.10    0.53
   4  -4 -12    0.69    0.34
  -4   4  11  139.89    3.30
   4  -4 -11  148.20    3.01
   4  -4 -11  146.28    3.44
  -4   4  11  152.17    3.97
   4  -4 -11  146.25    3.28
  -4   4  10    8.78    0.99
   4  -4 -10    9.29    0.97
   4  -4 -10   10.62    0.99
   4  -4 -10    9.54    1.03
  -4   4  10    9.31    1.24
   4  -4 -10    8.50    1.02
  -4   4   9  100.27    3.28
  -4   4   9  105.97    3.88
   4  -4  -9  104.16    3.23
   4  -4  -9  106.88    3.18
   4  -4  -9  106.53    3.36
   4  -4  -9  103.31    3.32
  -4   4   8    0.96    0.60
   4  -4  -8    1.50    0.66
   4  -4  -8    1.00    0.58
   4  -4  -8    0.95    0.62
  -4   4   7    0.39    0.45
   4  -4  -7    0.22    0.54
   4  -4  -7    0.32    0.50
  -4   4   7    0.21    0.48
  -4   4   6   56.21    2.39
   4  -4  -6   56.50    2.50
   4  -4  -6   55.47    2.41
   4  -4  -6   58.22    2.54
  -4   4   6   56.37    2.50
  -4   4   5    3.15    0.76
  -4   4   5    1.54    0.41
  -4   4   5    0.91    0.79
  -4   4   5    3.31    0.74
   4  -4  -5    1.81    0.55
   4  -4  -5    2.23    0.59
   4  -4  -5    1.92    0.59
   4  -4  -4    6.15    0.65
  -4   4   4    8.12    1.36
  -4   4   4    6.99    1.03
   4  -4  -4    6.11    0.84
   4  -4  -4    6.52    0.84
   4  -4  -4    6.35    0.87
  -4   4   3   40.73    2.52
  -4   4   3   44.90    2.95
   4  -4  -3   40.90    1.94
   4  -4  -3   36.45    2.34
   4  -4  -3   40.57    1.68
   4  -4  -3   42.94    1.95
  -4   4   2   37.85    2.35
  -4   4   2   42.12    2.93
   4  -4  -2   39.65    1.52
   4  -4  -2   38.79    2.47
   4  -4  -2   41.98    1.82
   4  -4  -1  126.75    3.27
  -4   4   1  130.05    3.90
  -4   4   1  130.27    5.07
   4  -4  -1  127.56    2.61
   4  -4  -1  126.92    2.87
   4  -4  -1  133.74    3.12
   4  -4  -1  119.12    4.44
   4  -4  -1  129.15    3.03
   4  -4   0    1.63    0.54
  -4   4   0    2.84    1.00
   4  -4   0    2.47    0.48
   4  -4   0    2.39    0.48
   4  -4   0    2.30    0.47
   4  -4   1   77.91    2.52
   4  -4   1   77.83    3.81
  -4   4  -1   80.67    4.03
   4  -4   1   75.91    2.45
   4  -4   1   79.93    2.37
   4  -4   1   80.83    2.25
   4  -4   2  526.91    6.45
  -4   4  -2  539.62   10.26
   4  -4   2  526.56    6.69
   4  -4   2  539.59    6.20
   4  -4   2  532.37    9.95
   4  -4   3    1.09    0.56
   4  -4   3    0.04    0.52
  -4   4  -3    1.20    0.82
   4  -4   3    1.75    0.43
   4  -4   3    1.27    0.43
   4  -4   4  120.51    3.20
  -4   4  -4  127.50    4.91
   4  -4   4  121.24    3.11
   4  -4   4  121.32    3.43
   4  -4   4  123.27    4.79
   4  -4   5    7.03    0.86
   4  -4   5    6.64    0.80
   4  -4   5    6.91    0.98
   4  -4   6  237.30    4.57
   4  -4   6  243.24    4.65
   4  -4   6  238.19    5.08
   4  -4   7  306.97    5.09
   4  -4   7  305.08    5.23
   4  -4   7  306.42    5.80
   4  -4   8    1.99    0.55
   4  -4   8    1.88    0.51
   4  -4   8    1.47    0.68
   4  -4   9   33.01    1.84
  -4   4 -10    5.49    1.01
   4  -4  10    7.05    0.86
  -4   4 -11    1.01    0.54
   4  -4  11    1.37    0.39
  -4   4 -12   12.77    0.91
   4  -3 -13  177.56    3.09
  -4   3  13  180.92    3.55
  -4   3  12   20.72    1.21
   4  -3 -12   25.57    1.07
   4  -3 -12   22.60    1.35
  -4   3  12   23.10    1.60
  -4   3  11  368.72    5.63
   4  -3 -11  375.59    5.07
  -4   3  11  378.56    6.90
   4  -3 -11  377.48    5.99
   4  -3 -11  365.16    5.61
  -4   3  10   24.53    1.60
   4  -3 -10   28.53    1.73
   4  -3 -10   27.36    1.58
   4  -3 -10   27.35    1.75
  -4   3  10   25.08    2.02
   4  -3 -10   27.47    1.73
  -4   3   9   37.06    2.01
  -4   3   9   36.14    2.41
   4  -3  -9   39.24    2.07
   4  -3  -9   40.08    2.00
   4  -3  -9   39.19    2.08
   4  -3  -9   37.01    2.03
  -4   3   8  106.93    3.23
   4  -3  -8  102.60    3.35
   4  -3  -8  105.50    3.28
   4  -3  -8  104.52    3.33
   4  -3  -7  180.72    4.37
   4  -3  -7  181.47    4.21
   4  -3  -7  179.30    4.26
  -4   3   6   42.74    2.82
   4  -3  -6   42.08    2.04
   4  -3  -6   42.12    2.02
  -4   3   5  180.23    5.66
  -4   3   5  175.47    5.83
   4  -3  -5  179.08    4.02
   4  -3  -5  177.27    3.06
   4  -3  -5  185.17    3.96
   4  -3  -5  185.90    3.95
  -4   3   5  179.31    3.73
  -4   3   4   83.91    3.76
  -4   3   4   86.21    4.09
   4  -3  -4   85.99    2.70
   4  -3  -4   88.87    2.22
   4  -3  -4   90.45    2.53
   4  -3  -4   87.16    2.50
   4  -3  -3    6.30    0.88
  -4   3   3    5.83    1.11
   4  -3  -3    3.64    0.55
   4  -3  -3    5.44    0.69
   4  -3  -3    5.35    0.61
   4  -3  -3    5.48    0.59
   4  -3  -3    5.60    0.63
   4  -3  -2    5.31    0.74
   4  -3  -2    4.54    0.78
  -4   3   2    4.51    0.81
  -4   3   2    4.97    1.14
   4  -3  -2    4.93    0.58
   4  -3  -2    5.20    0.61
   4  -3  -2    4.76    0.60
   4  -3  -1   54.23    2.00
  -4   3   1   52.35    2.43
  -4   3   1   52.41    3.17
   4  -3  -1   51.04    2.70
   4  -3   0    5.73    0.68
   4  -3   0    5.67    1.06
  -4   3   0    5.94    1.22
   4  -3   0    4.60    0.60
   4  -3   1   50.02    1.93
  -4   3  -1   50.20    3.18
   4  -3   1   50.99    1.92
   4  -3   1   52.79    2.08
   4  -3   1   49.80    2.84
   4  -3   2    8.06    0.86
   4  -3   2   10.01    1.37
   4  -3   2   10.39    0.97
   4  -3   2   10.24    0.95
   4  -3   3  301.89    4.96
  -4   3  -3  302.44    7.51
   4  -3   3  307.71    5.08
   4  -3   3  307.23    4.88
   4  -3   4  459.04    6.34
  -4   3  -4  471.25    9.18
   4  -3   4  468.37    6.49
   4  -3   4  469.18    6.00
   4  -3   4  449.25    8.99
   4  -3   5    0.37    0.44
   4  -3   5   -0.24    0.69
  -4   3  -5    0.41    0.59
   4  -3   5    1.77    0.57
   4  -3   6  274.78    5.15
  -4   3  -6  280.21    6.25
   4  -3   6  287.77    5.44
   4  -3   7  227.10    4.69
   4  -3   7  228.79    4.87
   4  -3   8  181.34    4.13
   4  -3   8  182.01    4.30
   4  -3   9   86.65    2.77
   4  -3   9   89.14    2.89
   4  -3  10    9.61    0.89
   4  -3  10    9.90    0.94
   4  -3  11  135.52    2.68
  -4   3 -12   59.41    2.07
  -4   3 -13    0.30    0.23
   4  -2 -14   30.10    1.17
   4  -2 -14   32.51    1.20
  -4   2  14   31.91    1.37
  -4   2  13    0.48    0.44
   4  -2 -13    0.77    0.36
   4  -2 -13    0.60    0.34
  -4   2  13    0.15    0.54
  -4   2  12   15.70    1.08
  -4   2  12   14.15    1.28
   4  -2 -12   15.99    1.24
  -4   2  12   15.52    1.47
  -4   2  11   77.94    2.57
  -4   2  11   75.16    3.26
   4  -2 -11   78.48    2.37
   4  -2 -11   79.40    2.86
   4  -2 -10   36.68    1.81
   4  -2 -10   37.99    2.06
  -4   2  10   37.92    2.47
   4  -2 -10   35.68    1.96
  -4   2   9    4.31    1.01
   4  -2  -9    4.48    0.76
   4  -2  -9    3.12    0.74
   4  -2  -9    5.10    0.88
   4  -2  -9    4.79    0.83
   4  -2  -8  364.06    6.23
   4  -2  -8  371.42    5.88
   4  -2  -8  371.81    6.02
   4  -2  -8  364.80    6.10
  -4   2   7  634.70   10.80
   4  -2  -7  623.91    7.72
   4  -2  -7  608.63    7.38
   4  -2  -7  620.67    6.18
   4  -2  -7  609.33    7.50
  -4   2   6   48.33    3.00
   4  -2  -6   51.94    2.16
   4  -2  -6   51.12    2.13
   4  -2  -6   48.94    1.75
   4  -2  -6   51.36    2.09
  -4   2   5  439.54    8.57
   4  -2  -5  443.60    5.89
   4  -2  -5  436.79    5.90
   4  -2  -5  429.47    5.09
   4  -2  -5  443.52    5.79
  -4   2   4  280.62    6.60
   4  -2  -4  291.40    4.45
   4  -2  -4  293.25    4.40
   4  -2  -4  277.22    4.03
   4  -2  -4  281.94    4.19
  -4   2   3    3.74    0.88
  -4   2   2    4.41    0.85
  -4   2   2    4.23    0.91
  -4   2   1  220.15    4.76
  -4   2   1  221.03    6.38
   4  -2  -1  212.81    4.78
  -4   2   0  393.28    8.47
   4  -2   0  346.08    6.47
  -4   2  -1   31.63    2.42
   4  -2   1   32.45    2.10
   4  -2   2    6.21    1.00
  -4   2  -2    7.34    1.25
   4  -2   3    0.50    0.40
   4  -2   3    2.45    0.51
   4  -2   3    3.31    0.85
  -4   2  -3    2.26    0.98
   4  -2   3    2.34    0.51
   4  -2   4  107.92    4.21
   4  -2   4  113.53    3.18
   4  -2   4  113.27    2.87
  -4   2  -4  108.82    4.21
   4  -2   4  114.57    3.06
   4  -2   5  123.83    4.62
   4  -2   5  131.80    3.53
  -4   2  -5  135.24    4.42
   4  -2   5  141.57    3.55
   4  -2   5  132.34    3.02
   4  -2   6   18.47    1.77
   4  -2   6   21.30    1.50
   4  -2   6   19.75    1.41
   4  -2   7  290.45    5.49
   4  -2   7  306.84    5.35
   4  -2   8   10.52    1.15
   4  -2   8   10.09    1.04
   4  -2   9  151.17    3.93
   4  -2   9  156.24    3.60
   4  -2  10   85.89    2.80
   4  -2  11   29.79    1.47
   4  -2  12   81.41    1.97
  -4   2 -13    1.63    0.35
  -4   1  14   71.79    2.11
   4  -1 -14   71.58    1.98
   4  -1 -14   73.62    1.99
  -4   1  14   69.06    2.15
  -4   1  13  155.90    3.81
  -4   1  13  145.58    3.76
   4  -1 -13  152.80    3.46
   4  -1 -13  151.86    3.36
  -4   1  12    7.67    1.19
   4  -1 -12    8.16    0.96
  -4   1  12    7.41    1.11
   4  -1 -11   11.52    0.93
   4  -1 -11   11.86    1.20
  -4   1  11    9.82    1.28
  -4   1  10  314.18    6.60
   4  -1 -10  316.85    5.10
   4  -1 -10  304.65    5.69
  -4   1   9  405.79    7.39
   4  -1  -9  419.25    6.69
   4  -1  -9  425.92    6.06
   4  -1  -9  426.12    6.51
   4  -1  -9  412.72    6.54
   4  -1  -8  127.41    3.49
  -4   1   8  129.00    4.92
   4  -1  -8  126.29    3.55
   4  -1  -8  124.71    3.30
   4  -1  -8  129.19    3.45
   4  -1  -7  880.13   10.09
  -4   1   7  885.87   12.79
   4  -1  -7  857.84    8.77
   4  -1  -7  836.14    8.32
   4  -1  -7  851.16    7.92
   4  -1  -7  836.76    8.16
   4  -1  -7  858.89    8.66
   4  -1  -6  313.30    6.01
  -4   1   6  311.18    7.33
   4  -1  -6  306.81    4.94
   4  -1  -6  299.62    4.85
   4  -1  -6  303.97    4.59
   4  -1  -6  303.81    4.31
   4  -1  -6  307.58    4.94
   4  -1  -5  284.84    5.69
  -4   1   5  274.71    6.66
   4  -1  -5  282.11    4.28
   4  -1  -5  280.54    4.44
   4  -1  -5  283.21    4.25
   4  -1  -5  290.99    4.52
   4  -1  -4   72.81    2.82
  -4   1   4   70.14    3.26
   4  -1  -3  177.82    4.36
  -4   1   3  177.09    4.83
   4  -1  -2  114.05    3.52
  -4   1   2  116.21    3.68
  -4   1   1   74.19    2.67
   4  -1  -1   66.42    2.67
  -4   1   0  281.20    7.00
   4  -1   0  295.18    5.19
  -4   1  -1   20.03    1.86
   4  -1   1   23.86    1.67
   4  -1   1   19.99    1.50
   4  -1   2    3.62    0.79
  -4   1  -2    2.22    0.80
   4  -1   3    2.16    0.49
   4  -1   3    1.46    0.61
  -4   1  -3    2.99    0.79
   4  -1   3    2.34    0.46
   4  -1   4  117.27    4.23
   4  -1   4  119.03    3.21
  -4   1  -4  123.66    4.07
   4  -1   4  124.38    2.94
   4  -1   4  123.30    2.87
   4  -1   4  123.01    2.95
   4  -1   5   86.64    3.71
   4  -1   5   90.62    2.93
   4  -1   5   89.89    2.64
   4  -1   5   87.41    2.76
   4  -1   5   90.45    2.54
   4  -1   6  474.25    8.66
   4  -1   6  464.93    6.88
  -4   1  -6  457.01    9.45
   4  -1   6  464.86    6.10
   4  -1   6  477.76    5.64
   4  -1   7  600.94    8.10
   4  -1   7  625.86    7.07
   4  -1   8   21.07    1.62
   4  -1   8   23.93    1.37
   4  -1   9  234.73    5.07
   4  -1  10  211.75    4.57
   4  -1  11   10.30    1.00
   4  -1  12  274.63    3.93
  -4   1 -13   30.97    1.10
  -4   0  15    0.66    0.26
   4   0 -15    0.94    0.25
   4   0 -15    0.72    0.23
  -4   0  14    0.03    0.46
  -4   0  14    0.00    0.39
   4   0 -14    1.03    0.38
  -4   0  13  128.12    3.74
   4   0 -13  126.45    3.26
   4   0 -13  128.38    3.22
  -4   0  13  127.19    3.45
  -4   0  12   20.26    1.58
  -4   0  12   20.51    1.78
   4   0 -12   21.96    1.50
   4   0 -12   20.51    1.43
   4   0 -11    1.52    0.62
  -4   0  11    1.52    0.79
  -4   0  10  230.35    5.38
   4   0 -10  237.88    4.26
   4   0 -10  233.43    4.94
   4   0  -9  570.47    6.76
   4   0  -9  576.18    7.36
  -4   0   9  569.87    8.25
   4   0  -8  114.60    4.06
  -4   0   8  110.96    4.59
  -4   0   8  102.90    3.35
   4   0  -8  103.85    2.92
   4   0  -8  104.12    3.03
   4   0  -7  701.44   10.26
  -4   0   7  723.48   11.43
   4   0  -7  706.86    7.79
   4   0  -7  692.60    7.39
   4   0  -7  706.04    7.53
   4   0  -7  698.51    7.04
   4   0  -6  189.91    5.29
  -4   0   6  196.02    5.80
   4   0  -6  197.94    3.72
   4   0  -6  199.08    3.76
   4   0  -6  200.66    3.84
   4   0  -6  188.99    3.16
  -4   0   5    1.88    0.63
   4   0  -5    3.71    0.76
   4   0  -5    2.55    0.48
   4   0  -5    2.41    0.51
   4   0  -4   22.19    1.77
  -4   0   4   22.39    1.87
   4   0  -3   98.09    3.57
  -4   0   3  103.82    3.65
   4   0  -2   11.67    1.29
  -4   0   2   11.61    1.17
   4   0  -1   72.93    3.14
  -4   0   1   79.63    2.73
   4   0   0    0.64    0.42
  -4   0   0    0.54    0.62
  -4   0  -1   83.81    3.57
   4   0   1   91.78    3.58
   4   0   2   19.88    1.45
  -4   0  -2   22.34    1.84
  -4   0  -2   18.39    1.54
   4   0   3   25.03    1.81
   4   0   3   24.96    1.38
  -4   0  -3   22.92    1.68
  -4   0  -3   22.75    1.89
   4   0   3   23.75    1.35
   4   0   4    7.26    0.83
   4   0   4    9.58    0.95
  -4   0  -4    6.82    1.22
   4   0   4    6.27    1.01
   4   0   4    7.18    0.64
   4   0   4   10.14    0.97
   4   0   5    4.63    0.72
   4   0   5    5.68    0.83
  -4   0  -5    6.80    1.19
   4   0   5    5.80    1.06
   4   0   5    5.51    0.59
   4   0   5    5.47    0.88
   4   0   6   16.80    1.63
   4   0   6   15.93    1.39
  -4   0  -6   17.72    1.85
   4   0   6   14.11    1.31
   4   0   6   14.41    1.10
   4   0   7    4.01    0.86
   4   0   8   -0.05    0.60
   4   0   9    1.87    0.72
   4   0  10   69.86    2.71
   4   0  11   21.76    1.39
   4   0  12   53.81    1.77
  -4  -1  15  109.55    2.37
   4   1 -15  108.34    2.05
   4   1 -15  113.15    2.12
  -4  -1  14    5.38    0.82
   4   1 -14    4.67    0.60
  -4  -1  14    4.91    0.59
  -4  -1  13   16.88    1.53
   4   1 -13   18.40    1.26
  -4  -1  13   17.71    1.28
  -4  -1  12  174.69    4.96
   4   1 -12  193.21    4.34
   4   1 -12  189.42    4.19
  -4  -1  12  177.44    4.18
   4   1 -11   76.14    2.80
   4   1 -11   74.57    2.72
  -4  -1  11   79.07    2.94
   4   1 -10  207.59    3.73
  -4  -1  10  207.53    4.69
   4   1 -10  206.53    4.57
   4   1 -10  202.31    4.41
  -4  -1   9  153.09    3.84
   4   1  -9  145.72    3.32
   4   1  -9  145.74    3.65
   4   1  -9  144.76    3.56
   4   1  -8   70.18    3.42
  -4  -1   8   66.65    3.58
   4   1  -8   62.18    2.21
   4   1  -8   66.26    2.37
   4   1  -8   65.34    2.26
   4   1  -7  444.68    8.74
  -4  -1   7  478.18    9.33
   4   1  -7  452.58    5.81
   4   1  -7  464.78    6.21
   4   1  -7  438.32    5.40
   4   1  -7  450.03    5.19
   4   1  -6   46.72    2.80
   4   1  -6   46.97    1.82
   4   1  -6   50.60    1.99
   4   1  -5   24.67    2.03
  -4  -1   5   21.19    1.87
   4   1  -5   24.06    1.28
   4   1  -5   25.88    1.38
   4   1  -4  326.34    6.93
  -4  -1   4  319.71    6.83
   4   1  -3  371.30    7.40
  -4  -1   3  381.66    7.07
   4   1  -2  110.59    4.05
  -4  -1   2  117.07    3.70
   4   1  -1  628.70    9.62
  -4  -1   1  613.79    7.65
   4   1   0    2.65    0.76
  -4  -1  -1  210.71    5.17
   4   1   1  215.52    5.84
   4   1   2  157.75    3.36
   4   1   2  153.47    5.04
   4   1   3   91.24    2.61
  -4  -1  -3   87.52    3.49
   4   1   3   91.15    2.72
   4   1   3   91.58    2.65
   4   1   4    8.63    0.90
   4   1   4    8.11    0.91
  -4  -1  -4   10.52    1.32
   4   1   4    8.74    0.98
   4   1   5  488.16    6.87
  -4  -1  -5  483.68    8.86
   4   1   5  478.80    7.01
   4   1   5  489.64    6.46
   4   1   6   12.44    1.23
  -4  -1  -6   13.72    1.62
   4   1   6   13.00    1.35
   4   1   6   12.35    1.13
   4   1   7    2.65    0.56
   4   1   7    2.03    0.70
   4   1   7    1.92    0.85
   4   1   8  327.16    6.08
   4   1   9    2.35    0.70
   4   1  10  194.78    4.37
   4   1  11  220.88    4.10
   4   1  12   28.06    1.22
  -4  -2  15  105.33    2.33
   4   2 -15  104.92    2.02
   4   2 -15  107.18    2.01
  -4  -2  14    6.03    0.84
   4   2 -14    6.71    0.69
   4   2 -14    6.90    0.70
  -4  -2  13   64.08    2.70
   4   2 -13   68.30    2.34
   4   2 -13   70.39    2.40
  -4  -2  12   53.99    2.71
   4   2 -12   55.73    2.29
  -4  -2  11    8.64    1.29
   4   2 -11    8.46    0.97
  -4  -2  10    8.55    1.28
   4   2 -10   11.07    1.10
   4   2 -10   10.32    1.07
   4   2  -9   32.09    1.50
   4   2  -9   28.76    1.62
   4   2  -9   28.35    1.61
   4   2  -8   44.20    2.86
  -4  -2   8   40.14    2.82
   4   2  -8   43.44    1.82
   4   2  -8   41.92    1.88
   4   2  -8   40.02    1.81
   4   2  -7   22.42    2.11
  -4  -2   7   23.98    2.19
   4   2  -7   19.67    1.24
   4   2  -7   19.99    1.16
   4   2  -7   22.20    1.20
   4   2  -6   44.20    2.83
  -4  -2   6   49.19    2.97
   4   2  -6   45.66    1.84
   4   2  -6   44.93    1.93
  -4  -2   5    7.30    1.18
   4   2  -5    7.48    1.14
   4   2  -5    8.65    0.82
   4   2  -5    8.80    0.86
   4   2  -5    8.84    0.68
   4   2  -4   14.64    1.57
  -4  -2   4   17.76    1.65
   4   2  -4   15.51    1.07
   4   2  -4   13.81    0.99
   4   2  -3  566.43    9.78
  -4  -2   3  589.65    9.19
  -4  -2   2    0.57    0.41
   4   2  -2    1.37    0.68
  -4  -2   1   10.19    1.02
   4   2  -1    9.09    1.34
   4   2   0  850.31   12.19
   4   2   1   16.66    1.15
   4   2   1   17.00    1.17
   4   2   1   15.09    1.63
   4   2   2  471.11    5.24
   4   2   2  473.26    6.31
   4   2   2  464.16    5.01
   4   2   2  456.45    6.09
   4   2   3  221.89    3.97
   4   2   3  220.44    4.55
   4   2   3  223.28    4.37
   4   2   4    5.51    0.85
   4   2   4    8.07    0.93
   4   2   4    8.38    1.04
   4   2   5  260.05    4.96
   4   2   5  258.46    5.27
   4   2   5  251.13    4.80
   4   2   6  328.52    5.80
   4   2   6  327.13    6.14
   4   2   6  324.06    5.43
   4   2   7   42.66    2.15
   4   2   7   41.24    2.25
   4   2   7   42.75    1.91
   4   2   8   40.14    2.10
   4   2   9    0.70    0.59
   4   2  10   65.42    2.34
   4   2  11  124.54    2.75
   4   2  12    2.58    0.34
  -4  -3  15    0.81    0.30
   4   3 -15    0.47    0.20
   4   3 -15    0.68    0.21
  -4  -3  14   40.76    1.75
   4   3 -14   42.37    1.57
   4   3 -14   41.46    1.53
  -4  -3  14   41.77    1.69
  -4  -3  13   23.87    1.60
   4   3 -13   24.83    1.40
   4   3 -13   24.06    1.38
  -4  -3  13   25.46    1.66
  -4  -3  12   24.22    1.74
   4   3 -12   26.79    1.58
   4   3 -12   26.63    1.60
  -4  -3  11   11.95    1.36
   4   3 -11   11.07    1.09
   4   3 -11   13.25    1.22
  -4  -3  10   34.12    2.18
   4   3 -10   36.22    1.89
   4   3 -10   37.42    1.99
  -4  -3   9  199.27    4.85
   4   3  -9  195.35    4.18
   4   3  -9  202.06    4.44
   4   3  -9  204.42    3.91
  -4  -3   8    1.26    0.61
   4   3  -8    1.69    0.45
   4   3  -8    1.17    0.49
   4   3  -8    1.08    0.49
   4   3  -8    1.97    0.50
  -4  -3   7    4.58    1.04
   4   3  -7    6.66    0.79
   4   3  -7    4.70    1.01
   4   3  -7    5.65    0.68
   4   3  -7    7.16    0.82
   4   3  -7    6.55    0.79
   4   3  -6  140.51    5.06
  -4  -3   6  149.40    5.26
   4   3  -6  136.37    3.27
   4   3  -6  140.85    3.30
   4   3  -6  139.57    3.25
   4   3  -5  123.46    4.70
  -4  -3   5  121.03    4.64
   4   3  -5  118.88    3.03
   4   3  -5  118.71    2.76
   4   3  -5  125.02    3.03
   4   3  -4    7.95    0.88
   4   3  -4    8.21    1.26
   4   3  -4    8.42    0.75
   4   3  -4    8.21    0.84
   4   3  -4    7.22    0.66
   4   3  -3 1368.72   15.64
  -4  -3   3 1373.57   12.92
   4   3  -3 1377.28   10.26
   4   3  -3 1376.49    8.56
   4   3  -3 1389.14   10.08
   4   3  -3 1410.89    8.52
   4   3  -2  381.57    8.22
  -4  -3   2  371.98    6.80
   4   3  -2  391.28    5.43
   4   3  -2  376.62    5.37
   4   3  -2  379.71    4.82
  -4  -3   1  596.04    8.83
   4   3  -1  599.60    6.68
   4   3  -1  603.77    6.93
   4   3  -1  601.92    6.49
  -4  -3   0 1736.73   15.28
   4   3   0 1780.15   11.51
   4   3   0 1772.91   12.22
   4   3   0 1737.15   11.82
   4   3   0 1776.72   18.39
  -4  -3  -1   88.60    3.55
   4   3   1   99.83    2.75
   4   3   1   98.59    3.00
   4   3   1  101.52    2.97
   4   3   1   99.83    4.41
   4   3   2  165.25    3.54
   4   3   2  162.78    3.96
   4   3   2  156.95    3.78
   4   3   3  178.53    3.43
   4   3   3  177.74    3.56
   4   3   3  171.54    4.15
   4   3   3  171.10    4.02
   4   3   4  355.78    5.33
   4   3   4  356.73    6.21
   4   3   4  351.99    5.91
   4   3   5   54.94    2.25
   4   3   5   53.41    2.50
   4   3   5   56.34    2.39
   4   3   6    0.39    0.46
   4   3   6    0.32    0.49
   4   3   6    0.42    0.63
   4   3   7   57.07    2.36
   4   3   7   56.04    2.52
   4   3   7   60.21    2.23
   4   3   8    0.81    0.49
   4   3   9   21.86    1.36
   4   3  10   11.51    0.87
   4   3  11   53.39    1.46
  -4  -4  14  124.75    2.53
   4   4 -14  124.70    2.42
  -4  -4  14  125.16    2.74
  -4  -4  13   42.57    1.82
   4   4 -13   44.19    1.72
   4   4 -13   44.36    1.76
  -4  -4  13   46.44    2.10
  -4  -4  12   87.21    2.83
  -4  -4  12   88.79    3.24
   4   4 -12   84.97    2.63
   4   4 -12   89.92    2.79
  -4  -4  11  153.86    3.96
   4   4 -11  151.65    3.69
   4   4 -11  157.86    3.90
   4   4 -11  156.59    3.29
  -4  -4  10    1.15    0.54
   4   4 -10    1.74    0.58
   4   4 -10    0.81    0.52
   4   4 -10    1.35    0.41
  -4  -4   9  156.85    3.90
   4   4  -9  147.47    3.66
   4   4  -9  145.05    3.86
   4   4  -9  147.82    3.61
   4   4  -8   44.24    1.78
   4   4  -8   45.33    1.99
   4   4  -8   47.02    2.18
   4   4  -8   46.77    2.09
   4   4  -7   21.45    1.34
   4   4  -7   18.09    1.24
   4   4  -7   19.90    1.37
   4   4  -7   20.81    1.41
   4   4  -6    2.01    0.50
   4   4  -6    1.36    0.31
   4   4  -6    2.18    0.60
   4   4  -6    2.12    0.57
   4   4  -5  250.58    6.79
  -4  -4   5  252.77    5.85
   4   4  -5  242.34    4.56
   4   4  -5  247.67    4.55
   4   4  -5  257.25    4.81
   4   4  -4   96.32    4.23
  -4  -4   4   91.85    3.64
   4   4  -4   97.92    2.92
   4   4  -4   97.65    2.68
   4   4  -4   94.88    3.00
   4   4  -3  244.83    6.80
  -4  -4   3  243.66    5.95
   4   4  -3  242.08    4.57
   4   4  -3  245.46    3.93
   4   4  -3  234.01    4.69
   4   4  -3  251.18    3.97
  -4  -4   2  381.54    7.54
   4   4  -2  390.00    5.79
   4   4  -2  403.90    6.11
   4   4  -2  404.40    5.48
   4   4  -2  406.09    8.79
   4   4  -1    0.99    0.54
   4   4  -1    0.03    0.65
   4   4  -1    0.81    0.54
   4   4  -1    1.32    0.58
  -4  -4   0   60.09    3.07
   4   4   0   61.32    2.37
   4   4   0   65.47    2.54
   4   4   0   65.29    2.48
   4   4   0   63.25    3.52
  -4  -4  -1   28.94    2.19
   4   4   1   26.23    1.59
   4   4   1   26.75    1.67
   4   4   1   30.19    2.50
   4   4   1   27.01    1.67
   4   4   2  509.74    6.83
   4   4   2  503.51    7.25
   4   4   2  494.79    7.20
   4   4   3  140.04    3.94
   4   4   3  141.64    3.92
   4   4   4   85.74    3.12
   4   4   4   77.83    2.94
   4   4   5   83.54    3.07
   4   4   5   82.32    2.91
   4   4   6   74.12    2.39
   4   4   6   69.30    2.76
   4   4   6   68.64    2.54
   4   4   7   16.75    1.14
   4   4   7   16.16    1.35
   4   4   7   15.76    1.17
   4   4   8    5.07    0.55
   4   5 -14  211.86    2.61
  -4  -5  14  213.01    3.01
  -4  -5  13    0.81    0.30
  -4  -5  13    0.00    0.45
   4   5 -13    1.22    0.39
  -4  -5  12    7.90    0.72
   4   5 -12    8.10    0.84
  -4  -5  12    8.38    1.05
   4   5 -11  131.39    3.41
  -4  -5  11  123.40    3.83
   4   5 -11  128.83    3.00
   4   5 -10    0.59    0.45
  -4  -5  10    1.19    0.70
   4   5 -10    0.41    0.51
   4   5 -10    0.31    0.41
   4   5  -9   39.34    1.88
   4   5  -9   40.87    2.10
   4   5  -9   41.36    1.98
   4   5  -8   35.87    1.96
   4   5  -8   39.20    2.01
   4   5  -7   51.47    2.07
   4   5  -7   53.46    2.36
   4   5  -7   52.06    2.36
   4   5  -6   35.12    1.77
   4   5  -6   37.62    1.96
   4   5  -6   37.12    2.00
   4   5  -5  344.93    5.55
   4   5  -5  355.78    5.76
   4   5  -5  359.52    6.13
   4   5  -4    1.09    0.49
   4   5  -4    1.61    0.56
   4   5  -4    1.70    0.74
   4   5  -3  129.65    3.62
   4   5  -3  136.34    3.40
   4   5  -3  135.40    3.77
   4   5  -3  134.68    3.11
   4   5  -2  423.64    6.46
   4   5  -2  425.67    5.70
   4   5  -2  431.87    6.70
   4   5  -2  432.25    6.10
   4   5  -1  282.72    5.33
   4   5  -1  279.93    5.43
   4   5  -1  281.65    5.11
   4   5   0   24.08    1.65
   4   5   0   27.10    1.74
   4   5   0   26.50    1.68
   4   5   1  520.91    7.41
   4   5   1  527.82    7.57
   4   5   1  524.94    7.49
   4   5   2    0.77    0.58
   4   5   2    1.20    0.62
   4   5   3  195.57    4.63
   4   5   3  189.55    4.56
   4   5   4  230.92    4.94
   4   5   4  230.76    4.93
   4   5   5   40.84    2.02
   4   5   5   45.17    2.15
   4   5   6  103.92    2.97
   4   5   6  103.57    2.93
   4   5   7   56.13    1.87
  -4  -6  13   15.50    0.91
   4   6 -13   14.53    0.75
   4   6 -12  119.38    2.58
  -4  -6  12  122.65    2.97
   4   6 -11    5.80    0.72
   4   6 -11    6.91    0.71
  -4  -6  11    5.11    0.80
   4   6 -10   24.69    1.42
  -4  -6  10   24.00    1.63
   4   6 -10   23.52    1.48
  -4  -6   9   12.03    1.23
   4   6  -9   12.92    1.17
   4   6  -9   13.01    1.16
  -4  -6   8    5.22    0.87
   4   6  -8    4.91    0.85
   4   6  -8    4.90    0.80
   4   6  -7   17.35    1.12
  -4  -6   7   17.08    1.38
   4   6  -7   15.19    1.31
   4   6  -7   14.85    1.34
   4   6  -6   14.85    1.14
   4   6  -6   15.29    1.30
   4   6  -6   14.70    1.34
   4   6  -5   43.16    2.06
   4   6  -5   43.84    2.11
   4   6  -5   47.16    2.33
   4   6  -4   64.62    2.57
   4   6  -4   67.94    2.57
   4   6  -4   68.12    2.78
   4   6  -3   54.63    2.50
   4   6  -3   59.01    2.60
   4   6  -3   60.58    2.15
   4   6  -2   35.85    2.08
   4   6  -2   34.77    2.03
   4   6  -2   37.08    1.81
   4   6  -1   95.70    3.25
   4   6  -1  100.66    3.10
   4   6   0    2.90    0.75
   4   6   0    2.40    0.61
   4   6   1  160.71    4.12
   4   6   1  155.98    4.07
   4   6   2  197.21    4.46
   4   6   2  203.96    4.64
   4   6   3    0.40    0.70
   4   6   3    0.30    0.49
   4   6   4   85.32    2.67
   4   6   4   87.36    2.88
   4   6   5    1.92    0.57
   4   6   5    1.48    0.47
   4   6   6  117.35    2.42
   4   6   6  119.26    2.72
   4   6   7   65.67    1.60
   4   7 -12  277.34    2.99
  -4  -7  11    0.94    0.35
   4   7 -11    0.68    0.30
  -4  -7  11    0.82    0.37
   4   7 -11    0.16    0.28
  -4  -7  10   79.76    2.31
   4   7 -10   82.50    2.33
  -4  -7  10   77.48    2.30
   4   7 -10   81.73    2.26
  -4  -7   9   45.82    1.88
   4   7  -9   48.47    1.95
  -4  -7   9   46.82    1.87
   4   7  -9   46.82    1.90
  -4  -7   8   28.60    1.54
  -4  -7   8   28.28    1.43
   4   7  -8   26.01    1.54
   4   7  -8   25.46    1.53
  -4  -7   7  412.81    5.56
   4   7  -7  428.34    6.18
   4   7  -7  417.24    6.23
   4   7  -6    0.77    0.48
   4   7  -6    2.62    0.76
   4   7  -5  173.73    4.19
   4   7  -4   44.21    2.15
   4   7  -3   48.08    2.24
   4   7  -2   14.43    1.27
   4   7  -2   16.15    1.16
   4   7  -1    0.72    0.43
   4   7  -1    0.06    0.51
   4   7   0    9.13    1.01
   4   7   0   10.15    1.04
   4   7   1   68.49    2.41
   4   7   1   69.84    2.57
   4   7   2  120.91    2.99
   4   7   2  127.69    3.41
   4   7   3    0.31    0.49
   4   7   3    0.44    0.33
  -4  -7  -3    1.01    0.44
   4   7   4  123.31    2.35
   4   7   4  123.52    2.92
   4   7   5   34.14    1.36
   4   7   6   29.33    1.02
   4   8 -10   26.73    1.00
  -4  -8   9   16.76    0.75
   4   8  -9   18.04    0.96
  -4  -8   8   14.66    0.76
   4   8  -8   15.72    0.99
   4   8  -7   37.34    1.61
   4   8  -6    0.76    0.41
   4   8  -5   94.86    2.67
   4   8  -4    0.64    0.40
   4   8  -3   51.50    1.95
   4   8  -2    9.88    0.88
   4   8  -1  128.82    2.89
   4   8  -1  137.55    2.86
   4   8   0   29.94    1.33
   4   8   0   33.29    1.47
   4   8   1   80.23    1.92
  -4  -8  -1   77.82    2.42
   4   8   2   26.26    1.25
  -4  -8  -2   24.82    1.23
   4   8   3    3.53    0.49
  -4  -8  -3    2.70    0.36
   4   8   4  106.18    1.98
   4   9  -6   67.16    1.52
   4   9  -5   37.62    1.18
   4   9  -4   60.53    1.46
   4   9  -3    3.52    0.37
  -4  -9   2    2.48    0.50
  -4  -9   1   39.96    1.53
  -4  -9   0    0.36    0.29
   5  -8  -5   61.94    1.43
  -5   8   5   60.41    1.52
   5  -8  -4    6.88    0.58
  -5   8   4    8.71    0.73
   5  -8  -3   71.96    1.95
  -5   8   3   73.88    2.21
   5  -8  -2  135.69    2.82
   5  -8  -2  134.36    2.77
  -5   8   2  133.67    3.17
  -5   8   1    1.81    0.52
   5  -8  -1    2.38    0.47
   5  -8  -1    1.81    0.42
   5  -8   0  115.20    2.67
   5  -8   0  117.30    2.62
  -5   8   0  120.85    3.24
   5  -8   1  103.26    2.48
   5  -8   1  101.51    2.39
  -5   8  -1  106.11    2.97
  -5   8  -2    0.51    0.44
   5  -8   2    0.26    0.27
   5  -8   2    0.80    0.31
   5  -8   3   63.04    1.74
  -5   8  -3   55.41    2.02
  -5   8  -4   82.55    2.25
   5  -7  -7   43.41    1.32
   5  -7  -7   46.50    1.32
   5  -7  -6    1.41    0.33
   5  -7  -6    1.85    0.39
  -5   7   6    2.10    0.46
   5  -7  -5   47.17    1.53
   5  -7  -5   45.55    1.75
  -5   7   5   46.53    1.87
   5  -7  -4   29.52    1.54
  -5   7   4   29.35    1.67
   5  -7  -3   90.07    2.72
   5  -7  -3   83.82    2.59
  -5   7   3   80.97    2.96
   5  -7  -2  172.98    3.84
   5  -7  -2  166.81    3.66
  -5   7   2  169.66    4.38
  -5   7   1    0.50    0.61
   5  -7  -1    0.86    0.50
   5  -7  -1    0.44    0.38
   5  -7   0  250.48    4.60
   5  -7   0  246.18    4.38
  -5   7   0  247.85    5.54
   5  -7   1   47.36    1.96
   5  -7   1   47.98    1.90
  -5   7  -1   50.17    2.60
   5  -7   2   41.80    1.77
   5  -7   2   41.15    1.71
   5  -7   3   91.84    2.22
   5  -7   4  230.12    3.60
   5  -7   4  231.48    3.93
   5  -7   5    0.04    0.29
   5  -7   6   66.34    1.85
   5  -7   7  151.26    2.53
   5  -7   8   77.61    1.53
   5  -6  -9    5.47    0.51
   5  -6  -9    5.72    0.47
  -5   6   9    5.28    0.54
   5  -6  -8   32.69    1.33
   5  -6  -8   36.91    1.41
   5  -6  -8   35.28    1.32
  -5   6   8   36.76    1.59
   5  -6  -8   36.34    1.37
   5  -6  -7   35.88    1.60
   5  -6  -7   42.40    1.67
   5  -6  -7   38.17    1.49
   5  -6  -7   40.35    1.54
  -5   6   7   37.75    1.45
   5  -6  -6   10.04    0.97
   5  -6  -6    9.39    0.89
   5  -6  -6    9.91    0.83
  -5   6   6    9.32    0.92
  -5   6   5    0.91    0.52
   5  -6  -5    0.49    0.40
   5  -6  -5    0.58    0.51
   5  -6  -4   58.74    2.09
   5  -6  -4   57.53    2.39
   5  -6  -4   56.72    2.29
  -5   6   4   53.42    2.51
   5  -6  -3    7.13    0.77
   5  -6  -3    6.65    0.92
   5  -6  -3    6.27    0.83
  -5   6   3    9.15    1.17
   5  -6  -2   12.19    1.16
   5  -6  -2   10.41    1.01
  -5   6   2   10.94    1.36
   5  -6  -1   13.27    1.19
   5  -6  -1   14.69    1.21
   5  -6   0   17.59    1.34
   5  -6   0   17.02    1.08
   5  -6   0   17.82    1.28
   5  -6   1    8.28    0.89
   5  -6   1    7.55    0.80
   5  -6   1    7.08    0.81
   5  -6   2  116.89    3.04
   5  -6   2  117.65    3.24
   5  -6   2  123.51    3.11
   5  -6   3    0.18    0.40
   5  -6   3    0.48    0.42
   5  -6   4  314.98    5.14
   5  -6   4  320.44    4.99
   5  -6   5   43.17    1.93
   5  -6   6    1.11    0.39
  -5   6  -7    6.95    0.62
   5  -6   7    6.47    0.74
  -5   6  -8    0.04    0.27
   5  -6   8    0.52    0.34
   5  -6   9    3.72    0.45
   5  -5 -10  112.14    2.19
   5  -5 -10  111.50    2.19
  -5   5  10  114.66    2.62
   5  -5  -9   59.79    1.94
   5  -5  -9   66.01    2.00
   5  -5  -9   63.35    1.89
  -5   5   9   64.51    2.35
   5  -5  -8   11.55    1.01
   5  -5  -8   12.65    1.05
   5  -5  -8   11.29    0.90
  -5   5   8   11.89    1.21
   5  -5  -8   11.67    1.01
   5  -5  -7   56.57    2.28
   5  -5  -7   59.42    2.29
   5  -5  -7   56.36    2.03
   5  -5  -7   57.14    2.14
   5  -5  -6  117.85    3.45
   5  -5  -6  117.52    3.27
   5  -5  -6  109.45    2.98
  -5   5   6  111.24    3.22
   5  -5  -5   98.31    3.02
   5  -5  -5   98.51    3.21
   5  -5  -5   91.75    2.71
  -5   5   5   95.46    3.21
   5  -5  -4   42.88    1.97
   5  -5  -4   41.01    2.10
   5  -5  -4   42.82    1.83
   5  -5  -4   39.34    1.98
  -5   5   4   40.74    2.26
   5  -5  -3  352.43    5.39
   5  -5  -3  343.53    5.97
   5  -5  -3  342.90    5.70
  -5   5   3  339.32    6.74
   5  -5  -2   25.83    1.42
   5  -5  -2   27.68    1.71
   5  -5  -2   25.32    1.36
   5  -5  -2   25.27    1.54
   5  -5  -1  436.02    6.44
   5  -5  -1  425.55    5.88
   5  -5  -1  440.66    6.15
   5  -5   0   11.63    1.10
   5  -5   0   10.19    1.00
   5  -5   0   12.42    1.05
   5  -5   1  146.71    3.77
   5  -5   1  141.64    3.63
   5  -5   1  146.79    3.58
   5  -5   1  148.76    3.34
   5  -5   2 1036.57    9.77
   5  -5   2 1034.69    9.94
   5  -5   2 1047.82    9.29
   5  -5   3   89.70    2.82
   5  -5   3   86.04    2.96
   5  -5   3   86.03    2.61
   5  -5   4  313.11    5.09
   5  -5   4  308.29    5.61
   5  -5   5   75.66    2.40
   5  -5   5   73.62    2.74
  -5   5  -6   18.89    1.27
   5  -5   6   18.76    1.11
   5  -5   6   19.17    1.42
  -5   5  -7   45.43    1.92
   5  -5   7   46.98    2.06
  -5   5  -8    2.24    0.50
   5  -5   8    2.51    0.51
  -5   5  -9    1.37    0.40
   5  -5   9    0.76    0.35
  -5   5 -10   39.23    1.22
   5  -5  10   44.64    1.26
   5  -4 -11    0.39    0.25
   5  -4 -11    0.50    0.27
  -5   4  11    0.42    0.44
   5  -4 -10  205.85    3.49
   5  -4 -10  206.15    3.51
  -5   4  10  203.40    4.31
   5  -4  -9  362.70    5.48
   5  -4  -9  368.81    5.37
   5  -4  -9  368.58    5.14
  -5   4   9  372.36    6.49
   5  -4  -8   16.25    1.29
   5  -4  -8   15.03    1.24
   5  -4  -8   14.41    1.09
   5  -4  -8   15.75    1.29
   5  -4  -7   24.17    1.64
   5  -4  -7   23.39    1.58
   5  -4  -7   21.94    1.37
   5  -4  -7   21.83    1.47
   5  -4  -6  328.04    5.89
   5  -4  -6  325.47    5.68
   5  -4  -6  336.24    5.54
   5  -4  -5   64.46    2.53
   5  -4  -5   59.86    2.52
   5  -4  -5   62.16    2.35
  -5   4   5   59.53    2.54
   5  -4  -4   16.27    1.30
   5  -4  -4   14.53    1.29
   5  -4  -4   16.94    1.13
   5  -4  -4   16.51    1.25
   5  -4  -4   16.47    1.26
  -5   4   4   14.93    1.43
   5  -4  -3   56.48    2.23
   5  -4  -3   50.33    2.24
   5  -4  -3   50.90    2.05
   5  -4  -3   55.55    1.98
   5  -4  -3   53.91    2.16
   5  -4  -2    0.22    0.36
   5  -4  -2    1.16    0.44
   5  -4  -2    0.37    0.36
   5  -4  -2    0.04    0.36
   5  -4  -1  129.93    3.76
   5  -4  -1  129.89    3.41
   5  -4  -1  126.22    3.42
   5  -4   0    5.67    0.93
   5  -4   0    7.29    0.82
   5  -4   0    5.92    0.83
   5  -4   1    0.41    0.56
   5  -4   1    1.68    0.49
   5  -4   1    0.75    0.46
   5  -4   2  186.66    4.38
   5  -4   2  188.29    4.44
   5  -4   3    4.85    0.86
   5  -4   3    5.82    0.95
   5  -4   4   46.23    2.18
   5  -4   4   46.73    2.27
   5  -4   5   19.74    1.42
   5  -4   5   20.61    1.55
   5  -4   6   39.19    1.87
   5  -4   6   42.50    2.13
   5  -4   7   31.16    1.58
   5  -4   7   32.53    1.81
   5  -4   8   57.99    1.92
   5  -4   8   61.22    2.23
  -5   4  -9    7.93    0.84
   5  -4   9    7.30    0.57
   5  -4   9    8.46    0.76
  -5   4 -10   19.83    1.10
   5  -4  10   21.14    0.95
   5  -3 -12  212.07    3.02
  -5   3  12  210.03    3.51
   5  -3 -11   50.83    1.64
   5  -3 -11   50.66    1.75
  -5   3  11   50.57    2.12
   5  -3 -10   82.22    2.44
   5  -3 -10   86.56    2.53
  -5   3  10   81.33    3.06
   5  -3  -9  329.63    5.64
   5  -3  -9  329.33    5.33
   5  -3  -9  339.10    5.23
  -5   3   9  330.42    6.53
   5  -3  -8   43.31    2.17
   5  -3  -8   40.03    2.04
   5  -3  -8   39.26    1.84
   5  -3  -8   40.84    2.07
   5  -3  -7    0.02    0.53
   5  -3  -7    0.14    0.48
   5  -3  -7    0.70    0.38
   5  -3  -7    0.70    0.57
   5  -3  -6   38.52    2.03
   5  -3  -6   41.06    2.09
   5  -3  -6   40.46    1.75
   5  -3  -6   40.28    1.78
   5  -3  -6   38.28    1.96
   5  -3  -5    6.10    0.90
   5  -3  -5    6.70    0.81
   5  -3  -5    6.20    0.88
   5  -3  -5    5.66    0.79
   5  -3  -4    5.64    0.86
   5  -3  -4    6.10    0.81
   5  -3  -4    6.24    0.82
   5  -3  -4    5.01    0.79
   5  -3  -3   42.03    1.94
   5  -3  -3   44.32    2.02
   5  -3  -3   38.49    1.88
   5  -3  -2   29.63    1.82
   5  -3  -2   29.08    1.56
   5  -3  -2   28.68    1.55
   5  -3  -2   29.19    1.69
   5  -3  -1   67.78    2.71
   5  -3  -1   73.20    2.24
   5  -3  -1   73.65    2.30
   5  -3  -1   72.11    2.63
   5  -3   0  405.87    6.51
   5  -3   0  409.17    6.34
   5  -3   1   13.34    1.27
   5  -3   1   12.87    1.24
   5  -3   2   92.43    3.16
   5  -3   2   90.74    3.12
   5  -3   3   85.71    3.07
   5  -3   3   85.05    3.03
   5  -3   4   88.64    3.14
   5  -3   4   95.67    3.24
   5  -3   5  250.77    5.20
   5  -3   5  262.17    5.25
   5  -3   6   16.02    1.36
   5  -3   6   18.35    1.44
   5  -3   7    8.09    0.99
   5  -3   7    7.22    0.90
   5  -3   8  371.54    5.48
   5  -3   8  392.24    5.55
   5  -3   9    7.16    0.76
   5  -3   9    8.09    0.74
  -5   3 -10   77.06    2.43
   5  -3  10   80.75    1.83
  -5   3 -11  110.17    2.27
  -5   2  13    7.27    0.60
   5  -2 -13    8.12    0.54
  -5   2  13    8.19    0.64
  -5   2  12   91.82    2.59
   5  -2 -12   90.13    1.66
   5  -2 -12   89.62    2.20
  -5   2  12   93.00    2.59
   5  -2 -11  292.73    4.10
   5  -2 -11  297.30    4.54
   5  -2 -11  296.70    4.10
  -5   2  11  284.25    5.26
  -5   2  10    4.11    0.86
   5  -2 -10    4.63    0.72
   5  -2 -10    3.76    0.61
  -5   2   9   16.76    1.58
   5  -2  -9   17.02    1.27
   5  -2  -9   15.22    1.17
   5  -2  -8  197.06    4.53
   5  -2  -8  198.71    4.40
   5  -2  -8  192.79    4.01
   5  -2  -7   66.69    2.64
   5  -2  -7   64.78    2.64
   5  -2  -7   65.93    2.34
   5  -2  -7   67.68    2.34
   5  -2  -6   20.36    1.46
   5  -2  -6   21.19    1.55
   5  -2  -6   20.72    1.35
   5  -2  -6   22.20    1.24
   5  -2  -5   88.43    2.94
   5  -2  -5   82.06    2.76
   5  -2  -5   83.93    2.76
   5  -2  -4   67.30    2.51
   5  -2  -4   66.49    2.40
   5  -2  -4   65.80    2.45
   5  -2  -3  284.17    5.36
  -5   2   3  290.58    7.97
   5  -2  -3  293.66    4.99
   5  -2  -3  279.43    4.52
   5  -2  -3  286.99    5.10
   5  -2  -2    8.27    0.98
   5  -2  -2    8.56    0.88
  -5   2   2    6.49    1.20
   5  -2  -2    9.05    0.76
   5  -2  -2    8.69    0.98
   5  -2  -1  103.19    3.21
  -5   2   1  110.38    4.89
   5  -2  -1   99.06    2.62
   5  -2  -1  100.23    3.07
   5  -2  -1   98.31    3.18
   5  -2   0   84.30    2.95
  -5   2   0   80.52    4.12
   5  -2   0   82.79    2.84
   5  -2   0   84.03    3.03
   5  -2   1   25.98    1.67
  -5   2  -1   28.19    2.36
   5  -2   1   26.23    1.64
   5  -2   1   23.05    1.71
   5  -2   2    0.96    0.70
   5  -2   2    1.46    0.54
  -5   2  -2    2.08    0.88
   5  -2   2    1.06    0.53
   5  -2   3   -0.12    0.66
   5  -2   3    0.60    0.60
   5  -2   3    0.82    0.53
   5  -2   4    6.92    1.02
   5  -2   4    8.73    1.13
   5  -2   4    7.01    0.94
   5  -2   5    1.09    0.63
   5  -2   5    0.42    0.64
   5  -2   5    1.25    0.57
   5  -2   6  171.09    4.41
   5  -2   6  169.51    4.00
   5  -2   6  179.22    3.82
   5  -2   7    0.43    0.50
   5  -2   7    0.82    0.44
   5  -2   8  142.60    3.70
   5  -2   8  147.60    3.21
   5  -2   9   33.02    1.66
   5  -2  10  146.53    2.89
  -5   1  13    9.87    0.83
  -5   1  13    9.61    0.71
  -5   1  12    4.87    0.85
   5  -1 -12    4.93    0.59
   5  -1 -12    4.39    0.54
  -5   1  12    4.88    0.69
   5  -1 -11  140.51    2.93
   5  -1 -11  138.03    3.20
   5  -1 -11  138.41    2.96
  -5   1  11  132.26    3.57
   5  -1 -10   22.04    1.34
   5  -1 -10   23.81    1.43
   5  -1 -10   23.00    1.30
  -5   1  10   22.20    1.66
  -5   1   9    3.91    0.86
   5  -1  -9    3.40    0.66
   5  -1  -9    3.16    0.63
   5  -1  -9    3.14    0.56
   5  -1  -8  253.17    5.00
   5  -1  -8  258.32    4.61
   5  -1  -7   30.59    1.74
   5  -1  -7   31.84    1.89
   5  -1  -7   32.36    1.78
   5  -1  -7   33.97    1.60
   5  -1  -6  419.26    6.20
   5  -1  -6  434.22    6.52
   5  -1  -6  431.08    6.29
   5  -1  -5  650.36    7.35
   5  -1  -5  660.12    7.95
   5  -1  -5  660.28    7.77
   5  -1  -4  198.31    4.21
   5  -1  -4  201.75    3.72
   5  -1  -4  198.58    4.26
   5  -1  -3  230.48    4.66
  -5   1   3  238.67    7.33
   5  -1  -3  235.75    4.45
   5  -1  -3  233.36    4.61
   5  -1  -3  225.31    4.48
   5  -1  -2  187.74    4.20
  -5   1   2  182.44    6.27
   5  -1  -2  185.84    3.85
   5  -1  -2  188.06    4.13
   5  -1  -2  184.95    4.14
   5  -1  -1   39.86    1.98
  -5   1   1   39.63    2.89
   5  -1  -1   42.56    1.77
   5  -1  -1   39.31    1.90
   5  -1  -1   39.67    1.99
   5  -1   0   70.46    2.64
  -5   1   0   66.79    3.63
   5  -1   0   72.14    2.10
   5  -1   0   73.90    2.58
   5  -1   0   73.31    2.71
   5  -1   1  239.96    4.90
  -5   1  -1  236.96    6.41
   5  -1   1  237.66    4.65
   5  -1   1  222.96    4.83
   5  -1   2   18.55    1.46
  -5   1  -2   16.33    1.69
   5  -1   2   18.80    1.36
   5  -1   2   19.09    1.50
   5  -1   3  304.54    5.78
   5  -1   3  297.42    5.25
   5  -1   3  311.78    4.67
   5  -1   3  295.11    5.60
   5  -1   4  248.34    5.36
   5  -1   4  255.17    4.83
   5  -1   4  257.23    4.66
   5  -1   4  246.20    5.03
   5  -1   5   37.95    2.14
   5  -1   5   41.16    1.92
   5  -1   5   39.27    1.99
   5  -1   6  467.17    7.31
   5  -1   6  473.19    6.24
   5  -1   6  480.32    6.39
   5  -1   7    9.03    1.16
   5  -1   7   10.02    0.88
   5  -1   8  125.86    3.60
   5  -1   9  235.08    4.45
   5  -1  10    4.76    0.62
   5  -1  11   59.65    1.52
  -5   0  13   18.37    1.18
  -5   0  13   18.04    0.82
   5   0 -13   18.53    0.90
  -5   0  12    2.52    0.73
   5   0 -12    3.67    0.55
   5   0 -12    3.56    0.51
  -5   0  12    2.27    0.47
   5   0 -11    2.61    0.45
   5   0 -11    1.64    0.41
   5   0 -11    1.38    0.36
  -5   0  11    1.75    0.56
   5   0 -10   44.22    1.85
   5   0 -10   47.42    1.96
   5   0 -10   49.38    1.88
  -5   0  10   47.89    2.22
   5   0  -9    3.41    0.67
   5   0  -9    3.74    0.64
   5   0  -9    5.64    0.68
  -5   0   9    5.69    0.89
   5   0  -8  112.35    3.28
   5   0  -8  113.22    2.97
  -5   0   8  110.86    3.44
   5   0  -7   17.72    1.41
   5   0  -7   18.38    1.39
   5   0  -6   66.36    2.37
   5   0  -6   64.61    2.58
   5   0  -6   70.52    2.64
  -5   0   5  572.64    9.05
   5   0  -5  566.67    6.19
   5   0  -5  558.03    7.14
   5   0  -4  170.13    4.72
   5   0  -4  179.56    3.86
  -5   0   4  180.58    4.87
   5   0  -4  175.40    3.96
   5   0  -4  175.80    4.01
   5   0  -4  180.39    3.64
   5   0  -3   15.62    1.47
   5   0  -3   14.84    1.17
   5   0  -3   13.43    1.11
   5   0  -3   14.21    1.18
   5   0  -3   14.31    1.20
   5   0  -2  297.15    5.02
   5   0  -2  299.71    4.97
   5   0  -2  302.29    5.18
   5   0  -2  304.94    5.26
   5   0  -2  299.02    6.17
   5   0  -1   14.76    1.21
   5   0  -1   12.48    1.35
  -5   0   1   16.01    1.81
   5   0  -1   14.26    1.10
   5   0  -1   14.53    1.17
   5   0  -1   14.32    1.27
   5   0   0  227.45    4.59
   5   0   0  225.19    3.95
  -5   0   0  210.26    5.81
   5   0   0  225.12    4.41
   5   0   0  220.45    4.66
   5   0   0  223.50    5.43
   5   0   1   73.96    2.69
   5   0   1   76.41    2.14
   5   0   1   75.56    2.57
   5   0   1   70.88    2.16
   5   0   1   71.01    2.71
   5   0   2    0.68    0.58
   5   0   2    1.51    0.57
   5   0   2    1.75    0.55
   5   0   2    2.15    0.52
   5   0   3    0.22    0.67
   5   0   3    0.54    0.50
   5   0   3    0.86    0.44
   5   0   3    0.54    0.47
   5   0   4    1.01    0.60
   5   0   4    0.87    0.68
   5   0   4    1.37    0.40
   5   0   4    1.44    0.59
   5   0   5   -0.03    0.56
   5   0   5    1.62    0.66
   5   0   5    1.26    0.46
   5   0   5    1.52    0.63
   5   0   6   70.91    2.88
   5   0   6   74.01    2.55
   5   0   7    1.30    0.45
   5   0   7    1.08    0.62
   5   0   8  169.40    4.13
   5   0   9   78.74    2.57
   5   0  10   28.53    1.35
   5   0  11   47.48    1.33
  -5  -1  13   58.32    2.05
   5   1 -13   63.78    1.71
  -5  -1  12    7.19    1.00
   5   1 -12    8.05    0.70
   5   1 -12    8.45    0.77
  -5  -1  11    8.96    1.23
   5   1 -11    9.74    0.75
   5   1 -11    9.59    0.84
   5   1 -11    9.79    0.87
   5   1 -10  119.30    3.01
   5   1 -10  123.55    2.96
   5   1  -9    4.51    0.68
   5   1  -9    4.65    0.67
   5   1  -8  197.55    4.25
   5   1  -8  197.00    3.71
   5   1  -7  373.72    5.96
   5   1  -6   44.55    2.11
   5   1  -6   46.71    2.18
  -5  -1   5  617.35    9.35
   5   1  -5  598.39    7.51
   5   1  -5  618.27    7.67
   5   1  -4  133.30    4.59
   5   1  -4  143.56    3.60
   5   1  -4  139.80    3.58
   5   1  -4  143.12    3.17
   5   1  -3  163.50    5.11
   5   1  -3  170.40    3.32
   5   1  -3  167.48    3.83
   5   1  -3  163.99    3.78
   5   1  -3  165.82    3.72
   5   1  -2  593.83    6.39
   5   1  -2  575.98    7.00
   5   1  -2  578.54    7.02
   5   1  -2  594.60    7.31
   5   1  -2  600.14    9.73
   5   1  -1  132.72    3.17
   5   1  -1  128.98    3.26
  -5  -1   1  121.05    4.27
   5   1  -1  128.96    3.29
   5   1  -1  131.94    2.94
   5   1  -1  130.28    3.50
   5   1  -1  140.08    4.79
   5   1   0    4.76    0.84
   5   1   0    3.61    0.64
   5   1   0    6.72    1.09
   5   1   0    4.09    0.66
   5   1   0    5.74    0.74
   5   1   0    5.89    0.74
   5   1   1   46.57    2.09
   5   1   1   44.91    1.81
   5   1   1   46.73    1.91
   5   1   1   45.90    2.02
   5   1   1   45.69    2.26
   5   1   2   92.61    3.01
   5   1   2   90.92    2.55
   5   1   2   91.84    2.96
   5   1   2   88.57    3.12
   5   1   3  249.59    5.02
   5   1   3  254.27    5.06
   5   1   3  243.97    5.18
   5   1   4    8.30    1.08
   5   1   4    8.66    1.06
   5   1   4    9.00    1.15
   5   1   5   32.03    1.91
   5   1   5   28.82    1.86
   5   1   5   29.17    1.77
   5   1   6   15.99    1.38
   5   1   6   15.71    1.42
   5   1   6   16.25    1.27
   5   1   7   33.81    1.90
   5   1   7   32.94    1.56
   5   1   8    4.13    0.72
   5   1   9    2.22    0.52
   5   1  10   64.78    1.82
  -5  -2  13   58.73    1.94
   5   2 -13   62.76    1.70
  -5  -2  12   11.76    1.09
   5   2 -12   12.22    0.89
   5   2 -11   81.59    2.29
   5   2 -11   80.96    2.41
  -5  -2  10   12.41    1.38
   5   2 -10   15.18    1.04
   5   2 -10   14.81    1.05
   5   2 -10   13.98    1.08
   5   2  -9    4.68    0.67
   5   2  -9    3.99    0.57
   5   2  -9    3.53    0.61
   5   2  -8   35.56    1.82
   5   2  -8   39.11    1.79
   5   2  -7  100.61    3.11
   5   2  -7  102.08    2.73
   5   2  -6  170.44    4.06
   5   2  -5   71.16    2.65
   5   2  -5   70.97    2.60
   5   2  -4   44.57    2.10
   5   2  -4   44.25    2.01
   5   2  -4   42.63    1.73
   5   2  -4   44.76    1.76
   5   2  -3   56.86    3.15
   5   2  -3   51.20    2.23
   5   2  -3   51.83    2.11
   5   2  -3   54.40    2.03
   5   2  -3   52.11    2.13
   5   2  -2  111.02    3.20
   5   2  -2  111.12    3.00
   5   2  -2  113.52    3.03
   5   2  -2  113.20    3.24
   5   2  -2  113.79    4.42
   5   2  -1  453.80    6.35
   5   2  -1  462.51    5.80
   5   2  -1  461.73    6.40
   5   2  -1  469.28    6.73
   5   2   0  219.80    4.38
   5   2   0  227.93    3.88
   5   2   0  224.78    4.59
   5   2   0  225.87    4.84
   5   2   1  102.23    2.84
   5   2   1  101.24    2.91
   5   2   1   99.43    3.15
   5   2   1  102.67    3.34
   5   2   2   94.69    2.89
   5   2   2   92.03    2.66
   5   2   2   91.20    3.10
   5   2   2   88.40    3.17
   5   2   3    1.08    0.74
   5   2   3    0.17    0.43
   5   2   3    0.64    0.56
   5   2   4  188.79    4.23
   5   2   4  189.53    4.62
   5   2   4  190.04    4.52
   5   2   5    4.78    0.90
   5   2   5    5.58    0.84
   5   2   5    5.49    1.00
   5   2   6   44.76    2.07
   5   2   6   40.92    2.15
   5   2   6   41.17    1.92
   5   2   7   32.69    1.71
   5   2   7   29.21    1.41
   5   2   8    6.92    0.75
   5   2   9    9.84    0.79
   5   2  10   28.07    0.99
  -5  -3  13   18.97    0.93
   5   3 -13   19.49    0.92
  -5  -3  13   18.81    1.11
  -5  -3  12   79.62    2.29
   5   3 -12   83.89    2.21
  -5  -3  11    2.16    0.56
   5   3 -11    1.44    0.41
  -5  -3  10    0.32    0.47
   5   3 -10    0.64    0.27
  -5  -3   9   13.51    1.17
   5   3  -9   13.14    1.04
   5   3  -9   14.81    1.15
   5   3  -8   -0.27    0.43
   5   3  -8    0.04    0.32
   5   3  -7   40.41    1.95
   5   3  -7   41.03    1.83
   5   3  -7   40.28    1.73
   5   3  -6   23.94    1.56
   5   3  -6   21.73    1.27
   5   3  -6   22.80    1.40
   5   3  -5    2.65    0.66
   5   3  -5    3.15    0.64
   5   3  -4  488.01    6.98
   5   3  -4  494.36    6.40
   5   3  -4  496.81    6.66
   5   3  -3  619.01    7.86
   5   3  -3  615.23    6.88
   5   3  -3  618.48    7.58
   5   3  -2   37.15    1.96
   5   3  -2   41.95    1.70
   5   3  -2   39.45    1.99
   5   3  -2   41.20    2.03
   5   3  -1  873.47    9.20
   5   3  -1  853.64    9.21
   5   3  -1  859.05    9.22
   5   3   0    6.42    1.01
   5   3   0    8.13    1.02
   5   3   0    8.06    1.05
   5   3   1  379.39    5.84
   5   3   1  375.45    6.38
   5   3   1  385.30    6.47
   5   3   2   31.00    1.66
   5   3   2   28.61    1.86
   5   3   2   30.85    1.94
   5   3   3    1.33    0.72
   5   3   3    1.80    0.79
   5   3   4  403.95    5.62
   5   3   4  403.05    6.74
   5   3   4  401.62    6.48
   5   3   5   -0.03    0.53
   5   3   5    0.86    0.47
   5   3   5    0.67    0.66
   5   3   6   51.14    1.93
   5   3   6   48.68    2.25
   5   3   6   45.90    1.94
   5   3   7   11.84    0.87
   5   4 -13   16.18    0.73
  -5  -4  13   14.74    0.87
   5   4 -12   22.73    1.08
  -5  -4  12   21.52    1.29
   5   4 -11   41.10    1.63
  -5  -4  11   38.22    1.94
   5   4 -10    0.28    0.37
   5   4  -9    0.50    0.34
   5   4  -9    0.51    0.39
   5   4  -8    5.32    0.71
   5   4  -8    6.32    0.79
   5   4  -8    7.57    0.81
   5   4  -7   77.89    2.60
   5   4  -7   77.54    2.52
   5   4  -7   76.02    2.53
   5   4  -6    4.66    0.82
   5   4  -6    6.49    0.87
   5   4  -6    4.87    0.64
   5   4  -5    0.51    0.51
   5   4  -5    0.83    0.52
   5   4  -4  160.32    4.08
   5   4  -4  162.25    4.04
   5   4  -3    1.43    0.49
   5   4  -3    1.20    0.61
   5   4  -2   51.68    2.37
   5   4  -2   48.54    2.32
   5   4  -2   48.02    2.16
   5   4  -1   66.27    2.63
   5   4  -1   68.31    2.76
   5   4  -1   65.62    2.60
   5   4   0   10.64    1.14
   5   4   0    9.95    1.17
   5   4   0    9.91    1.13
   5   4   1  163.38    3.96
   5   4   1  165.29    4.33
   5   4   1  168.63    4.27
   5   4   2   63.58    2.74
   5   4   2   61.01    2.65
   5   4   3    4.01    0.90
   5   4   3    4.56    0.88
   5   4   4  143.05    3.89
   5   4   4  136.77    3.72
   5   4   5   22.91    1.55
   5   4   5   20.73    1.39
   5   4   6   21.95    1.36
   5   4   6   21.51    1.21
   5   4   7    4.89    0.49
   5   5 -12   29.43    1.04
  -5  -5  12   29.01    1.21
   5   5 -11   58.78    1.73
  -5  -5  11   58.02    1.99
   5   5 -10   12.31    0.91
  -5  -5  10   11.52    1.07
   5   5  -9   59.11    2.04
   5   5  -9   59.02    1.94
  -5  -5   9   54.95    2.20
   5   5  -8    2.24    0.45
  -5  -5   8    1.75    0.60
   5   5  -8    1.97    0.49
   5   5  -8    1.43    0.45
   5   5  -7    8.36    0.87
   5   5  -7    9.81    0.91
   5   5  -7    8.67    0.93
  -5  -5   7    8.94    0.92
   5   5  -6    0.10    0.46
   5   5  -6    1.56    0.47
   5   5  -6    0.60    0.48
   5   5  -5   52.98    2.30
   5   5  -5   51.77    1.95
   5   5  -5   54.17    2.35
   5   5  -4   21.94    1.56
   5   5  -4   19.96    1.50
   5   5  -3   85.89    3.02
   5   5  -3   92.30    3.15
   5   5  -3   90.61    2.69
   5   5  -2   49.67    2.32
   5   5  -2   50.13    2.38
   5   5  -2   47.42    2.09
   5   5  -1  188.33    4.44
   5   5  -1  189.56    4.59
   5   5  -1  183.98    4.19
   5   5   0   41.37    2.14
   5   5   0   44.45    2.27
   5   5   0   43.19    2.10
   5   5   1   77.99    2.94
   5   5   1   81.54    2.89
   5   5   2  407.74    6.49
   5   5   2  413.12    6.35
   5   5   3    6.29    0.92
   5   5   3    6.03    0.91
   5   5   4    0.73    0.48
   5   5   4    0.94    0.51
   5   5   5  115.82    2.80
   5   5   5  115.67    2.73
   5   5   6   85.81    2.00
   5   6 -11   -0.12    0.19
   5   6 -10    0.12    0.26
  -5  -6  10    0.73    0.29
   5   6  -9   52.45    1.72
   5   6  -9   54.39    1.72
  -5  -6   9   52.31    1.58
   5   6  -8   11.70    0.88
   5   6  -8   11.54    0.93
   5   6  -7    7.97    0.76
   5   6  -7    8.59    0.79
   5   6  -7    9.35    0.93
   5   6  -6   92.81    2.49
   5   6  -6   94.57    2.85
   5   6  -5    1.72    0.54
   5   6  -5    1.92    0.58
   5   6  -4   90.31    2.83
   5   6  -4   99.49    3.09
   5   6  -3  169.90    3.95
   5   6  -3  174.92    4.14
   5   6  -2    3.01    0.54
   5   6  -2    3.69    0.79
   5   6  -1  363.67    5.90
   5   6  -1  366.33    5.35
   5   6   0    0.86    0.55
   5   6   0    0.35    0.48
   5   6   1   54.32    2.19
   5   6   1   61.30    2.27
   5   6   2  146.36    3.38
   5   6   2  150.21    3.40
   5   6   3  138.95    3.02
   5   6   3  146.50    3.15
   5   6   4   11.35    0.82
   5   6   4   10.53    0.83
   5   6   5   98.81    2.04
   5   7  -9   34.49    1.11
   5   7  -8   53.56    1.59
   5   7  -7   12.27    0.88
   5   7  -6   58.93    1.97
   5   7  -5   42.06    1.75
   5   7  -4    6.50    0.80
   5   7  -3   40.62    1.75
   5   7  -2   13.88    1.06
   5   7  -1   27.40    1.40
   5   7   0   57.86    1.91
   5   7   0   62.23    1.86
   5   7   1    1.95    0.43
   5   7   1    1.57    0.42
   5   7   2   14.82    0.83
   5   7   2   15.01    0.88
   5   7   3  249.27    3.15
   5   8  -6   10.95    0.64
   5   8  -5   75.97    1.75
   5   8  -4   63.11    1.63
   5   8  -3  109.50    2.13
   5   8  -2   39.29    1.23
   5   8  -1    8.83    0.54
  -5  -8   1    6.17    0.54
   6  -7  -3  176.01    2.45
  -6   7   3  161.04    2.48
  -6   7   2    3.92    0.50
   6  -7  -2    4.02    0.42
  -6   7   1   56.13    1.84
  -6   7   0  149.53    3.07
  -6   7  -1   10.02    0.87
  -6   7  -2    5.73    0.68
  -6   7  -3   38.94    1.48
  -6   7  -4   28.68    1.11
   6  -6  -6   20.87    0.91
  -6   6   6   20.39    1.08
   6  -6  -5    2.90    0.43
   6  -6  -4    3.59    0.50
  -6   6   4    3.18    0.48
  -6   6   3    1.35    0.51
   6  -6  -3    1.89    0.40
  -6   6   2    3.37    0.63
   6  -6  -2    4.22    0.51
  -6   6   1    5.66    0.87
   6  -6   0   14.65    0.76
  -6   6   0   12.94    1.27
   6  -6   1    2.20    0.39
   6  -6   2   10.97    0.76
   6  -6   3   21.32    1.05
   6  -6   4    7.75    0.63
   6  -6   5  128.58    2.28
   6  -6   6   37.34    1.08
   6  -5  -8   30.84    1.06
  -6   5   8   29.38    1.26
   6  -5  -7   27.65    1.19
   6  -5  -7   26.95    1.11
  -6   5   7   26.29    1.40
   6  -5  -6   61.98    1.91
   6  -5  -6   64.95    1.84
   6  -5  -5    0.91    0.38
   6  -5  -5    0.72    0.33
   6  -5  -4   68.77    2.16
  -6   5   4   67.10    2.15
   6  -5  -3   53.61    1.91
   6  -5  -3   51.83    1.50
  -6   5   3   52.36    2.17
   6  -5  -2  211.60    3.72
   6  -5  -2  204.41    3.39
  -6   5   2  204.82    4.50
   6  -5  -1  103.40    2.60
   6  -5   0   46.26    1.81
   6  -5   1  105.83    2.80
   6  -5   2    4.31    0.65
   6  -5   3  119.79    2.97
   6  -5   4   98.75    2.60
   6  -5   5   64.99    2.01
   6  -5   6   84.18    2.06
   6  -5   7    5.80    0.50
   6  -4  -9   40.00    1.28
  -6   4   9   41.81    1.56
   6  -4  -8   38.59    1.45
  -6   4   8   37.68    1.75
   6  -4  -7   22.29    1.23
   6  -4  -7   24.60    1.28
   6  -4  -6    9.51    0.87
   6  -4  -6    9.62    0.88
   6  -4  -5   39.23    1.72
   6  -4  -5   42.03    1.76
   6  -4  -5   38.40    1.38
   6  -4  -4   56.11    2.00
   6  -4  -4   52.52    1.97
   6  -4  -4   51.02    1.80
  -6   4   3    5.59    0.80
   6  -4  -3    6.04    0.71
   6  -4  -3    5.36    0.72
   6  -4  -3    5.08    0.65
   6  -4  -2   95.40    2.76
   6  -4  -1   27.00    1.55
   6  -4   0    9.21    1.03
   6  -4   1   92.18    3.02
   6  -4   1   93.08    2.95
   6  -4   2   32.57    1.81
   6  -4   2   32.86    1.78
   6  -4   3  167.88    3.83
   6  -4   3  166.94    3.89
   6  -4   4  103.12    2.84
   6  -4   4  101.59    2.92
   6  -4   5    9.39    0.86
   6  -4   5    9.79    0.92
   6  -4   6   77.45    2.06
   6  -4   6   80.36    2.23
   6  -4   7    3.46    0.40
   6  -4   7    2.88    0.43
   6  -3 -10  180.92    2.64
  -6   3  10  167.18    2.90
   6  -3  -9    0.62    0.36
  -6   3   9    0.26    0.42
   6  -3  -8  146.28    3.17
  -6   3   8  141.59    3.54
   6  -3  -7   76.63    2.39
   6  -3  -7   82.20    2.56
   6  -3  -6    4.80    0.81
   6  -3  -6    4.65    0.67
   6  -3  -6    4.32    0.60
   6  -3  -5   33.58    1.61
   6  -3  -5   32.85    1.71
   6  -3  -5   32.52    1.56
   6  -3  -4   91.03    2.75
   6  -3  -4   94.09    2.65
   6  -3  -4   88.54    2.69
   6  -3  -3  180.04    3.74
   6  -3  -3  177.48    3.48
   6  -3  -3  174.97    3.97
   6  -3  -2  191.83    3.73
   6  -3  -2  186.97    4.22
   6  -3  -1  158.78    4.20
   6  -3  -1  163.01    4.02
   6  -3   0  106.35    3.45
   6  -3   0  108.56    3.34
   6  -3   1  258.46    5.27
   6  -3   1  254.94    5.13
   6  -3   2  301.19    5.64
   6  -3   2  302.94    5.49
   6  -3   3    0.39    0.55
   6  -3   3    0.85    0.53
   6  -3   4   50.66    2.22
   6  -3   4   52.69    2.21
   6  -3   5   20.64    1.36
   6  -3   5   23.09    1.37
   6  -3   6    6.18    0.75
   6  -3   6    7.03    0.73
   6  -3   7   17.84    1.03
   6  -3   7   20.02    1.02
   6  -3   8   11.59    0.67
  -6   2  11    0.79    0.35
   6  -2 -10   91.96    2.08
  -6   2  10   86.12    2.19
   6  -2  -9   24.81    1.31
  -6   2   9   24.57    1.42
   6  -2  -8   35.10    1.69
  -6   2   8   31.45    1.70
   6  -2  -7   38.79    1.87
   6  -2  -6    4.52    0.81
   6  -2  -6    2.50    0.52
   6  -2  -6    3.47    0.60
   6  -2  -5   32.95    1.57
   6  -2  -5   32.72    1.79
   6  -2  -5   33.60    1.77
   6  -2  -4  161.42    3.27
   6  -2  -4  162.13    3.81
   6  -2  -4  158.83    3.89
   6  -2  -3   11.46    1.04
   6  -2  -3   10.54    1.12
   6  -2  -2  236.53    5.09
   6  -2  -2  240.66    4.38
   6  -2  -2  239.72    4.94
   6  -2  -1   92.73    3.22
   6  -2  -1   90.71    2.55
   6  -2  -1   89.22    3.07
   6  -2   0   15.50    1.41
   6  -2   0   13.38    1.26
   6  -2   1   11.42    1.28
   6  -2   1   13.78    1.31
   6  -2   2   31.78    1.94
   6  -2   2   32.04    1.84
   6  -2   3   29.80    1.85
   6  -2   3   29.39    1.70
   6  -2   4   23.40    1.64
   6  -2   4   24.71    1.51
   6  -2   5    0.72    0.54
   6  -2   5    1.08    0.42
   6  -2   6    4.80    0.76
   6  -2   6    4.75    0.61
   6  -2   7   83.58    2.35
   6  -2   8   49.57    1.55
  -6   1  11   18.63    1.13
   6  -1 -11   23.34    0.86
   6  -1 -10   24.16    1.17
  -6   1  10   23.48    1.04
   6  -1  -9  126.25    2.95
  -6   1   9  117.49    2.76
   6  -1  -8   25.21    1.49
  -6   1   8   22.58    1.35
   6  -1  -7  142.81    3.63
  -6   1   7  139.66    3.46
   6  -1  -6   65.12    2.57
   6  -1  -6   65.04    2.47
   6  -1  -5   46.67    2.17
   6  -1  -5   47.71    2.20
   6  -1  -4  604.80    7.60
   6  -1  -4  597.55    7.73
   6  -1  -3   12.96    1.15
   6  -1  -3   13.23    1.26
   6  -1  -2  128.45    3.64
   6  -1  -2  125.75    3.27
   6  -1  -2  129.36    3.69
   6  -1  -2  128.37    3.71
   6  -1  -1   56.46    2.45
   6  -1  -1   53.57    2.05
   6  -1  -1   56.15    2.45
   6  -1  -1   54.80    2.55
   6  -1   0  257.30    5.21
   6  -1   0  257.11    5.09
   6  -1   0  252.00    5.43
   6  -1   1  203.42    4.70
   6  -1   1  197.59    4.42
   6  -1   1  195.56    4.73
   6  -1   2    0.66    0.74
   6  -1   2    0.94    0.57
   6  -1   2    0.99    0.53
   6  -1   3  110.83    3.47
   6  -1   3  107.85    3.09
   6  -1   3  111.73    3.47
   6  -1   4    0.86    0.55
   6  -1   4    1.73    0.62
   6  -1   4    1.53    0.44
   6  -1   5    4.66    0.76
   6  -1   5    3.76    0.74
   6  -1   5    3.34    0.51
   6  -1   6   52.51    2.13
   6  -1   7   25.35    1.34
   6  -1   8  158.94    2.83
  -6   0  11    6.13    0.71
   6   0 -11    6.34    0.47
   6   0 -10    0.61    0.31
   6   0  -9   33.59    1.56
   6   0  -8   13.87    1.16
   6   0  -7  124.55    3.40
   6   0  -6  114.55    3.35
   6   0  -6  109.23    3.27
   6   0  -5   98.00    3.18
   6   0  -5   98.12    3.15
   6   0  -4  601.70    7.61
   6   0  -4  603.79    7.77
   6   0  -3  318.44    5.34
   6   0  -3  317.47    5.47
   6   0  -3  310.71    5.60
   6   0  -3  313.20    5.40
   6   0  -2   32.07    1.77
   6   0  -2   31.33    1.69
   6   0  -2   31.80    1.82
   6   0  -2   31.33    1.90
   6   0  -1  141.47    3.66
   6   0  -1  135.98    3.36
   6   0  -1  141.96    3.73
   6   0  -1  144.61    3.95
   6   0   0  100.51    3.13
   6   0   0  103.67    2.78
   6   0   0  103.48    3.12
   6   0   0  102.57    3.44
   6   0   1    3.20    0.90
   6   0   1    3.32    0.72
   6   0   1    3.83    0.68
   6   0   2   83.64    2.92
   6   0   2   84.45    2.66
   6   0   2   82.50    3.12
   6   0   3    9.70    1.09
   6   0   3    9.62    0.87
   6   0   3    8.42    0.82
   6   0   3    9.40    1.15
   6   0   4    7.34    0.96
   6   0   4    6.96    0.91
   6   0   5  126.53    3.38
   6   0   5  123.89    3.14
   6   0   6   82.27    2.55
   6   0   6   77.84    2.15
   6   0   7    3.85    0.57
   6   0   8  166.64    2.76
  -6  -1  11   53.35    1.71
   6   1 -11   60.29    1.23
  -6  -1  10   84.88    2.47
   6   1 -10   97.42    2.23
   6   1  -9   17.39    1.13
   6   1  -8   54.16    2.14
   6   1  -7   41.87    2.02
   6   1  -6  810.47    8.86
   6   1  -5   23.00    1.59
   6   1  -5   23.18    1.55
   6   1  -4   79.69    2.87
   6   1  -4   87.60    2.91
   6   1  -4   85.14    2.67
   6   1  -3  219.44    4.63
   6   1  -3  214.66    4.50
   6   1  -3  212.69    4.44
   6   1  -2   17.92    1.21
   6   1  -2   17.20    1.32
   6   1  -2   18.36    1.33
   6   1  -2   16.42    1.35
   6   1  -1   41.11    1.88
   6   1  -1   38.92    1.87
   6   1  -1   40.12    1.89
   6   1  -1   41.48    2.16
   6   1   0    2.33    0.80
   6   1   0    3.50    0.63
   6   1   0    3.13    0.60
   6   1   0    2.71    0.56
   6   1   0    2.89    0.55
   6   1   1    3.00    0.84
   6   1   1    2.37    0.53
   6   1   1    2.97    0.53
   6   1   1    2.29    0.47
   6   1   1    2.93    0.60
   6   1   2  105.97    3.06
   6   1   2  112.34    2.71
   6   1   2  114.47    3.06
   6   1   2  112.72    3.57
   6   1   3    1.96    0.74
   6   1   3    1.99    0.60
   6   1   3    1.87    0.53
   6   1   4   20.29    1.34
   6   1   4   21.02    1.34
   6   1   4   19.19    1.38
   6   1   5   41.52    1.80
   6   1   5   39.56    1.74
   6   1   6   52.10    1.85
   6   1   6   50.00    1.68
   6   1   7    0.40    0.28
   6   1   8   92.81    1.75
  -6  -2  10    9.17    0.66
   6   2 -10    9.35    0.66
   6   2  -9  130.86    2.81
   6   2  -8    2.82    0.58
   6   2  -7    5.11    0.79
   6   2  -6  291.10    5.26
   6   2  -5   12.98    1.18
   6   2  -4   10.87    1.17
   6   2  -4   11.71    1.06
   6   2  -4   10.20    0.95
   6   2  -3    2.52    0.61
   6   2  -3    2.77    0.72
   6   2  -3    2.70    0.57
   6   2  -2    2.26    0.64
   6   2  -2    1.94    0.58
   6   2  -2    2.97    0.57
   6   2  -2    2.18    0.49
   6   2  -1    1.00    0.59
   6   2  -1    0.67    0.45
   6   2  -1    1.90    0.47
   6   2  -1    1.68    0.51
   6   2   0  133.34    3.28
   6   2   0  142.42    3.00
   6   2   0  130.57    3.32
   6   2   0  134.34    3.79
   6   2   1   39.90    1.73
   6   2   1   42.10    1.92
   6   2   1   39.85    2.13
   6   2   2   18.91    1.33
   6   2   2   17.52    1.46
   6   2   3   62.59    2.32
   6   2   3   63.71    2.50
   6   2   4   26.81    1.50
   6   2   4   25.89    1.52
   6   2   5    0.87    0.39
   6   2   6  205.49    3.05
  -6  -3  11    6.32    0.61
   6   3 -10   -0.28    0.21
   6   3  -9   36.54    1.39
   6   3  -8    5.92    0.69
   6   3  -7   45.09    1.89
   6   3  -6   44.48    2.01
   6   3  -5   38.97    1.95
   6   3  -4   87.60    2.92
   6   3  -3   29.85    1.77
   6   3  -3   29.22    1.52
   6   3  -3   32.07    1.63
   6   3  -2  156.19    3.81
   6   3  -2  156.23    3.57
   6   3  -2  161.41    3.70
   6   3  -1   83.57    2.72
   6   3  -1   83.07    2.67
   6   3  -1   83.56    2.81
   6   3   0  325.01    5.10
   6   3   0  326.06    5.32
   6   3   0  326.00    5.63
   6   3   1  134.20    3.06
   6   3   1  132.98    3.42
   6   3   1  137.50    3.66
   6   3   2    1.05    0.56
   6   3   2    0.63    0.47
   6   3   3  227.69    4.27
   6   3   3  217.58    4.34
   6   3   4  110.26    2.83
   6   3   4  104.54    2.72
   6   3   5    1.41    0.41
   6   3   6  219.18    2.59
   6   4  -9   22.03    0.86
  -6  -4   9   21.16    0.98
   6   4  -8  162.02    2.92
   6   4  -7   23.89    1.28
   6   4  -6   49.74    1.96
   6   4  -5   91.21    2.76
   6   4  -4   21.58    1.41
   6   4  -4   21.20    1.26
   6   4  -3   32.13    1.72
   6   4  -3   32.19    1.60
   6   4  -2  161.98    3.76
   6   4  -2  165.28    3.67
   6   4  -2  162.93    3.45
   6   4  -1  105.46    2.92
   6   4  -1  100.93    2.91
   6   4  -1  102.81    2.87
   6   4   0  180.04    3.60
   6   4   0  175.26    3.82
   6   4   0  183.30    3.89
   6   4   1  186.79    3.88
   6   4   1  191.60    3.94
   6   4   2    0.34    0.51
   6   4   2    0.95    0.49
   6   4   3  193.76    3.58
   6   4   3  190.06    3.54
   6   4   4  160.62    2.96
   6   4   4  157.09    2.84
   6   4   5    0.20    0.24
   6   5  -8    7.25    0.50
   6   5  -7    0.96    0.35
   6   5  -6   10.48    0.85
   6   5  -5    2.80    0.54
   6   5  -5    2.44    0.47
   6   5  -4   11.17    0.98
   6   5  -4   13.50    0.97
   6   5  -3   96.87    2.64
   6   5  -3   94.41    2.55
   6   5  -2   25.03    1.37
   6   5  -1   61.01    2.10
   6   5  -1   59.85    1.90
   6   5   0  113.38    2.78
   6   5   0  108.95    2.61
   6   5   1   85.09    2.32
   6   5   1   80.84    2.22
   6   5   2   15.58    0.97
   6   5   2   14.72    0.95
   6   5   3   11.92    0.78
   6   5   3   11.49    0.75
   6   6  -5    3.16    0.42
   6   6  -4   19.57    0.98
   6   6  -3   25.00    1.13
   6   6  -2    8.32    0.69
   6   6  -1    2.01    0.40
   6   6   0    3.25    0.44
   6   6   1    9.25    0.63
   6   6   1   10.35    0.62
   7  -4  -3   91.40    1.68
   7  -4  -2  110.76    2.10
   7  -4  -1    0.54    0.24
   7  -4   0  247.03    3.33
  -7   4   0  178.16    2.68
   7  -4   1   49.35    1.50
   7  -4   2    0.54    0.28
   7  -4   3   80.99    1.72
   7  -3  -7    4.58    0.39
   7  -3  -6   25.94    0.98
   7  -3  -4  124.02    2.38
   7  -3  -3   13.65    0.87
   7  -3  -2  323.32    4.24
   7  -3  -1  129.95    2.77
   7  -3   0   33.35    1.41
   7  -3   1   52.12    1.71
   7  -3   2   11.34    0.80
   7  -3   3   35.66    1.26
   7  -3   4    1.30    0.28
   7  -2  -8   73.49    1.52
   7  -2  -7    5.18    0.51
   7  -2  -6  115.43    2.32
   7  -2  -5  186.28    3.06
   7  -2  -4   82.70    2.04
   7  -2  -4   79.05    2.16
   7  -2  -3   61.76    2.01
   7  -2  -2  228.06    3.91
   7  -2  -1    9.80    0.86
   7  -2   0   11.08    0.91
   7  -2   1  107.50    2.69
   7  -2   1  108.29    2.57
   7  -2   2   -0.06    0.37
   7  -2   2    0.14    0.26
   7  -2   3   65.49    1.93
   7  -2   3   65.27    1.72
   7  -2   4   60.78    1.68
   7  -2   5    3.16    0.36
   7  -1  -8   46.29    1.34
   7  -1  -7    0.85    0.29
   7  -1  -6   32.80    1.35
   7  -1  -5    1.16    0.36
   7  -1  -4   22.06    1.15
   7  -1  -4   20.30    1.20
   7  -1  -3    3.77    0.51
   7  -1  -3    3.55    0.60
   7  -1  -2    7.83    0.81
   7  -1  -1    1.50    0.45
   7  -1   0    5.17    0.68
   7  -1   0    4.62    0.59
   7  -1   1   46.34    1.76
   7  -1   1   49.02    1.68
   7  -1   2   12.40    0.92
   7  -1   2   11.16    0.77
   7  -1   3    8.54    0.72
   7  -1   4   88.81    2.02
   7  -1   5   28.73    1.00
   7   0  -8    5.44    0.53
   7   0  -7   18.09    0.99
   7   0  -6   69.26    2.01
   7   0  -5    8.66    0.77
   7   0  -4  120.58    2.74
   7   0  -4  123.89    2.85
   7   0  -3    0.37    0.32
   7   0  -3    0.69    0.38
   7   0  -2   99.01    2.55
   7   0  -1   50.07    1.76
   7   0   0    8.26    0.71
   7   0   1   15.26    0.95
   7   0   2  130.75    2.60
   7   0   3    0.56    0.25
   7   0   4  114.67    2.08
   7   1  -8    1.91    0.35
   7   1  -7   14.14    0.87
   7   1  -6  209.40    3.42
   7   1  -5  158.12    3.11
   7   1  -4  157.18    3.10
   7   1  -3    5.31    0.63
   7   1  -2  131.07    2.67
   7   1  -2  127.61    2.61
   7   1  -1   87.52    2.44
   7   1   0    0.81    0.46
   7   1   1   37.95    1.61
   7   1   2  100.32    2.45
   7   2  -8   11.07    0.62
   7   2  -7   53.41    1.53
   7   2  -6   52.15    1.64
   7   2  -5   27.69    1.27
   7   2  -4  113.83    2.57
   7   2  -3   11.57    0.84
   7   2  -2   66.38    1.85
   7   2  -1    4.05    0.58
   7   2   0    7.06    0.73
   7   2   1   53.52    1.74
   7   2   2   39.24    1.40
   7   2   3   30.41    1.11
   7   3  -7    1.10    0.27
   7   3  -6   20.45    0.94
   7   3  -5   39.92    1.37
   7   3  -4    0.43    0.27
   7   3  -3   12.67    0.81
   7   3  -2    3.41    0.45
   7   3   0   76.59    1.84
   7   3   1    0.40    0.26
   7   3   2  128.08    2.08
   7   4  -5   60.85    1.41
   0   0   0    0.00    0.00


TITL P093 in P-1
REM P-1 (#2 in standard setting)
CELL 1.54184   6.219200   9.150586  13.496781  98.6297  96.9600  92.6785
ZERR    2.00   0.000234   0.000241   0.000344   0.0022   0.0026   0.0026
LATT  1
SFAC C H N O S
UNIT 30.00 40.00 4.00 4.00 2.00
TREF
HKLF 4
END
_computing_structure_solution     'SHELXT 2014/5 (Sheldrick, 2014)'
;
_shelx_hkl_checksum              60280
_shelx_shelxl_version_number     2014/7
_olex2_date_sample_data_collection 2016-06-22
_olex2_submission_special_instructions 'No special instructions were received'
_oxdiff_exptl_absorpt_empirical_details
;
Empirical correction (ABSPACK) includes:
- Absorption correction using spherical harmonics
- Frame scaling
;
_oxdiff_exptl_absorpt_empirical_full_max 1.380
_oxdiff_exptl_absorpt_empirical_full_min 0.816
loop_
_space_group_symop_operation_xyz
'x, y, z'
'-x, -y, -z'
loop_
_atom_site_label
_atom_site_type_symbol
_atom_site_fract_x
_atom_site_fract_y
_atom_site_fract_z
_atom_site_U_iso_or_equiv
_atom_site_adp_type
_atom_site_occupancy
_atom_site_site_symmetry_order
_atom_site_calc_flag
_atom_site_refinement_flags_posn
S1 S 0.32202(5) 0.56038(3) 0.82203(2) 0.01888(10) Uani 1 1 d .
O1 O 0.24737(15) 0.66949(10) 0.76190(7) 0.0263(2) Uani 1 1 d .
O2 O 0.17200(15) 0.48815(10) 0.87492(7) 0.0263(2) Uani 1 1 d .
N2 N 0.33567(18) 0.17536(12) 0.77002(8) 0.0216(2) Uani 1 1 d .
N1 N 0.41562(17) 0.42809(11) 0.74505(8) 0.0186(2) Uani 1 1 d .
C10 C 0.4441(2) 0.35479(14) 0.56463(9) 0.0202(3) Uani 1 1 d .
C4 C 0.4762(2) 0.29967(13) 0.78541(9) 0.0182(2) Uani 1 1 d .
C2 C 0.7226(2) 0.71741(14) 0.86798(10) 0.0215(3) Uani 1 1 d .
H2A H 0.6633 0.7909 0.8294 0.026 Uiso 1 1 calc R
H2B H 0.7869 0.6446 0.8226 0.026 Uiso 1 1 calc R
C5 C 0.6657(2) 0.27098(14) 0.83968(10) 0.0219(3) Uani 1 1 d .
H5 H 0.7879 0.3359 0.8603 0.026 Uiso 1 1 calc R
C3 C 0.5419(2) 0.64218(14) 0.91230(9) 0.0214(3) Uani 1 1 d .
H3A H 0.4868 0.7148 0.9613 0.026 Uiso 1 1 calc R
H3B H 0.6024 0.5661 0.9480 0.026 Uiso 1 1 calc R
C9 C 0.5240(2) 0.46385(14) 0.65874(9) 0.0210(3) Uani 1 1 d .
H9A H 0.6799 0.4605 0.6747 0.025 Uiso 1 1 calc R
H9B H 0.4938 0.5633 0.6470 0.025 Uiso 1 1 calc R
C11 C 0.5792(2) 0.25155(15) 0.52468(10) 0.0281(3) Uani 1 1 d .
H11 H 0.7197 0.2485 0.5567 0.034 Uiso 1 1 calc R
C6 C 0.6402(2) 0.12351(15) 0.85851(10) 0.0262(3) Uani 1 1 d .
H6 H 0.7427 0.0734 0.8939 0.031 Uiso 1 1 calc R
C8 C 0.1199(2) 0.15781(16) 0.71327(12) 0.0315(3) Uani 1 1 d .
H8A H 0.0588 0.2525 0.7161 0.047 Uiso 1 1 calc GR
H8B H 0.0294 0.0920 0.7420 0.047 Uiso 1 1 calc GR
H8C H 0.1289 0.1173 0.6441 0.047 Uiso 1 1 calc GR
C7 C 0.4364(2) 0.06822(14) 0.81494(10) 0.0256(3) Uani 1 1 d .
H7 H 0.3767 -0.0266 0.8158 0.031 Uiso 1 1 calc R
C15 C 0.2341(2) 0.35729(17) 0.51659(10) 0.0290(3) Uani 1 1 d .
H15 H 0.1417 0.4257 0.5429 0.035 Uiso 1 1 calc R
C1 C 0.8962(2) 0.79192(15) 0.95216(11) 0.0278(3) Uani 1 1 d .
H1A H 1.0082 0.8405 0.9234 0.042 Uiso 1 1 calc GR
H1B H 0.9577 0.7186 0.9890 0.042 Uiso 1 1 calc GR
H1C H 0.8321 0.8636 0.9971 0.042 Uiso 1 1 calc GR
C12 C 0.5066(3) 0.15254(17) 0.43728(12) 0.0378(4) Uani 1 1 d .
H12 H 0.5986 0.0840 0.4107 0.045 Uiso 1 1 calc R
C13 C 0.2993(3) 0.15570(18) 0.39011(11) 0.0407(4) Uani 1 1 d .
H13 H 0.2509 0.0891 0.3317 0.049 Uiso 1 1 calc R
C14 C 0.1614(3) 0.2578(2) 0.42918(11) 0.0397(4) Uani 1 1 d .
H14 H 0.0208 0.2597 0.3971 0.048 Uiso 1 1 calc R
loop_
_atom_site_aniso_label
_atom_site_aniso_U_11
_atom_site_aniso_U_22
_atom_site_aniso_U_33
_atom_site_aniso_U_23
_atom_site_aniso_U_13
_atom_site_aniso_U_12
S1 0.01916(16) 0.01880(16) 0.01869(16) 0.00207(11) 0.00291(11) 0.00313(11)
O1 0.0265(5) 0.0247(5) 0.0282(5) 0.0065(4) 0.0004(4) 0.0076(4)
O2 0.0244(5) 0.0261(5) 0.0297(5) 0.0027(4) 0.0106(4) 0.0019(4)
N2 0.0218(5) 0.0196(5) 0.0224(5) 0.0003(4) 0.0035(4) -0.0013(4)
N1 0.0223(5) 0.0183(5) 0.0149(5) 0.0018(4) 0.0029(4) 0.0013(4)
C10 0.0252(6) 0.0204(6) 0.0151(6) 0.0036(5) 0.0031(5) -0.0024(5)
C4 0.0201(6) 0.0176(6) 0.0165(6) 0.0004(4) 0.0041(5) 0.0002(5)
C2 0.0239(6) 0.0200(6) 0.0199(6) 0.0017(5) 0.0010(5) 0.0016(5)
C5 0.0225(6) 0.0212(6) 0.0207(6) 0.0000(5) 0.0009(5) 0.0017(5)
C3 0.0277(7) 0.0198(6) 0.0157(6) 0.0006(5) 0.0015(5) 0.0011(5)
C9 0.0238(6) 0.0224(6) 0.0164(6) 0.0027(5) 0.0033(5) -0.0017(5)
C11 0.0344(8) 0.0265(7) 0.0242(7) 0.0042(5) 0.0061(6) 0.0041(6)
C6 0.0326(7) 0.0215(6) 0.0242(7) 0.0026(5) 0.0014(6) 0.0069(5)
C8 0.0225(7) 0.0284(7) 0.0403(8) -0.0003(6) 0.0004(6) -0.0050(5)
C7 0.0348(7) 0.0171(6) 0.0257(7) 0.0026(5) 0.0079(6) 0.0013(5)
C15 0.0258(7) 0.0393(8) 0.0217(7) 0.0056(6) 0.0016(5) 0.0002(6)
C1 0.0291(7) 0.0236(7) 0.0274(7) -0.0007(5) -0.0033(6) -0.0005(5)
C12 0.0587(11) 0.0255(7) 0.0297(8) -0.0020(6) 0.0159(7) 0.0007(7)
C13 0.0629(11) 0.0353(8) 0.0200(7) -0.0040(6) 0.0096(7) -0.0235(8)
C14 0.0338(8) 0.0598(11) 0.0225(7) 0.0096(7) -0.0040(6) -0.0187(7)
loop_
_atom_type_symbol
_atom_type_description
_atom_type_scat_dispersion_real
_atom_type_scat_dispersion_imag
_atom_type_scat_source
C C 0.0181 0.0091 'International Tables Vol C Tables 4.2.6.8 and 6.1.1.4'
H H 0.0000 0.0000 'International Tables Vol C Tables 4.2.6.8 and 6.1.1.4'
N N 0.0311 0.0180 'International Tables Vol C Tables 4.2.6.8 and 6.1.1.4'
O O 0.0492 0.0322 'International Tables Vol C Tables 4.2.6.8 and 6.1.1.4'
S S 0.3331 0.5567 'International Tables Vol C Tables 4.2.6.8 and 6.1.1.4'
loop_
_exptl_crystal_face_index_h
_exptl_crystal_face_index_k
_exptl_crystal_face_index_l
_exptl_crystal_face_perp_dist
0 -1 9 0.0858
0 1 -9 0.1022
4 1 1 0.1263
-3 0 -4 0.1370
-4 -1 1 0.1289
-1 -6 4 0.0970
-3 3 -3 0.1207
4 -1 2 0.1154
-4 -1 0 0.1220
0 4 5 0.1110
0 0 -9 0.1003
-1 -5 -3 0.0917
4 -1 -1 0.1017
-3 4 3 0.0858
0 5 3 0.1011
1 -4 -6 0.1065
0 5 -5 0.0840
1 6 -1 0.0840
-1 6 -1 0.0742
loop_
_geom_angle_atom_site_label_1
_geom_angle_atom_site_label_2
_geom_angle_atom_site_label_3
_geom_angle
O1 S1 N1 106.73(5)
O1 S1 C3 108.59(6)
O2 S1 O1 119.48(6)
O2 S1 N1 106.20(5)
O2 S1 C3 107.51(6)
N1 S1 C3 107.83(6)
C4 N2 C8 126.43(11)
C7 N2 C4 108.22(11)
C7 N2 C8 125.32(11)
C4 N1 S1 116.85(8)
C4 N1 C9 117.11(10)
C9 N1 S1 120.50(8)
C11 C10 C9 120.58(12)
C11 C10 C15 119.15(13)
C15 C10 C9 120.27(12)
N2 C4 N1 120.54(11)
C5 C4 N2 108.83(11)
C5 C4 N1 130.61(12)
H2A C2 H2B 108.1
C3 C2 H2A 109.6
C3 C2 H2B 109.6
C3 C2 C1 110.21(11)
C1 C2 H2A 109.6
C1 C2 H2B 109.6
C4 C5 H5 126.6
C4 C5 C6 106.87(12)
C6 C5 H5 126.6
S1 C3 H3A 108.6
S1 C3 H3B 108.6
C2 C3 S1 114.44(9)
C2 C3 H3A 108.6
C2 C3 H3B 108.6
H3A C3 H3B 107.6
N1 C9 C10 110.36(10)
N1 C9 H9A 109.6
N1 C9 H9B 109.6
C10 C9 H9A 109.6
C10 C9 H9B 109.6
H9A C9 H9B 108.1
C10 C11 H11 119.7
C10 C11 C12 120.54(14)
C12 C11 H11 119.7
C5 C6 H6 126.3
C7 C6 C5 107.36(12)
C7 C6 H6 126.3
N2 C8 H8A 109.5
N2 C8 H8B 109.5
N2 C8 H8C 109.5
H8A C8 H8B 109.5
H8A C8 H8C 109.5
H8B C8 H8C 109.5
N2 C7 C6 108.72(12)
N2 C7 H7 125.6
C6 C7 H7 125.6
C10 C15 H15 119.9
C10 C15 C14 120.22(14)
C14 C15 H15 119.9
C2 C1 H1A 109.5
C2 C1 H1B 109.5
C2 C1 H1C 109.5
H1A C1 H1B 109.5
H1A C1 H1C 109.5
H1B C1 H1C 109.5
C11 C12 H12 120.0
C13 C12 C11 120.05(15)
C13 C12 H12 120.0
C12 C13 H13 119.9
C12 C13 C14 120.24(14)
C14 C13 H13 119.9
C15 C14 H14 120.1
C13 C14 C15 119.80(15)
C13 C14 H14 120.1
loop_
_geom_bond_atom_site_label_1
_geom_bond_atom_site_label_2
_geom_bond_distance
S1 O1 1.4374(9)
S1 O2 1.4361(10)
S1 N1 1.6488(10)
S1 C3 1.7724(13)
N2 C4 1.3760(16)
N2 C8 1.4514(18)
N2 C7 1.3657(17)
N1 C4 1.4154(16)
N1 C9 1.4841(15)
C10 C9 1.5088(17)
C10 C11 1.3858(19)
C10 C15 1.3891(19)
C4 C5 1.3679(18)
C2 H2A 0.9700
C2 H2B 0.9700
C2 C3 1.5196(18)
C2 C1 1.5241(18)
C5 H5 0.9300
C5 C6 1.4154(18)
C3 H3A 0.9700
C3 H3B 0.9700
C9 H9A 0.9700
C9 H9B 0.9700
C11 H11 0.9300
C11 C12 1.389(2)
C6 H6 0.9300
C6 C7 1.370(2)
C8 H8A 0.9600
C8 H8B 0.9600
C8 H8C 0.9600
C7 H7 0.9300
C15 H15 0.9300
C15 C14 1.391(2)
C1 H1A 0.9600
C1 H1B 0.9600
C1 H1C 0.9600
C12 H12 0.9300
C12 C13 1.370(3)
C13 H13 0.9300
C13 C14 1.386(3)
C14 H14 0.9300
loop_
_geom_torsion_atom_site_label_1
_geom_torsion_atom_site_label_2
_geom_torsion_atom_site_label_3
_geom_torsion_atom_site_label_4
_geom_torsion
S1 N1 C4 N2 97.72(12)
S1 N1 C4 C5 -84.07(15)
S1 N1 C9 C10 -135.74(10)
O1 S1 N1 C4 -173.13(9)
O1 S1 N1 C9 33.87(11)
O1 S1 C3 C2 -52.33(11)
O2 S1 N1 C4 -44.63(11)
O2 S1 N1 C9 162.36(9)
O2 S1 C3 C2 177.09(9)
N2 C4 C5 C6 -0.14(14)
N1 S1 C3 C2 62.96(10)
N1 C4 C5 C6 -178.51(12)
C10 C11 C12 C13 -0.4(2)
C10 C15 C14 C13 0.1(2)
C4 N2 C7 C6 -0.15(14)
C4 N1 C9 C10 71.32(14)
C4 C5 C6 C7 0.05(15)
C5 C6 C7 N2 0.06(15)
C3 S1 N1 C4 70.36(10)
C3 S1 N1 C9 -82.64(10)
C9 N1 C4 N2 -108.34(13)
C9 N1 C4 C5 69.87(17)
C9 C10 C11 C12 -179.12(12)
C9 C10 C15 C14 179.28(12)
C11 C10 C9 N1 -109.80(13)
C11 C10 C15 C14 -0.4(2)
C11 C12 C13 C14 0.1(2)
C8 N2 C4 N1 0.58(19)
C8 N2 C4 C5 -177.98(12)
C8 N2 C7 C6 178.04(12)
C7 N2 C4 N1 178.75(10)
C7 N2 C4 C5 0.18(14)
C15 C10 C9 N1 70.56(15)
C15 C10 C11 C12 0.5(2)
C1 C2 C3 S1 176.54(9)
C12 C13 C14 C15 0.0(2)
loop_
_exptl_oxdiff_crystal_face_indexfrac_h
_exptl_oxdiff_crystal_face_indexfrac_k
_exptl_oxdiff_crystal_face_indexfrac_l
_exptl_oxdiff_crystal_face_x
_exptl_oxdiff_crystal_face_y
_exptl_oxdiff_crystal_face_z
0.0010 -1.0048 9.0009 0.0118 -1.0218 0.1650
-0.0010 1.0048 -9.0009 -0.0118 1.0218 -0.1650
4.0006 1.0009 0.9998 -0.0245 -0.0687 1.0477
-3.0007 0.0010 -3.9999 -0.0506 0.4225 -0.8305
-4.0003 -1.0020 1.0006 -0.0099 -0.1572 -1.0025
-1.0010 -6.0018 3.9968 0.8891 -0.4933 -0.3852
-2.9998 3.0000 -2.9976 -0.5665 0.3255 -0.6935
4.0002 -0.9994 1.9986 0.2909 -0.1922 0.9940
-4.0005 -1.0015 0.0004 0.0073 -0.0443 -1.0251
0.0017 3.9967 5.0037 -0.7508 -0.5436 0.2653
-0.0013 0.0049 -9.0016 0.1544 1.0165 -0.2031
-1.0017 -4.9981 -3.0038 0.8430 0.3026 -0.5051
3.9998 -0.9977 -1.0020 0.3424 0.1466 0.9263
-2.9987 3.9966 3.0042 -0.8357 -0.3469 -0.5200
0.0017 4.9977 3.0041 -0.8827 -0.3124 0.2583
0.9982 -3.9958 -6.0042 0.8077 0.6662 -0.0412
0.0006 5.0020 -4.9974 -0.7455 0.5912 0.0778
1.0014 6.0001 -0.9962 -0.9406 0.1544 0.4529
-0.9987 5.9993 -0.9957 -1.0201 0.1349 -0.0405
