#------------------------------------------------------------------------------
#$Date: 2019-11-24 11:46:03 +0200 (Sun, 24 Nov 2019) $
#$Revision: 237840 $
#$URL: file:///home/coder/svn-repositories/cod/cif/7/12/53/7125381.cif $
#------------------------------------------------------------------------------
#
# This file is available in the Crystallography Open Database (COD),
# http://www.crystallography.net/
#
# All data on this site have been placed in the public domain by the
# contributors.
#
data_7125381
loop_
_publ_author_name
'Sakaguchi, Yuto'
'Call, Arnau'
'Cibian, Mihaela'
'Yamauchi, Kosei'
'Sakai, Ken'
_publ_section_title
;
 An earth-abundant system for light-driven CO<sub>2</sub> reduction to CO
 using a pyridinophane iron catalyst.
;
_journal_issue                   59
_journal_name_full
'Chemical communications (Cambridge, England)'
_journal_page_first              8552
_journal_page_last               8555
_journal_paper_doi               10.1039/c9cc04191e
_journal_volume                  55
_journal_year                    2019
_chemical_formula_moiety         'C14 H16 Cl2 Co N4, Cl'
_chemical_formula_sum            'C14 H16 Cl3 Co N4'
_chemical_formula_weight         405.59
_space_group_crystal_system      triclinic
_space_group_IT_number           2
_space_group_name_Hall           '-P 1'
_space_group_name_H-M_alt        'P -1'
_atom_sites_solution_hydrogens   mixed
_atom_sites_solution_primary     dual
_audit_creation_date             2018-11-20
_audit_creation_method
;
Olex2 1.2
(compiled 2018.05.29 svn.r3508 for OlexSys, GUI svn.r5506)
;
_audit_update_record
;
2019-01-21 deposited with the CCDC.	2019-06-26 downloaded from the CCDC.
;
_cell_angle_alpha                93.6550(10)
_cell_angle_beta                 98.8980(10)
_cell_angle_gamma                90.0060(10)
_cell_formula_units_Z            2
_cell_length_a                   9.1082(10)
_cell_length_b                   9.8312(10)
_cell_length_c                   9.9666(11)
_cell_measurement_reflns_used    7067
_cell_measurement_temperature    100
_cell_measurement_theta_max      29.036
_cell_measurement_theta_min      2.264
_cell_volume                     879.88(16)
_computing_cell_refinement       'SAINT v8.34A (Bruker, 2013)'
_computing_data_collection       'APEX2 (Bruker, 2007)'
_computing_data_reduction        'SAINT v8.34A (Bruker, 2013)'
_computing_molecular_graphics    'Olex2 (Dolomanov et al., 2009)'
_computing_publication_material  'Olex2 (Dolomanov et al., 2009)'
_computing_structure_refinement  'ShelXL (Sheldrick, 2015)'
_computing_structure_solution    'XT (Sheldrick, 2015)'
_diffrn_ambient_temperature      100
_diffrn_measured_fraction_theta_full 0.996
_diffrn_measured_fraction_theta_max 0.909
_diffrn_measurement_device_type  'Bruker SMART APEX-II CCD'
_diffrn_measurement_method       '\f and \w scans'
_diffrn_radiation_monochromator  graphite
_diffrn_radiation_probe          x-ray
_diffrn_radiation_type           MoK\a
_diffrn_radiation_wavelength     0.71073
_diffrn_reflns_av_R_equivalents  0.0243
_diffrn_reflns_av_unetI/netI     0.0298
_diffrn_reflns_Laue_measured_fraction_full 0.996
_diffrn_reflns_Laue_measured_fraction_max 0.909
_diffrn_reflns_limit_h_max       11
_diffrn_reflns_limit_h_min       -12
_diffrn_reflns_limit_k_max       13
_diffrn_reflns_limit_k_min       -13
_diffrn_reflns_limit_l_max       13
_diffrn_reflns_limit_l_min       -12
_diffrn_reflns_number            10731
_diffrn_reflns_point_group_measured_fraction_full 0.996
_diffrn_reflns_point_group_measured_fraction_max 0.909
_diffrn_reflns_theta_full        25.242
_diffrn_reflns_theta_max         29.088
_diffrn_reflns_theta_min         2.073
_diffrn_source                   'rotating-anode with a mirror focussing unit'
_exptl_absorpt_coefficient_mu    1.431
_exptl_absorpt_correction_T_max  0.7458
_exptl_absorpt_correction_T_min  0.5902
_exptl_absorpt_correction_type   multi-scan
_exptl_absorpt_process_details
;SADABS-2014/4 (Bruker,2014/4) was used for absorption correction. 
wR2(int) was 0.0772 before and 0.0376 after correction. The Ratio 
of minimum to maximum transmission is 0.7914. The \l/2 correction 
factor is 0.00150.'
;
_exptl_crystal_colour            brown
_exptl_crystal_colour_primary    brown
_exptl_crystal_density_diffrn    1.531
_exptl_crystal_density_meas      ?
_exptl_crystal_description       block
_exptl_crystal_F_000             412
_exptl_crystal_recrystallization_method
'slow diffusion of diethylether into a solution of the compound in methanol'
_exptl_crystal_size_max          0.08
_exptl_crystal_size_mid          0.06
_exptl_crystal_size_min          0.02
_refine_diff_density_max         0.688
_refine_diff_density_min         -0.552
_refine_diff_density_rms         0.081
_refine_ls_extinction_method     none
_refine_ls_goodness_of_fit_ref   1.066
_refine_ls_hydrogen_treatment    mixed
_refine_ls_matrix_type           full
_refine_ls_number_parameters     207
_refine_ls_number_reflns         4301
_refine_ls_number_restraints     0
_refine_ls_restrained_S_all      1.066
_refine_ls_R_factor_all          0.0370
_refine_ls_R_factor_gt           0.0332
_refine_ls_shift/su_max          0.000
_refine_ls_shift/su_mean         0.000
_refine_ls_structure_factor_coef Fsqd
_refine_ls_weighting_details
'w=1/[\s^2^(Fo^2^)+(0.0528P)^2^+0.5539P] where P=(Fo^2^+2Fc^2^)/3'
_refine_ls_weighting_scheme      calc
_refine_ls_wR_factor_gt          0.0925
_refine_ls_wR_factor_ref         0.0961
_reflns_Friedel_coverage         0.000
_reflns_number_gt                3861
_reflns_number_total             4301
_reflns_threshold_expression     'I > 2\s(I)'
_cod_data_source_file            c9cc04191e2.cif
_cod_data_source_block           yuto_co_0m
_cod_depositor_comments
;
The following automatic conversions were performed:

data item '_diffrn_radiation_probe' value 'X-ray' was changed to
'x-ray' in accordance with the
/home/saulius/struct/COD-crude-data/automatic-downloads/DataCite-retrospective/RSC/depositions/lib/dictionaries/cif_core.dic
dictionary named 'cif_core.dic' version 2.4.2 last updated on
2011-04-26.

data item '_exptl_crystal_density_meas' value 'not measured' was
changed to '?' -- the value is perceived as not measured.

Automatic conversion script
Id: cif_fix_values 6909 2019-04-08 15:41:33Z antanas 
;
_cod_database_code               7125381
_shelx_shelxl_version_number     2018/1
_shelx_space_group_comment
;
The symmetry employed for this shelxl refinement is uniquely defined
by the following loop, which should always be used as a source of
symmetry information in preference to the above space-group names.
They are only intended as comments.
;
_shelx_estimated_absorpt_t_max   0.972
_shelx_estimated_absorpt_t_min   0.894
_olex2_refinement_description
;
1. Fixed Uiso
 At 1.2 times of:
  All C(H) groups, All C(H,H) groups
2.a Secondary CH2 refined with riding coordinates:
 C6(H6A,H6B), C7(H7A,H7B), C13(H13A,H13B), C14(H14A,H14B)
2.b Aromatic/amide H refined with riding coordinates:
 C2(H2A), C3(H3), C4(H4), C9(H9), C10(H10), C11(H11)
;
_shelx_res_file
;
TITL yuto_co_0m_a.res in P-1
    yuto_co_0m.res
    created by SHELXL-2018/1 at 01:53:37 on 20-Nov-2018
REM Old TITL yuto_Co_0m in P-1
REM SHELXT solution in P-1
REM R1 0.086, Rweak 0.004, Alpha 0.039, Orientation as input
REM Formula found by SHELXT: C14 N6 Cl3 Co
CELL 0.71073 9.1082 9.8312 9.9666 93.655 98.898 90.006
ZERR 2 0.001 0.001 0.0011 0.001 0.001 0.001
LATT 1
SFAC C H Cl Co N
UNIT 28 32 6 2 8
EQIV $1 1-X,-Y,-Z
EQIV $2 -X,-Y,-Z
EQIV $3 1-X,1-Y,1-Z
EQIV $4 +X,1+Y,+Z
EQIV $5 -X,1-Y,1-Z
EQIV $6 +X,-1+Y,+Z

L.S. 99
PLAN  10
SIZE 0.02 0.06 0.08
TEMP -173.15
HTAB N2 Cl2_$1
HTAB N4 Cl1_$2
HTAB C4 Cl3_$3
HTAB C6 Cl3_$3
HTAB C9 Cl2_$4
HTAB C13 Cl2_$2
HTAB C13 Cl3_$5
HTAB C14 Cl3_$5
HTAB C14 Cl3_$6
BOND $H
CONF
list 4
ABIN
fmap 2
ACTA
REM <olex2.extras>
REM <HklSrc "%.\\yuto_Co_0m.hkl">
REM </olex2.extras>

WGHT    0.052800    0.553900
FVAR       0.61195
CO1   4    0.271104    0.124843    0.129620    11.00000    0.01954    0.01713 =
         0.01618   -0.00118    0.00485   -0.00661
CL1   3    0.194068    0.127920   -0.097226    11.00000    0.02884    0.02460 =
         0.01719   -0.00033    0.00388   -0.01092
C1    1    0.234727    0.098444    0.397757    11.00000    0.02111    0.01798 =
         0.01911    0.00117    0.00532   -0.00114
N1    5    0.334473    0.127327    0.317984    11.00000    0.01902    0.01701 =
         0.02092   -0.00139    0.00486   -0.00407
CL2   3    0.327742   -0.098023    0.109515    11.00000    0.02574    0.01825 =
         0.02184   -0.00199    0.00628   -0.00462
N2    5    0.474157    0.196944    0.126088    11.00000    0.02231    0.02113 =
         0.02168   -0.00230    0.00692   -0.00680
H2    2    0.517747    0.150395    0.062001    11.00000    0.02912
C2    1    0.272452    0.113637    0.537461    11.00000    0.02510    0.02368 =
         0.01959    0.00061    0.00674   -0.00089
AFIX  43
H2A   2    0.202331    0.094023    0.595084    11.00000   -1.20000
AFIX   0
N3    5    0.220998    0.309123    0.147512    11.00000    0.02261    0.02062 =
         0.01617   -0.00066    0.00470   -0.00520
C3    1    0.415417    0.158303    0.592019    11.00000    0.02751    0.02498 =
         0.01953   -0.00046    0.00205    0.00227
AFIX  43
H3    2    0.442766    0.171783    0.687872    11.00000   -1.20000
AFIX   0
C4    1    0.518512    0.183326    0.506984    11.00000    0.02276    0.02378 =
         0.02347   -0.00413    0.00141   -0.00158
AFIX  43
H4    2    0.617067    0.211704    0.543619    11.00000   -1.20000
AFIX   0
N4    5    0.072125    0.092612    0.178396    11.00000    0.02050    0.02261 =
         0.01765   -0.00075    0.00379   -0.00769
H4A   2    0.022339    0.026416    0.127591    11.00000    0.03338
C5    1    0.474163    0.165917    0.367703    11.00000    0.02005    0.01924 =
         0.02139   -0.00250    0.00293   -0.00347
C6    1    0.570501    0.175982    0.259345    11.00000    0.01998    0.03054 =
         0.02326   -0.00190    0.00490   -0.00528
AFIX  23
H6A   2    0.641230    0.253330    0.283664    11.00000   -1.20000
H6B   2    0.628355    0.091359    0.251679    11.00000   -1.20000
AFIX   0
C7    1    0.462975    0.343951    0.094446    11.00000    0.02902    0.02074 =
         0.02759    0.00115    0.01050   -0.00896
AFIX  23
H7A   2    0.459635    0.351919   -0.004498    11.00000   -1.20000
H7B   2    0.551291    0.394937    0.142854    11.00000   -1.20000
AFIX   0
C8    1    0.324567    0.403042    0.138382    11.00000    0.03009    0.01999 =
         0.01884   -0.00099    0.00707   -0.00671
C9    1    0.293269    0.540068    0.158524    11.00000    0.04210    0.01977 =
         0.02626   -0.00052    0.01263   -0.00805
AFIX  43
H9    2    0.366664    0.608015    0.155561    11.00000   -1.20000
AFIX   0
C10   1    0.151759    0.575520    0.183168    11.00000    0.05033    0.02062 =
         0.02667    0.00110    0.01279    0.00184
AFIX  43
H10   2    0.127985    0.668885    0.197410    11.00000   -1.20000
AFIX   0
C11   1    0.044939    0.476134    0.187192    11.00000    0.03683    0.02775 =
         0.02169    0.00250    0.00990    0.00476
AFIX  43
H11   2   -0.052516    0.500390    0.201973    11.00000   -1.20000
AFIX   0
C12   1    0.083269    0.341052    0.169242    11.00000    0.02483    0.02673 =
         0.01605    0.00127    0.00487   -0.00156
C13   1   -0.017774    0.220138    0.164225    11.00000    0.01998    0.02902 =
         0.02416    0.00388    0.00391   -0.00231
AFIX  23
H13A  2   -0.086414    0.213656    0.076698    11.00000   -1.20000
H13B  2   -0.077930    0.230917    0.238817    11.00000   -1.20000
AFIX   0
C14   1    0.091193    0.043106    0.319515    11.00000    0.02209    0.02336 =
         0.01865    0.00331    0.00430   -0.00747
AFIX  23
H14A  2    0.007342    0.074284    0.365714    11.00000   -1.20000
H14B  2    0.092143   -0.057773    0.314897    11.00000   -1.20000
AFIX   0

CL3   3    0.099845    0.735514    0.491710    11.00000    0.03412    0.02809 =
         0.03167   -0.00031    0.01003   -0.00139
HKLF 4




REM  yuto_co_0m_a.res in P-1
REM R1 =  0.0332 for    3861 Fo > 4sig(Fo)  and  0.0370 for all    4301 data
REM    207 parameters refined using      0 restraints

END

WGHT      0.0528      0.5539

REM Highest difference peak  0.688,  deepest hole -0.552,  1-sigma level  0.081
Q1    1   0.0169  0.6725  0.4847  11.00000  0.05    0.69
Q2    1   0.2310  0.1751  0.1834  11.00000  0.05    0.52
Q3    1   0.5749  0.4350  0.1343  11.00000  0.05    0.48
Q4    1   0.2860  0.1214  0.3556  11.00000  0.05    0.41
Q5    1   0.3113  0.1404  0.2862  11.00000  0.05    0.40
Q6    1   0.4139  0.1694  0.1334  11.00000  0.05    0.40
Q7    1   0.0310  0.2794  0.1692  11.00000  0.05    0.39
Q8    1   0.1629  0.0841  0.3643  11.00000  0.05    0.39
Q9    1   0.1877  0.3191  0.1398  11.00000  0.05    0.38
Q10   1   0.3043  0.1833  0.1011  11.00000  0.05    0.38
;
_shelx_res_checksum              79425
_shelx_fab_file
;
-12 -3 2 -0.2768 0.0134
-12 -2 1 0.2262 0.0054
-12 -2 2 0.3335 0.0266
-12 -1 1 -0.9127 -0.0350
-12 -1 2 -0.1938 -0.0199
-12 -1 3 -0.5580 0.0055
-12 0 1 1.3726 0.0369
-12 0 2 -0.1473 -0.0146
-12 0 3 0.2222 -0.0125
-12 1 1 -1.3500 -0.0125
-12 1 2 0.5148 0.0266
-12 2 1 0.9513 -0.0017
-11 -6 2 0.2254 0.0450
-11 -5 2 -0.3246 -0.0408
-11 -5 3 0.9366 0.0115
-11 -4 1 -1.2668 -0.0096
-11 -4 2 0.2949 -0.0055
-11 -4 3 -1.1875 -0.0370
-11 -4 4 1.2392 -0.0562
-11 -4 5 -0.2128 0.1152
-11 -4 6 0.5288 -0.0769
-11 -3 1 1.9784 0.0246
-11 -3 2 -0.2421 0.0461
-11 -3 3 1.0048 0.0267
-11 -3 4 -1.9041 -0.0162
-11 -3 5 0.6753 -0.0598
-11 -3 6 -0.3187 0.0538
-11 -2 1 -2.3832 -0.0325
-11 -2 2 0.3177 -0.0400
-11 -2 3 -0.4208 -0.0076
-11 -2 4 2.0650 0.0508
-11 -2 5 -1.1684 -0.0015
-11 -2 6 0.0008 -0.0145
-11 -1 1 2.1279 0.0108
-11 -1 2 -0.5066 0.0083
-11 -1 3 -0.2913 0.0072
-11 -1 4 -1.5545 -0.0361
-11 -1 5 1.4376 0.0094
-11 -1 6 0.2466 0.0052
-11 0 1 -1.2204 0.0226
-11 0 2 0.6486 0.0053
-11 0 3 0.8289 -0.0131
-11 0 4 0.5491 -0.0005
-11 0 5 -1.3083 0.0267
-11 0 6 -0.3139 -0.0229
-11 1 1 0.0419 -0.0296
-11 1 2 -0.6234 0.0016
-11 1 3 -1.0154 0.0054
-11 1 4 0.5552 0.0314
-11 1 5 0.7863 -0.0571
-11 1 6 0.2151 0.0246
-11 2 1 0.9914 0.0075
-11 2 2 0.4059 -0.0021
-11 2 3 0.8388 0.0064
-11 2 4 -1.3406 -0.0408
-11 2 5 -0.0622 0.0472
-11 2 6 -0.0602 0.0111
-11 3 1 -1.6364 0.0105
-11 3 2 -0.0106 -0.0063
-11 3 3 -0.4534 -0.0045
-11 3 4 1.5521 0.0267
-11 3 5 -0.5608 0.0003
-11 4 1 1.7530 -0.0078
-11 4 2 -0.4580 -0.0012
-11 4 3 0.1030 -0.0035
-11 4 4 -1.2252 -0.0039
-11 5 1 -1.3054 0.0050
-11 5 2 0.7504 0.0306
-11 5 3 0.0645 -0.0008
-11 5 4 0.6481 -0.0102
-10 -8 2 -0.4445 0.1689
-10 -7 2 0.5217 -0.1124
-10 -7 3 -1.4713 0.1020
-10 -7 4 0.7569 -0.0664
-10 -6 1 1.0287 -0.1117
-10 -6 2 -0.3722 0.0589
-10 -6 3 1.5021 -0.0206
-10 -6 4 -1.3823 0.0606
-10 -6 5 -0.1514 -0.0256
-10 -5 1 -1.5475 0.0588
-10 -5 2 0.0471 -0.0400
-10 -5 3 -0.8258 -0.0337
-10 -5 4 1.7189 0.0007
-10 -5 5 -0.0996 0.0334
-10 -5 6 -0.1752 -0.0016
-10 -5 7 -1.2143 -0.0560
-10 -5 8 0.8970 0.1539
-10 -4 1 1.7921 0.0042
-10 -4 2 0.2419 0.0308
-10 -4 3 -0.4300 0.0243
-10 -4 4 -1.4131 -0.0477
-10 -4 5 0.4985 0.0068
-10 -4 6 0.6581 -0.0016
-10 -4 7 0.7224 0.0251
-10 -4 8 -1.1117 -0.1226
-10 -3 1 -1.4933 -0.0422
-10 -3 2 -0.3170 -0.0094
-10 -3 3 1.7709 0.0106
-10 -3 4 0.4008 0.0417
-10 -3 5 -0.7919 -0.0350
-10 -3 6 -0.8913 0.0232
-10 -3 7 0.1603 -0.0188
-10 -3 8 0.8920 0.0629
-10 -2 1 0.5559 0.0298
-10 -2 2 0.2042 -0.0035
-10 -2 3 -2.6241 -0.0251
-10 -2 4 0.9730 -0.0137
-10 -2 5 0.7573 0.0255
-10 -2 6 0.7823 -0.0183
-10 -2 7 -1.0278 0.0145
-10 -2 8 -0.3177 -0.0205
-10 -1 1 0.7180 0.0081
-10 -1 2 -0.0370 -0.0112
-10 -1 3 2.6728 0.0176
-10 -1 4 -2.1806 0.0052
-10 -1 5 -0.3535 -0.0074
-10 -1 6 -0.4385 -0.0063
-10 -1 7 1.5640 0.0059
-10 -1 8 -0.3934 -0.0033
-10 0 1 -1.8149 -0.0268
-10 0 2 -0.1050 0.0289
-10 0 3 -1.9480 -0.0033
-10 0 4 2.8193 -0.0188
-10 0 5 -0.3152 0.0053
-10 0 6 0.0621 0.0152
-10 0 7 -1.6418 -0.0159
-10 0 8 1.0137 0.0168
-10 0 9 -0.0797 -0.0101
-10 1 1 2.3904 0.0192
-10 1 2 0.1588 -0.0185
-10 1 3 0.7468 -0.0158
-10 1 4 -2.7241 0.0335
-10 1 5 1.0546 -0.0101
-10 1 6 0.1620 -0.0047
-10 1 7 1.2878 -0.0096
-10 1 8 -1.3539 -0.0057
-10 1 9 0.2116 0.0138
-10 2 1 -2.3267 -0.0098
-10 2 2 -0.0338 -0.0071
-10 2 3 0.4658 0.0346
-10 2 4 1.9579 -0.0327
-10 2 5 -1.5855 0.0071
-10 2 6 -0.1711 -0.0058
-10 2 7 -0.6413 0.0512
-10 2 8 1.2991 -0.0380
-10 3 1 1.5651 0.0067
-10 3 2 -0.2229 0.0133
-10 3 3 -1.2377 -0.0346
-10 3 4 -0.8079 0.0113
-10 3 5 1.6476 0.0034
-10 3 6 0.0597 0.0178
-10 3 7 -0.0743 -0.0804
-10 3 8 -0.8817 0.0889
-10 4 1 -0.1977 0.0071
-10 4 2 0.3310 0.0037
-10 4 3 1.3964 0.0091
-10 4 4 -0.2918 0.0188
-10 4 5 -1.2082 -0.0132
-10 4 6 0.0281 -0.0466
-10 4 7 0.6111 0.1028
-10 5 1 -1.2804 -0.0379
-10 5 2 -0.0614 -0.0158
-10 5 3 -1.1239 0.0229
-10 5 4 0.9714 -0.0313
-10 5 5 0.5303 0.0108
-10 5 6 -0.0429 0.0849
-10 5 7 -0.7955 -0.1332
-10 6 1 2.1374 0.0691
-10 6 2 -0.4274 0.0041
-10 6 3 0.7191 -0.0430
-10 6 4 -1.1048 0.0157
-10 6 5 0.0226 0.0135
-10 6 6 0.0376 -0.1065
-10 7 1 -2.0032 -0.0839
-10 7 2 0.7195 0.0222
-9 -9 1 -0.2566 0.0293
-9 -9 2 0.3954 0.0691
-9 -8 1 0.1910 -0.0104
-9 -8 2 -1.1501 -0.0324
-9 -8 3 -0.4705 0.0611
-9 -8 4 0.7315 0.0042
-9 -8 5 0.7354 -0.1275
-9 -7 1 -0.1231 -0.0265
-9 -7 2 1.8657 0.0125
-9 -7 3 -0.5462 0.0115
-9 -7 4 -0.8758 0.0020
-9 -7 5 -0.9060 0.0428
-9 -7 6 1.3560 -0.0940
-9 -7 7 0.2233 0.1388
-9 -6 1 0.1144 0.0428
-9 -6 2 -2.1477 -0.0161
-9 -6 3 1.9933 -0.0525
-9 -6 4 0.4337 0.0310
-9 -6 5 0.7310 0.0008
-9 -6 6 -2.3160 0.0080
-9 -6 7 0.4894 -0.0464
-9 -6 8 0.5429 0.1305
-9 -5 1 -0.2339 -0.0156
-9 -5 2 1.7514 0.0065
-9 -5 3 -3.2630 0.0376
-9 -5 4 0.7070 -0.0352
-9 -5 5 -0.4066 -0.0097
-9 -5 6 2.7339 0.0249
-9 -5 7 -1.5880 -0.0338
-9 -5 8 -0.4391 -0.0425
-9 -5 9 -0.2498 0.1258
-9 -4 1 0.5886 -0.0241
-9 -4 2 -0.7815 0.0266
-9 -4 3 3.6824 -0.0070
-9 -4 4 -2.1489 -0.0033
-9 -4 5 0.2500 0.0272
-9 -4 6 -2.3412 -0.0220
-9 -4 7 2.4623 0.0424
-9 -4 8 0.0167 -0.0349
-9 -4 9 0.0216 -0.0672
-9 -4 10 -0.8804 0.0797
-9 -3 1 -1.1374 0.0356
-9 -3 2 -0.3609 -0.0447
-9 -3 3 -2.9290 -0.0069
-9 -3 4 3.1530 0.0360
-9 -3 5 -0.3575 -0.0471
-9 -3 6 1.3337 0.0245
-9 -3 7 -2.6468 -0.0135
-9 -3 8 0.5291 0.0461
-9 -3 9 0.2998 -0.0019
-9 -3 10 0.7069 -0.0558
-9 -2 1 1.5874 -0.0212
-9 -2 2 1.3002 0.0231
-9 -2 3 1.2104 0.0128
-9 -2 4 -3.1764 -0.0314
-9 -2 5 0.5780 0.0329
-9 -2 6 -0.1646 -0.0255
-9 -2 7 2.1264 0.0009
-9 -2 8 -1.0027 -0.0205
-9 -2 9 -0.4980 0.0300
-9 -2 10 -0.2459 0.0098
-9 -1 1 -1.6589 0.0081
-9 -1 2 -1.8708 0.0091
-9 -1 3 0.9289 -0.0198
-9 -1 4 2.2114 0.0075
-9 -1 5 -0.7706 0.0084
-9 -1 6 -0.7330 0.0062
-9 -1 7 -1.2004 -0.0069
-9 -1 8 1.2914 0.0096
-9 -1 9 0.4491 -0.0237
-9 -1 10 -0.2343 0.0192
-9 0 1 1.3463 -0.0029
-9 0 2 1.9826 -0.0161
-9 0 3 -2.8649 0.0169
-9 0 4 -0.6428 0.0088
-9 0 5 0.9119 -0.0312
-9 0 6 1.1000 0.0107
-9 0 7 0.1780 0.0099
-9 0 8 -1.2995 -0.0166
-9 0 9 -0.2097 0.0177
-9 0 10 0.5661 -0.0164
-9 1 1 -0.7522 -0.0038
-9 1 2 -1.5582 0.0035
-9 1 3 4.0170 -0.0011
-9 1 4 -1.0466 -0.0102
-9 1 5 -0.9455 0.0154
-9 1 6 -0.9245 0.0059
-9 1 7 0.7513 -0.0121
-9 1 8 0.9195 0.0125
-9 1 9 -0.0529 -0.0194
-9 1 10 -0.7198 0.0044
-9 2 1 -0.1469 0.0081
-9 2 2 0.7582 0.0026
-9 2 3 -4.0184 -0.0106
-9 2 4 2.3987 0.0002
-9 2 5 0.7236 0.0168
-9 2 6 0.4351 -0.0387
-9 2 7 -1.4474 0.0196
-9 2 8 -0.1570 0.0134
-9 2 9 0.1893 0.0074
-9 2 10 0.6857 -0.0062
-9 3 1 1.2931 0.0015
-9 3 2 -0.0546 0.0013
-9 3 3 2.9685 0.0089
-9 3 4 -3.0392 0.0115
-9 3 5 -0.2018 -0.0375
-9 3 6 0.0520 0.0431
-9 3 7 1.7522 -0.0118
-9 3 8 -0.7341 -0.0469
-9 3 9 -0.1503 0.0271
-9 4 1 -2.2339 -0.0187
-9 4 2 -0.1621 -0.0007
-9 4 3 -1.4279 -0.0018
-9 4 4 2.8232 -0.0098
-9 4 5 -0.4125 0.0348
-9 4 6 -0.3428 -0.0096
-9 4 7 -1.5652 -0.0315
-9 4 8 1.3352 0.0769
-9 4 9 -0.0001 -0.0612
-9 5 1 2.3740 0.0258
-9 5 2 -0.0317 -0.0111
-9 5 3 0.0414 -0.0061
-9 5 4 -1.9311 -0.0036
-9 5 5 0.8006 -0.0109
-9 5 6 0.4297 -0.0319
-9 5 7 0.9857 0.0896
-9 5 8 -1.3693 -0.1016
-9 6 1 -1.6008 -0.0174
-9 6 2 0.2614 0.0285
-9 6 3 0.8126 0.0189
-9 6 4 0.7801 -0.0001
-9 6 5 -0.7996 -0.0140
-9 6 6 -0.3926 0.0546
-9 6 7 -0.3219 -0.1191
-9 6 8 0.9412 0.1140
-9 7 1 0.4547 0.0019
-9 7 2 -0.3062 -0.0427
-9 7 3 -1.0503 -0.0310
-9 7 4 0.1659 0.0386
-9 7 5 0.5103 0.0090
-9 7 6 0.2980 -0.0535
-9 8 1 0.3743 0.0143
-9 8 2 0.2269 0.0449
-9 8 3 0.7839 0.0286
-8 -10 2 1.6454 -0.0663
-8 -9 1 0.4387 -0.1495
-8 -9 2 -2.6370 0.0817
-8 -9 3 1.5231 0.0316
-8 -9 4 0.0995 -0.0389
-8 -9 5 0.9186 -0.0917
-8 -8 1 -0.1560 0.0727
-8 -8 2 2.8252 -0.0460
-8 -8 3 -2.8182 0.0135
-8 -8 4 0.0299 0.0307
-8 -8 5 -0.7128 0.0215
-8 -8 6 2.1095 -0.0769
-8 -8 7 -0.8134 0.1451
-8 -7 1 -0.1560 0.0073
-8 -7 2 -1.8504 -0.0177
-8 -7 3 3.5817 -0.0224
-8 -7 4 -0.5021 0.0061
-8 -7 5 -0.0895 0.0004
-8 -7 6 -2.4588 0.0073
-8 -7 7 1.7512 -0.0432
-8 -7 8 0.1151 0.1142
-8 -6 1 0.3063 -0.0386
-8 -6 2 -0.0548 0.0489
-8 -6 3 -3.1744 0.0011
-8 -6 4 1.2107 -0.0174
-8 -6 5 1.0398 0.0025
-8 -6 6 1.6977 0.0025
-8 -6 7 -2.4573 -0.0210
-8 -6 8 -0.0358 -0.0217
-8 -6 9 0.1667 0.0300
-8 -5 1 -0.1614 0.0280
-8 -5 2 2.1435 -0.0285
-8 -5 3 1.4213 0.0068
-8 -5 4 -1.6526 0.0039
-8 -5 5 -1.6217 0.0097
-8 -5 6 -0.0187 0.0103
-8 -5 7 2.3754 0.0060
-8 -5 8 -0.1962 -0.0319
-8 -5 9 -0.8156 -0.0008
-8 -5 10 -0.6562 -0.0173
-8 -4 1 -0.1815 -0.0112
-8 -4 2 -3.5834 -0.0032
-8 -4 3 1.1763 0.0084
-8 -4 4 1.2802 -0.0013
-8 -4 5 1.7004 -0.0230
-8 -4 6 -1.8486 -0.0024
-8 -4 7 -1.3816 0.0336
-8 -4 8 0.4710 0.0155
-8 -4 9 1.3921 -0.0204
-8 -4 10 -0.0354 -0.0131
-8 -4 11 -0.6914 -0.0006
-8 -3 1 0.4351 0.0023
-8 -3 2 3.9534 0.0099
-8 -3 3 -3.6985 -0.0174
-8 -3 4 -0.0298 0.0124
-8 -3 5 -1.4824 0.0077
-8 -3 6 3.1486 -0.0104
-8 -3 7 -0.1008 -0.0385
-8 -3 8 -0.6362 0.0249
-8 -3 9 -1.5314 0.0154
-8 -3 10 0.9550 0.0168
-8 -3 11 0.3077 -0.0334
-8 -2 1 -0.4557 0.0034
-8 -2 2 -3.3210 -0.0006
-8 -2 3 5.3489 0.0065
-8 -2 4 -1.6113 -0.0117
-8 -2 5 1.1544 0.0199
-8 -2 6 -3.4901 -0.0012
-8 -2 7 1.4592 0.0159
-8 -2 8 0.6013 -0.0347
-8 -2 9 1.2083 0.0042
-8 -2 10 -1.6458 -0.0067
-8 -2 11 0.2908 0.0347
-8 -1 1 0.3760 -0.0039
-8 -1 2 1.9288 -0.0029
-8 -1 3 -5.7407 0.0056
-8 -1 4 3.0455 -0.0044
-8 -1 5 -0.7654 -0.0237
-8 -1 6 2.8939 0.0219
-8 -1 7 -2.3120 -0.0022
-8 -1 8 -0.3375 0.0122
-8 -1 9 -0.6677 -0.0100
-8 -1 10 1.9247 0.0051
-8 -1 11 -0.8257 -0.0174
-8 0 1 -0.2932 -0.0032
-8 0 2 -0.0600 0.0001
-8 0 3 4.8103 -0.0052
-8 0 4 -3.9157 0.0148
-8 0 5 0.4179 0.0055
-8 0 6 -1.6653 -0.0217
-8 0 7 2.5908 0.0029
-8 0 8 -0.1549 0.0083
-8 0 9 0.1535 -0.0076
-8 0 10 -1.8157 -0.0038
-8 0 11 1.1520 0.0137
-8 1 1 0.0785 0.0076
-8 1 2 -1.7782 0.0002
-8 1 3 -2.7609 -0.0009
-8 1 4 4.0553 -0.0101
-8 1 5 -0.3196 0.0051
-8 1 6 0.2530 0.0062
-8 1 7 -2.3378 0.0001
-8 1 8 0.7877 -0.0099
-8 1 9 0.2260 0.0273
-8 1 10 1.3332 -0.0173
-8 2 1 0.2896 0.0002
-8 2 2 2.9072 0.0007
-8 2 3 0.1681 0.0048
-8 2 4 -3.3710 -0.0014
-8 2 5 0.5379 0.0014
-8 2 6 0.9088 -0.0013
-8 2 7 1.5702 -0.0099
-8 2 8 -1.3036 0.0058
-8 2 9 -0.4381 -0.0260
-8 2 10 -0.5175 0.0450
-8 3 1 -0.4396 -0.0116
-8 3 2 -2.9743 -0.0001
-8 3 3 2.1242 -0.0046
-8 3 4 1.9495 0.0125
-8 3 5 -0.8407 -0.0105
-8 3 6 -1.5571 0.0083
-8 3 7 -0.3941 0.0134
-8 3 8 1.3737 -0.0105
-8 3 9 0.4693 0.0103
-8 3 10 -0.3741 -0.0447
-8 4 1 -0.0266 0.0124
-8 4 2 2.2579 0.0001
-8 4 3 -3.4305 -0.0044
-8 4 4 -0.1873 -0.0171
-8 4 5 0.9000 0.0129
-8 4 6 1.6527 -0.0086
-8 4 7 -0.8357 -0.0081
-8 4 8 -0.8916 0.0181
-8 4 9 -0.3580 -0.0046
-8 4 10 0.9272 0.0169
-8 5 1 0.9747 -0.0008
-8 5 2 -1.3279 -0.0007
-8 5 3 3.5421 0.0200
-8 5 4 -1.3224 0.0056
-8 5 5 -0.6176 -0.0090
-8 5 6 -1.3157 -0.0033
-8 5 7 1.6222 0.0054
-8 5 8 0.1509 -0.0163
-8 5 9 0.1956 0.0140
-8 6 1 -1.8058 -0.0157
-8 6 2 0.5444 -0.0009
-8 6 3 -2.6694 -0.0224
-8 6 4 2.0748 0.0152
-8 6 5 0.1941 -0.0004
-8 6 6 0.7400 0.0152
-8 6 7 -1.6827 -0.0115
-8 6 8 0.3764 0.0085
-8 7 1 2.0438 0.0307
-8 7 2 -0.0020 0.0008
-8 7 3 1.2653 -0.0036
-8 7 4 -1.9060 -0.0145
-8 7 5 0.0931 0.0080
-8 7 6 -0.1438 -0.0188
-8 7 7 1.1776 0.0200
-8 8 1 -1.6753 -0.0402
-8 8 2 -0.2573 0.0061
-8 8 3 0.0693 0.0416
-8 8 4 1.0935 -0.0232
-8 8 5 -0.1405 0.0031
-8 8 6 -0.2708 0.0155
-8 8 7 -0.5463 -0.0236
-8 9 1 0.9966 0.0430
-8 9 2 0.2287 -0.0148
-8 9 3 -0.7844 -0.0612
-8 9 4 -0.2172 0.0680
-7 -10 1 -1.1136 -0.0604
-7 -10 2 -1.1359 0.0194
-7 -10 3 1.5035 0.0465
-7 -10 4 0.4123 -0.1069
-7 -9 1 2.0449 0.0301
-7 -9 2 -0.0918 0.0013
-7 -9 3 -1.9146 -0.0088
-7 -9 4 -0.4520 0.0659
-7 -9 5 1.1544 -0.0387
-7 -9 6 0.6894 0.0214
-7 -8 1 -2.4470 0.0106
-7 -8 2 2.1124 -0.0368
-7 -8 3 1.4556 0.0011
-7 -8 4 0.1407 -0.0138
-7 -8 5 -2.3637 0.0136
-7 -8 6 0.1096 -0.0298
-7 -8 7 1.0492 0.0421
-7 -8 8 0.2046 0.0294
-7 -7 1 1.9799 -0.0237
-7 -7 2 -4.0073 0.0503
-7 -7 3 0.0330 -0.0123
-7 -7 4 0.3661 -0.0082
-7 -7 5 3.1176 0.0108
-7 -7 6 -1.7091 -0.0010
-7 -7 7 -0.8922 -0.0462
-7 -7 8 -0.4499 0.0041
-7 -7 9 1.2085 -0.0377
-7 -6 1 -0.7522 0.0098
-7 -6 2 4.7872 -0.0308
-7 -6 3 -2.1375 0.0111
-7 -6 4 -0.5965 0.0099
-7 -6 5 -2.9325 -0.0059
-7 -6 6 3.4701 0.0224
-7 -6 7 0.0759 0.0040
-7 -6 8 0.3798 -0.0088
-7 -6 9 -2.1164 0.0095
-7 -6 10 0.7784 -0.1410
-7 -5 1 -0.7121 0.0063
-7 -5 2 -3.9672 0.0034
-7 -5 3 3.9708 0.0039
-7 -5 4 0.2017 -0.0153
-7 -5 5 1.9051 -0.0069
-7 -5 6 -4.5076 -0.0047
-7 -5 7 1.2213 0.0279
-7 -5 8 -0.0350 -0.0096
-7 -5 9 2.3281 0.0090
-7 -5 10 -1.6097 0.0498
-7 -5 11 -0.1460 -0.1104
-7 -4 1 1.8243 -0.0132
-7 -4 2 1.8150 0.0090
-7 -4 3 -4.6638 -0.0115
-7 -4 4 0.6411 0.0183
-7 -4 5 -0.5176 0.0036
-7 -4 6 4.2617 -0.0240
-7 -4 7 -2.4323 -0.0150
-7 -4 8 -0.2999 0.0244
-7 -4 9 -1.6135 -0.0098
-7 -4 10 2.0821 0.0120
-7 -4 11 -0.1721 0.0195
-7 -3 1 -2.3561 0.0146
-7 -3 2 0.9537 -0.0082
-7 -3 3 3.8786 0.0063
-7 -3 4 -1.3898 -0.0042
-7 -3 5 -0.7922 0.0024
-7 -3 6 -2.7998 0.0283
-7 -3 7 2.9844 -0.0182
-7 -3 8 0.3930 -0.0185
-7 -3 9 0.3825 0.0089
-7 -3 10 -1.9147 -0.0229
-7 -3 11 0.5536 0.0438
-7 -2 1 2.4343 -0.0125
-7 -2 2 -3.6662 0.0032
-7 -2 3 -1.8599 -0.0008
-7 -2 4 1.6594 -0.0142
-7 -2 5 1.7604 0.0066
-7 -2 6 0.6784 -0.0121
-7 -2 7 -2.6997 0.0300
-7 -2 8 -0.2283 -0.0003
-7 -2 9 0.7663 -0.0115
-7 -2 10 1.2634 0.0159
-7 -2 11 -0.8176 -0.0514
-7 -1 1 -2.1490 0.0061
-7 -1 2 5.7895 0.0032
-7 -1 3 -0.8752 -0.0005
-7 -1 4 -1.4334 0.0150
-7 -1 5 -2.1542 -0.0174
-7 -1 6 1.4001 -0.0016
-7 -1 7 1.8056 -0.0130
-7 -1 8 -0.0796 0.0115
-7 -1 9 -1.5344 0.0052
-7 -1 10 -0.3942 -0.0099
-7 -1 11 0.8949 0.0341
-7 0 1 1.4612 0.0012
-7 0 2 -6.7450 -0.0079
-7 0 3 3.6960 0.0010
-7 0 4 0.8207 -0.0012
-7 0 5 1.7913 0.0109
-7 0 6 -2.8610 0.0069
-7 0 7 -0.6149 -0.0086
-7 0 8 0.3963 -0.0050
-7 0 9 1.9350 0.0086
-7 0 10 -0.6060 -0.0050
-7 0 11 -0.7429 -0.0177
-7 0 12 0.1546 0.0314
-7 1 1 -0.5722 -0.0051
-7 1 2 6.0797 0.0063
-7 1 3 -5.8185 0.0011
-7 1 4 0.1389 -0.0093
-7 1 5 -0.7963 0.0042
-7 1 6 3.3855 -0.0098
-7 1 7 -0.6871 0.0140
-7 1 8 -0.5541 -0.0079
-7 1 9 -1.9983 -0.0084
-7 1 10 1.6734 0.0201
-7 1 11 0.3029 0.0040
-7 1 12 -0.1913 -0.0249
-7 2 1 0.0194 0.0038
-7 2 2 -3.9865 -0.0006
-7 2 3 6.4994 -0.0060
-7 2 4 -1.3264 0.0099
-7 2 5 -0.3240 -0.0068
-7 2 6 -2.9441 0.0093
-7 2 7 1.9082 -0.0056
-7 2 8 0.3751 0.0089
-7 2 9 1.6702 -0.0102
-7 2 10 -2.4800 -0.0059
-7 2 11 0.3550 -0.0049
-7 3 1 -0.1347 0.0031
-7 3 2 1.3805 -0.0042
-7 3 3 -5.5009 0.0031
-7 3 4 2.3704 -0.0021
-7 3 5 1.0177 -0.0048
-7 3 6 1.7716 -0.0013
-7 3 7 -2.6610 -0.0021
-7 3 8 0.1333 0.0023
-7 3 9 -0.9930 0.0207
-7 3 10 2.5673 -0.0303
-7 3 11 -0.9267 0.0355
-7 4 1 0.6164 -0.0126
-7 4 2 0.7471 0.0074
-7 4 3 3.2881 0.0120
-7 4 4 -2.7926 -0.0138
-7 4 5 -1.1098 0.0159
-7 4 6 -0.2797 -0.0086
-7 4 7 2.5306 0.0024
-7 4 8 -0.6497 -0.0102
-7 4 9 0.2125 -0.0049
-7 4 10 -1.8334 0.0362
-7 5 1 -0.8834 0.0159
-7 5 2 -1.9427 -0.0067
-7 5 3 -0.7076 -0.0245
-7 5 4 2.3457 0.0285
-7 5 5 0.8546 -0.0150
-7 5 6 -1.0845 0.0102
-7 5 7 -1.4996 -0.0027
-7 5 8 0.7787 0.0110
-7 5 9 0.3765 -0.0212
-7 5 10 0.7391 0.0106
-7 6 1 0.6996 -0.0089
-7 6 2 2.2441 -0.0043
-7 6 3 -1.4530 0.0200
-7 6 4 -1.2052 -0.0208
-7 6 5 -0.6000 -0.0021
-7 6 6 1.9740 -0.0009
-7 6 7 0.0948 0.0110
-7 6 8 -0.4616 -0.0197
-7 7 1 -0.2432 -0.0012
-7 7 2 -1.8416 0.0212
-7 7 3 2.6599 -0.0027
-7 7 4 -0.1233 -0.0153
-7 7 5 0.4672 0.0334
-7 7 6 -2.2092 -0.0129
-7 7 7 0.9794 -0.0232
-7 8 1 -0.2576 0.0059
-7 8 2 1.0133 -0.0252
-7 8 3 -2.7080 -0.0182
-7 8 4 1.0834 0.0564
-7 8 5 -0.3658 -0.0640
-7 8 6 1.8052 0.0217
-7 8 7 -1.3344 0.0307
-7 9 1 0.6728 -0.0035
-7 9 2 -0.1964 0.0089
-7 9 3 1.8400 0.0421
-7 9 4 -1.3599 -0.0775
-7 9 5 0.2266 0.0723
-7 9 6 -1.0076 -0.0189
-7 10 1 -0.8542 -0.0088
-7 10 2 -0.2136 0.0101
-7 10 3 -0.7053 -0.0635
-7 10 4 1.0236 0.0777
-7 10 5 -0.1014 -0.0522
-6 -11 1 -2.2434 -0.0894
-6 -11 2 1.0661 0.0199
-6 -11 3 0.5341 -0.0229
-6 -10 1 2.8186 0.0875
-6 -10 2 -2.6928 -0.0132
-6 -10 3 -0.2648 0.0262
-6 -10 4 -0.4542 0.0081
-6 -10 5 2.1856 0.0009
-6 -10 6 -1.1836 0.0114
-6 -9 1 -2.0396 -0.0532
-6 -9 2 3.9736 0.0008
-6 -9 3 -0.4979 -0.0171
-6 -9 4 -0.1812 0.0116
-6 -9 5 -2.7078 -0.0169
-6 -9 6 2.2343 0.0096
-6 -9 7 -0.3187 0.0641
-6 -9 8 0.3928 -0.0435
-6 -8 1 -0.0288 0.0226
-6 -8 2 -3.9139 0.0100
-6 -8 3 1.5233 0.0047
-6 -8 4 1.1340 -0.0158
-6 -8 5 2.0534 0.0231
-6 -8 6 -3.1055 -0.0376
-6 -8 7 0.4674 -0.0332
-6 -8 8 -0.2992 0.0180
-6 -8 9 1.2237 -0.0427
-6 -7 1 2.5698 -0.0125
-6 -7 2 2.0975 -0.0114
-6 -7 3 -2.2697 0.0007
-6 -7 4 -1.8623 0.0143
-6 -7 5 -0.2087 -0.0103
-6 -7 6 3.2414 0.0401
-6 -7 7 -0.7892 0.0007
-6 -7 8 -0.3306 -0.0001
-6 -7 9 -1.5592 -0.0274
-6 -7 10 1.3295 -0.1640
-6 -6 1 -4.5178 0.0103
-6 -6 2 1.0352 0.0056
-6 -6 3 2.1439 -0.0017
-6 -6 4 1.9944 -0.0138
-6 -6 5 -2.1712 -0.0037
-6 -6 6 -2.2603 -0.0129
-6 -6 7 1.2700 0.0097
-6 -6 8 1.1104 0.0059
-6 -6 9 0.9386 0.0480
-6 -6 10 -1.8327 0.0597
-6 -6 11 0.3167 -0.2309
-6 -5 1 5.1723 -0.0026
-6 -5 2 -4.4463 0.0006
-6 -5 3 -0.8912 0.0024
-6 -5 4 -1.6235 0.0062
-6 -5 5 4.2010 0.0077
-6 -5 6 0.2355 -0.0157
-6 -5 7 -1.5735 -0.0000
-6 -5 8 -1.4775 -0.0143
-6 -5 9 0.4241 -0.0119
-6 -5 10 1.6006 0.0069
-6 -5 11 -0.3522 0.1229
-6 -4 1 -4.4848 -0.0060
-6 -4 2 7.0902 -0.0026
-6 -4 3 -1.2173 0.0008
-6 -4 4 1.1185 0.0074
-6 -4 5 -5.2604 -0.0091
-6 -4 6 2.2528 0.0216
-6 -4 7 1.2949 -0.0113
-6 -4 8 1.2268 0.0056
-6 -4 9 -1.7917 -0.0191
-6 -4 10 -0.6672 -0.0033
-6 -4 11 0.2505 -0.0187
-6 -3 1 2.8088 0.0037
-6 -3 2 -8.3194 -0.0002
-6 -3 3 3.5960 -0.0063
-6 -3 4 -0.7462 -0.0110
-6 -3 5 5.1354 0.0114
-6 -3 6 -4.3743 -0.0068
-6 -3 7 -0.3851 0.0107
-6 -3 8 -0.6131 0.0070
-6 -3 9 2.5478 0.0104
-6 -3 10 -0.5243 -0.0197
-6 -3 11 -0.0606 -0.0162
-6 -3 12 -0.7340 0.0184
-6 -2 1 -0.5180 0.0084
-6 -2 2 7.8175 0.0027
-6 -2 3 -5.6593 0.0040
-6 -2 4 0.5833 0.0009
-6 -2 5 -3.8873 -0.0072
-6 -2 6 5.4378 -0.0114
-6 -2 7 -0.7724 0.0017
-6 -2 8 -0.0192 -0.0045
-6 -2 9 -2.5822 0.0056
-6 -2 10 1.5495 0.0212
-6 -2 11 -0.1487 0.0047
-6 -2 12 0.6604 -0.0407
-6 -1 1 -1.9411 -0.0153
-6 -1 2 -5.4564 0.0002
-6 -1 3 6.8627 0.0067
-6 -1 4 -0.6877 0.0065
-6 -1 5 1.7937 -0.0029
-6 -1 6 -5.1462 0.0183
-6 -1 7 1.7216 -0.0137
-6 -1 8 0.5369 -0.0057
-6 -1 9 2.0858 0.0023
-6 -1 10 -2.2605 -0.0144
-6 -1 11 0.3842 0.0054
-6 -1 12 -0.3689 0.0302
-6 0 1 3.8002 0.0069
-6 0 2 1.5710 -0.0045
-6 0 3 -6.6446 -0.0122
-6 0 4 1.1163 -0.0020
-6 0 5 0.5802 0.0075
-6 0 6 3.6104 -0.0112
-6 0 7 -2.2562 0.0117
-6 0 8 -0.9137 0.0066
-6 0 9 -1.1835 -0.0134
-6 0 10 2.6151 0.0138
-6 0 11 -0.7073 0.0002
-6 0 12 0.0149 -0.0299
-6 1 1 -4.2731 0.0072
-6 1 2 2.7003 0.0024
-6 1 3 4.6966 0.0052
-6 1 4 -1.7088 -0.0024
-6 1 5 -2.4584 -0.0035
-6 1 6 -1.2486 0.0006
-6 1 7 2.3301 0.0017
-6 1 8 1.0341 -0.0013
-6 1 9 -0.0607 0.0017
-6 1 10 -2.4339 -0.0044
-6 1 11 1.0888 -0.0148
-6 1 12 0.2351 0.0489
-6 2 1 3.3144 -0.0088
-6 2 2 -5.7974 0.0028
-6 2 3 -1.4243 0.0039
-6 2 4 2.0184 -0.0033
-6 2 5 3.2272 0.0014
-6 2 6 -1.2976 -0.0001
-6 2 7 -1.8239 -0.0068
-6 2 8 -0.8099 0.0006
-6 2 9 1.3777 0.0148
-6 2 10 1.5390 -0.0130
-6 2 11 -1.3260 0.0291
-6 2 12 -0.2807 -0.0663
-6 3 1 -1.7859 -0.0030
-6 3 2 6.7416 -0.0013
-6 3 3 -2.0396 -0.0050
-6 3 4 -1.6279 0.0111
-6 3 5 -2.8256 -0.0066
-6 3 6 3.2887 0.0091
-6 3 7 0.6482 -0.0060
-6 3 8 0.4248 -0.0001
-6 3 9 -2.2830 -0.0088
-6 3 10 -0.1370 0.0057
-6 3 11 1.1940 -0.0225
-6 3 12 0.1332 0.0627
-6 4 1 0.6455 0.0107
-6 4 2 -5.7057 -0.0034
-6 4 3 4.4604 -0.0001
-6 4 4 0.5610 -0.0101
-6 4 5 1.7406 0.0124
-6 4 6 -4.1605 -0.0138
-6 4 7 0.9149 0.0181
-6 4 8 -0.2311 -0.0059
-6 4 9 2.4319 -0.0066
-6 4 10 -1.1291 0.0310
-6 4 11 -0.7093 -0.0202
-6 5 1 -0.1532 -0.0029
-6 5 2 3.5912 -0.0025
-6 5 3 -5.1928 0.0069
-6 5 4 0.6764 0.0012
-6 5 5 -0.5797 -0.0112
-6 5 6 3.7978 0.0061
-6 5 7 -2.2047 -0.0088
-6 5 8 0.3558 0.0083
-6 5 9 -1.8981 0.0001
-6 5 10 1.6511 -0.0450
-6 5 11 0.1748 0.0687
-6 6 1 0.0085 -0.0137
-6 6 2 -1.2690 0.0167
-6 6 3 4.3529 -0.0119
-6 6 4 -1.4891 0.0085
-6 6 5 -0.3268 0.0010
-6 6 6 -2.5399 0.0093
-6 6 7 2.6524 -0.0133
-6 6 8 -0.5698 -0.0027
-6 7 1 0.0217 0.0271
-6 7 2 -0.6923 -0.0201
-6 7 3 -2.5284 0.0061
-6 7 4 1.6151 -0.0125
-6 7 5 0.9070 0.0165
-6 7 6 0.9408 -0.0273
-6 7 7 -2.2035 0.0257
-6 8 1 0.0717 -0.0269
-6 8 2 1.8867 0.0052
-6 8 3 0.4547 0.0161
-6 8 4 -1.1839 0.0054
-6 8 5 -1.1061 -0.0341
-6 8 6 0.4399 0.0464
-6 9 1 -0.2399 -0.0009
-6 9 2 -2.0846 0.0158
-6 9 3 1.1583 -0.0389
-6 9 4 0.4862 0.0102
-6 9 5 0.8835 0.0405
-6 9 6 -1.1557 -0.0584
-6 10 1 0.2795 0.0584
-6 10 2 1.4648 -0.0350
-6 10 3 -1.8054 0.0387
-6 10 4 0.1881 -0.0191
-6 10 5 -0.4223 -0.0324
-6 10 6 1.0696 0.0517
-6 11 1 -0.1064 -0.1112
-6 11 2 -0.6092 0.0555
-5 -12 1 -0.9697 -0.1337
-5 -12 2 1.1437 0.0110
-5 -11 1 0.2779 0.1476
-5 -11 2 -1.7531 -0.0228
-5 -11 3 -0.2872 -0.0073
-5 -11 4 1.0445 0.0303
-5 -11 5 0.7045 -0.0271
-5 -10 1 1.6547 -0.0927
-5 -10 2 1.4686 0.0169
-5 -10 3 -0.0195 0.0229
-5 -10 4 -2.0808 -0.0298
-5 -10 5 -0.0984 0.0331
-5 -10 6 1.5035 0.0119
-5 -10 7 -0.3771 0.0282
-5 -9 1 -4.0287 0.0234
-5 -9 2 0.0925 0.0108
-5 -9 3 0.4383 -0.0273
-5 -9 4 2.8712 0.0185
-5 -9 5 -1.4374 -0.0286
-5 -9 6 -1.2814 -0.0209
-5 -9 7 0.0218 0.0012
-5 -9 8 0.8978 -0.0044
-5 -9 9 0.1080 -0.0130
-5 -8 1 5.5831 0.0100
-5 -8 2 -2.5568 -0.0364
-5 -8 3 -0.5978 0.0249
-5 -8 4 -2.8580 0.0045
-5 -8 5 3.3618 0.0150
-5 -8 6 0.3160 0.0215
-5 -8 7 0.1688 -0.0094
-5 -8 8 -2.0808 0.0094
-5 -8 9 0.6379 -0.0581
-5 -8 10 0.5183 -0.1014
-5 -7 1 -5.4070 -0.0100
-5 -7 2 4.9629 0.0373
-5 -7 3 0.2037 -0.0210
-5 -7 4 1.8945 -0.0214
-5 -7 5 -4.7848 0.0002
-5 -7 6 1.2416 -0.0148
-5 -7 7 0.0065 0.0087
-5 -7 8 2.6694 0.0254
-5 -7 9 -1.7919 0.0656
-5 -7 10 -0.4127 0.0033
-5 -6 1 3.3866 0.0078
-5 -6 2 -6.3013 -0.0199
-5 -6 3 0.7095 0.0127
-5 -6 4 -0.2960 0.0187
-5 -6 5 4.9656 -0.0052
-5 -6 6 -2.9689 0.0042
-5 -6 7 -0.2933 -0.0168
-5 -6 8 -2.1449 -0.0380
-5 -6 9 2.7689 -0.0105
-5 -6 10 -0.0990 0.0546
-5 -5 1 -0.0515 -0.0135
-5 -5 2 5.9640 0.0089
-5 -5 3 -1.7930 0.0009
-5 -5 4 -1.4286 -0.0082
-5 -5 5 -3.6505 -0.0002
-5 -5 6 4.2446 0.0053
-5 -5 7 0.2440 0.0248
-5 -5 8 0.7547 -0.0009
-5 -5 9 -3.0059 -0.0230
-5 -5 10 0.8455 -0.0334
-5 -5 11 -0.0139 -0.0220
-5 -5 12 0.9420 0.1154
-5 -4 1 -3.8596 0.0119
-5 -4 2 -3.8001 -0.0121
-5 -4 3 2.6069 -0.0095
-5 -4 4 2.8337 0.0072
-5 -4 5 1.1064 0.0030
-5 -4 6 -4.4653 -0.0050
-5 -4 7 0.2553 -0.0174
-5 -4 8 0.7592 0.0402
-5 -4 9 2.3579 -0.0029
-5 -4 10 -1.5013 -0.0079
-5 -4 11 -0.0107 -0.0073
-5 -4 12 -0.9617 -0.0339
-5 -3 1 7.5636 0.0030
-5 -3 2 -0.0483 0.0126
-5 -3 3 -2.7636 0.0046
-5 -3 4 -3.5915 -0.0116
-5 -3 5 2.0357 0.0011
-5 -3 6 3.3602 -0.0055
-5 -3 7 -0.8433 0.0034
-5 -3 8 -1.8316 -0.0282
-5 -3 9 -1.0970 0.0323
-5 -3 10 1.7777 0.0145
-5 -3 11 0.0538 -0.0068
-5 -3 12 0.4653 -0.0176
-5 -2 1 -10.0511 -0.0136
-5 -2 2 5.0693 0.0022
-5 -2 3 1.9058 0.0049
-5 -2 4 3.4874 0.0060
-5 -2 5 -4.9629 0.0001
-5 -2 6 -1.1580 0.0095
-5 -2 7 1.0918 0.0017
-5 -2 8 2.3807 -0.0127
-5 -2 9 -0.4035 -0.0158
-5 -2 10 -1.5603 0.0005
-5 -2 11 -0.0289 0.0080
-5 -2 12 0.2260 0.0394
-5 -1 1 10.1852 0.0059
-5 -1 2 -10.0472 -0.0185
-5 -1 3 0.2086 -0.0049
-5 -1 4 -2.5446 0.0084
-5 -1 5 6.8370 -0.0117
-5 -1 6 -1.5428 0.0040
-5 -1 7 -0.9069 -0.0030
-5 -1 8 -2.5072 0.0291
-5 -1 9 1.8850 -0.0154
-5 -1 10 0.9004 -0.0060
-5 -1 11 -0.0943 0.0129
-5 -1 12 -0.6944 -0.0583
-5 0 1 -7.5080 0.0080
-5 0 2 13.1411 0.0169
-5 0 3 -3.3471 -0.0024
-5 0 4 1.1783 -0.0159
-5 0 5 -7.0065 0.0194
-5 0 6 4.0222 -0.0171
-5 0 7 0.4381 0.0096
-5 0 8 2.1479 -0.0159
-5 0 9 -3.1006 0.0140
-5 0 10 0.0779 0.0036
-5 0 11 0.2828 -0.0246
-5 0 12 0.7435 0.0704
-5 1 1 3.0150 -0.0094
-5 1 2 -12.8440 -0.0016
-5 1 3 6.5301 0.0040
-5 1 4 -0.0920 0.0101
-5 1 5 5.3250 -0.0113
-5 1 6 -5.5774 0.0071
-5 1 7 0.2346 -0.0112
-5 1 8 -1.2241 0.0065
-5 1 9 3.6650 0.0054
-5 1 10 -1.1897 -0.0011
-5 1 11 -0.4350 0.0068
-5 1 12 -0.4307 -0.0515
-5 2 1 1.2538 -0.0006
-5 2 2 9.1551 -0.0082
-5 2 3 -8.3640 0.0023
-5 2 4 -0.1664 0.0013
-5 2 5 -2.3934 -0.0049
-5 2 6 5.6494 0.0161
-5 2 7 -1.0769 -0.0016
-5 2 8 0.0101 -0.0136
-5 2 9 -3.2322 -0.0027
-5 2 10 2.1177 -0.0111
-5 2 11 0.4005 0.0314
-5 2 12 -0.0451 0.0029
-5 3 1 -3.6766 0.0076
-5 3 2 -3.7446 0.0070
-5 3 3 7.9160 -0.0082
-5 3 4 -0.3524 -0.0096
-5 3 5 -0.6288 0.0160
-5 3 6 -4.1176 -0.0222
-5 3 7 1.8143 0.0103
-5 3 8 0.9286 0.0220
-5 3 9 1.8839 -0.0149
-5 3 10 -2.4674 0.0266
-5 3 11 -0.1084 -0.0612
-5 3 12 0.4293 0.0389
-5 4 1 4.0725 -0.0083
-5 4 2 -1.1715 -0.0025
-5 4 3 -5.3996 0.0087
-5 4 4 1.0388 0.0109
-5 4 5 2.6877 -0.0186
-5 4 6 1.5345 0.0059
-5 4 7 -1.9671 0.0039
-5 4 8 -1.2378 -0.0227
-5 4 9 -0.2181 0.0080
-5 4 10 2.0449 -0.0069
-5 4 11 -0.3010 0.0499
-5 5 1 -3.3117 0.0073
-5 5 2 4.1864 -0.0017
-5 5 3 2.0165 -0.0027
-5 5 4 -1.2904 -0.0057
-5 5 5 -3.4230 0.0127
-5 5 6 1.1071 0.0106
-5 5 7 1.3040 -0.0230
-5 5 8 1.0571 0.0145
-5 5 9 -1.0475 0.0305
-5 5 10 -1.0858 -0.0624
-5 5 11 0.5565 0.0126
-5 6 1 2.2270 -0.0011
-5 6 2 -5.1270 0.0041
-5 6 3 0.9101 -0.0101
-5 6 4 1.0115 0.0022
-5 6 5 3.1135 0.0012
-5 6 6 -2.9555 -0.0154
-5 6 7 -0.1255 0.0181
-5 6 8 -0.7507 0.0107
-5 6 9 1.5475 -0.0716
-5 6 10 0.1256 0.1323
-5 6 11 -0.5133 -0.0885
-5 7 1 -1.1191 -0.0107
-5 7 2 4.5141 0.0040
-5 7 3 -2.6837 0.0196
-5 7 4 -0.4970 -0.0084
-5 7 5 -2.1957 -0.0133
-5 7 6 3.6498 0.0168
-5 7 7 -0.9864 0.0038
-5 8 1 0.0824 0.0107
-5 8 2 -2.9404 -0.0219
-5 8 3 3.2588 -0.0092
-5 8 4 -0.0394 0.0160
-5 8 5 1.0417 0.0107
-5 8 6 -3.2510 -0.0152
-5 8 7 1.5952 -0.0135
-5 9 1 0.6459 0.0117
-5 9 2 0.9794 0.0258
-5 9 3 -2.8254 -0.0141
-5 9 4 0.5725 -0.0093
-5 9 5 -0.0845 -0.0001
-5 9 6 2.1182 0.0012
-5 9 7 -1.5789 0.0096
-5 10 1 -0.8441 -0.0316
-5 10 2 0.6693 0.0004
-5 10 3 1.6634 0.0153
-5 10 4 -0.9606 -0.0036
-5 10 5 -0.2757 0.0002
-5 10 6 -0.8682 0.0163
-5 10 7 1.0896 -0.0141
-5 11 1 0.6171 0.0186
-5 11 2 -1.3856 -0.0319
-5 11 3 -0.3277 0.0215
-5 11 4 0.9124 -0.0057
-4 -12 1 -1.8219 0.1792
-4 -12 2 0.1629 -0.0513
-4 -12 3 -0.4081 -0.0174
-4 -11 1 3.4090 -0.1187
-4 -11 2 -0.9869 0.0564
-4 -11 3 0.1531 0.0337
-4 -11 4 -2.1801 -0.0255
-4 -11 5 1.6429 0.0473
-4 -11 6 0.0981 -0.0096
-4 -10 1 -4.2087 0.0346
-4 -10 2 2.2717 -0.0202
-4 -10 3 0.3817 -0.0336
-4 -10 4 1.9974 0.0062
-4 -10 5 -2.8015 -0.0272
-4 -10 6 0.3106 0.0122
-4 -10 7 -0.3219 -0.0107
-4 -10 8 1.5770 0.0112
-4 -9 1 3.3542 0.0018
-4 -9 2 -3.4332 -0.0181
-4 -9 3 -0.8004 0.0274
-4 -9 4 -0.6291 0.0260
-4 -9 5 3.3272 -0.0038
-4 -9 6 -0.9630 -0.0126
-4 -9 7 -0.0177 0.0265
-4 -9 8 -2.1298 -0.0240
-4 -9 9 1.9619 -0.0141
-4 -8 1 -0.8197 0.0090
-4 -8 2 3.7135 0.0195
-4 -8 3 0.8384 -0.0186
-4 -8 4 -1.5566 -0.0449
-4 -8 5 -2.6313 0.0241
-4 -8 6 1.6271 0.0104
-4 -8 7 0.7432 -0.0334
-4 -8 8 1.5469 0.0735
-4 -8 9 -2.5593 0.0140
-4 -8 10 0.6040 0.0413
-4 -7 1 -2.6639 -0.0202
-4 -7 2 -2.6656 0.0052
-4 -7 3 -0.5573 0.0034
-4 -7 4 3.8552 0.0396
-4 -7 5 0.6020 -0.0190
-4 -7 6 -1.9874 -0.0174
-4 -7 7 -1.3655 0.0106
-4 -7 8 0.1214 -0.0779
-4 -7 9 2.3189 0.0348
-4 -7 10 -0.7013 0.0325
-4 -6 1 6.1563 0.0099
-4 -6 2 0.3182 -0.0161
-4 -6 3 0.1863 0.0124
-4 -6 4 -5.5842 -0.0254
-4 -6 5 2.3798 0.0028
-4 -6 6 1.6954 0.0327
-4 -6 7 1.4016 0.0109
-4 -6 8 -2.0831 0.0142
-4 -6 9 -1.2545 -0.0506
-4 -6 10 0.7360 -0.0300
-4 -6 11 0.7297 -0.0208
-4 -6 12 0.2145 0.1363
-4 -5 1 -8.8127 0.0040
-4 -5 2 3.0052 0.0010
-4 -5 3 0.0644 -0.0145
-4 -5 4 6.2191 0.0167
-4 -5 5 -5.5751 0.0019
-4 -5 6 -0.5143 -0.0332
-4 -5 7 -0.8442 -0.0031
-4 -5 8 3.4226 0.0413
-4 -5 9 -0.2609 0.0070
-4 -5 10 -0.7675 -0.0037
-4 -5 11 -1.1185 -0.0050
-4 -5 12 0.3764 -0.0979
-4 -4 1 9.7103 -0.0054
-4 -4 2 -6.7716 0.0146
-4 -4 3 0.0277 0.0022
-4 -4 4 -5.4441 -0.0105
-4 -4 5 8.0610 0.0020
-4 -4 6 -1.4390 0.0101
-4 -4 7 0.1395 -0.0122
-4 -4 8 -3.7144 -0.0267
-4 -4 9 1.7748 0.0314
-4 -4 10 0.6778 0.0116
-4 -4 11 1.1155 -0.0159
-4 -4 12 -1.2707 0.0536
-4 -3 1 -7.7742 0.0023
-4 -3 2 10.0093 -0.0102
-4 -3 3 -0.7513 0.0078
-4 -3 4 3.3025 0.0027
-4 -3 5 -8.9732 0.0023
-4 -3 6 3.6069 0.0096
-4 -3 7 0.2967 0.0046
-4 -3 8 3.0873 -0.0190
-4 -3 9 -2.9183 -0.0160
-4 -3 10 -0.2796 0.0046
-4 -3 11 -0.6844 0.0237
-4 -3 12 1.8202 -0.0175
-4 -2 1 2.4556 -0.0038
-4 -2 2 -11.2181 -0.0032
-4 -2 3 2.2455 -0.0049
-4 -2 4 -0.3480 0.0008
-4 -2 5 7.7901 -0.0115
-4 -2 6 -5.2308 -0.0038
-4 -2 7 -0.4245 0.0144
-4 -2 8 -1.8381 0.0265
-4 -2 9 3.4193 -0.0144
-4 -2 10 -0.3913 -0.0166
-4 -2 11 0.0929 -0.0024
-4 -2 12 -1.6229 -0.0108
-4 -1 1 5.2019 0.0041
-4 -1 2 9.0138 0.0068
-4 -1 3 -4.1339 -0.0028
-4 -1 4 -2.4265 0.0026
-4 -1 5 -4.5532 0.0083
-4 -1 6 5.7009 -0.0084
-4 -1 7 0.4049 -0.0168
-4 -1 8 0.1640 0.0026
-4 -1 9 -3.0923 0.0074
-4 -1 10 1.0344 0.0194
-4 -1 11 0.4174 -0.0152
-4 -1 12 0.8237 0.0188
-4 0 1 -12.4018 0.0003
-4 0 2 -3.2982 -0.0006
-4 0 3 5.4579 0.0049
-4 0 4 3.9653 -0.0062
-4 0 5 0.0011 0.0039
-4 0 6 -4.7189 0.0009
-4 0 7 -0.2602 0.0073
-4 0 8 1.6727 -0.0158
-4 0 9 1.8937 0.0202
-4 0 10 -1.3501 -0.0221
-4 0 11 -0.7713 0.0045
-4 0 12 0.1523 0.0068
-4 1 1 16.0579 0.0004
-4 1 2 -4.1112 -0.0054
-4 1 3 -5.1645 -0.0025
-4 1 4 -3.7160 0.0058
-4 1 5 4.4609 -0.0049
-4 1 6 2.3545 0.0120
-4 1 7 -0.0768 -0.0056
-4 1 8 -3.1134 -0.0029
-4 1 9 -0.0470 -0.0213
-4 1 10 1.2333 0.0222
-4 1 11 0.9020 0.0191
-4 1 12 -0.9418 -0.0485
-4 2 1 -14.8707 -0.0082
-4 2 2 10.2311 0.0072
-4 2 3 2.9054 -0.0006
-4 2 4 2.0429 -0.0049
-4 2 5 -7.2113 -0.0066
-4 2 6 0.8021 -0.0016
-4 2 7 0.4466 0.0062
-4 2 8 3.5340 0.0231
-4 2 9 -1.8927 -0.0031
-4 2 10 -0.7180 -0.0178
-4 2 11 -0.7037 -0.0265
-4 2 12 1.3137 0.0648
-4 3 1 10.1404 0.0085
-4 3 2 -12.6752 -0.0016
-4 3 3 0.4820 0.0037
-4 3 4 -0.0340 0.0019
-4 3 5 7.2921 0.0118
-4 3 6 -3.6336 -0.0210
-4 3 7 -0.4766 0.0041
-4 3 8 -2.7995 -0.0241
-4 3 9 3.2229 0.0156
-4 3 10 -0.0955 0.0195
-4 3 11 0.2438 0.0119
-4 3 12 -1.1654 -0.0410
-4 4 1 -4.5855 0.0037
-4 4 2 11.0711 -0.0137
-4 4 3 -3.3742 -0.0016
-4 4 4 -1.3210 0.0067
-4 4 5 -5.0425 -0.0053
-4 4 6 5.0172 0.0200
-4 4 7 0.0051 -0.0106
-4 4 8 1.4547 0.0136
-4 4 9 -3.4947 -0.0086
-4 4 10 0.9797 -0.0268
-4 4 11 0.1557 0.0016
-4 4 12 0.6284 0.0137
-4 5 1 0.3481 -0.0110
-4 5 2 -6.9921 0.0244
-4 5 3 4.4989 -0.0078
-4 5 4 1.8216 -0.0119
-4 5 5 1.7751 -0.0003
-4 5 6 -4.5736 0.0056
-4 5 7 0.6867 -0.0059
-4 5 8 -0.2683 0.0001
-4 5 9 2.7982 0.0077
-4 5 10 -1.5797 0.0154
-4 5 11 -0.2107 0.0117
-4 5 12 -0.0692 -0.0268
-4 6 1 2.0214 0.0036
-4 6 2 2.5602 -0.0079
-4 6 3 -3.8067 0.0074
-4 6 4 -1.8545 0.0039
-4 6 5 1.1885 0.0033
-4 6 6 2.8523 -0.0235
-4 6 7 -1.1615 0.0269
-4 6 8 -0.3425 -0.0130
-4 6 9 -1.6493 -0.0204
-4 6 10 1.6335 0.0247
-4 6 11 -0.0162 -0.0488
-4 7 1 -3.0267 0.0018
-4 7 2 0.9268 -0.0279
-4 7 3 2.1921 0.0183
-4 7 4 1.6698 0.0063
-4 7 5 -3.1001 -0.0130
-4 7 6 -0.7908 0.0208
-4 7 7 1.2167 -0.0192
-4 7 8 0.4294 0.0115
-4 7 9 0.6088 0.0263
-4 7 10 -1.2039 -0.0588
-4 8 1 3.1505 0.0036
-4 8 2 -3.1720 0.0423
-4 8 3 -0.4885 -0.0428
-4 8 4 -1.1991 -0.0053
-4 8 5 3.6824 0.0218
-4 8 6 -0.8621 -0.0125
-4 8 7 -0.9282 -0.0108
-4 8 8 -0.2472 0.0132
-4 8 9 0.0121 -0.0157
-4 8 10 0.6328 0.0455
-4 9 1 -2.5104 0.0005
-4 9 2 4.1598 -0.0191
-4 9 3 -0.9919 0.0176
-4 9 4 0.5503 0.0139
-4 9 5 -3.0045 -0.0135
-4 9 6 1.6894 -0.0011
-4 9 7 0.4804 0.0303
-4 9 8 0.0243 -0.0410
-4 10 1 1.3178 -0.0213
-4 10 2 -3.8037 -0.0065
-4 10 3 2.0401 0.0522
-4 10 4 -0.1783 -0.0637
-4 10 5 1.6333 0.0005
-4 10 6 -1.6024 0.0360
-4 10 7 -0.0779 -0.0367
-4 11 1 -0.1690 0.0205
-4 11 2 2.3870 0.0036
-4 11 3 -2.2680 -0.0964
-4 11 4 0.3134 0.1318
-4 11 5 -0.4719 -0.0136
-4 12 1 -0.3741 0.0307
-4 12 2 -0.8214 0.0056
-4 12 3 1.5823 0.0690
-4 12 4 -0.5792 -0.1502
-3 -12 1 1.2683 -0.1084
-3 -12 2 -0.8470 0.0778
-3 -12 3 -0.7058 0.0487
-3 -12 4 -0.2540 -0.0100
-3 -12 5 0.7868 -0.0115
-3 -11 1 -0.4837 0.0213
-3 -11 2 1.1752 -0.0445
-3 -11 3 1.6312 -0.0494
-3 -11 4 -1.0324 0.0136
-3 -11 5 -0.9059 0.0270
-3 -11 6 -0.3318 -0.0511
-3 -11 7 0.9826 0.0665
-3 -10 1 -1.4506 0.0082
-3 -10 2 -1.2299 0.0048
-3 -10 3 -2.0043 0.0455
-3 -10 4 2.9413 -0.0052
-3 -10 5 0.2265 -0.0357
-3 -10 6 0.2641 0.0344
-3 -10 7 -2.0573 -0.0307
-3 -10 8 0.5245 0.0592
-3 -9 1 3.8120 0.0119
-3 -9 2 0.6920 0.0037
-3 -9 3 1.4937 -0.0422
-3 -9 4 -4.5805 0.0023
-3 -9 5 1.3153 0.0282
-3 -9 6 -0.1208 -0.0132
-3 -9 7 2.8742 0.0034
-3 -9 8 -1.9796 0.0025
-3 -9 9 -0.3899 0.1276
-3 -9 10 0.1479 -0.0641
-3 -8 1 -5.5415 -0.0253
-3 -8 2 0.4268 0.0093
-3 -8 3 -0.3211 0.0333
-3 -8 4 5.1797 -0.0073
-3 -8 5 -3.3214 -0.0077
-3 -8 6 0.1006 -0.0151
-3 -8 7 -2.8077 -0.0097
-3 -8 8 3.5007 -0.0220
-3 -8 9 -0.4519 -0.0465
-3 -8 10 0.0398 0.0946
-3 -7 1 5.8872 0.0084
-3 -7 2 -1.7986 -0.0117
-3 -7 3 -1.1159 -0.0182
-3 -7 4 -4.3959 0.0081
-3 -7 5 5.1464 -0.0036
-3 -7 6 -0.4334 0.0409
-3 -7 7 1.7115 0.0165
-3 -7 8 -4.2278 -0.0204
-3 -7 9 1.4732 -0.0122
-3 -7 10 -0.1169 -0.0500
-3 -6 1 -4.4287 0.0149
-3 -6 2 3.0379 -0.0019
-3 -6 3 2.5185 0.0040
-3 -6 4 2.1767 -0.0015
-3 -6 5 -6.0953 -0.0032
-3 -6 6 1.2020 -0.0397
-3 -6 7 -0.0330 0.0014
-3 -6 8 3.7285 0.0534
-3 -6 9 -2.3003 0.0122
-3 -6 10 -0.1012 -0.0197
-3 -6 11 -1.2481 0.0233
-3 -6 12 1.2661 -0.1244
-3 -5 1 0.6967 -0.0199
-3 -5 2 -3.6741 0.0109
-3 -5 3 -3.5840 0.0050
-3 -5 4 1.3115 -0.0044
-3 -5 5 5.5463 0.0074
-3 -5 6 -2.1835 0.0121
-3 -5 7 -1.5320 -0.0165
-3 -5 8 -2.1466 -0.0279
-3 -5 9 2.7392 0.0027
-3 -5 10 0.3849 0.0492
-3 -5 11 0.4881 -0.0262
-3 -5 12 -1.7511 0.0491
-3 -4 1 5.6412 0.0072
-3 -4 2 2.8839 -0.0052
-3 -4 3 3.9344 -0.0070
-3 -4 4 -5.4622 0.0058
-3 -4 5 -3.1733 0.0062
-3 -4 6 2.8829 0.0065
-3 -4 7 2.5044 -0.0011
-3 -4 8 -0.0532 -0.0118
-3 -4 9 -2.6023 0.0076
-3 -4 10 -0.3752 -0.0299
-3 -4 11 0.7877 0.0231
-3 -4 12 1.3798 0.0136
-3 -3 1 -13.7689 0.0111
-3 -3 2 0.3013 -0.0050
-3 -3 3 -3.3830 -0.0013
-3 -3 4 9.0984 -0.0047
-3 -3 5 -0.7674 -0.0180
-3 -3 6 -2.8088 0.0024
-3 -3 7 -2.7908 0.0302
-3 -3 8 2.3566 0.0073
-3 -3 9 1.6729 -0.0229
-3 -3 10 0.1134 0.0002
-3 -3 11 -1.8899 -0.0000
-3 -3 12 -0.1913 -0.0331
-3 -2 1 21.0299 -0.0241
-3 -2 2 -6.0482 0.0103
-3 -2 3 2.2410 0.0162
-3 -2 4 -10.7997 -0.0005
-3 -2 5 5.3451 0.0059
-3 -2 6 1.7597 -0.0115
-3 -2 7 2.4868 -0.0341
-3 -2 8 -4.2716 0.0237
-3 -2 9 0.0127 0.0140
-3 -2 10 -0.0075 0.0108
-3 -2 11 2.3966 -0.0172
-3 -2 12 -1.1447 0.0141
-3 -1 1 -23.8515 0.0211
-3 -1 2 12.8720 -0.0107
-3 -1 3 -1.2596 -0.0216
-3 -1 4 9.5874 0.0086
-3 -1 5 -9.1570 0.0144
-3 -1 6 0.1214 -0.0027
-3 -1 7 -1.6657 0.0162
-3 -1 8 5.2874 -0.0253
-3 -1 9 -1.9784 0.0018
-3 -1 10 0.2756 -0.0061
-3 -1 11 -2.3396 0.0095
-3 -1 12 1.9772 0.0174
-3 0 1 20.0333 -0.0020
-3 0 2 -17.9450 0.0052
-3 0 3 1.1975 0.0092
-3 0 4 -5.5994 -0.0078
-3 0 5 10.7415 -0.0140
-3 0 6 -2.4148 0.0156
-3 0 7 0.4704 -0.0039
-3 0 8 -4.9554 -0.0065
-3 0 9 3.5222 0.0043
-3 0 10 -0.7009 0.0024
-3 0 11 1.8534 0.0035
-3 0 12 -2.1118 -0.0308
-3 1 1 -10.5954 -0.0112
-3 1 2 18.6255 0.0050
-3 1 3 -2.2671 0.0048
-3 1 4 0.3198 -0.0060
-3 1 5 -9.2023 -0.0020
-3 1 6 4.4101 0.0022
-3 1 7 0.6940 0.0014
-3 1 8 3.1935 0.0249
-3 1 9 -4.1051 -0.0200
-3 1 10 1.0081 -0.0096
-3 1 11 -1.0040 0.0044
-3 1 12 1.6837 0.0117
-3 2 1 -0.4825 -0.0006
-3 2 2 -14.1860 -0.0062
-3 2 3 3.8011 -0.0038
-3 2 4 4.0493 0.0142
-3 2 5 4.8931 0.0068
-3 2 6 -5.2067 -0.0288
-3 2 7 -1.3134 0.0016
-3 2 8 -0.5685 -0.0073
-3 2 9 3.5733 0.0144
-3 2 10 -1.2144 0.0228
-3 2 11 0.0361 -0.0198
-3 2 12 -0.9159 0.0150
-3 3 1 8.6264 0.0194
-3 3 2 6.4820 -0.0102
-3 3 3 -4.5681 -0.0015
-3 3 4 -5.9322 -0.0020
-3 3 5 0.4706 0.0014
-3 3 6 4.2226 0.0227
-3 3 7 1.2123 0.0016
-3 3 8 -1.8618 -0.0201
-3 3 9 -2.1735 0.0055
-3 3 10 1.4408 -0.0251
-3 3 11 0.5536 0.0058
-3 3 12 0.1064 0.0026
-3 4 1 -11.4202 -0.0111
-3 4 2 1.0844 0.0229
-3 4 3 3.7676 -0.0055
-3 4 4 5.3596 -0.0132
-3 4 5 -4.7442 -0.0027
-3 4 6 -1.7726 0.0082
-3 4 7 -0.7240 -0.0179
-3 4 8 3.1758 0.0274
-3 4 9 0.4515 -0.0047
-3 4 10 -1.5673 0.0051
-3 4 11 -0.4552 0.0397
-3 4 12 0.3936 -0.0777
-3 5 1 9.6526 -0.0188
-3 5 2 -5.7328 -0.0063
-3 5 3 -1.8091 0.0113
-3 5 4 -3.5620 0.0081
-3 5 5 6.6756 -0.0036
-3 5 6 -1.0196 -0.0194
-3 5 7 0.3307 0.0245
-3 5 8 -3.1486 -0.0123
-3 5 9 0.9685 -0.0194
-3 5 10 1.3222 0.0200
-3 5 11 -0.0652 -0.0650
-3 5 12 -0.4214 0.1436
-3 6 1 -5.9598 0.0291
-3 6 2 6.8969 -0.0220
-3 6 3 -0.1150 0.0047
-3 6 4 1.6799 0.0052
-3 6 5 -6.3654 0.0029
-3 6 6 3.0172 -0.0018
-3 6 7 -0.2301 0.0030
-3 6 8 2.2334 -0.0108
-3 6 9 -1.6758 0.0256
-3 6 10 -0.6785 -0.0079
-3 6 11 0.4276 0.0205
-3 7 1 2.5116 -0.0094
-3 7 2 -5.8530 0.0192
-3 7 3 1.2360 -0.0215
-3 7 4 -0.1233 -0.0033
-3 7 5 4.6369 -0.0015
-3 7 6 -3.7387 0.0288
-3 7 7 0.3151 -0.0448
-3 7 8 -1.0917 0.0250
-3 7 9 1.6427 0.0152
-3 7 10 -0.0241 -0.0628
-3 8 1 0.0501 -0.0030
-3 8 2 4.0049 0.0121
-3 8 3 -1.6809 0.0011
-3 8 4 -0.9749 0.0016
-3 8 5 -2.3394 0.0161
-3 8 6 3.3364 -0.0494
-3 8 7 -0.4259 0.0599
-3 8 8 0.1918 -0.0140
-3 8 9 -1.1487 -0.0809
-3 9 1 -1.8570 -0.0067
-3 9 2 -1.8886 -0.0223
-3 9 3 1.7711 0.0385
-3 9 4 1.3402 -0.0315
-3 9 5 0.2466 -0.0307
-3 9 6 -2.2448 0.0764
-3 9 7 0.4761 -0.0479
-3 9 8 0.2828 -0.0226
-3 9 9 0.5634 0.1252
-3 10 1 2.7913 -0.0015
-3 10 2 -0.2571 -0.0024
-3 10 3 -1.4295 -0.0349
-3 10 4 -0.9185 0.0728
-3 10 5 0.9556 0.0106
-3 10 6 0.9978 -0.1029
-3 10 7 -0.4182 0.0455
-3 10 8 -0.3661 0.0562
-3 11 1 -2.6013 0.0497
-3 11 2 1.7558 0.0110
-3 11 3 0.6011 -0.0221
-3 11 4 0.2252 -0.0671
-3 11 5 -1.0528 0.0374
-3 12 1 1.5977 -0.0860
-3 12 2 -1.9544 0.0288
-3 12 3 0.2182 0.0633
-2 -13 1 -0.7754 -0.0316
-2 -12 1 1.7466 -0.0442
-2 -12 2 0.2298 -0.0271
-2 -12 3 1.1893 -0.0445
-2 -12 4 -1.8799 0.0320
-2 -12 5 0.2521 0.0350
-2 -12 6 -0.2819 -0.0588
-2 -11 1 -2.9133 0.0499
-2 -11 2 -0.4281 0.0085
-2 -11 3 -0.6459 0.0111
-2 -11 4 3.0085 -0.0158
-2 -11 5 -1.0008 -0.0312
-2 -11 6 0.0177 0.0334
-2 -11 7 -1.5769 -0.0055
-2 -10 1 3.5289 -0.0083
-2 -10 2 0.2838 -0.0094
-2 -10 3 -0.8461 0.0043
-2 -10 4 -3.0555 0.0026
-2 -10 5 1.9859 0.0198
-2 -10 6 0.4828 -0.0087
-2 -10 7 1.5303 -0.0186
-2 -10 8 -2.3754 0.0667
-2 -10 9 0.6630 0.0908
-2 -9 1 -2.8752 -0.0190
-2 -9 2 0.1311 0.0151
-2 -9 3 2.6842 0.0009
-2 -9 4 1.6014 -0.0016
-2 -9 5 -2.7066 -0.0108
-2 -9 6 -0.8638 -0.0106
-2 -9 7 -0.3751 0.0015
-2 -9 8 2.7935 -0.0518
-2 -9 9 -1.1409 -0.0347
-2 -9 10 -0.0532 0.1970
-2 -8 1 0.7895 0.0080
-2 -8 2 -0.4262 -0.0087
-2 -8 3 -4.2688 -0.0112
-2 -8 4 1.0892 0.0059
-2 -8 5 2.6427 0.0176
-2 -8 6 0.8377 0.0185
-2 -8 7 -1.5004 0.0159
-2 -8 8 -1.9593 -0.0132
-2 -8 9 1.2520 -0.0072
-2 -8 10 0.5640 -0.1209
-2 -7 1 2.4583 0.0170
-2 -7 2 0.3408 -0.0034
-2 -7 3 5.2492 0.0077
-2 -7 4 -4.4214 -0.0062
-2 -7 5 -1.4987 -0.0312
-2 -7 6 -0.4094 -0.0074
-2 -7 7 3.2866 -0.0023
-2 -7 8 0.0960 0.0526
-2 -7 9 -0.9958 0.0116
-2 -7 11 0.6648 -0.0096
-2 -6 1 -6.5590 -0.0245
-2 -6 2 0.1968 0.0072
-2 -6 3 -5.2518 0.0112
-2 -6 4 7.6688 -0.0014
-2 -6 5 -0.7195 0.0257
-2 -6 6 -0.1687 -0.0088
-2 -6 7 -4.2695 -0.0196
-2 -6 8 2.1325 -0.0281
-2 -6 9 0.6178 -0.0039
-2 -6 10 1.6197 0.0529
-2 -6 11 -1.8147 -0.0092
-2 -6 12 -0.0457 0.0183
-2 -5 1 10.9130 0.0052
-2 -5 2 -1.4066 -0.0015
-2 -5 3 3.8219 -0.0239
-2 -5 4 -9.8326 0.0142
-2 -5 5 3.6427 0.0007
-2 -5 6 0.5946 0.0019
-2 -5 7 4.0907 0.0184
-2 -5 8 -4.0585 -0.0125
-2 -5 9 -0.1331 0.0091
-2 -5 10 -1.1377 -0.0464
-2 -5 11 2.7929 0.0175
-2 -5 12 -0.8026 0.0747
-2 -4 1 -13.9013 0.0242
-2 -4 2 3.5772 -0.0083
-2 -4 3 -0.9070 0.0101
-2 -4 4 9.6949 -0.0188
-2 -4 5 -6.4707 -0.0159
-2 -4 6 -0.6851 0.0245
-2 -4 7 -2.7416 -0.0032
-2 -4 8 5.1363 0.0133
-2 -4 9 -0.6801 -0.0179
-2 -4 10 0.1680 0.0087
-2 -4 11 -2.9435 0.0025
-2 -4 12 1.9235 -0.0854
-2 -3 1 13.0207 -0.0314
-2 -3 2 -6.3603 0.0191
-2 -3 3 -2.7139 0.0166
-2 -3 4 -6.4134 0.0036
-2 -3 5 8.1038 0.0012
-2 -3 6 0.4231 -0.0314
-2 -3 7 0.5017 -0.0013
-2 -3 8 -4.9424 0.0126
-2 -3 9 1.7699 0.0151
-2 -3 10 0.5153 0.0073
-2 -3 11 2.2373 -0.0247
-2 -3 12 -2.5918 0.0424
-2 -2 1 -6.5143 -0.0018
-2 -2 2 8.3553 -0.0219
-2 -2 3 5.6427 -0.0224
-2 -2 4 0.2792 0.0188
-2 -2 5 -7.5453 0.0189
-2 -2 6 0.0928 0.0037
-2 -2 7 2.0922 -0.0035
-2 -2 8 3.3257 -0.0165
-2 -2 9 -2.5981 -0.0099
-2 -2 10 -0.5711 0.0072
-2 -2 11 -1.1452 0.0189
-2 -2 12 2.4051 -0.0027
-2 -1 1 -4.7333 0.0481
-2 -1 2 -7.7614 0.0047
-2 -1 3 -6.5943 0.0022
-2 -1 4 6.9717 -0.0207
-2 -1 5 4.3879 -0.0167
-2 -1 6 -0.6689 0.0204
-2 -1 7 -4.3061 0.0030
-2 -1 8 -0.5887 -0.0071
-2 -1 9 2.5921 0.0160
-2 -1 10 0.3312 -0.0207
-2 -1 11 0.0266 0.0019
-2 -1 12 -1.5099 -0.0044
-2 0 1 16.8675 -0.0524
-2 0 2 3.6814 0.0226
-2 0 3 5.1784 0.0106
-2 0 4 -12.6432 -0.0001
-2 0 5 0.8023 0.0026
-2 0 6 0.9584 -0.0071
-2 0 7 5.4053 -0.0010
-2 0 8 -2.5242 0.0202
-2 0 9 -1.6518 -0.0222
-2 0 10 -0.1723 0.0099
-2 0 11 1.0249 -0.0051
-2 0 12 0.2966 -0.0123
-2 1 1 -24.8503 0.0019
-2 1 2 2.9505 -0.0268
-2 1 3 -2.2958 0.0035
-2 1 4 14.3576 0.0114
-2 1 5 -6.3918 -0.0015
-2 1 6 -0.5292 -0.0200
-2 1 7 -5.0107 0.0070
-2 1 8 5.0463 -0.0039
-2 1 9 0.1307 0.0102
-2 1 10 0.0380 0.0136
-2 1 11 -1.7919 -0.0055
-2 1 12 0.8644 0.0178
-2 2 1 25.2922 0.0465
-2 2 2 -9.5113 -0.0024
-2 2 3 -0.2983 -0.0177
-2 2 4 -11.5483 0.0039
-2 2 5 10.2108 0.0091
-2 2 6 -0.7671 0.0187
-2 2 7 3.3978 -0.0112
-2 2 8 -6.1370 -0.0178
-2 2 9 1.4866 0.0093
-2 2 10 0.2454 -0.0235
-2 2 11 1.8462 -0.0019
-2 2 12 -1.6211 0.0221
-2 3 1 -18.5250 -0.0364
-2 3 2 13.0239 0.0269
-2 3 3 1.2618 0.0041
-2 3 4 5.9550 -0.0168
-2 3 5 -10.7347 -0.0080
-2 3 6 2.4416 0.0067
-2 3 7 -1.3904 0.0007
-2 3 8 5.4775 0.0181
-2 3 9 -2.7518 -0.0058
-2 3 10 -0.4940 0.0124
-2 3 11 -1.0693 0.0229
-2 3 12 1.7037 -0.0929
-2 4 1 8.3917 -0.0095
-2 4 2 -12.0714 -0.0130
-2 4 3 -0.7076 0.0174
-2 4 4 -0.3923 -0.0002
-2 4 5 8.0928 0.0041
-2 4 6 -3.5783 -0.0192
-2 4 7 -0.1749 0.0122
-2 4 8 -3.4884 -0.0017
-2 4 9 3.2883 -0.0231
-2 4 10 0.3301 0.0011
-2 4 11 0.0078 -0.0079
-2 4 12 -1.1722 0.1191
-2 5 1 0.3664 0.0255
-2 5 2 7.8157 -0.0136
-2 5 3 -0.1768 -0.0133
-2 5 4 -3.2135 0.0239
-2 5 5 -3.8816 -0.0117
-2 5 6 3.5556 0.0098
-2 5 7 0.9372 -0.0084
-2 5 8 1.1106 -0.0083
-2 5 9 -2.9356 0.0389
-2 5 10 0.2739 0.0076
-2 5 11 0.5740 -0.0671
-2 5 12 0.4684 -0.0422
-2 6 1 -5.1549 -0.0016
-2 6 2 -2.9476 0.0070
-2 6 3 0.5214 -0.0042
-2 6 4 4.6313 -0.0161
-2 6 5 -0.0751 0.0167
-2 6 6 -2.5184 -0.0005
-2 6 7 -1.0171 -0.0026
-2 6 8 0.7450 -0.0020
-2 6 9 1.9110 -0.0090
-2 6 10 -0.8817 -0.0444
-2 6 11 -0.4381 0.1525
-2 7 1 6.3816 -0.0108
-2 7 2 -0.5472 0.0209
-2 7 3 -0.4419 0.0026
-2 7 4 -4.5211 -0.0124
-2 7 5 2.7402 0.0025
-2 7 6 1.1171 -0.0014
-2 7 7 0.6904 -0.0040
-2 7 8 -1.6294 0.0305
-2 7 9 -0.7222 -0.0498
-2 7 10 1.0521 0.0850
-2 8 1 -5.7259 -0.0078
-2 8 2 2.4482 -0.0176
-2 8 3 0.3448 0.0055
-2 8 4 3.4480 0.0211
-2 8 5 -3.8804 -0.0269
-2 8 6 0.0728 0.0093
-2 8 7 -0.1910 0.0251
-2 8 8 1.5974 -0.0639
-2 8 9 -0.1430 0.0921
-2 8 10 -0.7616 -0.0937
-2 9 1 4.2026 0.0152
-2 9 2 -3.3285 -0.0168
-2 9 3 -0.1819 0.0192
-2 9 4 -1.8517 -0.0095
-2 9 5 3.6462 0.0137
-2 9 6 -0.7992 -0.0177
-2 9 7 -0.2561 -0.0328
-2 9 8 -1.0127 0.0835
-2 9 9 0.4721 -0.0960
-2 10 1 -2.0953 0.0115
-2 10 2 3.3182 0.0214
-2 10 3 -0.2406 -0.0613
-2 10 4 0.3747 0.0127
-2 10 5 -2.4661 0.0384
-2 10 6 1.0227 -0.0006
-2 10 7 0.4459 0.0178
-2 10 8 0.3400 -0.0768
-2 11 1 -0.0313 -0.0291
-2 11 2 -2.3134 0.0266
-2 11 3 0.6682 0.0558
-2 11 4 0.4005 -0.0334
-2 11 5 1.0689 -0.0820
-2 11 6 -0.8286 0.0482
-2 12 1 1.2451 0.0052
-2 12 2 0.8450 -0.0690
-2 12 3 -0.6623 0.0118
-1 -13 1 0.7201 -0.1010
-1 -13 2 0.6333 0.0275
-1 -13 3 -0.4915 -0.0494
-1 -13 4 -0.4104 0.0706
-1 -12 1 -0.8486 0.0673
-1 -12 2 -1.2235 -0.0277
-1 -12 3 1.9870 0.0092
-1 -12 4 0.1230 -0.0461
-1 -12 5 0.1051 0.0402
-1 -12 6 -1.0559 -0.0535
-1 -11 1 0.4658 -0.0069
-1 -11 2 1.2024 0.0143
-1 -11 3 -3.7034 0.0144
-1 -11 4 0.9991 0.0126
-1 -11 5 0.0864 -0.0284
-1 -11 6 1.9012 0.0536
-1 -11 7 -1.0069 -0.0656
-1 -11 8 -0.5390 0.1585
-1 -10 1 0.7035 -0.0288
-1 -10 2 -0.5483 -0.0042
-1 -10 3 4.6285 -0.0090
-1 -10 4 -2.7728 0.0063
-1 -10 5 -0.2056 0.0033
-1 -10 6 -2.1452 -0.0365
-1 -10 7 2.4119 0.0276
-1 -10 8 0.3285 -0.1081
-1 -10 9 -0.5408 0.1501
-1 -9 1 -2.4308 0.0219
-1 -9 2 -0.2430 0.0032
-1 -9 3 -4.2395 -0.0081
-1 -9 4 4.5525 -0.0028
-1 -9 5 -0.1175 0.0252
-1 -9 6 1.5145 0.0114
-1 -9 7 -3.5982 0.0051
-1 -9 8 0.6833 0.0153
-1 -9 9 0.5271 -0.1132
-1 -9 10 0.5444 -0.0460
-1 -8 1 4.1343 0.0111
-1 -8 2 0.8295 -0.0068
-1 -8 3 2.6255 0.0088
-1 -8 4 -5.6502 -0.0108
-1 -8 5 1.0183 -0.0364
-1 -8 6 -0.3166 0.0142
-1 -8 7 3.8344 -0.0035
-1 -8 8 -2.0360 0.0445
-1 -8 9 -0.2685 0.0440
-1 -8 10 -1.0340 0.0035
-1 -8 11 1.1222 -0.1190
-1 -7 1 -5.2692 -0.0376
-1 -7 2 -1.2564 0.0144
-1 -7 3 0.0724 0.0088
-1 -7 4 5.5102 0.0137
-1 -7 5 -2.2303 0.0166
-1 -7 6 -0.9438 -0.0245
-1 -7 7 -2.8603 -0.0136
-1 -7 8 3.0738 -0.0381
-1 -7 9 0.0617 0.0166
-1 -7 10 0.8651 0.0179
-1 -7 11 -1.8369 0.0724
-1 -6 1 5.1895 0.0302
-1 -6 2 1.5434 -0.0228
-1 -6 3 -3.8464 -0.0159
-1 -6 4 -3.5741 -0.0010
-1 -6 5 3.1787 0.0150
-1 -6 6 1.9636 0.0069
-1 -6 7 0.8090 0.0173
-1 -6 8 -3.3297 0.0056
-1 -6 9 0.0653 -0.0382
-1 -6 10 0.2433 0.0014
-1 -6 11 1.7761 -0.0151
-1 -6 12 -0.9994 0.0711
-1 -5 1 -2.7751 0.0054
-1 -5 2 -1.5070 0.0156
-1 -5 3 8.2395 -0.0029
-1 -5 4 -0.5909 -0.0082
-1 -5 5 -3.1914 -0.0229
-1 -5 6 -2.6329 0.0210
-1 -5 7 1.9721 -0.0085
-1 -5 8 2.5251 0.0024
-1 -5 9 -0.3145 0.0255
-1 -5 10 -1.6957 -0.0283
-1 -5 11 -0.6749 -0.0052
-1 -5 12 1.2415 -0.0162
-1 -4 1 -3.0297 -0.0266
-1 -4 2 1.2120 0.0144
-1 -4 3 -11.8630 0.0201
-1 -4 4 6.6631 -0.0022
-1 -4 5 1.7648 0.0015
-1 -4 6 2.8225 -0.0232
-1 -4 7 -4.8569 0.0023
-1 -4 8 -0.5909 0.0139
-1 -4 9 0.6373 -0.0061
-1 -4 10 2.5405 0.0220
-1 -4 11 -0.9182 -0.0052
-1 -4 12 -0.9765 -0.0388
-1 -3 1 11.7285 0.0043
-1 -3 2 -1.2992 -0.0394
-1 -3 3 12.8635 -0.0032
-1 -3 4 -13.0389 0.0173
-1 -3 5 1.1401 0.0184
-1 -3 6 -2.3723 -0.0057
-1 -3 7 6.9138 0.0007
-1 -3 8 -2.0909 -0.0211
-1 -3 9 -0.6471 -0.0017
-1 -3 10 -2.4091 0.0080
-1 -3 11 2.1643 0.0104
-1 -3 12 0.2802 0.0379
-1 -2 1 -20.4328 0.0299
-1 -2 2 2.5480 0.0250
-1 -2 3 -10.1077 -0.0299
-1 -2 4 17.1482 -0.0114
-1 -2 5 -4.9052 -0.0153
-1 -2 6 1.3256 0.0291
-1 -2 7 -7.2546 -0.0072
-1 -2 8 4.6510 0.0086
-1 -2 9 0.1037 0.0004
-1 -2 10 1.6743 -0.0169
-1 -2 11 -2.6875 -0.0058
-1 -2 12 0.5300 0.0014
-1 -1 1 24.9512 -0.0196
-1 -1 2 -5.0830 0.0160
-1 -1 3 4.1847 0.0306
-1 -1 4 -16.6858 -0.0082
-1 -1 5 8.3231 0.0036
-1 -1 6 -0.1085 -0.0202
-1 -1 7 5.5714 0.0109
-1 -1 8 -6.1559 0.0027
-1 -1 9 0.7806 0.0017
-1 -1 10 -0.7867 -0.0093
-1 -1 11 2.6051 0.0126
-1 -1 12 -1.2156 -0.0286
-1 -1 13 0.2471 0.0118
-1 0 1 -22.2168 -0.0310
-1 0 2 7.9881 -0.0335
-1 0 3 2.5346 0.0072
-1 0 4 11.1069 0.0083
-1 0 5 -9.9803 -0.0023
-1 0 6 -0.6352 -0.0027
-1 0 7 -2.4026 -0.0014
-1 0 8 6.0955 0.0004
-1 0 9 -1.6255 -0.0034
-1 0 10 -0.1304 0.0357
-1 0 11 -2.0102 -0.0243
-1 0 12 1.6492 0.0115
-1 1 1 12.3642 0.0526
-1 1 2 -9.6221 0.0109
-1 1 3 -7.0714 -0.0343
-1 1 4 -2.3791 0.0153
-1 1 5 8.9085 0.0046
-1 1 6 0.5220 0.0093
-1 1 7 -1.0794 -0.0157
-1 1 8 -4.5132 -0.0038
-1 1 9 2.2281 0.0033
-1 1 10 0.9664 -0.0312
-1 1 11 0.8472 0.0128
-1 1 12 -1.6633 0.0483
-1 2 1 0.8713 -0.0101
-1 2 2 8.5667 0.0109
-1 2 3 7.7173 0.0183
-1 2 4 -5.8335 -0.0258
-1 2 5 -5.2515 0.0016
-1 2 6 0.1903 -0.0022
-1 2 7 3.6336 0.0248
-1 2 8 1.8905 -0.0063
-1 2 9 -2.4793 0.0054
-1 2 10 -1.3376 0.0071
-1 2 11 0.6504 0.0118
-1 2 12 1.1366 -0.1113
-1 3 1 -11.9136 -0.0409
-1 3 2 -4.8012 -0.0001
-1 3 3 -5.1576 0.0102
-1 3 4 10.3341 0.0036
-1 3 5 0.4107 -0.0069
-1 3 6 -0.7682 0.0027
-1 3 7 -4.5652 -0.0206
-1 3 8 0.9743 0.0160
-1 3 9 2.1796 -0.0209
-1 3 10 0.9440 0.0100
-1 3 11 -1.7902 -0.0026
-1 3 12 -0.2607 0.1117
-1 4 1 16.5780 0.0323
-1 4 2 0.0845 -0.0149
-1 4 3 1.6718 -0.0113
-1 4 4 -10.3021 0.0186
-1 4 5 3.6887 0.0009
-1 4 6 0.6497 -0.0106
-1 4 7 3.9988 0.0094
-1 4 8 -3.1740 -0.0022
-1 4 9 -1.2144 0.0249
-1 4 10 -0.0523 -0.0177
-1 4 11 1.9659 -0.0454
-1 4 12 -0.4800 -0.0242
-1 5 1 -14.5849 0.0164
-1 5 2 3.2524 -0.0027
-1 5 3 0.8467 -0.0030
-1 5 4 7.2889 -0.0056
-1 5 5 -5.7541 0.0022
-1 5 6 0.0737 0.0088
-1 5 7 -2.6028 0.0055
-1 5 8 4.0746 -0.0308
-1 5 9 -0.1404 -0.0085
-1 5 10 -0.6597 0.0354
-1 5 11 -1.2671 0.0676
-1 6 1 9.0973 -0.0322
-1 6 2 -4.1748 0.0308
-1 6 3 -2.0023 -0.0004
-1 6 4 -3.5014 -0.0236
-1 6 5 5.7001 0.0132
-1 6 6 -0.8461 0.0031
-1 6 7 1.0546 -0.0224
-1 6 8 -3.6154 0.0488
-1 6 9 1.2918 -0.0014
-1 6 10 0.7442 -0.0783
-1 6 11 0.3696 -0.0071
-1 7 1 -3.6819 0.0009
-1 7 2 3.4347 -0.0236
-1 7 3 2.2998 0.0135
-1 7 4 0.2713 0.0271
-1 7 5 -4.2472 -0.0284
-1 7 6 1.2293 -0.0087
-1 7 7 0.2314 0.0298
-1 7 8 2.2611 -0.0244
-1 7 9 -1.7588 -0.0341
-1 7 10 -0.3339 0.1429
-1 8 1 -0.1551 0.0217
-1 8 2 -2.2307 -0.0088
-1 8 3 -2.1179 -0.0064
-1 8 4 2.0136 -0.0044
-1 8 5 2.2073 0.0106
-1 8 6 -1.1926 0.0073
-1 8 7 -1.0101 -0.0141
-1 8 8 -0.7107 -0.0347
-1 8 9 1.4952 0.1111
-1 8 10 -0.1131 -0.2033
-1 9 1 2.6493 -0.0071
-1 9 2 0.9451 0.0140
-1 9 3 1.5821 -0.0095
-1 9 4 -3.2098 -0.0116
-1 9 5 -0.2178 0.0380
-1 9 6 0.9192 -0.0187
-1 9 7 1.1392 -0.0190
-1 9 8 -0.4017 0.0942
-1 9 9 -0.8475 -0.1747
-1 10 1 -4.0393 -0.0087
-1 10 2 0.5119 0.0136
-1 10 3 -0.9583 -0.0048
-1 10 4 3.2145 0.0129
-1 10 5 -1.1739 -0.0801
-1 10 6 -0.5505 0.0514
-1 10 7 -0.7307 0.0442
-1 11 1 4.0473 0.0028
-1 11 2 -1.7446 -0.0233
-1 11 3 0.5744 0.0439
-1 11 4 -2.2989 -0.0202
-1 11 5 1.6112 0.0887
-1 11 6 0.1879 -0.0858
-1 12 1 -2.7909 -0.0106
-1 12 2 2.0325 -0.0061
-1 12 3 -0.4253 -0.0550
-1 12 4 1.1357 0.0351
-1 12 5 -1.2094 -0.0687
-1 13 1 1.2130 0.0563
-1 13 2 -1.3196 0.0321
0 -13 1 0.1203 0.0499
0 -13 2 -0.5565 -0.0337
0 -13 3 1.6748 0.0091
0 -12 1 -0.3517 -0.0065
0 -12 2 -0.1092 0.0243
0 -12 3 -2.3100 -0.0068
0 -12 4 1.7074 0.0430
0 -12 5 -0.2169 -0.0627
0 -11 1 0.8745 -0.0287
0 -11 2 1.4240 -0.0133
0 -11 3 1.6597 0.0150
0 -11 4 -2.4351 -0.0270
0 -11 5 -0.2400 0.0324
0 -11 6 -0.5176 -0.0453
0 -11 7 1.5932 -0.0034
0 -10 1 -1.4382 0.0456
0 -10 2 -2.6446 -0.0067
0 -10 3 0.3845 -0.0168
0 -10 4 2.4525 0.0178
0 -10 5 0.5606 0.0030
0 -10 6 -0.9426 0.0146
0 -10 7 -1.6278 0.0099
0 -10 8 0.5653 -0.0529
0 -10 9 0.8533 -0.0933
0 -9 1 1.5572 -0.0329
0 -9 2 3.2556 0.0270
0 -9 3 -3.1543 -0.0053
0 -9 4 -1.3903 -0.0127
0 -9 5 -0.4958 -0.0185
0 -9 6 2.6357 0.0094
0 -9 7 0.5210 0.0120
0 -9 8 -0.8675 0.0492
0 -9 9 -1.1918 0.0499
0 -9 10 0.6755 -0.1184
0 -8 1 -1.0366 0.0003
0 -8 2 -3.2189 -0.0212
0 -8 3 5.8721 0.0335
0 -8 4 -0.7148 0.0010
0 -8 5 0.2203 0.0049
0 -8 6 -3.7416 -0.0178
0 -8 7 1.4048 -0.0315
0 -8 8 0.6531 -0.0130
0 -8 9 1.4820 -0.0020
0 -8 10 -1.3862 0.0907
0 -8 11 -0.0557 0.0036
0 -7 1 -0.0078 0.0184
0 -7 2 2.4610 -0.0115
0 -7 3 -7.9670 -0.0295
0 -7 4 3.5605 0.0140
0 -7 5 -0.1136 0.0169
0 -7 6 3.9221 0.0062
0 -7 7 -3.4965 0.0248
0 -7 8 0.1020 -0.0171
0 -7 10 2.3642 -0.0302
0 -7 11 -0.4154 0.0363
0 -6 1 1.5935 -0.0085
0 -6 2 -0.6449 0.0308
0 -6 3 8.6908 -0.0084
0 -6 4 -6.6786 -0.0135
0 -6 5 0.4333 -0.0201
0 -6 6 -3.2098 0.0113
0 -6 7 5.1658 -0.0027
0 -6 8 -1.2686 0.0125
0 -6 9 1.0639 0.0133
0 -6 10 -2.9103 -0.0120
0 -6 11 1.3235 -0.0398
0 -6 12 -0.0137 0.0825
0 -5 1 -3.7906 -0.0029
0 -5 2 -2.2267 -0.0098
0 -5 3 -6.9021 0.0321
0 -5 4 9.2263 -0.0061
0 -5 5 -1.2107 0.0057
0 -5 6 1.6562 -0.0138
0 -5 7 -5.8435 -0.0092
0 -5 8 2.6457 0.0121
0 -5 9 -0.2780 0.0061
0 -5 10 2.3979 -0.0016
0 -5 11 -2.0578 0.0198
0 -5 12 0.2903 -0.1155
0 -4 1 5.9411 -0.0043
0 -4 2 5.2257 -0.0226
0 -4 3 1.7880 -0.0087
0 -4 4 -9.8550 0.0202
0 -4 5 2.2745 0.0033
0 -4 6 0.6230 0.0009
0 -4 7 4.9333 0.0041
0 -4 8 -3.7841 -0.0209
0 -4 9 -0.3710 -0.0131
0 -4 10 -0.9434 0.0408
0 -4 11 2.0864 -0.0114
0 -4 12 -0.6019 0.0585
0 -3 1 -6.3335 0.0016
0 -3 2 -6.8846 0.0228
0 -3 3 5.9754 -0.0290
0 -3 4 7.2264 -0.0098
0 -3 5 -3.2295 0.0025
0 -3 6 -3.1254 0.0074
0 -3 7 -2.2071 0.0043
0 -3 8 4.0344 0.0044
0 -3 9 0.5931 0.0087
0 -3 10 -0.7457 -0.0465
0 -3 11 -1.4441 0.0111
0 -3 12 0.7917 0.0250
0 -2 1 3.1504 0.0399
0 -2 2 6.3014 0.0027
0 -2 3 -13.8293 0.0277
0 -2 4 -1.0926 -0.0080
0 -2 5 3.4911 -0.0094
0 -2 6 4.9469 -0.0013
0 -2 7 -1.7363 -0.0041
0 -2 8 -3.0102 0.0110
0 -2 9 -0.4871 -0.0078
0 -2 10 2.0785 0.0117
0 -2 11 0.4932 0.0063
0 -2 12 -0.8522 -0.0643
0 -2 13 0.0685 0.0683
0 -1 1 4.0013 -0.0815
0 -1 2 -3.9447 -0.0136
0 -1 3 18.3556 0.0090
0 -1 4 -6.9086 0.0058
0 -1 5 -2.5464 0.0051
0 -1 6 -5.2622 -0.0049
0 -1 7 5.5708 -0.0013
0 -1 8 0.9282 -0.0036
0 -1 9 0.2433 0.0114
0 -1 10 -2.8664 0.0148
0 -1 11 0.5820 -0.0288
0 -1 12 0.7704 0.0402
0 0 1 -13.2469 0.0547
0 0 2 1.4682 0.0027
0 0 3 -17.2463 -0.0287
0 0 4 13.6294 0.0086
0 0 5 0.3570 0.0050
0 0 6 3.9162 -0.0030
0 0 7 -7.8981 0.0028
0 0 8 1.5742 -0.0127
0 0 9 0.0669 -0.0088
0 0 10 3.0094 -0.0055
0 0 11 -1.7533 0.0211
0 0 12 -0.4091 0.0256
0 1 0 -28.5043 -0.1172
0 1 1 20.9336 0.0341
0 1 2 -0.5669 -0.0022
0 1 3 10.9151 0.0089
0 1 4 -16.0503 -0.0035
0 1 5 2.4212 -0.0123
0 1 6 -1.6228 0.0162
0 1 7 7.9457 0.0021
0 1 8 -3.8099 0.0108
0 1 9 -0.3093 0.0006
0 1 10 -2.3397 -0.0115
0 1 11 2.7326 0.0053
0 1 12 -0.2888 -0.0877
0 2 0 17.9691 0.1253
0 2 1 -23.4045 -0.0931
0 2 2 1.6220 0.0211
0 2 3 -2.4183 0.0156
0 2 4 13.1797 -0.0221
0 2 5 -4.6625 0.0167
0 2 6 -0.4451 -0.0162
0 2 7 -5.9058 -0.0094
0 2 8 5.1917 0.0059
0 2 9 0.1848 0.0042
0 2 10 0.9637 0.0036
0 2 11 -2.9622 0.0021
0 2 12 1.0558 0.0894
0 3 0 -5.4241 -0.0449
0 3 1 19.3160 0.0630
0 3 2 -3.3455 -0.0251
0 3 3 -4.5020 -0.0133
0 3 4 -6.7253 0.0314
0 3 5 5.3892 -0.0164
0 3 6 1.4316 0.0018
0 3 7 2.7806 0.0139
0 3 8 -5.2959 -0.0075
0 3 9 0.4523 -0.0117
0 3 10 0.5047 0.0188
0 3 11 2.1740 -0.0515
0 3 12 -1.4447 -0.0121
0 4 0 -4.3610 -0.0201
0 4 1 -10.8154 0.0065
0 4 2 3.9954 -0.0031
0 4 3 7.7445 0.0000
0 4 4 -0.1310 -0.0062
0 4 5 -4.3708 0.0033
0 4 6 -1.3232 0.0112
0 4 7 0.1957 -0.0129
0 4 8 4.0733 -0.0164
0 4 9 -1.2936 0.0338
0 4 10 -1.3278 -0.0238
0 4 11 -0.7845 0.0791
0 4 12 1.2429 -0.0825
0 5 0 8.8836 0.0225
0 5 1 2.1339 -0.0317
0 5 2 -3.0289 0.0275
0 5 3 -7.6082 -0.0014
0 5 4 4.8600 -0.0221
0 5 5 2.2142 0.0180
0 5 6 0.7452 -0.0122
0 5 7 -2.1910 0.0057
0 5 8 -1.9982 0.0369
0 5 9 1.7862 -0.0538
0 5 10 1.2422 -0.0031
0 5 11 -0.4137 -0.0297
0 6 0 -8.7962 -0.0048
0 6 1 3.4863 0.0064
0 6 2 1.3599 -0.0134
0 6 3 5.6714 0.0092
0 6 4 -6.7982 0.0186
0 6 5 0.1400 -0.0254
0 6 6 -0.2804 0.0056
0 6 7 2.9817 0.0032
0 6 8 -0.1283 -0.0237
0 6 9 -1.6244 0.0328
0 6 10 -0.5928 0.0551
0 6 11 0.9037 -0.0726
0 7 0 6.3738 0.0066
0 7 1 -5.5936 0.0144
0 7 2 -0.0534 -0.0167
0 7 3 -3.3168 -0.0048
0 7 4 6.6754 0.0067
0 7 5 -2.0158 0.0076
0 7 6 0.0721 -0.0023
0 7 7 -2.7095 -0.0028
0 7 8 1.5746 -0.0173
0 7 9 0.9642 0.0352
0 7 10 -0.0552 -0.1120
0 7 11 -0.7498 0.1539
0 8 0 -3.3819 -0.0110
0 8 1 5.5249 -0.0090
0 8 2 -0.7423 0.0226
0 8 3 1.2697 -0.0025
0 8 4 -5.4190 -0.0196
0 8 5 3.1469 0.0164
0 8 6 -0.0246 0.0071
0 8 7 1.6782 -0.0156
0 8 8 -1.9715 0.0549
0 8 9 -0.2338 -0.1015
0 8 10 0.3550 0.1412
0 9 0 0.5189 -0.0044
0 9 1 -4.3883 0.0055
0 9 2 1.3847 -0.0134
0 9 3 0.0940 -0.0027
0 9 4 3.5958 0.0092
0 9 5 -3.4408 -0.0176
0 9 6 0.1085 -0.0171
0 9 7 -0.4046 0.0459
0 9 8 1.4413 -0.0694
0 10 0 1.7652 0.0204
0 10 1 2.5365 -0.0114
0 10 2 -1.8226 0.0245
0 10 3 -0.6099 0.0030
0 10 4 -1.6615 0.0117
0 10 5 2.8839 -0.0099
0 10 6 -0.3053 0.0252
0 10 7 -0.4686 -0.0669
0 11 0 -2.8654 -0.0115
0 11 1 -0.4411 -0.0040
0 11 2 1.6617 -0.0493
0 11 3 0.4773 0.0269
0 11 4 0.1761 -0.0357
0 11 5 -1.7437 0.0473
0 11 6 0.4421 -0.0267
0 12 0 2.5863 -0.0123
0 12 1 -0.9809 0.0456
0 12 2 -0.9381 0.0466
0 12 3 -0.1614 -0.0707
0 12 4 0.4799 0.0585
0 13 0 -1.5225 0.0287
0 13 1 1.1833 -0.0689
0 13 2 0.2450 -0.0133
1 -13 1 0.3097 -0.0738
1 -13 2 -1.2754 0.0583
1 -13 3 0.2336 -0.0289
1 -12 0 0.2955 -0.0561
1 -12 1 -0.0147 0.0524
1 -12 2 2.3433 -0.0649
1 -12 3 -1.4682 0.0485
1 -12 4 -0.0706 -0.0440
1 -11 0 -1.4511 0.0152
1 -11 1 -0.5642 -0.0071
1 -11 2 -2.6429 0.0375
1 -11 3 3.1520 -0.0478
1 -11 4 -0.3141 0.0388
1 -11 5 1.2428 0.0009
1 -10 0 2.8588 -0.0082
1 -10 1 0.9173 -0.0199
1 -10 2 1.7919 0.0085
1 -10 3 -4.4475 0.0137
1 -10 4 1.1478 -0.0214
1 -10 5 -0.7604 -0.0101
1 -10 6 3.1604 0.0377
1 -9 0 -3.8115 0.0085
1 -9 1 -0.8074 0.0140
1 -9 2 -0.0963 -0.0279
1 -9 3 4.6312 0.0268
1 -9 4 -2.2894 -0.0057
1 -9 5 -0.0555 0.0059
1 -9 6 -2.9268 -0.0324
1 -9 7 2.5540 -0.0143
1 -9 8 0.1053 -0.0061
1 -8 0 3.7783 0.0051
1 -8 1 0.5655 -0.0041
1 -8 2 -2.1375 0.0093
1 -8 3 -3.3784 -0.0303
1 -8 4 3.2516 0.0258
1 -8 5 0.7070 0.0048
1 -8 6 1.5120 0.0146
1 -8 7 -3.1385 0.0138
1 -8 8 0.4203 -0.0306
1 -7 0 -2.2327 -0.0056
1 -7 1 -0.6344 0.0077
1 -7 2 4.9747 0.0094
1 -7 3 0.4991 -0.0026
1 -7 4 -3.4535 -0.0206
1 -7 5 -1.0328 -0.0080
1 -7 6 0.6168 0.0048
1 -7 7 2.6964 0.0019
1 -7 8 -0.8635 0.0216
1 -6 0 -1.6787 -0.0229
1 -6 1 1.1444 -0.0028
1 -6 2 -8.1956 -0.0015
1 -6 3 4.1665 0.0247
1 -6 4 2.4195 -0.0018
1 -6 5 1.1090 0.0015
1 -6 6 -2.9808 -0.0098
1 -6 7 -1.2019 -0.0110
1 -6 8 1.0796 0.0113
1 -6 9 1.1734 0.0090
1 -6 10 0.0547 -0.0026
1 -6 11 -0.5948 -0.0346
1 -6 12 -0.2776 -0.0269
1 -5 0 8.3922 0.0342
1 -5 1 -2.1059 -0.0184
1 -5 2 10.5375 -0.0107
1 -5 3 -10.1273 -0.0094
1 -5 4 0.1526 0.0128
1 -5 5 -0.9158 0.0060
1 -5 6 5.0620 -0.0009
1 -5 7 -1.1899 0.0051
1 -5 8 -0.9396 -0.0256
1 -5 9 -1.8476 0.0058
1 -5 10 1.8007 0.0275
1 -5 11 -0.3301 0.0365
1 -5 12 0.4714 -0.0527
1 -4 0 -16.4119 0.0133
1 -4 1 3.7254 0.0182
1 -4 2 -10.1538 0.0017
1 -4 3 15.5171 -0.0127
1 -4 4 -4.1520 -0.0028
1 -4 5 0.3628 -0.0078
1 -4 6 -6.0644 0.0114
1 -4 7 3.9918 0.0055
1 -4 8 0.2921 0.0063
1 -4 9 1.8624 -0.0170
1 -4 10 -3.2332 -0.0233
1 -4 11 1.3928 -0.0116
1 -4 12 -0.5953 0.0983
1 -3 0 22.0529 -0.0724
1 -3 1 -6.1939 0.0257
1 -3 2 6.1886 0.0125
1 -3 3 -17.4736 0.0047
1 -3 4 8.6249 -0.0054
1 -3 5 0.4122 0.0039
1 -3 6 5.1610 -0.0084
1 -3 7 -6.2456 -0.0091
1 -3 8 0.8142 0.0171
1 -3 9 -1.2605 0.0067
1 -3 10 3.6703 -0.0042
1 -3 11 -2.0966 0.0073
1 -3 12 0.5192 -0.0853
1 -2 0 -21.4667 0.0583
1 -2 1 9.1357 -0.0651
1 -2 2 0.0371 -0.0058
1 -2 3 13.8774 0.0206
1 -2 4 -11.7224 -0.0053
1 -2 5 -0.9996 0.0033
1 -2 6 -2.1828 -0.0035
1 -2 7 6.8856 0.0074
1 -2 8 -2.0267 -0.0121
1 -2 9 0.3054 0.0080
1 -2 10 -3.1137 0.0125
1 -2 11 2.3732 -0.0186
1 -2 12 -0.3258 0.0388
1 -1 0 13.3858 0.0264
1 -1 1 -11.3607 0.0398
1 -1 2 -5.5240 -0.0086
1 -1 3 -5.1938 -0.0256
1 -1 4 11.5286 0.0168
1 -1 5 1.0599 -0.0078
1 -1 6 -1.9716 0.0098
1 -1 7 -5.3997 -0.0086
1 -1 8 2.9216 -0.0115
1 -1 9 0.6809 -0.0001
1 -1 10 1.8097 0.0074
1 -1 11 -2.3976 0.0072
1 -1 12 0.2941 0.0161
1 0 0 -0.2641 -0.0866
1 0 1 11.2818 0.0299
1 0 2 7.5874 0.0016
1 0 3 -5.2582 0.0060
1 0 4 -7.3806 -0.0044
1 0 5 -0.6555 0.0028
1 0 6 5.6758 -0.0042
1 0 7 2.1862 0.0126
1 0 8 -3.2273 0.0181
1 0 9 -1.2984 -0.0209
1 0 10 -0.0568 -0.0222
1 0 11 2.1399 0.0234
1 0 12 -0.5663 -0.0619
1 1 0 -12.8800 0.0622
1 1 1 -7.9292 -0.0645
1 1 2 -5.7595 0.0177
1 1 3 13.1110 0.0097
1 1 4 0.5953 -0.0211
1 1 5 0.2402 0.0095
1 1 6 -7.4632 -0.0046
1 1 7 1.6241 -0.0121
1 1 8 2.7947 0.0013
1 1 9 1.2091 0.0211
1 1 10 -1.6667 0.0145
1 1 11 -1.3720 -0.0277
1 1 12 0.9279 0.0680
1 2 0 21.0029 -0.0015
1 2 1 2.0115 0.0343
1 2 2 1.9481 -0.0147
1 2 3 -15.5679 -0.0088
1 2 4 6.1297 0.0265
1 2 5 -0.3306 -0.0141
1 2 6 6.8763 0.0048
1 2 7 -4.6986 0.0068
1 2 8 -1.5774 -0.0187
1 2 9 -0.4779 0.0023
1 2 10 2.7292 -0.0056
1 2 11 0.1112 -0.0059
1 2 12 -1.0156 -0.0166
1 3 0 -21.6025 -0.0199
1 3 1 4.0240 0.0078
1 3 2 1.2837 -0.0104
1 3 3 12.8380 0.0056
1 3 4 -10.2744 -0.0047
1 3 5 1.1056 0.0010
1 3 6 -4.6778 0.0029
1 3 7 6.1236 -0.0028
1 3 8 -0.1924 0.0136
1 3 9 -0.3717 -0.0161
1 3 10 -2.7338 0.0131
1 3 11 1.1688 0.0323
1 3 12 0.6939 -0.0545
1 4 0 15.9157 0.0012
1 4 1 -7.5040 -0.0126
1 4 2 -2.6568 0.0198
1 4 3 -7.4047 -0.0056
1 4 4 10.8531 -0.0178
1 4 5 -2.2300 0.0172
1 4 6 2.2057 -0.0050
1 4 7 -5.7838 -0.0008
1 4 8 1.9349 0.0014
1 4 9 0.7847 0.0035
1 4 10 1.8373 -0.0247
1 4 11 -1.8692 -0.0140
1 4 12 -0.1627 0.0804
1 5 0 -7.7735 0.0055
1 5 1 7.4917 -0.0019
1 5 2 2.5604 -0.0002
1 5 3 2.0174 -0.0029
1 5 4 -8.6170 0.0202
1 5 5 3.0990 -0.0178
1 5 6 -0.4071 -0.0072
1 5 7 4.2112 0.0135
1 5 8 -3.0031 -0.0087
1 5 9 -0.6102 0.0136
1 5 10 -0.6240 0.0256
1 5 11 1.7522 -0.0336
1 6 0 0.8347 0.0158
1 6 1 -5.1974 -0.0005
1 6 2 -1.9340 -0.0159
1 6 3 1.8033 0.0162
1 6 4 5.1385 -0.0085
1 6 5 -3.3170 -0.0027
1 6 6 -0.5436 0.0240
1 6 7 -2.0985 -0.0315
1 6 8 3.0487 0.0132
1 6 9 0.1033 -0.0168
1 6 10 -0.3026 -0.0159
1 6 11 -1.0871 0.0690
1 7 0 3.4262 -0.0289
1 7 1 2.4529 0.0111
1 7 2 1.2465 0.0067
1 7 3 -3.8270 -0.0098
1 7 4 -1.7132 -0.0062
1 7 5 2.9087 0.0245
1 7 6 0.8383 -0.0249
1 7 7 0.0410 0.0317
1 7 8 -2.1610 -0.0251
1 7 9 0.3621 0.0224
1 7 10 0.6445 -0.0056
1 8 0 -5.3996 0.0093
1 8 1 -0.1409 -0.0037
1 8 2 -0.5723 0.0046
1 8 3 4.3500 -0.0186
1 8 4 -1.0123 0.0213
1 8 5 -2.0908 -0.0265
1 8 6 -0.6038 0.0010
1 8 7 1.3864 0.0033
1 8 8 0.8181 0.0350
1 8 9 -0.5344 -0.0502
1 9 0 5.7657 0.0240
1 9 1 -1.7384 -0.0083
1 9 2 0.0997 0.0022
1 9 3 -3.7082 0.0344
1 9 4 2.7121 -0.0277
1 9 5 1.0386 0.0016
1 9 6 0.0166 0.0374
1 9 7 -1.7364 -0.0577
1 9 8 0.2873 -0.0267
1 10 0 -4.7926 -0.0422
1 10 1 3.0466 -0.0061
1 10 2 -0.0783 -0.0031
1 10 3 2.3502 -0.0149
1 10 4 -3.1364 0.0077
1 10 5 0.0094 0.0449
1 10 6 0.4940 -0.0740
1 10 7 1.1198 0.0953
1 11 0 2.8760 0.0350
1 11 1 -3.2858 0.0349
1 11 2 0.3879 -0.0256
1 11 3 -0.9252 -0.0159
1 11 4 2.3728 0.0333
1 11 5 -0.6514 -0.0950
1 12 0 -0.9212 -0.0045
1 12 1 2.3776 -0.0361
1 12 2 -0.5750 0.0550
1 12 3 0.0005 0.0258
1 13 0 -0.2111 -0.0379
1 13 1 -1.0616 0.0062
2 -12 0 -1.0242 -0.0461
2 -12 1 -1.0590 0.0403
2 -12 2 0.0147 0.0245
2 -12 3 1.3720 -0.0553
2 -12 4 -0.0305 0.0567
2 -12 5 -0.0748 -0.0328
2 -11 0 1.1708 0.0178
2 -11 1 1.9164 -0.0471
2 -11 2 -1.8708 0.0006
2 -11 3 -1.0472 0.0416
2 -11 4 -0.0460 -0.0377
2 -11 5 1.2854 0.0120
2 -11 6 0.5090 0.0521
2 -11 7 -0.5234 -0.0601
2 -10 0 -0.7132 0.0113
2 -10 1 -2.1578 0.0166
2 -10 2 3.9831 -0.0055
2 -10 3 -0.3032 -0.0198
2 -10 4 0.0098 0.0142
2 -10 5 -2.5842 0.0015
2 -10 6 0.8103 -0.0514
2 -10 7 0.7371 0.0487
2 -10 8 0.5001 -0.0420
2 -9 0 -0.3509 -0.0031
2 -9 1 1.7581 0.0042
2 -9 2 -5.4494 -0.0089
2 -9 3 2.4207 0.0154
2 -9 4 -0.1110 -0.0005
2 -9 5 3.1970 0.0007
2 -9 6 -2.6623 0.0283
2 -9 7 -0.2802 -0.0292
2 -9 8 -0.4454 0.0048
2 -8 0 1.7811 -0.0100
2 -8 1 -0.9958 0.0025
2 -8 2 5.9265 0.0109
2 -8 3 -4.7668 -0.0242
2 -8 4 0.6266 0.0054
2 -8 5 -2.8884 -0.0112
2 -8 6 4.1595 0.0060
2 -8 7 -0.7746 0.0064
2 -8 8 0.4168 0.0120
2 -7 0 -3.4773 -0.0032
2 -7 1 -0.0078 -0.0044
2 -7 2 -5.3066 0.0067
2 -7 3 6.8383 0.0182
2 -7 4 -1.5436 -0.0151
2 -7 5 1.8375 0.0168
2 -7 6 -4.7061 -0.0255
2 -7 7 2.0420 0.0119
2 -6 0 5.2692 0.0148
2 -6 1 1.2190 -0.0145
2 -6 2 3.0716 -0.0154
2 -6 3 -7.9972 0.0069
2 -6 4 2.6177 0.0089
2 -6 5 -0.1961 -0.0094
2 -6 6 4.0517 0.0157
2 -6 7 -3.1559 -0.0157
2 -6 8 0.3729 -0.0025
2 -6 10 2.1232 0.0398
2 -6 11 -0.8845 0.0166
2 -5 0 -6.1751 0.0045
2 -5 1 -2.2817 0.0221
2 -5 2 1.3945 0.0026
2 -5 3 7.1330 -0.0226
2 -5 4 -3.5402 0.0093
2 -5 5 -1.8824 -0.0062
2 -5 6 -2.0284 0.0110
2 -5 7 3.7514 0.0013
2 -5 8 -0.4884 -0.0032
2 -5 9 0.7080 -0.0247
2 -5 11 1.5063 0.0156
2 -4 0 4.4009 -0.0233
2 -4 1 2.5442 0.0021
2 -4 2 -7.5340 0.0060
2 -4 3 -3.0876 0.0126
2 -4 4 3.8587 -0.0148
2 -4 5 3.8786 0.0152
2 -4 6 -1.3176 -0.0284
2 -4 7 -3.3554 0.0193
2 -4 8 0.7511 0.0101
2 -4 9 0.5997 0.0110
2 -4 10 1.4463 -0.0183
2 -4 11 -1.6010 -0.0117
2 -4 12 0.7670 -0.0489
2 -3 0 1.2866 -0.0008
2 -3 1 -1.7151 -0.0248
2 -3 2 12.9433 0.0071
2 -3 3 -4.0315 0.0030
2 -3 4 -2.9303 -0.0002
2 -3 5 -4.9453 -0.0081
2 -3 6 5.2817 0.0228
2 -3 7 1.6286 -0.0244
2 -3 8 -0.9783 -0.0029
2 -3 9 -1.8126 0.0103
2 -3 10 0.0035 0.0174
2 -3 11 1.2308 -0.0114
2 -3 12 -0.5798 0.0106
2 -2 0 -9.9780 0.0416
2 -2 1 0.4579 0.0130
2 -2 2 -14.5675 -0.0208
2 -2 3 11.9397 -0.0035
2 -2 4 0.3586 0.0146
2 -2 5 4.4943 -0.0068
2 -2 6 -8.4705 -0.0049
2 -2 7 1.2153 0.0060
2 -2 8 0.9478 -0.0067
2 -2 9 2.5354 -0.0047
2 -2 10 -1.5836 0.0035
2 -2 11 -0.6887 0.0131
2 -2 12 0.4507 0.0026
2 -1 0 18.4768 -0.0367
2 -1 1 -0.1204 0.0091
2 -1 2 11.0324 0.0138
2 -1 3 -17.0368 -0.0022
2 -1 4 3.3729 -0.0106
2 -1 5 -2.7185 0.0125
2 -1 6 9.4700 -0.0063
2 -1 7 -4.3174 0.0174
2 -1 8 -0.5543 -0.0016
2 -1 9 -2.4816 -0.0190
2 -1 10 2.8605 -0.0050
2 -1 11 0.1033 0.0030
2 -1 12 -0.5216 -0.0082
2 0 0 -22.9063 -0.0156
2 0 1 1.5943 -0.0010
2 0 2 -3.9370 -0.0020
2 0 3 16.7036 -0.0017
2 0 4 -6.8677 -0.0018
2 0 5 0.5392 -0.0050
2 0 6 -7.7370 0.0053
2 0 7 6.5375 -0.0219
2 0 8 -0.2034 0.0198
2 0 9 1.6033 0.0258
2 0 10 -3.4312 -0.0151
2 0 11 0.5697 -0.0020
2 0 12 0.6756 0.0020
2 1 0 20.9633 0.0504
2 1 1 -4.2880 -0.0243
2 1 2 -3.2159 0.0075
2 1 3 -11.1135 0.0074
2 1 4 8.5991 0.0047
2 1 5 0.9522 -0.0036
2 1 6 4.0358 -0.0024
2 1 7 -7.0190 0.0076
2 1 8 1.2129 -0.0197
2 1 9 -0.2643 -0.0110
2 1 10 3.0087 0.0240
2 1 11 -1.2516 -0.0189
2 1 12 -0.6817 0.0272
2 2 0 -13.3584 -0.0298
2 2 1 6.3636 0.0221
2 2 2 7.4902 -0.0159
2 2 3 3.0173 -0.0014
2 2 4 -7.8460 -0.0004
2 2 5 -1.1762 0.0032
2 2 6 -0.0458 0.0048
2 2 7 5.6474 0.0050
2 2 8 -2.1618 -0.0025
2 2 9 -0.9035 0.0014
2 2 10 -1.6740 -0.0062
2 2 11 1.6393 0.0244
2 2 12 0.4450 -0.0570
2 3 0 3.4661 -0.0099
2 3 1 -6.2439 0.0085
2 3 2 -8.1717 0.0021
2 3 3 4.1582 -0.0061
2 3 4 5.0448 0.0001
2 3 5 0.4194 0.0020
2 3 6 -2.6863 -0.0076
2 3 7 -3.1035 -0.0051
2 3 8 2.6267 0.0183
2 3 9 1.4356 -0.0041
2 3 10 -0.0531 -0.0225
2 3 11 -1.4569 0.0058
2 3 12 -0.0826 0.0509
2 4 0 4.7250 0.0194
2 4 1 3.9626 -0.0237
2 4 2 6.4403 0.0199
2 4 3 -8.2526 -0.0008
2 4 4 -1.4183 -0.0017
2 4 5 0.4721 -0.0044
2 4 6 3.6525 0.0053
2 4 7 0.3908 0.0022
2 4 8 -2.3613 -0.0098
2 4 9 -1.2980 -0.0033
2 4 10 1.4770 0.0484
2 4 11 0.7503 -0.0549
2 4 12 -0.1953 -0.0080
2 5 0 -8.9320 -0.0015
2 5 1 -0.9668 0.0082
2 5 2 -3.8967 -0.0161
2 5 3 9.0378 0.0091
2 5 4 -1.7738 -0.0023
2 5 5 -0.8306 0.0045
2 5 6 -3.3336 -0.0026
2 5 7 1.7614 -0.0027
2 5 8 1.4527 -0.0078
2 5 9 0.7678 0.0267
2 5 10 -2.0949 -0.0677
2 5 11 0.0888 0.0940
2 6 0 9.3440 -0.0096
2 6 1 -1.3103 0.0028
2 6 2 1.5309 -0.0076
2 6 3 -7.5556 0.0062
2 6 4 3.8448 0.0031
2 6 5 0.5868 -0.0052
2 6 6 2.3854 0.0059
2 6 7 -3.0221 -0.0021
2 6 8 -0.2198 0.0130
2 6 9 -0.1983 -0.0368
2 6 10 1.8285 0.0652
2 7 0 -7.4715 0.0015
2 7 1 2.4628 0.0108
2 7 2 0.2659 0.0123
2 7 3 5.0313 -0.0348
2 7 4 -4.7313 0.0111
2 7 5 -0.0048 0.0044
2 7 6 -1.1400 -0.0105
2 7 7 3.2045 0.0174
2 7 8 -0.9054 -0.0075
2 7 9 -0.1316 0.0112
2 7 10 -1.0355 -0.0245
2 8 0 4.6123 0.0128
2 8 1 -2.7996 -0.0183
2 8 2 -1.2882 0.0056
2 8 3 -2.2996 0.0390
2 8 4 4.5693 -0.0258
2 8 5 -0.7036 -0.0057
2 8 6 -0.1097 0.0092
2 8 7 -2.2972 -0.0296
2 8 8 1.4659 0.0032
2 8 9 0.1431 0.0338
2 9 0 -1.4757 -0.0224
2 9 1 2.5217 -0.0034
2 9 2 1.4480 -0.0046
2 9 3 -0.0721 -0.0103
2 9 4 -3.4429 0.0121
2 9 5 1.3223 0.0238
2 9 6 0.8479 -0.0100
2 9 7 0.8253 0.0243
2 10 0 -1.2695 0.0214
2 10 1 -1.5994 0.0211
2 10 2 -0.9861 -0.0275
2 10 3 1.5563 -0.0175
2 10 4 1.6679 0.0288
2 10 5 -1.4932 -0.0627
2 10 6 -0.7656 0.0291
2 11 0 2.8236 -0.0022
2 11 1 0.2943 0.0052
2 11 2 0.4219 0.0406
2 11 3 -1.8601 0.0233
2 11 4 -0.0349 -0.0615
2 11 5 1.0410 0.0959
2 12 0 -2.8351 -0.0245
2 12 1 0.6993 -0.0537
2 12 2 -0.1318 0.0021
2 12 3 1.2669 -0.0258
2 13 0 1.8158 0.0224
3 -12 0 -0.0983 -0.0128
3 -12 1 1.0919 -0.0795
3 -12 2 -1.9648 0.0647
3 -12 3 0.4967 -0.0240
3 -12 4 -0.3439 0.0368
3 -11 0 0.1840 0.0422
3 -11 1 -0.5785 0.0267
3 -11 2 2.8215 -0.0396
3 -11 3 -1.3030 0.0123
3 -11 4 -0.0366 -0.0400
3 -11 5 -1.6719 0.0604
3 -11 6 1.5394 -0.0755
3 -10 0 -0.3882 -0.0176
3 -10 1 -0.7277 0.0018
3 -10 2 -2.4480 0.0068
3 -10 3 2.1104 0.0079
3 -10 4 0.5288 0.0269
3 -10 5 1.1967 -0.0572
3 -10 6 -2.4991 0.0653
3 -10 7 0.6130 -0.0487
3 -9 0 0.5586 -0.0103
3 -9 1 2.2817 0.0014
3 -9 2 0.7020 0.0054
3 -9 3 -2.3670 -0.0230
3 -9 4 -0.7715 -0.0039
3 -9 5 0.1554 0.0317
3 -9 6 2.5462 -0.0320
3 -9 7 -1.0358 0.0126
3 -8 0 -0.5525 0.0078
3 -8 1 -3.6431 -0.0013
3 -8 2 1.9571 0.0003
3 -8 3 1.7220 0.0172
3 -8 4 0.7412 -0.0113
3 -8 5 -1.8635 -0.0029
3 -8 6 -1.3954 -0.0027
3 -8 7 1.0623 0.0190
3 -8 8 0.8758 -0.0389
3 -7 0 0.3345 -0.0029
3 -7 1 4.5878 -0.0122
3 -7 2 -5.0861 0.0018
3 -7 3 -0.1374 -0.0005
3 -7 4 -0.6397 0.0075
3 -7 5 3.4559 -0.0117
3 -7 6 -0.6597 0.0183
3 -7 7 -0.6342 -0.0295
3 -7 9 1.0244 -0.0082
3 -6 0 0.2692 0.0204
3 -6 1 -4.6820 0.0127
3 -6 2 8.2866 -0.0150
3 -6 3 -2.3582 -0.0031
3 -6 4 0.5524 0.0039
3 -6 5 -4.5622 0.0098
3 -6 6 3.1125 -0.0138
3 -6 7 -0.0995 0.0140
3 -6 8 1.7633 -0.0278
3 -6 9 -2.2503 -0.0127
3 -6 10 0.3579 -0.0057
3 -5 0 -1.6734 -0.0324
3 -5 1 3.2167 0.0053
3 -5 2 -10.4993 0.0183
3 -5 3 5.6331 -0.0083
3 -5 4 -0.4751 -0.0043
3 -5 5 4.6592 -0.0029
3 -5 6 -5.3709 0.0034
3 -5 7 1.0603 0.0127
3 -5 8 -1.3222 0.0104
3 -5 9 2.9933 0.0042
3 -5 10 -1.4591 -0.0265
3 -4 0 4.0271 0.0100
3 -4 1 0.0059 -0.0097
3 -4 2 9.8519 -0.0078
3 -4 3 -8.8790 0.0133
3 -4 4 0.5669 -0.0050
3 -4 5 -3.2215 0.0013
3 -4 6 6.6468 0.0012
3 -4 7 -2.2180 -0.0256
3 -4 8 0.4615 0.0120
3 -4 9 -2.8615 0.0126
3 -4 10 2.4249 0.0124
3 -4 11 -0.6126 0.0135
3 -3 0 -6.5174 0.0214
3 -3 1 -3.8621 -0.0122
3 -3 2 -5.0182 0.0035
3 -3 3 10.3687 -0.0029
3 -3 4 -1.0516 0.0069
3 -3 5 0.3098 -0.0038
3 -3 6 -6.1200 -0.0008
3 -3 7 3.3472 0.0153
3 -3 8 0.3497 -0.0184
3 -3 9 1.9057 -0.0135
3 -3 10 -2.8472 0.0210
3 -3 11 1.0128 -0.0119
3 -2 0 7.4095 -0.0223
3 -2 1 6.3097 0.0264
3 -2 2 -3.0002 -0.0098
3 -2 3 -8.4271 -0.0069
3 -2 4 1.8161 0.0036
3 -2 5 3.1210 0.0038
3 -2 6 3.4820 0.0008
3 -2 7 -3.9635 0.0020
3 -2 8 -0.7437 -0.0015
3 -2 9 -0.4238 0.0066
3 -2 10 2.6022 -0.0310
3 -2 11 -1.1550 0.0305
3 -1 0 -5.1447 0.0027
3 -1 1 -5.9719 -0.0090
3 -1 2 10.8145 0.0052
3 -1 3 2.9814 0.0046
3 -1 4 -2.3180 -0.0108
3 -1 5 -5.6353 -0.0006
3 -1 6 0.6151 -0.0009
3 -1 7 3.5674 -0.0060
3 -1 8 0.6019 0.0234
3 -1 9 -1.1888 -0.0078
3 -1 10 -1.7120 0.0119
3 -1 11 1.1092 -0.0277
3 0 0 -0.2792 0.0001
3 0 1 3.3603 -0.0121
3 0 2 -14.8240 0.0154
3 0 3 3.9615 0.0001
3 0 4 1.9864 0.0039
3 0 5 6.1631 -0.0020
3 0 6 -4.6736 -0.0004
3 0 7 -2.0116 -0.0030
3 0 8 -0.0732 -0.0166
3 0 9 2.4541 0.0056
3 0 10 0.2996 0.0133
3 0 11 -0.9392 -0.0004
3 0 12 -0.3630 0.0162
3 1 0 6.8875 0.0154
3 1 1 -0.4154 0.0037
3 1 2 13.6771 -0.0226
3 1 3 -9.5327 0.0005
3 1 4 -0.6649 0.0072
3 1 5 -4.6776 0.0041
3 1 6 7.0939 -0.0014
3 1 7 -0.2692 0.0107
3 1 8 -0.4885 -0.0123
3 1 9 -2.9438 0.0161
3 1 10 1.3069 -0.0305
3 1 11 0.5841 0.0236
3 1 12 0.3190 -0.0373
3 2 0 -11.8259 -0.0171
3 2 1 -1.1628 0.0157
3 2 2 -8.8072 -0.0004
3 2 3 11.7672 0.0036
3 2 4 -1.2661 -0.0086
3 2 5 2.2139 -0.0097
3 2 6 -7.1355 0.0100
3 2 7 2.4175 -0.0101
3 2 8 0.7374 0.0274
3 2 9 2.5337 -0.0370
3 2 10 -2.5890 0.0322
3 2 11 0.0142 -0.0194
3 2 12 -0.1158 0.0314
3 3 0 13.1934 -0.0037
3 3 1 1.0877 -0.0090
3 3 2 2.9322 0.0237
3 3 3 -10.4667 -0.0168
3 3 4 3.0605 0.0024
3 3 5 -0.1129 0.0172
3 3 6 5.3307 -0.0170
3 3 7 -3.7010 0.0034
3 3 8 -0.5597 -0.0116
3 3 9 -1.4886 0.0235
3 3 10 3.0792 -0.0049
3 3 11 -0.7270 -0.0144
3 4 0 -11.0884 0.0199
3 4 1 -0.2079 -0.0140
3 4 2 1.7933 -0.0151
3 4 3 6.8381 0.0193
3 4 4 -3.9930 0.0024
3 4 5 -0.9302 -0.0177
3 4 6 -2.8864 0.0087
3 4 7 3.9501 0.0101
3 4 8 0.0613 -0.0152
3 4 9 0.2970 0.0152
3 4 10 -2.6371 -0.0452
3 4 11 1.2354 0.0660
3 5 0 7.0775 -0.0148
3 5 1 -0.5606 0.0122
3 5 2 -4.5437 -0.0059
3 5 3 -2.5329 0.0029
3 5 4 3.8059 -0.0071
3 5 5 1.0936 0.0064
3 5 6 0.6762 0.0124
3 5 7 -3.3958 -0.0272
3 5 8 0.5857 0.0242
3 5 9 0.5523 -0.0291
3 5 10 1.5621 0.0715
3 6 0 -2.8228 0.0032
3 6 1 0.8733 0.0137
3 6 2 5.4630 -0.0008
3 6 3 -1.1911 -0.0256
3 6 4 -2.8002 0.0142
3 6 5 -0.8085 0.0119
3 6 6 1.0469 -0.0253
3 6 7 2.2367 0.0263
3 6 8 -1.1533 -0.0009
3 6 9 -0.7649 -0.0108
3 6 10 -0.4505 -0.0330
3 7 0 -0.7516 0.0017
3 7 1 -0.7925 -0.0183
3 7 2 -4.9996 0.0245
3 7 3 3.7476 0.0149
3 7 4 1.4161 -0.0115
3 7 5 0.2575 -0.0311
3 7 6 -2.1164 0.0151
3 7 7 -0.6617 0.0183
3 7 8 1.3312 -0.0559
3 7 9 0.4136 0.0830
3 8 0 3.2690 -0.0065
3 8 1 0.3878 -0.0113
3 8 2 3.6077 -0.0166
3 8 3 -4.9498 0.0181
3 8 4 0.1150 -0.0111
3 8 5 0.3895 0.0498
3 8 6 2.1993 0.0064
3 8 7 -0.7875 -0.0982
3 8 8 -0.9695 0.1336
3 9 0 -4.4288 0.0118
3 9 1 0.3082 0.0282
3 9 2 -1.8466 -0.0262
3 9 3 4.7322 -0.0290
3 9 4 -1.5434 0.0363
3 9 5 -0.6941 -0.0609
3 9 6 -1.3318 -0.0162
3 9 7 1.3832 0.1642
3 10 0 4.0682 -0.0007
3 10 1 -1.0681 0.0002
3 10 2 0.4112 0.0456
3 10 3 -3.3285 0.0055
3 10 4 2.3249 -0.0347
3 10 5 0.3726 0.0490
3 10 6 0.2613 0.0094
3 11 0 -2.5935 -0.0226
3 11 1 1.4630 -0.0361
3 11 2 0.2228 -0.0096
3 11 3 1.5246 0.0163
3 11 4 -2.0392 0.0074
3 12 0 0.9782 0.0174
3 12 1 -1.2463 0.0286
3 12 2 -0.1752 -0.0342
4 -12 0 -0.3705 0.0753
4 -12 1 0.8800 -0.0402
4 -11 0 0.5598 -0.0158
4 -11 1 -2.2152 0.0246
4 -11 2 0.8915 -0.0137
4 -11 3 0.0745 0.0223
4 -11 4 1.4172 0.0197
4 -11 5 -1.1314 -0.0666
4 -10 0 -0.4976 -0.0131
4 -10 1 3.1608 -0.0015
4 -10 2 -2.6642 0.0028
4 -10 3 0.4089 -0.0182
4 -10 4 -1.8337 -0.0081
4 -10 5 2.5801 0.0470
4 -10 6 -0.3854 -0.0440
4 -10 7 -0.0593 0.0045
4 -9 0 0.1648 -0.0061
4 -9 1 -2.9985 0.0041
4 -9 2 4.1963 0.0104
4 -9 3 -1.2399 -0.0005
4 -9 4 1.6570 0.0060
4 -9 5 -3.6324 -0.0231
4 -9 6 1.5713 0.0171
4 -9 7 -0.1791 0.0090
4 -9 8 1.1199 -0.0620
4 -8 0 0.4384 0.0244
4 -8 1 1.6110 -0.0195
4 -8 2 -4.7346 -0.0103
4 -8 3 2.1109 0.0189
4 -8 4 -0.9919 -0.0149
4 -8 5 3.7284 0.0090
4 -8 6 -2.7690 0.0046
4 -8 7 0.5047 -0.0142
4 -8 9 1.7426 -0.0225
4 -7 0 -1.2459 -0.0097
4 -7 1 0.8038 0.0114
4 -7 2 4.0524 0.0045
4 -7 3 -2.7490 -0.0184
4 -7 4 0.0314 0.0202
4 -7 5 -2.7283 -0.0071
4 -7 6 3.4737 -0.0136
4 -7 7 -0.7407 0.0085
4 -7 8 1.2036 -0.0337
4 -7 9 -2.3786 0.0019
4 -6 0 1.9431 -0.0138
4 -6 1 -4.0171 0.0176
4 -6 2 -2.0343 -0.0077
4 -6 3 3.0837 0.0020
4 -6 4 0.9725 -0.0097
4 -6 5 0.7350 0.0099
4 -6 6 -3.3711 0.0117
4 -6 7 0.9009 0.0036
4 -6 8 -0.1429 0.0090
4 -6 9 2.0510 -0.0010
4 -6 10 -1.6721 -0.0886
4 -5 0 -2.1019 0.0189
4 -5 1 7.4024 -0.0299
4 -5 2 -1.6040 0.0125
4 -5 3 -2.9119 0.0115
4 -5 4 -1.5965 -0.0091
4 -5 5 1.9308 -0.0102
4 -5 6 2.2613 -0.0036
4 -5 7 -1.0681 -0.0105
4 -5 8 -1.0934 0.0182
4 -5 9 -0.7581 0.0006
4 -5 10 1.7182 0.0637
4 -4 0 1.7400 -0.0153
4 -4 1 -9.5397 0.0149
4 -4 2 6.6088 -0.0024
4 -4 3 1.6619 -0.0129
4 -4 4 1.4354 0.0167
4 -4 5 -4.5520 0.0072
4 -4 6 -0.1101 -0.0052
4 -4 7 1.1448 0.0069
4 -4 8 1.8724 -0.0279
4 -4 9 -0.9427 0.0085
4 -4 10 -1.1327 -0.0247
4 -4 11 0.8862 0.0446
4 -3 0 -1.6406 0.0175
4 -3 1 8.8784 -0.0019
4 -3 2 -11.3137 -0.0138
4 -3 3 1.0523 0.0082
4 -3 4 -0.5043 -0.0058
4 -3 5 6.0923 -0.0041
4 -3 6 -2.7110 0.0073
4 -3 7 -0.8510 0.0012
4 -3 8 -1.9146 0.0120
4 -3 9 2.4148 -0.0103
4 -3 10 0.1356 0.0005
4 -3 11 -0.7340 0.0010
4 -2 0 2.7563 -0.0136
4 -2 1 -5.1845 0.0068
4 -2 2 13.1763 0.0105
4 -2 3 -4.5944 -0.0023
4 -2 4 -0.6809 -0.0098
4 -2 5 -5.7048 0.0025
4 -2 6 5.3253 0.0026
4 -2 7 -0.0217 -0.0077
4 -2 8 1.3311 0.0088
4 -2 9 -3.2526 -0.0024
4 -2 10 0.9762 0.0067
4 -2 11 0.3668 -0.0266
4 -1 0 -5.0952 -0.0058
4 -1 1 0.1337 -0.0079
4 -1 2 -10.6836 0.0117
4 -1 3 7.3639 -0.0068
4 -1 4 1.4629 0.0127
4 -1 5 3.3189 -0.0002
4 -1 6 -6.6380 -0.0171
4 -1 7 1.3495 0.0133
4 -1 8 -0.4451 -0.0118
4 -1 9 3.2579 0.0089
4 -1 10 -1.9743 -0.0031
4 -1 11 0.0581 0.0249
4 0 0 7.3618 0.0191
4 0 1 3.8357 -0.0084
4 0 2 4.6957 -0.0222
4 0 3 -7.8815 0.0144
4 0 4 -1.4632 -0.0009
4 0 5 0.1501 -0.0057
4 0 6 5.9443 0.0210
4 0 7 -2.6306 -0.0160
4 0 8 -0.3729 0.0014
4 0 9 -2.4000 0.0044
4 0 10 2.6320 -0.0111
4 0 11 -0.4879 -0.0102
4 0 12 0.2462 0.0246
4 1 0 -7.9471 -0.0050
4 1 1 -5.2870 0.0174
4 1 2 2.1715 0.0079
4 1 3 5.7858 -0.0090
4 1 4 0.7985 -0.0140
4 1 5 -3.2174 0.0125
4 1 6 -3.4853 -0.0086
4 1 7 3.2593 0.0084
4 1 8 0.8440 0.0032
4 1 9 0.9075 -0.0150
4 1 10 -2.6984 0.0217
4 1 11 0.9253 -0.0014
4 2 0 6.2881 -0.0193
4 2 1 4.4532 0.0024
4 2 2 -7.3560 0.0055
4 2 3 -1.9080 -0.0076
4 2 4 -0.0405 0.0208
4 2 5 4.7373 -0.0118
4 2 6 0.4033 -0.0083
4 2 7 -2.9800 0.0065
4 2 8 -0.8682 0.0031
4 2 9 0.7120 -0.0017
4 2 10 2.0520 -0.0016
4 2 11 -1.2794 -0.0080
4 3 0 -3.1906 0.0216
4 3 1 -2.5239 -0.0260
4 3 2 9.6349 0.0035
4 3 3 -2.3194 0.0149
4 3 4 -0.1717 -0.0157
4 3 5 -4.6099 -0.0013
4 3 6 2.0619 0.0171
4 3 7 2.0618 -0.0107
4 3 8 0.4957 -0.0125
4 3 9 -1.8604 0.0293
4 3 10 -0.8848 -0.0442
4 3 11 1.3495 0.0481
4 4 0 -0.0234 -0.0030
4 4 1 0.6139 0.0175
4 4 2 -9.1874 -0.0150
4 4 3 5.5521 -0.0020
4 4 4 -0.3143 0.0003
4 4 5 3.5501 0.0196
4 4 6 -3.3984 -0.0181
4 4 7 -0.9376 -0.0046
4 4 8 0.1173 0.0215
4 4 9 2.1356 -0.0306
4 4 10 -0.3002 0.0634
4 4 11 -1.0218 -0.0914
4 5 0 2.4401 -0.0087
4 5 1 0.7107 0.0102
4 5 2 6.9371 0.0017
4 5 3 -7.0552 -0.0115
4 5 4 1.0674 0.0169
4 5 5 -2.2046 -0.0271
4 5 6 3.7680 0.0169
4 5 7 -0.2046 0.0191
4 5 8 -0.6707 -0.0255
4 5 9 -1.5563 -0.0019
4 5 10 0.9600 -0.0185
4 6 0 -3.7283 0.0055
4 6 1 -1.3520 -0.0129
4 6 2 -3.8762 0.0194
4 6 3 6.8478 0.0024
4 6 4 -1.6431 -0.0222
4 6 5 0.7746 0.0142
4 6 6 -3.3311 -0.0093
4 6 7 1.2791 -0.0071
4 6 8 0.8011 0.0077
4 6 9 0.5836 0.0438
4 7 0 3.8298 -0.0054
4 7 1 1.4187 -0.0132
4 7 2 0.7762 -0.0081
4 7 3 -5.3678 0.0173
4 7 4 2.0252 0.0112
4 7 5 0.5033 0.0100
4 7 6 2.0882 -0.0130
4 7 7 -1.9301 -0.0259
4 7 8 -0.4160 0.0425
4 8 0 -2.8149 0.0109
4 8 1 -1.0577 0.0248
4 8 2 1.7010 -0.0310
4 8 3 3.0953 -0.0145
4 8 4 -2.2926 0.0004
4 8 5 -1.0738 -0.0209
4 8 6 -0.4252 0.0411
4 8 7 1.7388 0.0467
4 9 0 1.0446 0.0009
4 9 1 0.4728 -0.0065
4 9 2 -2.9238 0.0482
4 9 3 -0.6309 -0.0136
4 9 4 2.1794 0.0062
4 9 5 0.6753 0.0009
4 9 6 -0.7648 -0.0493
4 10 0 0.7339 -0.0299
4 10 1 0.0293 0.0034
4 10 2 2.6480 -0.0256
4 10 3 -1.1540 0.0344
4 10 4 -1.4286 -0.0245
4 10 5 0.1135 0.0388
4 11 0 -1.6955 0.0324
4 11 1 -0.2075 -0.0495
4 11 2 -1.4228 0.0088
4 11 3 1.5926 -0.0308
4 12 0 1.5185 0.0192
4 12 1 0.1348 0.1029
5 -11 0 0.7709 -0.0083
5 -11 1 0.3292 0.0180
5 -11 2 -1.1618 0.0008
5 -11 3 0.1472 -0.0529
5 -11 4 -0.2963 0.0521
5 -10 0 -1.5506 -0.0252
5 -10 1 0.8532 -0.0019
5 -10 2 1.2055 0.0119
5 -10 3 -0.1860 0.0335
5 -10 4 -0.4591 -0.0505
5 -10 5 -0.9873 0.0328
5 -10 6 0.7162 -0.0409
5 -9 0 2.1053 0.0352
5 -9 1 -2.6930 -0.0231
5 -9 2 -0.2338 -0.0092
5 -9 3 -0.0049 -0.0074
5 -9 4 1.6347 0.0307
5 -9 5 0.0251 -0.0296
5 -9 6 -0.7995 0.0566
5 -9 7 -0.4849 -0.0463
5 -8 0 -2.2988 -0.0142
5 -8 1 4.5563 0.0257
5 -8 2 -1.5725 -0.0001
5 -8 3 0.4359 -0.0091
5 -8 4 -2.7325 -0.0049
5 -8 5 1.5891 0.0075
5 -8 6 0.4711 -0.0457
5 -8 7 0.7537 0.0460
5 -8 8 -0.9025 -0.0457
5 -7 0 2.0419 -0.0023
5 -7 1 -5.8824 -0.0122
5 -7 2 3.6816 0.0037
5 -7 3 -0.8589 0.0109
5 -7 4 3.1644 -0.0085
5 -7 5 -3.2425 0.0170
5 -7 6 0.1830 0.0168
5 -7 8 1.8569 0.0310
5 -7 9 -0.3287 -0.0763
5 -6 0 -1.1600 -0.0035
5 -6 1 6.1295 0.0090
5 -6 2 -5.6410 -0.0045
5 -6 3 1.1052 -0.0051
5 -6 4 -2.4785 0.0027
5 -6 5 4.2556 -0.0251
5 -6 6 -1.0364 0.0110
5 -6 7 0.2319 0.0071
5 -6 8 -2.2826 -0.0067
5 -6 9 1.4715 0.0660
5 -6 10 0.0519 -0.0337
5 -5 0 -0.2781 0.0114
5 -5 1 -4.6155 -0.0156
5 -5 2 6.9256 0.0098
5 -5 3 -1.3695 -0.0006
5 -5 4 0.6751 0.0113
5 -5 5 -4.0864 0.0124
5 -5 6 1.9583 -0.0238
5 -5 7 0.3778 0.0061
5 -5 8 1.8113 -0.0109
5 -5 9 -2.3494 -0.0385
5 -5 10 0.5594 0.0405
5 -4 0 1.5874 -0.0062
5 -4 1 1.0401 0.0101
5 -4 2 -6.6353 -0.0134
5 -4 3 1.8963 0.0035
5 -4 4 1.6345 -0.0164
5 -4 5 2.5127 0.0060
5 -4 6 -2.6936 0.0203
5 -4 7 -0.6555 -0.0101
5 -4 8 -0.6628 0.0123
5 -4 9 2.4976 0.0150
5 -4 10 -1.1470 -0.0321
5 -4 11 0.0305 -0.0113
5 -3 0 -1.8562 -0.0003
5 -3 1 3.6655 0.0082
5 -3 2 3.9794 0.0053
5 -3 3 -2.4516 -0.0039
5 -3 4 -3.5181 0.0078
5 -3 5 0.2209 -0.0101
5 -3 6 2.8233 -0.0101
5 -3 7 0.3795 0.0083
5 -3 8 -0.6483 -0.0057
5 -3 9 -1.8747 -0.0071
5 -3 10 1.4366 0.0208
5 -3 11 -0.1615 0.0011
5 -2 0 0.9069 -0.0018
5 -2 1 -7.4554 -0.0147
5 -2 2 0.7019 0.0078
5 -2 3 2.3826 0.0020
5 -2 4 4.2629 0.0030
5 -2 5 -3.3999 -0.0022
5 -2 6 -1.9411 0.0054
5 -2 7 0.2506 -0.0023
5 -2 8 1.6946 0.0010
5 -2 9 0.6880 0.0030
5 -2 10 -1.3673 -0.0096
5 -2 11 0.2418 -0.0000
5 -1 0 0.3812 0.0015
5 -1 1 8.5411 0.0003
5 -1 2 -5.7084 -0.0082
5 -1 3 -1.2336 0.0005
5 -1 4 -3.7258 -0.0047
5 -1 5 6.0133 0.0124
5 -1 6 -0.0108 -0.0083
5 -1 7 -0.7736 -0.0035
5 -1 8 -2.2326 0.0024
5 -1 9 0.7747 0.0068
5 -1 10 1.0000 -0.0107
5 -1 11 -0.3109 0.0106
5 0 0 -0.9204 0.0093
5 0 1 -6.6555 0.0127
5 0 2 9.0164 -0.0054
5 0 3 -0.8446 -0.0001
5 0 4 2.3639 -0.0012
5 0 5 -7.1306 -0.0055
5 0 6 2.4767 0.0084
5 0 7 0.8110 0.0020
5 0 8 2.1402 -0.0043
5 0 9 -2.1169 -0.0135
5 0 10 -0.4033 0.0334
5 0 11 0.4632 -0.0335
5 1 0 0.4210 -0.0165
5 1 1 2.9790 -0.0066
5 1 2 -9.5211 0.0139
5 1 3 3.2042 -0.0028
5 1 4 -1.0031 0.0053
5 1 5 6.4262 -0.0091
5 1 6 -4.4570 0.0017
5 1 7 -0.3548 0.0050
5 1 8 -1.4247 -0.0025
5 1 9 2.8500 0.0117
5 1 10 -0.3199 -0.0359
5 1 11 -0.6650 0.0489
5 2 0 0.5901 0.0061
5 2 1 0.8833 -0.0033
5 2 2 7.4039 -0.0062
5 2 3 -5.0027 0.0020
5 2 4 0.3249 -0.0035
5 2 5 -4.4325 0.0108
5 2 6 5.1714 -0.0107
5 2 7 -0.2782 -0.0062
5 2 8 0.2966 0.0150
5 2 9 -2.6345 -0.0123
5 2 10 0.9572 0.0166
5 3 0 -1.4793 0.0106
5 3 1 -3.7409 -0.0053
5 3 2 -3.7125 -0.0027
5 3 3 5.5309 0.0059
5 3 4 -0.3523 -0.0019
5 3 5 2.0957 0.0038
5 3 6 -4.5941 0.0028
5 3 7 0.8146 -0.0030
5 3 8 0.8098 -0.0106
5 3 9 1.5708 0.0170
5 3 10 -1.2367 -0.0041
5 4 0 1.9216 -0.0136
5 4 1 5.0731 0.0231
5 4 2 -0.2485 -0.0041
5 4 3 -4.6068 -0.0122
5 4 4 0.5618 0.0080
5 4 5 -0.0369 -0.0169
5 4 6 3.2342 0.0163
5 4 7 -1.2444 0.0140
5 4 8 -1.3695 -0.0252
5 4 9 -0.2362 -0.0019
5 4 10 1.0309 0.0117
5 5 0 -1.7846 0.0057
5 5 1 -4.9602 -0.0242
5 5 2 3.4306 0.0156
5 5 3 2.7126 0.0060
5 5 4 -0.6053 -0.0102
5 5 5 -1.5604 0.0135
5 5 6 -1.5289 -0.0190
5 5 7 1.5745 -0.0212
5 5 8 1.0993 0.0723
5 5 9 -0.6538 -0.0474
5 6 0 1.0280 -0.0055
5 6 1 3.8445 0.0094
5 6 2 -5.2994 -0.0082
5 6 3 -0.5688 0.0084
5 6 4 0.6543 0.0021
5 6 5 2.4405 0.0016
5 6 6 -0.2492 -0.0100
5 6 7 -1.5607 0.0341
5 6 8 -0.2657 -0.0955
5 6 9 0.7584 0.1005
5 7 0 0.1643 0.0116
5 7 1 -2.2303 -0.0045
5 7 2 5.7032 -0.0125
5 7 3 -1.3549 -0.0168
5 7 4 -0.8576 0.0186
5 7 5 -2.2029 -0.0137
5 7 6 1.6177 0.0493
5 7 7 0.9862 -0.0600
5 7 8 -0.4590 0.0843
5 8 0 -1.3431 -0.0010
5 8 1 0.5837 0.0086
5 8 2 -4.6723 0.0167
5 8 3 2.7487 0.0196
5 8 4 0.8644 -0.0479
5 8 5 0.9827 0.0179
5 8 6 -1.9803 -0.0612
5 8 7 -0.1269 0.0831
5 9 0 2.0083 -0.0248
5 9 1 0.5992 0.0169
5 9 2 2.6008 -0.0034
5 9 3 -3.1897 -0.0307
5 9 4 -0.3218 0.0809
5 9 5 0.2764 -0.0257
5 9 6 1.3188 0.0348
5 10 0 -1.8964 0.0233
5 10 1 -0.9562 -0.0856
5 10 2 -0.4589 0.0127
5 10 3 2.4709 0.0474
5 10 4 -0.4282 -0.1106
5 11 0 1.1658 0.0339
5 11 1 0.6202 0.1429
5 11 2 -0.7113 -0.0638
5 11 3 -1.1377 -0.0446
6 -11 0 -1.0136 -0.0803
6 -10 0 0.7712 0.0512
6 -10 1 -2.3511 0.0056
6 -10 2 1.2157 -0.0584
6 -10 3 -0.3823 0.0016
6 -10 4 1.1985 0.0758
6 -10 5 -0.8720 -0.0532
6 -9 0 0.1098 0.0064
6 -9 1 2.4995 -0.0106
6 -9 2 -1.9569 0.0357
6 -9 3 0.3805 -0.0182
6 -9 4 -1.5135 -0.0415
6 -9 5 1.8005 0.0197
6 -9 6 -0.4268 -0.0375
6 -8 0 -1.3610 -0.0382
6 -8 1 -1.6647 0.0157
6 -8 2 2.3387 -0.0046
6 -8 3 -0.0907 0.0183
6 -8 4 0.9334 0.0051
6 -8 5 -2.2314 0.0168
6 -8 6 0.5214 -0.0051
6 -7 0 2.6592 0.0281
6 -7 1 -0.0814 -0.0061
6 -7 2 -2.1597 -0.0194
6 -7 3 -0.3624 -0.0079
6 -7 4 0.6022 0.0124
6 -7 5 1.6934 -0.0277
6 -7 6 -0.4364 0.0254
6 -7 7 -1.0022 0.0376
6 -7 8 -0.3921 -0.0429
6 -6 0 -3.6194 -0.0039
6 -6 1 2.4708 -0.0093
6 -6 2 1.3580 0.0270
6 -6 3 0.5974 0.0014
6 -6 4 -2.5271 -0.0106
6 -6 5 -0.1526 0.0081
6 -6 6 0.2458 -0.0125
6 -6 7 1.9469 -0.0260
6 -6 8 -0.7731 0.0235
6 -6 9 -0.7425 -0.0474
6 -5 0 3.6763 -0.0084
6 -5 1 -4.9484 0.0116
6 -5 2 0.1689 -0.0190
6 -5 3 -0.3698 -0.0051
6 -5 4 3.9161 0.0067
6 -5 5 -1.9463 0.0176
6 -5 6 0.0385 -0.0119
6 -5 7 -2.2241 0.0235
6 -5 8 2.0063 -0.0082
6 -5 9 0.2812 0.0193
6 -4 0 -2.4248 0.0080
6 -4 1 6.4957 0.0000
6 -4 2 -2.3318 0.0046
6 -4 3 -0.1011 0.0108
6 -4 4 -4.0679 -0.0112
6 -4 5 3.9058 -0.0217
6 -4 6 -0.5227 0.0184
6 -4 7 1.7203 -0.0156
6 -4 8 -2.7217 0.0000
6 -4 9 0.4909 -0.0018
6 -3 0 0.2257 -0.0033
6 -3 1 -6.0519 -0.0094
6 -3 2 4.4644 0.0055
6 -3 3 0.3445 -0.0085
6 -3 4 2.9033 0.0163
6 -3 5 -5.0935 0.0036
6 -3 6 1.3233 -0.0006
6 -3 7 -0.8140 -0.0005
6 -3 8 2.7102 0.0007
6 -3 9 -1.3110 -0.0005
6 -3 10 -0.1924 -0.0437
6 -2 0 1.8404 -0.0029
6 -2 1 3.3924 0.0073
6 -2 2 -5.5201 -0.0064
6 -2 3 -0.1105 0.0002
6 -2 4 -0.8965 -0.0113
6 -2 5 5.1112 0.0116
6 -2 6 -2.3775 -0.0192
6 -2 7 0.0260 0.0138
6 -2 8 -2.0606 0.0060
6 -2 9 1.9503 -0.0066
6 -2 10 -0.2505 0.0295
6 -1 0 -2.8452 0.0090
6 -1 1 0.5529 -0.0018
6 -1 2 4.8005 0.0015
6 -1 3 -0.4720 0.0059
6 -1 4 -1.2169 -0.0004
6 -1 5 -3.8445 -0.0063
6 -1 6 3.3062 0.0161
6 -1 7 0.3304 -0.0137
6 -1 8 0.9309 -0.0132
6 -1 9 -2.1538 0.0135
6 -1 10 0.6889 -0.0081
6 0 0 2.6850 -0.0105
6 0 1 -4.3412 0.0031
6 0 2 -2.4020 0.0025
6 0 3 1.0507 -0.0076
6 0 4 2.7028 0.0087
6 0 5 1.5801 -0.0086
6 0 6 -3.5476 0.0073
6 0 7 -0.2759 0.0018
6 0 8 0.4732 0.0076
6 0 9 1.6715 -0.0060
6 0 10 -0.9560 -0.0143
6 1 0 -1.8292 0.0071
6 1 1 6.8368 -0.0088
6 1 2 -0.9520 -0.0019
6 1 3 -1.1939 0.0069
6 1 4 -3.1442 -0.0109
6 1 5 0.9529 0.0136
6 1 6 2.7916 -0.0237
6 1 7 0.0319 0.0107
6 1 8 -1.7838 0.0108
6 1 9 -0.5035 -0.0223
6 1 10 0.9140 0.0346
6 2 0 0.7378 -0.0049
6 2 1 -7.5041 0.0097
6 2 2 4.2588 0.0002
6 2 3 0.5839 -0.0023
6 2 4 2.7010 0.0085
6 2 5 -2.9317 -0.0064
6 2 6 -1.2852 0.0154
6 2 7 0.2261 -0.0135
6 2 8 2.5030 -0.0218
6 2 9 -0.9101 0.0517
6 3 0 0.2558 0.0076
6 3 1 6.3751 -0.0046
6 3 2 -6.5185 -0.0019
6 3 3 0.6479 -0.0080
6 3 4 -1.8906 0.0020
6 3 5 3.9285 -0.0017
6 3 6 -0.3935 0.0044
6 3 7 -0.4421 0.0069
6 3 8 -2.2868 0.0075
6 3 9 1.8634 -0.0452
6 4 0 -0.8084 -0.0081
6 4 1 -4.0050 0.0000
6 4 2 7.1077 0.0029
6 4 3 -1.8860 0.0198
6 4 4 1.0102 -0.0206
6 4 5 -3.9308 0.0058
6 4 6 1.7820 -0.0110
6 4 7 0.5202 -0.0009
6 4 8 1.2813 0.0226
6 4 9 -1.8837 -0.0068
6 5 0 0.7257 -0.0022
6 5 1 1.2461 0.0036
6 5 2 -6.0684 0.0047
6 5 3 2.5781 -0.0275
6 5 4 -0.0229 0.0333
6 5 5 2.9956 -0.0092
6 5 6 -2.6104 0.0009
6 5 7 -0.2851 0.0022
6 5 8 -0.1380 -0.0392
6 5 9 1.1359 0.0632
6 6 0 -0.2078 0.0160
6 6 1 1.1643 -0.0122
6 6 2 3.9251 -0.0150
6 6 3 -2.6982 0.0287
6 6 4 -0.9046 -0.0215
6 6 5 -1.2787 0.0086
6 6 6 2.6328 0.0055
6 6 7 -0.2445 -0.0036
6 6 8 -0.4663 0.0241
6 7 0 -0.3002 -0.0138
6 7 1 -2.7658 0.0160
6 7 2 -1.2919 0.0118
6 7 3 2.4635 -0.0184
6 7 4 1.2014 -0.0182
6 7 5 -0.5680 0.0073
6 7 6 -1.7913 0.0085
6 7 7 0.6980 -0.0118
6 8 0 0.4802 -0.0031
6 8 1 3.2495 0.0106
6 8 2 -1.1531 -0.0007
6 8 3 -1.8656 -0.0085
6 8 4 -0.5863 0.0718
6 8 5 1.5669 -0.0443
6 8 6 0.5595 -0.0348
6 9 0 -0.2870 -0.0020
6 9 1 -2.5596 -0.0668
6 9 2 2.5803 0.0148
6 9 3 0.8800 0.0383
6 9 4 -0.3667 -0.1166
6 9 5 -1.3274 0.0913
6 10 0 -0.1138 0.0566
6 10 1 1.2050 0.1027
6 10 2 -2.4821 -0.0674
6 10 3 0.0715 -0.0405
6 11 2 1.3170 0.1192
7 -10 0 1.6930 -0.0413
7 -10 1 -0.4679 0.0393
7 -10 2 -0.2217 0.0345
7 -9 0 -2.4384 0.0204
7 -9 1 1.3405 -0.0294
7 -9 2 0.1036 0.0012
7 -9 3 0.7565 0.0590
7 -9 4 -0.9483 -0.0267
7 -9 5 0.0412 0.0316
7 -8 0 2.6448 -0.0204
7 -8 1 -2.4578 0.0131
7 -8 2 0.2415 -0.0160
7 -8 3 -1.0264 -0.0259
7 -8 4 2.0971 0.0232
7 -8 5 -0.7737 -0.0116
7 -7 0 -2.0509 0.0267
7 -7 1 3.4017 0.0002
7 -7 2 -0.7913 0.0056
7 -7 3 0.7413 0.0021
7 -7 4 -2.8398 -0.0068
7 -7 5 1.7431 -0.0222
7 -7 6 -0.5262 -0.0072
7 -7 7 1.4278 -0.0053
7 -6 0 0.5711 -0.0256
7 -6 1 -3.6268 -0.0058
7 -6 2 1.4996 0.0094
7 -6 3 0.0781 0.0044
7 -6 4 2.5011 -0.0030
7 -6 5 -2.4745 0.0381
7 -6 6 0.3621 -0.0361
7 -6 7 -1.0325 0.0306
7 -6 8 1.4545 -0.0151
7 -5 0 1.5223 0.0163
7 -5 1 2.6176 0.0056
7 -5 2 -2.1415 -0.0095
7 -5 3 -0.9535 -0.0056
7 -5 4 -1.0138 -0.0013
7 -5 5 2.5402 -0.0224
7 -5 6 -0.1995 0.0327
7 -5 7 0.0605 -0.0311
7 -5 8 -1.3319 0.0080
7 -4 0 -3.4591 -0.0055
7 -4 1 -0.3027 -0.0041
7 -4 2 2.2531 -0.0018
7 -4 3 1.3841 0.0115
7 -4 4 -1.0424 0.0102
7 -4 5 -1.8073 -0.0064
7 -4 6 0.2057 0.0005
7 -4 7 0.9786 0.0056
7 -4 8 0.6714 -0.0070
7 -3 0 4.3489 0.0002
7 -3 1 -2.6314 0.0018
7 -3 2 -1.4614 0.0074
7 -3 3 -1.2524 -0.0153
7 -3 4 2.9000 -0.0141
7 -3 5 0.4268 0.0216
7 -3 6 -0.3704 -0.0203
7 -3 7 -1.6070 0.0176
7 -3 8 0.2765 0.0100
7 -3 9 0.6803 0.0086
7 -2 0 -3.8637 -0.0006
7 -2 1 5.0588 0.0035
7 -2 2 -0.1327 -0.0026
7 -2 3 0.7700 0.0081
7 -2 4 -4.0046 0.0138
7 -2 5 1.3209 -0.0186
7 -2 6 0.4724 0.0090
7 -2 7 1.6331 -0.0155
7 -2 8 -1.2445 -0.0131
7 -2 9 -0.3792 0.0175
7 -1 0 2.3965 0.0008
7 -1 1 -6.1223 -0.0081
7 -1 2 2.0201 -0.0022
7 -1 3 -0.2267 0.0023
7 -1 4 4.0796 -0.0097
7 -1 5 -3.0411 0.0108
7 -1 6 -0.2280 0.0101
7 -1 7 -1.1516 -0.0021
7 -1 8 1.9762 0.0101
7 -1 9 -0.2429 -0.0208
7 0 0 -0.5458 0.0021
7 0 1 5.5608 0.0051
7 0 2 -3.6250 0.0001
7 0 3 -0.0949 -0.0027
7 0 4 -3.1335 -0.0024
7 0 5 4.1895 -0.0040
7 0 6 -0.4317 -0.0097
7 0 7 0.4088 0.0079
7 0 8 -2.1936 0.0027
7 0 9 1.0189 0.0003
7 1 0 -1.2742 -0.0029
7 1 1 -3.5427 0.0043
7 1 2 4.4431 0.0049
7 1 3 0.0031 -0.0057
7 1 4 1.5333 0.0179
7 1 5 -4.2942 -0.0070
7 1 6 1.2391 -0.0043
7 1 7 0.3256 0.0054
7 1 8 1.7150 -0.0182
7 1 9 -1.5778 0.0248
7 2 0 2.6827 -0.0025
7 2 1 0.5665 -0.0104
7 2 2 -4.0802 -0.0076
7 2 3 0.3781 0.0113
7 2 4 0.1564 -0.0200
7 2 5 3.2982 0.0176
7 2 6 -1.8108 0.0077
7 2 7 -0.8007 -0.0164
7 2 8 -0.6786 0.0221
7 2 9 1.5804 -0.0315
7 3 0 -3.2285 0.0102
7 3 1 2.4864 0.0089
7 3 2 2.5245 0.0052
7 3 3 -0.6398 -0.0077
7 3 4 -1.5467 0.0018
7 3 5 -1.5658 -0.0127
7 3 6 1.9398 0.0035
7 3 7 0.8039 0.0075
7 3 8 -0.3922 -0.0085
7 3 9 -1.0279 0.0144
7 4 0 2.7406 -0.0140
7 4 1 -4.6350 -0.0030
7 4 2 -0.3396 0.0033
7 4 3 0.5485 -0.0038
7 4 4 2.4840 0.0201
7 4 5 -0.4050 -0.0074
7 4 6 -1.6055 -0.0107
7 4 7 -0.3050 0.0106
7 4 8 0.8869 -0.0091
7 5 0 -1.5915 0.0104
7 5 1 5.3564 -0.0033
7 5 2 -1.6979 -0.0106
7 5 3 -0.2928 0.0180
7 5 4 -2.7521 -0.0244
7 5 5 2.0888 0.0174
7 5 6 0.8651 0.0045
7 5 7 -0.3814 -0.0141
7 6 0 0.3981 0.0029
7 6 1 -4.7459 0.0040
7 6 2 3.1204 0.0027
7 6 3 0.0842 -0.0201
7 6 4 2.1085 0.0055
7 6 5 -2.8965 0.0050
7 6 6 0.0602 0.0011
7 7 0 0.4124 -0.0173
7 7 1 3.1964 0.0110
7 7 2 -3.7543 0.0179
7 7 3 0.2079 -0.0075
7 7 4 -0.8000 0.0315
7 7 5 2.4879 -0.0540
7 7 6 -0.7226 0.0084
7 8 0 -0.6781 0.0046
7 8 1 -1.2324 -0.0351
7 8 2 3.4436 -0.0237
7 8 3 -0.7153 0.0564
7 8 4 -0.3440 -0.0783
7 8 5 -1.2537 0.1040
7 9 0 0.4348 0.0538
7 9 1 -0.4138 0.0335
7 9 2 -2.2421 -0.0020
7 9 3 1.1272 -0.0868
7 9 4 0.6799 0.1154
7 10 0 0.0367 -0.1245
7 10 1 1.0861 0.0179
8 -9 0 -0.1781 -0.0124
8 -9 1 -0.4955 0.0423
8 -9 2 -0.3118 -0.0473
8 -9 3 0.2864 -0.0115
8 -8 0 1.2875 0.0133
8 -8 1 0.3434 -0.0113
8 -8 2 0.4462 -0.0075
8 -8 3 -1.0331 0.0236
8 -8 4 -0.1727 -0.0240
8 -7 0 -2.7290 -0.0108
8 -7 1 0.2993 0.0008
8 -7 2 -0.3549 0.0457
8 -7 3 1.9114 -0.0353
8 -7 4 -0.7590 0.0180
8 -7 5 -0.2431 0.0608
8 -6 0 3.8893 0.0031
8 -6 1 -1.5100 -0.0038
8 -6 2 0.1381 -0.0437
8 -6 3 -2.3198 0.0271
8 -6 4 2.0676 -0.0036
8 -6 5 -0.2008 -0.0380
8 -6 6 0.7209 0.0701
8 -6 7 -0.9864 -0.0468
8 -5 0 -4.0515 0.0026
8 -5 1 2.9515 0.0035
8 -5 2 -0.1210 0.0202
8 -5 3 1.9095 -0.0029
8 -5 4 -3.0650 -0.0158
8 -5 5 0.8591 0.0227
8 -5 6 -0.6310 -0.0297
8 -5 7 1.4363 0.0218
8 -4 0 2.9141 0.0020
8 -4 1 -3.9125 0.0004
8 -4 2 0.4900 -0.0057
8 -4 3 -0.8500 -0.0130
8 -4 4 3.2065 0.0228
8 -4 5 -1.5295 -0.0186
8 -4 6 0.3149 0.0146
8 -4 7 -1.4050 0.0001
8 -3 0 -0.9131 -0.0100
8 -3 1 3.7982 0.0023
8 -3 2 -1.0555 0.0056
8 -3 3 -0.4148 0.0072
8 -3 4 -2.3806 -0.0070
8 -3 5 2.0248 0.0045
8 -3 6 -0.0456 -0.0208
8 -3 7 0.9001 0.0036
8 -2 0 -1.1298 0.0058
8 -2 1 -2.5640 -0.0091
8 -2 2 1.4578 -0.0055
8 -2 3 1.4963 0.0074
8 -2 4 0.8068 -0.0150
8 -2 5 -2.1630 0.0245
8 -2 6 0.0528 0.0127
8 -2 7 -0.1330 -0.0159
8 -2 8 0.9893 0.0081
8 -1 0 2.6589 0.0096
8 -1 1 0.5867 0.0060
8 -1 2 -1.4606 -0.0003
8 -1 3 -2.1231 -0.0128
8 -1 4 1.1131 0.0177
8 -1 5 1.7390 -0.0380
8 -1 6 -0.3142 0.0148
8 -1 7 -0.6344 0.0075
8 -1 8 -0.4796 0.0017
8 0 0 -3.5163 -0.0156
8 0 1 1.6988 0.0065
8 0 2 0.9452 0.0052
8 0 3 2.1530 0.0062
8 0 4 -2.8314 -0.0008
8 0 5 -0.6822 0.0126
8 0 6 0.5699 -0.0244
8 0 7 1.1885 0.0160
8 0 8 -0.3710 -0.0169
8 1 0 3.5713 0.0024
8 1 1 -3.8054 -0.0123
8 1 2 0.1359 -0.0062
8 1 3 -1.7090 0.0067
8 1 4 3.8209 -0.0147
8 1 5 -0.7529 0.0266
8 1 6 -0.5705 -0.0039
8 1 7 -1.3787 -0.0208
8 1 8 1.2524 0.0299
8 2 0 -2.6475 0.0132
8 2 1 5.0586 0.0051
8 2 2 -1.5517 0.0049
8 2 3 1.1332 -0.0204
8 2 4 -3.8671 0.0183
8 2 5 2.0862 -0.0353
8 2 6 0.2724 0.0334
8 2 7 1.1340 -0.0008
8 2 8 -1.7270 -0.0266
8 3 0 0.9257 -0.0123
8 3 1 -4.9127 0.0039
8 3 2 2.7268 0.0001
8 3 3 -0.6554 0.0236
8 3 4 3.1098 -0.0159
8 3 5 -2.9015 0.0080
8 3 6 0.2142 -0.0196
8 3 7 -0.5642 0.0148
8 3 8 1.5219 0.0098
8 4 0 0.9223 -0.0038
8 4 1 3.4727 -0.0053
8 4 2 -3.1774 -0.0065
8 4 3 0.2689 -0.0048
8 4 4 -1.8149 0.0054
8 4 5 2.9726 0.0216
8 4 6 -0.7337 -0.0250
8 4 7 0.0010 0.0035
8 5 0 -2.1939 0.0207
8 5 1 -1.4426 0.0002
8 5 2 2.9275 0.0037
8 5 3 -0.0203 -0.0241
8 5 4 0.3188 0.0229
8 5 5 -2.2593 -0.0315
8 5 6 1.0667 0.0479
8 6 0 2.5861 -0.0204
8 6 1 -0.4431 0.0083
8 6 2 -2.2887 0.0063
8 6 3 0.1262 0.0327
8 6 4 0.8445 -0.0562
8 6 5 1.0350 0.0300
8 7 0 -2.1562 -0.0199
8 7 1 1.7238 -0.0101
8 7 2 1.4267 -0.0000
8 7 3 -0.5910 -0.0155
8 7 4 -1.1618 0.0612
8 7 5 0.0723 -0.0247
8 8 0 1.1751 0.1066
8 8 1 -2.1188 -0.0176
8 8 2 -0.4424 -0.0324
8 8 3 0.9858 0.0050
8 8 4 0.6742 -0.0289
8 9 0 -0.1290 -0.1970
8 9 1 1.6054 0.0816
8 9 2 -0.3253 0.0605
8 9 3 -0.9135 -0.0245
9 -8 0 -1.4267 0.0352
9 -8 1 0.5950 -0.0156
9 -8 2 -0.1151 0.0440
9 -8 3 0.7318 -0.0534
9 -7 0 1.3658 -0.0353
9 -7 1 -0.9372 -0.0043
9 -7 2 -0.3194 -0.0217
9 -7 3 -0.5679 0.0361
9 -6 0 -0.4370 0.0327
9 -6 1 1.1894 0.0043
9 -6 2 0.6489 0.0005
9 -6 3 -0.2073 -0.0089
9 -6 4 -1.2249 -0.0093
9 -6 5 0.5776 0.0130
9 -5 0 -1.1429 -0.0171
9 -5 1 -1.0006 0.0049
9 -5 2 -0.6390 0.0021
9 -5 3 1.2900 -0.0016
9 -5 4 0.6486 0.0404
9 -5 5 -0.5806 -0.0565
9 -4 0 2.6144 0.0001
9 -4 1 0.2502 -0.0056
9 -4 2 0.3520 0.0027
9 -4 3 -2.1933 -0.0034
9 -4 4 0.5517 -0.0278
9 -4 5 0.3463 0.0525
9 -4 6 0.7785 -0.0672
9 -3 0 -3.2534 -0.0017
9 -3 1 0.7820 0.0017
9 -3 2 0.0046 -0.0005
9 -3 3 2.5504 0.0059
9 -3 4 -2.0099 0.0006
9 -3 5 0.1835 -0.0012
9 -3 6 -0.8529 0.0309
9 -2 0 2.9042 0.0160
9 -2 1 -1.6943 -0.0066
9 -2 2 -0.2746 -0.0044
9 -2 3 -2.2030 -0.0021
9 -2 4 3.2030 0.0087
9 -2 5 -0.9731 -0.0385
9 -2 6 0.6495 0.0279
9 -1 0 -1.8473 -0.0159
9 -1 1 2.2519 0.0140
9 -1 2 0.3367 0.0035
9 -1 3 1.2268 0.0028
9 -1 4 -3.6163 -0.0060
9 -1 5 1.7968 0.0286
9 -1 6 -0.3614 -0.0451
9 0 0 0.3334 -0.0059
9 0 1 -2.2844 -0.0076
9 0 2 -0.1129 -0.0008
9 0 3 0.0213 -0.0063
9 0 4 3.0084 0.0109
9 0 5 -2.2837 0.0008
9 0 6 0.1433 0.0046
9 1 0 1.4543 0.0250
9 1 1 1.5598 -0.0083
9 1 2 -0.2552 0.0002
9 1 3 -1.0529 0.0003
9 1 4 -1.6151 -0.0138
9 1 5 2.1779 -0.0058
9 1 6 -0.0234 0.0345
9 2 0 -3.0866 -0.0209
9 2 1 -0.0813 0.0127
9 2 2 0.4276 0.0033
9 2 3 1.5747 0.0106
9 2 4 0.0018 -0.0047
9 2 5 -1.5367 -0.0068
9 2 6 -0.0045 -0.0193
9 3 0 3.9508 -0.0000
9 3 1 -1.6080 0.0001
9 3 2 -0.2499 -0.0075
9 3 3 -1.5829 -0.0088
9 3 4 1.3053 0.0273
9 3 5 0.6230 0.0063
9 3 6 -0.0572 -0.0281
9 4 0 -3.7501 0.0224
9 4 1 2.7438 -0.0164
9 4 2 -0.0463 -0.0019
9 4 3 1.1555 -0.0013
9 4 4 -1.9878 -0.0149
9 4 5 0.2947 -0.0021
9 4 6 0.1192 0.0533
9 5 0 2.7266 -0.0345
9 5 2 0.1905 0.0224
9 5 3 -0.3901 -0.0024
9 5 4 1.9031 -0.0326
9 5 5 -0.9540 0.0309
9 6 3 -0.4067 0.0140
9 6 4 -1.1759 0.0729
9 7 3 0.7864 0.0044
9 8 0 0.7122 -0.1031
10 -7 0 1.4808 -0.0056
10 -7 1 -0.5183 0.0096
10 -6 0 -2.3363 0.0103
10 -6 1 0.7278 0.0044
10 -6 2 -0.8426 0.0408
10 -6 3 1.2864 -0.0487
10 -5 0 2.5748 -0.0117
10 -5 1 -0.9282 -0.0098
10 -5 2 0.3781 -0.0280
10 -5 3 -1.4671 0.0182
10 -5 4 0.8113 -0.0292
10 -4 0 -1.8815 -0.0028
10 -4 1 0.9825 0.0163
10 -4 2 0.3346 0.0213
10 -4 3 1.0196 -0.0126
10 -4 4 -1.2720 -0.0060
10 -3 0 0.5030 0.0184
10 -3 1 -0.8060 -0.0266
10 -3 2 -1.0004 -0.0114
10 -3 3 0.0266 0.0225
10 -3 4 1.3560 0.0006
10 -2 0 1.0308 -0.0132
10 -2 1 0.4402 0.0232
10 -2 2 1.3318 0.0004
10 -2 3 -1.3186 -0.0193
10 -2 4 -0.8177 0.0122
10 -2 5 0.7485 0.0205
10 -1 0 -2.3150 -0.0046
10 -1 1 0.1007 0.0008
10 -1 2 -1.2128 -0.0014
10 -1 3 2.3123 0.0040
10 -1 4 -0.2241 0.0041
10 -1 5 -0.7969 -0.0134
10 0 0 3.0849 0.0086
10 0 1 -0.8703 -0.0195
10 0 2 0.8462 0.0092
10 0 3 -2.5998 0.0011
10 0 4 1.2919 -0.0277
10 0 5 0.4675 0.0371
10 1 0 -3.0655 0.0033
10 1 1 1.7331 0.0073
10 1 2 -0.5937 -0.0026
10 1 3 2.1914 0.0048
10 1 4 -1.9001 0.0145
10 1 5 0.0092 -0.0492
10 2 0 2.1529 -0.0088
10 2 1 -2.2599 0.0238
10 2 2 0.5853 -0.0163
10 2 3 -1.4144 -0.0071
10 2 4 1.8961 0.0303
10 2 5 -0.3733 0.0041
10 3 0 -0.7173 0.0030
10 3 1 2.1143 -0.0436
10 3 2 -0.6243 0.0176
10 3 3 0.5764 0.0157
10 3 4 -1.4281 -0.0643
10 3 5 0.5499 0.0679
10 4 0 -0.5626 -0.0063
10 4 1 -1.4438 0.0447
10 4 2 0.5350 0.0081
10 4 3 0.1453 -0.0541
10 4 4 0.7199 0.0752
10 4 5 -0.5584 -0.0970
10 5 3 -0.5754 0.1061
10 5 4 -0.0222 -0.0862
11 -5 0 0.1767 0.0355
11 -5 1 -0.1101 0.0034
11 -5 2 0.8208 0.0232
11 -4 0 -0.8900 -0.0273
11 -4 1 0.1719 -0.0148
11 -4 2 -1.1280 -0.0039
11 -3 0 1.5035 0.0329
11 -3 1 -0.1942 0.0052
11 -3 2 0.9631 -0.0186
11 -3 3 -1.4530 -0.0191
11 -2 0 -1.7756 -0.0282
11 -2 1 0.2374 0.0208
11 -2 2 -0.3364 0.0150
11 -2 3 1.4786 -0.0039
11 -1 0 1.5103 -0.0032
11 -1 1 -0.3506 -0.0264
11 -1 2 -0.3977 0.0063
11 -1 3 -0.8911 0.0054
11 0 0 -0.5872 0.0297
11 0 1 0.3985 0.0004
11 0 2 0.8259 -0.0108
11 0 3 0.0579 0.0102
11 1 0 -0.7914 -0.0067
11 1 1 -0.1429 0.0170
11 1 2 -0.8411 -0.0042
11 1 3 0.5381 -0.0131
11 2 0 2.0137 -0.0587
11 2 1 -0.4033 0.0097
11 2 2 0.6381 0.0057
11 2 3 -0.7089 0.0044
11 3 0 -2.4722 0.1114
11 3 1 0.8657 -0.0595
11 3 2 -0.3879 0.0167
11 4 0 2.0760 -0.1128
11 4 1 -0.8915 0.0852
11 4 2 0.1023 -0.0314
12 -2 0 0.1533 0.0193
12 -1 0 0.3097 0.0115
12 0 0 -0.9115 0.0208
0 0 0 0.0 0.0
;
_shelx_fab_checksum              21724
_olex2_submission_special_instructions 'No special instructions were received'
loop_
_space_group_symop_operation_xyz
'x, y, z'
'-x, -y, -z'
loop_
_atom_site_label
_atom_site_type_symbol
_atom_site_fract_x
_atom_site_fract_y
_atom_site_fract_z
_atom_site_U_iso_or_equiv
_atom_site_adp_type
_atom_site_occupancy
_atom_site_site_symmetry_order
_atom_site_calc_flag
_atom_site_refinement_flags_posn
Co1 Co 0.27110(3) 0.12484(2) 0.12962(2) 0.01749(9) Uani 1 1 d .
Cl1 Cl 0.19407(5) 0.12792(5) -0.09723(5) 0.02358(11) Uani 1 1 d .
C1 C 0.2347(2) 0.09844(19) 0.39776(19) 0.0192(4) Uani 1 1 d .
N1 N 0.33447(18) 0.12733(16) 0.31798(17) 0.0189(3) Uani 1 1 d .
Cl2 Cl 0.32774(5) -0.09802(4) 0.10952(5) 0.02181(11) Uani 1 1 d .
N2 N 0.47416(19) 0.19694(17) 0.12609(17) 0.0215(3) Uani 1 1 d .
H2 H 0.518(3) 0.150(3) 0.062(3) 0.029(7) Uiso 1 1 d .
C2 C 0.2725(2) 0.1136(2) 0.5375(2) 0.0225(4) Uani 1 1 d .
H2A H 0.202331 0.094023 0.595084 0.027 Uiso 1 1 calc R
N3 N 0.22100(19) 0.30912(16) 0.14751(16) 0.0197(3) Uani 1 1 d .
C3 C 0.4154(2) 0.1583(2) 0.5920(2) 0.0243(4) Uani 1 1 d .
H3 H 0.442766 0.171783 0.687872 0.029 Uiso 1 1 calc R
C4 C 0.5185(2) 0.1833(2) 0.5070(2) 0.0238(4) Uani 1 1 d .
H4 H 0.617067 0.211704 0.543619 0.029 Uiso 1 1 calc R
N4 N 0.07213(18) 0.09261(17) 0.17840(17) 0.0203(3) Uani 1 1 d .
H4A H 0.022(3) 0.026(3) 0.128(3) 0.033(7) Uiso 1 1 d .
C5 C 0.4742(2) 0.16592(19) 0.3677(2) 0.0204(4) Uani 1 1 d .
C6 C 0.5705(2) 0.1760(2) 0.2593(2) 0.0246(4) Uani 1 1 d .
H6A H 0.641230 0.253330 0.283664 0.030 Uiso 1 1 calc R
H6B H 0.628355 0.091359 0.251679 0.030 Uiso 1 1 calc R
C7 C 0.4630(2) 0.3440(2) 0.0944(2) 0.0252(4) Uani 1 1 d .
H7A H 0.459635 0.351919 -0.004498 0.030 Uiso 1 1 calc R
H7B H 0.551291 0.394937 0.142854 0.030 Uiso 1 1 calc R
C8 C 0.3246(2) 0.4030(2) 0.1384(2) 0.0227(4) Uani 1 1 d .
C9 C 0.2933(3) 0.5401(2) 0.1585(2) 0.0287(4) Uani 1 1 d .
H9 H 0.366664 0.608015 0.155561 0.034 Uiso 1 1 calc R
C10 C 0.1518(3) 0.5755(2) 0.1832(2) 0.0318(5) Uani 1 1 d .
H10 H 0.127985 0.668885 0.197410 0.038 Uiso 1 1 calc R
C11 C 0.0449(3) 0.4761(2) 0.1872(2) 0.0281(4) Uani 1 1 d .
H11 H -0.052516 0.500390 0.201973 0.034 Uiso 1 1 calc R
C12 C 0.0833(2) 0.3411(2) 0.16924(19) 0.0224(4) Uani 1 1 d .
C13 C -0.0178(2) 0.2201(2) 0.1642(2) 0.0242(4) Uani 1 1 d .
H13A H -0.086414 0.213656 0.076698 0.029 Uiso 1 1 calc R
H13B H -0.077930 0.230917 0.238817 0.029 Uiso 1 1 calc R
C14 C 0.0912(2) 0.0431(2) 0.31951(19) 0.0212(4) Uani 1 1 d .
H14A H 0.007342 0.074284 0.365714 0.025 Uiso 1 1 calc R
H14B H 0.092143 -0.057773 0.314897 0.025 Uiso 1 1 calc R
Cl3 Cl 0.09984(6) 0.73551(5) 0.49171(6) 0.03087(13) Uani 1 1 d .
loop_
_atom_site_aniso_label
_atom_site_aniso_U_11
_atom_site_aniso_U_22
_atom_site_aniso_U_33
_atom_site_aniso_U_23
_atom_site_aniso_U_13
_atom_site_aniso_U_12
Co1 0.01954(14) 0.01713(14) 0.01618(14) -0.00118(10) 0.00485(10) -0.00661(10)
Cl1 0.0288(2) 0.0246(2) 0.0172(2) -0.00033(17) 0.00388(17) -0.01092(18)
C1 0.0211(9) 0.0180(8) 0.0191(9) 0.0012(7) 0.0053(7) -0.0011(7)
N1 0.0190(7) 0.0170(7) 0.0209(8) -0.0014(6) 0.0049(6) -0.0041(6)
Cl2 0.0257(2) 0.0183(2) 0.0218(2) -0.00199(17) 0.00628(17) -0.00462(17)
N2 0.0223(8) 0.0211(8) 0.0217(8) -0.0023(6) 0.0069(6) -0.0068(6)
C2 0.0251(9) 0.0237(9) 0.0196(9) 0.0006(7) 0.0067(7) -0.0009(7)
N3 0.0226(8) 0.0206(7) 0.0162(7) -0.0007(6) 0.0047(6) -0.0052(6)
C3 0.0275(10) 0.0250(9) 0.0195(9) -0.0005(7) 0.0020(8) 0.0023(8)
C4 0.0228(9) 0.0238(9) 0.0235(10) -0.0041(8) 0.0014(7) -0.0016(7)
N4 0.0205(8) 0.0226(8) 0.0177(8) -0.0007(6) 0.0038(6) -0.0077(6)
C5 0.0201(9) 0.0192(8) 0.0214(9) -0.0025(7) 0.0029(7) -0.0035(7)
C6 0.0200(9) 0.0305(10) 0.0233(10) -0.0019(8) 0.0049(7) -0.0053(8)
C7 0.0290(10) 0.0207(9) 0.0276(10) 0.0011(8) 0.0105(8) -0.0090(8)
C8 0.0301(10) 0.0200(9) 0.0188(9) -0.0010(7) 0.0071(8) -0.0067(8)
C9 0.0421(12) 0.0198(9) 0.0263(10) -0.0005(8) 0.0126(9) -0.0081(8)
C10 0.0503(14) 0.0206(9) 0.0267(11) 0.0011(8) 0.0128(10) 0.0018(9)
C11 0.0368(11) 0.0277(10) 0.0217(10) 0.0025(8) 0.0099(8) 0.0048(9)
C12 0.0248(9) 0.0267(10) 0.0160(9) 0.0013(7) 0.0049(7) -0.0016(8)
C13 0.0200(9) 0.0290(10) 0.0242(10) 0.0039(8) 0.0039(7) -0.0023(8)
C14 0.0221(9) 0.0234(9) 0.0187(9) 0.0033(7) 0.0043(7) -0.0075(7)
Cl3 0.0341(3) 0.0281(3) 0.0317(3) -0.0003(2) 0.0100(2) -0.0014(2)
loop_
_atom_type_symbol
_atom_type_description
_atom_type_scat_dispersion_real
_atom_type_scat_dispersion_imag
_atom_type_scat_source
C C 0.0033 0.0016 'International Tables Vol C Tables 4.2.6.8 and 6.1.1.4'
H H 0.0000 0.0000 'International Tables Vol C Tables 4.2.6.8 and 6.1.1.4'
Cl Cl 0.1484 0.1585 'International Tables Vol C Tables 4.2.6.8 and 6.1.1.4'
Co Co 0.3494 0.9721 'International Tables Vol C Tables 4.2.6.8 and 6.1.1.4'
N N 0.0061 0.0033 'International Tables Vol C Tables 4.2.6.8 and 6.1.1.4'
loop_
_geom_angle_atom_site_label_1
_geom_angle_atom_site_label_2
_geom_angle_atom_site_label_3
_geom_angle
N1 Co1 Cl1 178.48(5)
N1 Co1 Cl2 90.02(5)
N1 Co1 N2 83.84(7)
N1 Co1 N4 84.14(7)
Cl2 Co1 Cl1 91.484(19)
N2 Co1 Cl1 95.76(5)
N2 Co1 Cl2 96.76(5)
N3 Co1 Cl1 88.75(5)
N3 Co1 N1 89.76(7)
N3 Co1 Cl2 178.98(5)
N3 Co1 N2 84.20(7)
N3 Co1 N4 84.24(7)
N4 Co1 Cl1 95.96(5)
N4 Co1 Cl2 94.75(5)
N4 Co1 N2 163.32(7)
N1 C1 C2 120.01(18)
N1 C1 C14 113.11(16)
C2 C1 C14 126.77(17)
C1 N1 Co1 118.23(13)
C5 N1 Co1 118.94(13)
C5 N1 C1 122.69(17)
Co1 N2 H2 111.1(17)
C6 N2 Co1 109.49(12)
C6 N2 H2 105.8(17)
C7 N2 Co1 108.69(13)
C7 N2 H2 109.0(17)
C7 N2 C6 112.73(16)
C1 C2 H2A 120.7
C1 C2 C3 118.52(18)
C3 C2 H2A 120.7
C8 N3 Co1 118.47(14)
C8 N3 C12 122.92(18)
C12 N3 Co1 118.62(13)
C2 C3 H3 119.8
C4 C3 C2 120.34(18)
C4 C3 H3 119.8
C3 C4 H4 120.8
C5 C4 C3 118.43(18)
C5 C4 H4 120.8
Co1 N4 H4A 113.2(18)
C13 N4 Co1 109.67(12)
C13 N4 H4A 108.2(18)
C13 N4 C14 113.16(15)
C14 N4 Co1 108.60(12)
C14 N4 H4A 104.0(18)
N1 C5 C4 119.93(18)
N1 C5 C6 113.08(17)
C4 C5 C6 126.84(18)
N2 C6 C5 109.21(16)
N2 C6 H6A 109.8
N2 C6 H6B 109.8
C5 C6 H6A 109.8
C5 C6 H6B 109.8
H6A C6 H6B 108.3
N2 C7 H7A 109.8
N2 C7 H7B 109.8
N2 C7 C8 109.37(16)
H7A C7 H7B 108.2
C8 C7 H7A 109.8
C8 C7 H7B 109.8
N3 C8 C7 113.37(17)
N3 C8 C9 119.75(19)
C9 C8 C7 126.68(18)
C8 C9 H9 120.9
C8 C9 C10 118.3(2)
C10 C9 H9 120.9
C9 C10 H10 119.7
C11 C10 C9 120.7(2)
C11 C10 H10 119.7
C10 C11 H11 120.7
C12 C11 C10 118.5(2)
C12 C11 H11 120.7
N3 C12 C11 119.76(19)
N3 C12 C13 113.79(17)
C11 C12 C13 126.37(19)
N4 C13 H13A 109.7
N4 C13 H13B 109.7
C12 C13 N4 109.87(16)
C12 C13 H13A 109.7
C12 C13 H13B 109.7
H13A C13 H13B 108.2
C1 C14 N4 108.91(15)
C1 C14 H14A 109.9
C1 C14 H14B 109.9
N4 C14 H14A 109.9
N4 C14 H14B 109.9
H14A C14 H14B 108.3
loop_
_geom_bond_atom_site_label_1
_geom_bond_atom_site_label_2
_geom_bond_distance
Co1 Cl1 2.2634(6)
Co1 N1 1.8754(17)
Co1 Cl2 2.2546(5)
Co1 N2 1.9868(17)
Co1 N3 1.8726(17)
Co1 N4 1.9782(16)
C1 N1 1.338(2)
C1 C2 1.380(3)
C1 C14 1.498(3)
N1 C5 1.338(2)
N2 H2 0.90(3)
N2 C6 1.500(3)
N2 C7 1.499(3)
C2 H2A 0.9500
C2 C3 1.391(3)
N3 C8 1.337(2)
N3 C12 1.340(3)
C3 H3 0.9500
C3 C4 1.390(3)
C4 H4 0.9500
C4 C5 1.384(3)
N4 H4A 0.88(3)
N4 C13 1.500(3)
N4 C14 1.502(2)
C5 C6 1.501(3)
C6 H6A 0.9900
C6 H6B 0.9900
C7 H7A 0.9900
C7 H7B 0.9900
C7 C8 1.502(3)
C8 C9 1.386(3)
C9 H9 0.9500
C9 C10 1.389(3)
C10 H10 0.9500
C10 C11 1.386(3)
C11 H11 0.9500
C11 C12 1.381(3)
C12 C13 1.497(3)
C13 H13A 0.9900
C13 H13B 0.9900
C14 H14A 0.9900
C14 H14B 0.9900
loop_
_geom_hbond_atom_site_label_D
_geom_hbond_atom_site_label_H
_geom_hbond_atom_site_label_A
_geom_hbond_distance_DH
_geom_hbond_distance_HA
_geom_hbond_distance_DA
_geom_hbond_angle_DHA
_geom_hbond_site_symmetry_A
_geom_hbond_publ_flag
N2 H2 Cl2 0.90(3) 2.41(3) 3.2765(18) 161(2) 2_655 yes
C4 H4 Cl3 0.95 2.71 3.564(2) 149.9 2_666 yes
N4 H4A Cl1 0.88(3) 2.46(3) 3.2252(17) 146(2) 2 yes
C6 H6A Cl3 0.99 2.99 3.654(2) 125.6 2_666 yes
C9 H9 Cl2 0.95 2.97 3.642(2) 129.1 1_565 yes
C13 H13A Cl2 0.99 2.83 3.749(2) 153.8 2 yes
C13 H13B Cl3 0.99 2.72 3.621(2) 151.0 2_566 yes
C14 H14A Cl3 0.99 2.56 3.434(2) 147.1 2_566 yes
C14 H14B Cl3 0.99 2.77 3.566(2) 138.1 1_545 yes
loop_
_geom_torsion_atom_site_label_1
_geom_torsion_atom_site_label_2
_geom_torsion_atom_site_label_3
_geom_torsion_atom_site_label_4
_geom_torsion
Co1 N1 C5 C4 172.73(14)
Co1 N1 C5 C6 -11.4(2)
Co1 N2 C6 C5 -24.22(19)
Co1 N2 C7 C8 25.73(19)
Co1 N3 C8 C7 8.3(2)
Co1 N3 C8 C9 -176.52(15)
Co1 N3 C12 C11 177.91(15)
Co1 N3 C12 C13 -5.0(2)
Co1 N4 C13 C12 -20.91(19)
Co1 N4 C14 C1 27.83(18)
Cl1 Co1 N3 C8 -90.14(14)
Cl1 Co1 N3 C12 90.04(14)
C1 N1 C5 C4 -3.0(3)
C1 N1 C5 C6 172.88(17)
C1 C2 C3 C4 -1.7(3)
N1 Co1 N3 C8 89.61(15)
N1 Co1 N3 C12 -90.21(15)
N1 C1 C2 C3 -0.4(3)
N1 C1 C14 N4 -25.3(2)
N1 C5 C6 N2 23.3(2)
Cl2 Co1 N1 C1 -89.78(14)
Cl2 Co1 N1 C5 94.34(14)
N2 Co1 N1 C1 173.42(15)
N2 Co1 N1 C5 -2.46(14)
N2 Co1 N3 C8 5.78(15)
N2 Co1 N3 C12 -174.04(15)
N2 C7 C8 N3 -22.6(2)
N2 C7 C8 C9 162.6(2)
C2 C1 N1 Co1 -172.91(14)
C2 C1 N1 C5 2.8(3)
C2 C1 C14 N4 158.40(19)
C2 C3 C4 C5 1.6(3)
N3 Co1 N1 C1 89.23(14)
N3 Co1 N1 C5 -86.65(15)
N3 C8 C9 C10 -2.2(3)
N3 C12 C13 N4 17.2(2)
C3 C4 C5 N1 0.7(3)
C3 C4 C5 C6 -174.49(19)
C4 C5 C6 N2 -161.20(19)
N4 Co1 N1 C1 5.00(14)
N4 Co1 N1 C5 -170.89(15)
N4 Co1 N3 C8 173.75(15)
N4 Co1 N3 C12 -6.07(15)
C6 N2 C7 C8 -95.84(19)
C7 N2 C6 C5 96.90(19)
C7 C8 C9 C10 172.3(2)
C8 N3 C12 C11 -1.9(3)
C8 N3 C12 C13 175.17(17)
C8 C9 C10 C11 -0.1(3)
C9 C10 C11 C12 1.4(3)
C10 C11 C12 N3 -0.5(3)
C10 C11 C12 C13 -177.2(2)
C11 C12 C13 N4 -165.92(19)
C12 N3 C8 C7 -171.90(18)
C12 N3 C8 C9 3.3(3)
C13 N4 C14 C1 -94.18(18)
C14 C1 N1 Co1 10.6(2)
C14 C1 N1 C5 -173.73(17)
C14 C1 C2 C3 175.60(19)
C14 N4 C13 C12 100.50(18)
loop_
_smtbx_masks_void_nr
_smtbx_masks_void_average_x
_smtbx_masks_void_average_y
_smtbx_masks_void_average_z
_smtbx_masks_void_volume
_smtbx_masks_void_count_electrons
1 0.500 0.500 0.500 119.2 37.9
