#------------------------------------------------------------------------------
#$Date: 2019-11-23 19:01:44 +0200 (Sat, 23 Nov 2019) $
#$Revision: 234558 $
#$URL: file:///home/coder/svn-repositories/cod/cif/7/12/51/7125155.cif $
#------------------------------------------------------------------------------
#
# This file is available in the Crystallography Open Database (COD),
# http://www.crystallography.net/
#
# All data on this site have been placed in the public domain by the
# contributors.
#
data_7125155
loop_
_publ_author_name
'Lekin, Kristina'
'Ogata, Kazuma'
'Maclean, Adrian'
'Mailman, Aaron'
'Winter, Stephen M.'
'Assoud, Abdeljalil'
'Mito, Masaki'
'Tse, John S.'
'Desgreniers, Serge'
'Hirao, Naohisa'
'Dube, Paul A.'
'Oakley, Richard T.'
_publ_section_title
;
 Pushing T<sub>C</sub> to 27.5 K in a heavy atom radical ferromagnet.
;
_journal_issue                   96
_journal_name_full
'Chemical communications (Cambridge, England)'
_journal_page_first              13877
_journal_page_last               13880
_journal_paper_doi               10.1039/c6cc07142b
_journal_volume                  52
_journal_year                    2016
_chemical_formula_moiety         'C7 H5 I N3 Se4'
_chemical_formula_sum            'C7 H5 I N3 Se4'
_chemical_formula_weight         573.88
_chemical_melting_point_gt       400
_chemical_name_common            IBPSSEt
_chemical_name_systematic
;
8-iodo-4-ethyl-4H-bis[1,2,3]diselenazolo[4,5-b:5',4'-e]pyridin-2-yl
;
_space_group_crystal_system      tetragonal
_space_group_IT_number           113
_space_group_name_Hall           'P -4 2ab'
_space_group_name_H-M_alt        'P -4 21 m'
_atom_sites_solution_hydrogens   geom
_atom_sites_solution_primary     direct
_atom_sites_solution_secondary   difmap
_audit_creation_method           SHELXL-2014
_cell_angle_alpha                90.00
_cell_angle_beta                 90.00
_cell_angle_gamma                90.00
_cell_formula_units_Z            4
_cell_length_a                   16.4704(6)
_cell_length_b                   16.4704(6)
_cell_length_c                   4.2345(2)
_cell_measurement_reflns_used    680
_cell_measurement_temperature    296(2)
_cell_measurement_theta_max      30.0
_cell_measurement_theta_min      1.5
_cell_volume                     1148.71(8)
_computing_cell_refinement       'SMART, 'Bruker APEX II'
_computing_data_collection       'Bruker SMART APEX II'
_computing_data_reduction        'SAINT, 'Bruker APEX II'
_computing_molecular_graphics    Mercury
_computing_structure_refinement  'SHELXL-2014 (Sheldrick, 2014)'
_computing_structure_solution    'SHELXL-2014 (Sheldrick, 2014)'
_diffrn_ambient_temperature      296(2)
_diffrn_measured_fraction_theta_full 0.992
_diffrn_measured_fraction_theta_max 0.993
_diffrn_measurement_device_type  'BRUKER SMART APEX II'
_diffrn_measurement_method       'Omega scan'
_diffrn_radiation_monochromator  graphite
_diffrn_radiation_source         'fine-focus sealed tube'
_diffrn_radiation_type           MoK\a
_diffrn_radiation_wavelength     0.71073
_diffrn_reflns_av_R_equivalents  0.1333
_diffrn_reflns_av_unetI/netI     0.0804
_diffrn_reflns_Laue_measured_fraction_full 0.992
_diffrn_reflns_Laue_measured_fraction_max 0.993
_diffrn_reflns_limit_h_max       23
_diffrn_reflns_limit_h_min       -22
_diffrn_reflns_limit_k_max       22
_diffrn_reflns_limit_k_min       -22
_diffrn_reflns_limit_l_max       4
_diffrn_reflns_limit_l_min       -5
_diffrn_reflns_number            21522
_diffrn_reflns_point_group_measured_fraction_full 0.995
_diffrn_reflns_point_group_measured_fraction_max 0.996
_diffrn_reflns_theta_full        25.242
_diffrn_reflns_theta_max         29.973
_diffrn_reflns_theta_min         4.462
_diffrn_standards_decay_%        0'
_diffrn_standards_interval_time  4.5
_diffrn_standards_number         3
_exptl_absorpt_coefficient_mu    15.430
_exptl_absorpt_correction_T_max  0.7460
_exptl_absorpt_correction_T_min  0.6029
_exptl_absorpt_correction_type   multi-scan
_exptl_absorpt_process_details   SADABS
_exptl_crystal_colour            black
_exptl_crystal_density_diffrn    3.318
_exptl_crystal_description       needle
_exptl_crystal_F_000             1028
_exptl_crystal_size_max          0.240
_exptl_crystal_size_mid          0.010
_exptl_crystal_size_min          0.005
_refine_diff_density_max         1.019
_refine_diff_density_min         -1.004
_refine_diff_density_rms         0.200
_refine_ls_abs_structure_details 'Flack H D (1983), Acta Cryst. A39, 876-881'
_refine_ls_abs_structure_Flack   0.05(3)
_refine_ls_extinction_coef       0.0009(2)
_refine_ls_extinction_expression Fc^*^=kFc[1+0.001xFc^2^\l^3^/sin(2\q)]^-1/4^
_refine_ls_extinction_method     SHELXL
_refine_ls_goodness_of_fit_ref   1.032
_refine_ls_hydrogen_treatment    constr
_refine_ls_matrix_type           full
_refine_ls_number_parameters     77
_refine_ls_number_reflns         1732
_refine_ls_number_restraints     0
_refine_ls_restrained_S_all      1.032
_refine_ls_R_factor_all          0.0974
_refine_ls_R_factor_gt           0.0509
_refine_ls_shift/su_max          0.000
_refine_ls_shift/su_mean         0.000
_refine_ls_structure_factor_coef Fsqd
_refine_ls_weighting_details
'calc w=1/[\s^2^(Fo^2^)+(0.0252P)^2^+3.1755P] where P=(Fo^2^+2Fc^2^)/3'
_refine_ls_weighting_scheme      calc
_refine_ls_wR_factor_gt          0.0711
_refine_ls_wR_factor_ref         0.0820
_reflns_Friedel_coverage         0.698
_reflns_Friedel_fraction_full    1.000
_reflns_Friedel_fraction_max     1.000
_reflns_number_gt                1176
_reflns_number_total             1732
_reflns_threshold_expression     'I > 2\s(I)'
_cod_data_source_file            c6cc07142b3.cif
_cod_data_source_block           1c_0GPa
_cod_depositor_comments
;
The following automatic conversions were performed:

data name '_chemical_melting_point' was changed to
'_chemical_melting_point_gt' since the value was specified as 'more
than' ('>') a certain temperature.

Automatic conversion script
Id: cif_fix_values 6909 2019-04-08 15:41:33Z antanas 
;
_cod_original_cell_volume        1148.71(10)
_cod_database_code               7125155
_shelx_space_group_comment
;
The symmetry employed for this shelxl refinement is uniquely defined
by the following loop, which should always be used as a source of
symmetry information in preference to the above space-group names.
They are only intended as comments.
;
_shelx_estimated_absorpt_t_min   0.119
_shelx_estimated_absorpt_t_max   0.927
_shelx_res_file
;
TITL IBPSSEt_0m in P-42(1)m
CELL 0.71073  16.47040  16.47040   4.23450  90.0000  90.0000  90.0000
ZERR    4.00   0.00060   0.00060   0.00020   0.0000   0.0000   0.0000
LATT -1
SYMM -X, -Y, Z
SYMM Y, -X, -Z
SYMM -Y, X, -Z
SYMM 0.5-X, 0.5+Y, -Z
SYMM 0.5+X, 0.5-Y, -Z
SYMM 0.5-Y, 0.5-X, Z
SYMM 0.5+Y, 0.5+X, Z
SFAC C H N SE I
UNIT 28 20 12 16 4
TEMP 23.000
SIZE 0.005 0.01 0.24
ACTA
OMIT -3 60
L.S. 10
BOND $H
FMAP 2
PLAN 5
 
WGHT    0.025200    3.175500
EXTI    0.000945
FVAR       0.28188
I1    5    0.080325    0.419675   -0.178393    10.50000    0.03160    0.03160 =
         0.07499    0.01414   -0.01414    0.00425
SE1   4    0.066055    0.101382    0.265244    11.00000    0.02370    0.02226 =
         0.04744    0.00037    0.00183   -0.00332
SE2   4    0.029256    0.224970    0.023863    11.00000    0.02397    0.02749 =
         0.05763    0.00305   -0.00716   -0.00206
N1    3    0.162661    0.138119    0.406979    11.00000    0.02184    0.02248 =
         0.04221   -0.00220    0.00055    0.00064
N2    3    0.255300    0.244700    0.440139    10.50000    0.02055    0.02055 =
         0.03106    0.00215   -0.00215    0.00288
C1    1    0.182453    0.212511    0.331106    11.00000    0.02195    0.02524 =
         0.02308   -0.00481    0.00710    0.00295
C2    1    0.130867    0.265576    0.148620    11.00000    0.01781    0.01816 =
         0.04218   -0.00060    0.00093    0.00942
C3    1    0.158049    0.341951    0.063515    10.50000    0.02156    0.02156 =
         0.04919    0.00017   -0.00017    0.00306
C4    1    0.305474    0.194526    0.651327    10.50000    0.02315    0.02315 =
         0.02983    0.00985   -0.00985   -0.00102
AFIX   3
H4A   2    0.336474    0.230100    0.784427    11.00000   -1.20000
AFIX   0
C5    1    0.362358    0.137642    0.484406    10.50000    0.03082    0.03082 =
         0.05472   -0.00464    0.00464    0.00650
AFIX   3
H5B   2    0.330658    0.102300    0.350906    11.00000   -1.50000
H5A   2    0.394058    0.106000    0.634106    10.50000   -1.50000
 
HKLF 4
 
REM  IBPSSEt_0m in P-42(1)m
REM R1 =  0.0509 for   1176 Fo > 4sig(Fo)  and  0.0974 for all   1732 data
REM     77 parameters refined using      0 restraints
 
END  
     
WGHT      0.0238      3.4811 
REM Highest difference peak  1.019,  deepest hole -1.004,  1-sigma level  0.200
Q1    1   0.0752  0.4248 -0.2685  10.50000  0.05    1.02
Q2    1   0.0671  0.4329 -0.0115  10.50000  0.05    1.00
Q3    1   0.4213  0.0787  0.7450  10.50000  0.05    0.81
Q4    1   0.1206  0.3794 -0.1710  10.50000  0.05    0.78
Q5    1   0.0705  0.4295 -0.5560  10.50000  0.05    0.73
;
_shelx_res_checksum              91298
_shelx_hkl_file
;
   2  -3   0 282.904 25.6285  15
  -3  -2   0 281.410 28.6186   6
   2   3   0 256.055 25.7758  12
  -2  -3   0 277.310 28.9975   6
   3  -2   0 317.310 25.9275  15
   3  -2   0 264.471 26.5881   3
  -3   2   0 317.188 29.0222   9
   3  -3   0 946.127 64.3506  15
   3   3   0 946.885 65.2233  12
  -3  -3   0 878.395 66.9110   6
   3  -3   0 840.110 64.1718   3
  -3   3   0 980.076 64.4915   9
  -4  -3   0 1666.14 124.815   6
  -4  -3   0 1838.27 120.960   9
   3  -4   0 1880.23 122.484  15
   3  -4   0 2101.09 121.761   6
   4   3   0 1893.82 123.675  12
  -3   4   0 2009.06 123.440   9
   3  -4   0 1835.82 122.551   3
   4   3   0 1884.33 121.091   3
   4   2   0 742.056 55.5811   3
   2  -4   0 771.421 57.5914   6
   4   1   0 3425.94 213.844  15
  -4  -1   0 3270.44 214.563   9
   4   1   0 3333.99 213.448   3
   1  -4   0 3571.88 213.790   6
   0  -4   0 121.376 21.7353   6
   0   4   0 180.064 20.3388  12
  -4   0   0 136.036 21.6629   9
   4   0   0 186.326 20.4387   3
   4   0   0 168.856 19.2870  15
  -4   1   0 3442.73 209.855   9
  -1  -4   0 3311.97 210.532   6
   4  -1   0 3246.48 209.518   3
   4  -1   0 3378.46 209.099  15
   1   4   0 3265.01 209.427  12
   4  -2   0 703.633 52.2993   3
  -2  -4   0 606.264 54.2082   6
   4  -2   0 734.591 50.7175  15
  -4   2   0 759.910 53.1023   9
   2   4   0 610.651 51.4356  12
   4  -3   0 1849.11 121.797  15
   4  -3   0 2042.85 121.406   6
   4  -3   0 1830.73 122.369   3
  -3  -4   0 1845.84 120.377   9
  -4   3   0 1927.31 122.910   9
   3   4   0 1881.11 122.795  12
  -3  -4   0 1759.68 123.867   6
   4  -4   0 3155.73 200.120  15
  -4  -4   0 2999.92 197.986   9
   4   4   0 3110.40 198.063   3
  -4   4   0 3284.20 200.363   9
  -4   4   0 3383.39 198.089  12
  -4  -4   0 2769.96 201.456   6
   4   4   0 3149.32 197.751  15
   4   4   0 3117.25 200.708  12
   4  -4   0 3055.76 200.160   3
   4  -4   0 3423.43 198.919   6
   5   4   0 1309.56 86.2200   3
   4  -5   0 1278.23 89.3165   3
   5   4   0 1294.16 90.3005  12
  -4   5   0 1302.25 90.0362   9
   5   4   0 1246.08 85.5857  15
   4  -5   0 1354.37 86.7294   6
   4  -5   0 1327.34 88.7437  15
  -4   5   0 1295.48 85.0305  12
  -5  -4   0 1322.57 86.4325   9
  -5  -4   0 1198.52 91.5200   6
  -5  -3   0 30.3001 26.5055   6
   3  -5   0 33.3188 19.3498   6
   5   3   0 9.70559 16.1495  15
   5   3   0 66.6649 24.0812  12
  -3   5   0 19.5319 15.5727  12
   3  -5   0 43.4201 22.0969  15
   5   3   0 48.6817 18.3160   3
  -5  -3   0 -6.2520 18.4761   9
  -5  -2   0 -7.0096 18.0621   9
   5   2   0 0.21788 16.9822   3
   5   2   0 4.79671 16.2017  15
  -2   5   0 25.0470 16.6347  12
   2  -5   0 15.6307 20.2022   6
  -5  -1   0 308.472 31.5419   9
   1  -5   0 351.649 32.8260   6
   5   1   0 378.084 31.5075   3
   5   1   0 375.939 29.9042  15
  -1   5   0 330.092 32.9589  12
   0   5   0 5.68824 18.7069  12
   5   0   0 2.77808 16.3415  15
   0  -5   0 -17.920 20.6125   6
   5   0   0 4.54033 17.4460   3
  -5   0   0 -13.545 20.1217   9
   1   5   0 396.574 32.7617  12
   5  -1   0 326.750 32.1691   3
   5  -1   0 375.830 31.5273  15
  -1  -5   0 289.568 34.6912   6
  -5   1   0 387.446 34.3502   9
   5  -2   0 14.7074 18.9246  15
   2   5   0 7.29619 21.1370  12
   5  -2   0 35.9039 21.6691   3
   2   5   0 7.61241 18.9175   3
  -5   2   0 9.80441 21.9462   9
  -2  -5   0 15.2966 24.4449   6
   5  -3   0 5.90423 22.3758   3
  -3  -5   0 -17.786 23.8895   6
   3   5   0 54.5701 18.1872  15
   5  -3   0 36.9390 21.3786  15
   5  -3   0 36.2279 19.1391   6
   3   5   0 13.0227 20.2481  12
  -5   3   0 33.8131 16.7980  12
  -5   3   0 39.8303 22.9579   9
  -3  -5   0 46.8719 18.9437   9
   3   5   0 -23.063 18.8420   3
   4   5   0 1243.17 84.6701  15
  -4  -5   0 1189.86 90.8867   6
   4   5   0 1212.53 87.2066  12
  -4  -5   0 1240.69 85.0610   9
  -5   4   0 1293.69 84.1501  12
   5  -4   0 1331.21 86.2138   6
   5  -4   0 1308.97 88.4970   3
   5  -4   0 1362.22 88.1468  15
  -5   4   0 1402.02 89.6204   9
   4   5   0 1241.21 85.1636   3
   5   5   0 546.031 43.3457  15
  -5  -5   0 530.178 53.4905   6
   5  -5   0 534.027 49.2685   3
  -5  -5   0 525.267 44.9184   9
  -5   5   0 586.423 49.2048   9
   5  -5   0 611.749 45.3513   6
   5  -5   0 553.892 49.0360  15
   5   5   0 574.953 44.0305   3
   5   5   0 566.112 50.9387  12
  -5   5   0 553.524 42.4016  12
  -6  -5   0 102.189 31.6063   6
   5  -6   0 91.4786 23.0705   6
   6   5   0 92.2374 19.4992  15
   6   5   0 114.905 26.0927  12
  -5   6   0 54.5837 25.9787   9
  -6  -5   0 107.092 22.0303   9
  -5   6   0 30.9219 17.5912  12
   6   5   0 50.5303 20.1973   3
   5  -6   0 123.679 27.4660   3
   5  -6   0 67.0041 26.1881  15
  -6  -4   0 618.821 61.5985   6
  -6  -4   0 742.456 54.4822   9
   4  -6   0 719.900 58.4955   3
   4  -6   0 702.028 58.1557  15
  -4   6   0 721.578 52.8944  12
  -4   6   0 824.276 60.4057   9
   6   4   0 779.517 55.1629   3
   4  -6   0 780.487 55.7970   6
   6   4   0 752.849 54.3748  15
   6   4   0 744.606 60.3888  12
   6   3   0 194.208 24.0991   3
   3  -6   0 134.554 26.9150  15
  -6  -3   0 167.129 24.2829   9
  -6  -3   0 199.375 31.2465   6
   6   3   0 210.070 22.9000  15
  -3   6   0 166.163 21.7680  12
   3  -6   0 176.002 24.5317   6
   6   2   0 5777.33 352.008  15
   2  -6   0 5762.08 352.668   6
   6   2   0 5681.10 352.542   3
  -6  -2   0 5167.00 352.218   9
  -2   6   0 5791.82 352.187  12
  -6  -1   0 1445.09 99.4549   9
  -1   6   0 1568.18 99.2220  12
   1  -6   0 1489.16 100.662   6
   6   1   0 1514.93 99.5196   3
   6   1   0 1483.00 98.2662  15
   6   0   0 6877.07 436.524   3
   0   6   0 7217.48 436.571  12
   0  -6   0 6905.65 436.994   6
   6   0   0 7031.74 436.038  15
  -6   0   0 6919.57 436.557   9
   1   6   0 1523.60 99.2258  12
  -6   1   0 1500.73 99.7148   9
   6  -1   0 1505.83 99.4291   3
  -1  -6   0 1367.10 100.007   6
   6  -1   0 1494.73 97.7135  15
  -6   2   0 5861.94 354.855   9
   6  -2   0 5616.63 354.510   3
   6  -2   0 5717.69 353.955  15
   2   6   0 5767.26 354.521  12
  -2  -6   0 5280.23 354.997   6
  -6   3   0 199.413 28.8155   9
   3   6   0 183.913 28.3256  12
  -3  -6   0 166.002 31.6977   6
   6  -3   0 202.151 27.1799  15
   3   6   0 204.496 25.3202   3
   6  -3   0 208.357 29.1461   3
  -6   4   0 857.606 56.7419  12
   6  -4   0 849.002 58.4539   6
   4   6   0 761.998 62.0240  12
   4   6   0 794.408 58.1231   3
   6  -4   0 770.474 60.9079  15
   4   6   0 726.146 57.1887  15
  -4  -6   0 713.135 64.9501   6
  -6   4   0 868.369 62.7552   9
   6  -4   0 822.460 63.7734   3
  -4  -6   0 795.252 58.7509   9
   6  -5   0 90.2511 25.3497  15
   5   6   0 90.7740 20.9580  15
  -5  -6   0 48.2662 30.3002   6
   6  -5   0 92.3640 22.1505   6
  -5  -6   0 76.7074 21.9867   9
  -6   5   0 99.7267 27.2082   9
   5   6   0 68.6857 27.4702  12
   5   6   0 85.0370 21.4207   3
   6  -5   0 46.2491 26.0816   3
  -6   5   0 69.4723 18.1503  12
  -6  -6   0 3344.90 241.436   6
   6  -6   0 4032.75 237.847   6
  -6  -6   0 3724.64 237.464   9
   6   6   0 3749.01 237.087   3
   6  -6   0 3720.99 240.531   3
   6  -6   0 3906.62 239.868  15
   6   6   0 3825.37 236.626  15
  -6   6   0 3920.45 240.709   9
  -6   6   0 3609.51 236.425  12
   6   6   0 3733.65 240.876  12
   7   6   0 1603.26 112.804  12
  -6   7   0 1593.31 105.587  12
   6  -7   0 1551.61 111.337   3
   7   6   0 1588.61 106.049  15
   7   6   0 1649.10 107.086   3
   6  -7   0 1656.02 111.104  15
  -7  -6   0 1598.99 107.018   9
  -6   7   0 1628.57 111.290   9
  -7  -6   0 1467.00 113.660   6
   6  -7   0 1748.57 108.033   6
   7   5   0 128.863 22.5516  15
   7   5   0 134.690 30.6703  12
   5  -7   0 102.773 28.5180  15
   7   5   0 116.762 23.7054   3
   5  -7   0 105.571 24.4766   6
  -5   7   0 155.952 20.7687  12
   5  -7   0 127.514 29.7086   3
  -7  -5   0 132.735 33.1300   6
  -5   7   0 128.533 29.1827   9
  -7  -5   0 106.138 25.2015   9
  -7  -4   0 807.554 68.6520   6
   7   4   0 908.785 61.6583   3
   4  -7   0 801.338 64.2868  15
  -7  -4   0 791.923 60.9002   9
   7   4   0 867.638 66.8134  12
  -4   7   0 776.435 58.8716  12
  -4   7   0 883.248 65.3563   9
   7   4   0 868.864 60.8455  15
   4  -7   0 851.489 66.1926   3
   4  -7   0 837.347 60.8879   6
   3  -7   0 239.076 28.4285   6
   3  -7   0 274.093 31.9484  15
  -7  -3   0 220.367 28.5764   9
   7   3   0 236.174 27.9448   3
  -3   7   0 258.482 25.9587  12
   7   3   0 222.966 26.3744  15
  -2   7   0 3302.54 203.246  12
  -7  -2   0 2973.39 203.229   9
   7   2   0 3189.32 203.515   3
   7   2   0 3225.46 202.814  15
   2  -7   0 3333.65 204.275   6
  -7  -1   0 220.633 30.5874   9
   7   1   0 283.781 29.4997   3
  -1   7   0 321.828 29.0846  12
   7   1   0 256.060 26.9435  15
   1  -7   0 243.230 31.6717   6
   0   7   0 32.1199 22.2995  12
   0  -7   0 -13.279 24.2809   6
   7   0   0 -23.100 19.3417   3
  -7   0   0 -57.515 22.5882   9
   7   0   0 6.73443 18.9646  15
  -7   1   0 282.035 32.7253   9
   7  -1   0 289.976 29.5683  15
  -1  -7   0 243.924 33.3826   6
   7  -1   0 261.918 31.3301   3
   1   7   0 290.122 31.5426  12
   7  -2   0 3247.06 206.579   3
   2   7   0 3331.70 206.894  12
  -7   2   0 3408.89 207.085   9
  -2  -7   0 2906.93 207.466   6
   7  -2   0 3273.15 205.863  15
  -3  -7   0 204.750 34.1653   6
  -7   3   0 244.482 31.6602   9
   3   7   0 219.582 31.7199  12
   7  -3   0 302.356 32.9614   3
   7  -3   0 199.640 28.5990  15
   7  -4   0 862.389 66.0712   3
  -7   4   0 894.288 67.2375   9
   4   7   0 803.505 65.4698  12
   7  -4   0 830.877 63.9807  15
   4   7   0 834.604 61.0743   3
  -4  -7   0 746.648 68.7784   6
  -4  -7   0 810.375 61.3688   9
   7  -4   0 902.080 61.7013   6
   5   7   0 68.5789 29.8175  12
  -5  -7   0 142.773 33.3976   6
   5   7   0 118.468 24.0986  15
   7  -5   0 121.947 30.0138   3
   7  -5   0 95.6333 25.9955  15
  -5  -7   0 137.252 25.4107   9
  -7   5   0 142.825 21.6426  12
   7  -5   0 101.288 23.6869   6
  -7   5   0 139.600 30.2429   9
   5   7   0 126.468 24.3690   3
  -6  -7   0 1563.63 112.262   6
   6   7   0 1581.45 110.482  12
  -6  -7   0 1609.24 106.133   9
  -7   6   0 1547.54 109.839   9
   7  -6   0 1556.00 110.802   3
  -7   6   0 1543.53 103.719  12
   6   7   0 1555.68 104.825  15
   6   7   0 1582.84 105.406   3
   7  -6   0 1620.03 109.552  15
   7  -6   0 1697.04 106.031   6
   7   7   0 535.951 47.8617  15
  -7  -7   0 512.951 55.4292   6
  -7   7   0 535.576 45.1177  12
   7  -7   0 594.907 56.7551   3
  -7   7   0 624.857 53.7070   9
   7   7   0 562.784 54.0525  12
  -7  -7   0 600.982 50.3018   9
   7  -7   0 673.411 56.6198  15
   7   7   0 568.925 48.9592   3
   7  -7   0 608.766 50.4699   6
   8   7   0 826.145 61.6047   3
   7  -8   0 772.167 70.7339   3
  -7   8   0 824.404 70.2688   9
  -8  -7   0 707.765 72.2314   6
   7  -8   0 788.412 61.8187   6
  -8  -7   0 722.747 61.3631   9
   7  -8   0 825.817 67.5883  15
   8   7   0 819.660 70.2674  12
   8   7   0 759.972 59.1995  15
  -7   8   0 778.781 57.6367  12
   8   6   0 880.526 63.1773  15
  -8  -6   0 791.044 74.4297   6
   8   6   0 920.389 64.7797   3
  -8  -6   0 782.326 64.7379   9
   6  -8   0 867.491 70.5275  15
   6  -8   0 779.363 70.1783   3
  -6   8   0 905.773 71.6982   9
   6  -8   0 906.237 64.8829   6
   8   6   0 848.188 71.8535  12
  -6   8   0 829.198 61.0878  12
  -8  -5   0 1178.31 83.5653   9
   8   5   0 1238.55 81.9143  15
   5  -8   0 1177.99 86.7061  15
   5  -8   0 1245.49 84.2339   6
   8   5   0 1139.89 82.8554   3
   8   5   0 1176.84 89.1359  12
   5  -8   0 1196.45 87.6448   3
  -8  -5   0 1147.80 90.8504   6
  -5   8   0 1278.45 87.4394   9
  -5   8   0 1144.10 80.3372  12
   4  -8   0 1183.87 92.0054  15
   8   4   0 1334.81 87.4740  15
  -4   8   0 1225.93 86.5142  12
  -8  -4   0 1228.00 96.0162   6
   4  -8   0 1248.36 91.7379   3
  -8  -4   0 1350.50 88.3725   9
   8   4   0 1288.10 92.8847  12
   8   4   0 1385.13 89.1591   3
   4  -8   0 1287.56 88.2149   6
  -4   8   0 1324.08 91.7355   9
   8   3   0 547.660 49.8155   3
   8   3   0 587.285 48.0464  15
   3  -8   0 632.756 49.8445   6
  -3   8   0 618.273 47.0986  12
  -8  -3   0 544.074 49.8463   9
   8   2   0 128.727 24.3014   3
  -2   8   0 152.042 25.3890  12
   8   2   0 148.644 23.3167  15
   2  -8   0 147.408 27.4651   6
  -8  -2   0 127.747 28.0266   9
   8   1   0 845.377 63.5832   3
  -8  -1   0 836.092 63.8512   9
  -1   8   0 854.717 61.8447  12
   8   1   0 837.092 60.7274  15
   1  -8   0 834.079 65.9257   6
   0  -8   0 517.094 50.5736   6
   8   0   0 463.344 44.7272  15
   0   8   0 584.036 49.4811  12
   8   0   0 531.856 47.3575   3
  -8   0   0 511.896 49.1303   9
   1   8   0 864.145 65.2004  12
  -1  -8   0 734.482 66.9891   6
   8  -1   0 840.961 65.4967   3
   8  -1   0 902.693 63.7050  15
  -8   1   0 938.841 67.2318   9
   8  -2   0 187.049 28.4661   3
  -2  -8   0 126.387 31.9586   6
  -8   2   0 98.4970 29.8102   9
   8  -2   0 142.429 25.4556  15
   2   8   0 151.251 28.6028  12
  -8   3   0 562.236 53.2206   9
   3   8   0 593.790 52.2311  12
  -3  -8   0 509.215 49.9957   6
   8  -3   0 547.892 50.1031   3
   8  -3   0 516.335 48.6570  15
   8  -4   0 1356.19 92.5788   3
  -4  -8   0 1144.36 93.7376   6
  -8   4   0 1313.09 91.1566   9
   8  -4   0 1307.28 89.5238  15
   4   8   0 1259.12 91.0452  12
   4   8   0 1242.23 86.8081   3
  -8   5   0 1171.15 79.0223  12
  -5  -8   0 1179.77 81.4398   9
  -8   5   0 1207.11 85.8470   9
   5   8   0 1105.07 86.1817  12
  -5  -8   0 1068.24 88.4632   6
   8  -5   0 1145.71 86.2768   3
   5   8   0 1120.31 81.0119   3
   8  -5   0 1240.95 81.3108   6
   8  -5   0 1177.88 84.2803  15
   6   8   0 864.938 71.5321  12
  -6  -8   0 717.777 74.1888   6
  -8   6   0 925.752 70.5727   9
  -8   6   0 845.182 62.1764  12
  -6  -8   0 830.512 65.5945   9
   8  -6   0 888.290 71.4953   3
   6   8   0 835.542 65.1615   3
   6   8   0 861.883 63.6634  15
   8  -6   0 953.295 64.5646   6
   8  -6   0 832.753 68.4627  15
  -8   7   0 803.825 68.8513   9
   7   8   0 742.318 61.6717   3
  -7  -8   0 814.524 72.9317   6
   7   8   0 770.067 60.3655  15
   8  -7   0 823.119 61.3324   6
   8  -7   0 783.092 69.9555   3
   7   8   0 820.955 70.5617  12
  -7  -8   0 738.430 62.8975   9
  -8   7   0 771.644 57.6691  12
   8  -7   0 814.354 68.1102  15
  -8  -8   0 68.0219 38.1459   6
   8   8   0 18.6927 26.1076   3
   8  -8   0 56.9415 35.3205   3
   8  -8   0 33.7336 33.2614  15
  -8  -8   0 25.7968 29.1941   9
  -8   8   0 52.4467 34.1789   9
  -8   8   0 49.4727 20.6881  12
   8   8   0 -8.4815 32.4768  12
   8  -8   0 25.7834 26.0063   6
   8   8   0 -17.110 25.0890  15
  -8   9   0 927.998 69.1830  12
  -9  -8   0 950.154 75.0584   9
   9   8   0 986.068 74.5599   3
   8  -9   0 1042.10 82.0190  15
   8  -9   0 973.958 82.9288   3
   9   8   0 951.601 72.5382  15
  -9  -8   0 817.492 81.4213   6
   9   8   0 954.868 83.0674  12
  -8   9   0 925.605 82.8664   9
   8  -9   0 1091.86 74.2708   6
  -9  -7   0 137.496 32.0623   9
  -7   9   0 53.8397 35.2415   9
   9   7   0 88.8573 25.7688  15
   9   7   0 139.964 37.2290  12
   7  -9   0 92.5072 27.7256   6
   9   7   0 158.816 28.8194   3
  -9  -7   0 25.6148 38.7371   6
  -7   9   0 142.169 24.5651  12
   7  -9   0 127.872 36.0041  15
   7  -9   0 182.411 37.9870   3
  -9  -6   0 682.739 60.3530   9
   9   6   0 817.551 68.8753  12
  -6   9   0 682.710 54.6550  12
  -9  -6   0 681.802 66.1617   6
  -6   9   0 754.687 64.3392   9
   6  -9   0 717.685 68.2914   3
   6  -9   0 737.822 58.5620   6
   9   6   0 701.085 57.2582  15
   6  -9   0 696.367 66.0130  15
   9   6   0 688.531 58.9072   3
  -5   9   0 287.424 31.1863  12
  -9  -5   0 272.707 35.0071   9
   9   5   0 313.556 33.2873  15
  -9  -5   0 337.363 44.9522   6
   9   5   0 301.056 34.6598   3
  -5   9   0 378.985 41.3628   9
   5  -9   0 312.515 41.5788   3
   9   5   0 276.040 42.2290  12
   5  -9   0 320.863 40.1527  15
   5  -9   0 336.644 35.6232   6
  -9  -4   0 590.652 56.8471   6
   9   4   0 624.924 54.8138  12
   9   4   0 636.344 52.7193   3
  -4   9   0 572.795 48.6534  12
   4  -9   0 554.799 53.6173   3
  -4   9   0 659.888 58.0182   9
   9   4   0 618.790 50.6681  15
   4  -9   0 592.851 56.6347  15
   4  -9   0 581.907 51.9581   6
  -9  -4   0 621.424 52.4713   9
  -9  -3   0 1017.56 80.5343   9
   9   3   0 1139.15 80.3257  15
   3  -9   0 1266.71 82.2725   6
  -3   9   0 1100.64 80.6619  12
   9   3   0 1218.65 82.2953   3
   9   2   0 659.452 53.5075  15
  -2   9   0 658.838 55.1258  12
   9   2   0 739.866 56.0351   3
   2  -9   0 684.580 57.8242   6
  -9  -2   0 673.874 58.6154   9
   9   1   0 749.679 59.8816   3
  -9  -1   0 727.088 60.4021   9
   1  -9   0 802.348 62.6755   6
   9   1   0 691.026 56.2788  15
  -1   9   0 718.563 58.6799  12
   9   0   0 8.97779 22.9216   3
   0   9   0 3.88359 25.2318  12
   9   0   0 9.98531 21.0382  15
  -9   0   0 11.2280 26.9651   9
   0  -9   0 26.4562 28.6217   6
  -1  -9   0 587.901 62.3857   6
   9  -1   0 854.568 61.0470   3
   1   9   0 668.610 62.0496  12
  -9   1   0 799.711 62.8504   9
   9  -1   0 755.720 59.4869  15
   2   9   0 697.112 59.2361  12
  -2  -9   0 685.428 63.8787   6
   9  -2   0 668.750 59.9788   3
  -9   2   0 725.990 61.2285   9
   9  -2   0 707.201 57.2337  15
   3   9   0 1074.60 83.0715  12
  -3  -9   0 1120.40 86.4203   6
   9  -3   0 1106.15 83.2928   3
  -9   3   0 1181.07 83.7159   9
   9  -3   0 1142.41 81.2209  15
  -4  -9   0 555.833 56.5308   6
  -9   4   0 636.363 56.4997   9
   9  -4   0 554.029 55.5530   3
   9  -4   0 628.142 54.8811  15
   4   9   0 611.039 57.5984  12
  -9   5   0 260.344 40.0217   9
  -5  -9   0 339.331 45.3960   6
   9  -5   0 406.272 42.5044   3
   5   9   0 289.421 34.4535   3
   5   9   0 292.110 40.3968  12
   9  -5   0 298.000 38.1299  15
  -9   6   0 665.432 64.5319   9
  -6  -9   0 667.191 64.7693   6
   9  -6   0 766.523 68.5497   3
   9  -6   0 729.584 63.1179  15
   9  -6   0 740.201 57.5956   6
   6   9   0 700.604 57.3428   3
  -6  -9   0 651.099 58.0922   9
   6   9   0 721.325 65.5612  12
   9  -7   0 154.170 37.8265   3
   9  -7   0 136.628 29.0070   6
  -9   7   0 99.5673 24.0565  12
  -7  -9   0 22.3306 39.2803   6
  -7  -9   0 123.831 30.4132   9
   7   9   0 67.6739 27.4062  15
   7   9   0 158.411 38.4422  12
  -9   7   0 212.467 37.0989   9
   9  -7   0 98.4240 33.7662  15
   7   9   0 124.267 29.4086   3
   8   9   0 897.843 73.3445   3
   9  -8   0 984.349 80.0335  15
  -8  -9   0 937.426 86.1674   6
   8   9   0 984.852 72.4178  15
   9  -8   0 942.222 84.7458   3
   9  -8   0 1078.84 74.6788   6
   8   9   0 942.119 83.5100  12
  -9   8   0 938.012 80.9656   9
  -8  -9   0 1022.36 75.6458   9
  -9   8   0 922.956 69.5312  12
   9  -9   0 1077.63 91.9362   3
   9  -9   0 1087.62 79.0226   6
  -9  -9   0 949.692 90.6189   6
  -9   9   0 1133.46 89.0636   9
   9   9   0 957.625 89.1541  12
   9  -9   0 1020.49 86.1449  15
  -9  -9   0 1030.18 81.6515   9
 -10  -9   0 187.716 51.7033   6
   9 -10   0 331.307 47.5484  15
  10   9   0 195.683 46.9902  12
   9 -10   0 308.172 49.7391   3
  -9  10   0 311.166 47.8025   9
   8 -10   0 1256.62 101.813   3
  10   8   0 1145.55 100.529  12
  10   8   0 1274.54 95.7965   3
  -8  10   0 1368.50 98.8238   9
 -10  -8   0 1316.73 93.7898   9
   8 -10   0 1341.16 99.8319  15
 -10  -8   0 1199.64 104.308   6
   8 -10   0 1242.85 91.9527   6
   7 -10   0 62.2504 38.1444   3
  10   7   0 24.5255 29.3079   3
   7 -10   0 36.2910 36.1571  15
   7 -10   0 40.4802 28.1325   6
  10   7   0 17.6292 38.2176  12
 -10  -7   0 13.1008 39.6965   6
  -7  10   0 12.6434 35.1493   9
  -7  10   0 1.23693 21.4504  12
 -10  -7   0 29.2223 31.0008   9
  10   7   0 48.1712 27.0636  15
   6 -10   0 268.667 41.5364  15
  10   6   0 269.942 43.3805  12
  10   6   0 195.461 32.9882   3
  10   6   0 212.497 31.4731  15
  -6  10   0 242.404 40.9869   9
  -6  10   0 238.094 29.0504  12
   6 -10   0 205.451 33.8795   6
 -10  -6   0 183.215 34.7852   9
 -10  -6   0 212.700 45.5507   6
   6 -10   0 172.351 41.6883   3
  -5  10   0 189.186 28.1382  12
  10   5   0 175.852 41.7564  12
   5 -10   0 149.107 31.7889   6
   5 -10   0 250.426 39.7454   3
  10   5   0 209.074 30.2488  15
  -5  10   0 166.152 37.5074   9
  10   5   0 200.726 32.3746   3
 -10  -5   0 159.834 44.5447   6
   5 -10   0 171.063 38.5378  15
 -10  -5   0 223.048 33.6889   9
 -10  -4   0 0.54227 28.2232   9
  10   4   0 7.77293 25.4889   3
  10   4   0 37.7607 23.7508  15
 -10  -4   0 -16.683 36.0536   6
  10   4   0 -8.7525 33.1048  12
   4 -10   0 -10.858 31.7691   3
   4 -10   0 -25.777 27.4540   6
  -4  10   0 -28.701 29.8266   9
   4 -10   0 16.5953 31.9133  15
  -4  10   0 17.6753 21.9423  12
  10   3   0 5774.14 370.205   3
 -10  -3   0 5753.81 369.926   9
  10   3   0 5917.10 369.329  15
  -3  10   0 5962.48 369.445  12
   3 -10   0 5960.39 370.421   6
  10   2   0 605.167 56.0815   3
  -2  10   0 676.708 55.6040  12
  10   2   0 609.984 53.3429  15
   2 -10   0 651.351 57.0005   6
 -10  -2   0 617.268 55.0481   9
  -1  10   0 242.267 33.3431  12
  10   1   0 255.629 30.6776  15
   1 -10   0 267.021 35.9368   6
 -10  -1   0 277.926 37.8371   9
  10   1   0 255.780 33.6966   3
  10   0   0 94.8077 27.1320   3
   0  10   0 11.9536 27.2083  12
 -10   0   0 -3.5383 29.3520   9
   0 -10   0 50.9409 30.8080   6
  10   0   0 -4.8365 22.1977  15
  -1 -10   0 272.408 38.8447   6
 -10   1   0 256.776 38.5558   9
  10  -1   0 282.612 34.1083  15
  10  -1   0 265.414 34.9523   3
   1  10   0 241.177 36.9164  12
  10  -2   0 562.596 55.6576   3
  10  -2   0 621.690 55.7364  15
  -2 -10   0 551.108 55.5314   6
 -10   2   0 627.052 59.2072   9
   2  10   0 608.800 53.7237  12
  10  -3   0 5803.40 370.768   3
 -10   3   0 6038.12 371.014   9
  10  -3   0 5771.14 369.313  15
   3  10   0 5700.70 370.375  12
  -3 -10   0 5945.46 372.198   6
  10  -4   0 31.0887 27.8128  15
 -10   4   0 82.3108 34.9635   9
   4  10   0 32.1869 31.6573  12
  -4 -10   0 53.6093 35.8264   6
  10  -4   0 -5.0728 29.5721   3
   5  10   0 178.478 39.1368  12
  -5 -10   0 159.416 41.5900   6
  10  -5   0 190.133 37.6321   3
 -10   5   0 189.923 39.3335   9
  10  -5   0 213.739 35.3549  15
   6  10   0 156.749 31.5073   3
  10  -6   0 191.660 39.7338   3
 -10   6   0 217.056 40.0117   9
  10  -6   0 194.799 36.9533  15
  -6 -10   0 135.603 43.8492   6
   6  10   0 165.529 38.3192  12
  -7 -10   0 3.44743 40.3369   6
  10  -7   0 -9.6223 32.0189  15
   7  10   0 28.9045 32.6355   3
 -10   7   0 -44.002 33.3798   9
   7  10   0 47.7804 37.3520  12
  10  -7   0 71.9630 38.0505   3
  10  -7   0 2.52744 26.5119   6
  -7 -10   0 50.4362 31.1177   9
  10  -8   0 1336.42 96.9822  15
 -10   8   0 1313.66 99.7426   9
  10  -8   0 1299.22 93.8442   6
   8  10   0 1178.17 99.5072  12
  -8 -10   0 1249.38 104.293   6
  10  -8   0 1288.62 100.561   3
  -8 -10   0 1122.55 96.7490   9
  -9 -10   0 253.883 50.7642   6
 -10   9   0 266.158 45.3611   9
   9  10   0 213.991 46.2658  12
  10  -9   0 350.875 50.0433   3
  10  -9   0 253.620 45.5190  15
  10 -10   0 47.6562 38.7419  15
  10  10   0 99.6812 44.9680  12
 -10  10   0 87.0096 40.8821   9
  10 -10   0 79.0079 43.2594   3
 -10 -10   0 113.726 47.9895   6
  11  10   0 -4.0909 42.7275  12
  10 -11   0 -31.617 38.0102  15
 -11 -10   0 19.4571 49.9850   6
 -10  11   0 -37.898 39.1382   9
  10 -11   0 35.8892 44.1122   3
   9 -11   0 62.3257 42.4989  15
  -9  11   0 64.1841 41.3633   9
 -11  -9   0 60.0179 46.8223   6
  11   9   0 33.3322 43.1849  12
   9 -11   0 144.494 45.5721   3
   8 -11   0 149.699 43.5519  15
  -8  11   0 62.1866 39.4352   9
   8 -11   0 170.073 44.5110   3
  11   8   0 176.549 45.7917  12
 -11  -8   0 149.533 51.0891   6
   7 -11   0 58.3598 38.8339  15
   7 -11   0 -12.886 38.6279   3
  -7  11   0 43.6266 37.5031   9
  11   7   0 -17.156 41.2554  12
 -11  -7   0 34.0940 43.6379   6
   7 -11   0 46.2759 29.9585   6
 -11  -7   0 -2.7071 34.5631   9
  11   7   0 25.2636 30.4366   3
 -11  -6   0 226.215 47.9816   6
   6 -11   0 248.375 36.5086   6
  11   6   0 271.334 36.6321   3
  11   6   0 258.498 48.3481  12
   6 -11   0 241.951 44.8369   3
  -6  11   0 268.930 43.9734   9
   6 -11   0 254.888 45.2394  15
 -11  -6   0 203.685 39.6738   9
  -6  11   0 246.190 32.3996  12
  11   6   0 170.884 33.7216  15
  11   5   0 103.315 41.9509  12
  -5  11   0 54.8689 35.0946   9
   5 -11   0 107.017 31.2287   6
  11   5   0 49.6571 29.2860   3
  -5  11   0 24.5215 25.1042  12
   5 -11   0 26.2848 36.7198   3
  11   5   0 45.6286 27.7594  15
 -11  -5   0 48.9614 32.4041   9
   5 -11   0 90.3885 38.6366  15
 -11  -5   0 6.26697 41.2280   6
   4 -11   0 322.375 49.3391   3
  11   4   0 379.781 40.7231  15
 -11  -4   0 393.979 44.9262   9
  -4  11   0 465.358 49.0348   9
  11   4   0 449.135 51.3207  12
   4 -11   0 385.014 47.6487  15
 -11  -4   0 425.897 53.2044   6
  11   4   0 343.187 41.6853   3
   4 -11   0 414.169 43.3313   6
  -4  11   0 381.074 39.3849  12
 -11  -3   0 131.550 33.6714   9
  11   3   0 105.408 29.7469   3
  -3  11   0 116.141 28.6931  12
  11   3   0 39.1956 26.4531  15
   3 -11   0 111.291 37.2949  15
   3 -11   0 74.8925 33.7117   6
 -11  -2   0 89.4615 34.5165   9
   2 -11   0 58.5673 31.9293   6
  11   2   0 48.0734 28.0391   3
  11   2   0 65.8345 25.3355  15
  -2  11   0 109.469 30.1863  12
  11   1   0 692.051 61.1656   3
   1 -11   0 628.019 63.0775   6
 -11  -1   0 714.168 64.9629   9
  11   1   0 630.647 56.8232  15
  -1  11   0 660.897 60.6416  12
  11   0   0 -8.7611 26.5256   3
  11   0   0 -10.802 24.1682  15
   0 -11   0 -50.788 32.4659   6
   0  11   0 -0.5474 29.0199  12
 -11   0   0 13.7280 32.5434   9
  11  -1   0 711.660 59.2175  15
 -11   1   0 782.035 66.1115   9
  11  -1   0 639.240 63.8694   3
   1  11   0 678.044 63.0403  12
  -1 -11   0 631.725 60.7151   6
  -2 -11   0 64.6026 38.7166   6
   2  11   0 61.0536 33.4057  12
  11  -2   0 82.8601 30.6759   3
 -11   2   0 30.1563 35.5668   9
  11  -2   0 30.4792 27.9115  15
   3  11   0 47.2114 35.3739  12
  -3 -11   0 131.258 39.5764   6
 -11   3   0 36.8294 34.8943   9
  11  -3   0 126.065 31.9739  15
  11  -3   0 125.219 33.5259   3
  11  -4   0 433.814 49.8276   3
 -11   4   0 432.849 50.6410   9
   4  11   0 355.103 47.8487  12
  -4 -11   0 405.734 51.5249   6
  11  -4   0 495.241 47.1119  15
 -11   5   0 87.7932 37.7418   9
  11  -5   0 101.056 36.1579   3
  11  -5   0 101.188 33.2278  15
  -5 -11   0 31.6745 43.5416   6
   5  11   0 114.298 38.6932  12
  11  -6   0 224.605 42.6881   3
 -11   6   0 225.804 43.6934   9
  -6 -11   0 257.257 47.7469   6
   6  11   0 224.272 45.3241  12
  11  -6   0 284.152 43.0828  15
 -11   7   0 12.7019 37.4055   9
  11  -7   0 64.8361 39.4507   3
   7  11   0 89.0796 41.1900  12
  11  -7   0 64.0664 35.1210  15
  -7 -11   0 -78.434 41.1903   6
  -8 -11   0 46.7473 46.5246   6
   8  11   0 155.651 44.7313  12
  11  -8   0 117.370 42.3597   3
  11  -8   0 136.386 39.6780  15
 -11   8   0 102.557 39.5986   9
  11  -9   0 30.9230 38.0293  15
  -9 -11   0 13.8163 46.9584   6
   9  11   0 94.9863 43.7588  12
  11  -9   0 81.5957 43.4192   3
 -11   9   0 72.6903 40.7027   9
  11 -10   0 14.9649 38.8658  15
 -11  10   0 53.6830 40.4450   9
  10  11   0 -61.599 43.0002  12
  11 -10   0 127.951 45.5185   3
 -10 -11   0 -28.671 47.1568   6
 -11 -11   0 17.3990 53.9898   6
  11 -11   0 69.0159 47.6671   3
  11  11   0 -6.3912 44.9209  12
 -11  11   0 64.6222 42.2812   9
  11 -11   0 84.7932 41.9803  15
  11 -12   0 346.951 57.3274   3
  12  11   0 192.653 53.7484  12
 -12 -11   0 150.537 60.9530   6
 -11  12   0 371.251 55.1544   9
  11 -12   0 330.545 53.6659  15
  10 -12   0 2.50129 41.1547  15
  12  10   0 29.9629 47.4095  12
  10 -12   0 26.8815 47.2029   3
 -10  12   0 113.839 44.9094   9
 -12 -10   0 80.1672 53.7572   6
  -9  12   0 1127.11 100.055   9
 -12  -9   0 1073.47 102.272   6
   9 -12   0 1255.83 99.3828  15
   9 -12   0 1211.27 101.288   3
  12   9   0 1171.09 100.329  12
   8 -12   0 257.805 48.1656  15
 -12  -8   0 141.194 50.8496   6
  12   8   0 224.448 51.2736  12
  -8  12   0 166.775 45.3495   9
   8 -12   0 244.816 48.9785   3
  12   7   0 476.621 60.8834  12
   7 -12   0 542.650 60.1207  15
 -12  -7   0 565.174 66.1256   6
  -7  12   0 503.199 59.3119   9
   7 -12   0 503.042 61.2412   3
  12   6   0 791.735 74.2605  12
  12   6   0 790.134 69.6107   3
   6 -12   0 687.920 70.1263  15
 -12  -6   0 719.634 66.5177   9
   6 -12   0 772.003 71.9266   3
   6 -12   0 667.665 68.2368   6
 -12  -6   0 823.771 76.1248   6
  12   6   0 740.034 66.1090  15
  -6  12   0 795.058 72.8690   9
   5 -12   0 30.7892 30.4331   6
  -5  12   0 55.2237 26.8079  12
   5 -12   0 66.4972 39.2994  15
 -12  -5   0 -25.040 45.1717   6
  -5  12   0 68.0244 37.1419   9
  12   5   0 49.3294 29.8105  15
 -12  -5   0 103.627 36.4679   9
  12   5   0 46.3745 42.8993  12
   5 -12   0 73.9046 43.4637   3
  12   5   0 8.18377 31.7011   3
 -12  -4   0 797.040 76.1517   6
  -4  12   0 695.036 62.6089  12
   4 -12   0 795.594 75.1513   3
   4 -12   0 747.630 67.1551   6
  12   4   0 775.646 64.2715  15
  -4  12   0 702.862 67.0606   9
   4 -12   0 756.302 71.6616  15
 -12  -4   0 666.859 68.1535   9
  12   4   0 777.169 74.0762  12
  12   4   0 712.252 68.2916   3
   3 -12   0 2097.41 141.465   6
  12   3   0 2041.64 141.665   3
   3 -12   0 2046.54 144.738  15
  12   3   0 2035.97 139.611  15
 -12  -3   0 2145.91 142.039   9
  -3  12   0 2093.66 140.003  12
 -12  -2   0 588.229 58.4484   9
  12   2   0 606.407 55.8755   3
  -2  12   0 685.848 56.5121  12
  12   2   0 530.556 52.2068  15
   2 -12   0 648.048 58.1565   6
  -1  12   0 -0.2462 31.4711  12
  12   1   0 12.2909 26.2553  15
 -12  -1   0 28.3398 34.1000   9
  12   1   0 4.07590 29.8835   3
   1 -12   0 17.0603 35.0047   6
   0 -12   0 445.956 52.2785   6
   0  12   0 463.727 48.0766  12
  12   0   0 419.882 44.2489  15
 -12   0   0 381.445 49.6163   9
  12   0   0 409.904 47.1662   3
  -1 -12   0 -6.5000 36.6628   6
  12  -1   0 -8.8464 31.5192   3
 -12   1   0 -33.528 35.2698   9
   1  12   0 53.2802 34.7360  12
  12  -1   0 26.0078 27.7466  15
  12  -2   0 622.366 59.0722   3
  -2 -12   0 555.460 61.2124   6
 -12   2   0 691.892 62.5377   9
   2  12   0 603.749 60.4760  12
  12  -2   0 670.671 61.1799  15
  12  -3   0 2114.12 145.132   3
  -3 -12   0 2039.98 147.749   6
  12  -3   0 2099.33 143.794  15
 -12   3   0 2169.64 146.798   9
   3  12   0 2091.19 145.780  12
  12  -4   0 811.370 73.3054  15
  -4 -12   0 787.940 76.7062   6
 -12   4   0 806.520 70.6382   9
  12  -4   0 742.939 73.2575   3
   4  12   0 699.092 68.5115  12
  -5 -12   0 -47.822 43.6665   6
  12  -5   0 98.9184 38.8978   3
  12  -5   0 42.2579 34.1119  15
 -12   5   0 20.8795 38.2048   9
   5  12   0 59.2019 39.9729  12
  12  -6   0 782.518 76.3616   3
 -12   6   0 864.220 73.5181   9
  12  -6   0 862.523 71.3489  15
   6  12   0 663.624 71.9799  12
  -6 -12   0 702.945 73.7239   6
 -12   7   0 632.255 61.3265   9
  -7 -12   0 437.032 62.1189   6
  12  -7   0 505.804 59.1088   3
  12  -7   0 490.142 56.8881  15
   7  12   0 482.164 60.6436  12
  -8 -12   0 191.418 50.6515   6
 -12   8   0 184.790 45.5947   9
  12  -8   0 192.485 44.1785  15
   8  12   0 186.880 49.6112  12
  12  -8   0 234.390 47.4964   3
 -12   9   0 1241.23 98.7187   9
   9  12   0 1127.95 98.3596  12
  12  -9   0 1218.16 96.0023  15
  12  -9   0 1151.07 101.180   3
  -9 -12   0 1029.43 99.0824   6
 -10 -12   0 8.08526 49.1413   6
  12 -10   0 72.8042 40.7756  15
  12 -10   0 35.1610 45.2983   3
  10  12   0 -5.7158 45.6881  12
 -12  10   0 -22.918 39.7618   9
  12 -11   0 311.112 52.6191  15
 -11 -12   0 227.412 58.4851   6
 -12  11   0 340.956 53.5584   9
  11  12   0 241.827 55.5571  12
  12 -11   0 328.233 56.2700   3
  12  12   0 423.671 65.3559  12
 -12 -12   0 407.822 68.8445   6
  12 -12   0 367.390 59.9491  15
 -12  12   0 550.623 63.4125   9
  12 -12   0 496.697 66.9701   3
  12 -13   0 7.12430 51.0861   3
  12 -13   0 52.3106 47.6227  15
 -13 -12   0 58.5485 59.9501   6
 -12  13   0 -51.487 42.6224   9
  13  12   0 -19.645 49.5694  12
  11 -13   0 -17.432 45.3757  15
  11 -13   0 -28.631 50.6863   3
 -11  13   0 -45.744 43.1211   9
 -13 -11   0 -10.060 53.4403   6
  13  11   0 -45.504 48.9958  12
 -13 -10   0 608.166 75.8127   6
  13  10   0 626.717 74.6389  12
 -10  13   0 677.350 72.9141   9
  10 -13   0 767.832 73.3171  15
  10 -13   0 758.084 77.5239   3
  -9  13   0 6.70059 41.3898   9
   9 -13   0 21.3415 46.8121   3
  13   9   0 -28.213 43.7249  12
 -13  -9   0 -27.681 48.7207   6
   9 -13   0 83.8812 45.7167  15
  -8  13   0 127.304 45.1365   9
   8 -13   0 160.827 48.0094  15
 -13  -8   0 147.608 52.5734   6
  13   8   0 169.227 47.3202  12
   8 -13   0 62.9002 46.7163   3
   7 -13   0 1149.35 92.4422   3
  -7  13   0 1007.98 92.9611   9
 -13  -7   0 979.849 98.3120   6
  13   7   0 979.213 95.4345  12
   7 -13   0 1025.51 92.2395  15
   6 -13   0 284.066 52.6659   3
 -13  -6   0 206.767 52.0926   6
   6 -13   0 141.490 41.5610   6
  13   6   0 260.365 41.7119   3
  -6  13   0 198.724 45.8827   9
  13   6   0 295.892 51.0947  12
   6 -13   0 135.887 47.9457  15
   5 -13   0 180.748 36.2051   6
  13   5   0 127.095 37.6585   3
  -5  13   0 149.700 37.1512  12
 -13  -5   0 137.192 41.1519   9
  13   5   0 115.620 33.8429  15
   5 -13   0 99.2246 45.5469  15
  13   5   0 108.578 48.1982  12
 -13  -5   0 103.019 47.9221   6
  -5  13   0 82.0901 41.6658   9
   5 -13   0 111.028 45.2094   3
  13   4   0 1102.23 90.2228   3
   4 -13   0 1194.95 92.2235  15
  -4  13   0 1039.06 93.0970   9
  -4  13   0 1078.93 85.1294  12
   4 -13   0 1261.87 95.5550   3
  13   4   0 1125.94 86.2970  15
 -13  -4   0 1061.31 90.1681   9
 -13  -4   0 1056.30 95.8641   6
   4 -13   0 1097.83 86.9969   6
  13   4   0 1199.50 98.6972  12
   3 -13   0 110.693 37.7864   6
  13   3   0 111.730 35.8720   3
  13   3   0 96.3301 31.1995  15
   3 -13   0 192.721 43.9732  15
 -13  -3   0 46.7062 43.7059   6
  -3  13   0 168.775 36.3214  12
  13   3   0 84.4822 42.5597  12
 -13  -3   0 150.702 41.2981   9
   2 -13   0 465.304 50.4906   6
  13   2   0 364.514 44.0443  15
  13   2   0 401.050 47.7310   3
 -13  -2   0 379.112 52.9246   9
  -2  13   0 444.995 48.6722  12
  13   1   0 52.9136 29.6404  15
  -1  13   0 52.0456 35.3058  12
 -13  -1   0 79.2068 38.3925   9
  13   1   0 25.6456 33.5303   3
   1 -13   0 46.4715 38.8272   6
   0 -13   0 -19.930 40.4532   6
  13   0   0 9.69973 34.1726   3
  13   0   0 -14.073 28.5373  15
 -13   0   0 23.1237 39.0766   9
   0  13   0 7.17423 33.0350  12
  -1 -13   0 29.3590 40.8360   6
  13  -1   0 52.3319 35.2366   3
  13  -1   0 102.559 32.7178  15
 -13   1   0 48.6294 40.3996   9
   1  13   0 21.1031 37.7012  12
  13  -2   0 432.010 50.9087   3
 -13   2   0 391.168 53.0801   9
  13  -2   0 454.859 47.3343  15
   2  13   0 392.971 51.3539  12
  -2 -13   0 308.341 52.0907   6
   3  13   0 129.038 43.0548  12
  13  -3   0 106.125 38.5095   3
  13  -3   0 196.783 38.2276  15
 -13   3   0 132.618 44.1539   9
  -3 -13   0 140.915 44.4243   6
   4  13   0 1195.61 93.5286  12
  13  -4   0 1096.43 91.5503  15
  -4 -13   0 1188.67 100.845   6
  13  -4   0 1163.02 93.3025   3
 -13   4   0 1057.77 95.3749   9
  13  -5   0 92.5233 39.0083  15
 -13   5   0 192.209 43.6560   9
   5  13   0 121.648 44.8452  12
  13  -5   0 148.061 40.9498   3
  -5 -13   0 132.475 48.0091   6
 -13   6   0 296.113 49.8537   9
  13  -6   0 267.352 49.0642   3
  -6 -13   0 239.080 51.9614   6
  13  -6   0 304.181 45.7403  15
   6  13   0 186.050 50.3690  12
   7  13   0 1048.82 95.0422  12
  13  -7   0 1215.45 93.3652  15
 -13   7   0 1167.41 94.4400   9
  -7 -13   0 859.313 91.4397   6
  13  -7   0 1092.19 94.9302   3
 -13   8   0 207.139 46.7700   9
  13  -8   0 95.6591 42.7811  15
  -8 -13   0 111.604 50.6476   6
  13  -8   0 231.979 48.6123   3
   8  13   0 123.463 49.0418  12
 -13   9   0 20.2684 41.8453   9
   9  13   0 5.27082 44.6506  12
  13  -9   0 18.3745 42.8193   3
  -9 -13   0 23.6109 50.3441   6
  13  -9   0 23.8030 41.0781  15
  10  13   0 601.101 73.1253  12
 -10 -13   0 599.083 76.1310   6
 -13  10   0 704.779 73.0322   9
  13 -10   0 729.052 74.5926   3
  13 -10   0 846.596 75.0303  15
 -11 -13   0 -73.267 55.1157   6
  13 -11   0 80.4623 48.5972   3
  13 -11   0 -57.334 42.5725  15
 -13  11   0 7.44128 43.1279   9
  11  13   0 46.4590 51.7758  12
  13 -12   0 -76.324 48.0002   3
 -12 -13   0 -16.625 54.9147   6
 -13  12   0 -37.824 42.9955   9
  12  13   0 1.81639 51.9039  12
  13 -12   0 64.5449 47.4712  15
 -13 -13   0 726.836 87.0730   6
 -13  13   0 756.911 79.9599   9
  13 -13   0 837.579 85.3367   3
  13 -13   0 872.736 81.2964  15
  13  13   0 730.503 84.2744  12
 -14 -13   0 90.5331 64.2075   6
  14  13   0 82.9184 54.5251  12
 -13  14   0 40.6946 48.2140   9
  13 -14   0 90.6992 51.1875  15
  13 -14   0 128.228 56.4621   3
  12 -14   0 115.418 51.9054  15
  14  12   0 54.0019 54.7287  12
 -12  14   0 47.0913 47.1894   9
 -14 -12   0 147.219 59.1259   6
  12 -14   0 120.075 58.5415   3
 -11  14   0 230.394 52.9597   9
 -14 -11   0 162.849 60.8091   6
  14  11   0 156.044 57.8191  12
  11 -14   0 134.252 58.0281   3
  11 -14   0 91.9581 49.8181  15
  14  10   0 345.050 62.0111  12
  10 -14   0 314.139 57.7202  15
 -14 -10   0 291.479 66.1930   6
  10 -14   0 316.263 62.2611   3
 -10  14   0 264.210 55.3242   9
 -14  -9   0 76.7147 54.0568   6
   9 -14   0 109.893 55.1908   3
   9 -14   0 188.616 52.9779  15
  -9  14   0 185.635 49.1293   9
  14   9   0 100.792 50.4771  12
   8 -14   0 4.40715 48.5665  15
 -14  -8   0 37.8146 51.7568   6
   8 -14   0 24.0061 50.5221   3
  14   8   0 -62.949 47.5168  12
  -8  14   0 11.8057 42.3809   9
  -7  14   0 162.998 46.7271   9
   7 -14   0 110.865 49.1585  15
 -14  -7   0 -18.147 52.6317   6
  14   7   0 138.119 51.4237  12
   7 -14   0 71.3460 51.2470   3
 -14  -6   0 32.2396 53.3028   6
  -6  14   0 18.7006 40.9246   9
   6 -14   0 20.5233 47.2213  15
  14   6   0 45.5218 47.8367  12
   6 -14   0 29.9683 49.5286   3
  -5  14   0 114.649 44.5061   9
   5 -14   0 15.8111 37.3897   6
  14   5   0 109.490 50.1356  12
   5 -14   0 26.0120 46.6480  15
   5 -14   0 163.848 50.6319   3
 -14  -5   0 57.0527 49.6994   6
  14   5   0 111.852 39.8790   3
   4 -14   0 712.610 68.3732   3
  14   4   0 526.573 54.5625  15
   4 -14   0 614.150 61.0953   6
 -14  -4   0 576.833 69.9714   6
  14   4   0 535.182 59.6249   3
  14   4   0 656.354 68.0470  12
   4 -14   0 626.923 66.2696  15
 -14  -4   0 631.885 62.5271   9
  -4  14   0 544.888 63.8867   9
  -4  14   0 589.284 58.0999  12
 -14  -3   0 6.87936 47.4356   6
  14   3   0 121.978 47.2657  12
   3 -14   0 60.9799 42.8957  15
  -3  14   0 101.386 36.9235  12
   3 -14   0 63.8375 38.7254   6
  14   3   0 95.9155 32.4591  15
  14   3   0 74.9777 37.7880   3
 -14  -3   0 35.2978 42.3343   9
 -14  -2   0 648.514 63.1286   9
  14   2   0 489.084 53.0863  15
   2 -14   0 517.873 58.5381   6
  -2  14   0 647.642 58.9229  12
  14   2   0 530.876 57.2645   3
   1 -14   0 156.785 43.0387   6
  14   1   0 74.3612 32.9972  15
  14   1   0 70.9925 37.2779   3
 -14  -1   0 60.9025 41.8848   9
  -1  14   0 57.5164 40.0780  12
  14   0   0 175.848 36.7974  15
   0 -14   0 106.329 45.5865   6
  14   0   0 227.129 43.1142   3
 -14   0   0 179.670 46.9364   9
   0  14   0 198.191 42.1870  12
  -1 -14   0 58.3686 45.0409   6
  14  -1   0 108.852 35.3491  15
   1  14   0 67.4965 37.9981  12
 -14   1   0 107.904 44.1914   9
  14  -1   0 64.3696 38.3355   3
  14  -2   0 579.737 57.1143  15
   2  14   0 598.391 61.8621  12
  14  -2   0 581.971 61.5568   3
  -2 -14   0 545.501 64.6366   6
 -14   2   0 553.164 63.6108   9
  14  -3   0 54.9261 36.6872  15
  14  -3   0 82.6974 40.2787   3
  -3 -14   0 110.837 47.9991   6
   3  14   0 66.0107 42.8407  12
 -14   3   0 27.3731 44.1087   9
 -14   4   0 618.942 66.1571   9
  14  -4   0 658.397 64.8716   3
   4  14   0 555.144 64.5418  12
  -4 -14   0 570.316 66.7947   6
  14  -4   0 598.346 61.8703  15
  14  -5   0 32.6932 39.2894   3
 -14   5   0 58.4941 43.4043   9
  -5 -14   0 108.155 48.0230   6
   5  14   0 38.8986 44.0857  12
  14  -5   0 105.806 40.0768  15
 -14   6   0 -1.0414 42.0605   9
  14  -6   0 1.32767 39.1004  15
  -6 -14   0 -4.5517 44.9436   6
  14  -6   0 29.5177 40.8583   3
   6  14   0 -11.545 42.9439  12
  14  -7   0 147.601 43.0879  15
 -14   7   0 61.6043 43.7441   9
   7  14   0 27.6938 46.4454  12
  14  -7   0 102.385 46.6726   3
  -7 -14   0 20.6594 47.8834   6
  14  -8   0 -10.544 43.5395   3
 -14   8   0 26.4301 43.4166   9
   8  14   0 21.5016 48.2788  12
  -8 -14   0 -11.767 48.0899   6
  14  -8   0 18.7879 40.7998  15
  14  -9   0 67.7511 45.3589  15
 -14   9   0 263.697 49.5563   9
  14  -9   0 131.255 50.5241   3
   9  14   0 23.1594 50.6318  12
  -9 -14   0 170.036 56.2950   6
  14 -10   0 296.757 54.5624  15
  10  14   0 259.557 59.7740  12
 -14  10   0 298.030 54.1395   9
 -10 -14   0 222.602 60.5484   6
  14 -10   0 444.558 59.7726   3
 -11 -14   0 184.927 59.7250   6
  14 -11   0 115.565 50.2497  15
 -14  11   0 116.434 49.1091   9
  11  14   0 163.272 55.0972  12
  14 -11   0 178.524 54.2385   3
  14 -12   0 206.917 52.7611  15
 -12 -14   0 100.402 57.6469   6
  12  14   0 96.9127 56.7937  12
 -14  12   0 132.034 48.8872   9
  14 -12   0 165.573 56.0796   3
  14 -13   0 51.1039 50.2798  15
  14 -13   0 84.7382 55.6129   3
 -14  13   0 -10.353 45.8823   9
  13  14   0 25.1713 55.0373  12
 -13 -14   0 52.1562 57.8920   6
  14 -14   0 264.680 64.0255   3
  14  14   0 212.620 67.0633  12
 -14  14   0 267.818 58.3859   9
 -14 -14   0 367.321 68.9466   6
  14 -14   0 301.172 61.9149  15
  14 -15   0 -41.540 56.4250   3
 -15 -14   0 92.8110 69.2169   6
 -14  15   0 117.394 53.7042   9
  15  14   0 140.004 62.3940  12
  14 -15   0 92.4398 57.1874  15
  13 -15   0 245.504 59.0561  15
 -13  15   0 225.840 57.6231   9
  15  13   0 235.758 64.3111  12
 -15 -13   0 176.014 67.1923   6
  13 -15   0 252.355 65.2761   3
  12 -15   0 22.2761 51.8685  15
  12 -15   0 134.281 62.4006   3
 -12  15   0 64.7555 48.7632   9
  15  12   0 14.3134 56.5967  12
 -15 -12   0 19.2071 58.6090   6
  15  11   0 236.199 64.9929  12
 -15 -11   0 172.087 65.7152   6
  11 -15   0 406.516 69.0811   3
  11 -15   0 312.413 61.0049  15
 -11  15   0 293.842 57.1723   9
  10 -15   0 85.1438 57.4965   3
  10 -15   0 63.9944 52.4513  15
 -15 -10   0 100.932 61.7382   6
  15  10   0 74.7397 54.6039  12
 -10  15   0 72.6213 50.0213   9
  15   9   0 21.7137 53.7551  12
   9 -15   0 -95.327 54.6173   3
 -15  -9   0 81.5770 56.3182   6
   9 -15   0 24.2197 52.8770  15
  -9  15   0 82.0462 48.6852   9
   8 -15   0 37.1423 52.0457   3
   8 -15   0 -30.024 49.5726  15
 -15  -8   0 4.36603 53.8980   6
  15   8   0 49.4045 50.6280  12
  -8  15   0 -18.743 46.4704   9
  15   7   0 485.674 70.3269  12
   7 -15   0 673.329 70.7763  15
   7 -15   0 613.721 72.2834   3
 -15  -7   0 585.828 75.1966   6
  -7  15   0 447.900 65.4367   9
  -6  15   0 95.0114 46.1462   9
  15   6   0 72.6737 51.7168  12
 -15  -6   0 127.033 59.5518   6
   6 -15   0 107.496 52.7721  15
   6 -15   0 51.1414 54.4827   3
  15   5   0 376.975 58.9359  12
   5 -15   0 439.271 62.2356   3
   5 -15   0 315.362 56.4094  15
  -5  15   0 241.634 52.5810   9
 -15  -5   0 179.043 58.7853   6
   4 -15   0 422.267 58.2799  15
 -15  -4   0 387.101 60.8483   6
   4 -15   0 416.567 53.2041   6
 -15  -4   0 461.440 71.5088   9
  15   4   0 399.617 63.3711  12
  15   4   0 434.747 53.8478   3
  -4  15   0 290.346 55.9175   9
   4 -15   0 357.720 61.3183   3
 -15  -3   0 227.565 46.5455   9
  -3  15   0 110.026 43.5456   9
  15   3   0 129.857 42.0963   3
   3 -15   0 143.277 44.4276   6
  15   3   0 130.586 36.0305  15
 -15  -3   0 136.715 52.3808   6
   3 -15   0 111.169 46.9781  15
  15   3   0 42.2736 50.2250  12
  -3  15   0 101.696 41.3575  12
  15   2   0 379.607 47.9158  15
 -15  -2   0 345.927 55.3883   9
  15   2   0 453.090 53.8813   3
  -2  15   0 416.728 53.6967  12
   2 -15   0 476.030 55.9479   6
   2 -15   0 402.280 58.4407  15
 -15  -1   0 282.248 53.0483   9
  -1  15   0 331.771 51.6050  12
  15   1   0 253.934 43.6829  15
  15   1   0 357.936 49.6640   3
   1 -15   0 265.706 51.4887   6
  15   0   0 25.4713 39.0831   3
   0 -15   0 -4.8250 44.6583   6
   0  15   0 -3.0661 40.4433  12
  15   0   0 7.85382 32.6193  15
 -15   0   0 -45.421 42.3042   9
  15  -1   0 313.817 45.8829  15
  15  -1   0 346.457 53.3529   3
 -15   1   0 226.555 52.7063   9
  -1 -15   0 421.682 59.8237   6
   1  15   0 339.956 52.2169  12
  15  -2   0 372.291 51.1438  15
   2  15   0 512.207 58.6055  12
  15  -2   0 496.035 58.6971   3
  -2 -15   0 406.597 60.8817   6
 -15   2   0 408.008 58.6006   9
 -15   3   0 132.596 47.9140   9
  -3 -15   0 112.145 51.1817   6
  15  -3   0 137.162 44.7966   3
   3  15   0 129.960 47.9885  12
  15  -3   0 118.492 39.2094  15
   4  15   0 400.675 60.1388  12
  -4 -15   0 275.634 56.8735   6
  15  -4   0 427.215 56.0172   3
 -15   4   0 420.860 58.5213   9
  15  -4   0 287.388 50.9661  15
   5  15   0 306.310 56.1084  12
  15  -5   0 271.558 48.2268  15
  -5 -15   0 338.868 60.8637   6
 -15   5   0 306.598 55.2475   9
  15  -5   0 207.817 49.8499   3
  15  -6   0 56.1288 41.8560   3
   6  15   0 63.9908 47.5503  12
  15  -6   0 57.5861 41.1687  15
  -6 -15   0 109.439 52.7075   6
 -15   6   0 111.531 46.4413   9
   7  15   0 476.158 65.2570  12
 -15   7   0 533.696 65.3146   9
  -7 -15   0 496.434 72.2339   6
  15  -7   0 653.688 67.3885   3
  15  -7   0 508.781 63.5398  15
  15  -8   0 40.5846 43.3648  15
   8  15   0 16.3257 48.0176  12
  -8 -15   0 -23.698 55.3908   6
 -15   8   0 -7.2957 43.5460   9
  15  -8   0 -12.433 41.8511   3
 -15   9   0 8.43543 45.0793   9
  15  -9   0 27.0434 48.8490   3
   9  15   0 -1.8651 52.1813  12
  -9 -15   0 113.016 54.8181   6
  15  -9   0 39.2252 44.5073  15
 -15  10   0 115.377 49.4394   9
 -10 -15   0 146.273 61.4848   6
  15 -10   0 129.542 53.6125   3
  15 -10   0 54.6079 47.0454  15
  10  15   0 170.899 57.4083  12
 -15  11   0 391.374 58.4605   9
  15 -11   0 379.518 63.9034   3
  15 -11   0 368.449 60.8019  15
 -11 -15   0 295.289 64.5661   6
  11  15   0 276.290 63.8227  12
  15 -12   0 31.7527 54.0221   3
  12  15   0 11.0850 58.3275  12
 -12 -15   0 -23.679 60.0200   6
 -15  12   0 164.109 51.5756   9
  15 -12   0 15.6478 48.3792  15
  15 -13   0 95.8559 58.2828   3
 -15  13   0 140.537 53.5686   9
  15 -13   0 279.735 57.8633  15
  13  15   0 140.112 65.3773  12
 -13 -15   0 158.976 64.4239   6
 -14 -15   0 113.086 69.2771   6
  15 -14   0 44.5121 54.0293  15
  14  15   0 126.030 64.5977  12
 -15  14   0 18.3837 50.9584   9
  15 -14   0 62.5425 59.5081   3
 -15 -15   0 138.727 66.8263   6
  15 -15   0 44.6505 57.6567  15
 -15  15   0 -43.869 50.1528   9
  15  15   0 2.07090 65.7470  12
  15 -15   0 148.093 65.6888   3
  15 -16   0 50.0396 67.2093   3
 -16 -15   0 76.8222 67.0007   6
  15 -16   0 127.683 60.3944  15
 -15  16   0 111.360 56.2270   9
  16  15   0 64.6006 69.2244  12
  16  14   0 60.0745 63.0029  12
 -14  16   0 130.911 57.2037   9
  14 -16   0 203.999 62.2772  15
  14 -16   0 140.559 67.5129   3
 -16 -14   0 56.0135 70.7146   6
  16  13   0 45.5207 59.5385  12
 -16 -13   0 45.5593 66.7970   6
 -13  16   0 -44.289 49.7966   9
  13 -16   0 20.3053 63.8339   3
  13 -16   0 22.1248 55.1355  15
  12 -16   0 78.6095 56.5586  15
 -12  16   0 -31.035 47.3488   9
  12 -16   0 16.6404 62.5187   3
 -16 -12   0 153.855 64.6324   6
  16  12   0 -17.933 58.6865  12
 -16 -11   0 64.8283 65.0943   6
  16  11   0 -10.713 59.2344  12
  11 -16   0 109.249 61.9377   3
 -11  16   0 20.0709 51.4444   9
  11 -16   0 100.479 56.4026  15
  16  10   0 255.028 64.2593  12
 -16 -10   0 241.788 65.0743   6
  10 -16   0 168.247 67.1132   3
 -10  16   0 287.070 58.2357   9
  10 -16   0 271.450 63.3835  15
  -9  16   0 193.814 54.6278   9
 -16  -9   0 161.233 63.8222   6
   9 -16   0 203.684 60.4210  15
  16   9   0 108.457 60.4432  12
   9 -16   0 148.507 64.1946   3
 -16  -8   0 24.8916 56.9705   6
   8 -16   0 86.1437 59.2844   3
   8 -16   0 227.728 58.8492  15
  16   8   0 139.819 58.4319  12
  -8  16   0 169.843 52.8634   9
  -7  16   0 -5.9507 48.3269   9
  16   7   0 55.1000 55.4948  12
   7 -16   0 -4.5976 55.9989   3
   7 -16   0 47.2893 54.3740  15
 -16  -7   0 24.2207 59.2606   6
  -6  16   0 67.8777 47.3151   9
   6 -16   0 -22.558 51.1153  15
   6 -16   0 -0.7995 53.3870   3
 -16  -6   0 73.5004 60.9266   6
  16   6   0 13.5339 52.4035  12
 -16  -5   0 987.476 91.2793   6
   5 -16   0 851.227 87.0978  15
   5 -16   0 1008.18 89.5241   3
  -5  16   0 722.523 82.0053   9
  16   5   0 962.978 89.4553  12
 -16  -4   0 444.442 68.5189   6
   4 -16   0 596.350 67.8360   3
  16   4   0 347.922 67.1103  12
   4 -16   0 456.886 63.5167  15
  -4  16   0 287.426 57.3660   9
  16   4   0 388.206 56.6822   3
   3 -16   0 894.603 79.4083  15
  16   3   0 631.937 77.4053  15
   3 -16   0 798.318 77.1491   6
  16   3   0 746.584 74.0303   3
 -16  -3   0 925.653 84.0959   6
  16   3   0 1027.95 91.1556  12
 -16  -3   0 717.794 83.2681   9
   3 -16   0 793.814 80.2284   3
  -3  16   0 649.145 74.0457   9
 -16  -2   0 86.9760 53.1548   6
  -2  16   0 55.4393 42.3462  12
  16   2   0 26.0588 47.3776  12
   2 -16   0 39.7473 48.9352  15
  16   2   0 75.2049 36.4530  15
   2 -16   0 54.8300 45.6895   6
 -16  -2   0 6.61524 45.2513   9
  16   2   0 55.7089 42.7357   3
  16   1   0 227.013 48.3724   3
  -1  16   0 180.505 47.8152  12
  16   1   0 178.710 40.1065  15
 -16  -1   0 171.208 49.4100   9
   1 -16   0 209.666 50.2893   6
 -16   0   0 499.925 61.2058   9
  16   0   0 416.868 53.4361  15
  16   0   0 555.979 62.4431   3
   0 -16   0 483.377 64.2037   6
   0  16   0 563.254 63.4612  12
  -1 -16   0 145.579 52.6463   6
   1  16   0 254.876 50.0313  12
  16  -1   0 213.045 42.4046  15
 -16   1   0 139.066 52.0482   9
  16  -1   0 223.720 49.4907   3
  16  -2   0 48.0815 37.9479  15
 -16   2   0 -33.032 46.0551   9
  -2 -16   0 -115.41 48.9094   6
  16  -2   0 30.3914 43.9578   3
   2  16   0 30.6632 44.2652  12
   3  16   0 764.550 78.5493  12
 -16   3   0 743.512 78.5914   9
  16  -3   0 865.336 78.7293   3
  -3 -16   0 738.340 79.6630   6
  16  -3   0 762.806 72.2145  15
   4  16   0 405.710 63.0506  12
  -4 -16   0 417.711 65.9925   6
  16  -4   0 429.752 56.7090  15
  16  -4   0 419.524 61.6383   3
 -16   4   0 565.848 66.1474   9
  -5 -16   0 876.847 89.1642   6
   5  16   0 855.927 85.9923  12
  16  -5   0 988.509 88.3827   3
  16  -5   0 940.095 84.5870  15
 -16   5   0 1003.84 94.6021   9
  -6 -16   0 58.7321 55.9593   6
 -16   6   0 22.9587 50.0265   9
   6  16   0 48.1426 49.5926  12
  16  -6   0 29.4958 44.1214   3
  16  -6   0 -10.630 41.2320  15
  16  -7   0 29.3413 45.1483   3
   7  16   0 32.3886 52.9997  12
  -7 -16   0 -41.631 53.8416   6
  16  -7   0 123.212 45.7994  15
 -16   7   0 -24.381 46.8503   9
   8  16   0 72.8559 54.4583  12
  16  -8   0 165.841 49.3554  15
 -16   8   0 72.4329 49.3456   9
  16  -8   0 132.955 48.6572   3
  -8 -16   0 83.8075 56.3726   6
 -16   9   0 170.809 51.2370   9
  -9 -16   0 215.266 63.3918   6
   9  16   0 107.671 55.1481  12
  16  -9   0 180.596 51.7440   3
  16  -9   0 197.534 51.9508  15
  16 -10   0 223.292 53.6638  15
  10  16   0 237.796 62.6064  12
 -10 -16   0 123.152 61.1768   6
  16 -10   0 269.414 57.5801   3
 -16  10   0 281.146 56.2996   9
  16 -11   0 66.5821 49.7989  15
 -16  11   0 22.0716 48.2465   9
  11  16   0 54.2899 56.0140  12
 -11 -16   0 138.038 62.1017   6
  16 -11   0 54.9949 49.8676   3
  16 -12   0 -8.1639 55.3808   3
  12  16   0 8.55925 59.6886  12
 -16  12   0 -13.399 46.6713   9
  16 -12   0 49.5813 51.2126  15
 -12 -16   0 37.1965 59.1703   6
  16 -13   0 82.0825 55.7108  15
  13  16   0 96.2914 64.0626  12
 -16  13   0 125.829 53.3501   9
  16 -13   0 91.2920 59.2860   3
 -13 -16   0 70.9074 67.3901   6
 -16  14   0 92.3338 53.5076   9
  16 -14   0 237.622 61.5375  15
  16 -14   0 298.649 68.0000   3
  14  16   0 173.213 68.0194  12
 -14 -16   0 97.9841 65.7296   6
  16 -15   0 226.151 70.9242   3
  16 -15   0 75.6145 60.2917  15
 -16  15   0 88.1098 54.4073   9
  15  16   0 95.3189 67.6212  12
 -15 -16   0 114.486 67.9948   6
  16 -16   0 -33.522 67.9919   3
  16 -16   0 145.209 62.4734  15
 -16 -16   0 15.2254 66.2069   6
 -16  16   0 -27.166 52.0278   9
  16  16   0 -17.174 68.8359  12
 -15  17   0 -66.358 52.0260   9
  15 -17   0 77.2816 64.4044  15
  15 -17   0 92.4337 69.4263   3
 -17 -15   0 -33.613 68.4042   6
  17  15   0 54.2292 72.0848  12
  17  14   0 36.3079 71.4877  12
 -14  17   0 -7.4569 53.7309   9
  14 -17   0 -20.013 68.1918   3
 -17 -14   0 95.5268 73.5131   6
  14 -17   0 59.7754 62.7050  15
  13 -17   0 -46.433 68.0083   3
 -17 -13   0 130.777 74.8032   6
  13 -17   0 69.9178 60.6299  15
 -13  17   0 87.3034 56.0012   9
  17  13   0 160.475 71.2340  12
  17  12   0 -36.889 63.7051  12
 -12  17   0 74.1452 55.9263   9
  12 -17   0 30.1369 70.5543   3
  12 -17   0 138.443 62.9266  15
 -17 -12   0 -11.846 68.0919   6
  11 -17   0 252.958 67.0883  15
 -17 -11   0 212.246 67.4369   6
  11 -17   0 221.884 73.7161   3
 -11  17   0 268.662 61.9367   9
  17  11   0 154.700 70.1253  12
  10 -17   0 2.64789 59.0476  15
 -17 -10   0 1.36955 63.7766   6
  10 -17   0 -43.936 63.6763   3
 -10  17   0 6.19922 53.0999   9
  17  10   0 -62.812 62.6427  12
 -17  -9   0 -23.853 62.4581   6
  -9  17   0 -37.552 52.5577   9
   9 -17   0 44.5271 59.7186  15
   9 -17   0 -61.113 63.8895   3
  17   9   0 19.7550 57.9261  12
  -8  17   0 87.8836 53.2537   9
   8 -17   0 66.7728 57.6036  15
 -17  -8   0 138.299 60.7030   6
   8 -17   0 114.718 63.3848   3
  17   8   0 39.1546 57.3053  12
   7 -17   0 9.74182 58.7211   3
  17   7   0 81.5065 58.9369  12
  -7  17   0 14.4082 50.6319   9
   7 -17   0 -45.807 53.8034  15
 -17  -7   0 8.26959 61.6820   6
   6 -17   0 81.1824 59.6737  15
  17   6   0 189.794 61.4994  12
  -6  17   0 162.444 54.2567   9
 -17  -6   0 233.380 62.4347   6
   6 -17   0 150.252 62.2233   3
   5 -17   0 473.167 68.8965  15
 -17  -5   0 426.437 70.8743   6
   5 -17   0 316.258 68.0027   3
  17   5   0 373.765 69.7915  12
  -5  17   0 419.747 62.5100   9
 -17  -4   0 84.2983 59.8331   6
   4 -17   0 156.951 59.7303   3
   4 -17   0 62.8045 52.5971  15
  -4  17   0 23.4669 48.2762   9
  17   4   0 117.593 61.3396  12
  17   3   0 35.1006 52.8294  12
  -3  17   0 55.8205 48.7881   9
   3 -17   0 26.2088 55.8955   3
   3 -17   0 83.3729 53.3484  15
 -17  -3   0 68.4246 57.2062   6
  17   3   0 75.4603 46.1589   3
  17   2   0 32.6228 46.0717   3
  17   2   0 116.695 40.5870  15
   2 -17   0 24.3352 50.7438   6
 -17  -2   0 59.7477 48.4291   9
 -17  -2   0 82.7854 55.5444   6
   2 -17   0 99.3032 52.0778  15
  17   2   0 183.838 56.4037  12
  -1  17   0 262.812 51.3664  12
   1 -17   0 275.595 54.1186   6
   1 -17   0 254.268 56.2503  15
  17   1   0 246.226 51.8182   3
  17   1   0 191.913 43.6569  15
 -17  -1   0 175.549 53.5028   9
   0 -17   0 -5.0534 47.9803   6
  17   0   0 -15.815 44.5025   3
  17   0   0 51.8497 38.3727  15
 -17   0   0 43.0002 48.2957   9
   0  17   0 -109.92 46.1189  12
  17  -1   0 238.567 53.1097   3
 -17   1   0 235.937 56.4900   9
   1  17   0 248.581 54.2416  12
  -1 -17   0 337.336 58.2264   6
  17  -1   0 249.583 46.0016  15
  17  -2   0 144.780 43.4191  15
  17  -2   0 224.054 52.3421   3
 -17   2   0 121.716 52.9109   9
  -2 -17   0 176.717 54.8637   6
   2  17   0 64.0115 51.1270  12
 -17   3   0 27.6499 50.1884   9
  17  -3   0 104.350 43.2096  15
  -3 -17   0 -15.021 54.7202   6
  17  -3   0 89.8803 49.0947   3
   3  17   0 75.0964 48.9458  12
 -17   4   0 190.916 55.9977   9
  17  -4   0 79.6652 48.9608   3
   4  17   0 108.492 53.5459  12
  17  -4   0 150.383 44.9676  15
  -4 -17   0 166.344 58.2884   6
   5  17   0 339.872 65.9976  12
  -5 -17   0 368.536 64.5818   6
 -17   5   0 335.082 61.6043   9
  17  -5   0 406.746 61.3547   3
  17  -5   0 337.262 55.7348  15
  17  -6   0 189.599 50.4538  15
  17  -6   0 126.382 51.0378   3
  -6 -17   0 130.729 57.2297   6
 -17   6   0 124.795 54.5009   9
   6  17   0 248.663 61.3568  12
  17  -7   0 -33.426 46.3106   3
   7  17   0 66.8557 55.5729  12
 -17   7   0 74.0475 53.4138   9
  -7 -17   0 -8.5919 59.8272   6
  17  -7   0 -7.0101 44.7061  15
  17  -8   0 118.462 49.0794  15
   8  17   0 45.5104 56.3483  12
  17  -8   0 91.1318 49.8455   3
 -17   8   0 58.6316 52.9345   9
  -8 -17   0 31.1446 61.1669   6
   9  17   0 2.33222 57.6590  12
  17  -9   0 27.1255 49.5670   3
  -9 -17   0 -27.295 57.3449   6
  17  -9   0 72.4417 47.8952  15
 -17   9   0 -16.834 47.6498   9
 -10 -17   0 26.7628 65.4545   6
 -17  10   0 12.3904 47.6975   9
  17 -10   0 37.2918 49.4339   3
  10  17   0 81.6611 60.9895  12
  17 -10   0 13.1569 50.7546  15
  17 -11   0 262.779 58.7606  15
 -11 -17   0 163.785 65.0422   6
  17 -11   0 166.014 55.9348   3
 -17  11   0 259.863 57.1924   9
  11  17   0 112.395 63.2325  12
  12  17   0 9.24845 61.1530  12
 -12 -17   0 91.8819 65.0469   6
  17 -12   0 68.5598 53.8307   3
 -17  12   0 -65.028 50.0609   9
  17 -12   0 122.361 55.8458  15
 -17  13   0 130.673 55.5304   9
 -13 -17   0 1.72810 63.7355   6
  17 -13   0 45.6190 57.2587  15
  13  17   0 20.5229 64.2045  12
  17 -13   0 93.7142 58.3991   3
  17 -14   0 113.192 59.5847  15
 -17  14   0 25.9497 52.3148   9
  14  17   0 -130.05 59.3026  12
  17 -14   0 113.603 59.4331   3
 -14 -17   0 35.6123 65.7338   6
  17 -15   0 -112.68 56.3187  15
 -17  15   0 49.3723 54.2708   9
 -15 -17   0 -62.151 71.3447   6
  17 -15   0 -65.623 57.6885   3
  15  17   0 77.0006 68.3398  12
  18  14   0 102.725 71.7859  12
  14 -18   0 127.753 76.5110   3
 -18 -14   0 207.860 74.5374   6
  14 -18   0 291.366 71.4277  15
 -14  18   0 178.960 61.7538   9
  18  13   0 -7.8683 66.3427  12
 -18 -13   0 -0.5364 67.9862   6
 -13  18   0 56.8534 56.4558   9
  13 -18   0 46.9130 63.0387  15
  13 -18   0 39.8243 73.4303   3
  12 -18   0 100.891 65.8341  15
  12 -18   0 112.150 76.3308   3
 -18 -12   0 182.349 71.5132   6
  18  12   0 178.871 68.5385  12
 -12  18   0 100.722 58.7199   9
  11 -18   0 1.07063 62.4425  15
 -11  18   0 12.4674 58.4845   9
  18  11   0 43.0679 65.2133  12
  11 -18   0 -13.803 73.7769   3
 -18 -11   0 54.2754 71.0917   6
  18  10   0 47.5887 69.1714  12
  10 -18   0 -33.097 69.0577   3
  10 -18   0 61.3527 63.7146  15
 -10  18   0 95.2871 58.6778   9
 -18 -10   0 -56.787 66.8181   6
   9 -18   0 297.236 76.6860   3
  18   9   0 142.905 71.6838  12
   9 -18   0 202.055 68.3881  15
 -18  -9   0 307.739 72.9699   6
  -9  18   0 392.618 67.9333   9
 -18  -8   0 42.7583 62.0663   6
   8 -18   0 -24.773 61.8093  15
  -8  18   0 -43.294 52.8393   9
   8 -18   0 6.93805 65.3706   3
  18   8   0 80.9240 65.6092  12
  18   7   0 72.8103 65.3366  12
   7 -18   0 180.123 65.0088  15
   7 -18   0 118.478 65.6155   3
  -7  18   0 169.006 55.8071   9
 -18  -7   0 100.131 64.1816   6
 -18  -6   0 351.480 71.7197   6
   6 -18   0 347.954 69.4365  15
  -6  18   0 276.332 61.1479   9
  18   6   0 265.185 70.7259  12
   6 -18   0 268.996 68.7939   3
   5 -18   0 113.672 61.6567  15
  -5  18   0 37.0957 51.9740   9
 -18  -5   0 52.7393 63.5514   6
  18   5   0 163.786 64.6599  12
   5 -18   0 -36.527 58.9640   3
 -18  -4   0 -66.019 58.9891   6
  18   4   0 -39.229 59.8324  12
  -4  18   0 -23.785 49.8272   9
   4 -18   0 18.3850 60.1340   3
   4 -18   0 53.6073 57.3787  15
  18   3   0 582.687 77.4507  12
  -3  18   0 392.496 66.5062   9
 -18  -3   0 580.389 76.4215   6
   3 -18   0 513.602 71.4715  15
  18   2   0 392.842 67.1316  12
 -18  -2   0 344.260 67.9581   6
   2 -18   0 322.339 62.2499  15
  18   2   0 328.867 58.1141   3
  -2  18   0 377.078 59.8287   9
  18   1   0 106.666 41.8597  15
  18   1   0 141.452 57.2761  12
  18   1   0 101.770 49.5969   3
   1 -18   0 163.612 54.0123   6
 -18  -1   0 102.416 55.2329   9
 -18  -1   0 115.750 58.3907   6
  18   0   0 74.9687 41.8416  15
 -18   0   0 114.232 53.4607   9
   0 -18   0 71.0350 52.1418   6
   0  18   0 112.859 50.6771  12
  18   0   0 158.854 50.2753   3
  18  -1   0 96.7936 42.4187  15
  18  -1   0 164.474 53.8388   3
 -18   1   0 122.599 50.6240   9
   1  18   0 115.420 53.0493  12
  -1 -18   0 80.6461 55.1148   6
  18  -2   0 383.551 60.0854   3
 -18   2   0 249.229 60.5707   9
   2  18   0 350.939 61.4981  12
  -2 -18   0 332.313 65.9188   6
  18  -2   0 286.104 52.4133  15
  18  -3   0 434.701 68.7567   3
  -3 -18   0 430.899 72.1603   6
 -18   3   0 438.587 67.5435   9
  18  -3   0 538.867 60.9871  15
   3  18   0 492.073 65.9659  12
  18  -4   0 7.37232 42.0331  15
  -4 -18   0 -88.972 56.8281   6
  18  -4   0 -4.9196 49.4024   3
   4  18   0 67.4033 51.6665  12
 -18   4   0 -54.933 51.3862   9
   5  18   0 33.6794 55.8400  12
  18  -5   0 60.9114 45.4455  15
  -5 -18   0 34.6402 56.5950   6
  18  -5   0 36.6011 51.0820   3
 -18   5   0 71.3424 57.0056   9
   6  18   0 273.716 64.6208  12
  18  -6   0 222.407 52.8549  15
 -18   6   0 341.632 63.5318   9
  18  -6   0 266.824 60.8670   3
  -6 -18   0 199.552 66.2128   6
  -7 -18   0 238.611 64.4566   6
  18  -7   0 185.403 53.7544  15
   7  18   0 177.556 64.0256  12
  18  -7   0 94.7983 53.4423   3
 -18   7   0 179.655 59.0050   9
   8  18   0 4.50167 60.4236  12
  -8 -18   0 20.2006 59.9602   6
  18  -8   0 -28.371 49.0353   3
 -18   8   0 -31.786 54.3484   9
  18  -8   0 12.9563 48.6312  15
  18  -9   0 262.470 58.7737  15
  18  -9   0 298.899 62.4622   3
   9  18   0 156.701 66.2646  12
  -9 -18   0 148.539 66.9698   6
 -18   9   0 302.179 63.8793   9
 -10 -18   0 27.4753 62.7339   6
  18 -10   0 32.5504 50.7898  15
  18 -10   0 48.5260 53.3742   3
  10  18   0 17.8024 62.5941  12
 -18  10   0 24.6198 55.0029   9
 -11 -18   0 92.7569 66.2710   6
 -18  11   0 83.0376 54.1726   9
  11  18   0 -70.912 60.3517  12
  18 -11   0 47.6253 53.9247   3
  18 -11   0 43.7136 53.2560  15
 -12 -18   0 -31.457 71.1490   6
 -18  12   0 122.287 53.9836   9
  18 -12   0 125.902 57.6629  15
  18 -12   0 222.233 61.3179   3
  12  18   0 -7.8275 65.5592  12
  18 -13   0 71.7452 57.1694  15
 -13 -18   0 103.398 70.7854   6
  13  18   0 49.4857 64.8502  12
  18 -13   0 60.0919 56.6240   3
 -18  13   0 71.6169 54.0833   9
 -14 -18   0 266.015 79.3602   6
  18 -14   0 165.954 64.6796   3
  18 -14   0 132.433 62.1452  15
 -18  14   0 188.624 58.0950   9
  14  18   0 66.8049 72.4239  12
  19  13   0 11.6940 71.1590  12
  13 -19   0 83.1736 77.2224   3
 -19 -13   0 64.4492 75.8187   6
  13 -19   0 -11.855 65.6820  15
 -13  19   0 -99.694 55.7961   9
  12 -19   0 63.0771 66.7417  15
 -12  19   0 21.6680 59.5150   9
  19  12   0 48.9255 69.9122  12
  12 -19   0 -51.261 75.9321   3
 -19 -12   0 68.0269 75.1696   6
  19  11   0 37.4508 71.7010  12
  11 -19   0 126.162 70.6935  15
 -11  19   0 100.930 61.8911   9
 -19 -11   0 94.0957 75.2197   6
  11 -19   0 121.946 77.7420   3
 -10  19   0 209.281 65.2859   9
 -19 -10   0 54.8871 73.0614   6
  10 -19   0 207.509 71.5946  15
  10 -19   0 292.512 79.4867   3
  19  10   0 79.7101 74.6576  12
 -19  -9   0 240.392 72.9822   6
   9 -19   0 304.186 78.1618   3
  -9  19   0 152.102 64.8580   9
   9 -19   0 178.772 72.0872  15
  19   9   0 106.078 70.7857  12
  -8  19   0 160.197 62.8515   9
  19   8   0 167.937 67.9873  12
   8 -19   0 223.737 73.8873   3
   8 -19   0 159.526 68.2287  15
 -19  -8   0 212.302 71.1856   6
  -7  19   0 151.449 60.3182   9
 -19  -7   0 168.837 68.2933   6
  19   7   0 126.741 64.3119  12
   7 -19   0 83.3457 68.4175   3
   7 -19   0 152.460 64.5609  15
   6 -19   0 72.5013 66.6620   3
 -19  -6   0 117.649 67.5897   6
  -6  19   0 176.870 60.4620   9
  19   6   0 169.673 69.6304  12
   6 -19   0 74.2539 64.1903  15
  19   5   0 397.251 77.5669  12
 -19  -5   0 546.116 81.7173   6
  -5  19   0 390.249 68.8291   9
   5 -19   0 556.271 76.7886  15
   5 -19   0 490.879 88.4722   3
  -4  19   0 93.1144 55.5465   9
  19   4   0 36.2335 59.8511  12
 -19  -4   0 209.852 66.9111   6
   4 -19   0 63.4049 61.6373  15
  -3  19   0 0.60882 51.8921   9
  19   3   0 88.1409 59.7517  12
 -19  -3   0 43.0000 63.9567   6
   3 -19   0 -4.4288 56.2289  15
  -2  19   0 80.3553 53.6578   9
 -19  -2   0 54.1037 61.2875   6
  19   2   0 73.5180 86.4133   3
  19   2   0 97.3617 64.9315  12
  -1  19   0 135.228 68.5711   9
  19   1   0 330.889 60.0378   3
  19   0   0 -30.757 48.0028   3
   0 -19   0 -39.706 51.5968   6
 -19   0   0 50.8030 56.4434   9
  19   0   0 -57.002 40.8518  15
  19  -1   0 263.756 50.6773  15
 -19   1   0 268.674 59.5605   9
  -1 -19   0 236.196 61.3901   6
   1  19   0 196.048 57.6138  12
  19  -1   0 219.516 57.8446   3
  -2 -19   0 103.938 58.1815   6
  19  -2   0 53.9350 52.8482   3
  19  -2   0 21.1726 43.0601  15
   2  19   0 152.760 55.0250  12
 -19   2   0 103.719 56.6546   9
 -19   3   0 -54.938 53.2696   9
  19  -3   0 30.2056 43.9358  15
  -3 -19   0 19.1469 59.5707   6
  19  -3   0 -72.276 49.3325   3
   3  19   0 104.831 53.9200  12
  19  -4   0 57.3480 55.0060   3
   4  19   0 32.5101 52.6925  12
  19  -4   0 83.4744 47.2897  15
  -4 -19   0 7.30466 61.6438   6
 -19   4   0 30.2579 54.8692   9
 -19   5   0 346.247 69.6895   9
  19  -5   0 477.914 70.3225   3
  -5 -19   0 430.098 74.6639   6
   5  19   0 362.379 67.3573  12
  19  -5   0 371.354 60.6871  15
   6  19   0 137.939 60.2012  12
 -19   6   0 55.3338 59.2931   9
  19  -6   0 116.532 57.9412   3
  19  -6   0 189.582 51.7848  15
  -6 -19   0 114.158 64.7453   6
   7  19   0 100.427 61.5760  12
 -19   7   0 -18.583 57.5638   9
  19  -7   0 160.945 59.5151   3
  -7 -19   0 94.5926 62.4326   6
  19  -7   0 117.341 50.5846  15
 -19   8   0 170.220 61.1031   9
   8  19   0 179.031 66.8599  12
  -8 -19   0 153.804 67.8913   6
  19  -8   0 184.123 59.7392   3
  19  -8   0 30.8799 51.6262  15
 -19   9   0 160.226 63.2529   9
  19  -9   0 277.825 62.0696   3
  19  -9   0 126.147 57.6266  15
   9  19   0 164.544 65.5954  12
  -9 -19   0 258.636 75.5860   6
 -10 -19   0 219.708 74.6776   6
 -19  10   0 111.526 60.8503   9
  10  19   0 136.937 67.4490  12
  19 -10   0 151.910 58.5440   3
  19 -10   0 162.601 57.5107  15
 -11 -19   0 157.194 74.2512   6
 -19  11   0 102.191 58.1018   9
  19 -11   0 99.3532 58.4186   3
  19 -11   0 145.480 58.5315  15
  11  19   0 40.7672 65.3588  12
  12  19   0 14.3966 67.0554  12
  19 -12   0 85.5764 57.6102   3
 -19  12   0 -0.1776 56.7671   9
  19 -12   0 58.1948 58.2293  15
 -12 -19   0 106.437 71.4832   6
 -19  13   0 77.6868 56.2816   9
  19 -13   0 29.3534 58.4796   3
  19 -13   0 -12.151 55.2757  15
 -13 -19   0 -7.0178 74.3060   6
  13  19   0 115.993 74.2902  12
  11 -20   0 84.3125 80.7970   3
  20  11   0 55.6043 75.6856  12
 -11  20   0 -30.019 62.7731   9
 -20 -11   0 -5.9498 70.1984   6
  11 -20   0 101.778 72.8510  15
  10 -20   0 24.9745 77.6900   3
  20  10   0 11.9194 71.3596  12
  10 -20   0 52.7558 67.9312  15
 -20 -10   0 7.35143 67.8515   6
 -10  20   0 -21.547 61.3529   9
  20   9   0 -50.237 72.2478  12
 -20  -9   0 129.628 72.9665   6
   9 -20   0 132.504 78.0289   3
  -9  20   0 3.02191 61.3989   9
   9 -20   0 94.6317 70.6457  15
 -20  -8   0 63.1729 68.3388   6
  -8  20   0 3.28297 61.2450   9
  20   8   0 55.8111 72.3030  12
   8 -20   0 25.8785 74.4966   3
   8 -20   0 8.86849 69.2571  15
   7 -20   0 118.979 67.5676  15
  -7  20   0 90.4514 61.1819   9
   7 -20   0 4.91160 71.4375   3
  20   7   0 -2.6914 64.3178  12
 -20  -7   0 112.729 69.5166   6
  -6  20   0 -25.592 57.2246   9
   6 -20   0 -73.934 65.1439  15
 -20  -6   0 67.9468 69.7079   6
  20   6   0 10.1035 69.2661  12
  -5  20   0 97.9560 58.3625   9
   5 -20   0 137.610 65.1999  15
  20   5   0 77.3678 65.1928  12
 -20  -5   0 252.673 72.2372   6
 -20  -4   0 155.961 69.1082   6
   4 -20   0 19.9713 67.4034  15
  20   4   0 36.6208 66.9389  12
  -4  20   0 58.1667 55.2738   9
  20   3   0 -23.601 88.2509  12
  -3  20   0 46.5733 56.1558   9
  20   1   0 37.9994 60.4688   3
  20   0   0 444.224 69.2753   3
  20  -1   0 57.8193 45.7702  15
  20  -1   0 -41.239 52.6194   3
  -1 -20   0 -10.210 56.5676   6
 -20   1   0 -16.287 65.4403   9
   2  20   0 -22.841 53.7000  12
 -20   2   0 72.7798 56.9269   9
  -2 -20   0 -70.560 57.5096   6
  20  -2   0 60.4332 47.1189  15
  20  -2   0 0.27542 53.4878   3
  20  -3   0 66.5306 56.5821   3
 -20   3   0 -0.7324 55.9357   9
  -3 -20   0 27.0898 61.0115   6
   3  20   0 95.2488 59.2967  12
  20  -3   0 105.963 48.7512  15
 -20   4   0 181.243 63.2312   9
  20  -4   0 86.4240 48.9953  15
  -4 -20   0 41.4563 65.3060   6
  20  -4   0 39.3301 56.7263   3
   4  20   0 48.2550 55.3388  12
  20  -5   0 100.134 59.6929   3
 -20   5   0 199.357 63.1952   9
  20  -5   0 69.0691 49.7214  15
  -5 -20   0 167.288 69.3284   6
   5  20   0 222.796 63.1066  12
  20  -6   0 21.7761 57.9353   3
  -6 -20   0 197.477 70.6504   6
   6  20   0 -65.356 58.8980  12
  20  -6   0 41.8611 51.4457  15
 -20   6   0 -5.6130 59.0041   9
   7  20   0 -19.332 61.8892  12
 -20   7   0 70.4510 61.4976   9
  20  -7   0 -4.1184 58.0479   3
  -7 -20   0 97.4554 68.0089   6
  20  -7   0 36.2484 50.2558  15
  -8 -20   0 79.7583 71.0887   6
   8  20   0 -21.666 63.0418  12
 -20   8   0 45.2660 61.6817   9
  20  -8   0 98.7300 52.6663  15
  20  -8   0 61.4760 59.5608   3
 -20   9   0 -54.456 60.0760   9
   9  20   0 64.1250 70.5032  12
  20  -9   0 -51.128 55.4581   3
  -9 -20   0 98.0013 68.1842   6
  20  -9   0 139.227 56.1580  15
  10  20   0 77.7765 70.3549  12
  20 -10   0 9.07139 56.1743  15
  20 -10   0 95.9667 60.7532   3
 -20  10   0 139.619 64.0324   9
 -10 -20   0 75.0260 74.6891   6
 -20  11   0 75.0974 63.2867   9
  20 -11   0 137.932 60.2527  15
  11  20   0 135.421 75.1712  12
 -11 -20   0 65.1432 75.2323   6
  20 -11   0 67.9297 60.9156   3
  21  10   0 38.7679 79.5066  12
  10 -21   0 -32.399 72.2873  15
   9 -21   0 198.208 86.4842   3
   9 -21   0 189.231 77.3670  15
 -21  -9   0 262.761 77.3803   6
  21   9   0 38.8333 73.5271  12
  -9  21   0 104.586 69.1504   9
   8 -21   0 147.152 72.7556  15
 -21  -8   0 77.1075 68.9872   6
  21   8   0 32.8948 75.4687  12
  -8  21   0 66.2355 64.8614   9
   7 -21   0 79.4473 70.4026  15
  21   7   0 -76.193 69.4875  12
 -21  -7   0 -23.286 68.0495   6
  -7  21   0 -82.791 62.3283   9
  21   6   0 11.5326 69.7299  12
   6 -21   0 -66.913 67.9173  15
 -21  -6   0 26.9351 68.6648   6
  -6  21   0 -21.034 62.1642   9
  21   5   0 9.42890 70.0473  12
  -5  21   0 -78.413 59.1471   9
 -21  -5   0 -9.9100 69.5349   6
  -4  21   0 53.4631 60.4115   9
  21   0   0 77.9474 58.1339   3
  21  -1   0 112.530 59.4504   3
  -2 -21   0 87.4451 62.9833   6
  21  -2   0 55.4250 49.2786  15
 -21   2   0 28.5789 90.4711   9
  21  -2   0 98.6273 60.1405   3
  21  -3   0 108.843 51.2009  15
  21  -3   0 -8.2001 59.0118   3
   3  21   0 118.677 63.5329  12
 -21   3   0 145.047 60.1451   9
  -3 -21   0 105.357 63.7443   6
  21  -4   0 117.815 51.9179  15
 -21   4   0 -16.637 61.0009   9
  21  -4   0 147.833 63.0382   3
  -4 -21   0 99.0276 66.7752   6
   4  21   0 114.195 62.3904  12
  21  -5   0 41.8364 49.4954  15
   5  21   0 59.0154 60.3536  12
  21  -5   0 62.0371 61.0444   3
 -21   5   0 -3.0901 59.7867   9
  -5 -21   0 2.94326 69.0742   6
 -21   6   0 -8.4943 63.1129   9
  21  -6   0 9.03624 52.5092  15
   6  21   0 50.4000 64.5944  12
  -6 -21   0 -54.235 65.8749   6
  21  -6   0 79.5836 62.5679   3
  -7 -21   0 115.827 73.1588   6
  21  -7   0 14.0531 54.3148  15
 -21   7   0 -28.736 60.8779   9
  21  -7   0 19.3770 61.9706   3
   7  21   0 35.4256 61.9397  12
  -8 -21   0 -52.228 69.2396   6
  21  -8   0 84.1256 55.1436  15
   8  21   0 60.6844 67.9222  12
 -21   8   0 32.7709 64.1047   9
  21  -8   0 15.0111 61.2799   3
  21  -9   0 159.775 58.7927  15
  -9 -21   0 197.931 71.7719   6
 -21   9   0 258.274 69.5823   9
   9  21   0 23.7040 69.5196  12
  21  -9   0 131.783 63.9882   3
  10  21   0 86.0589 75.4752  12
   7 -22   0 147.441 106.824  15
 -22  -7   0 174.759 72.3460   6
  -7  22   0 92.9977 68.3594   9
  22   7   0 71.7267 77.6667  12
  -6  22   0 -22.453 65.0587   9
  22   6   0 230.788 96.1060  12
  22  -1   0 154.950 64.0507   3
  22  -2   0 114.243 63.2496   3
  22  -3   0 87.1587 62.1905   3
  -3 -22   0 73.6597 66.2436   6
  22  -3   0 58.7791 56.7697  15
  -4 -22   0 -0.7812 66.7068   6
  22  -4   0 -20.784 61.5637   3
  22  -4   0 58.9762 53.5305  15
   4  22   0 63.6545 71.7063  12
 -22   4   0 97.7974 63.4448   9
  -5 -22   0 217.482 74.7660   6
  22  -5   0 142.443 66.1504   3
 -22   6   0 35.9427 64.3442   9
  22  -6   0 -3.0392 52.2487  15
   6  22   0 6.85303 66.6669  12
  -6 -22   0 -72.886 66.6578   6
  22  -6   0 106.813 64.9870   3
  22  -7   0 10.2414 52.6638  15
  22  -7   0 74.3048 67.3260   3
   7  22   0 73.6065 68.1756  12
  -7 -22   0 -122.66 70.9281   6
 -22   7   0 73.1074 64.7962   9
  23  -2   0 29.7584 63.0893   3
  23  -3   0 86.4887 66.2421   3
   0   0  -1 2870.22 205.317  12
   0   0  -1 3353.02 205.091   2
   0   0  -1 3297.37 206.155   5
   0   0  -1 3219.00 205.609   3
   0   0  -1 3302.29 205.287  15
   0   0  -1 3290.90 205.465   8
   0   0  -1 3309.01 205.153  14
   0   0  -1 3302.25 205.253  11
   0   0   1 3263.66 204.938   2
   0   0   1 3132.92 206.016   5
   0   0   1 3282.50 205.167  11
   0   0   1 3296.09 205.821   8
   0   0   1 3412.88 205.373  14
   1   0  -1 553.969 45.3491   2
  -1   0  -1 553.940 43.6549   9
   0   1  -1 564.566 46.6130   8
   0   1  -1 609.227 45.0722   2
   0   1  -1 634.981 46.2973  14
   0  -1  -1 556.329 45.1411  14
   0   1  -1 528.415 43.8825  12
  -1   0  -1 612.670 47.2821  11
   1   0  -1 627.351 45.8688  14
   0  -1  -1 575.999 46.1338   8
  -1   0  -1 633.414 47.2649   8
   0  -1  -1 505.462 45.1999   6
  -1   0  -1 542.353 44.7356  12
   1   0  -1 605.699 48.0384   5
   0   1  -1 577.413 44.3833   3
   1   0  -1 523.234 44.4891   6
   1   0  -1 645.823 44.6569   3
   0  -1  -1 588.760 44.0323   9
   0   1  -1 597.526 43.6106  15
  -1   0  -1 578.425 48.1075   5
   1   0  -1 642.760 46.7831  11
   1   0  -1 598.602 43.2968  15
   0   1  -1 616.066 46.2071  11
   0  -1  -1 615.606 46.4919   2
   1   0  -1 570.959 46.0864   8
  -1   0  -1 611.031 45.2202  14
  -1   0  -1 574.114 46.0344   2
   0  -1  -1 600.728 47.7252  11
   0  -1  -1 566.936 47.4122   5
   0   1  -1 547.493 48.0785   5
   0  -1   1 609.986 48.2321   5
   1   0   1 587.793 45.0830  14
   1   0   1 590.362 45.9441   8
   0  -1   1 593.199 46.0436   2
   0   1   1 597.995 46.9452   8
  -1   0   1 629.701 46.1381   2
  -1   0   1 587.300 46.6524  11
   0  -1   1 520.479 46.7752   8
   0   1   1 578.793 46.6054  11
   0  -1   1 541.930 46.6025  11
   1   0   1 572.702 46.2963   2
  -1   0   1 599.698 48.6532   5
   1   0   1 607.427 47.6201   5
   0  -1   1 586.120 46.4893  14
  -1   0   1 594.547 46.8802   8
   0   1   1 586.932 44.8131  14
   0   1   1 586.537 45.1539   2
   1   0   1 573.824 46.6589  11
  -1   0   1 594.323 45.0758  14
   0   1   1 565.561 48.0278   5
   1  -1  -1 747.680 58.0852   6
   1  -1  -1 832.205 57.2454  14
  -1   1  -1 770.059 54.3309   9
   1   1  -1 765.478 55.6138  12
   1  -1  -1 776.617 56.8047   2
  -1   1  -1 778.032 55.9526   3
  -1  -1  -1 757.817 55.0028  12
   1   1  -1 777.709 58.1847  11
  -1  -1  -1 791.256 58.7155   5
  -1  -1  -1 804.812 58.5604  11
   1   1  -1 782.671 56.0846   3
  -1  -1  -1 721.019 55.7535   6
   1  -1  -1 751.673 58.8434   5
   1   1  -1 777.297 56.5492   8
   1   1  -1 826.019 57.0785  14
  -1  -1  -1 822.969 57.0585   2
  -1   1  -1 792.822 56.2807  12
  -1  -1  -1 838.697 56.0377   9
   1  -1  -1 785.935 55.2130   3
   1   1  -1 774.898 56.5596   2
  -1  -1  -1 790.649 57.6593   8
  -1   1  -1 821.133 59.4440   5
   1  -1  -1 860.795 55.2053   9
  -1   1  -1 793.062 57.3160  11
  -1  -1  -1 810.789 57.1810  14
   1   1  -1 798.884 55.7001  15
  -1   1  -1 777.715 57.5470   8
   1  -1  -1 806.573 57.1790   8
   1  -1  -1 810.599 54.5172  15
   1  -1  -1 807.665 57.4197  11
  -1   1  -1 800.161 54.7676  15
  -1   1  -1 758.127 56.8768   2
   1   1  -1 682.618 56.4367   6
  -1   1   1 819.502 55.8343  14
  -1  -1   1 745.022 58.5715   8
   1  -1   1 778.889 57.4365   2
  -1  -1   1 768.695 58.3188  11
  -1   1   1 743.809 58.8836   5
  -1  -1   1 736.537 59.6510   5
  -1   1   1 744.534 58.1175   8
   1  -1   1 794.122 56.6716  14
   1   1   1 822.946 56.6891  14
  -1   1   1 814.690 57.4812  11
  -1  -1   1 775.309 57.9855   2
   1  -1   1 735.541 57.8743   8
   1   1   1 801.496 56.5954   2
   1   1   1 747.565 58.6585   5
   1   1   1 795.229 57.8147  11
   1   1   1 801.461 57.7702   8
   1  -1   1 838.759 58.4058   5
  -1   1   1 822.842 56.4206   2
   1  -1   1 804.184 56.7714  11
  -1  -1   1 816.826 56.3746  14
  -2  -1  -1 2267.94 145.999   6
  -2  -1  -1 2308.14 146.414   9
   2   1  -1 2374.88 147.055   8
   1  -2  -1 2414.43 147.186  11
  -1   2  -1 2323.23 146.785   3
  -2  -1  -1 2288.61 146.955  14
   2   1  -1 2241.96 145.854  12
   1  -2  -1 2560.70 146.578   9
  -2  -1  -1 2239.28 147.495   8
   2   1  -1 2226.44 147.439  11
  -1   2  -1 2275.73 146.489  11
   2   1  -1 2346.62 147.219   3
   2   1  -1 2296.69 146.522  15
  -1   2  -1 2272.48 147.057  12
   1  -2  -1 2409.23 147.220  14
   1  -2  -1 2250.59 147.842   5
   2   1  -1 2294.46 146.263   2
  -2  -1  -1 2350.47 146.787   2
  -2  -1  -1 2196.08 146.479  12
  -1   2  -1 2396.99 147.015   2
  -1   2  -1 2397.62 145.683   9
   1  -2  -1 2274.07 145.474   3
  -1   2  -1 2376.26 147.855   5
   1  -2  -1 2317.39 145.420  15
   2   1  -1 2307.44 146.559  14
  -2  -1  -1 2140.79 147.928   5
  -1   2  -1 2266.95 147.292   8
   1  -2  -1 2086.68 147.683   6
   1  -2   1 2270.60 146.728  11
  -1   2   1 2242.24 146.640  11
  -2  -1   1 2331.11 147.333   8
   2   1   1 2422.42 148.736   5
   1  -2   1 2210.11 147.533   8
   2   1   1 2302.33 147.001  11
   2   1   1 2210.45 146.099   2
  -1   2   1 2220.75 146.525   2
  -2  -1   1 2258.24 147.502  11
  -2  -1   1 2252.64 146.319  14
  -1   2   1 2270.83 146.548  14
   1  -2   1 2279.42 147.208   5
   2   1   1 2479.85 146.791  14
   1  -2   1 2377.56 147.068  14
  -1   2   1 2251.78 147.465   8
   1  -2   1 2364.51 147.759   2
   2   1   1 2321.36 147.150   8
  -2  -1   1 2357.43 146.550   2
  -2  -1   1 2191.97 148.123   5
  -1   2   1 2073.66 147.434   5
   2   0  -1 354.796 35.2872  14
   0   2  -1 387.162 34.6829  12
   0   2  -1 293.329 30.6015   2
   0  -2  -1 333.987 32.6745   5
   2   0  -1 310.947 31.2963  11
   0  -2  -1 374.557 33.1049   6
  -2   0  -1 398.181 31.6481   2
   0   2  -1 414.342 36.5170   3
  -2   0  -1 344.992 36.2272   8
   0  -2  -1 365.547 36.3794   8
  -2   0  -1 382.532 31.8321  11
   2   0  -1 361.147 34.9025   2
   0  -2  -1 339.441 34.8228  14
   0   2  -1 342.656 31.1053   8
   0   2  -1 367.556 34.7869  15
   0   2  -1 369.704 31.9653  11
   0  -2  -1 360.684 35.5587   9
   2   0  -1 337.312 34.1062   3
   2   0  -1 342.283 33.4390  15
  -2   0  -1 391.481 33.8967   9
  -2   0  -1 351.987 31.6430  12
   2   0  -1 375.264 33.6080   6
  -2   0  -1 356.966 32.2251   5
   0   2   1 327.257 30.9368  11
   0   2   1 378.431 30.6576   2
   0   2   1 374.295 32.3849   8
   2   0   1 421.288 38.7434   5
  -2   0   1 402.812 32.6128   8
   0   2   1 302.391 33.2207   5
  -2   0   1 293.679 33.3328   5
   0  -2   1 397.115 33.1308   5
   0  -2   1 356.654 31.8544  14
   2   0   1 424.590 31.4192   2
  -2   0   1 325.282 33.8109  14
   0  -2   1 361.228 31.6834  11
  -2   0   1 356.041 31.3609  11
  -2   0   1 361.104 31.2104   2
   0  -2   1 356.361 32.3590   8
   0  -2   1 394.431 32.2165   2
   2   0   1 368.671 36.7129   8
   2   0   1 359.440 30.9485  11
   2   0   1 430.820 32.3262  14
   0   2   1 333.592 32.7181  14
   2  -1  -1 2345.42 146.019  15
   1   2  -1 2265.86 146.420   2
   2  -1  -1 2052.28 147.356   6
  -2   1  -1 2329.13 146.685   2
  -1  -2  -1 2254.50 147.066   8
  -2   1  -1 2360.84 146.877  12
   1   2  -1 2330.77 146.907   8
   2  -1  -1 2324.88 147.049  14
  -2   1  -1 2353.23 147.576   8
   2  -1  -1 2355.98 146.356   3
  -2   1  -1 2404.65 146.968  11
  -1  -2  -1 2356.20 146.668   2
  -1  -2  -1 2216.53 146.774   6
   1   2  -1 2325.00 146.468  15
  -1  -2  -1 2121.06 147.954   5
  -2   1  -1 2350.12 146.112   9
  -1  -2  -1 2327.10 147.043  14
  -2   1  -1 2373.35 147.590   5
   2  -1  -1 2325.65 147.682   5
   1   2  -1 2220.76 146.297  14
   1   2  -1 2175.41 147.190  11
   2  -1  -1 2344.24 146.688  11
   1   2  -1 2279.93 146.492  12
   1   2  -1 2238.98 146.933   3
  -1  -2  -1 2353.03 146.590   9
  -1  -2   1 2355.82 147.885  11
  -2   1   1 2291.17 146.494   2
   1   2   1 2314.49 147.184   8
  -1  -2   1 2332.34 146.746  14
   2  -1   1 2366.33 147.450   5
  -1  -2   1 2317.55 146.862   2
  -2   1   1 2179.28 146.484  11
  -2   1   1 2254.38 146.413  14
   2  -1   1 2260.90 146.981   2
  -1  -2   1 2288.66 148.130   5
   2  -1   1 2326.24 146.790  11
   1   2   1 2367.31 146.108  14
   1   2   1 2281.05 147.007  11
   1   2   1 2320.23 148.794   5
   2  -1   1 2278.55 147.689   8
  -2   1   1 2155.15 147.852   5
   1   2   1 2239.35 145.947   2
  -1  -2   1 2286.77 146.966   8
   2  -1   1 2325.16 147.259  14
  -2   1   1 2325.78 147.574   8
   2   2  -1 9606.46 593.798  12
  -2  -2  -1 9412.99 593.801   6
   2  -2  -1 9999.99 593.379  11
   2   2  -1 9442.64 593.923  11
  -2   2  -1 9856.38 594.537   8
   2   2  -1 9337.48 593.922   3
   2  -2  -1 9705.28 593.485   3
  -2   2  -1 9679.93 593.781   2
   2   2  -1 9455.93 593.419  14
   2   2  -1 9058.67 592.886   2
  -2   2  -1 9575.51 593.150  11
  -2  -2  -1 9452.60 593.774   8
  -2   2  -1 9947.95 593.900   5
  -2  -2  -1 8995.99 594.528   5
  -2  -2  -1 9551.44 593.809   9
   2  -2  -1 9479.64 593.157  15
  -2   2  -1 9771.59 593.466   9
  -2  -2  -1 9675.73 593.473   2
   2   2  -1 9414.60 593.621  15
   2  -2  -1 9786.85 594.048  14
   2  -2  -1 9519.26 594.478   6
  -2   2  -1 9931.14 594.233  12
  -2  -2  -1 9486.79 593.474  14
   2   2  -1 9503.63 593.415   8
   2  -2  -1 9366.19 594.013   5
   2   2   1 9403.66 593.185   2
  -2  -2   1 9761.38 593.502  14
  -2   2   1 8945.13 593.937   5
  -2  -2   1 9524.26 593.227   2
   2  -2   1 9636.29 593.728   5
   2  -2   1 9748.01 593.292  11
  -2   2   1 9202.25 593.059  11
  -2  -2   1 9637.13 593.693   8
   2   2   1 9588.61 593.799   8
   2   2   1 9700.31 593.328  14
  -2   3  -1 230.574 25.9925   9
  -3  -2  -1 250.464 24.9113   2
  -2   3  -1 202.130 23.0777  11
   2  -3  -1 178.878 27.9393   6
   2  -3  -1 142.369 25.8005   5
   3   2  -1 237.459 29.0160  11
  -3  -2  -1 221.287 26.5078   9
  -3  -2  -1 229.374 25.5631   6
  -3  -2  -1 214.886 29.0375   5
  -2   3  -1 236.074 25.6201   5
   2  -3  -1 196.140 24.6992  11
   3   2  -1 195.135 24.7666  12
   3   2  -1 214.365 24.1037  14
   2  -3  -1 209.517 24.3286   3
   3   2  -1 178.729 27.0577   3
  -3  -2  -1 239.091 25.6890  14
  -2   3  -1 241.035 26.7935   8
  -2   3  -1 220.394 25.1952  12
   3   2  -1 211.312 24.2391   8
   2  -3  -1 230.382 24.2742  15
   2  -3  -1 223.720 26.5130  14
   3   2  -1 281.496 27.3025  15
  -2   3  -1 212.163 25.6287   2
   3   2  -1 192.576 23.2093   2
  -3  -2  -1 214.790 25.8172   8
   3   2   1 215.408 23.7344  14
  -3  -2   1 200.339 25.7076   2
   3   2   1 197.324 22.8101   2
  -2   3   1 233.813 27.5877   5
  -2   3   1 184.100 23.5126  11
   2  -3   1 284.184 24.8488  11
   2  -3   1 254.359 25.1497   5
  -3  -2   1 187.137 25.2574   8
   3   2   1 201.345 24.6756   8
  -3  -2   1 196.339 23.5296  14
  -3  -1  -1 119.076 20.8855   8
   3   1  -1 113.717 19.6292  14
   3   1  -1 131.875 22.4267   3
  -1   3  -1 109.740 21.4174   8
   3   1  -1 62.4381 18.3372  12
   1  -3  -1 107.089 18.0482   3
  -3  -1  -1 138.985 22.9497   5
  -1   3  -1 87.4258 20.7394   2
  -3  -1  -1 102.482 20.6186   2
  -1   3  -1 129.332 23.5223  12
   1  -3  -1 58.2220 21.5173   5
   1  -3  -1 82.1900 20.3805  14
  -3  -1  -1 109.571 20.1593   6
   1  -3  -1 101.881 17.1291  15
   3   1  -1 115.903 19.5112   2
  -3  -1  -1 106.933 21.8334   9
  -1   3  -1 87.7876 19.8976  11
   3   1  -1 95.8017 21.0843  15
   3   1  -1 81.6879 22.9221  11
  -1   3  -1 89.5671 18.7681   9
   1  -3  -1 74.3198 24.3820   6
  -3  -1   1 73.9075 18.6526  14
  -3  -1   1 117.496 20.9994   2
   1  -3   1 139.356 21.5425  11
   1  -3   1 109.539 21.3919   5
  -3  -1   1 70.4773 21.2839   8
   3   1   1 79.8975 19.6806  14
  -1   3   1 126.635 23.8835   5
  -1   3   1 91.6430 20.2594  11
   3   1   1 116.336 20.7121   8
   3   1   1 84.1793 19.3905   2
   0   3  -1 185.935 23.4668   2
  -3   0  -1 187.235 25.9119  12
   3   0  -1 148.657 24.2367  11
   0   3  -1 221.188 26.4231   3
   0   3  -1 223.673 25.2453  15
   3   0  -1 229.376 24.2652  14
  -3   0  -1 248.056 25.4285   9
   0  -3  -1 170.090 25.9983   5
   0   3  -1 204.165 23.7783   8
   3   0  -1 134.686 27.0655   6
  -3   0  -1 183.069 25.4294   5
  -3   0  -1 230.306 25.1999   8
   0   3  -1 177.133 24.6349  11
   3   0  -1 206.443 25.0342   3
  -3   0  -1 263.550 24.5588   2
   0  -3  -1 154.781 26.3884   6
   0   3  -1 190.704 24.9615  12
   3   0  -1 208.628 23.9687  15
   0  -3  -1 212.522 25.3802   9
   0  -3  -1 164.918 23.5831  14
   0   3   1 200.347 22.4551  14
   3   0   1 187.098 25.0540   8
   0  -3   1 200.672 24.7522  14
  -3   0   1 181.563 25.1503  11
  -3   0   1 138.162 26.3925   5
   3   0   1 231.350 24.6063  14
   3   0   1 218.137 26.2407   5
   0   3   1 170.611 28.0380   5
  -3   0   1 181.497 23.6306   2
   3   0   1 179.429 22.9036  11
  -3   0   1 164.695 25.1206   8
  -3   0   1 186.239 23.3236  14
   0  -3   1 186.480 24.9786   8
   0   3   1 142.156 23.4244  11
   3   0   1 188.293 23.5281   2
   0   3   1 209.482 25.5291   8
   0  -3   1 187.433 25.7580  11
  -1  -3  -1 96.0638 23.3277   6
   1   3  -1 115.177 23.4305  11
  -3   1  -1 108.459 20.4424  11
   1   3  -1 93.7371 23.1053  12
   1   3  -1 145.107 22.7361  15
   3  -1  -1 71.0072 20.2057  11
   1   3  -1 138.628 21.0364   8
  -3   1  -1 143.140 22.8673   8
   3  -1  -1 155.643 21.0857  15
  -1  -3  -1 127.080 23.2633   9
  -1  -3  -1 131.884 21.0811  14
   3  -1  -1 108.004 25.1132   6
  -1  -3  -1 72.7512 23.7221   5
  -3   1  -1 97.4514 21.9309  12
  -3   1  -1 98.6971 20.4894   2
  -3   1  -1 112.561 21.7022   5
   3  -1  -1 102.066 21.8514   3
  -1  -3  -1 80.4982 21.0552   8
   1   3  -1 91.7244 22.8180   3
   3  -1  -1 122.543 21.5518  14
  -3   1  -1 157.064 22.1764   9
   1   3  -1 101.344 20.9159   2
  -1  -3   1 88.4823 21.0238  14
   3  -1   1 160.357 22.9639   2
   1   3   1 103.180 20.4008   8
   3  -1   1 85.8295 20.6794   5
  -3   1   1 94.3455 23.6817   5
   1   3   1 82.3545 17.9333  14
  -1  -3   1 121.979 24.0673   2
  -3   1   1 82.1224 20.1343   2
   3  -1   1 93.8004 19.4132  11
  -1  -3   1 107.130 21.2863   8
  -3   1   1 100.057 20.6265  11
   1   3   1 93.7646 18.5941   2
  -3   2  -1 200.187 23.6877  11
   2   3  -1 206.874 24.3143  14
   2   3  -1 244.779 25.9682  15
  -3   2  -1 275.269 27.6454   9
  -3   2  -1 256.137 26.5247  12
   3  -2  -1 174.258 25.5423   3
   2   3  -1 217.523 27.3865   3
  -3   2  -1 259.999 27.6493   8
   2   3  -1 179.743 23.4900   2
  -2  -3  -1 194.298 24.4468  14
  -2  -3  -1 260.805 29.1043   6
  -3   2  -1 194.728 24.9151   2
  -2  -3  -1 248.872 27.4639   9
   3  -2  -1 233.228 27.0223  14
   2   3  -1 230.122 28.3859  11
  -2  -3  -1 230.933 28.9634   5
   2   3  -1 251.503 24.8491   8
  -2  -3  -1 213.521 25.3572   8
   2   3  -1 232.228 26.6391  12
   3  -2  -1 147.822 25.3894   5
  -3   2  -1 212.426 25.8699   5
   3  -2  -1 185.825 27.6721   6
   3  -2  -1 200.193 24.7201  15
   3  -2  -1 156.881 24.4419  11
  -2  -3   1 173.033 24.0940  14
   2   3   1 203.925 22.6497  14
  -2  -3   1 212.584 26.5063   2
   2   3   1 241.930 25.9118   8
  -2  -3   1 178.832 24.5687   8
   3  -2   1 249.460 23.2460  11
   3  -2   1 249.767 24.4745   5
  -3   2   1 206.250 23.6805  11
   2   3   1 224.264 22.7151   2
  -3   2   1 191.417 27.0487   5
   3  -3  -1 938.151 71.7830   3
  -3  -3  -1 1079.28 71.7199   8
   3  -3  -1 873.444 70.1471  15
  -3  -3  -1 1198.89 76.9314   5
   3   3  -1 1063.65 71.7800  12
   3   3  -1 1052.72 71.7114  15
   3  -3  -1 974.426 73.2649  14
   3  -3  -1 894.148 73.4104   6
   3   3  -1 1081.56 72.5224   3
   3  -3  -1 1015.75 71.0573  11
  -3  -3  -1 1105.61 72.5299   9
   3  -3  -1 910.126 72.2000   5
  -3   3  -1 944.240 71.3594   9
  -3   3  -1 1024.30 71.4465   5
  -3   3  -1 943.394 69.8244  11
  -3  -3  -1 1057.60 70.6205  14
   3   3  -1 1086.23 69.9612  14
   3   3  -1 1126.40 70.6165   8
  -3  -3  -1 1049.83 73.4328   6
  -3   3  -1 939.313 71.7766  12
   3   3  -1 1059.35 69.5675   2
  -3  -3  -1 1141.00 71.0074   2
   3  -3   1 1136.50 70.2579  11
  -3  -3   1 958.951 71.4966   2
   3   3   1 924.883 69.6293  14
   3   3   1 891.263 70.7476   8
   3  -3   1 1231.34 70.8560   5
  -3  -3   1 913.072 71.1199   8
  -3   3   1 1112.90 69.9515  11
  -3  -3   1 897.025 69.7193  14
   3   3   1 907.684 69.3901   2
  -3   3   1 1160.56 72.9564   5
   4   3  -1 131.956 23.6922  15
   4   3  -1 134.447 24.9777   3
   4   3  -1 103.596 19.5695  14
   4   3  -1 85.6486 18.9495   2
   3  -4  -1 76.8718 21.9956   5
  -3   4  -1 178.837 25.3219  12
  -3   4  -1 97.2496 18.0940  11
   3  -4  -1 133.293 22.8938  15
   4   3  -1 92.9565 23.7706  12
  -4  -3  -1 76.3307 21.2904   8
   3  -4  -1 103.853 26.1508   6
  -4  -3  -1 125.083 20.5341   2
  -4  -3  -1 79.7696 23.8313   9
  -4  -3  -1 104.121 26.1551   6
  -3   4  -1 108.675 22.3637   9
   3  -4  -1 86.1622 23.3232   3
   3  -4   1 96.3417 19.1628   5
  -4  -3   1 94.0378 19.3752  14
  -4  -3   1 131.649 21.6357   8
  -4  -3   1 104.766 21.4160   2
  -3   4   1 66.4661 19.4527  11
   4   3   1 93.1710 20.3584   8
  -3   4   1 87.5803 23.3577   5
   3  -4   1 122.744 19.2673  11
   4   3   1 79.7212 18.4659  14
   4   3   1 120.560 18.2908   2
   2  -4  -1 3388.81 239.789   6
  -4  -2  -1 3921.45 240.812   5
   4   2  -1 3751.86 239.365   3
  -4  -2  -1 3808.77 238.719   6
   2  -4  -1 3766.54 237.958  15
  -2   4  -1 3717.33 238.012   9
   2  -4  -1 3871.70 239.543  14
  -4  -2  -1 3627.29 238.713   9
  -2   4  -1 3944.83 239.297  12
  -4  -2  -1 3900.08 238.048   2
  -2   4  -1 3663.88 237.502  11
  -4  -2  -1 3921.83 238.844   8
   2  -4  -1 3589.92 238.540   5
   4   2  -1 3595.74 238.032  12
   4   2  -1 3884.61 238.841  15
   2  -4  -1 3751.79 238.203   3
   4   2  -1 3795.90 237.144   2
   4   2  -1 3810.59 237.975  14
  -4  -2   1 3911.11 237.769   2
  -4  -2   1 3830.25 238.528   8
   4   2   1 3923.38 237.878  14
  -4  -2   1 3762.88 237.749  14
   2  -4   1 3919.09 238.183  11
  -2   4   1 3705.15 237.662  11
  -2   4   1 3735.64 239.118   5
   4   2   1 3825.40 237.421   2
   4   2   1 3751.56 238.353   8
   2  -4   1 3815.22 238.242   5
  -4  -1  -1 515.519 49.0715   5
   1  -4  -1 526.586 43.0428   3
   4   1  -1 507.921 45.6002  14
   4   1  -1 494.005 44.3556  12
   1  -4  -1 530.681 42.1248  15
  -4  -1  -1 593.294 47.1529   9
  -1   4  -1 559.966 46.1912  12
   4   1  -1 588.593 45.8471  15
  -1   4  -1 543.288 46.2024  11
  -4  -1  -1 503.592 46.8790   8
   1  -4  -1 550.829 47.9891  14
   4   1  -1 552.331 50.0531  11
   4   1  -1 500.047 46.8556   3
   1  -4  -1 526.562 48.9285   5
  -4  -1  -1 519.183 44.7507   6
  -4  -1  -1 575.965 45.6738   2
  -1   4  -1 551.381 42.7809   9
  -1   4  -1 599.184 48.6629   8
   1  -4  -1 517.125 48.3637   6
   1  -4   1 549.406 47.9101   5
  -1   4   1 558.601 51.1894   5
  -1   4   1 575.531 46.4361  11
   4   1   1 642.546 46.4005  14
  -4  -1   1 637.095 45.7929   2
  -4  -1   1 644.815 47.6629   8
  -4  -1   1 577.755 45.5691  14
   4   1   1 610.713 44.6913   2
  -4   0  -1 1699.06 112.434   5
   0  -4  -1 1602.41 111.406  14
   0  -4  -1 1722.93 113.200   6
   4   0  -1 1795.61 112.569  11
   4   0  -1 1752.97 111.751  15
   0   4  -1 1652.37 111.893   8
  -4   0  -1 1668.84 111.003   2
  -4   0  -1 1681.45 112.240   8
   0   4  -1 1702.40 112.226  12
  -4   0  -1 1796.41 111.689   9
   0   4  -1 1713.38 112.188   2
   4   0  -1 1729.70 111.819  14
   4   0  -1 1747.43 112.138   3
  -4   0  -1 1742.76 112.305  12
   0   4  -1 1726.41 112.410   3
   0  -4  -1 1579.30 112.591   5
   0  -4  -1 1686.18 112.731   9
   0   4  -1 1629.41 112.356  11
   4   0   1 1716.44 111.308   2
  -4   0   1 1689.19 110.919   2
   0   4   1 1686.72 111.682   8
  -4   1  -1 641.598 50.2355   8
   4  -1  -1 672.556 49.7339  11
  -4   1  -1 633.398 49.4871   5
   4  -1  -1 600.106 48.7569   3
   1   4  -1 556.002 48.5557  12
  -4   1  -1 623.832 49.0756   9
   1   4  -1 556.872 52.0159  11
   1   4  -1 577.177 48.9157   2
  -1  -4  -1 575.803 48.0060  14
  -1  -4  -1 521.569 52.7218   5
  -4   1  -1 652.301 48.5615  12
   4  -1  -1 587.217 47.7034  15
   1   4  -1 530.776 47.9910   8
   4  -1  -1 530.053 50.5962   6
   1   4  -1 552.972 49.6341   3
  -1  -4  -1 486.355 49.8634   6
  -4   1  -1 644.994 48.6570   2
  -1  -4  -1 515.824 49.9864   9
   4  -1  -1 667.319 49.8995  14
   1   4  -1 556.659 47.6524  15
  -1  -4   1 653.336 48.3292  14
  -4   1   1 518.349 50.7324   5
   4  -1   1 552.828 47.3780  11
  -1  -4   1 681.148 49.8303   8
  -4   1   1 657.208 49.1146  11
   1   4   1 582.256 45.4778  14
   1   4   1 616.149 48.7979   8
   4  -1   1 630.949 50.1152   5
   2   4  -1 3822.93 242.099   3
   2   4  -1 3773.12 241.525  15
   4  -2  -1 3900.21 241.250  15
   2   4  -1 3769.76 241.897  12
  -4   2  -1 4010.61 241.037   5
  -2  -4  -1 3365.73 242.137   6
  -2  -4  -1 3487.56 243.463   5
   2   4  -1 3870.45 240.850   8
   4  -2  -1 3802.47 242.000   3
  -4   2  -1 3866.68 241.524   2
  -4   2  -1 4022.18 241.949   9
  -2  -4  -1 3800.40 240.728  14
  -2  -4  -1 3938.43 242.054   9
   4  -2  -1 3943.89 240.532  11
   2   4  -1 3840.57 240.862   2
   4  -2  -1 3866.91 242.298  14
  -4   2  -1 4072.30 242.054  12
   4  -2  -1 3691.05 242.758   6
  -2  -4   1 3719.92 240.683   8
   4  -2   1 3840.98 240.173  11
  -4   2   1 3846.11 241.825   5
   2   4   1 3754.72 240.372   2
   4  -2   1 4134.01 241.074   5
  -2  -4   1 3765.01 240.593  14
   2   4   1 3757.90 240.107  14
  -4   2   1 3707.28 240.248  11
   2   4   1 3902.89 241.095   8
   4  -3  -1 80.1682 22.1719  15
  -3  -4  -1 101.741 21.0369  14
  -4   3  -1 154.130 24.8714   9
  -4   3  -1 163.380 21.0740   5
   4  -3  -1 93.5823 22.1571   5
  -3  -4  -1 97.6691 26.8015   6
   3   4  -1 68.6986 19.4626   2
   4  -3  -1 76.6670 19.3450  11
  -4   3  -1 151.658 19.0254  11
   3   4  -1 90.9645 19.2277   8
   3   4  -1 135.487 25.3307  12
  -3  -4  -1 100.535 21.5246   8
   3   4  -1 84.0200 19.9683  14
   3   4  -1 111.763 24.9150   3
   3   4  -1 119.063 23.4248  15
  -4   3  -1 116.071 23.7478  12
  -3  -4  -1 83.0145 23.8796   9
   4  -3  -1 107.714 24.4374   3
   4  -3  -1 77.1293 26.3101   6
  -3  -4   1 102.694 20.8230   8
  -3  -4   1 113.608 20.4594  14
  -4   3   1 120.901 23.1308   5
   3   4   1 115.932 20.5253   8
   4  -3   1 81.8090 17.1451  11
   3   4   1 102.830 18.3337   2
   3   4   1 65.3529 16.9474  14
  -4   3   1 108.743 18.6124  11
   4  -3   1 99.4418 18.8397   5
  -4   4  -1 4140.68 278.591  11
   4  -4  -1 4020.94 281.606   6
   4   4  -1 4638.96 281.467   3
   4   4  -1 4650.21 281.650  12
   4   4  -1 4762.49 279.301   8
  -4   4  -1 4369.90 281.258  12
  -4  -4  -1 4601.29 281.406   9
  -4  -4  -1 4748.30 282.447   6
   4   4  -1 4598.49 278.893   2
  -4  -4  -1 4654.99 279.402  14
  -4   4  -1 4618.79 279.567   5
   4  -4  -1 4516.01 279.177  11
   4  -4  -1 4281.75 280.720  15
  -4  -4  -1 4531.42 279.864   8
   4   4  -1 4531.49 280.755  15
  -4   4  -1 4317.89 281.069   9
   4  -4  -1 4326.86 281.416   3
   4  -4  -1 4258.23 279.963   5
   4   4  -1 4365.22 279.040  14
  -4   4   1 4705.66 280.302   5
  -4  -4   1 4260.58 279.031  14
  -4  -4   1 4325.96 279.458   8
   4   4   1 4217.98 278.857   2
   4   4   1 4229.41 279.564   8
  -4   4   1 4384.16 278.649  11
   4   4   1 4309.16 278.889  14
   4  -4   1 4766.10 279.189   5
   4  -4   1 4694.57 278.937  11
  -4   5  -1 1426.70 95.5051  12
   5   4  -1 1447.13 96.9748  12
  -5  -4  -1 1470.74 94.8041   8
   5   4  -1 1399.30 92.2184   2
  -5  -4  -1 1514.52 97.1255   9
  -5  -4  -1 1479.73 98.6236   6
   5   4  -1 1440.09 96.6481   3
  -4   5  -1 1331.84 92.2037  11
   4  -5  -1 1265.49 97.4871   6
   4  -5  -1 1366.71 96.5874   3
   4  -5  -1 1377.69 95.6388  15
  -4   5  -1 1376.49 95.8132   9
   5   4  -1 1474.60 96.0464  15
   5   4  -1 1407.10 92.9622  14
   4  -5  -1 1372.94 94.7995   5
  -5  -4   1 1411.02 93.8592   2
  -5  -4   1 1409.79 93.9383   8
  -4   5   1 1438.74 92.5649  11
   4  -5   1 1528.37 93.5378  11
   4  -5   1 1469.40 92.8343   5
  -5  -4   1 1324.63 92.7120  14
   5   4   1 1340.05 92.1761   2
  -4   5   1 1552.47 95.4319   5
   5   4   1 1332.46 93.4897   8
   5   4   1 1407.28 92.5090  14
   5   3  -1 189.328 28.3408  15
   3  -5  -1 230.233 28.2270   3
  -5  -3  -1 214.844 29.4136   6
   3  -5  -1 213.528 27.4685  15
  -5  -3  -1 215.776 24.3032   2
  -3   5  -1 234.488 21.6307  11
  -5  -3  -1 161.745 29.0432   9
   5   3  -1 210.047 28.5261  12
   5   3  -1 199.351 23.2730  14
   3  -5  -1 224.200 31.5068   6
  -3   5  -1 221.448 28.3204  12
   3  -5  -1 212.244 26.3366   5
  -5  -3  -1 128.669 25.1606   8
  -3   5  -1 288.298 28.0881   9
   5   3  -1 176.414 28.1078   3
   5   3  -1 169.891 21.6379   2
   5   3   1 222.679 22.1165   2
   3  -5   1 173.783 22.6555   5
   5   3   1 205.023 24.9006   8
  -5  -3   1 195.667 23.4654  14
  -5  -3   1 234.444 25.3380   8
  -3   5   1 145.248 22.8992  11
  -3   5   1 186.518 27.2511   5
   5   3   1 230.498 23.5111  14
  -5  -3   1 225.414 24.1294   2
   5   2  -1 473.708 41.5466   2
   2  -5  -1 534.346 43.9721  15
  -2   5  -1 561.434 43.0849  11
   5   2  -1 513.280 46.5664   3
  -2   5  -1 528.638 43.9998   9
   2  -5  -1 545.222 44.6369   3
  -2   5  -1 556.337 45.9851  12
  -5  -2  -1 485.437 46.3820   6
   2  -5  -1 495.842 46.3294   5
   5   2  -1 516.357 43.2909  14
  -5  -2  -1 522.292 46.2738   8
   5   2  -1 469.640 45.5693  12
  -5  -2  -1 521.169 47.1221   9
   5   2  -1 548.074 46.0359  15
  -5  -2  -1 523.972 44.5793   2
   2  -5  -1 540.709 48.2981   6
   5   2   1 531.821 41.9882   2
   5   2   1 552.543 43.0382  14
  -5  -2   1 536.478 43.3883   2
  -5  -2   1 551.188 46.0957   8
   2  -5   1 546.094 44.4639   5
  -2   5   1 512.704 44.3294  11
  -5  -1  -1 1081.28 75.4755   6
  -5  -1  -1 1107.25 77.9180   9
  -1   5  -1 1046.90 74.4474   9
  -1   5  -1 1108.18 76.8624  11
  -5  -1  -1 1083.22 77.6660   8
   5   1  -1 1072.73 77.0545  15
   1  -5  -1 1159.91 78.2825  14
   5   1  -1 1054.94 77.7825   3
   1  -5  -1 1027.98 74.5279   3
  -1   5  -1 1188.15 77.6210  12
   1  -5  -1 1145.56 79.4847   6
   1  -5  -1 1108.95 74.7554  15
   1  -5  -1 1167.18 78.8032   5
   5   1  -1 1066.02 75.6819  14
  -5  -1  -1 1072.21 75.6304   2
  -5  -1  -1 1146.41 79.7941   5
   5   1  -1 1063.31 75.2168  12
   5   1   1 1058.23 72.5540  15
   5   1   1 1153.64 75.4830   2
   5   1   1 1090.99 73.6168   3
   1  -5   1 1174.93 74.5169   6
  -5  -1   1 1175.74 75.3710   2
   0  -5  -1 2341.49 160.483   6
   0   5  -1 2205.20 156.431   9
  -5   0  -1 2532.83 159.676   8
   5   0  -1 2538.42 159.331  11
   0   5  -1 2518.19 159.304   8
   5   0  -1 2479.77 159.753   3
   5   0  -1 2617.58 159.259  15
   0  -5  -1 2318.43 160.378   5
  -5   0  -1 2703.80 157.181   6
   0   5  -1 2404.16 158.882  12
   0   5  -1 2435.31 159.089  11
   5   0  -1 2539.08 157.036  12
  -5   0  -1 2515.67 158.058   2
   0  -5  -1 2214.88 156.196  15
  -5   0  -1 2657.01 159.738   9
   5   0  -1 2545.20 158.937  14
   0  -5  -1 2418.22 158.532  14
  -5   0  -1 2594.91 159.551   5
   0  -5   1 2661.76 158.623   6
  -5   0   1 2540.65 157.832   2
   5   0   1 2440.92 156.673  15
  -5   0   1 2251.30 157.180   9
   1   5  -1 1039.95 78.8804  12
  -1  -5  -1 1133.53 82.1940   5
  -1  -5  -1 1095.23 78.5165   9
   5  -1  -1 1172.82 78.7926  14
   5  -1  -1 1158.66 78.8139   3
   1   5  -1 1101.08 77.3678   8
   5  -1  -1 1039.00 80.6184   6
  -5   1  -1 1217.67 77.7721   9
   5  -1  -1 1237.10 78.1376  11
  -1  -5  -1 1116.86 77.0711  14
  -5   1  -1 1242.41 78.8381  12
   1   5  -1 1019.90 77.8015  15
   5  -1  -1 1175.34 77.9090  15
  -5   1  -1 1198.26 78.1648   5
  -1  -5  -1 964.358 79.6027   6
   1   5  -1 1084.47 78.8307   2
   1   5  -1 1005.93 78.9708   3
  -5   1  -1 1167.37 77.5230   2
  -5   1   1 1093.17 79.8141   5
  -1  -5   1 1147.47 77.3155  14
   1   5   1 1101.73 77.3256   8
   5  -1   1 1060.64 75.7727  11
   2   5  -1 538.238 48.7603   3
  -2  -5  -1 494.064 47.1375   9
   2   5  -1 517.489 47.1402  15
  -2  -5  -1 523.909 45.8805  14
   2   5  -1 549.414 48.0931  12
  -2  -5  -1 489.768 47.3212   6
  -5   2  -1 579.456 47.2365   2
  -5   2  -1 593.613 46.2661  12
   5  -2  -1 572.251 45.6282  15
  -5   2  -1 523.992 45.3960   5
   5  -2  -1 587.674 45.8953  11
  -5   2  -1 517.922 48.0243   9
   5  -2  -1 515.316 49.8030   6
   2   5  -1 598.846 45.2894   8
   5  -2  -1 512.222 47.3461   3
   2   5  -1 570.887 47.7398   2
   2   5   1 567.663 45.3408   8
  -5   2   1 510.363 47.8539   5
  -2  -5   1 591.447 45.1205  14
   2   5   1 479.834 41.6562  14
   5  -2   1 544.216 43.5246  11
   3   5  -1 180.335 28.1344  15
   3   5  -1 180.911 23.0701   8
   3   5  -1 155.387 28.6358   3
  -5   3  -1 212.736 27.7452  12
   5  -3  -1 209.696 30.5350   6
   3   5  -1 131.459 24.1305   2
  -5   3  -1 260.700 24.3625   5
  -3  -5  -1 116.286 29.8351   6
   5  -3  -1 242.378 27.7597  15
   5  -3  -1 209.496 23.4041  11
   3   5  -1 158.680 27.0800  12
  -3  -5  -1 165.919 24.1055  14
  -5   3  -1 231.660 29.7288   9
   5  -3  -1 239.820 29.4965   3
  -3  -5  -1 144.532 27.9261   9
  -3  -5   1 221.710 24.6517   8
  -5   3   1 158.793 26.0376   5
   3   5   1 181.730 22.1860   2
  -3  -5   1 200.504 23.4836  14
   3   5   1 225.863 21.0795  14
   3   5   1 256.663 24.7955   8
   5  -3   1 178.967 22.7889   5
   5  -3   1 181.637 21.3065  11
  -5   3   1 218.292 23.2285  11
   5  -4  -1 1448.25 96.6167  15
  -4  -5  -1 1467.39 94.8313   8
   4   5  -1 1313.69 92.6655  14
  -5   4  -1 1423.07 92.6075  11
   4   5  -1 1421.84 95.7751  15
   5  -4  -1 1467.47 98.1239   3
   4   5  -1 1410.36 97.9219  12
   4   5  -1 1482.88 93.9177   2
  -4  -5  -1 1424.96 97.2401   9
  -5   4  -1 1452.39 93.5190   5
  -5   4  -1 1491.61 95.7291  12
   4   5  -1 1492.03 93.5157   8
   5  -4  -1 1346.44 94.8981   5
   5  -4  -1 1348.65 98.3450   6
   4   5  -1 1551.92 97.7996   3
  -4  -5  -1 1377.59 93.4446  14
  -4  -5  -1 1394.16 98.3824   6
  -5   4  -1 1394.90 96.2463   9
   4   5   1 1350.01 93.8873   8
   4   5   1 1338.49 91.8882  14
  -5   4   1 1430.94 95.1647   5
   5  -4   1 1503.38 92.8474   5
   4   5   1 1354.97 92.7217   2
  -4  -5   1 1370.59 93.2211  14
  -4  -5   1 1383.35 93.5172   8
  -5  -5  -1 106.750 30.0488   6
  -5  -5  -1 126.078 22.2476   8
   5   5  -1 111.769 26.9295   3
   5   5  -1 168.772 20.1233   2
   5   5  -1 81.4166 28.6047  12
   5  -5  -1 147.831 27.2824  15
   5   5  -1 89.3107 19.1375  14
  -5   5  -1 163.312 25.6631  12
   5  -5  -1 127.131 28.2629   3
  -5   5  -1 172.728 27.4544   9
  -5  -5  -1 143.187 27.5690   9
   5  -5  -1 153.105 29.1564   6
   5   5  -1 132.088 26.7897  15
   5  -5  -1 94.6506 22.1591   5
  -5  -5   1 125.623 20.8597   8
  -5   5   1 139.787 23.4906   5
  -5  -5   1 129.224 19.9414  14
   5  -5   1 145.184 18.1464   5
   5   5   1 144.322 20.6027   8
   5   5   1 136.289 17.5820  14
   5   5   1 126.108 18.8657   2
   5  -6  -1 1244.57 87.3984   6
  -6  -5  -1 1215.78 83.2737   8
   5  -6  -1 1190.95 87.0917   3
   6   5  -1 1196.61 86.2593   3
   6   5  -1 1330.69 90.2218  12
   6   5  -1 1140.59 85.1048  15
  -6  -5  -1 1282.48 89.7936   6
   5  -6  -1 1280.71 86.4525  15
   6   5  -1 1196.74 81.1674  14
   5  -6  -1 1225.23 82.7874   5
  -6  -5  -1 1176.07 86.4408   9
  -5   6  -1 1224.86 86.2765   9
  -5   6  -1 1284.97 84.5922  12
   5  -6   1 1166.59 80.3263   5
   6   5   1 1184.81 80.3767   2
   6   5   1 1264.30 80.4476  14
  -5   6   1 1210.71 83.7503   5
  -6  -5   1 1154.78 80.7196  14
   4  -6  -1 165.382 29.3049  15
   6   4  -1 270.565 30.9438  15
  -6  -4  -1 270.450 27.3424   8
  -6  -4  -1 299.757 34.4353   6
   4  -6  -1 204.017 26.9250   5
   4  -6  -1 256.657 32.4494   3
   4  -6  -1 231.513 32.7092   6
  -4   6  -1 244.550 30.2993   9
   6   4  -1 267.793 32.4612   3
  -6  -4  -1 229.096 32.3666   9
  -4   6  -1 275.584 30.1601  12
   6   4  -1 274.254 33.4462  12
   6   4  -1 269.855 25.2364  14
  -6  -4   1 174.919 24.9977   2
   4  -6   1 236.825 23.3496   5
   6   4   1 196.181 23.7246  14
   6   4   1 222.240 22.4973   2
  -6  -4   1 224.689 26.0691   8
   6   3  -1 984.710 65.5420  14
   6   3  -1 1017.77 69.3617  15
  -6  -3  -1 991.096 68.4356   8
  -6  -3  -1 968.246 70.5679   6
   6   3  -1 994.580 69.4776  12
  -3   6  -1 940.959 68.7673  12
   6   3  -1 1001.79 70.4043   3
   3  -6  -1 954.430 70.9553   6
   3  -6  -1 866.810 69.9665   3
   3  -6  -1 911.045 68.1367   5
  -6  -3  -1 969.890 70.0000   9
   3  -6  -1 804.517 68.1095  15
  -3   6  -1 860.782 65.0618  11
  -6  -3  -1 980.807 66.0834   2
  -3   6  -1 910.618 67.7652   9
  -3   6   1 956.658 66.3435  11
   6   3   1 902.163 63.9707   2
  -6  -3   1 987.677 65.5949   2
   6   3   1 923.856 65.3640  14
   3  -6   1 912.053 66.2801   5
  -6  -3   1 888.518 67.6612   8
  -6  -2  -1 1259.43 83.6539   8
  -6  -2  -1 1173.40 84.3508   9
  -6  -2  -1 1282.48 83.6475   6
   2  -6  -1 1193.05 82.6831  15
  -6  -2  -1 1230.43 81.2331   2
   6   2  -1 1249.83 83.6923  15
   2  -6  -1 1104.03 84.8394   6
   6   2  -1 1150.89 83.4374  12
  -2   6  -1 1082.07 82.1293   9
  -2   6  -1 1201.69 81.4459  11
  -2   6  -1 1245.76 83.3795  12
   2  -6  -1 1220.12 82.9487   3
   6   2  -1 1234.21 84.8263   3
   2  -6  -1 1225.54 83.9776   5
   6   2  -1 1248.84 81.5033  14
   6   2   1 1084.83 77.9741  15
  -6  -2   1 1246.67 80.7614   2
   6   2   1 1132.16 79.2204   3
   6   2   1 1229.31 80.4502   2
   2  -6   1 1264.08 79.4336   6
  -6  -1  -1 668.236 57.2772   8
  -1   6  -1 753.643 55.2006  11
  -6  -1  -1 649.155 54.1438   2
   6   1  -1 741.496 57.0822   3
  -6  -1  -1 711.902 57.4204   9
   1  -6  -1 720.736 57.3935   5
  -1   6  -1 693.336 52.8566   9
  -6  -1  -1 755.776 54.9717   6
   1  -6  -1 663.067 53.4964  15
   6   1  -1 714.465 56.2002  15
   1  -6  -1 782.244 59.3597   6
   6   1  -1 659.703 54.1171  12
  -1   6  -1 806.496 57.1988  12
   6   1  -1 711.056 55.0884  14
   1  -6  -1 695.666 53.6188   3
   1  -6  -1 784.519 58.5727  14
   6   1   1 783.516 52.0492   3
   1  -6   1 713.071 53.1155   6
   6   1   1 709.018 50.2197  15
  -6  -1   1 687.712 52.9317   9
  -1   6   1 635.490 50.0962  12
  -6  -1   1 731.540 53.4777   2
   6   0  -1 405.834 36.1608  12
  -6   0  -1 449.482 34.5711   6
   6   0  -1 384.232 36.6235  11
  -6   0  -1 415.175 37.5606   5
   6   0  -1 434.032 37.6461  15
   0  -6  -1 380.101 39.4363   6
   6   0  -1 419.773 38.4094   3
   0   6  -1 329.184 35.0351   9
  -6   0  -1 369.186 33.7358   2
   0   6  -1 418.402 38.4538  12
   0  -6  -1 340.755 35.1328   3
   0  -6  -1 405.992 36.2107  14
  -6   0  -1 431.790 39.9480   9
   6   0  -1 463.926 36.9738  14
   0  -6  -1 362.197 38.9358   5
   0   6  -1 383.154 36.4530   8
   0  -6  -1 359.845 35.2154  15
  -6   0  -1 378.928 36.5001   8
   0   6   1 397.152 36.8121  12
  -6   0   1 397.503 35.6236   9
  -6   0   1 380.066 33.3713   2
   6   0   1 351.129 34.8845  15
   6   0   1 406.393 34.4153   3
   0  -6   1 446.610 36.0944   6
  -6   1  -1 726.641 54.9856   2
  -6   1  -1 822.147 56.4090   5
   6  -1  -1 750.676 50.4425  12
  -1  -6  -1 655.365 54.8183  14
   1   6  -1 675.991 54.8304   8
   6  -1  -1 747.220 56.6063  11
  -6   1  -1 828.585 55.7463  12
   1   6  -1 555.100 49.4021   9
   1   6  -1 675.971 57.6177  12
  -6   1  -1 784.690 55.4192   9
   6  -1  -1 736.421 56.8213   3
  -1  -6  -1 664.165 57.5465   9
   6  -1  -1 736.717 55.3825  15
   1   6  -1 691.520 57.5645   3
  -1  -6  -1 631.987 58.8726   6
   1   6   1 735.396 53.9779   8
   6  -1   1 728.418 52.1679  15
   6  -1   1 627.798 53.3755   3
  -1  -6   1 756.924 56.9232   6
  -6   1   1 644.417 53.6587   9
   1   6   1 745.653 53.6073  12
  -6   2  -1 1309.47 83.9504   5
   6  -2  -1 1206.75 84.6723  15
  -2  -6  -1 1196.75 86.6500   9
  -6   2  -1 1189.87 85.5051  12
   2   6  -1 1185.74 86.1250   3
   2   6  -1 1185.08 83.8061   8
  -6   2  -1 1280.55 85.9134   9
   6  -2  -1 1255.05 86.0476   3
  -2  -6  -1 1247.74 83.5987  14
   6  -2  -1 1270.01 83.9148  11
   2   6  -1 1219.46 85.1421  15
   6  -2  -1 1154.28 87.9050   6
   2   6  -1 1219.27 86.4042  12
  -2  -6  -1 1182.82 88.2994   6
  -6   2   1 1254.37 85.3076   9
   6  -2   1 1192.77 82.1989  11
   2   6   1 1314.32 84.1009   8
  -2  -6   1 1289.39 88.1344   6
  -2  -6   1 1156.70 83.3574  14
   6  -2   1 1217.36 83.9173  15
  -6   2   1 1245.48 85.1774   5
   3   6  -1 961.526 71.9523  12
   3   6  -1 1015.62 69.7884   2
   3   6  -1 926.660 71.1693   3
  -6   3  -1 1012.85 66.4841   5
  -6   3  -1 965.803 70.1148   9
   6  -3  -1 972.004 67.1652  11
   6  -3  -1 907.114 71.1551   3
   3   6  -1 956.374 69.8982  15
   6  -3  -1 988.790 69.5731  15
  -3  -6  -1 938.148 66.8876  14
  -6   3  -1 934.180 70.3012  12
   6  -3  -1 884.217 72.1208   6
  -3  -6  -1 820.827 72.3500   6
  -3  -6  -1 980.489 71.8250   9
   3   6  -1 965.256 67.3522   8
   3   6   1 891.378 66.9990   8
  -6   3   1 1034.19 69.6726   5
   6  -3   1 1002.21 65.5879  11
  -3  -6   1 894.612 66.7704  14
  -6   4  -1 235.966 23.9852   5
   6  -4  -1 196.978 30.9953  15
   4   6  -1 299.447 33.8591   3
  -6   4  -1 229.710 29.5341  12
   4   6  -1 263.986 27.2276   2
   4   6  -1 286.793 34.6138  12
   4   6  -1 251.130 31.1641  15
  -4  -6  -1 264.522 34.9561   6
   4   6  -1 253.121 24.1630   8
  -6   4  -1 267.228 31.2576   9
  -4  -6  -1 213.483 25.2357  14
   6  -4  -1 201.976 32.2110   3
   6  -4  -1 196.806 32.4976   6
  -4  -6  -1 237.028 32.7231   9
  -4  -6   1 204.951 24.4434  14
  -6   4   1 266.701 27.0864   5
   4   6   1 201.764 21.9181  14
   4   6   1 188.489 24.6707   8
   4   6   1 195.216 23.5317   2
   6  -5  -1 1336.35 89.6434   6
  -5  -6  -1 1197.80 86.8884   9
   5   6  -1 1138.01 85.2267  15
  -5  -6  -1 1250.39 90.1722   6
  -6   5  -1 1341.51 85.0983  12
  -6   5  -1 1231.63 87.0384   9
   5   6  -1 1157.25 86.3288   3
   5   6  -1 1193.39 82.3951   2
   5   6  -1 1225.16 80.8730   8
  -5  -6  -1 1140.68 81.6550  14
   5   6  -1 1212.31 88.8102  12
   6  -5  -1 1256.70 87.9674   3
   6  -5  -1 1291.45 87.0817  15
   6  -5   1 1226.85 80.9401   5
  -5  -6   1 1237.72 81.2819  14
   5   6   1 1163.12 80.0146  14
  -6   5   1 1277.80 83.6276   5
   5   6   1 1202.34 82.2600   8
   5   6   1 1171.57 81.1809   2
  -5  -6   1 1244.87 81.9327   8
   6  -6  -1 114.341 20.9137   5
   6  -6  -1 105.712 30.1584   3
   6   6  -1 32.3195 17.4229  14
   6   6  -1 102.110 30.6453  12
  -6   6  -1 108.483 27.7348   9
  -6   6  -1 113.880 26.5006  12
   6   6  -1 130.724 28.3877   3
  -6  -6  -1 89.3285 28.1084   9
   6  -6  -1 106.746 28.8949  15
  -6  -6  -1 69.5169 30.6552   6
   6   6  -1 68.4565 26.3061  15
   6  -6  -1 105.852 28.8160   6
  -6  -6  -1 88.0719 20.8122   8
   6   6   1 55.8820 15.1384  14
   6   6   1 57.4633 18.4711   8
  -6   6   1 78.3167 21.4942   5
   6   6   1 73.5284 17.1124   2
  -6  -6   1 51.4410 17.3517  14
   7   6  -1 711.672 63.6443   3
  -6   7  -1 923.251 62.1081  12
   6  -7  -1 799.700 56.6984   5
   6  -7  -1 777.659 63.7677   6
  -7  -6  -1 711.626 57.0571   8
   7   6  -1 640.114 53.2571  14
   7   6  -1 631.273 66.0286  12
   6  -7  -1 783.818 65.2361   3
   7   6  -1 715.874 60.3680  15
  -7  -6  -1 702.243 63.5797   9
   6  -7  -1 816.860 63.7861  15
  -7  -6  -1 736.346 66.5761   6
  -6   7  -1 820.540 62.3245   9
   7   6   1 786.709 52.5935  14
   7   6   1 744.884 53.1879   2
   7   5  -1 645.470 60.1773  12
   7   5  -1 650.422 50.6088  14
   5  -7  -1 703.187 58.1757  15
  -5   7  -1 753.263 58.3660   9
  -7  -5  -1 748.210 63.6691   6
   5  -7  -1 708.079 54.1750   5
   5  -7  -1 839.403 59.8799   6
   5  -7  -1 709.935 61.5882   3
  -5   7  -1 709.334 54.9636  12
   7   5  -1 577.628 59.1220   3
   7   5  -1 631.350 56.4499  15
  -7  -5  -1 667.878 54.1680   8
  -7  -5  -1 671.994 57.6310   9
   7   5   1 696.828 49.1451   2
   7   5   1 664.962 49.7526  14
   5  -7   1 623.186 49.7125   5
   4  -7  -1 169.627 30.8809   6
  -4   7  -1 180.604 28.2970   9
   7   4  -1 100.259 27.8271  15
   4  -7  -1 183.425 30.1300  15
   4  -7  -1 170.410 30.6185   3
  -7  -4  -1 138.392 30.4131   9
  -7  -4  -1 114.905 23.9534   8
   7   4  -1 142.362 21.4414  14
   7   4  -1 125.803 30.8684  12
   4  -7  -1 141.296 23.9555   5
  -7  -4  -1 170.620 31.4114   6
   7   4  -1 156.615 29.3030   3
  -4   7  -1 135.982 26.1875  12
   7   4   1 139.154 20.3479  14
  -7  -4   1 119.773 23.1937   8
   4  -7   1 110.678 19.4420   5
   7   4   1 124.873 18.0260   2
   7   4   1 149.982 18.6995   3
  -7  -3  -1 235.598 33.4601   6
   3  -7  -1 231.769 29.9022   5
   7   3  -1 265.053 32.6280  15
   7   3  -1 226.541 27.1480  14
  -7  -3  -1 289.393 26.1513   2
  -3   7  -1 301.198 25.6749  11
   7   3  -1 273.121 33.7028  12
  -7  -3  -1 268.027 29.0654   8
   3  -7  -1 256.576 33.0640   3
   3  -7  -1 260.137 33.0938  15
  -7  -3  -1 272.881 34.2114   9
   7   3  -1 342.919 34.5459   3
  -3   7  -1 275.513 32.1621  12
   3  -7  -1 231.715 34.4221   6
  -3   7  -1 292.168 32.0048   9
   7   3   1 244.314 27.2801  14
  -3   7   1 231.656 26.5918  11
   7   3   1 280.518 23.3199  15
   3  -7   1 300.465 26.3065   6
  -7  -3   1 283.452 29.4082   8
   7   3   1 286.783 28.0702   3
  -7  -3   1 246.481 26.8280   9
   7   3   1 236.605 24.4225   2
   2  -7  -1 161.901 27.9236   5
  -7  -2  -1 220.052 30.1710   6
   7   2  -1 217.686 29.8763  12
   2  -7  -1 211.877 28.8608  15
   7   2  -1 253.091 26.1093  14
   2  -7  -1 231.940 29.0359   3
   7   2  -1 206.857 31.0108   3
   2  -7  -1 190.125 33.3688   6
  -2   7  -1 195.418 28.5759  12
   7   2  -1 274.379 30.7519  15
  -7  -2  -1 207.954 27.3709   8
  -7  -2  -1 249.131 24.2499   2
  -2   7  -1 170.576 24.5337  11
  -2   7  -1 183.989 27.7614   9
  -7  -2  -1 194.269 30.8966   9
  -2   7   1 232.669 22.5813  12
  -7  -2   1 175.784 24.8277   9
   7   2   1 208.222 23.2044   3
   2  -7   1 204.597 25.0487   6
  -7  -2   1 201.331 24.0585   2
   7   2   1 204.187 21.1082  15
  -7  -1  -1 12.1802 22.2294   8
  -7  -1  -1 35.6517 24.5064   9
   1  -7  -1 70.2129 21.8236  15
   7   1  -1 67.4957 20.9232  14
  -7  -1  -1 41.3547 22.1483   6
   7   1  -1 30.0708 22.0729  12
   1  -7  -1 35.4288 24.6082   5
  -7  -1  -1 -3.4479 17.6801   2
   1  -7  -1 37.3278 21.7043   3
   7   1  -1 34.3891 23.0990  15
   1  -7  -1 18.4384 26.3594   6
  -1   7  -1 56.9642 21.1675   9
  -1   7  -1 72.1579 24.6104  12
   7   1  -1 6.27053 23.9469   3
  -1   7  -1 33.3829 20.6553  11
   7   1   1 33.4425 16.1891  15
   7   1   1 33.9961 18.2126   3
  -7  -1   1 1.26144 19.1811   2
  -7  -1   1 -12.339 20.9906   9
   1  -7   1 53.6168 21.4488   6
  -1   7   1 26.5635 17.1812  12
   0  -7  -1 369.953 35.1037  14
   7   0  -1 358.307 37.5828   3
   7   0  -1 403.464 33.3020  12
   7   0  -1 329.913 35.7197  15
  -7   0  -1 348.938 31.6446   2
   0  -7  -1 372.345 39.3074   5
   0  -7  -1 332.984 38.3300   6
   0  -7  -1 318.060 32.2801  15
   0   7  -1 330.945 36.8687  12
   0  -7  -1 353.716 32.4961   3
   7   0  -1 359.834 35.1567  14
  -7   0  -1 393.705 36.9032   5
  -7   0  -1 382.363 38.7964   9
   0   7  -1 333.194 32.8438   9
  -7   0  -1 411.613 33.9174   6
   0  -7  -1 301.660 37.2017  10
   7   0   1 332.124 31.4153  15
   0  -7   1 349.118 35.0870   6
  -7   0   1 355.726 35.6444   9
   0   7   1 385.855 36.1813  12
   7   0   1 379.940 33.3976   3
   1   7  -1 18.7506 20.9574   8
   7  -1  -1 -0.0926 17.6722  12
  -7   1  -1 84.2021 25.1877   9
  -1  -7  -1 63.6778 28.9433   6
  -1  -7  -1 29.1821 20.5264  14
   7  -1  -1 17.5739 23.0129  15
  -1  -7  -1 18.9517 17.6474  15
   7  -1  -1 46.3356 22.7388  11
   1   7  -1 36.2361 17.6060   9
   7  -1  -1 65.2033 24.8198   3
  -7   1  -1 11.1171 19.0083   2
   1   7  -1 41.7562 25.9570  12
  -1  -7  -1 57.8041 29.8813   3
  -7   1  -1 11.5989 18.2027   6
  -7   1  -1 61.9733 21.8949   5
   7  -1   1 46.5454 20.4369  15
  -7   1   1 10.3996 24.6003   9
   1   7   1 54.2870 21.1532  12
   7  -1   1 53.1314 21.4819   3
  -1  -7   1 35.2355 24.8899   6
   7  -2  -1 151.574 29.3308   3
   7  -2  -1 241.906 29.3589  15
  -2  -7  -1 250.114 35.2033   6
   2   7  -1 207.196 31.8966   3
  -2  -7  -1 218.350 26.1510  14
  -7   2  -1 163.402 29.3868  12
   7  -2  -1 204.478 25.6548  11
  -7   2  -1 178.119 30.5640   9
   2   7  -1 230.493 26.1408   8
  -2  -7  -1 278.340 34.2234   9
   7  -2  -1 230.563 25.8157  12
   2   7  -1 170.235 22.1622   9
   7  -2  -1 183.216 32.8743   6
  -7   2  -1 221.625 25.8636   5
   2   7  -1 238.660 31.1803  12
   7  -2   1 252.771 29.5884   3
  -7   2   1 185.473 27.9297   5
   2   7   1 176.793 29.4462  12
   7  -2   1 259.774 27.6872  15
   2   7   1 201.498 25.5038   8
  -2  -7   1 187.153 33.0383   6
  -7   2   1 238.286 32.1987   9
  -2  -7   1 155.783 25.9441  14
   7  -2   1 237.036 22.7284  11
   3   7  -1 233.689 34.0783  15
   3   7  -1 235.953 35.9348  12
  -3  -7  -1 225.235 37.1946   6
  -3  -7  -1 278.556 35.8214   9
  -3  -7  -1 226.343 28.5978  14
   3   7  -1 248.957 35.6067   3
  -7   3  -1 312.718 27.6679   5
  -7   3  -1 368.293 36.9252   9
  -7   3  -1 324.260 34.2770  12
   7  -3  -1 299.769 35.0338   3
   3   7  -1 263.149 27.7982   8
   7  -3  -1 251.690 35.7161   6
   7  -3  -1 290.580 33.3466  15
   7  -3   1 295.142 31.9316  15
  -7   3   1 315.361 35.7931   9
  -7   3   1 285.554 30.6679   5
   7  -3   1 313.518 33.6709   3
  -3  -7   1 296.427 38.3360   6
   3   7   1 329.614 33.8247  12
   3   7   1 290.663 28.3304   8
  -3  -7   1 226.298 28.3142  14
  -4  -7  -1 91.5683 21.7567  14
   7  -4  -1 111.288 30.3696   3
  -7   4  -1 142.482 20.6794   5
   4   7  -1 166.536 25.8599   2
   7  -4  -1 152.008 31.3434   6
   4   7  -1 122.924 20.6231   8
  -4  -7  -1 150.251 33.9128   6
   7  -4  -1 137.390 28.0538  15
  -7   4  -1 169.591 30.3649   9
  -7   4  -1 132.247 26.7474  12
   4   7  -1 138.714 31.5820  12
   4   7  -1 173.776 31.9919   3
   4   7  -1 152.746 29.1600  15
  -4  -7  -1 169.003 31.8826   9
  -7   4   1 198.333 31.9280   9
   4   7   1 161.123 22.4450   8
   4   7   1 115.331 28.6529  12
   7  -4   1 176.775 27.7457  15
  -4  -7   1 165.434 35.2655   6
  -4  -7   1 176.966 22.1361  14
  -7   4   1 188.621 24.9687   5
  -7   5  -1 716.541 59.5686   9
  -5  -7  -1 629.728 51.1818  14
  -5  -7  -1 646.819 59.8379   9
   5   7  -1 722.283 62.1519  12
   7  -5  -1 738.564 61.8979   6
   5   7  -1 676.360 59.8806   3
   7  -5  -1 660.845 60.6297   3
   7  -5  -1 672.247 59.2231  15
  -7   5  -1 803.103 57.6191  12
  -5  -7  -1 642.443 60.8776   6
   5   7  -1 663.070 58.7978  15
   5   7  -1 635.059 54.5077   2
   7  -5   1 697.897 57.8630  15
   5   7   1 685.732 51.2534   2
  -5  -7   1 674.026 50.2675  14
  -7   5   1 683.006 53.9536   5
  -5  -7   1 767.124 67.8814   6
   5   7   1 684.878 51.7415   8
   6   7  -1 659.520 67.1695  12
  -6  -7  -1 765.450 64.8876   9
   6   7  -1 685.778 61.3378  15
  -7   6  -1 871.585 61.7084  12
  -7   6  -1 755.506 62.8603   9
   6   7  -1 750.253 64.6304   3
   7  -6  -1 813.619 64.9764  15
   6   7  -1 737.879 57.1368   2
   7  -6  -1 913.773 66.9721   6
  -6  -7  -1 744.134 67.9443   6
   7  -6  -1 816.942 66.1505   3
   6   7   1 792.642 55.5750   8
  -6  -7   1 740.268 70.3733   6
   6   7   1 722.572 54.5379   2
   6   7   1 749.433 52.6055  14
   7  -6   1 750.913 63.6225  15
  -6  -7   1 771.865 53.9167  14
  -7   6   1 729.185 57.8944   5
   7   7  -1 693.040 60.6625  15
  -7   7  -1 766.097 57.2176  12
   7   7  -1 692.407 62.8005   3
  -7  -7  -1 611.914 62.8786   9
  -7  -7  -1 833.602 70.3629   6
   7  -7  -1 712.545 61.9615   6
  -7   7  -1 672.384 62.4653   9
   7  -7  -1 685.425 65.3005   3
   7  -7  -1 690.751 63.3314  15
   7   7  -1 691.433 67.0731  12
  -7  -7   1 698.057 64.9806   6
   7   7   1 677.467 51.6587   2
   8   7  -1 595.822 56.8613  15
   8   7  -1 645.826 59.1981   3
  -8  -7  -1 698.904 63.8018   6
  -8  -7  -1 663.202 60.9991   9
  -7   8  -1 784.037 62.6275   9
  -7   8  -1 636.244 57.0776  12
   7  -8  -1 686.763 64.0036   3
   8   7  -1 741.094 64.8429  12
   7  -8  -1 669.909 61.1739   6
   7  -8  -1 661.572 64.2404  15
   8   6  -1 271.055 28.0235  14
   6  -8  -1 315.904 41.4987  15
   6  -8  -1 336.443 43.9936   3
  -6   8  -1 301.737 36.2520  12
  -8  -6  -1 274.821 40.2755   9
   8   6  -1 289.212 39.3838   3
   8   6  -1 337.826 38.0506  15
  -8  -6  -1 300.351 30.8790   8
  -8  -6  -1 313.645 44.0763   6
   8   6  -1 306.609 42.9506  12
   6  -8  -1 357.722 40.1270   6
  -6   8  -1 315.753 39.5096   9
   6  -8  -1 317.669 29.9762   5
   5  -8  -1 1656.63 123.524  15
   8   5  -1 1796.15 117.711  14
  -5   8  -1 1784.86 122.445  12
  -8  -5  -1 1945.96 120.496   8
   5  -8  -1 1883.87 125.301   6
   5  -8  -1 1879.54 125.580   3
   5  -8  -1 1709.81 119.101   5
   8   5  -1 1879.83 125.974  12
   8   5  -1 1822.97 124.262   3
  -8  -5  -1 1963.87 127.156   6
  -5   8  -1 1738.15 123.618   9
  -8  -5  -1 1894.95 124.486   9
   8   5  -1 1853.25 123.464  15
   5  -8   1 1863.98 117.452   5
   8   5   1 1749.65 117.616  14
   8   5   1 1754.14 116.903   3
  -8  -4  -1 2121.43 137.615   6
   8   4  -1 2066.55 135.012  15
  -4   8  -1 2024.72 134.099  12
  -8  -4  -1 1995.17 133.014   8
   4  -8  -1 2019.39 136.507   6
   8   4  -1 1971.13 136.372   3
   4  -8  -1 2078.76 135.880   3
  -8  -4  -1 2118.14 136.243   9
   8   4  -1 2133.34 137.398  12
   8   4  -1 1988.60 130.864  14
   4  -8  -1 1980.24 132.478   5
   4  -8  -1 1951.85 135.636  15
  -4   8  -1 2044.75 135.152   9
   8   4   1 2031.36 130.928  14
   8   4   1 2061.32 128.874  15
   8   4   1 1991.90 130.187   3
   4  -8   1 2009.38 130.939   5
  -8  -4   1 1944.55 129.486   9
  -8  -4   1 2061.77 132.223   8
  -8  -3  -1 410.598 37.3590   2
  -3   8  -1 452.894 40.3948  12
  -8  -3  -1 388.678 41.8163   6
   3  -8  -1 398.588 41.4139   6
   8   3  -1 449.599 42.4435  12
  -3   8  -1 362.983 32.5775  11
  -8  -3  -1 366.391 35.9396   8
   8   3  -1 393.776 39.9676  15
   3  -8  -1 328.248 36.3417   5
   8   3  -1 431.534 35.3772  14
   3  -8  -1 441.240 40.7264  15
  -3   8  -1 417.460 40.3925   9
   8   3  -1 388.894 41.3494   3
  -8  -3  -1 457.600 42.7010   9
   3  -8  -1 374.033 41.2559   3
   8   3   1 357.366 36.0776   3
  -8  -3   1 395.020 36.8146   9
   8   3   1 369.608 33.3509  15
   3  -8   1 420.638 38.1830   6
  -3   8   1 377.270 34.1509  12
   8   2  -1 1516.26 100.095  12
   2  -8  -1 1360.86 98.2927  15
   8   2  -1 1482.72 97.3272  14
  -2   8  -1 1487.38 99.1857   9
  -2   8  -1 1391.13 96.6727  11
   2  -8  -1 1382.80 99.5435   3
  -8  -2  -1 1471.96 101.212   9
  -2   8  -1 1521.00 99.7164  12
   2  -8  -1 1305.47 101.172   6
   8   2  -1 1491.23 100.449  15
   8   2  -1 1378.89 100.803   3
  -8  -2  -1 1511.53 99.4891   8
  -8  -2  -1 1543.35 99.8676   6
  -8  -2  -1 1543.24 96.0157   2
   2  -8  -1 1427.27 99.9219   5
  -8  -2   1 1252.64 96.3116   9
   8   2   1 1429.36 96.0715   3
   2  -8   1 1523.09 96.8549   6
   8   2   1 1438.25 94.7976  15
  -2   8   1 1452.42 95.2099  12
  -1   8  -1 2636.60 154.308  12
  -1   8  -1 2271.22 151.610   9
  -8  -1  -1 2294.42 153.826   9
   1  -8  -1 2225.96 151.350   3
  -8  -1  -1 2385.56 152.332   6
   8   1  -1 2345.32 153.185  15
   8   1  -1 2493.00 152.590  12
   1  -8  -1 2422.67 154.685   5
   1  -8  -1 2201.97 151.097  15
   1  -8  -1 2335.86 155.170   6
  -8  -1  -1 2375.74 150.131   2
   8   1  -1 2351.71 154.326   3
   8   1  -1 2366.45 152.009  14
  -8  -1  -1 2250.11 152.787   8
  -8  -1   1 2339.12 149.824   2
  -8  -1   1 2107.06 150.872   9
   8   1   1 2290.93 150.945   3
   8   1   1 2418.75 149.853  15
  -1   8   1 2329.30 150.095  12
   1  -8   1 2411.16 151.678   6
   0  -8  -1 -20.720 28.9495   6
  -8   0  -1 23.9554 21.3719   6
  -8   0  -1 2.67222 26.5439   9
   8   0  -1 1.89447 23.3012  15
   0   8  -1 -4.0610 19.9628   9
   0  -8  -1 23.1726 23.1080  14
   0  -8  -1 -9.1601 20.6762   3
  -8   0  -1 4.52803 18.6150   2
   8   0  -1 10.5152 24.8564   3
   0   8  -1 -11.656 24.6765  12
   8   0  -1 21.0506 21.3598  12
   0  -8  -1 -3.9854 20.8707  15
  -8   0   1 1.85058 24.2138   9
   8   0   1 12.3032 18.0625  15
   0   8   1 -29.080 19.1701  12
   0  -8   1 19.3981 24.9817   6
   8   0   1 -7.0525 20.2757   3
   1   8  -1 2300.13 153.484  12
  -1  -8  -1 2167.31 148.558  15
   8  -1  -1 2372.69 153.315   3
  -8   1  -1 2609.25 149.398   6
  -1  -8  -1 2102.97 148.091   3
  -8   1  -1 2478.18 151.167   5
   1   8  -1 2315.87 151.182   8
  -8   1  -1 2488.65 150.087   2
   1   8  -1 2132.73 148.801   9
   8  -1  -1 2535.69 149.120  12
   8  -1  -1 2409.43 150.727  11
  -1  -8  -1 2183.26 150.057  14
   8  -1  -1 2432.91 152.135  15
  -8   1  -1 2372.63 152.935   9
  -1  -8  -1 2198.42 154.214   6
   8  -1   1 2270.48 149.737  15
   1   8   1 2348.62 150.449  12
   8  -1   1 2279.51 150.854   3
  -8   1   1 2061.93 151.602   9
  -1  -8   1 2397.83 152.280   6
   2   8  -1 1505.63 102.569   3
   8  -2  -1 1642.47 96.5008  12
  -2  -8  -1 1251.26 103.009   6
  -2  -8  -1 1192.99 95.3365  15
   8  -2  -1 1486.40 102.957   3
  -2  -8  -1 1424.16 98.1563  14
   2   8  -1 1315.24 95.8907   9
   2   8  -1 1443.08 102.355  12
   8  -2  -1 1495.47 100.768  15
  -8   2  -1 1613.55 96.8361   6
  -8   2  -1 1586.65 102.092   9
   8  -2  -1 1585.97 98.9792  11
   2   8  -1 1490.79 99.0244   8
  -8   2  -1 1555.79 98.6754   5
   2   8   1 1465.19 100.592  12
  -8   2   1 1399.91 101.231   9
   8  -2   1 1479.45 100.566   3
   8  -2   1 1466.50 99.1198  15
  -2  -8   1 1424.17 102.805   6
   2   8   1 1474.31 98.4209   8
   3   8  -1 398.218 43.2212   3
   3   8  -1 379.837 39.7590  15
   8  -3  -1 406.068 43.1086   6
  -8   3  -1 369.950 35.3733   6
  -3  -8  -1 389.779 34.6659  14
  -8   3  -1 426.749 42.7038   9
  -8   3  -1 420.145 38.8403   5
   8  -3  -1 421.543 41.2796  15
   8  -3  -1 314.393 40.8794   3
  -3  -8  -1 485.159 43.4903   9
  -8   3  -1 436.371 40.8890  12
   3   8  -1 407.417 40.6078   8
  -3  -8  -1 332.125 43.6295   6
   3   8  -1 401.754 42.5617  12
   3   8  -1 371.479 34.3156   9
   8  -3  -1 392.830 35.7940  12
   3   8   1 387.074 34.6092   8
  -8   3   1 421.666 42.9577   9
  -3  -8   1 345.911 42.4946   6
   8  -3   1 510.378 40.2219  15
   8  -3   1 465.236 41.1266   3
  -8   3   1 412.067 36.8535   5
  -3  -8   1 386.758 38.7255  14
   3   8   1 362.476 40.1135  12
   4   8  -1 2148.25 138.620   2
  -4  -8  -1 1983.35 143.062   6
   8  -4  -1 2156.83 142.062   3
   4   8  -1 2116.58 135.530   8
   8  -4  -1 2227.16 140.529  15
  -8   4  -1 2156.79 140.627   9
   4   8  -1 2019.22 141.838  12
   4   8  -1 2120.91 139.936  15
  -4  -8  -1 2154.37 141.186   9
   8  -4  -1 2205.74 141.300   6
  -8   4  -1 2201.14 139.713  12
  -4  -8  -1 2038.22 135.637  14
  -8   4  -1 2170.30 135.057   5
   4   8  -1 2116.52 140.829   3
  -8   4   1 2239.26 137.563   5
  -4  -8   1 1932.22 142.419   6
   4   8   1 1989.05 135.903   8
   4   8   1 1967.34 140.395  12
  -4  -8   1 2031.90 135.411  14
  -8   4   1 2218.03 141.691   9
   8  -4   1 2058.81 139.951   3
   8  -4   1 2043.29 139.303  15
   8  -5  -1 1772.49 125.403   6
   5   8  -1 1962.16 125.019  15
  -8   5  -1 1758.05 125.011   9
   5   8  -1 1933.13 127.615  12
  -5  -8  -1 1719.63 128.033   6
   5   8  -1 1915.53 121.774   2
   8  -5  -1 1829.53 126.741   3
  -5  -8  -1 1863.88 125.991   9
  -5  -8  -1 1775.47 118.848  14
   8  -5  -1 1897.37 126.239  15
  -8   5  -1 1822.60 122.967  12
   5   8  -1 1829.45 125.901   3
   5   8   1 1697.32 119.524   8
   8  -5   1 1923.54 125.648   3
  -5  -8   1 1785.01 118.832  14
  -5  -8   1 1573.27 128.088   6
  -8   5   1 2015.56 120.972   5
   5   8   1 1822.02 127.189  12
   8  -5   1 1859.73 124.106  15
  -8   5   1 2085.35 127.905   9
  -6  -8  -1 362.361 42.5081   9
   6   8  -1 330.885 32.3662   2
  -8   6  -1 294.143 37.2872  12
   8  -6  -1 349.379 40.7171   6
   8  -6  -1 347.588 42.8392   3
   6   8  -1 339.829 39.4370  15
  -8   6  -1 383.405 41.1080   9
   8  -6  -1 339.054 41.6524  15
  -6  -8  -1 330.545 45.8720   6
   6   8  -1 309.063 44.6980  12
   6   8  -1 301.427 41.6094   3
   8  -6   1 355.257 39.3562  15
  -8   6   1 330.163 44.5327   9
  -6  -8   1 248.751 30.1122  14
  -6  -8   1 400.948 48.6096   6
   6   8   1 292.007 41.8413  12
   8  -6   1 417.658 43.1978   3
  -8   6   1 344.168 31.9682   5
   6   8   1 268.997 28.7862   2
   8  -7  -1 711.909 60.9761  15
   8  -7  -1 657.126 63.0496   6
  -8   7  -1 588.098 60.6807   9
  -7  -8  -1 622.087 60.2731   9
   7   8  -1 762.504 63.6056   3
  -8   7  -1 669.296 56.2583  12
   7   8  -1 652.809 63.1856  12
   8  -7  -1 651.413 65.6821   3
   7   8  -1 674.978 61.6049  15
  -7  -8  -1 571.672 62.1701   6
  -8   7   1 797.586 64.3327   9
   8  -7   1 728.137 59.7218  15
  -7  -8   1 672.391 66.3141   6
   7   8   1 573.065 60.5660  12
   8  -7   1 643.252 64.4705   3
  -8  -8  -1 289.921 48.6780   6
  -8  -8  -1 395.260 47.0927   9
  -8   8  -1 361.965 39.2214  12
   8  -8  -1 367.860 49.6129   3
   8   8  -1 317.211 44.4897   3
   8   8  -1 345.268 43.1048  15
   8   8  -1 369.722 50.9234  12
   8  -8  -1 363.472 47.1079  15
  -8   8  -1 332.129 44.5303   9
   8  -8  -1 369.819 45.9188   6
   8   8   1 298.880 46.9665  12
   8  -8   1 423.663 48.7883   3
   8  -8   1 441.038 45.6299  15
  -8  -8   1 331.944 53.4172   6
  -8   8   1 346.275 47.2181   9
   8  -9  -1 802.817 79.2794   3
   8  -9  -1 794.380 69.6246  15
  -8   9  -1 769.540 69.7927   9
  -8   9  -1 783.030 65.1720  12
  -9  -8  -1 727.807 71.7461   6
  -9  -8  -1 807.691 72.6490   9
   8  -9  -1 770.422 70.5413   6
   9   8  -1 775.607 68.6557  15
   9   8  -1 808.237 73.7481  12
   9   8  -1 731.626 72.4933   3
  -8   9   1 779.140 76.6537   9
   8  -9   1 740.079 71.4165  15
   9   8   1 869.484 75.3729  12
  -9  -8   1 693.957 74.5734   6
  -9  -7  -1 80.2334 41.5718   6
   7  -9  -1 31.1049 40.4566   3
  -7   9  -1 16.2314 31.7546   9
  -7   9  -1 65.0901 29.0756  12
   9   7  -1 0.16684 29.9927  15
   9   7  -1 2.34620 37.8859  12
   9   7  -1 48.4905 33.9610   3
   7  -9  -1 67.1016 36.7760  15
   7  -9  -1 43.7588 33.7562   6
  -9  -7  -1 101.076 37.1204   9
   9   6  -1 603.035 55.7774   3
  -6   9  -1 584.743 54.2800  12
   6  -9  -1 630.804 55.1207   6
   6  -9  -1 620.455 57.0351  15
   6  -9  -1 627.548 58.4541   3
  -6   9  -1 635.583 60.3148   9
  -9  -6  -1 613.471 59.2302   6
   6  -9  -1 616.556 55.5173   5
   9   6  -1 450.764 51.0475  15
  -9  -6  -1 496.489 55.3112   9
   9   6  -1 524.709 58.4496  12
   5  -9  -1 69.8073 34.3298   3
  -9  -5  -1 60.2625 24.1615   8
   9   5  -1 112.672 31.8591   3
   5  -9  -1 107.664 34.8025  15
   9   5  -1 149.479 31.9212  15
  -5   9  -1 79.8513 30.6386   9
   9   5  -1 101.862 21.2586  14
   5  -9  -1 40.3665 22.7447   5
  -9  -5  -1 92.3310 35.6866   6
  -5   9  -1 86.6306 27.3026  12
   9   5  -1 139.177 35.6267  12
  -9  -5  -1 136.379 35.0889   9
   5  -9  -1 59.6697 32.0715   6
   4  -9  -1 96.0736 25.4013   5
   4  -9  -1 126.304 33.4556   6
   9   4  -1 127.699 32.2680   3
  -9  -4  -1 114.566 34.5542   6
   9   4  -1 118.709 34.9973  12
   4  -9  -1 95.0027 33.5208  15
  -4   9  -1 135.030 31.5955   9
  -9  -4  -1 172.781 34.0079   9
  -9  -4  -1 145.069 26.1001   8
  -4   9  -1 140.422 29.3040  12
   9   4  -1 147.453 23.3778  14
   9   4  -1 182.506 31.9652  15
   4  -9  -1 183.743 35.5611   3
   4  -9   1 123.722 23.8669   6
   9   4   1 186.410 23.5940   3
  -9  -4   1 137.131 25.7094   8
  -9  -4   1 150.169 24.2969   9
   9   4   1 158.563 20.8959  15
   9   4   1 107.972 23.4359  14
  -9  -3  -1 219.821 34.7087   6
   9   3  -1 271.798 27.9542  14
   9   3  -1 250.035 36.3285  12
   3  -9  -1 218.717 35.0493   6
   3  -9  -1 141.196 34.6979   3
  -9  -3  -1 155.850 35.0325   9
   9   3  -1 249.396 33.2987  15
  -9  -3  -1 254.481 29.1549   8
   9   3  -1 237.995 35.4865   3
   3  -9  -1 104.214 28.8307   5
  -3   9  -1 170.670 32.7362   9
  -3   9  -1 187.605 24.3287  11
  -3   9  -1 210.378 31.4472  12
   3  -9  -1 255.379 34.2952  15
  -9  -3   1 153.352 27.0160   9
  -3   9   1 236.968 24.4672  12
   9   3   1 181.231 25.8251   3
   3  -9   1 280.119 28.4007   6
   9   3   1 187.186 23.1319  15
  -2   9  -1 512.708 46.3939  12
   2  -9  -1 375.855 47.3667   6
  -2   9  -1 489.633 40.3434  11
   9   2  -1 533.159 46.3544  15
   9   2  -1 552.075 45.5281  14
   9   2  -1 531.887 48.4220   3
   2  -9  -1 494.074 49.9947   5
   9   2  -1 549.594 46.9712  12
  -9  -2  -1 492.705 43.3462   8
   2  -9  -1 468.364 46.2332   3
  -9  -2  -1 527.141 46.5333   6
   2  -9  -1 495.070 45.9381  15
  -2   9  -1 492.760 45.3687   9
  -9  -2  -1 502.512 42.4123   2
  -9  -2  -1 503.641 47.1525   9
   2  -9   1 493.396 45.6185   6
  -9  -2   1 403.674 41.6614   9
   9   2   1 440.174 43.4647   3
  -2   9   1 529.027 43.2404  12
   9   2   1 449.516 41.4845  15
   9   1  -1 699.929 56.7937  14
   1  -9  -1 621.637 58.0039   6
   9   1  -1 773.693 61.7073   3
  -1   9  -1 632.907 60.5294  12
  -1   9  -1 614.266 55.0423   9
  -9  -1  -1 732.983 52.4918   2
  -9  -1  -1 781.163 60.4067   9
   1  -9  -1 549.426 55.9631   3
   9   1  -1 788.006 57.2292  12
   1  -9  -1 607.746 55.5617  15
  -9  -1  -1 810.186 58.0641   6
   1  -9  -1 557.547 59.9753   5
   9   1  -1 657.762 57.7667  15
   1  -9   1 780.792 57.0425   6
   9   1   1 596.912 51.1905  15
  -1   9   1 732.024 52.8595  12
   9   1   1 573.474 53.7880   3
  -9  -1   1 599.513 55.8318   9
  -9  -1   1 662.148 52.5985   2
   9   0  -1 1508.99 103.910   3
   9   0  -1 1570.19 100.408  12
   9   0  -1 1492.00 101.959  15
  -9   0  -1 1597.38 100.248   6
   0  -9  -1 1394.05 104.197   6
   0  -9  -1 1439.53 101.519  14
   0  -9  -1 1381.89 99.2855   3
  -9   0  -1 1515.29 98.6150   2
  -9   0  -1 1537.71 103.555   9
   0   9  -1 1444.79 103.386  12
   0  -9  -1 1350.27 99.4623  15
   0   9  -1 1350.14 99.4199   9
   0  -9   1 1641.17 102.645   6
   0   9   1 1510.73 99.8201  12
  -9   0   1 1453.14 102.091   9
   9   0   1 1407.69 98.6103  15
   9   0   1 1443.80 101.074   3
   9  -1  -1 639.941 59.9600   3
   1   9  -1 702.847 60.7602  12
  -9   1  -1 631.979 57.7116   9
   1   9  -1 694.207 53.5117   9
  -9   1  -1 755.461 54.5000   6
  -9   1  -1 644.248 58.2514   5
   9  -1  -1 728.977 54.3778  12
  -1  -9  -1 682.972 63.4502   6
   9  -1  -1 687.210 58.2744  11
  -1  -9  -1 604.389 52.3183   3
  -9   1  -1 623.042 54.0557   2
   1   9  -1 744.771 58.3468   8
   9  -1  -1 639.163 57.2120  15
  -1  -9  -1 625.754 52.5255  15
  -1  -9  -1 763.747 56.9047  14
   1   9   1 635.053 55.4619  12
   9  -1   1 670.481 56.9584   3
  -1  -9   1 724.330 62.1284   6
   9  -1   1 667.685 53.7170  15
  -9   1   1 611.760 59.5822   9
  -9   2  -1 436.434 46.8838   9
  -9   2  -1 542.624 43.4258   6
  -2  -9  -1 407.641 41.8856  15
   9  -2  -1 492.768 45.6857  15
   9  -2  -1 557.592 48.8343   3
  -2  -9  -1 361.764 39.4683   3
   9  -2  -1 490.741 42.6680  12
  -2  -9  -1 431.810 50.1058   6
   2   9  -1 494.618 47.0403   8
   9  -2  -1 479.465 41.1289  11
   2   9  -1 561.487 49.4198  12
  -9   2  -1 459.742 40.5963   5
   2   9  -1 418.550 41.6911   9
  -2  -9  -1 523.136 45.5704  14
   9  -2   1 565.432 44.2727  15
  -2  -9   1 463.325 47.5776   6
   9  -2   1 497.405 47.8239   3
  -9   2   1 564.498 48.9226   9
   2   9   1 457.780 43.5836  12
   3   9  -1 236.813 25.9733   9
  -9   3  -1 199.636 26.2826   5
  -3  -9  -1 264.596 40.7469   6
   9  -3  -1 179.825 35.1950   3
   9  -3  -1 212.514 25.8607  12
  -9   3  -1 226.330 25.9296   6
   3   9  -1 223.056 36.1179   3
   3   9  -1 275.100 38.0082  12
  -3  -9  -1 231.613 25.4458  15
  -3  -9  -1 253.884 27.9639  14
  -9   3  -1 180.147 34.3009   9
   3   9  -1 241.820 27.2941   8
   9  -3  -1 245.126 34.7515  15
  -9   3   1 208.391 29.7169   5
  -9   3   1 331.940 39.5438   9
   9  -3   1 308.164 32.2840  15
   9  -3   1 252.367 34.3460   3
   3   9   1 187.750 26.6431   8
  -3  -9   1 222.338 38.7714   6
  -3  -9   1 137.577 26.8219  14
   3   9   1 138.633 32.3290  12
  -4  -9  -1 114.615 23.0974  14
  -9   4  -1 106.041 32.4190   9
   4   9  -1 150.221 36.3781  12
   4   9  -1 92.5822 31.4525  15
  -4  -9  -1 127.096 36.1597   9
   9  -4  -1 159.019 34.5230   3
  -9   4  -1 138.016 20.9079   5
   4   9  -1 120.483 34.5291   3
   9  -4  -1 172.938 32.1976  15
  -9   4  -1 86.2295 30.9838  12
   9  -4  -1 158.206 33.9276   6
  -4  -9  -1 115.778 38.0028   6
   4   9   1 147.466 22.6383   8
  -9   4   1 152.592 37.5140   9
  -4  -9   1 144.482 23.6224  14
   4   9   1 131.500 32.4193  12
  -4  -9   1 140.571 36.0287   6
  -9   4   1 147.715 25.7031   5
   9  -4   1 113.897 29.5716  15
   9  -4   1 165.147 32.4590   3
   5   9  -1 161.708 33.2149  15
   5   9  -1 148.601 28.2563   2
  -9   5  -1 77.3443 28.0192  12
   5   9  -1 78.4935 33.6094  12
   9  -5  -1 117.697 34.7435   6
  -5  -9  -1 90.2575 20.9724  14
  -5  -9  -1 178.728 36.5306   9
   9  -5  -1 112.336 33.5337  15
   9  -5  -1 79.2126 34.6129   3
  -9   5  -1 74.0953 31.0472   9
   5   9  -1 108.381 34.5166   3
  -5  -9  -1 51.6238 38.0539   6
  -9   5   1 118.893 36.9259   9
  -5  -9   1 72.6933 38.6088   6
  -9   5   1 140.259 28.1795   5
   9  -5   1 144.187 30.7374  15
   5   9   1 67.4704 32.3465  12
   9  -5   1 87.3737 31.4317   3
   5   9   1 54.0746 24.9493   8
  -6  -9  -1 568.504 62.0916   6
   6   9  -1 569.966 55.2625  15
  -9   6  -1 551.467 55.7240  12
   6   9  -1 597.346 60.0545  12
   6   9  -1 603.605 56.7393   3
   9  -6  -1 693.577 58.0709  15
   9  -6  -1 601.733 56.4303   6
   6   9  -1 539.025 52.8048   2
   9  -6  -1 552.057 58.2470   3
  -9   6  -1 660.221 61.1425   9
  -6  -9  -1 582.275 58.0983   9
   6   9   1 516.526 55.9094  12
   9  -6   1 650.941 57.6404   3
   9  -6   1 657.497 55.8296  15
  -9   6   1 636.628 58.4731   9
  -6  -9   1 602.387 61.5611   6
  -7  -9  -1 43.4938 41.5463   6
   7   9  -1 22.8195 37.5010  12
   9  -7  -1 35.2911 34.7595   6
   7   9  -1 105.116 34.2872  15
   9  -7  -1 129.960 37.9827   3
   7   9  -1 70.3030 34.4850   3
  -9   7  -1 27.7977 28.4602  12
   9  -7  -1 30.0686 34.7708  15
  -9   7  -1 103.969 32.8802   9
  -7  -9  -1 25.9777 36.4098   9
   9  -7   1 19.2139 33.8833   3
   7   9   1 66.3054 37.3475  12
  -7  -9   1 56.9400 44.1438   6
   9  -7   1 61.1872 32.1357  15
  -9   7   1 89.6002 39.2652   9
  -9   8  -1 740.440 70.6900   9
   9  -8  -1 842.968 74.6280   3
   8   9  -1 716.817 68.3915  15
  -8  -9  -1 780.820 72.1627   9
   9  -8  -1 852.274 74.1784  15
   8   9  -1 685.942 71.5135   3
  -8  -9  -1 775.167 73.0487   6
  -9   8  -1 771.829 65.0655  12
   8   9  -1 726.945 70.1420  12
   9  -8  -1 745.575 70.4529   6
   8   9   1 702.059 70.9235  12
  -8  -9   1 783.220 76.4270   6
   9  -8   1 747.470 71.8789   3
   9  -8   1 788.268 66.9130  15
  -9   8   1 723.656 72.8238   9
   9  -9  -1 61.0914 39.7315  15
  -9  -9  -1 76.0422 43.4871   6
  -9   9  -1 94.9335 30.3308  12
   9   9  -1 65.2984 38.8545   3
   9   9  -1 47.1692 35.0783  15
  -9  -9  -1 69.5120 43.0142   9
   9   9  -1 167.303 45.8017  12
   9  -9  -1 69.5539 36.0974   6
   9  -9  -1 56.9388 41.4778   3
  -9   9  -1 16.7287 33.9453   9
   9   9   1 112.321 44.6368  12
  -9   9   1 -32.963 39.2201   9
   9  -9   1 101.987 37.2222  15
   9  -9   1 19.1150 37.7105   3
  -9  -9   1 41.7587 48.9578   6
  -9  10  -1 17.5992 35.5316   9
  10   9  -1 31.5513 39.8109   3
   9 -10  -1 -27.344 46.4084   3
  10   9  -1 -18.323 36.4031  15
 -10  -9  -1 30.5960 42.0631   9
   9 -10  -1 36.1809 37.4744   6
   9 -10  -1 19.1094 41.4504  15
  -9  10  -1 2.29388 29.9798  12
  10   9  -1 -33.053 42.1736  12
 -10  -9  -1 -44.862 43.0770   6
   9 -10   1 21.0511 38.1753   3
 -10  -9   1 16.7028 47.1914   6
  10   9   1 8.67719 44.5307  12
  -9  10   1 55.9684 40.6152   9
   9 -10   1 0.54251 35.4880  15
 -10  -8  -1 858.283 86.8041   6
   8 -10  -1 862.984 85.9232   3
  10   8  -1 960.478 79.3927  15
   8 -10  -1 972.606 81.0317   6
  10   8  -1 1005.29 83.7341   3
 -10  -8  -1 929.213 82.6958   9
  -8  10  -1 946.803 74.5532  12
   8 -10  -1 811.919 83.0156  15
  -8  10  -1 932.957 81.6884   9
  10   8  -1 933.163 88.2222  12
  10   8   1 1070.21 86.2045  12
   8 -10   1 965.391 81.9935  15
 -10  -8   1 952.568 91.6706   6
  -8  10   1 917.919 83.0057   9
 -10  -7  -1 653.381 66.5707   9
   7 -10  -1 805.208 76.3843   3
 -10  -7  -1 781.931 70.6382   6
   7 -10  -1 788.169 69.3553  15
  10   7  -1 754.337 67.6022  15
  10   7  -1 722.363 71.2563  12
  -7  10  -1 655.883 64.6414   9
  10   7  -1 688.582 70.1225   3
   7 -10  -1 707.007 69.4705   6
  -7  10  -1 687.913 63.7891  12
  10   6  -1 159.182 35.0650  15
 -10  -6  -1 169.821 41.9312   9
   6 -10  -1 160.483 42.6469   3
 -10  -6  -1 234.747 44.6728   6
  -6  10  -1 134.482 36.6136   9
  10   6  -1 177.326 44.0576  12
  10   6  -1 182.203 39.2230   3
   6 -10  -1 186.597 38.5687   6
  -6  10  -1 156.421 33.8025  12
   6 -10  -1 112.704 39.6243  15
 -10  -5  -1 271.868 42.3702   9
   5 -10  -1 207.087 43.3904   3
  10   5  -1 293.488 43.0039  12
   5 -10  -1 149.151 40.2681   6
   5 -10  -1 279.285 43.0800  15
 -10  -5  -1 250.801 32.4933   8
  10   5  -1 289.170 38.3315  15
   5 -10  -1 180.379 30.4693   5
  -5  10  -1 238.698 36.6710  12
  10   5  -1 267.945 40.3722   3
  -5  10  -1 237.270 39.1581   9
 -10  -5  -1 369.540 45.4344   6
 -10  -4  -1 730.193 60.3981   8
  10   4  -1 821.118 71.2953  12
  -4  10  -1 656.333 66.6948   9
  -4  10  -1 755.141 62.9240  12
  10   4  -1 668.648 65.1083  15
   4 -10  -1 793.556 68.5214   3
 -10  -4  -1 725.005 66.8550   6
   4 -10  -1 679.699 60.7540   5
 -10  -4  -1 710.796 66.8935   9
   4 -10  -1 755.878 66.0580   6
  10   4  -1 737.672 56.4607  14
  10   4  -1 731.067 66.8893   3
   4 -10  -1 732.829 67.0038  15
  10   4   1 727.015 57.3332   3
  -3  10  -1 1189.08 89.3232  11
 -10  -3  -1 1347.80 96.9185   6
   3 -10  -1 1459.94 98.7030   6
  -3  10  -1 1325.69 95.1791  12
 -10  -3  -1 1296.53 97.2141   9
   3 -10  -1 1206.39 92.8182   5
 -10  -3  -1 1330.52 92.6801   8
   3 -10  -1 1220.15 94.9408  15
  10   3  -1 1353.60 95.3728  15
   3 -10  -1 1188.27 95.6925   3
  10   3  -1 1343.33 90.2707  14
  10   3  -1 1268.17 96.1345   3
  -3  10  -1 1312.17 95.0204   9
  10   3  -1 1345.20 98.2170  12
  10   3   1 1356.52 87.9595  15
   3 -10   1 1372.14 90.9460   6
 -10  -3   1 1265.15 90.4098   9
  10   3   1 1362.02 90.4935   3
  10   2  -1 1186.59 89.0860   3
   2 -10  -1 1170.83 86.5456  15
  -2  10  -1 1093.91 86.4761  12
 -10  -2  -1 1265.91 89.3199   9
   2 -10  -1 1134.35 86.2229   3
 -10  -2  -1 1152.17 79.8811   2
 -10  -2  -1 1155.47 85.8435   8
  10   2  -1 1193.24 88.0005  12
   2 -10  -1 1008.89 88.1910   6
  10   2  -1 1244.13 86.8281  15
  -2  10  -1 1177.36 86.2960   9
  10   2  -1 1163.83 83.9328  14
   2 -10  -1 1194.35 86.1882   5
 -10  -2  -1 1247.73 88.2000   6
   2 -10   1 1310.91 84.1088   6
  10   2   1 1109.73 80.7955  15
 -10  -2   1 1076.38 83.2534   9
  -2  10   1 1167.17 82.1136  12
  10   2   1 1129.23 82.8403   3
  -1  10  -1 646.782 56.6548  12
   1 -10  -1 568.481 55.5427   5
   1 -10  -1 615.596 57.1972   3
   1 -10  -1 619.480 53.3843  15
 -10  -1  -1 680.991 60.5550   9
  10   1  -1 665.153 57.1191  12
 -10  -1  -1 589.238 50.6146   2
  -1  10  -1 537.381 54.5870   9
   1 -10  -1 628.019 58.9100   6
 -10  -1  -1 726.787 58.3594   6
  10   1  -1 619.840 58.8218  15
  10   1  -1 631.472 60.2981   3
 -10  -1   1 617.849 50.5142   2
  -1  10   1 675.325 53.3735  12
 -10  -1   1 520.195 52.6996   9
   1 -10   1 732.139 56.7726   6
  10   1   1 588.437 54.5719   3
  10   1   1 599.753 51.5801  15
 -10   0  -1 16.9079 25.2416   6
  10   0  -1 -12.823 26.3305  15
   0  10  -1 -28.692 28.4104  12
  10   0  -1 -23.687 26.1814  12
   0 -10  -1 16.2467 32.3130   6
   0 -10  -1 16.8030 25.9080   3
  10   0  -1 24.1670 29.5735   3
 -10   0  -1 -8.0238 20.1420   2
 -10   0  -1 3.18539 29.7098   9
   0 -10  -1 73.9776 27.6348  15
   0  10  -1 17.6277 25.9187   9
   0 -10   1 25.0860 28.0310   6
  10   0   1 -21.248 21.3851  15
  10   0   1 16.9404 23.8508   3
 -10   0   1 -7.2723 29.5971   9
   0  10   1 1.05060 24.0928  12
  -1 -10  -1 633.435 58.7174   6
  10  -1  -1 543.575 53.1856  15
 -10   1  -1 583.292 56.9129   9
 -10   1  -1 532.756 51.8212   2
   1  10  -1 632.839 60.9786  12
  10  -1  -1 620.166 60.9480   3
  -1 -10  -1 585.846 50.4928   3
  -1 -10  -1 585.939 54.7740  14
  10  -1  -1 616.612 50.9653  11
   1  10  -1 583.096 52.1471   9
 -10   1  -1 662.705 57.0312   5
  10  -1  -1 647.515 53.2907  12
  -1 -10  -1 589.104 51.1754  15
 -10   1  -1 700.657 54.5192   6
   1  10   1 552.382 53.6384  12
  10  -1   1 635.443 53.7870  15
 -10   1   1 571.589 57.3480   9
  -1 -10   1 649.607 59.4216   6
  10  -1   1 651.897 57.5859   3
  10  -2  -1 1375.50 84.7047  12
  -2 -10  -1 1190.42 93.1301   6
   2  10  -1 1120.17 83.5451   9
  -2 -10  -1 1208.29 84.9274  14
  -2 -10  -1 1026.92 83.0218  15
  10  -2  -1 1153.74 88.2926  15
 -10   2  -1 1253.53 85.1226   5
   2  10  -1 1153.94 90.6704  12
  10  -2  -1 1279.01 86.3933  11
  10  -2  -1 1218.64 91.2052   3
 -10   2  -1 1278.67 84.3239   6
 -10   2  -1 1154.77 90.7712   9
   2  10  -1 1181.62 85.9753   8
 -10   2   1 1116.97 89.8311   9
  -2 -10   1 1161.76 91.7808   6
  10  -2   1 1322.87 86.7957  15
   2  10   1 1131.80 86.2471  12
  10  -2   1 1252.96 88.9639   3
 -10   3  -1 1397.59 97.3723   9
  10  -3  -1 1331.36 99.5312   3
   3  10  -1 1308.54 91.8550   8
 -10   3  -1 1449.34 91.5818   5
  -3 -10  -1 1259.74 102.017   6
  -3 -10  -1 1347.31 90.9577  14
   3  10  -1 1358.21 98.5907  12
  10  -3  -1 1307.20 97.0520  15
   3  10   1 1248.17 96.6040  12
 -10   3   1 1255.48 98.6995   9
  10  -3   1 1387.23 97.7321   3
  -3 -10   1 1241.84 98.8245   6
  -3 -10   1 1289.18 91.5666  14
  10  -3   1 1371.22 94.8188  15
   3  10   1 1279.12 91.8332   8
 -10   3   1 1374.43 93.7926   5
  10  -4  -1 727.881 65.3971  15
   4  10  -1 695.561 68.5915   3
   4  10  -1 802.755 57.5747   8
  -4 -10  -1 673.703 56.9722  14
  -4 -10  -1 735.519 72.3402   6
 -10   4  -1 687.986 65.2627   9
 -10   4  -1 771.345 55.7557   5
  10  -4  -1 681.909 67.8917   3
   4  10  -1 722.252 69.0672  12
 -10   4   1 838.747 70.5981   9
  10  -4   1 753.138 63.5027  15
   4  10   1 625.179 61.3947  12
  10  -4   1 799.126 68.3522   3
  -4 -10   1 764.379 72.6418   6
   5  10  -1 249.832 45.2439  12
 -10   5  -1 266.249 40.5943   9
 -10   5  -1 260.295 38.4294  12
  10  -5  -1 259.113 42.5701   3
  -5 -10  -1 333.168 47.7143   6
  -5 -10  -1 314.661 44.7915   9
  10  -5  -1 263.186 41.8272   6
   5  10  -1 214.780 41.9978   3
   5  10  -1 297.924 39.4931  15
  10  -5  -1 251.982 40.5327  15
   5  10   1 214.851 38.9565  12
  10  -5   1 361.969 42.0662   3
  -5 -10   1 200.496 45.1968   6
  10  -5   1 323.158 38.7683  15
 -10   5   1 335.605 46.6175   9
  10  -6  -1 119.350 39.2493   3
  10  -6  -1 171.052 37.9336   6
 -10   6  -1 248.440 36.1929  12
   6  10  -1 190.301 31.5178   2
 -10   6  -1 154.626 37.5118   9
   6  10  -1 117.901 42.7000  12
  -6 -10  -1 233.825 42.3542   9
   6  10  -1 232.348 40.0957   3
   6  10  -1 165.834 36.8543  15
  10  -6  -1 151.357 38.7453  15
  -6 -10  -1 185.753 46.7766   6
  10  -6   1 252.974 37.6022  15
  10  -6   1 236.159 40.2828   3
   6  10   1 128.973 38.3359  12
 -10   6   1 191.177 43.1505   9
  -6 -10   1 129.217 46.6269   6
 -10   7  -1 761.383 65.4220   9
  10  -7  -1 653.237 65.1523   3
  -7 -10  -1 692.434 69.2574   6
 -10   7  -1 678.730 63.3111  12
   7  10  -1 756.805 68.2069   3
  10  -7  -1 625.402 63.3086  15
  10  -7  -1 667.394 67.1711   6
   7  10  -1 634.257 61.4721  15
  -7 -10  -1 748.507 66.7656   9
   7  10  -1 616.965 67.1191  12
  -7 -10   1 588.601 68.0877   6
  10  -7   1 740.182 63.6635  15
  10  -7   1 690.169 68.7682   3
   7  10   1 649.425 65.6216  12
 -10   7   1 751.110 68.1452   9
   8  10  -1 967.438 89.0537  12
  10  -8  -1 1084.31 83.8390   6
  -8 -10  -1 999.954 88.0406   9
 -10   8  -1 1017.06 81.3579   9
  -8 -10  -1 874.216 89.1171   6
   8  10  -1 965.688 85.2106   3
   8  10  -1 965.646 81.4953  15
 -10   8  -1 1013.96 78.0255  12
  10  -8  -1 1153.90 88.2042   3
  10  -8  -1 1040.22 86.7092  15
  10  -8   1 1016.60 84.1576  15
  10  -8   1 884.153 84.9890   3
  -8 -10   1 891.467 86.2501   6
   8  10   1 933.274 86.5988  12
 -10   8   1 919.702 88.4821   9
   9  10  -1 32.0213 40.0848   3
 -10   9  -1 60.4368 36.6150   9
  10  -9  -1 -17.393 38.0744   6
  -9 -10  -1 21.0506 43.2495   9
   9  10  -1 -23.383 35.7218  15
  10  -9  -1 80.0582 42.8362   3
 -10   9  -1 26.6731 30.1593  12
  -9 -10  -1 -51.837 46.3753   6
   9  10  -1 -75.346 42.5824  12
  10  -9  -1 -61.700 39.8188  15
 -10   9   1 -2.0496 40.3685   9
  -9 -10   1 -29.371 49.3597   6
   9  10   1 22.1524 43.3454  12
  10  -9   1 -54.708 34.9451  15
  10  -9   1 28.5930 37.7212   3
  10  10  -1 210.805 43.8830  15
 -10  10  -1 258.388 45.1198   9
 -10 -10  -1 285.419 52.2118   9
 -10 -10  -1 253.167 52.3161   6
  10 -10  -1 258.135 51.2800   3
  10  10  -1 191.849 46.5082   3
  10  10  -1 152.752 52.9170  12
 -10  10  -1 202.167 38.5419  12
  10 -10  -1 244.339 44.3357   6
  10 -10  -1 169.435 46.9731  15
 -10  10   1 204.001 47.3523   9
  10 -10   1 236.134 46.5633   3
  10  10   1 187.518 48.2131  12
  10 -10   1 264.076 45.5365  15
 -10 -10   1 145.784 56.0381   6
 -11 -10  -1 19.7667 50.0011   6
  11  10  -1 -32.542 38.1801  15
 -11 -10  -1 59.3171 49.3707   9
  10 -11  -1 52.5769 38.1737   6
  10 -11  -1 51.8699 48.3323   3
 -10  11  -1 37.4604 32.8093  12
  10 -11  -1 -24.876 43.3911  15
  11  10  -1 -16.107 49.1786  12
 -10  11  -1 -24.831 37.4778   9
  11  10  -1 27.7251 43.6520   3
  11  10   1 14.2362 45.7753  12
  10 -11   1 15.6279 42.1148   3
 -11 -10   1 82.4453 52.7606   6
 -10  11   1 -62.091 40.9492   9
  10 -11   1 -33.278 38.1374  15
  11   9  -1 153.674 44.4661   3
   9 -11  -1 97.3989 45.9776  15
  -9  11  -1 89.9003 41.3048   9
 -11  -9  -1 61.3363 48.1818   6
  11   9  -1 109.957 49.1308  12
  -9  11  -1 125.061 34.0331  12
 -11  -9  -1 168.290 47.6526   9
   9 -11  -1 94.1568 51.2162   3
   9 -11  -1 105.992 40.0506   6
  11   9  -1 77.4091 39.0520  15
   9 -11   1 141.836 44.8666   3
   9 -11   1 154.357 41.8144  15
  11   9   1 78.1322 47.9986  12
 -11  -9   1 108.325 56.0930   6
  -9  11   1 121.158 43.7596   9
  11   8  -1 602.109 60.5591  15
 -11  -8  -1 712.756 69.5373   6
   8 -11  -1 647.932 69.4548   3
 -11  -8  -1 655.993 67.3273   9
  11   8  -1 637.035 63.7257   3
   8 -11  -1 702.034 68.2248  15
  -8  11  -1 712.161 60.4308  12
  -8  11  -1 671.323 65.0224   9
  11   8  -1 719.121 72.7278  12
   8 -11  -1 697.932 62.8362   6
   8 -11   1 630.105 64.0301  15
 -11  -8   1 608.758 71.3904   6
  11   8   1 568.885 65.6035  12
  -8  11   1 513.849 64.0791   9
  11   7  -1 244.567 44.6064   3
   7 -11  -1 206.270 50.2659   3
  -7  11  -1 261.222 38.1502  12
   7 -11  -1 298.883 50.4083  15
 -11  -7  -1 239.105 47.6963   9
   7 -11  -1 264.115 43.7483   6
  -7  11  -1 374.580 47.0075   9
  11   7  -1 175.042 39.9334  15
  11   7  -1 178.101 49.0220  12
 -11  -7  -1 203.066 47.7661   6
   7 -11   1 168.189 43.8691  15
   6 -11  -1 924.448 80.9671   6
  -6  11  -1 963.389 77.6167  12
  11   6  -1 968.032 87.2232  12
  11   6  -1 1061.23 85.2631   3
 -11  -6  -1 979.493 87.5040   6
   6 -11  -1 1038.14 87.9704   3
  -6  11  -1 975.358 83.6309   9
  11   6  -1 1008.21 83.0848  15
   6 -11  -1 995.311 85.1653  15
 -11  -6  -1 1008.63 84.9013   9
  11   5  -1 507.652 58.5474  12
  -5  11  -1 647.395 58.0447   9
  -5  11  -1 678.840 55.1199  12
   5 -11  -1 554.270 55.2749   6
   5 -11  -1 545.353 59.0051  15
 -11  -5  -1 540.621 57.6051   6
  11   5  -1 497.943 53.3979  15
 -11  -5  -1 501.235 57.4952   9
   5 -11  -1 534.208 59.5140   3
  11   5  -1 455.402 54.8155   3
  -4  11  -1 186.068 38.7646   9
   4 -11  -1 140.678 30.7253   5
  -4  11  -1 233.098 36.0903  12
 -11  -4  -1 140.718 30.1062   8
   4 -11  -1 241.668 39.1206   6
 -11  -4  -1 249.581 41.2107   6
  11   4  -1 150.350 43.1101  12
   4 -11  -1 220.280 43.9694   3
  11   4  -1 231.489 36.6224  15
 -11  -4  -1 175.435 41.6878   9
  11   4  -1 197.986 38.8815   3
   4 -11  -1 119.617 40.2161  15
  11   3  -1 223.658 36.4422  15
  -3  11  -1 238.345 27.8481  11
  11   3  -1 273.328 42.8651  12
 -11  -3  -1 180.412 41.1762   9
   3 -11  -1 177.542 39.6646   6
   3 -11  -1 233.347 39.5795  15
   3 -11  -1 227.750 34.0774   5
  11   3  -1 213.766 39.6647   3
   3 -11  -1 263.859 41.8781   3
  11   3  -1 198.406 30.8278  14
  -3  11  -1 250.620 39.6113   9
  -3  11  -1 275.990 37.5853  12
 -11  -3  -1 168.400 38.6653   6
 -11  -3  -1 193.412 31.7580   8
  11   3   1 236.402 32.5382   3
   3 -11   1 247.020 34.0133   6
  11   3   1 223.838 40.1197  15
   2 -11  -1 700.763 62.9488   6
 -11  -2  -1 582.830 61.3178   8
  11   2  -1 716.252 65.8627  12
 -11  -2  -1 662.957 65.0294   6
  11   2  -1 738.541 64.4386  15
 -11  -2  -1 680.439 66.3635   9
   2 -11  -1 740.419 60.3291  15
  11   2  -1 664.674 66.2730   3
   2 -11  -1 643.046 62.4735   5
  11   2  -1 669.317 59.1979  14
   2 -11  -1 659.105 64.2465   3
  -2  11  -1 685.924 63.2920  12
  -2  11  -1 644.435 62.5018   9
   2 -11   1 743.604 59.7980   6
  11   2   1 638.034 54.8324  15
 -11  -2   1 570.250 59.4574   9
  11   2   1 755.011 59.2803   3
  -2  11   1 622.664 57.0874  12
  -1  11  -1 597.807 58.0124   9
  -1  11  -1 669.872 59.1812  12
   1 -11  -1 684.115 56.1900   3
   1 -11  -1 648.148 59.3882  15
 -11  -1  -1 629.969 60.1446   6
  11   1  -1 697.987 63.0261   3
 -11  -1  -1 657.885 59.1069   9
 -11  -1  -1 594.774 51.1805   2
  11   1  -1 584.899 55.8140  15
  11   1  -1 707.274 60.2082  12
   1 -11  -1 464.792 58.5421   6
   1 -11   1 656.994 58.7989   6
  -1  11   1 611.688 56.6887  12
  11   1   1 603.513 57.5366   3
 -11  -1   1 598.010 55.3207   9
  11   1   1 531.139 53.0643  15
  11   0  -1 866.385 73.7639  15
   0  11  -1 893.375 70.2346   9
  11   0  -1 990.779 71.8075  12
   0  11  -1 943.724 78.0202  12
  11   0  -1 874.978 75.6050   3
 -11   0  -1 971.027 72.9075   6
   0 -11  -1 767.993 69.9156   3
   0 -11  -1 956.597 77.8527   6
 -11   0  -1 899.876 77.8173   9
 -11   0  -1 895.806 66.9513   2
   0 -11  -1 785.185 71.1990  15
   0  11   1 893.268 69.9241  12
  11   0   1 854.230 72.5001   3
  11   0   1 951.630 69.2212  15
 -11   0   1 851.450 73.8802   9
   0 -11   1 976.190 74.7507   6
 -11   1  -1 636.932 57.7817   9
  -1 -11  -1 588.837 55.0209  15
  -1 -11  -1 565.849 56.4416  14
   1  11  -1 554.587 54.7568   9
 -11   1  -1 589.049 56.2223   6
  11  -1  -1 519.901 54.7815  15
 -11   1  -1 589.553 52.8990   2
  11  -1  -1 696.330 62.8447   3
  -1 -11  -1 628.309 61.1322   6
   1  11  -1 688.368 64.3155  12
  11  -1  -1 643.615 57.5246  12
 -11   1  -1 641.032 59.1734   5
 -11   1   1 576.538 57.6339   9
   1  11   1 623.336 57.4579  12
  11  -1   1 661.281 59.5601   3
  11  -1   1 660.437 56.5644  15
  -1 -11   1 589.294 56.7570   6
  -2 -11  -1 674.987 66.2459   6
  -2 -11  -1 684.179 57.0656  14
  11  -2  -1 674.941 66.6435   3
   2  11  -1 587.376 56.4384   9
 -11   2  -1 732.068 60.6436   6
   2  11  -1 636.410 60.2674   8
 -11   2  -1 717.178 59.0781   5
   2  11  -1 675.329 65.8119  12
  11  -2  -1 758.453 60.9100  12
 -11   2  -1 711.888 64.5160   9
  11  -2  -1 711.882 62.6593  15
  11  -2  -1 754.412 60.5671  11
  11  -2   1 660.240 66.2219   3
  -2 -11   1 658.233 62.4563   6
  11  -2   1 654.203 60.6808  15
   2  11   1 677.416 62.5690  12
 -11   2   1 697.864 62.6446   9
  11  -3  -1 229.519 41.0666   3
  -3 -11  -1 178.125 46.2125   6
 -11   3  -1 277.050 39.7128   5
   3  11  -1 216.015 42.0816  12
  -3 -11  -1 192.449 29.6090  14
 -11   3  -1 237.423 40.0840   9
   3  11  -1 214.754 38.1087   8
  11  -3  -1 224.441 38.3512  15
  11  -3   1 242.097 35.7554  15
 -11   3   1 267.592 44.4159   9
  11  -3   1 247.572 40.1289   3
  -3 -11   1 307.555 44.8711   6
   3  11   1 193.512 37.5377  12
  11  -4  -1 221.991 38.3809  15
  -4 -11  -1 220.381 45.1505   6
 -11   4  -1 178.960 38.5529   9
   4  11  -1 175.300 39.5904  12
  11  -4  -1 227.642 41.1446   3
   4  11   1 151.354 36.9298  12
 -11   4   1 157.756 42.4493   9
  11  -4   1 174.200 34.5150  15
  -4 -11   1 156.506 41.6954   6
  11  -4   1 174.023 38.8717   3
   5  11  -1 554.585 61.6427  12
   5  11  -1 467.248 56.5111   3
  11  -5  -1 597.758 59.4860   3
 -11   5  -1 599.355 57.2711   9
  11  -5  -1 577.155 56.4812  15
  -5 -11  -1 455.044 61.7067   6
  11  -5   1 606.989 55.8708  15
  -5 -11   1 596.109 62.4943   6
  11  -5   1 684.120 59.2737   3
 -11   5   1 581.189 61.2516   9
   5  11   1 484.767 55.2718  12
  11  -6  -1 1018.95 86.5601  15
  11  -6  -1 997.258 85.8748   6
  -6 -11  -1 1139.65 87.7643   9
  11  -6  -1 1018.95 87.9570   3
 -11   6  -1 1088.92 86.6882   9
 -11   6  -1 1132.82 80.6226  12
   6  11  -1 1030.38 89.9212  12
  -6 -11  -1 952.223 92.4980   6
   6  11  -1 1007.75 84.9721   3
   6  11   1 931.067 87.7601  12
  11  -6   1 993.057 84.4942  15
 -11   6   1 1191.21 92.5801   9
  -6 -11   1 934.416 90.6323   6
  11  -6   1 994.765 86.8932   3
  -7 -11  -1 164.697 46.5904   9
 -11   7  -1 293.840 43.8404   9
  11  -7  -1 149.886 44.1220   3
  11  -7  -1 240.803 44.7514   6
   7  11  -1 268.253 45.1333   3
 -11   7  -1 250.814 39.1690  12
   7  11  -1 212.303 41.8683  15
   7  11  -1 150.797 48.5511  12
  -7 -11  -1 265.812 51.9662   6
  11  -7  -1 206.830 42.7899  15
   7  11   1 234.405 45.5221  12
  -7 -11   1 180.099 51.3484   6
  11  -7   1 252.342 45.4308   3
  11  -7   1 269.574 42.9518  15
 -11   7   1 246.783 49.6406   9
   8  11  -1 739.421 71.7828  12
  11  -8  -1 789.390 71.0204   3
  11  -8  -1 797.800 68.6594  15
 -11   8  -1 686.821 64.8526   9
 -11   8  -1 637.832 61.8361  12
  -8 -11  -1 520.594 70.7190   6
   8  11  -1 662.553 65.3940   3
  -8 -11  -1 636.634 67.9309   9
   8  11  -1 627.577 62.8031  15
  11  -8  -1 718.065 69.5154   6
   8  11   1 580.420 66.6617  12
  -8 -11   1 664.606 72.2414   6
  11  -8   1 771.369 68.1891   3
  11  -8   1 682.492 64.0456  15
 -11   8   1 639.713 68.8547   9
   9  11  -1 168.323 44.9530   3
   9  11  -1 134.809 43.0406  15
 -11   9  -1 145.289 39.0524   9
  11  -9  -1 39.4776 43.6381   3
  -9 -11  -1 126.467 48.2825   6
   9  11  -1 87.8643 49.7836  12
  11  -9  -1 73.9794 43.1274  15
 -11   9  -1 112.484 34.2065  12
  -9 -11  -1 157.458 49.8592   9
  11  -9  -1 157.470 40.6862   6
   9  11   1 71.1703 45.3648  12
  11  -9   1 86.6824 40.1099  15
 -11   9   1 59.5965 46.2337   9
  11  -9   1 174.290 44.3210   3
  -9 -11   1 121.726 51.4813   6
 -11  10  -1 24.3216 37.4694   9
  10  11  -1 25.9989 48.0120  12
  10  11  -1 39.9686 39.1685  15
 -11  10  -1 -2.7731 32.0166  12
 -10 -11  -1 3.76294 48.2050   6
 -10 -11  -1 51.7285 46.6381   9
  11 -10  -1 41.9005 45.4412   3
  11 -10  -1 -22.025 38.1903   6
  11 -10  -1 68.5383 44.7347  15
  10  11  -1 23.8416 41.3659   3
  10  11   1 80.4204 44.4676  12
  11 -10   1 -57.845 40.1726   3
 -10 -11   1 -17.196 47.8224   6
 -11  10   1 92.4285 46.0691   9
  11 -10   1 68.0077 40.0747  15
  11  11  -1 579.681 71.2119  12
  11 -11  -1 702.940 68.5482  15
  11  11  -1 530.045 66.0276   3
 -11  11  -1 632.736 64.5569   9
 -11  11  -1 630.738 76.3696  12
  11  11  -1 643.334 77.4410  15
  11 -11  -1 633.954 71.2284   3
  11 -11  -1 538.745 60.4419   6
 -11 -11  -1 471.793 68.8014   6
 -11 -11  -1 608.677 68.3685   9
  11  11   1 492.830 67.0368  12
  11 -11   1 514.906 63.0238  15
 -11  11   1 574.852 68.0153   9
 -11 -11   1 465.529 70.5360   6
  11 -11   1 601.729 66.4572   3
 -12 -11  -1 439.714 73.7262   9
  11 -12  -1 314.095 64.2335   3
  12  11  -1 420.190 68.0574  12
  11 -12  -1 400.366 54.5772   6
 -12 -11  -1 431.279 64.5579   6
 -11  12  -1 377.595 55.1374   9
  11 -12  -1 364.647 61.5657  15
  12  11   1 295.591 60.2516  12
  11 -12   1 315.613 57.2690   3
  11 -12   1 492.902 59.2886  15
 -12 -11   1 338.983 64.7953   6
 -11  12   1 375.371 59.8622   9
 -12 -10  -1 16.5987 50.6644   9
 -12 -10  -1 172.407 55.9901   6
  10 -12  -1 133.028 49.0603  15
  10 -12  -1 75.2533 51.2298   3
  10 -12  -1 47.0681 41.8849   6
 -10  12  -1 12.2670 44.9361  12
  12  10  -1 124.446 46.7174  15
  12  10  -1 169.587 55.7247  12
 -10  12  -1 3.88447 40.3440   9
  12  10  -1 13.9108 45.9616   3
 -12 -10   1 30.8562 55.0030   6
 -10  12   1 112.157 45.5884   9
  10 -12   1 27.7882 42.6107  15
  10 -12   1 69.2472 45.9336   3
  12  10   1 44.2540 49.8743  12
  12   9  -1 207.286 44.8889  15
  -9  12  -1 166.681 43.9638   9
   9 -12  -1 184.620 50.7517  15
  -9  12  -1 231.165 38.2903  12
  12   9  -1 144.423 46.9177   3
 -12  -9  -1 157.269 51.3084   9
  12   9  -1 189.042 55.5990  12
   9 -12  -1 305.881 58.4065   3
 -12  -9  -1 122.304 50.5456   6
   9 -12  -1 138.626 43.3736   6
  -9  12   1 120.491 46.7512   9
   9 -12   1 178.245 48.2547   3
 -12  -9   1 178.697 55.4410   6
  12   9   1 195.703 52.8657  12
   9 -12   1 217.266 46.9220  15
  12   8  -1 202.317 54.1226  12
  -8  12  -1 187.228 38.8524  12
   8 -12  -1 198.611 51.4574  15
 -12  -8  -1 185.818 48.9874   9
  12   8  -1 197.372 41.9682  15
  -8  12  -1 132.459 43.3367   9
   8 -12  -1 193.460 54.0283   3
   8 -12  -1 130.972 44.0232   6
 -12  -8  -1 188.501 51.0446   6
  12   8  -1 212.018 46.3336   3
   8 -12   1 153.881 48.2411   3
 -12  -8   1 198.569 56.8265   6
   8 -12   1 183.746 45.2488  15
  12   8   1 134.650 48.9052  12
  -8  12   1 211.956 47.0364   9
   7 -12  -1 283.518 52.2210  15
  12   7  -1 273.179 49.9195   3
  12   7  -1 335.357 55.8529  12
  12   7  -1 262.178 45.6677  15
 -12  -7  -1 253.713 52.6592   9
 -12  -7  -1 162.856 53.8678   6
  -7  12  -1 393.482 42.3208  12
   7 -12  -1 336.992 55.8160   3
  -7  12  -1 323.346 48.6101   9
   7 -12  -1 315.432 48.4689   6
   7 -12   1 306.353 50.3438  15
 -12  -7   1 391.150 59.3430   6
   6 -12  -1 467.701 54.1451   6
   6 -12  -1 403.534 57.5668  15
  -6  12  -1 425.336 54.4127   9
  12   6  -1 354.898 51.1191  15
  12   6  -1 485.570 59.1301  12
  -6  12  -1 482.489 50.0494  12
   6 -12  -1 395.271 59.1906   3
 -12  -6  -1 449.367 57.6771   9
  12   6  -1 424.383 53.4775   3
 -12  -6  -1 471.779 58.6393   6
   5 -12  -1 798.753 71.3176   3
  12   5  -1 543.974 61.7049  15
  -5  12  -1 770.597 67.7397  12
  -5  12  -1 736.092 66.7893   9
 -12  -5  -1 760.020 69.3834   6
   5 -12  -1 871.871 70.1915  15
  12   5  -1 555.134 64.1572   3
  12   5  -1 671.045 70.2044  12
   5 -12  -1 683.946 68.0686   6
 -12  -5  -1 652.984 67.7881   9
   4 -12  -1 278.237 47.8765  15
   4 -12  -1 266.570 47.1950   6
  12   4  -1 285.038 48.5720  12
  12   4  -1 378.167 47.9214   3
  -4  12  -1 285.796 45.6633   9
  12   4  -1 334.912 44.2815  15
   4 -12  -1 353.405 50.6860   3
 -12  -4  -1 295.119 49.3383   9
  -4  12  -1 322.848 44.0381  12
 -12  -4  -1 321.068 48.3718   6
 -12  -3  -1 37.0365 27.7356   8
  12   3  -1 23.7163 35.3229   3
   3 -12  -1 7.78416 37.8304  15
  12   3  -1 29.5473 40.0759  12
   3 -12  -1 24.8553 30.1761   5
  -3  12  -1 -15.579 31.3255  12
   3 -12  -1 13.2422 36.4606   6
   3 -12  -1 57.1798 38.8418   3
 -12  -3  -1 84.9200 40.0964   9
 -12  -3  -1 -16.830 35.7018   6
  -3  12  -1 -2.7328 34.1878   9
  12   3  -1 17.2795 31.6324  15
  12   3   1 36.7741 28.8671   3
 -12  -2  -1 194.008 37.9082   6
   2 -12  -1 150.255 40.8213   6
  12   2  -1 172.139 35.7377  15
  -2  12  -1 260.897 41.2869  12
   2 -12  -1 119.040 36.5078   5
  12   2  -1 133.256 40.3529  12
   2 -12  -1 194.496 40.1415   3
   2 -12  -1 69.4832 37.2324  15
  12   2  -1 184.992 31.9813  14
  12   2  -1 105.378 37.9254   3
 -12  -2  -1 119.259 32.0493   8
 -12  -2  -1 191.849 42.4440   9
  -2  12  -1 116.424 36.0372   9
  12   2   1 167.003 29.0984  15
 -12  -2   1 190.517 39.0592   9
  12   2   1 200.205 34.1789   3
   2 -12   1 184.958 35.6855   6
  12   1  -1 489.807 52.7112  15
  12   1  -1 602.586 54.4335  12
   1 -12  -1 531.720 59.0745   6
 -12  -1  -1 519.666 56.9494   9
   1 -12  -1 534.062 53.5934  15
  -1  12  -1 538.307 53.0257   9
   1 -12  -1 459.368 52.4350   3
 -12  -1  -1 686.947 60.8112   6
  -1  12  -1 524.770 56.2972  12
  12   1  -1 517.335 55.9593   3
  12   1   1 545.825 48.7694  15
   1 -12   1 644.600 58.3408   6
  -1  12   1 606.191 51.5685  12
  12   1   1 502.478 50.4448   3
 -12  -1   1 424.070 51.7453   9
  12   0  -1 53.2690 33.6418  12
 -12   0  -1 62.3785 32.5054   6
   0  12  -1 -2.5580 33.6029  12
 -12   0  -1 73.3765 38.3870   9
  12   0  -1 29.2834 34.6793   3
   0  12  -1 31.0286 30.5695   9
   0 -12  -1 50.9011 32.8212  15
  12   0  -1 51.3633 31.8896  15
   0 -12  -1 56.2350 38.2504   6
 -12   0   1 50.7939 36.1900   9
   0 -12   1 41.9318 34.2231   6
  12   0   1 48.7421 31.0170   3
   0  12   1 58.5526 29.9494  12
  12   0   1 -10.303 26.3271  15
 -12   1  -1 640.769 51.8392   6
  12  -1  -1 556.169 51.8471  12
  12  -1  -1 522.501 53.6645  15
  -1 -12  -1 502.288 48.2449  14
   1  12  -1 650.986 60.1574  12
  -1 -12  -1 493.811 65.9815  15
   1  12  -1 493.912 49.5030   9
 -12   1  -1 466.440 44.7911   2
 -12   1  -1 487.426 49.6139   5
  -1 -12  -1 610.028 61.1098   6
  12  -1  -1 539.569 55.8573   3
 -12   1  -1 553.738 55.4860   9
  12  -1   1 604.677 54.3492   3
 -12   1   1 615.610 57.3433   9
  -1 -12   1 458.098 53.0315   6
   1  12   1 419.834 49.7558  12
  12  -1   1 615.480 51.1084  15
  -2 -12  -1 158.527 44.8850   6
   2  12  -1 197.864 40.3997  12
  -2 -12  -1 186.413 43.3018  14
 -12   2  -1 165.427 38.6754   9
  12  -2  -1 162.848 41.5928  11
  12  -2  -1 154.154 39.4317   3
 -12   2  -1 100.973 27.5147   2
  12  -2  -1 148.508 36.9127  15
  12  -2   1 166.418 36.5943   3
   2  12   1 158.513 35.2851  12
  -2 -12   1 155.726 41.0564   6
 -12   2   1 92.6576 40.4749   9
  12  -2   1 153.585 33.2411  15
  12  -3  -1 103.302 35.3793  15
  -3 -12  -1 71.6602 44.5801   6
 -12   3  -1 20.1362 35.6386   9
  12  -3  -1 60.3250 36.1410   3
   3  12  -1 61.2114 38.5249  12
  -3 -12   1 -3.6833 39.3565   6
 -12   3   1 32.5211 40.6803   9
   3  12   1 55.0219 34.6248  12
  12  -3   1 37.2610 35.3220   3
  12  -3   1 70.9804 30.8769  15
 -12   4  -1 304.938 45.3358   9
  12  -4  -1 299.110 45.3611  15
  -4 -12  -1 363.359 53.5012   6
   4  12  -1 322.433 49.5299  12
  12  -4  -1 315.371 47.6049   3
   4  12   1 199.879 40.9228  12
  -4 -12   1 234.579 49.5170   6
  12  -4   1 372.915 42.6985  15
  12  -4   1 343.415 47.4324   3
 -12   4   1 376.273 52.3938   9
   5  12  -1 709.592 70.4549  12
  12  -5  -1 728.795 66.2137  15
 -12   5  -1 781.076 67.3358   9
  12  -5  -1 689.614 67.6928   3
  -5 -12  -1 542.798 70.4160   6
  12  -5   1 721.808 64.0972  15
 -12   5   1 732.181 70.7710   9
  12  -5   1 877.283 70.4630   3
   5  12   1 580.211 64.6732  12
  -5 -12   1 709.701 71.3449   6
 -12   6  -1 484.120 54.1496   9
   6  12  -1 408.540 54.1221   3
  12  -6  -1 462.181 56.3107   3
  12  -6  -1 399.385 52.7245  15
  -6 -12  -1 484.656 60.8245   6
   6  12  -1 434.448 59.3525  12
  12  -6   1 477.825 56.9262   3
  -6 -12   1 384.884 58.6070   6
  12  -6   1 463.596 51.1346  15
 -12   6   1 450.204 59.8511   9
   6  12   1 404.421 54.6431  12
   7  12  -1 194.289 51.4327  12
  -7 -12  -1 302.395 57.2168   6
 -12   7  -1 350.542 47.6906   9
   7  12  -1 246.679 47.1189   3
  -7 -12  -1 275.193 53.0236   9
  12  -7  -1 328.593 48.9729  15
  12  -7  -1 373.302 52.0115   3
 -12   7   1 262.622 54.6315   9
  -7 -12   1 308.829 55.0449   6
  12  -7   1 359.357 48.4346  15
   7  12   1 255.273 50.7370  12
  12  -7   1 298.595 49.5191   3
  -8 -12  -1 247.006 53.7663   6
   8  12  -1 148.456 41.6119  15
 -12   8  -1 183.863 43.4443   9
   8  12  -1 166.792 49.1813  12
  12  -8  -1 158.896 45.3353  15
  -8 -12  -1 207.386 50.2011   9
 -12   8  -1 181.455 38.0578  12
  12  -8  -1 207.286 43.9798   6
  12  -8  -1 193.354 48.0996   3
   8  12  -1 203.359 45.2349   3
  12  -8   1 246.394 45.0039  15
  12  -8   1 154.357 46.0422   3
   8  12   1 141.340 45.7062  12
  -8 -12   1 137.479 52.5911   6
 -12   8   1 197.865 50.1807   9
  -9 -12  -1 135.023 50.9656   9
  12  -9  -1 198.689 46.4032   6
   9  12  -1 172.512 47.4194   3
   9  12  -1 51.7973 40.4765  15
  12  -9  -1 213.713 50.0565   3
 -12   9  -1 156.837 37.8036  12
 -12   9  -1 214.753 43.3154   9
  -9 -12  -1 226.604 57.3987   6
  12  -9  -1 149.136 47.0749  15
   9  12  -1 150.903 50.9376  12
  -9 -12   1 150.439 56.3447   6
   9  12   1 103.139 47.2159  12
 -12   9   1 244.573 50.7537   9
  12  -9   1 166.629 45.5526  15
  12  -9   1 136.835 46.3592   3
  12 -10  -1 153.396 48.6256   3
 -12  10  -1 114.984 39.7980   9
  12 -10  -1 -12.734 43.9728  15
 -10 -12  -1 53.0872 51.1326   6
  12 -10  -1 14.9048 39.9243   6
  10  12  -1 180.235 53.8048  12
 -10 -12  -1 10.9395 49.9744   9
  10  12   1 54.1120 46.1414  12
 -12  10   1 27.8982 46.4696   9
  12 -10   1 12.1591 41.8212  15
 -10 -12   1 -4.1071 51.7025   6
  12 -10   1 85.7008 44.9647   3
 -11 -12  -1 379.706 80.8741   9
  11  12  -1 289.594 63.4943  12
 -12  11  -1 326.998 52.8539   9
  12 -11  -1 286.072 53.4353   6
  12 -11  -1 350.782 60.0762   3
  12 -11  -1 393.237 59.5424  15
 -11 -12  -1 312.398 61.6581   6
  12 -11   1 346.730 54.6529  15
  11  12   1 238.632 55.9951  12
 -11 -12   1 319.588 63.6555   6
 -12  11   1 364.434 58.2304   9
  12 -11   1 409.185 57.4670   3
  12  12  -1 834.734 85.3499  12
 -12 -12  -1 732.264 80.9598   6
  12 -12  -1 779.701 79.4875  15
 -12  12  -1 681.041 74.6217   9
  12 -12  -1 781.197 81.8957   3
  12 -12   1 798.968 76.3196  15
  12 -12   1 754.726 78.0081   3
 -12  12   1 699.404 76.6432   9
 -12 -12   1 778.329 88.6499   6
  12  12   1 545.866 75.8959  12
  12 -13  -1 63.5904 53.2465  15
  12 -13  -1 178.117 59.8176   3
  13  12  -1 85.4347 59.6259  12
 -13 -12  -1 1.56811 58.4748   6
 -12  13  -1 122.815 46.5240   9
  12 -13   1 0.65311 49.0427   3
  13  12   1 28.3574 47.7135  12
 -13 -12   1 36.2360 61.4039   6
 -12  13   1 45.9014 50.2698   9
  12 -13   1 23.2434 46.2845  15
  11 -13  -1 142.713 53.4035  15
 -11  13  -1 138.613 47.1321   9
  11 -13  -1 231.957 60.2333   3
  13  11  -1 69.3078 56.9676  12
 -13 -11  -1 180.439 57.1241   6
  11 -13   1 153.457 50.9358   3
 -11  13   1 219.995 51.7511   9
  11 -13   1 173.227 50.1735  15
 -13 -11   1 132.487 57.5556   6
  13  11   1 87.5204 53.3909  12
 -13 -10  -1 170.746 58.7126   9
  10 -13  -1 264.166 60.8693   3
 -10  13  -1 191.420 48.1285   9
  10 -13  -1 65.2624 45.0999   6
  10 -13  -1 249.546 55.5515  15
  13  10  -1 128.732 58.8327  12
 -13 -10  -1 301.079 60.0612   6
  10 -13   1 201.614 49.5302  15
 -10  13   1 72.8884 47.8346   9
  10 -13   1 149.992 50.8841   3
 -13 -10   1 174.018 59.9947   6
  13  10   1 145.986 55.8987  12
  13   9  -1 6.29723 44.2554   3
 -13  -9  -1 31.4607 52.4555   6
   9 -13  -1 131.146 51.8068  15
  -9  13  -1 81.4390 41.5191  12
   9 -13  -1 14.6236 54.2708   3
  -9  13  -1 53.6398 42.9524   9
   9 -13  -1 108.441 43.9037   6
 -13  -9  -1 131.629 54.0265   9
  13   9  -1 66.0356 41.8083  15
  13   9  -1 153.026 58.2407  12
 -13  -9   1 61.2107 55.4124   6
   9 -13   1 -6.2303 44.6187   3
   9 -13   1 43.0581 43.9344  15
  -9  13   1 11.1217 45.2321   9
  13   9   1 -10.558 50.9037  12
   8 -13  -1 100.763 41.5857   6
  -8  13  -1 131.625 44.3551   9
   8 -13  -1 82.9513 49.2745  15
  13   8  -1 8.77868 40.0315  15
  -8  13  -1 89.6971 36.8803  12
 -13  -8  -1 98.7830 48.5468   9
 -13  -8  -1 2.70163 47.4980   6
  13   8  -1 42.3106 45.0320   3
  13   8  -1 -85.761 50.0799  12
   8 -13  -1 126.737 53.8372   3
  13   8   1 82.9887 49.0970  12
   8 -13   1 70.3834 43.9654  15
  -8  13   1 6.64900 43.5657   9
 -13  -8   1 82.0012 55.9286   6
   8 -13   1 161.594 49.4464   3
  13   7  -1 452.858 65.6110  12
  -7  13  -1 449.373 56.1704   9
   7 -13  -1 367.903 53.3651   6
  13   7  -1 363.602 55.1711   3
   7 -13  -1 384.355 60.7689   3
  -7  13  -1 432.845 49.2459  12
 -13  -7  -1 356.190 59.3839   9
 -13  -7  -1 372.082 58.8070   6
   7 -13  -1 543.182 60.7903  15
  13   7  -1 396.954 52.5610  15
 -13  -7   1 410.467 64.5262   6
   7 -13   1 426.690 57.0411  15
   6 -13  -1 158.825 49.4853  15
  -6  13  -1 140.001 37.6694  12
  13   6  -1 231.470 46.7091   3
 -13  -6  -1 210.990 50.0835   9
   6 -13  -1 148.979 44.2660   6
 -13  -6  -1 195.067 51.1490   6
  13   6  -1 184.739 41.8801  15
   6 -13  -1 252.813 54.7394   3
  13   6  -1 157.649 50.9973  12
  -6  13  -1 136.436 44.4981   9
   5 -13  -1 255.136 46.1918   6
 -13  -5  -1 191.736 48.4115   6
  13   5  -1 133.059 50.1039  12
  13   5  -1 154.530 40.8053  15
  -5  13  -1 289.726 46.3417   9
  13   5  -1 90.2413 42.3401   3
 -13  -5  -1 119.744 45.6680   9
   5 -13  -1 141.863 47.6871  15
  -5  13  -1 108.244 38.8444  12
   5 -13  -1 224.471 50.9502   3
   4 -13  -1 -26.210 42.6754  15
  13   4  -1 137.070 41.2886   3
 -13  -4  -1 64.6364 41.3340   6
  13   4  -1 -0.2198 43.0959  12
  -4  13  -1 -13.027 38.5928   9
   4 -13  -1 16.0057 40.1525   6
  13   4  -1 47.3786 36.0671  15
   4 -13  -1 43.0684 46.1897   3
  -4  13  -1 32.1091 35.0525  12
 -13  -4  -1 36.6457 42.9757   9
  -3  13  -1 400.812 51.9347   9
   3 -13  -1 399.105 53.6353  15
   3 -13  -1 411.333 54.9945   6
  13   3  -1 359.453 48.4726  15
   3 -13  -1 454.781 54.5423   3
  13   3  -1 386.349 52.5884   3
 -13  -3  -1 447.200 55.8624   9
 -13  -3  -1 384.835 51.4829   6
  -3  13  -1 357.335 49.6657  12
  13   3  -1 506.896 56.5819  12
 -13  -2  -1 17.7170 37.6112   6
   2 -13  -1 -6.1143 39.6501   6
  13   2  -1 98.2584 41.4647  12
   2 -13  -1 7.53217 40.3436   3
 -13  -2  -1 104.395 42.6586   9
  13   2  -1 93.7531 39.9674   3
   2 -13  -1 115.086 40.7161  15
 -13  -2  -1 38.2460 31.0625   8
   2 -13  -1 9.72254 35.3577   5
  13   2  -1 -37.091 32.0835  15
  -2  13  -1 69.5707 38.2220  12
  -2  13  -1 36.3092 36.3574   9
  13   2   1 -8.1223 30.9380   3
  13   1  -1 0.99448 32.3359  15
  -1  13  -1 -2.3107 35.6665  12
  13   1  -1 -22.245 37.0628  12
   1 -13  -1 3.27549 40.7576   6
  13   1  -1 44.9632 38.2192   3
 -13  -1  -1 5.34677 38.6883   9
  -1  13  -1 -46.635 33.6076   9
 -13  -1  -1 62.0056 36.2522   6
   1 -13  -1 -7.8746 36.2182  15
   1 -13   1 -28.486 33.0917   6
  13   1   1 -12.080 26.8668  15
  -1  13   1 5.98236 33.7323  12
 -13  -1   1 58.0248 37.7215   9
  13   1   1 25.2627 31.2988   3
   0 -13  -1 -7.1449 44.0034  15
  13   0  -1 23.7718 36.0762  12
   0  13  -1 78.0910 40.2143  12
   0 -13  -1 122.344 43.0996   6
 -13   0  -1 12.8164 34.8318   6
 -13   0  -1 70.9802 41.3377   9
  13   0  -1 22.3324 36.7372   3
  13   0  -1 -20.151 32.8533  15
   0  13  -1 31.1636 33.4483   9
   0  13   1 28.6695 33.9784  12
   0 -13   1 12.8085 36.6226   6
  13   0   1 60.3629 30.3599  15
 -13   0   1 21.4027 39.3141   9
  13   0   1 83.4663 34.4979   3
  13  -1  -1 3.64900 33.3560  15
   1  13  -1 73.0039 40.7468  12
  13  -1  -1 -30.851 34.9880   3
 -13   1  -1 -51.995 35.6519   9
  -1 -13  -1 11.8916 41.5183   6
  13  -1   1 39.8511 29.2570  15
  -1 -13   1 12.8364 38.1905   6
   1  13   1 38.2837 32.9267  12
  13  -1   1 -17.676 34.0813   3
 -13   1   1 -3.9256 39.4117   9
  13  -2  -1 54.4533 38.3917   3
  13  -2  -1 -31.282 32.8437  15
   2  13  -1 29.5297 38.5017  12
  -2 -13  -1 -28.468 42.5840   6
 -13   2  -1 81.8242 36.2110   9
 -13   2   1 103.275 43.3258   9
  13  -2   1 5.08584 35.9129   3
   2  13   1 18.2915 34.7451  12
  13  -2   1 53.5879 31.2148  15
  -2 -13   1 6.13342 38.1153   6
  13  -3  -1 388.767 50.3844  15
  -3 -13  -1 330.951 56.9019   6
   3  13  -1 415.884 54.4107  12
 -13   3  -1 433.722 52.9167   9
  13  -3  -1 345.328 51.3916   3
  13  -3   1 463.881 52.7351   3
   3  13   1 357.169 48.5904  12
  13  -3   1 484.167 49.9967  15
 -13   3   1 498.398 57.3715   9
  -3 -13   1 496.285 56.9561   6
  13  -4  -1 26.4762 39.2668   3
  -4 -13  -1 7.17650 46.5074   6
 -13   4  -1 -15.008 34.8148   9
  13  -4  -1 90.8028 38.1630  15
   4  13  -1 73.8303 41.9001  12
  13  -4   1 6.43399 37.9663   3
  -4 -13   1 -6.8769 43.2291   6
   4  13   1 -0.0966 35.5209  12
  13  -4   1 120.081 35.1016  15
 -13   4   1 30.0907 43.6548   9
  -5 -13  -1 126.919 49.7495   6
 -13   5  -1 177.546 41.9867   9
  13  -5  -1 181.366 45.5536   3
  13  -5  -1 141.864 41.9955  15
   5  13  -1 175.637 44.7015  12
  13  -5   1 184.871 37.9666  15
 -13   5   1 163.843 48.3208   9
  -5 -13   1 125.201 48.5396   6
  13  -5   1 187.951 45.5286   3
   5  13   1 164.646 44.0729  12
  -6 -13  -1 129.462 50.0214   6
 -13   6  -1 137.241 41.1740   9
   6  13  -1 154.251 48.5095  12
  13  -6  -1 158.055 45.3685   3
  13  -6  -1 101.226 40.8966  15
   6  13   1 139.454 43.6238  12
  13  -6   1 276.770 48.2099   3
  -6 -13   1 100.762 51.2037   6
  13  -6   1 186.550 40.9713  15
 -13   6   1 141.366 47.4705   9
   7  13  -1 348.324 55.4717   3
   7  13  -1 397.057 60.3994  12
  13  -7  -1 529.631 56.8559  15
  13  -7  -1 359.914 57.4822   3
 -13   7  -1 499.505 56.5030   9
  -7 -13  -1 524.636 65.1722   6
 -13   7   1 460.788 61.5252   9
  13  -7   1 482.478 59.7912   3
  -7 -13   1 427.716 61.9700   6
   7  13   1 347.657 55.7360  12
  13  -7   1 447.464 53.9290  15
   8  13  -1 7.03207 46.8032  12
  13  -8  -1 107.851 46.0199   3
 -13   8  -1 106.186 40.7152   9
  13  -8  -1 64.8424 43.7312  15
   8  13  -1 118.881 45.5474   3
  -8 -13  -1 109.714 52.1041   6
   8  13   1 106.905 46.5633  12
  13  -8   1 146.922 47.9152   3
 -13   8   1 120.959 49.6113   9
  13  -8   1 97.1053 41.1546  15
  -8 -13   1 87.3427 55.8448   6
  13  -9  -1 32.2452 45.2848  15
 -13   9  -1 31.9359 40.9184   9
   9  13  -1 5.26476 49.4308  12
  -9 -13  -1 128.717 53.2072   9
  -9 -13  -1 63.1714 51.6682   6
  13  -9  -1 100.022 46.9808   3
  13  -9  -1 50.2584 41.4735   6
   9  13   1 16.4415 46.1859  12
  -9 -13   1 143.491 58.4291   6
 -13   9   1 -5.9446 46.3870   9
  13  -9   1 31.5462 46.8415   3
  13  -9   1 98.8584 41.4222  15
 -13  10  -1 251.647 47.3397   9
  10  13  -1 166.333 56.5716  12
 -10 -13  -1 66.8218 59.3015   6
  13 -10  -1 109.258 79.5328   6
  13 -10  -1 175.661 53.6137   3
  13 -10  -1 241.358 52.7832  15
  13 -10   1 164.778 48.1692  15
  10  13   1 181.787 53.9854  12
 -13  10   1 176.630 54.5998   9
  13 -10   1 241.173 54.0006   3
 -10 -13   1 156.909 56.8469   6
 -11 -13  -1 113.503 57.9033   6
  13 -11  -1 147.957 53.3275   3
  13 -11  -1 140.337 50.6522  15
  11  13  -1 31.3790 55.4026  12
 -13  11  -1 151.347 44.6318   9
 -13  11   1 162.797 53.0449   9
  13 -11   1 130.119 50.4547   3
  11  13   1 70.4631 53.8562  12
  13 -11   1 132.717 47.9275  15
 -11 -13   1 33.5368 56.2901   6
 -12 -13  -1 74.3721 60.9446   6
  12  13  -1 92.7136 56.7670  12
 -13  12  -1 89.6401 44.1498   9
  13 -12  -1 182.106 57.4326   3
  13 -12  -1 8.74139 49.7973  15
  12  13   1 46.3886 52.6863  12
  13 -12   1 128.107 49.8068  15
 -13  12   1 106.809 53.6971   9
  13 -12   1 70.2745 48.6094   3
 -12 -13   1 193.035 61.0625   6
  13 -13  -1 487.831 71.5809  15
 -13  13  -1 553.169 66.8149   9
  13  13  -1 449.072 75.3324  12
  13 -13  -1 505.440 73.8859   3
 -13 -13  -1 531.019 73.2771   6
  13 -13   1 520.388 67.4007  15
 -13  13   1 462.186 68.0917   9
 -13 -13   1 510.389 74.6879   6
  13 -13   1 478.906 67.7001   3
  13  13   1 480.090 70.0244  12
  13 -14  -1 97.5399 57.4989  15
  14  13  -1 122.068 66.1610  12
 -13  14  -1 135.505 51.5219   9
 -14 -13  -1 5.76299 56.1816   6
  13 -14  -1 155.419 62.3767   3
  14  13   1 -14.363 55.2004  12
  13 -14   1 90.4622 53.7765   3
 -14 -13   1 58.9378 68.3797   6
 -13  14   1 61.6758 52.1580   9
  13 -14   1 15.6810 50.6126  15
  12 -14  -1 105.961 57.0288  15
  12 -14  -1 59.4432 61.7156   3
 -12  14  -1 189.449 50.9406   9
 -14 -12  -1 154.206 63.3664   6
  14  12  -1 150.376 65.5479  12
 -12  14   1 249.397 55.0071   9
 -14 -12   1 19.3893 64.6251   6
  14  12   1 110.062 54.7447  12
  12 -14   1 283.306 57.8887   3
  12 -14   1 203.250 54.5219  15
  11 -14  -1 358.482 69.0266   3
 -11  14  -1 282.058 54.5609   9
 -14 -11  -1 273.579 61.9909   6
  11 -14  -1 306.715 62.5950  15
  14  11  -1 325.942 66.2742  12
 -14 -11   1 236.520 64.8510   6
  14  11   1 230.863 58.0191  12
 -11  14   1 218.822 57.7367   9
  11 -14   1 227.488 56.0809  15
  11 -14   1 343.928 60.7905   3
 -14 -10  -1 156.415 60.8808   6
 -10  14  -1 186.065 49.8225   9
  10 -14  -1 258.700 64.7412   3
  14  10  -1 170.410 62.6015  12
  10 -14  -1 77.1269 53.1981  15
 -10  14   1 109.009 50.1709   9
 -14 -10   1 128.202 65.5911   6
  10 -14   1 192.873 53.6005   3
  10 -14   1 167.296 52.2809  15
  14  10   1 143.734 54.5420  12
  -9  14  -1 176.870 48.0472   9
 -14  -9  -1 203.518 59.4783   9
   9 -14  -1 103.919 45.9839   6
   9 -14  -1 80.5334 51.6778  15
   9 -14  -1 51.8805 55.5084   3
 -14  -9  -1 99.3826 55.2387   6
  14   9  -1 156.074 59.7592   3
  14   9  -1 171.880 64.8153  12
   9 -14   1 166.040 52.7333   3
   9 -14   1 201.026 49.3394  15
  14   9   1 108.779 56.5846  12
  -9  14   1 71.0627 48.2481   9
 -14  -9   1 111.278 58.9108   6
  14   8  -1 71.3955 47.7792   3
  14   8  -1 49.0784 53.6209  12
  14   8  -1 131.742 44.2001  15
 -14  -8  -1 78.3928 50.8181   9
  -8  14  -1 117.680 45.3338   9
   8 -14  -1 74.2371 42.8545   6
 -14  -8  -1 92.5305 50.8247   6
  -8  14  -1 43.7577 37.2175  12
   8 -14  -1 81.8570 52.9815  15
   8 -14  -1 78.4214 55.6172   3
 -14  -8   1 131.388 58.2706   6
   8 -14   1 88.8608 46.1146  15
  -8  14   1 31.9059 46.6913   9
   8 -14   1 36.1437 50.6767   3
  14   8   1 9.85612 50.1989  12
  14   7  -1 627.993 74.2011  12
 -14  -7  -1 624.980 72.0268   9
   7 -14  -1 628.879 70.8424  15
  14   7  -1 586.328 64.2801  15
   7 -14  -1 777.147 76.7320   3
   7 -14  -1 649.213 65.9630   6
  -7  14  -1 651.659 62.6294  12
  -7  14  -1 711.615 70.3035   9
 -14  -7  -1 661.152 73.9155   6
  14   7  -1 626.005 68.7549   3
 -14  -7   1 521.111 75.3936   6
   7 -14   1 558.383 67.6633  15
  14   7   1 631.724 72.1961  12
  14   6  -1 113.361 55.3655  12
  14   6  -1 133.480 42.4858  15
   6 -14  -1 90.8645 45.5234   6
 -14  -6  -1 168.171 51.8385   6
  -6  14  -1 100.179 40.2475  12
  14   6  -1 150.843 46.9911   3
  -6  14  -1 135.948 45.9747   9
 -14  -6  -1 217.937 53.5348   9
   6 -14  -1 85.1674 50.2689  15
   6 -14  -1 127.608 55.4788   3
  14   5  -1 989.691 93.9094   3
  14   5  -1 960.628 86.5712  15
  -5  14  -1 985.553 87.2421  12
   5 -14  -1 913.652 89.4082   6
   5 -14  -1 1020.76 97.9364   3
   5 -14  -1 992.843 92.4581  15
  14   5  -1 997.408 96.3879  12
 -14  -5  -1 1159.44 93.7093   6
  -5  14  -1 1069.45 91.1362   9
 -14  -5  -1 1008.32 94.0645   9
  -4  14  -1 347.442 51.2025   9
   4 -14  -1 186.886 48.2854   6
 -14  -4  -1 361.571 53.3827   6
  -4  14  -1 347.445 47.5568  12
  14   4  -1 268.075 46.9796  15
  14   4  -1 279.209 54.9062  12
   4 -14  -1 401.433 55.7005  15
   4 -14  -1 271.117 53.6975   3
 -14  -4  -1 268.980 52.9171   9
  14   4  -1 237.853 50.5222   3
 -14  -3  -1 43.5041 45.5581   9
 -14  -3  -1 32.3633 41.5917   6
  -3  14  -1 82.5009 39.6407  12
  14   3  -1 59.7337 46.9339  12
   3 -14  -1 46.0977 42.7327  15
  14   3  -1 64.6396 38.0295  15
  14   3  -1 -5.9348 41.1178   3
   3 -14  -1 54.9656 45.3049   3
   3 -14  -1 66.1502 45.1560   6
  -3  14  -1 51.9573 40.3074   9
 -14  -2  -1 539.074 63.6492   9
  14   2  -1 507.477 56.8207  15
  14   2  -1 557.172 62.8887   3
   2 -14  -1 491.943 60.4028  15
 -14  -2  -1 617.402 60.6659   6
  -2  14  -1 581.366 59.7351   9
   2 -14  -1 572.651 64.4834   6
  14   2  -1 555.285 62.9365  12
  -2  14  -1 568.896 60.4234  12
  14   2   1 600.044 61.5096   3
   1 -14  -1 987.855 89.1536   6
   1 -14  -1 1010.58 96.4749  15
 -14  -1  -1 1123.02 90.5352   9
  14   1  -1 1027.78 87.1746  12
  14   1  -1 919.338 84.7923  15
 -14  -1  -1 1104.53 87.1881   6
  -1  14  -1 949.197 84.8407   9
  -1  14  -1 975.650 87.5508  12
  14   1  -1 939.842 89.0232   3
  14   1   1 1021.00 85.0637   3
   1 -14   1 1034.72 87.9353   6
   0  14  -1 33.7238 40.8831  12
  14   0  -1 -23.423 34.0231  15
  14   0  -1 20.1583 40.2431   3
 -14   0  -1 -26.898 41.1561   9
   0 -14  -1 89.0912 47.6912   6
  14   0   1 -15.648 35.0257   3
   0 -14   1 23.3516 37.6403   6
 -14   0   1 -19.441 41.0146   9
  14   0   1 -29.053 30.4618  15
   0  14   1 36.5470 36.9081  12
  -1 -14  -1 959.347 89.6807   6
  14  -1  -1 969.630 83.9854  15
   1  14  -1 945.880 87.9027  12
 -14   1  -1 955.482 88.2130   9
  14  -1  -1 1011.79 86.8838   3
   1  14   1 1024.18 87.1676  12
  14  -1   1 899.380 86.3070   3
 -14   1   1 962.745 88.8283   9
  -1 -14   1 1024.04 88.3150   6
  14  -1   1 920.726 80.3805  15
   2  14  -1 532.153 61.7736  12
  14  -2  -1 525.480 61.4820   3
 -14   2  -1 541.200 59.6929   9
  -2 -14  -1 444.318 65.7545   6
  14  -2  -1 578.359 59.4319  15
  -2 -14   1 599.626 62.1203   6
 -14   2   1 586.911 63.3729   9
  14  -2   1 586.745 55.7068  15
  14  -2   1 684.471 62.5889   3
   2  14   1 472.330 56.1443  12
 -14   3  -1 73.0573 40.9476   9
  14  -3  -1 70.4354 37.0760  15
  -3 -14  -1 53.1140 50.0533   6
  14  -3  -1 31.0539 40.9000   3
   3  14  -1 69.9014 44.1610  12
  14  -3   1 71.4468 39.8768   3
 -14   3   1 45.7479 45.1179   9
  14  -3   1 8.81289 32.7816  15
  -3 -14   1 169.624 46.3256   6
   3  14   1 40.3390 37.7775  12
  14  -4  -1 310.257 47.6440  15
  14  -4  -1 334.945 51.9325   3
 -14   4  -1 343.591 49.4112   9
   4  14  -1 263.070 50.7270  12
  -4 -14  -1 239.475 56.8893   6
  14  -4   1 216.475 43.5710  15
   4  14   1 323.560 48.4992  12
  -4 -14   1 218.784 50.2741   6
  14  -4   1 356.870 51.0192   3
 -14   4   1 281.524 56.0316   9
 -14   5  -1 964.862 87.6773   9
  14  -5  -1 1099.58 92.9141   3
  -5 -14  -1 936.826 95.2149   6
   5  14  -1 934.132 89.7993  12
  14  -5  -1 984.244 87.6504  15
  -5 -14   1 908.036 87.3710   6
   5  14   1 869.004 85.0404  12
  14  -5   1 1140.56 91.5822   3
  14  -5   1 1011.12 84.8792  15
 -14   5   1 993.771 93.1814   9
   6  14  -1 132.494 50.3207  12
  14  -6  -1 125.795 46.2342   3
 -14   6  -1 87.9353 41.3351   9
  -6 -14  -1 257.126 54.1211   6
  14  -6  -1 105.684 43.5032  15
  14  -6   1 232.114 49.0971   3
 -14   6   1 196.608 53.5311   9
  -6 -14   1 212.898 55.6440   6
  14  -6   1 178.427 41.6051  15
   6  14   1 115.122 44.5635  12
 -14   7  -1 694.784 65.7028   9
  14  -7  -1 690.335 67.4413  15
   7  14  -1 474.618 67.4442  12
  14  -7  -1 563.084 68.6893   3
  -7 -14  -1 591.686 72.7604   6
  14  -7   1 685.306 64.7542  15
   7  14   1 566.959 65.6926  12
  14  -7   1 644.385 70.4023   3
 -14   7   1 587.207 69.0935   9
  -7 -14   1 516.398 73.1262   6
  14  -8  -1 31.5092 44.2377  15
  14  -8  -1 131.994 49.4440   3
 -14   8  -1 50.2278 41.0502   9
  -8 -14  -1 65.6667 57.2746   6
   8  14  -1 128.619 52.8328  12
   8  14   1 20.3307 46.4241  12
  14  -8   1 76.0014 40.5368  15
  14  -8   1 158.131 49.5092   3
 -14   8   1 119.844 53.3274   9
  -8 -14   1 113.793 56.6942   6
   9  14  -1 71.0014 53.2508  12
 -14   9  -1 15.8694 41.5322   9
  14  -9  -1 192.435 50.6719  15
  -9 -14  -1 80.8932 58.8709   6
  14  -9  -1 63.7361 48.5108   3
 -14   9   1 177.502 52.3226   9
  -9 -14   1 88.2184 59.9255   6
  14  -9   1 78.7614 43.5735  15
  14  -9   1 145.352 51.5276   3
   9  14   1 186.751 51.6626  12
  14 -10  -1 144.206 52.4911   3
  10  14  -1 107.461 57.0973  12
  14 -10  -1 125.297 49.9301  15
 -10 -14  -1 112.756 56.6956   6
 -14  10  -1 131.633 44.8358   9
  14 -10   1 129.739 45.9665  15
  10  14   1 96.8817 50.7550  12
 -14  10   1 147.523 54.1226   9
  14 -10   1 87.8620 50.1407   3
 -10 -14   1 28.7407 56.7336   6
 -11 -14  -1 195.880 62.1198   6
  11  14  -1 109.375 56.8559  12
  14 -11  -1 238.880 57.6866   3
 -14  11  -1 272.076 53.3676   9
  14 -11  -1 228.896 55.2641  15
 -14  11   1 223.608 56.5208   9
 -11 -14   1 244.021 68.5910   6
  11  14   1 285.817 59.7007  12
  14 -11   1 322.554 53.8970  15
  14 -11   1 329.507 58.7056   3
 -14  12  -1 146.657 46.4502   9
 -12 -14  -1 118.937 59.6593   6
  14 -12  -1 132.286 59.2437   3
  14 -12  -1 168.593 55.2362  15
  12  14  -1 179.713 61.7400  12
  14 -12   1 168.599 51.1489  15
 -14  12   1 224.268 56.1331   9
  12  14   1 171.971 56.5505  12
  14 -12   1 273.807 59.4188   3
 -12 -14   1 87.8109 67.4885   6
  13  14  -1 60.0349 59.6207  12
 -13 -14  -1 -22.322 64.0745   6
  14 -13  -1 72.1355 55.0875  15
 -14  13  -1 79.9354 46.2631   9
  14 -13  -1 128.226 59.4235   3
  13  14   1 119.928 58.3780  12
 -13 -14   1 23.6766 61.5638   6
 -14  13   1 91.9458 55.0480   9
  14 -13   1 119.366 51.6271  15
  14 -13   1 80.7526 54.8651   3
  14 -14  -1 -25.721 60.1129   3
 -14 -14  -1 28.6538 65.7224   6
 -14  14  -1 125.518 49.9856   9
  14  14  -1 44.5702 62.2350  12
  14 -14  -1 81.9462 60.4274  15
  14  14   1 -27.916 56.8248  12
  14 -14   1 56.1691 50.5515  15
 -14 -14   1 182.370 67.5573   6
 -14  14   1 11.3774 53.4593   9
  14 -14   1 82.0748 56.5457   3
  14 -15  -1 80.1480 67.5215   3
  14 -15  -1 123.127 62.9174  15
  15  14  -1 -7.3248 66.7988  12
 -15 -14  -1 23.3172 67.2685   6
 -14  15  -1 24.7988 48.0381   9
 -14  15   1 23.7378 55.3272   9
  14 -15   1 -22.979 52.0403  15
 -15 -14   1 56.8690 67.5074   6
  15  14   1 50.8533 62.1875  12
  14 -15   1 -15.248 57.8888   3
  15  13  -1 77.0317 65.4544  12
 -13  15  -1 -39.168 47.2877   9
  13 -15  -1 109.212 66.8501   3
  13 -15  -1 90.5079 62.0940  15
 -15 -13  -1 -4.6288 61.0064   6
  13 -15   1 -17.363 55.5556   3
 -13  15   1 0.00468 52.9895   9
  15  13   1 37.4982 58.0360  12
 -15 -13   1 -30.573 63.4718   6
  13 -15   1 14.2077 52.2900  15
 -12  15  -1 -33.175 46.7329   9
  15  12  -1 92.5803 65.1741  12
 -15 -12  -1 50.0644 61.7698   6
  12 -15  -1 -35.129 55.3309  15
  12 -15  -1 29.2681 64.1772   3
 -12  15   1 -35.985 48.3043   9
  15  12   1 28.0057 54.3938  12
 -15 -12   1 4.82023 66.9126   6
  12 -15   1 47.2436 54.7184   3
  12 -15   1 76.8117 53.5677  15
  15  11  -1 106.171 64.8058  12
  11 -15  -1 63.1036 56.3210  15
 -15 -11  -1 116.188 59.7938   6
  11 -15  -1 205.218 66.5700   3
 -11  15  -1 159.389 51.4424   9
 -15 -11   1 71.7655 65.5781   6
  11 -15   1 153.689 53.7923  15
  11 -15   1 133.975 56.2935   3
 -11  15   1 13.9567 49.4642   9
  15  11   1 65.1835 55.1017  12
 -15 -10  -1 31.5167 58.4236   6
  10 -15  -1 130.013 65.1413   3
  10 -15  -1 100.029 58.1560  15
 -10  15  -1 77.9726 48.3105   9
  15  10  -1 78.3108 63.6633  12
  10 -15   1 124.570 55.9959   3
  15  10   1 21.8053 54.4385  12
  10 -15   1 -51.325 49.2923  15
 -10  15   1 26.1372 48.6914   9
 -15 -10   1 -44.578 60.8506   6
  15   9  -1 145.834 63.2087  12
   9 -15  -1 226.047 64.6458   3
  -9  15  -1 153.825 51.7372   9
   9 -15  -1 218.886 61.0285  15
 -15  -9  -1 264.663 59.9437   6
   9 -15   1 238.995 55.0618  15
  15   9   1 260.826 64.0329  12
   9 -15   1 192.796 57.0136   3
  -9  15   1 208.669 53.3493   9
 -15  -9   1 325.707 66.2913   6
   8 -15  -1 117.880 59.2403   3
 -15  -8  -1 123.286 56.9111   9
  15   8  -1 105.393 59.3346  12
 -15  -8  -1 174.675 57.7733   6
  -8  15  -1 178.635 49.6269   9
   8 -15  -1 99.6188 55.2449  15
  15   8  -1 225.416 52.8624   3
   8 -15  -1 142.440 47.9127   6
  15   8   1 52.3980 54.3108  12
 -15  -8   1 111.992 62.6443   6
   8 -15   1 111.270 49.6953  15
   8 -15   1 102.246 56.6103   3
  -8  15   1 6.02375 47.3428   9
  15   7  -1 206.716 49.2180  15
   7 -15  -1 280.355 61.5053   3
 -15  -7  -1 215.940 57.3831   9
   7 -15  -1 312.382 50.2642   6
 -15  -7  -1 207.370 54.6648   6
  15   7  -1 198.229 61.2993  12
  -7  15  -1 172.336 51.4541   9
   7 -15  -1 215.093 55.6056  15
  -7  15  -1 169.665 44.0161  12
  15   7  -1 147.814 52.5349   3
 -15  -7   1 101.596 59.2942   6
   7 -15   1 160.168 52.3883  15
  -7  15   1 170.860 50.7894   9
  15   7   1 199.132 55.2027  12
   6 -15  -1 287.450 63.1019   3
 -15  -6  -1 326.081 59.4184   6
  -6  15  -1 212.263 45.1234  12
   6 -15  -1 297.809 59.2442  15
 -15  -6  -1 281.391 58.1091   9
  15   6  -1 432.077 65.9465  12
  -6  15  -1 294.586 54.1948   9
   6 -15  -1 229.637 53.9871   6
  15   6  -1 279.685 49.9893  15
  15   6  -1 323.490 55.3589   3
   5 -15  -1 232.011 58.5737   3
  15   5  -1 233.553 57.0269  12
   5 -15  -1 197.099 51.1235   6
 -15  -5  -1 179.066 52.6061   9
  -5  15  -1 190.163 43.8463  12
   5 -15  -1 287.031 56.1500  15
  -5  15  -1 56.3634 47.8621   9
 -15  -5  -1 320.896 54.0301   6
  15   5  -1 233.679 46.5089  15
  15   5  -1 217.939 49.9845   3
   4 -15  -1 412.566 57.6720  15
  15   4  -1 243.353 53.4368   3
 -15  -4  -1 195.112 54.9253   9
  15   4  -1 376.690 57.2468  12
   4 -15  -1 314.353 52.7762   6
  15   4  -1 207.802 47.5826  15
   4 -15  -1 350.125 61.5677   3
 -15  -4  -1 257.033 54.4606   6
  -4  15  -1 314.191 48.9839  12
  -4  15  -1 300.657 53.0507   9
 -15  -3  -1 371.401 52.1782   6
  15   3  -1 264.788 46.9977  15
   3 -15  -1 223.491 53.1306  15
  15   3  -1 325.601 53.5608   3
 -15  -3  -1 258.002 57.3793   9
   3 -15  -1 336.408 54.1643   6
  -3  15  -1 458.716 55.5374   9
  15   3  -1 342.366 58.0240  12
  -3  15  -1 294.919 48.6448  12
  -2  15  -1 234.938 49.7524  12
   2 -15  -1 105.885 51.6455   6
  15   2  -1 260.215 50.1086   3
 -15  -2  -1 279.210 53.0512   9
  15   2  -1 259.943 46.3892  15
 -15  -2  -1 298.215 48.2964   6
  15   2  -1 285.814 53.4489  12
  -2  15  -1 241.429 47.3936   9
  15   1  -1 161.125 40.8411  15
   1 -15  -1 166.873 49.4556   6
 -15  -1  -1 138.459 49.1176   9
  -1  15  -1 106.558 47.8245  12
  15   1  -1 197.886 47.2460   3
  15   1   1 155.320 43.2141   3
  15   0  -1 463.964 55.2675  15
   0  15  -1 598.542 63.0599  12
   0 -15  -1 539.910 63.6857   6
  15   0  -1 302.247 56.8816   3
 -15   0  -1 488.210 62.5091   9
  15   0   1 531.667 57.8407   3
  15   0   1 510.590 55.8833  15
   0 -15   1 503.602 56.3437   6
  15  -1  -1 147.963 42.6120  15
 -15   1  -1 132.829 47.9227   9
   1  15  -1 292.256 51.5646  12
  -1 -15  -1 206.519 54.6019   6
  15  -1  -1 105.429 46.0123   3
   1  15   1 211.758 45.6813  12
 -15   1   1 256.889 50.0747   9
  -1 -15   1 209.263 47.2542   6
  15  -1   1 285.854 42.6648  15
  15  -1   1 227.912 45.0810   3
  15  -2  -1 263.748 50.3801   3
 -15   2  -1 161.948 47.1965   9
  15  -2  -1 188.892 44.8771  15
  -2 -15  -1 286.923 58.5843   6
   2  15  -1 192.627 51.3525  12
  15  -2   1 280.097 43.0337  15
  15  -2   1 283.788 49.0556   3
   2  15   1 191.126 44.0314  12
 -15   2   1 203.636 52.1295   9
  -2 -15   1 292.287 51.8853   6
  -3 -15  -1 355.459 58.3373   6
  15  -3  -1 326.257 52.4632   3
  15  -3  -1 263.247 48.0408  15
 -15   3  -1 234.910 49.6492   9
   3  15  -1 305.035 55.1249  12
  -3 -15   1 231.179 52.8458   6
 -15   3   1 200.112 53.0422   9
  15  -3   1 323.516 45.0475  15
   3  15   1 285.040 48.8679  12
  15  -3   1 337.547 53.1038   3
   4  15  -1 223.089 52.9438  12
  -4 -15  -1 253.410 58.2300   6
 -15   4  -1 351.892 52.3140   9
  15  -4  -1 332.870 51.5645   3
  15  -4  -1 377.581 50.9554  15
   4  15   1 135.242 46.2145  12
 -15   4   1 295.315 56.0984   9
  15  -4   1 246.954 50.6563   3
  -4 -15   1 186.569 50.2191   6
  15  -4   1 260.610 44.8017  15
  15  -5  -1 215.826 47.7060  15
 -15   5  -1 198.140 47.2523   9
  15  -5  -1 210.514 50.5349   3
   5  15  -1 143.954 48.9883  12
  -5 -15  -1 195.086 58.6498   6
 -15   5   1 255.161 56.7690   9
  -5 -15   1 160.564 55.8293   6
   5  15   1 192.278 47.7409  12
  15  -5   1 263.208 45.0739  15
  15  -5   1 332.355 52.7449   3
  15  -6  -1 272.607 52.8889  15
 -15   6  -1 291.170 50.9149   9
   6  15  -1 296.140 55.7489  12
  -6 -15  -1 271.759 58.9217   6
  15  -6  -1 262.448 54.1841   3
   6  15   1 226.009 52.0414  12
 -15   6   1 306.090 59.3122   9
  15  -6   1 353.773 55.2229   3
  -6 -15   1 189.259 58.8812   6
  15  -6   1 328.448 50.6967  15
   7  15  -1 235.408 54.0464  12
  15  -7  -1 214.459 52.3373   3
  15  -7  -1 261.050 51.0600  15
  -7 -15  -1 152.544 57.3537   6
 -15   7  -1 182.053 46.2963   9
   7  15   1 230.518 52.2724  12
  15  -7   1 272.309 47.9974  15
  15  -7   1 255.674 54.8091   3
  -7 -15   1 183.061 57.3753   6
 -15   7   1 154.524 55.3458   9
   8  15  -1 164.951 54.5905  12
  -8 -15  -1 105.497 55.5357   6
  15  -8  -1 105.113 51.0363   3
 -15   8  -1 62.9656 42.4517   9
  15  -8  -1 47.0798 45.9584  15
  15  -8   1 158.397 53.1810   3
 -15   8   1 248.052 57.3528   9
  15  -8   1 179.617 44.8812  15
   8  15   1 178.535 53.2165  12
  -8 -15   1 216.655 62.4717   6
  15  -9  -1 287.847 57.6362   3
 -15   9  -1 284.978 52.1193   9
  15  -9  -1 294.649 55.7626  15
   9  15  -1 118.973 55.5121  12
  -9 -15  -1 107.707 59.2973   6
  15  -9   1 269.508 50.6952  15
 -15   9   1 301.035 60.0898   9
  15  -9   1 282.509 57.0558   3
  -9 -15   1 281.070 64.3646   6
   9  15   1 155.008 53.1777  12
  15 -10  -1 72.6386 50.2707  15
 -15  10  -1 40.2607 43.8307   9
  10  15  -1 28.6246 54.4225  12
 -10 -15  -1 89.8686 61.2228   6
  15 -10  -1 36.8881 50.3461   3
  15 -10   1 127.045 53.9457   3
 -10 -15   1 -3.2860 61.2280   6
 -15  10   1 57.3935 52.4682   9
  10  15   1 -39.092 50.1065  12
  15 -10   1 39.4349 44.1395  15
  15 -11  -1 125.796 55.2779   3
 -15  11  -1 161.730 49.4012   9
 -11 -15  -1 67.0677 60.9016   6
  11  15  -1 152.797 59.4825  12
  15 -11  -1 125.902 54.1407  15
  11  15   1 77.5383 56.9606  12
  15 -11   1 181.096 50.5603  15
 -15  11   1 167.170 57.5361   9
  15 -11   1 102.643 53.3573   3
 -11 -15   1 31.9171 60.5991   6
  15 -12  -1 51.1945 55.5501   3
  15 -12  -1 16.9762 51.6168  15
 -12 -15  -1 102.156 65.3444   6
 -15  12  -1 3.96872 46.1955   9
  12  15  -1 19.9829 59.0637  12
 -15  12   1 -79.401 52.3808   9
  15 -12   1 16.7230 47.1189  15
  12  15   1 38.9012 58.3979  12
  15 -12   1 26.9394 54.6450   3
 -12 -15   1 71.0260 61.6463   6
  15 -13  -1 54.9084 59.0078   3
 -13 -15  -1 131.614 64.0788   6
  15 -13  -1 32.6757 55.5693  15
  13  15  -1 58.4572 63.7235  12
 -15  13  -1 99.9941 50.3476   9
  15 -13   1 97.5053 57.5057   3
 -13 -15   1 -139.56 62.4426   6
  13  15   1 -27.164 56.0986  12
 -15  13   1 96.7213 56.4569   9
  15 -13   1 83.9262 51.4993  15
  14  15  -1 105.488 66.4102  12
  15 -14  -1 -105.61 54.2394  15
  15 -14  -1 -92.057 61.9160   3
 -15  14  -1 85.9063 49.9635   9
 -14 -15  -1 53.0608 64.1709   6
 -14 -15   1 -40.866 64.6428   6
  15 -14   1 -35.328 51.2155  15
  14  15   1 43.5518 61.6542  12
 -15  14   1 19.2233 53.9518   9
  15 -14   1 -0.6981 57.5746   3
  15  15  -1 127.036 70.2709  12
  15 -15  -1 177.756 64.7687  15
  15 -15  -1 247.965 74.4350   3
 -15 -15  -1 190.307 70.5480   6
 -15  15  -1 187.220 55.1179   9
  15 -15   1 144.855 63.5601   3
 -15 -15   1 103.743 76.7192   6
 -15  15   1 193.888 62.7375   9
  15 -15   1 106.322 58.4564  15
  15  15   1 98.6500 65.2521  12
  15 -16  -1 50.4075 64.3999  15
  16  15  -1 122.357 76.2414  12
  15 -16  -1 25.8997 72.8350   3
 -16 -15  -1 55.6978 72.3442   6
 -15  16  -1 56.9366 52.5070   9
 -15  16   1 74.0248 58.1524   9
  15 -16   1 29.4866 64.3949   3
  15 -16   1 -17.211 55.4576  15
 -16 -15   1 7.73675 68.9010   6
  16  15   1 50.0541 64.9736  12
  14 -16  -1 76.7779 73.5188   3
  14 -16  -1 264.090 70.5566  15
  16  14  -1 65.4811 67.8037  12
 -14  16  -1 130.432 54.0843   9
 -16 -14  -1 86.6170 66.6255   6
 -16 -14   1 170.505 72.7741   6
 -14  16   1 -14.383 56.1159   9
  14 -16   1 43.5986 63.6868   3
  14 -16   1 191.121 59.5589  15
  16  14   1 51.8858 66.1971  12
  16  13  -1 107.816 72.2045  12
  13 -16  -1 17.4229 70.8017   3
 -16 -13  -1 -2.5050 65.6022   6
 -13  16  -1 67.5787 52.8787   9
  13 -16  -1 38.2088 63.3733  15
 -16 -13   1 -31.092 64.2033   6
 -13  16   1 24.7917 56.9190   9
  13 -16   1 102.251 60.3370   3
  13 -16   1 6.39001 56.1369  15
  16  13   1 -29.028 59.5113  12
 -16 -12  -1 118.837 66.2026   6
  16  12  -1 70.6412 69.2401  12
  12 -16  -1 135.765 63.2113  15
  12 -16  -1 5.54446 67.0522   3
 -12  16  -1 -26.757 48.1140   9
  12 -16   1 78.4208 58.0866   3
  16  12   1 13.5693 57.4157  12
 -16 -12   1 202.518 71.4382   6
 -12  16   1 94.8845 55.3411   9
  12 -16   1 116.477 57.9444  15
 -11  16  -1 107.664 52.4245   9
  16  11  -1 50.7159 69.0635  12
  11 -16  -1 92.3887 69.0437   3
  11 -16  -1 69.2372 61.7621  15
 -16 -11  -1 -21.739 56.7576   6
 -11  16   1 -55.625 51.4965   9
  16  11   1 30.2442 57.4503  12
  11 -16   1 26.9418 55.8558   3
 -16 -11   1 43.8648 64.0235   6
  11 -16   1 -83.622 50.1622  15
 -10  16  -1 38.4783 50.5357   9
  16  10  -1 65.8212 63.5428  12
  10 -16  -1 15.1926 58.0218  15
 -16 -10  -1 74.0005 61.8587   6
  10 -16  -1 30.8988 66.1533   3
  16  10   1 74.8262 57.9517  12
  10 -16   1 67.2352 58.7729   3
  10 -16   1 47.8914 53.8407  15
 -16 -10   1 -40.783 62.7342   6
 -10  16   1 124.291 53.7638   9
   9 -16  -1 -88.545 57.5880  15
  16   9  -1 25.3463 61.9696  12
   9 -16  -1 59.2963 61.5610   3
 -16  -9  -1 13.0035 54.7314   6
  -9  16  -1 91.1064 50.9918   9
   9 -16   1 37.4960 50.2474  15
 -16  -9   1 12.0304 61.8950   6
  16   9   1 57.6437 57.6816  12
   9 -16   1 -14.328 56.5686   3
  -9  16   1 -89.861 47.7536   9
  -8  16  -1 165.054 52.8914   9
 -16  -8  -1 243.505 61.0912   6
   8 -16  -1 211.045 63.8805   3
  16   8  -1 185.553 64.3416  12
   8 -16  -1 244.550 62.0060  15
  16   8   1 109.480 58.8289  12
   8 -16   1 162.240 59.3928   3
  -8  16   1 161.125 54.0776   9
 -16  -8   1 282.466 67.8345   6
   8 -16   1 183.611 55.9774  15
   7 -16  -1 68.1326 58.6372   3
 -16  -7  -1 59.8192 52.4062   6
   7 -16  -1 12.6941 47.0723   6
  -7  16  -1 48.0941 49.9055   9
  16   7  -1 -40.588 48.1215   3
 -16  -7  -1 92.0638 57.8409   9
   7 -16  -1 93.0914 53.9922  15
  16   7  -1 28.0029 59.4449  12
  -7  16   1 33.8433 47.6141   9
   7 -16   1 -75.654 49.5680  15
 -16  -7   1 93.3637 65.4330   6
  16   7   1 42.3261 54.5886  12
   7 -16   1 142.640 58.1672   3
  -6  16  -1 -26.647 41.0888  12
 -16  -6  -1 45.5973 55.0348   9
   6 -16  -1 -39.978 51.8852  15
  16   6  -1 93.2171 58.5666  12
  16   6  -1 26.9497 43.4353  15
  -6  16  -1 91.6933 50.4610   9
  16   6  -1 -24.559 47.9821   3
 -16  -6  -1 -7.3904 51.2156   6
   6 -16  -1 78.9146 57.8849   3
   6 -16  -1 143.693 49.0988   6
   6 -16   1 65.6839 54.1623  15
 -16  -6   1 -20.430 59.5196   6
  16   5  -1 136.134 46.8795  15
   5 -16  -1 153.013 51.9317   6
  -5  16  -1 189.531 47.0858  12
   5 -16  -1 207.784 56.0173  15
  16   5  -1 199.615 52.0906   3
 -16  -5  -1 167.490 57.0411   9
 -16  -5  -1 219.332 55.2392   6
  -5  16  -1 269.904 53.8543   9
  16   5  -1 243.131 61.2062  12
  16   4  -1 183.196 47.4130  15
  -4  16  -1 295.716 50.4419  12
 -16  -4  -1 252.815 54.1510   6
  16   4  -1 222.672 52.6133   3
  -4  16  -1 271.222 54.2730   9
   4 -16  -1 271.378 55.7797  15
  16   4  -1 179.921 60.0035  12
   4 -16  -1 277.804 54.0722   6
 -16  -4  -1 313.546 58.4463   9
   3 -16  -1 21.1973 45.6304   6
  -3  16  -1 38.6599 40.7581  12
 -16  -3  -1 -31.542 47.8559   6
 -16  -3  -1 -13.183 49.6526   9
  16   3  -1 0.51445 46.1795   3
  -3  16  -1 152.211 48.1310   9
  16   3  -1 -20.611 51.2479  12
  16   3  -1 13.6585 42.2076  15
  16   2  -1 155.058 41.8177  15
 -16  -2  -1 127.315 50.9034   9
  16   2  -1 141.574 49.1522   3
   2 -16  -1 97.5076 52.1762   6
  -2  16  -1 72.6886 45.0249  12
 -16  -1  -1 263.159 56.0192   9
  16   1  -1 241.496 48.0057  15
   1 -16  -1 374.175 59.4173   6
  16   1  -1 332.566 55.4378   3
  -1  16  -1 304.422 55.8580  12
   0  16  -1 593.834 64.6628  12
 -16   0  -1 467.468 62.6390   9
  16   0  -1 430.646 56.4125  15
  16   0  -1 396.917 62.0738   3
   0 -16  -1 448.779 65.5638   6
  16   0   1 573.734 61.5209   3
  16  -1  -1 261.106 48.6442  15
 -16   1  -1 261.724 55.7570   9
   1  16  -1 276.085 55.8764  12
  -1 -16  -1 332.734 61.3640   6
  16  -1  -1 269.821 53.0570   3
  -1 -16   1 321.614 52.8032   6
  16  -1   1 316.046 52.5163   3
  16  -1   1 312.403 46.7736  15
  16  -2  -1 103.348 47.1625   3
   2  16  -1 13.8630 48.3698  12
 -16   2  -1 153.634 47.4191   9
  16  -2  -1 96.3250 41.4627  15
  -2 -16  -1 93.1726 53.4648   6
  -2 -16   1 159.150 49.3905   6
  16  -2   1 177.958 46.4910   3
   2  16   1 146.264 46.5927  12
 -16   2   1 114.585 50.1343   9
  16  -2   1 84.7435 39.1586  15
   3  16  -1 -8.7266 49.9495  12
  16  -3  -1 62.4610 42.9975  15
 -16   3  -1 96.6984 46.3199   9
  -3 -16  -1 25.3205 57.2009   6
  16  -3  -1 48.2794 46.1414   3
  16  -3   1 109.950 46.1421   3
  -3 -16   1 52.4176 49.2182   6
  16  -3   1 83.1248 37.8728  15
   3  16   1 70.3465 41.9159  12
 -16   3   1 84.1604 50.2951   9
   4  16  -1 262.683 56.6419  12
  16  -4  -1 293.254 50.7599  15
 -16   4  -1 314.631 54.9324   9
  16  -4  -1 321.013 55.2588   3
  -4 -16  -1 195.670 62.4186   6
   4  16   1 148.676 47.4792  12
  -4 -16   1 281.192 57.9095   6
  16  -4   1 249.218 46.2094  15
  16  -4   1 280.891 52.5398   3
 -16   4   1 269.672 57.1285   9
   5  16  -1 146.960 51.6862  12
  16  -5  -1 271.617 50.3448  15
 -16   5  -1 154.449 47.7073   9
  -5 -16  -1 198.559 60.6231   6
  16  -5  -1 128.033 49.2183   3
  -5 -16   1 178.983 52.4085   6
   5  16   1 106.072 48.7236  12
  16  -5   1 118.112 43.1247  15
 -16   5   1 269.863 56.1715   9
  16  -5   1 206.662 54.0325   3
  16  -6  -1 25.2268 48.2079   3
  16  -6  -1 84.9449 46.5701  15
   6  16  -1 74.3921 49.7660  12
  -6 -16  -1 97.7050 57.0425   6
 -16   6  -1 17.6701 43.9150   9
  16  -6   1 71.9641 48.3115   3
  16  -6   1 81.1686 41.9012  15
   6  16   1 2.77300 45.5507  12
 -16   6   1 110.016 54.4110   9
  -6 -16   1 123.381 56.0824   6
  16  -7  -1 65.5874 49.3445   3
  16  -7  -1 115.831 48.4388  15
   7  16  -1 60.0889 51.7230  12
 -16   7  -1 14.7638 42.3232   9
  -7 -16  -1 27.4565 59.0552   6
 -16   7   1 110.157 57.1187   9
  16  -7   1 30.8151 47.6282   3
  16  -7   1 64.5638 43.0346  15
   7  16   1 15.7199 51.3902  12
  -7 -16   1 93.1813 54.2345   6
  -8 -16  -1 120.818 58.8395   6
   8  16  -1 163.808 54.1845  12
  16  -8  -1 74.7331 48.4054  15
  16  -8  -1 148.801 53.9814   3
 -16   8  -1 232.788 49.7818   9
 -16   8   1 160.147 58.6535   9
  16  -8   1 238.389 50.9701  15
   8  16   1 102.498 54.0052  12
  -8 -16   1 147.739 58.9408   6
  16  -8   1 134.095 52.6096   3
 -16   9  -1 -29.323 40.7041   9
  -9 -16  -1 32.3160 58.4857   6
  16  -9  -1 20.0235 46.4368  15
   9  16  -1 25.4860 54.8500  12
  16  -9  -1 84.5239 51.6431   3
  -9 -16   1 -17.209 55.7297   6
  16  -9   1 29.4995 50.3317   3
 -16   9   1 55.4310 57.0892   9
   9  16   1 0.04669 52.1532  12
  16  -9   1 -1.5915 42.7610  15
  10  16  -1 -23.572 54.6262  12
 -16  10  -1 68.1179 46.2395   9
  16 -10  -1 80.3850 51.9157  15
  16 -10  -1 39.1223 52.7547   3
 -10 -16  -1 45.5202 58.8154   6
  16 -10   1 38.9652 46.4937  15
 -10 -16   1 75.0073 60.0022   6
  10  16   1 111.889 54.2313  12
 -16  10   1 91.2515 57.9122   9
  16 -10   1 68.7673 54.7718   3
 -11 -16  -1 41.4587 59.6386   6
  11  16  -1 -62.282 56.1094  12
  16 -11  -1 14.0589 54.9070   3
  16 -11  -1 67.1679 54.1201  15
 -16  11  -1 -7.9614 43.0189   9
  11  16   1 27.3031 54.7381  12
 -11 -16   1 46.0169 66.4687   6
 -16  11   1 139.055 58.1970   9
  16 -11   1 61.0444 55.0972   3
  16 -11   1 23.3698 46.9170  15
  16 -12  -1 18.8622 54.9307  15
 -12 -16  -1 10.0987 61.2324   6
  12  16  -1 78.0339 64.2652  12
  16 -12  -1 117.675 60.1555   3
 -16  12  -1 78.7054 49.4835   9
 -16  12   1 130.306 60.3712   9
 -12 -16   1 113.551 67.5452   6
  12  16   1 -22.483 56.9487  12
  16 -12   1 110.026 58.7754   3
  16 -12   1 98.1322 50.9473  15
  13  16  -1 65.4182 63.3172  12
 -13 -16  -1 -13.237 67.7212   6
  16 -13  -1 53.2682 58.0698  15
  16 -13  -1 139.672 63.8049   3
 -16  13  -1 -18.924 47.4979   9
 -16  13   1 61.6875 59.0701   9
  16 -13   1 13.5713 51.0971  15
 -13 -16   1 -35.284 69.9575   6
  13  16   1 4.02591 58.9398  12
  16 -13   1 43.6697 58.7744   3
  16 -14  -1 148.346 63.3468  15
  16 -14  -1 214.641 67.8515   3
 -14 -16  -1 110.783 73.3368   6
  14  16  -1 209.880 69.7364  12
 -16  14  -1 85.9430 54.1307   9
  16 -14   1 196.584 64.3647   3
  16 -14   1 9.84289 52.1600  15
 -16  14   1 194.603 62.2479   9
  14  16   1 17.7241 62.1463  12
 -14 -16   1 -35.909 67.0235   6
 -15 -16  -1 4.76625 70.9306   6
  16 -15  -1 104.406 70.4205   3
  16 -15  -1 -77.998 61.4651  15
 -16  15  -1 -18.221 52.3974   9
  15  16  -1 12.6945 65.9095  12
  16 -15   1 43.1227 55.3914  15
 -15 -16   1 119.548 76.3368   6
  15  16   1 -26.082 66.1407  12
  16 -15   1 -29.716 61.1856   3
 -16  15   1 12.9753 57.3643   9
 -16 -16  -1 200.946 74.7602   6
  16 -16  -1 152.585 78.0405   3
  16 -16  -1 156.205 68.3382  15
 -16  16  -1 62.4481 56.4830   9
  16  16  -1 84.4326 73.4934  12
 -16  16   1 120.316 61.2161   9
  16 -16   1 179.661 68.4573   3
 -16 -16   1 202.304 82.2707   6
  16 -16   1 115.201 59.6639  15
  16  16   1 162.812 69.1460  12
  17  15  -1 58.5981 76.3927  12
  15 -17  -1 93.9133 68.4368  15
 -15  17  -1 38.4763 54.7299   9
  15 -17  -1 59.9999 76.8536   3
 -17 -15  -1 69.4553 74.8814   6
  15 -17   1 42.6499 67.0262   3
 -15  17   1 -33.062 58.3331   9
 -17 -15   1 69.6958 75.2783   6
  17  15   1 -37.561 68.2291  12
  15 -17   1 -55.123 55.4943  15
  17  14  -1 -6.0645 73.4305  12
  14 -17  -1 15.7197 76.1386   3
  14 -17  -1 -62.764 67.2259  15
 -17 -14  -1 76.7906 67.6982   6
 -14  17  -1 46.0972 52.9887   9
  17  14   1 66.8649 67.0446  12
  14 -17   1 13.1422 56.8064  15
 -14  17   1 20.7120 57.4162   9
 -17 -14   1 164.248 80.9205   6
  14 -17   1 1.34810 63.8852   3
 -17 -13  -1 155.843 70.8505   6
  13 -17  -1 167.154 75.9807   3
  13 -17  -1 101.905 67.1607  15
  17  13  -1 112.923 74.2681  12
 -13  17  -1 29.8531 54.9755   9
  17  13   1 15.2650 65.4864  12
 -17 -13   1 27.5904 67.9118   6
 -13  17   1 -32.858 56.8652   9
  13 -17   1 18.8719 63.8642   3
  13 -17   1 83.9405 59.8128  15
  17  12  -1 95.5444 72.4199  12
 -12  17  -1 17.7715 53.3319   9
 -17 -12  -1 66.7687 67.2604   6
  12 -17  -1 119.117 74.6503   3
  12 -17  -1 -19.185 62.2118  15
  17  12   1 75.6340 61.9681  12
 -12  17   1 70.8262 57.9394   9
 -17 -12   1 63.5473 68.9321   6
  12 -17   1 189.342 65.2645   3
  12 -17   1 134.688 61.3597  15
 -11  17  -1 284.158 60.8132   9
  11 -17  -1 256.560 76.9116   3
  17  11  -1 292.674 79.1956  12
 -17 -11  -1 231.711 68.3406   6
  11 -17  -1 172.812 66.7921  15
 -11  17   1 174.046 61.3883   9
  11 -17   1 207.538 60.8594  15
  11 -17   1 124.179 64.5922   3
  17  11   1 131.401 62.0000  12
 -17 -11   1 207.056 72.7357   6
 -17 -10  -1 115.793 64.9948   6
 -10  17  -1 109.570 54.0065   9
  10 -17  -1 157.907 66.4213  15
  10 -17  -1 193.045 72.6417   3
  17  10  -1 242.004 75.2278  12
 -17 -10   1 181.149 71.9745   6
 -10  17   1 19.1114 53.8556   9
  10 -17   1 224.257 63.2582   3
  17  10   1 104.766 65.1004  12
  10 -17   1 128.487 59.2852  15
  17   9  -1 145.204 71.6059  12
   9 -17  -1 256.190 72.8243   3
 -17  -9  -1 239.733 63.7130   6
   9 -17  -1 261.608 67.8143  15
  -9  17  -1 214.911 58.1216   9
   9 -17   1 91.9253 59.2600  15
  -9  17   1 110.477 55.6647   9
   9 -17   1 247.065 64.6634   3
 -17  -9   1 206.904 74.2906   6
  17   9   1 285.922 67.3147  12
  17   8  -1 283.948 68.2000  12
   8 -17  -1 229.879 68.4293   3
   8 -17  -1 150.265 64.4957  15
  -8  17  -1 134.882 54.1146   9
 -17  -8  -1 295.185 64.2262   6
   8 -17   1 284.174 64.7660   3
  -8  17   1 91.8912 55.3865   9
 -17  -8   1 217.035 73.3681   6
  17   8   1 195.146 66.6789  12
   8 -17   1 276.445 60.9024  15
  17   7  -1 185.443 62.3419  12
   7 -17  -1 138.470 64.7015   3
  -7  17  -1 140.550 54.9739   9
 -17  -7  -1 82.8758 58.3562   6
   7 -17  -1 167.741 59.0318  15
  -7  17   1 98.1718 53.4236   9
   7 -17   1 44.2435 55.7202  15
   7 -17   1 151.617 63.6187   3
  17   7   1 120.597 59.8244  12
 -17  -7   1 170.474 69.7233   6
  17   6  -1 106.718 62.2915  12
  -6  17  -1 129.527 54.8357   9
   6 -17  -1 229.550 60.5076  15
 -17  -6  -1 280.335 59.9551   6
 -17  -6  -1 142.114 57.6550   9
   6 -17  -1 141.077 52.7994   6
  17   6  -1 126.164 53.6638   3
  17   6   1 150.248 58.8875  12
 -17  -6   1 179.729 67.6887   6
   6 -17   1 139.392 58.4367  15
  17   5  -1 54.1262 46.3157  15
  -5  17  -1 191.213 55.0670   9
   5 -17  -1 166.314 56.4298  15
  17   5  -1 278.658 63.0649  12
   5 -17  -1 152.437 52.2984   6
 -17  -5  -1 192.442 55.1484   6
  17   5  -1 108.430 52.3778   3
 -17  -5  -1 152.805 57.3902   9
  -5  17  -1 154.358 48.9191  12
   4 -17  -1 173.543 53.5263   6
  -4  17  -1 130.479 53.1622   9
  17   4  -1 215.101 49.5196  15
  17   4  -1 192.988 60.4189  12
 -17  -4  -1 272.758 59.8875   9
  17   4  -1 114.647 52.6521   3
  -4  17  -1 131.373 49.0040  12
  17   3  -1 319.732 58.2135   3
 -17  -3  -1 243.063 60.9442   9
  17   3  -1 175.131 49.3612  15
  -3  17  -1 265.797 50.4728  12
   3 -17  -1 295.116 54.6710   6
 -17  -2  -1 134.536 53.8350   9
  -2  17  -1 66.7883 50.5219  12
   2 -17  -1 19.0327 50.2842   6
  17   2  -1 53.8762 48.0545   3
  17   2  -1 87.4903 45.5672  15
  -1  17  -1 81.8509 51.7662  12
 -17  -1  -1 -8.7105 50.4754   9
  17   1  -1 37.6748 48.5056   3
  17   1  -1 -44.261 37.6690  15
   1 -17  -1 86.2786 52.1635   6
 -17   0  -1 312.891 58.1960   9
   0  17  -1 410.688 59.8101  12
   0 -17  -1 316.334 62.3869   6
  17   0  -1 292.847 57.1748   3
  17   0  -1 185.078 48.2014  15
  17   0   1 380.947 67.7227   3
  17  -1  -1 10.0187 46.8634   3
   1  17  -1 43.2769 49.5740  12
  -1 -17  -1 34.5706 52.0856   6
 -17   1  -1 22.0833 50.7156   9
  17  -1  -1 5.92053 41.2613  15
  17  -1   1 58.5950 47.1465   3
 -17   2  -1 83.8682 51.4391   9
   2  17  -1 81.1964 54.1816  12
  17  -2  -1 92.2952 44.0864  15
  -2 -17  -1 96.3678 57.9074   6
  17  -2  -1 73.9142 49.0593   3
  17  -2   1 56.6703 46.0695   3
  -2 -17   1 135.989 52.6746   6
  17  -2   1 92.0486 42.5554  15
   3  17  -1 289.491 59.5003  12
  -3 -17  -1 269.850 63.0562   6
  17  -3  -1 323.561 54.5064  15
 -17   3  -1 271.267 55.2857   9
  17  -3  -1 330.096 57.8566   3
  -3 -17   1 231.001 57.0956   6
   3  17   1 302.623 58.5486  12
  17  -3   1 370.557 59.1940   3
  17  -3   1 313.324 51.1309  15
 -17   3   1 263.759 60.8874   9
  17  -4  -1 167.705 53.0686   3
  17  -4  -1 99.4151 47.5806  15
   4  17  -1 63.1033 56.3712  12
 -17   4  -1 243.548 53.6806   9
  -4 -17  -1 49.5771 61.3839   6
  -4 -17   1 187.638 56.5517   6
  17  -4   1 232.473 54.4445   3
  17  -4   1 161.215 44.6535  15
   4  17   1 197.528 50.7299  12
 -17   4   1 208.322 56.7736   9
  17  -5  -1 129.773 53.1248   3
   5  17  -1 159.758 54.3527  12
  -5 -17  -1 78.0237 59.3725   6
  17  -5  -1 142.141 50.1452  15
 -17   5  -1 210.090 52.1021   9
 -17   5   1 188.734 55.3034   9
  -5 -17   1 221.847 59.5435   6
  17  -5   1 237.041 48.9103  15
  17  -5   1 188.685 52.8714   3
   5  17   1 47.2943 48.7955  12
  -6 -17  -1 246.490 66.0992   6
  17  -6  -1 185.843 55.3687   3
 -17   6  -1 282.212 53.4653   9
  17  -6  -1 140.659 50.3869  15
   6  17  -1 241.342 55.6823  12
  17  -6   1 253.988 58.8245   3
  -6 -17   1 270.122 63.4167   6
   6  17   1 265.759 58.2390  12
  17  -6   1 178.891 48.4473  15
 -17   6   1 202.847 58.1505   9
 -17   7  -1 136.765 47.9967   9
  17  -7  -1 94.4932 49.3615  15
  17  -7  -1 70.2496 53.2009   3
   7  17  -1 81.3971 54.4859  12
  -7 -17  -1 115.380 60.5570   6
 -17   7   1 69.0768 57.1335   9
  17  -7   1 76.7228 53.0627   3
   7  17   1 97.2055 52.0344  12
  -7 -17   1 99.1177 60.2247   6
  17  -7   1 153.004 46.8633  15
   8  17  -1 237.972 61.2422  12
 -17   8  -1 153.270 49.6525   9
  -8 -17  -1 216.143 67.1134   6
  17  -8  -1 222.184 56.7071  15
  17  -8  -1 195.903 58.6969   3
   8  17   1 193.957 61.0459  12
  -8 -17   1 202.250 66.0890   6
 -17   8   1 319.165 66.5338   9
  17  -8   1 195.376 50.6425  15
  17  -8   1 245.733 58.2619   3
 -17   9  -1 237.040 53.1389   9
   9  17  -1 70.6753 59.1537  12
  17  -9  -1 218.659 55.8553  15
  -9 -17  -1 220.863 64.5241   6
  17  -9  -1 171.747 57.9621   3
 -17   9   1 178.715 62.4747   9
  17  -9   1 205.601 57.6178   3
  17  -9   1 160.904 52.6471  15
   9  17   1 207.555 59.3486  12
  -9 -17   1 291.974 66.3315   6
  17 -10  -1 71.3029 53.0178  15
  10  17  -1 118.442 61.7754  12
 -17  10  -1 194.098 51.6884   9
 -10 -17  -1 105.968 66.4258   6
  17 -10  -1 61.7039 56.6953   3
 -10 -17   1 173.977 65.5102   6
  10  17   1 204.340 63.8623  12
  17 -10   1 93.4837 56.3320   3
  17 -10   1 148.011 52.6709  15
 -17  10   1 273.102 64.0906   9
 -11 -17  -1 243.372 70.7845   6
 -17  11  -1 306.850 57.2907   9
  11  17  -1 231.917 67.3158  12
  17 -11  -1 163.802 59.0409  15
  17 -11  -1 92.9175 59.8987   3
 -11 -17   1 175.843 73.1442   6
  11  17   1 253.575 67.5680  12
 -17  11   1 288.913 66.2922   9
  17 -11   1 196.303 61.7540   3
  17 -11   1 232.640 57.9299  15
 -17  12  -1 43.2187 50.0763   9
  17 -12  -1 132.563 57.5314  15
 -12 -17  -1 146.135 72.8997   6
  17 -12  -1 -17.320 58.6779   3
  12  17  -1 196.555 68.4689  12
  17 -12   1 66.4517 53.8062  15
  17 -12   1 49.3089 57.4550   3
 -12 -17   1 189.740 73.9725   6
 -17  12   1 76.9971 61.4942   9
  12  17   1 66.9738 64.2719  12
 -13 -17  -1 7.31506 66.5116   6
  13  17  -1 73.6772 68.1428  12
  17 -13  -1 213.671 68.0579   3
  17 -13  -1 135.665 60.2663  15
 -17  13  -1 33.8845 50.2641   9
  13  17   1 68.4339 64.2311  12
  17 -13   1 39.4313 53.9452  15
 -17  13   1 16.3104 60.4607   9
  17 -13   1 7.33446 58.9016   3
 -13 -17   1 71.7230 74.4454   6
 -14 -17  -1 -11.663 66.2638   6
  17 -14  -1 -121.66 63.6293   3
  17 -14  -1 52.1697 61.9470  15
 -17  14  -1 36.4521 51.2508   9
  14  17  -1 62.3416 70.3242  12
  17 -14   1 74.8599 55.3900  15
 -17  14   1 -11.989 59.8331   9
  17 -14   1 9.02247 60.0401   3
 -14 -17   1 57.9029 69.0148   6
  14  17   1 48.3340 68.1084  12
  17 -15  -1 12.6359 63.6155  15
  15  17  -1 16.4482 69.0859  12
  17 -15  -1 126.833 72.6665   3
 -17  15  -1 40.6087 54.0251   9
 -15 -17  -1 -24.600 68.6552   6
 -17  15   1 48.4203 59.8906   9
 -15 -17   1 -68.343 76.0518   6
  17 -15   1 56.4620 63.8314   3
  15  17   1 60.3063 64.5846  12
  17 -15   1 51.4637 57.6916  15
  14 -18  -1 126.270 75.1139  15
  14 -18  -1 172.775 82.2242   3
 -18 -14  -1 132.316 72.6809   6
  18  14  -1 -25.017 74.9077  12
 -14  18  -1 229.978 62.7974   9
  18  14   1 178.225 72.1494  12
 -18 -14   1 30.0521 79.4714   6
  14 -18   1 261.200 73.4736   3
  14 -18   1 195.390 65.2029  15
 -14  18   1 138.664 63.3678   9
 -13  18  -1 55.8101 57.0607   9
  18  13  -1 -41.159 73.0487  12
  13 -18  -1 35.8485 76.9843   3
  13 -18  -1 124.870 72.7152  15
 -18 -13  -1 78.1759 71.3648   6
  13 -18   1 97.1019 68.4364   3
  18  13   1 105.294 71.0832  12
  13 -18   1 93.3687 62.1788  15
 -13  18   1 90.3961 61.7621   9
 -18 -13   1 91.6402 77.6289   6
  12 -18  -1 224.225 74.4839  15
 -12  18  -1 200.447 62.2500   9
  18  12  -1 199.905 77.8853  12
 -18 -12  -1 135.663 70.6813   6
  12 -18  -1 284.269 80.1278   3
  18  12   1 146.973 66.9517  12
 -18 -12   1 104.046 73.2295   6
 -12  18   1 65.7576 60.9398   9
  12 -18   1 215.420 66.7971  15
  12 -18   1 145.741 69.9784   3
 -18 -11  -1 -9.8417 61.4361   6
 -11  18  -1 29.0191 54.9637   9
  11 -18  -1 25.0143 65.6560  15
  11 -18  -1 -73.714 70.6581   3
  18  11  -1 3.74907 71.1090  12
 -11  18   1 -10.462 56.0412   9
  18  11   1 84.5946 65.4439  12
  11 -18   1 -68.062 61.4346   3
  11 -18   1 173.510 62.4816  15
 -18 -11   1 36.1581 75.6457   6
 -10  18  -1 69.1853 55.3140   9
 -18 -10  -1 113.996 65.6658   6
  18  10  -1 -2.5206 69.2842  12
  10 -18  -1 138.671 72.6490   3
  10 -18  -1 -31.155 64.4877  15
 -10  18   1 4.13324 55.2475   9
  10 -18   1 8.52003 66.1441   3
  10 -18   1 31.5832 60.9281  15
 -18 -10   1 -88.188 72.9788   6
  18  10   1 65.4829 64.0321  12
 -18  -9  -1 28.5281 61.3534   6
   9 -18  -1 158.410 71.0484   3
  18   9  -1 64.2380 66.8431  12
   9 -18  -1 18.8441 63.3863  15
  -9  18  -1 -4.2898 51.0897   9
   9 -18   1 -101.52 56.2727  15
  -9  18   1 27.7096 55.2841   9
  18   9   1 151.622 67.6230  12
   9 -18   1 24.7333 65.0406   3
 -18  -9   1 61.3089 70.5663   6
  18   8  -1 -64.639 63.8050  12
  -8  18  -1 66.3342 54.8820   9
 -18  -8  -1 104.265 61.1429   6
   8 -18  -1 194.940 65.4991  15
  18   8   1 147.299 68.7212  12
   8 -18   1 3.27610 59.4967  15
 -18  -8   1 151.770 70.9988   6
  -8  18   1 -36.653 53.0737   9
   8 -18   1 96.3458 66.8709   3
  18   7  -1 144.070 65.6450  12
  -7  18  -1 168.255 55.4948   9
   7 -18  -1 64.6233 61.7695  15
 -18  -7  -1 299.496 63.7615   6
  18   7   1 164.878 65.5934  12
  -7  18   1 -6.7706 55.1992   9
   7 -18   1 86.6827 58.6026  15
 -18  -7   1 321.685 78.1127   6
   7 -18   1 162.632 69.1618   3
  18   6  -1 247.964 66.0050  12
  18   6  -1 275.677 73.3107   3
   6 -18  -1 223.043 65.0050  15
  -6  18  -1 325.385 61.6552   9
 -18  -6  -1 297.076 63.2507   6
   6 -18   1 234.748 65.1289  15
  -6  18   1 206.797 58.2739   9
  18   6   1 190.102 65.8045  12
 -18  -6   1 217.148 75.7506   6
 -18  -5  -1 17.3566 58.5579   9
  18   5  -1 92.4002 69.0976  12
  -5  18  -1 129.867 54.3713   9
  18   5  -1 83.0824 52.0685   3
   5 -18  -1 -10.070 52.2204   6
   5 -18   1 37.0391 61.3777  15
   4 -18  -1 43.4415 51.2123   6
  18   4  -1 43.5786 46.6692  15
 -18  -4  -1 22.4767 56.5452   9
  18   4  -1 60.2078 51.3824   3
  -4  18  -1 93.9084 50.0606  12
  18   3  -1 51.3971 52.1576   3
  18   3  -1 35.4642 44.5416  15
  -3  18  -1 66.2621 47.3604  12
 -18  -3  -1 103.032 57.4281   9
   3 -18  -1 138.917 53.0850   6
  18   2  -1 116.623 54.6296   3
   2 -18  -1 124.259 57.9951   6
  -2  18  -1 220.670 50.7600  12
 -18  -2  -1 305.676 60.7545   9
  18   2  -1 207.576 51.9351  15
 -18  -1  -1 248.410 59.4812   9
  -1  18  -1 127.048 56.6920  12
   1 -18  -1 197.683 55.7660   6
  18   1  -1 56.4069 44.7862  15
  18   1  -1 192.709 55.1138   3
 -18   0  -1 75.5084 53.0447   9
   0  18  -1 65.1183 54.3452  12
   0 -18  -1 24.3741 53.8920   6
  18   0  -1 -38.012 48.0586   3
  18   0  -1 76.1902 45.7028  15
 -18   1  -1 99.0136 55.6031   9
  18  -1  -1 113.904 45.3668  15
  18  -1  -1 167.997 55.6611   3
  -1 -18  -1 175.924 60.4834   6
   1  18  -1 164.735 58.2057  12
  18  -1   1 200.824 53.7632   3
  -2 -18  -1 128.260 58.8431   6
  18  -2  -1 99.5998 47.6284  15
   2  18  -1 100.739 55.5463  12
 -18   2  -1 159.547 57.0383   9
  18  -2  -1 208.612 56.3975   3
  18  -2   1 224.877 55.0085   3
   3  18  -1 53.4870 55.3794  12
  -3 -18  -1 -19.004 56.2941   6
  18  -3  -1 57.7266 50.4201   3
 -18   3  -1 114.725 50.3591   9
  18  -3  -1 -37.531 42.2286  15
  18  -3   1 71.0960 44.5271  15
  18  -3   1 -36.917 48.7106   3
  -3 -18   1 -16.551 52.2030   6
  -4 -18  -1 66.2632 63.3342   6
  18  -4  -1 -23.305 44.4469  15
  18  -4  -1 -28.560 49.6689   3
   4  18  -1 -52.285 54.4041  12
 -18   4  -1 12.2510 48.4271   9
  -4 -18   1 1.55801 53.9160   6
 -18   4   1 -51.490 54.9176   9
  18  -4   1 2.66040 50.2711   3
   4  18   1 62.4791 51.2951  12
  18  -4   1 -23.170 42.3934  15
   5  18  -1 24.4887 52.5454  12
  -5 -18  -1 79.6414 61.1637   6
 -18   5  -1 19.3711 48.5509   9
  18  -5  -1 83.1501 48.2588  15
  18  -5  -1 39.3471 52.2909   3
 -18   5   1 9.82687 55.6612   9
   5  18   1 -75.266 54.5654  12
  -5 -18   1 10.6463 56.6868   6
  18  -5   1 55.3967 44.6273  15
  18  -5   1 33.9843 50.8658   3
  18  -6  -1 254.494 55.0624  15
 -18   6  -1 231.895 55.5605   9
   6  18  -1 366.828 64.7975  12
  18  -6  -1 295.251 61.3839   3
  -6 -18  -1 299.650 72.5763   6
  18  -6   1 367.944 62.9215   3
  -6 -18   1 227.588 61.2417   6
  18  -6   1 243.875 52.6276  15
   6  18   1 258.111 58.5149  12
 -18   6   1 184.813 61.7484   9
  18  -7  -1 156.162 56.6756   3
  18  -7  -1 142.778 54.0965  15
 -18   7  -1 196.859 53.6113   9
  -7 -18  -1 198.897 68.9622   6
   7  18  -1 203.572 60.2486  12
 -18   7   1 127.300 61.0284   9
  18  -7   1 219.573 58.0414   3
   7  18   1 262.776 62.3849  12
  -7 -18   1 139.591 62.9876   6
  18  -7   1 227.013 52.8121  15
  -8 -18  -1 85.0049 64.1032   6
 -18   8  -1 69.3548 49.2960   9
   8  18  -1 143.470 57.8198  12
  18  -8  -1 -18.055 50.5698  15
  18  -8  -1 21.4674 55.9716   3
  -8 -18   1 71.9169 59.1587   6
   8  18   1 24.0965 55.1334  12
  18  -8   1 92.2672 56.7765   3
 -18   8   1 47.1035 59.0530   9
  18  -8   1 163.703 48.6095  15
  -9 -18  -1 92.8555 66.4631   6
   9  18  -1 58.0939 54.5970  12
  18  -9  -1 96.3377 58.4459   3
  18  -9  -1 59.9649 53.9754  15
 -18   9  -1 146.971 51.0153   9
  18  -9   1 98.3838 49.2166  15
  18  -9   1 0.17000 55.2516   3
 -18   9   1 38.7694 60.6289   9
   9  18   1 23.9403 59.5847  12
  -9 -18   1 98.4069 66.5331   6
 -18  10  -1 6.91462 49.2291   9
  18 -10  -1 18.5299 56.3486   3
  18 -10  -1 89.6385 56.2772  15
 -10 -18  -1 -69.889 60.7385   6
  10  18  -1 27.8127 60.3662  12
  10  18   1 -4.5231 62.4346  12
 -10 -18   1 -21.184 66.1032   6
  18 -10   1 49.1754 58.8245   3
  18 -10   1 60.1822 48.9333  15
 -18  10   1 179.805 64.7411   9
  18 -11  -1 -84.602 56.8917   3
 -11 -18  -1 13.4591 65.9739   6
  18 -11  -1 0.02813 53.4805  15
  11  18  -1 83.1890 64.9310  12
 -18  11  -1 81.8863 50.6705   9
  11  18   1 -12.759 60.2046  12
  18 -11   1 97.1482 53.3306  15
 -18  11   1 107.862 63.7047   9
 -11 -18   1 -46.911 69.4763   6
  18 -11   1 -102.95 53.4310   3
  18 -12  -1 180.515 61.3645  15
 -18  12  -1 184.065 55.6300   9
 -12 -18  -1 153.648 69.8730   6
  12  18  -1 112.101 67.9675  12
  18 -12  -1 318.780 68.5996   3
 -18  12   1 146.725 65.8384   9
  18 -12   1 166.049 58.6400  15
  18 -12   1 225.128 64.7863   3
 -12 -18   1 157.989 77.8346   6
  12  18   1 95.0829 66.0544  12
 -18  13  -1 159.122 54.0965   9
  13  18  -1 91.8461 68.1293  12
 -13 -18  -1 -30.170 69.9279   6
  18 -13  -1 40.2993 58.6451  15
  18 -13  -1 127.170 66.3940   3
  18 -13   1 103.054 58.7778  15
 -13 -18   1 -62.857 74.0680   6
 -18  13   1 124.762 65.6087   9
  13  18   1 75.2725 68.7409  12
  18 -13   1 44.7507 60.8520   3
  18 -14  -1 223.393 72.3630   3
 -14 -18  -1 273.266 79.8211   6
 -18  14  -1 70.0027 54.6537   9
  14  18  -1 165.868 73.6741  12
  18 -14  -1 210.564 64.4867  15
 -14 -18   1 132.760 79.9923   6
  14  18   1 27.8603 68.4291  12
  18 -14   1 305.794 65.5282  15
  18 -14   1 306.903 70.6082   3
 -18  14   1 231.970 68.7650   9
 -12  19  -1 154.355 59.9123   9
 -19 -12  -1 28.0732 68.3001   6
  12 -19  -1 126.534 73.2109  15
  12 -19  -1 112.882 77.9288   3
  19  12  -1 24.8948 79.5597  12
  12 -19   1 62.9427 63.6251  15
  19  12   1 19.3329 63.9641  12
 -19 -12   1 55.1331 77.7224   6
  12 -19   1 -77.987 65.8148   3
 -12  19   1 25.7218 61.3699   9
  11 -19  -1 72.9221 69.9764  15
 -11  19  -1 176.688 61.5491   9
  11 -19  -1 89.3304 77.3593   3
 -19 -11  -1 109.281 70.5375   6
  19  11  -1 214.017 81.5692  12
  11 -19   1 88.7876 71.6512   3
 -19 -11   1 110.060 79.9701   6
  19  11   1 228.375 71.0309  12
  11 -19   1 90.4895 67.6405  15
 -11  19   1 107.078 61.4036   9
  19  10  -1 236.399 79.7316  12
 -10  19  -1 141.109 59.5036   9
 -19 -10  -1 120.280 69.0334   6
  10 -19  -1 59.8259 68.8340  15
  10 -19   1 -32.684 68.5028   3
  19  10   1 -6.1565 69.4730  12
 -19 -10   1 -0.2006 72.0205   6
  10 -19   1 57.2247 65.3777  15
 -10  19   1 -36.716 58.8870   9
 -19  -9  -1 79.3391 65.4270   6
  -9  19  -1 -26.006 54.2945   9
   9 -19  -1 60.4518 63.7975  15
  19   9  -1 -6.7236 74.0483  12
   9 -19   1 156.301 73.3229   3
  19   9   1 43.0994 65.9220  12
 -19  -9   1 92.3486 80.3030   6
  -9  19   1 -1.1868 56.1856   9
   9 -19   1 157.583 68.3656  15
 -19  -8  -1 85.9666 62.6951   6
   8 -19  -1 83.3954 63.9604  15
  -8  19  -1 -36.628 53.3588   9
  19   8  -1 64.1560 71.5744  12
  19   8   1 -80.154 65.8473  12
   8 -19   1 -59.029 70.1356   3
   8 -19   1 34.1239 65.0425  15
  -8  19   1 37.8430 58.4807   9
 -19  -8   1 1.26509 72.5107   6
 -19  -7  -1 10.4958 65.4892   6
  -7  19  -1 139.651 57.3115   9
  19   7  -1 173.161 68.1609  12
   7 -19   1 129.769 64.1690  15
  -7  19   1 36.5842 58.7498   9
  19   7   1 -26.972 69.9717  12
   7 -19   1 -15.697 67.1173   3
 -19  -7   1 -21.508 75.4461   6
  -6  19  -1 55.5225 63.7006   9
   6 -19   1 81.3303 68.5727   3
  -6  19   1 56.6052 56.4357   9
 -19  -6   1 35.1076 70.4911   6
  19   6   1 98.3912 64.9176  12
   6 -19   1 36.1115 61.6048  15
  19   5  -1 -1.2877 54.3958   3
   5 -19   1 172.114 66.3695  15
  19   5   1 120.646 64.7475  12
 -19  -5   1 37.4167 70.5507   6
 -19  -4  -1 110.082 63.7510   9
   4 -19  -1 50.7481 55.2758   6
  19   4  -1 12.5505 53.9845   3
   4 -19   1 38.0286 61.7404  15
  -3  19  -1 60.0897 49.4566  12
 -19  -3  -1 60.5504 57.7879   9
   3 -19  -1 85.2745 56.2645   6
  19   3  -1 169.044 58.2082   3
  19   3  -1 59.4091 47.8009  15
 -19  -2  -1 64.4406 61.3389   9
  19   2  -1 -1.9121 45.8019  15
  19   2  -1 59.0960 53.2275   3
  -2  19  -1 7.06687 46.0788  12
   2 -19  -1 40.0715 57.1301   6
  -1  19  -1 74.5015 56.1605  12
  19   1  -1 66.6391 54.6262   3
   1 -19  -1 130.059 56.2007   6
  19   1  -1 8.65339 44.9650  15
 -19  -1  -1 -1.1981 55.3442   9
   0 -19  -1 -1.7943 55.0063   6
   0  19  -1 -13.793 56.7860  12
 -19   0  -1 7.99927 55.8807   9
  19   0  -1 88.2135 53.2313   3
  19   0  -1 53.6976 45.2914  15
  19  -1  -1 45.9821 54.1271   3
 -19   1  -1 -39.510 54.2551   9
  19  -1  -1 1.43990 44.5641  15
  -1 -19  -1 14.9909 61.4750   6
   1  19  -1 52.4296 56.0632  12
  -2 -19  -1 35.2815 62.3592   6
   2  19  -1 44.5838 58.9267  12
  19  -2  -1 -65.753 43.0356  15
  19  -2  -1 66.8426 54.4797   3
 -19   2  -1 93.3941 57.9676   9
  19  -2   1 -80.706 50.1672   3
   3  19  -1 93.8374 57.7982  12
  -3 -19  -1 114.736 63.8687   6
  19  -3  -1 100.284 54.6930   3
  19  -3  -1 65.6529 48.5866  15
 -19   3  -1 7.16939 54.3875   9
  19  -3   1 11.2426 52.8344   3
   4  19  -1 41.5037 60.2298  12
 -19   4  -1 153.319 55.7187   9
  -4 -19  -1 45.5567 65.0778   6
  19  -4  -1 -0.0848 52.0820   3
  19  -4  -1 14.6500 48.2469  15
  19  -4   1 26.9598 45.4302  15
  -4 -19   1 63.6783 57.5794   6
  19  -4   1 93.7419 53.4915   3
  19  -5  -1 115.493 51.4439  15
   5  19  -1 229.778 63.0769  12
  -5 -19  -1 -14.136 65.7568   6
 -19   5  -1 55.4788 52.3419   9
  19  -5  -1 103.340 55.7479   3
  19  -5   1 183.672 57.7006   3
 -19   5   1 142.588 59.9968   9
   5  19   1 61.0394 56.4725  12
  19  -5   1 92.8425 50.5083  15
  -5 -19   1 87.3686 59.4368   6
   6  19  -1 63.4621 60.0176  12
  19  -6  -1 59.0109 50.2492  15
  -6 -19  -1 62.3576 67.5439   6
  19  -6  -1 -0.2239 54.2663   3
 -19   6  -1 49.1677 54.3303   9
   6  19   1 27.9224 57.1410  12
  -6 -19   1 100.939 61.9550   6
  19  -6   1 134.803 49.1826  15
  19  -6   1 101.837 57.0579   3
 -19   6   1 191.096 61.9138   9
  19  -7  -1 46.2001 51.6389  15
   7  19  -1 40.9529 56.5536  12
 -19   7  -1 62.6225 52.0998   9
  19  -7  -1 53.5905 55.5408   3
  -7 -19  -1 58.8666 68.5957   6
  -7 -19   1 74.0974 59.8239   6
  19  -7   1 38.0646 47.4232  15
  19  -7   1 54.8726 55.7326   3
   7  19   1 50.4892 54.6485  12
 -19   7   1 29.8997 60.8499   9
  19  -8  -1 -23.319 51.0852  15
 -19   8  -1 16.8055 49.8669   9
  19  -8  -1 -38.293 53.1097   3
  -8 -19  -1 -72.940 69.8335   6
   8  19  -1 33.0752 59.7836  12
  -8 -19   1 60.2662 61.1283   6
  19  -8   1 -38.824 47.4129  15
  19  -8   1 76.1243 56.8781   3
   8  19   1 142.498 59.2399  12
 -19   8   1 -13.721 60.3338   9
 -19   9  -1 72.1664 51.1170   9
   9  19  -1 58.9422 61.0829  12
  19  -9  -1 63.7354 54.6499  15
  19  -9  -1 34.1534 60.1672   3
  -9 -19  -1 165.984 73.6179   6
  19  -9   1 53.6508 57.4925   3
 -19   9   1 165.729 64.1714   9
  19  -9   1 49.7302 48.7947  15
   9  19   1 83.2949 63.9121  12
  -9 -19   1 46.7776 67.6473   6
 -10 -19  -1 102.246 72.3935   6
  10  19  -1 64.9932 64.8902  12
 -19  10  -1 148.285 53.3249   9
  19 -10  -1 50.5087 61.8728   3
  19 -10  -1 -16.141 53.7944  15
  10  19   1 6.70256 65.2152  12
 -10 -19   1 168.715 73.6814   6
  19 -10   1 167.037 63.4537   3
 -19  10   1 104.742 65.2288   9
  19 -10   1 18.0857 50.1653  15
 -11 -19  -1 32.6742 71.2455   6
 -19  11  -1 147.652 53.3741   9
  19 -11  -1 235.378 67.5117   3
  19 -11  -1 134.652 60.2713  15
  11  19  -1 110.259 66.6856  12
  19 -11   1 169.643 64.3032   3
  11  19   1 80.5862 64.3862  12
 -19  11   1 220.612 69.1516   9
 -11 -19   1 -52.587 69.8543   6
  19 -11   1 198.914 56.6144  15
  19 -12  -1 30.5386 62.4760   3
 -12 -19  -1 97.2839 74.0645   6
 -19  12  -1 153.253 55.6936   9
  19 -12  -1 73.9030 61.2014  15
  12  19  -1 49.9445 65.2426  12
 -12 -19   1 69.9887 74.9548   6
  19 -12   1 -9.8927 61.4300   3
  19 -12   1 64.8799 56.8200  15
  12  19   1 160.263 69.9055  12
 -19  12   1 57.9670 67.1234   9
  20  11  -1 49.1409 79.4889  12
  11 -20  -1 129.420 71.4895  15
 -20 -11  -1 12.0157 67.8183   6
 -11  20  -1 118.300 61.5125   9
  11 -20   1 16.4292 69.9758  15
 -20 -11   1 40.2257 81.1240   6
  20  11   1 -38.066 70.0260  12
 -11  20   1 -21.422 61.3121   9
  11 -20   1 -8.7987 76.4942   3
 -10  20  -1 -65.358 57.3908   9
  10 -20  -1 59.1357 69.0039  15
  20  10  -1 42.8751 79.9393  12
 -20 -10  -1 88.9996 69.0493   6
 -20 -10   1 23.8618 73.4190   6
  10 -20   1 46.7793 69.0827  15
  10 -20   1 19.9568 73.9719   3
  20  10   1 -27.332 71.5171  12
 -10  20   1 113.486 63.7506   9
  -9  20  -1 18.7801 57.0996   9
 -20  -9  -1 56.0018 67.0179   6
   9 -20  -1 -11.455 67.5589  15
  20   9  -1 136.509 78.1156  12
  20   9   1 39.1657 67.6145  12
   9 -20   1 16.8424 73.4098   3
  -9  20   1 -8.2842 59.7495   9
   9 -20   1 87.9918 69.4060  15
 -20  -9   1 -85.646 78.0652   6
  -8  20  -1 -38.701 56.8845   9
  20   8  -1 64.7254 74.0174  12
  20   8   1 65.9330 70.8604  12
 -20  -8   1 143.898 77.9663   6
   8 -20   1 -15.916 66.9359  15
   8 -20   1 7.64528 72.5538   3
  -8  20   1 31.1374 61.5003   9
  20   7   1 375.823 82.1175  12
   7 -20   1 311.282 77.3208  15
 -20  -7   1 318.806 86.8631   6
   7 -20   1 295.808 81.5029   3
  -7  20   1 198.293 65.4592   9
  -6  20   1 3.62971 59.8895   9
 -20  -6   1 6.22738 79.4324   6
  20   6   1 58.9204 70.3885  12
   6 -20   1 7.90134 67.1637  15
   6 -20   1 -23.956 69.3834   3
   5 -20   1 101.884 69.3092  15
  20   5   1 211.905 74.4967  12
  -5  20   1 57.3463 58.3484   9
 -20  -5   1 101.558 74.1357   6
   5 -20   1 70.5268 72.8630   3
  20   4  -1 -16.464 55.1196   3
   4 -20   1 113.110 65.5369  15
 -20  -4   1 48.8876 75.3194   6
 -20  -3  -1 81.7157 63.6433   9
   3 -20  -1 -4.6543 56.8217   6
  20   3  -1 104.709 59.0401   3
 -20  -2  -1 108.135 63.9199   9
   2 -20  -1 57.7385 58.7866   6
  20   2  -1 -33.214 54.6828   3
  20   2  -1 27.3095 49.9123  15
  -2  20  -1 21.1558 48.5406  12
   1 -20  -1 240.791 64.9050   6
 -20  -1  -1 311.223 67.5586   9
  20   1  -1 239.294 63.2261   3
  -1  20  -1 399.244 65.8938  12
  20   1  -1 206.399 53.7386  15
  20   0  -1 285.164 58.6079  15
   0 -20  -1 495.410 74.7581   6
  20   0  -1 324.881 68.3397   3
 -20   0  -1 321.153 70.3528   9
   0  20  -1 325.772 66.0261  12
  20  -1  -1 195.617 52.6754  15
  -1 -20  -1 185.673 67.8774   6
 -20   1  -1 236.130 62.2823   9
   1  20  -1 320.472 69.4175  12
  20  -1  -1 253.980 63.4823   3
  -2 -20  -1 -38.257 62.7253   6
   2  20  -1 111.496 62.9883  12
  20  -2  -1 -52.514 45.2111  15
  20  -2  -1 78.5650 56.9406   3
 -20   2  -1 20.5470 57.5810   9
   3  20  -1 89.5518 60.8566  12
  -3 -20  -1 4.85230 64.9135   6
  20  -3  -1 -69.380 54.3947   3
 -20   3  -1 -65.159 55.3231   9
  20  -3  -1 40.7900 49.3073  15
  20  -3   1 17.9580 55.3434   3
  -4 -20  -1 96.2138 69.1175   6
  20  -4  -1 155.827 59.6506   3
 -20   4  -1 -31.573 56.1323   9
  20  -4  -1 165.921 53.3385  15
   4  20  -1 130.656 65.3526  12
  20  -4   1 9.09900 56.8388   3
   5  20  -1 125.764 66.2898  12
  -5 -20  -1 145.265 72.9009   6
  20  -5  -1 37.0618 52.5724  15
  20  -5  -1 90.2655 58.9631   3
 -20   5  -1 187.564 60.4494   9
  20  -5   1 185.694 62.1801   3
  -5 -20   1 122.804 63.4394   6
  20  -5   1 243.912 56.1348  15
  20  -6  -1 67.7715 52.9451  15
   6  20  -1 166.746 66.0238  12
 -20   6  -1 -16.284 54.2650   9
  20  -6  -1 -6.0235 57.5953   3
  -6 -20  -1 58.0948 67.9179   6
  -6 -20   1 70.5588 64.8536   6
  20  -6   1 75.1499 58.8176   3
   6  20   1 85.3313 63.0272  12
 -20   6   1 228.769 63.9305   9
  20  -6   1 89.2022 52.4929  15
  -7 -20  -1 361.477 80.4139   6
  20  -7  -1 173.541 64.9387   3
 -20   7  -1 195.159 62.5684   9
   7  20  -1 181.477 67.5889  12
  20  -7  -1 205.056 58.7803  15
  20  -7   1 224.167 65.9389   3
   7  20   1 167.807 68.0169  12
  -7 -20   1 219.073 67.2285   6
 -20   7   1 278.343 68.5189   9
  20  -7   1 230.268 56.6102  15
   8  20  -1 119.219 65.4181  12
  20  -8  -1 -23.426 52.8505  15
  20  -8  -1 -41.376 57.0174   3
 -20   8  -1 36.3693 54.5074   9
  -8 -20  -1 -54.011 70.6028   6
   8  20   1 86.1068 65.6556  12
  20  -8   1 73.1486 58.6534   3
 -20   8   1 63.2623 64.8018   9
  20  -8   1 40.2030 52.8266  15
  -8 -20   1 52.2864 68.6709   6
 -20   9  -1 -19.786 51.5040   9
  -9 -20  -1 65.3752 72.1899   6
  20  -9  -1 -24.166 53.7775  15
  20  -9  -1 34.9170 58.3252   3
   9  20  -1 -9.3232 59.6862  12
   9  20   1 -39.520 61.0451  12
  20  -9   1 7.66618 57.0336   3
  20  -9   1 3.99857 50.3337  15
  -9 -20   1 6.50500 70.8303   6
 -20   9   1 148.447 66.4882   9
  10  20  -1 -9.9051 62.4939  12
  20 -10  -1 107.291 59.1303  15
 -10 -20  -1 42.7018 71.0308   6
  20 -10  -1 -79.206 57.0470   3
 -20  10  -1 0.35554 52.4311   9
  20 -10   1 19.9901 57.8968   3
  20 -10   1 14.8737 52.3566  15
  10  20   1 38.0966 67.8662  12
 -10 -20   1 48.6036 71.2859   6
 -20  10   1 158.105 68.0436   9
 -20  11  -1 71.1147 53.1133   9
  20 -11  -1 21.6108 63.3557   3
  11  20  -1 157.369 67.1847  12
  20 -11  -1 62.7618 59.9862  15
 -11 -20  -1 31.0228 70.8626   6
 -11 -20   1 34.0563 72.5111   6
  20 -11   1 -47.692 57.7506   3
  11  20   1 18.7654 64.5109  12
  20 -11   1 6.66390 54.4516  15
 -20  11   1 173.494 68.3966   9
  -9  21  -1 87.3738 65.6849   9
   9 -21   1 61.2538 73.9153  15
   9 -21   1 129.784 78.8168   3
  -9  21   1 99.7718 67.0849   9
  21   9   1 3.92719 76.1023  12
   8 -21   1 37.3091 74.9462  15
 -21  -8   1 172.688 88.1000   6
  -8  21   1 -120.87 57.6899   9
  21   8   1 -31.395 75.6657  12
   8 -21   1 -21.532 77.6738   3
   7 -21   1 -56.204 73.5912   3
   7 -21   1 59.9124 74.1159  15
 -21  -7   1 80.1777 83.1575   6
  21   7   1 82.4591 79.6485  12
  -7  21   1 5.01301 63.3463   9
 -21  -6   1 -111.40 74.3880   6
  21   6   1 115.347 80.9666  12
  -6  21   1 6.96780 61.6438   9
   6 -21   1 18.7569 71.7377  15
   6 -21   1 7.97488 73.5797   3
 -21  -5   1 205.952 83.2687   6
   5 -21   1 200.264 74.8686  15
   5 -21   1 -9.2104 73.1406   3
  21   5   1 -26.241 73.7645  12
  -5  21   1 88.0818 64.8061   9
  -4  21   1 22.6845 57.7607   9
   4 -21   1 7.45813 69.5570  15
 -21  -4   1 -41.445 76.7012   6
  21   4   1 91.2118 74.2923  12
  21   3  -1 263.845 68.9273   3
   3 -21   1 404.212 79.8091  15
 -21  -2  -1 31.8532 72.9064   9
  21   2  -1 -2.2772 58.7344   3
   2 -21  -1 124.180 61.9350   6
  21   1  -1 46.0203 55.0125  15
  21   1  -1 115.507 62.1194   3
  -1  21  -1 13.7493 57.6165  12
 -21  -1  -1 127.141 63.8625   9
   1 -21  -1 -64.893 61.7296   6
 -21   0  -1 -18.007 59.8949   9
   0 -21  -1 56.7962 59.4358   6
  21   0  -1 154.367 63.4464   3
  21   0  -1 60.2251 50.9787  15
   0  21  -1 8.15207 62.8479  12
  21  -1  -1 107.764 61.7191   3
   1  21  -1 174.347 63.6390  12
 -21   1  -1 47.0335 63.5792   9
  21  -1  -1 79.7515 52.1764  15
  -1 -21  -1 59.1984 64.8074   6
   2  21  -1 87.1719 63.0337  12
 -21   2  -1 133.992 61.2723   9
  21  -2  -1 -31.922 58.9255   3
  -2 -21  -1 55.5288 64.5363   6
  21  -2  -1 56.8336 51.3532  15
   3  21  -1 258.961 68.8075  12
 -21   3  -1 208.304 65.9720   9
  21  -3  -1 177.080 64.1892   3
  21  -3  -1 214.257 57.1550  15
  -3 -21  -1 242.543 74.4557   6
 -21   4  -1 109.442 63.8805   9
  21  -4  -1 160.395 56.2434  15
   4  21  -1 -15.429 64.1996  12
  -4 -21  -1 136.339 73.0904   6
  21  -4  -1 103.587 63.2733   3
  21  -4   1 62.6274 61.6398   3
  -5 -21  -1 21.9883 71.9800   6
  21  -5  -1 100.686 55.9528  15
   5  21  -1 103.766 66.0519  12
 -21   5  -1 138.778 63.5096   9
  21  -5  -1 -34.196 59.0778   3
  21  -5   1 168.913 62.6061   3
  21  -6  -1 118.170 62.8311   3
  21  -6  -1 -23.042 55.0765  15
 -21   6  -1 62.4928 59.1659   9
   6  21  -1 73.5573 64.7750  12
  -6 -21  -1 100.938 70.8563   6
  21  -6   1 131.010 65.1245   3
  -6 -21   1 102.119 66.7915   6
  21  -6   1 189.925 56.2334  15
  21  -7  -1 19.4748 55.4216  15
  -7 -21  -1 45.5766 70.1665   6
  21  -7  -1 71.4034 62.0057   3
 -21   7  -1 52.5647 58.1770   9
   7  21  -1 124.623 66.9903  12
 -21   7   1 154.276 66.3076   9
   7  21   1 138.469 70.3572  12
  21  -7   1 -40.989 58.3880   3
 -21   8  -1 121.688 61.1203   9
  21  -8  -1 -3.5667 56.3113  15
  21  -8  -1 -22.961 60.8502   3
   8  21  -1 83.4588 66.4108  12
  -8 -21  -1 55.4892 71.1425   6
  21  -8   1 102.629 63.2699   3
  -8 -21   1 97.2327 70.5325   6
  21  -8   1 62.0144 56.2015  15
   9  21  -1 106.707 69.0253  12
  21  -9  -1 64.8079 57.1269  15
 -21   9  -1 42.2082 59.0313   9
  21  -9  -1 159.658 66.9224   3
   9  21   1 139.744 75.3404  12
  21  -9   1 155.401 57.6076  15
  21  -9   1 99.5237 62.9082   3
 -21   9   1 46.2308 66.2632   9
   6 -22   1 -74.544 69.2177  15
 -22  -6   1 -48.686 80.5982   6
   6 -22   1 -59.270 77.0417   3
  -6  22   1 -8.2407 62.4784   9
  22   6   1 -27.232 77.3936  12
  -5  22   1 35.4842 64.1211   9
  22   5   1 3.09608 79.1500  12
   5 -22   1 -82.402 70.6215  15
 -22  -5   1 -12.941 80.1179   6
  -4  22   1 -58.314 59.4823   9
 -22  -4   1 -3.3016 80.2100   6
   4 -22   1 50.8721 71.3922  15
  22   4   1 41.5442 72.2105  12
 -22  -3   1 -66.517 77.5334   6
   3 -22   1 -130.48 69.8071  15
  22   3   1 -51.697 73.2230  12
  22   2  -1 -87.718 58.3803   3
   1 -22  -1 96.7584 66.9904   6
 -22   0  -1 110.676 64.9945   9
   0  22  -1 -64.452 78.5859  12
   0 -22  -1 7.25729 64.8772   6
  22   0  -1 43.8174 51.8078  15
  22   0  -1 7.59478 62.9511   3
  -1 -22  -1 144.831 70.5499   6
   1  22  -1 116.131 62.5795  12
  22  -1  -1 56.1900 63.1904   3
 -22   1  -1 91.7731 66.7020   9
  22  -2  -1 105.613 65.2728   3
  22  -2  -1 -1.2289 52.0056  15
 -22   2  -1 109.446 63.6890   9
  -2 -22  -1 22.9030 65.6245   6
 -22   3  -1 18.3630 64.4056   9
  22  -3  -1 28.0139 51.5758  15
  -3 -22  -1 111.151 74.5496   6
  22  -3  -1 33.7464 63.4617   3
   3  22  -1 153.116 66.8787  12
  22  -4  -1 -23.363 63.1949   3
   4  22  -1 -87.477 65.2989  12
  -4 -22  -1 -132.21 67.7521   6
  22  -4  -1 -33.070 52.0956  15
 -22   4  -1 72.3054 64.7741   9
   5  22  -1 53.2182 66.0040  12
 -22   5  -1 85.6882 63.8787   9
  -5 -22  -1 133.540 70.5108   6
  22  -5  -1 15.1551 53.8029  15
  22  -5  -1 40.2971 64.8803   3
   6  22  -1 25.1285 70.5053  12
  -6 -22  -1 -49.332 72.0217   6
  22  -6  -1 22.0029 55.5178  15
 -22   6  -1 74.3105 64.6200   9
  22  -6  -1 67.2026 63.9497   3
  22  -6   1 3.89627 62.1915   3
   0   0  -2 363.649 38.5670  11
   0   0  -2 441.440 42.2218   5
   0   0  -2 500.955 38.1059  15
   0   0  -2 432.029 38.9197   2
   0   0  -2 345.513 36.9607  12
   0   0  -2 378.565 38.3280   6
   0   0  -2 417.876 40.0533  14
   0   0  -2 416.391 36.8567   9
   0   0  -2 463.213 39.9006   8
   0   0  -2 438.006 42.3875   3
   0  -1  -2 181.372 28.5876   8
  -1   0  -2 285.633 29.6336   3
  -1   0  -2 200.123 30.0203  14
   0  -1  -2 220.497 29.3635   2
   0   1  -2 240.175 30.3471   3
  -1   0  -2 201.164 28.9689  11
   0  -1  -2 202.410 28.1769   6
  -1   0  -2 213.601 29.3215   2
   0  -1  -2 217.861 27.6909   9
   0   1  -2 181.438 27.7994   6
   0   1  -2 247.979 29.9868  11
  -1   0  -2 240.769 27.6332  15
   0  -1  -2 172.128 27.2498  12
   1   0  -2 241.449 30.2170  14
   0   1  -2 185.360 28.0729   8
   1   0  -2 229.069 29.4693  11
   1   0  -2 185.831 27.1366  15
   0   1  -2 193.373 29.5652  14
  -1   0  -2 221.727 26.4455   9
  -1   0  -2 240.381 27.9839  12
   1   0  -2 178.981 29.3450   6
   0   1  -2 244.466 30.2158  12
   1   0  -2 221.666 29.1710   3
   0   1  -2 235.511 31.8211   5
   1   0  -2 115.400 29.5713   5
   0  -1  -2 207.498 26.3537  15
  -1   0  -2 213.135 27.7440   6
   0   1  -2 213.167 25.1284   9
   0  -1  -2 175.532 31.7390   5
   1   0  -2 231.300 26.2934   9
   0   1  -2 242.984 28.2946  15
  -1   0  -2 182.075 29.4867   8
   0  -1  -2 205.547 30.3202  11
   0   1  -2 197.573 28.2537   2
   0  -1  -2 224.676 28.1312   3
   0  -1  -2 231.853 30.6811  14
  -1   0  -2 183.823 31.5104   5
   1   0  -2 196.196 28.8606   8
   1   0  -2 204.077 27.9143   2
   1   0  -2 144.372 27.3895  12
   1  -1  -2 301.560 30.5168   9
  -1  -1  -2 330.096 33.7864   8
  -1  -1  -2 292.994 31.7528   6
   1  -1  -2 234.571 33.6368   6
   1   1  -2 264.756 31.3085  12
  -1   1  -2 260.131 34.3669   5
  -1   1  -2 316.424 33.3730   3
   1  -1  -2 265.137 31.7281   3
   1   1  -2 335.093 35.0547   5
  -1  -1  -2 352.670 30.8087   3
  -1  -1  -2 255.884 33.5865  14
   1  -1  -2 253.686 32.2842  14
  -1  -1  -2 334.740 32.2151   9
   1   1  -2 352.407 32.6345  15
  -1   1  -2 302.060 29.5393   9
   1  -1  -2 217.178 30.0818   2
   1  -1  -2 188.231 28.6995  12
   1  -1  -2 227.388 32.6141  11
   1   1  -2 303.256 31.5104   6
   1   1  -2 255.198 31.3509  11
   1   1  -2 323.086 28.4010   9
   1   1  -2 355.787 34.2196  14
  -1   1  -2 309.864 32.2074  15
  -1  -1  -2 254.266 31.9228  11
  -1   1  -2 244.486 28.8865   6
  -1   1  -2 260.005 30.7432   2
  -1   1  -2 253.110 32.7316  12
  -1  -1  -2 301.921 34.7659   5
   1   1  -2 274.332 32.7414   8
  -1  -1  -2 342.245 29.4695  15
  -1   1  -2 285.315 33.4823  14
  -1  -1  -2 302.994 32.4049  12
   1   1  -2 309.660 33.3693   3
   1  -1  -2 226.312 35.1065   5
  -1   1  -2 212.838 30.7382  11
   1  -1  -2 213.973 31.0751   8
   1  -1  -2 223.055 29.8790  15
   1   1  -2 293.934 32.7874   2
  -1   1  -2 223.769 31.6523   8
  -1  -1  -2 296.926 31.2996   2
   2   1  -2 528.285 43.3059   3
  -2  -1  -2 405.803 40.7643   3
   2   1  -2 467.511 39.7548   2
  -2  -1  -2 439.435 43.4084  10
  -2  -1  -2 384.207 42.0086   5
   2   1  -2 406.306 44.2917   4
  -1   2  -2 499.894 40.4973  11
  -1   2  -2 396.821 38.5551   2
   2   1  -2 455.177 40.0260  12
  -2  -1  -2 465.996 40.7116   2
   1  -2  -2 406.726 40.5638  15
   1  -2  -2 485.227 41.9968  14
  -1   2  -2 358.191 40.7131  12
  -2  -1  -2 468.581 42.2272  14
   1  -2  -2 465.207 40.3330   9
  -1   2  -2 401.476 39.2430   6
   1  -2  -2 454.319 40.1030   2
  -1   2  -2 508.361 47.3547   1
   2   1  -2 435.121 41.3711  14
   1  -2  -2 393.204 36.8843  12
  -2  -1  -2 464.303 42.1541   8
   2   1  -2 398.277 40.5268  11
   1  -2  -2 355.370 40.2654  11
  -1   2  -2 530.203 43.5041   3
  -2  -1  -2 419.418 41.8905   6
   2   1  -2 458.234 46.1157   8
   1  -2  -2 479.272 39.6533   3
   1  -2  -2 408.969 40.1230   8
  -1   2  -2 423.309 41.3890   8
  -1   2  -2 439.117 39.4098   9
   1  -2  -2 487.651 43.0921   7
  -2  -1  -2 494.734 40.6816   9
  -1   2  -2 406.912 40.2587  13
   2   1  -2 455.264 38.5512   9
  -1   2  -2 505.770 40.9454  15
  -2  -1  -2 402.152 40.0638  15
   2   1  -2 503.942 41.4872  15
  -2  -1  -2 485.900 42.4433  12
   1  -2  -2 480.224 42.7179   6
  -1   2  -2 469.276 43.1526   5
   1  -2  -2 353.795 42.1882   5
  -2  -1  -2 420.857 40.4989  11
   2   1  -2 457.750 41.6158   6
   0  -2  -2 936.021 74.2348   8
   2   0  -2 1102.02 75.0316  14
   0   2  -2 1098.60 74.6287  11
   2   0  -2 979.391 76.6127   5
  -2   0  -2 912.410 70.2793   6
   0   2  -2 956.445 72.9920  14
   0   2  -2 996.317 73.1537   2
   0  -2  -2 1005.63 69.1713  15
   0  -2  -2 854.675 69.8623  12
   0  -2  -2 976.374 76.1588   5
   0  -2  -2 1037.90 75.6908  11
   0  -2  -2 1093.45 75.4872  14
  -2   0  -2 948.467 75.1672  14
   0   2  -2 1045.98 77.1441   5
   0  -2  -2 997.198 71.2314   9
   0  -2  -2 1064.77 73.4359   2
   0   2  -2 957.189 73.2134   3
  -2   0  -2 1038.29 76.6856   5
   2   0  -2 1049.99 71.6400  15
   0   2  -2 977.085 68.2932   9
   2   0  -2 1010.64 72.4264   3
  -2   0  -2 970.294 74.7514   8
   0   2  -2 922.750 72.5306   1
  -2   0  -2 1018.91 69.7090  15
  -2   0  -2 993.290 73.8559   2
   0   2  -2 994.428 70.6216   6
  -2   0  -2 1035.09 71.0218   3
   2   0  -2 949.962 74.6150   6
   2   0  -2 933.950 73.4719   2
   0   2  -2 975.735 72.4956  12
   0  -2  -2 944.793 73.8726   6
   0  -2  -2 958.088 69.9091   3
   2   0  -2 912.020 70.7973  12
  -2   0  -2 1074.15 73.6915  12
   2   0  -2 960.105 73.6779   8
   0   2  -2 976.433 74.3316   8
  -2   0  -2 980.230 71.0277   9
  -2   0  -2 1000.37 75.0299  11
   2   0  -2 1032.65 69.2037   9
   0   2  -2 1081.66 72.1333  15
   2   0  -2 989.454 75.2202  11
   1   2  -2 495.894 46.4773  14
  -2   1  -2 525.005 39.1575  15
  -1  -2  -2 390.153 38.5703  12
  -1  -2  -2 381.572 41.2397   5
  -1  -2  -2 487.092 41.5771   6
   1   2  -2 498.877 42.1063  12
  -2   1  -2 484.641 39.6229   9
   2  -1  -2 421.474 40.4632  11
  -1  -2  -2 418.143 40.2329   8
  -2   1  -2 453.470 42.6735   5
   2  -1  -2 385.459 42.6232   5
   2  -1  -2 496.672 40.3229  15
  -2   1  -2 389.471 40.4866   8
   2  -1  -2 444.594 40.7722   3
   2  -1  -2 431.149 39.9936   2
  -1  -2  -2 356.547 37.4562  15
  -1  -2  -2 483.006 42.1310  14
   2  -1  -2 429.524 41.0594   8
   1   2  -2 471.513 40.6397  15
   2  -1  -2 469.407 40.7768   9
   1   2  -2 436.498 39.2798   2
  -2   1  -2 518.193 40.8379   3
   2  -1  -2 402.756 41.4291   6
   1   2  -2 396.034 36.7262   9
  -2   1  -2 506.952 41.7938  13
   2  -1  -2 371.124 36.9152  12
   1   2  -2 413.818 44.1222   4
  -1  -2  -2 422.798 41.2896   9
   1   2  -2 436.432 41.0508   8
  -2   1  -2 422.504 39.0383   2
  -1  -2  -2 426.750 43.6979  10
  -2   1  -2 393.733 38.9369   6
  -2   1  -2 452.120 39.6790  11
  -2   1  -2 477.390 43.4576  12
   1   2  -2 395.901 39.2369  11
   2  -1  -2 390.996 40.2091  14
   1   2  -2 482.441 44.5514   1
  -1  -2  -2 405.452 38.6734   2
   2  -1  -2 397.532 41.5863   7
   1   2  -2 534.211 43.5679   3
  -1  -2  -2 426.373 40.4506  11
  -1  -2  -2 379.594 39.5632   3
   2   2  -2 2218.34 151.301   4
  -2   2  -2 2245.74 148.096   2
  -2  -2  -2 2186.99 148.199  12
  -2  -2  -2 2286.43 149.344  14
  -2   2  -2 2288.54 148.659  11
  -2   2  -2 2372.52 148.699  13
  -2  -2  -2 2228.40 145.424   3
   2  -2  -2 2276.97 147.118  15
  -2   2  -2 2386.39 149.717   1
  -2   2  -2 2257.28 150.010   5
  -2  -2  -2 2204.25 149.003   8
  -2  -2  -2 2229.43 150.736   5
   2  -2  -2 2252.44 150.458   6
   2  -2  -2 2295.70 150.958   5
   2   2  -2 2315.77 149.466   3
   2   2  -2 2300.77 148.397   2
   2   2  -2 2217.60 148.379  12
  -2   2  -2 2358.51 146.772   9
   2  -2  -2 2287.09 149.433  14
  -2  -2  -2 2337.70 148.817   2
  -2  -2  -2 2370.81 148.698   9
   2  -2  -2 2328.08 147.205   9
  -2  -2  -2 2129.51 147.635   6
   2   2  -2 2293.89 149.137  14
   2   2  -2 2285.14 148.418  15
   2  -2  -2 1981.22 145.077  12
  -2   2  -2 2142.23 148.934  12
  -2  -2  -2 2356.11 151.087  10
  -2   2  -2 2375.65 150.343   8
   2   2  -2 2362.30 149.510   8
  -2  -2  -2 2288.28 144.904  15
   2   2  -2 2311.63 144.500   9
   2   2  -2 2236.25 149.326  11
   2  -2  -2 2229.39 147.650   3
   2  -2  -2 2355.83 149.550  11
   2  -2  -2 2317.65 149.551   7
  -2   2  -2 2202.89 145.145   6
   2   2  -2 2200.36 149.714   1
  -3  -2  -2 504.951 42.3034   2
  -3  -2  -2 458.952 43.5254   5
  -2   3  -2 511.294 44.5591  12
   3   2  -2 498.406 47.9501  14
  -2   3  -2 473.321 42.1706   9
   3   2  -2 414.629 42.4843  12
  -2   3  -2 401.081 39.9303   2
   2  -3  -2 423.803 42.3216  15
   2  -3  -2 449.369 44.8494   6
  -3  -2  -2 494.868 43.9165  14
  -2   3  -2 481.778 48.1452   8
   3   2  -2 504.767 48.3940   8
  -3  -2  -2 455.631 43.4828   6
   2  -3  -2 369.386 38.1734  12
   2  -3  -2 534.187 45.9661   7
  -2   3  -2 543.898 48.2799   1
   3   2  -2 465.364 42.2935  11
   2  -3  -2 499.235 44.1724  14
   3   2  -2 416.846 36.6262   9
  -2   3  -2 469.787 42.9612  13
   2  -3  -2 465.712 44.5406   3
   3   2  -2 471.744 42.9973  15
   2  -3  -2 436.878 42.1388  11
  -2   3  -2 434.399 42.9010   5
   2  -3  -2 416.121 44.9058   5
   3   2  -2 509.682 47.5079   4
  -3  -2  -2 533.627 49.2735  10
  -3  -2  -2 482.155 43.7544   9
  -3  -2  -2 451.419 42.5042   8
  -2   3  -2 426.605 39.6070  11
   3   2  -2 474.190 40.9895   2
   3   2  -2 456.532 43.9796   1
   3   2  -2 552.087 45.2481   3
  -1   3  -2 159.126 27.6885   2
   3   1  -2 117.548 28.3220  11
  -1   3  -2 179.049 27.6899  13
  -3  -1  -2 193.153 30.8601  10
  -1   3  -2 206.017 30.5652  12
   1  -3  -2 102.020 27.6014  14
  -1   3  -2 184.676 26.7088  11
  -3  -1  -2 208.666 25.3938   6
   3   1  -2 183.027 27.2740  12
  -1   3  -2 185.179 31.4881   1
  -1   3  -2 190.080 29.7645   3
  -1   3  -2 146.886 22.9381   9
   1  -3  -2 137.405 24.4496  15
   3   1  -2 176.827 30.1511   3
  -1   3  -2 128.790 27.7603   8
  -3  -1  -2 129.832 28.6542  14
   1  -3  -2 138.572 23.1039  12
   1  -3  -2 141.147 24.6628   3
  -3  -1  -2 196.190 29.8250  12
  -3  -1  -2 142.000 26.8354   9
   1  -3  -2 142.905 27.9356   7
   3   1  -2 156.075 28.5166   6
  -3  -1  -2 146.416 29.0225   5
  -1   3  -2 148.714 27.9695  15
   3   1  -2 214.779 28.8277  15
  -3  -1  -2 164.375 27.9700   8
   1  -3  -2 160.209 30.3297   6
   1  -3  -2 125.466 28.7079  11
   3   1  -2 113.615 26.5700   2
   3   1  -2 136.999 30.0627   4
   3   1  -2 135.367 26.6312   8
   1  -3  -2 186.827 27.8779   9
   1  -3  -2 118.228 30.0575   5
   3   1  -2 150.027 27.8172  14
  -3  -1  -2 140.077 26.3845   2
  -1   3  -2 176.154 29.1016   5
   3   0  -2 12.9539 22.1865   2
   0  -3  -2 -3.9774 25.3291   5
  -3   0  -2 -31.758 23.5282   5
   3   0  -2 -3.7021 22.3069   7
   0  -3  -2 26.2462 26.9025  10
   0  -3  -2 30.6425 23.6328   9
  -3   0  -2 10.1869 18.7102   6
   0   3  -2 22.8118 23.7359  12
   3   0  -2 30.1237 23.8907  15
   0   3  -2 16.5165 22.4081  11
  -3   0  -2 16.4773 25.6478  10
   3   0  -2 29.9621 23.1077  14
   3   0  -2 13.7990 20.0070  12
   3   0  -2 -24.669 23.5936  11
  -3   0  -2 -15.302 22.1782   8
   0   3  -2 -9.0598 24.1373  15
   0   3  -2 36.7136 25.7167   3
   3   0  -2 -2.2144 25.2247   6
   0  -3  -2 -28.100 22.3091   8
   0  -3  -2 -26.223 23.2653  14
   0   3  -2 12.7607 29.0907   1
  -3   0  -2 1.90056 21.5478   9
   0   3  -2 33.3131 26.0024   4
   0   3  -2 -0.2076 16.5772   9
   0   3  -2 4.68997 21.1247   2
   0  -3  -2 -27.050 24.4337   7
  -3   0  -2 -9.9496 23.3969  12
   0  -3  -2 -8.8876 19.3337   3
  -3   0  -2 17.3498 21.4227   2
   3   0  -2 5.12094 25.1071   3
  -3   0  -2 5.72847 23.8673  13
   3   0  -2 64.5097 27.1709   4
   0  -3  -2 27.4973 18.9888  15
   0  -3  -2 10.8594 25.3304   6
  -3   0  -2 29.4415 23.2414  11
   0   3  -2 18.7050 22.4882  13
   0   3  -2 7.36288 23.6283   8
   3  -1  -2 171.995 22.9264  12
   1   3  -2 190.831 26.0454   2
   1   3  -2 149.658 30.4125   1
  -3   1  -2 164.277 26.9329  11
   1   3  -2 192.983 28.3769   8
   3  -1  -2 175.958 29.2633  11
  -3   1  -2 186.109 26.8377   2
  -1  -3  -2 162.624 28.2304   9
  -3   1  -2 181.532 29.9012   5
  -1  -3  -2 132.957 30.6498  10
  -1  -3  -2 149.190 28.0822   8
   1   3  -2 136.353 27.0178  11
  -3   1  -2 145.363 26.3548   9
  -1  -3  -2 131.974 28.9036  14
  -1  -3  -2 192.167 26.4289   2
  -3   1  -2 179.501 21.9610   6
  -3   1  -2 190.910 29.0725  13
  -3   1  -2 155.025 28.9594  12
   1   3  -2 129.391 29.2939   4
  -1  -3  -2 126.840 30.1691   5
   3  -1  -2 137.318 30.4798   6
   3  -1  -2 149.455 28.9180   3
  -1  -3  -2 135.251 21.6527  15
  -1  -3  -2 179.420 28.3316   6
   1   3  -2 155.377 30.5926   3
  -3   1  -2 141.163 27.9635   8
   1   3  -2 183.615 29.0211  14
   1   3  -2 177.143 29.3602  15
   1   3  -2 196.157 20.4784   9
   3  -1  -2 174.009 27.4705  15
   1   3  -2 181.510 30.1223  12
   3  -1  -2 143.178 31.5221   5
  -1  -3  -2 156.315 23.1513   3
   3  -1  -2 199.233 29.9298  14
   3  -1  -2 181.771 29.6361   7
  -3   1  -2 159.648 31.7030   1
  -3   2  -2 502.300 48.1066   8
  -3   2  -2 456.888 44.9244   1
   2   3  -2 439.910 46.0059   4
  -3   2  -2 477.525 42.7695   9
   2   3  -2 403.013 40.7618  11
   3  -2  -2 453.049 41.1606  15
  -2  -3  -2 450.804 43.2240   5
   3  -2  -2 464.307 43.0669  14
   2   3  -2 543.938 48.0821   3
   3  -2  -2 550.219 43.7692   3
  -2  -3  -2 417.372 37.5296  15
   3  -2  -2 425.459 44.2778   6
  -3   2  -2 399.646 39.3664  11
  -3   2  -2 542.959 42.6721   2
  -3   2  -2 387.090 37.4192   6
  -2  -3  -2 519.663 43.3617  14
   3  -2  -2 390.968 43.4455   5
   2   3  -2 505.154 42.4846  14
  -2  -3  -2 485.254 42.4208   2
  -2  -3  -2 375.659 42.4571  10
  -2  -3  -2 471.584 41.7400   6
   3  -2  -2 454.751 41.7853  11
  -2  -3  -2 402.949 41.2789   8
   2   3  -2 493.174 42.4003  12
   2   3  -2 465.970 40.3319   2
   2   3  -2 491.623 35.8074   9
   3  -2  -2 318.452 36.9350  12
  -3   2  -2 415.370 41.7420  12
  -2  -3  -2 497.043 42.7796   9
  -3   2  -2 488.255 43.5756  13
  -2  -3  -2 405.682 38.3740   3
   3  -2  -2 472.363 44.9879   7
   2   3  -2 477.853 46.8127   1
   2   3  -2 488.781 42.9649  15
  -3   2  -2 512.104 43.6814   5
   2   3  -2 484.079 46.7366   8
  -3  -3  -2 1869.62 122.533   2
  -3   3  -2 1817.59 121.718   2
  -3  -3  -2 1817.94 123.082   9
   3   3  -2 1863.01 121.848   2
  -3   3  -2 1870.98 124.344   8
  -3  -3  -2 1859.54 123.038   8
   3   3  -2 1850.49 122.268  15
   3   3  -2 1781.87 125.809   4
   3   3  -2 1762.90 122.289  12
   3  -3  -2 1867.18 123.126  14
  -3   3  -2 1913.51 122.923  13
   3  -3  -2 1725.78 124.700   5
  -3   3  -2 1784.53 121.664  11
  -3  -3  -2 1809.50 125.051   5
   3  -3  -2 1816.42 121.775   3
  -3   3  -2 1868.62 123.378   5
  -3  -3  -2 1850.78 122.232   6
   3   3  -2 1852.11 117.493   9
  -3   3  -2 1798.38 120.532   9
  -3  -3  -2 1820.70 125.018  10
   3  -3  -2 1881.77 123.072  11
   3  -3  -2 1811.75 120.428  15
   3   3  -2 1669.37 122.880  11
   3   3  -2 1898.43 123.141   8
  -3   3  -2 1907.97 123.933   1
  -3   3  -2 1843.31 123.302  12
  -3  -3  -2 1839.29 123.003  14
   3  -3  -2 1693.83 124.074   6
   3   3  -2 1794.29 123.124   3
   3  -3  -2 1864.90 124.502   7
   3   3  -2 1703.77 123.553   1
   3   3  -2 1840.68 122.325  14
  -4  -3  -2 896.216 74.9214   5
   4   3  -2 936.384 70.7981  14
  -4  -3  -2 868.898 72.4281   8
   4   3  -2 999.552 70.9510   2
   4   3  -2 810.661 71.5354   1
   4   3  -2 908.469 73.6033  11
   4   3  -2 944.301 76.2771   4
   4   3  -2 841.537 70.7299  12
   4   3  -2 1024.84 72.0119  15
  -3   4  -2 965.672 71.3377   2
  -3   4  -2 1029.52 69.9574  13
  -4  -3  -2 894.519 70.4422   6
  -3   4  -2 955.213 73.0218  12
   3  -4  -2 915.699 69.5187   3
  -4  -3  -2 840.542 72.2876  14
  -4  -3  -2 959.354 74.2210  10
   3  -4  -2 916.646 69.4990  15
   3  -4  -2 964.957 74.0364   5
  -3   4  -2 921.512 72.5459   1
  -3   4  -2 974.930 69.2837   9
   3  -4  -2 942.629 73.4427  14
  -3   4  -2 991.023 72.7652   5
   3  -4  -2 1059.77 73.2580  11
  -3   4  -2 925.710 73.5627   8
   4   3  -2 928.639 71.7136   8
   3  -4  -2 909.742 74.1427   7
  -4  -3  -2 949.914 71.8233   9
  -4  -3  -2 1049.44 72.0504   2
  -3   4  -2 989.786 70.1730  11
   4   3  -2 947.944 72.9045   3
   3  -4  -2 844.322 74.3923   6
   4   2  -2 705.042 62.8551   4
   4   2  -2 647.508 57.7389   1
   2  -4  -2 669.505 61.3150  14
  -2   4  -2 673.742 58.6354  11
  -2   4  -2 680.806 59.2894  12
  -4  -2  -2 824.905 58.9136   2
  -4  -2  -2 709.813 58.7376  13
   4   2  -2 691.249 57.2655  12
  -4  -2  -2 819.728 57.2920   6
   2  -4  -2 717.073 62.3747   6
   4   2  -2 731.755 58.6035   2
  -4  -2  -2 763.872 61.2358   8
  -4  -2  -2 804.812 62.0370  10
   2  -4  -2 660.458 55.5715   3
   2  -4  -2 655.059 62.3129   5
   2  -4  -2 675.130 62.4609  11
   4   2  -2 820.479 59.9716   8
   2  -4  -2 683.331 55.9747  15
  -4  -2  -2 759.426 63.2549   5
  -2   4  -2 679.552 58.1002   2
  -2   4  -2 668.820 61.4903   8
   4   2  -2 732.357 58.9346  14
   4   2  -2 760.303 59.2807  15
  -2   4  -2 651.596 59.3560   1
  -4  -2  -2 680.435 59.2862   9
   4   2  -2 792.283 62.8605  11
  -2   4  -2 726.702 55.2700   9
  -2   4  -2 621.053 55.8765  13
  -2   4  -2 684.539 60.6032   4
   2  -4  -2 612.476 61.3371   7
   4   2  -2 800.919 61.0467   3
   1  -4  -2 223.207 31.8894   9
   1  -4  -2 232.878 35.0869  10
   4   1  -2 187.572 35.2782   4
  -4  -1  -2 234.220 33.5728  10
  -1   4  -2 241.486 32.2669   8
  -4  -1  -2 264.199 34.6119  12
   1  -4  -2 263.937 27.6874  15
   4   1  -2 245.844 33.4577  15
   4   1  -2 214.058 28.6366  12
  -1   4  -2 260.117 30.3524  11
   1  -4  -2 258.372 28.8735   3
   4   1  -2 266.580 32.7970  14
  -4  -1  -2 288.661 32.3329   9
  -1   4  -2 311.104 36.7010   4
  -4  -1  -2 207.311 32.6711   8
  -1   4  -2 240.014 35.0075   1
   4   1  -2 292.608 34.0656   7
   1  -4  -2 279.106 34.6520   7
   1  -4  -2 184.737 34.0709   6
   4   1  -2 192.876 33.6900   3
  -1   4  -2 221.071 29.3932   2
   1  -4  -2 202.674 34.1551   5
  -4  -1  -2 263.503 30.7654   2
  -4  -1  -2 226.327 28.2551   6
   4   1  -2 220.693 32.4480  11
  -1   4  -2 301.259 32.4827  13
  -1   4  -2 246.922 34.3504   3
  -1   4  -2 269.613 27.2149   9
  -1   4  -2 268.619 34.3162  12
   4   1  -2 203.861 29.8942   2
   1  -4  -2 237.628 33.6521  14
  -4  -1  -2 256.983 32.7663  13
  -4  -1  -2 255.786 32.4333   5
   4   0  -2 2957.87 192.143  11
   0   4  -2 3155.42 191.367  13
   0  -4  -2 2788.31 194.050  10
   4   0  -2 2921.21 190.905   2
   0   4  -2 2997.01 194.783   4
   0   4  -2 3186.78 193.514   8
   4   0  -2 2984.78 191.479  15
   0  -4  -2 2995.10 191.826   7
  -4   0  -2 3280.26 193.522  10
   0   4  -2 2923.15 191.648  11
  -4   0  -2 3047.17 192.853   5
  -4   0  -2 2995.36 191.130   9
   4   0  -2 3013.22 192.321  14
   4   0  -2 3006.68 191.742   7
   0  -4  -2 3096.92 192.911  14
  -4   0  -2 3018.01 189.150   6
   0  -4  -2 2886.47 192.775   6
  -4   0  -2 3058.35 193.135  12
   0   4  -2 2955.32 194.659   1
   0   4  -2 2966.25 191.662  15
   4   0  -2 2859.83 189.484  12
   4   0  -2 2865.70 193.122   6
   0  -4  -2 2834.74 193.537   5
   0   4  -2 2730.32 192.091  12
   4   0  -2 3064.10 192.649   3
   4   0  -2 2926.17 194.064   4
  -4   0  -2 2999.81 193.352   8
   0  -4  -2 2855.63 188.592   3
  -4   0  -2 3026.32 191.237  13
   0  -4  -2 2976.37 191.779   9
  -4   0  -2 3038.67 191.588   2
   0   4  -2 2921.90 188.188   9
   0  -4  -2 2881.50 188.380  15
   0   4  -2 2979.65 191.672   2
   0   4  -2 3004.90 193.034   3
  -1  -4  -2 204.796 25.1644   3
   1   4  -2 264.708 31.3123  11
   4  -1  -2 230.625 31.8110  11
   4  -1  -2 227.493 26.1573  12
   4  -1  -2 289.302 32.8265  15
  -4   1  -2 317.248 33.7958  10
   1   4  -2 117.013 32.4747   1
   4  -1  -2 250.501 35.4841   7
   1   4  -2 250.687 33.8502  12
   1   4  -2 310.826 35.8813   3
  -1  -4  -2 235.849 35.5900  10
  -1  -4  -2 277.337 31.4439   7
  -4   1  -2 322.908 36.4643   1
  -1  -4  -2 216.659 33.0555   9
   4  -1  -2 215.409 35.4303   6
   4  -1  -2 293.758 34.7465   3
  -4   1  -2 294.150 34.4623  13
  -4   1  -2 279.583 32.9836   5
  -4   1  -2 293.530 34.0416   8
  -1  -4  -2 226.755 25.0631  15
   1   4  -2 160.082 35.8630   4
   1   4  -2 239.577 29.2857  13
   1   4  -2 230.445 31.3328   2
  -4   1  -2 248.354 29.0183   2
  -1  -4  -2 220.077 33.2877   5
  -1  -4  -2 233.963 32.7492  14
  -4   1  -2 245.138 31.1288   9
   1   4  -2 197.076 31.2927   8
  -4   1  -2 260.813 33.8756  12
   1   4  -2 297.554 34.1644  15
   1   4  -2 234.482 23.2663   9
  -1  -4  -2 234.291 33.6763   6
  -4   1  -2 270.325 25.0822   6
   4  -1  -2 230.131 34.9034   4
   4  -1  -2 288.429 33.6258  14
  -1  -4  -2 219.367 32.2236   8
  -2  -4  -2 794.549 60.8224  14
   4  -2  -2 554.573 56.7354   4
  -2  -4  -2 755.882 62.3638   5
   2   4  -2 799.628 60.9105   3
   2   4  -2 735.885 56.4036  13
   4  -2  -2 724.279 61.1773  11
   4  -2  -2 628.025 58.0108  15
   4  -2  -2 599.373 62.3006   6
   4  -2  -2 592.324 61.5378   5
  -2  -4  -2 766.114 60.5363   9
  -2  -4  -2 728.724 63.1484  10
   2   4  -2 816.487 60.1980   8
   2   4  -2 742.951 60.6649  11
   2   4  -2 788.644 59.7093  15
  -4   2  -2 670.687 49.8327   6
  -4   2  -2 735.520 61.9406   1
   2   4  -2 803.834 59.4636  14
  -4   2  -2 699.811 58.6937  11
  -4   2  -2 694.708 60.1921   5
  -4   2  -2 686.259 60.7459   8
   2   4  -2 759.456 48.9206   9
  -2  -4  -2 781.444 60.8914   8
  -4   2  -2 667.937 56.6536   9
   4  -2  -2 534.308 50.4020  12
  -4   2  -2 624.218 58.3305  12
   2   4  -2 622.959 60.6809   1
   2   4  -2 715.091 58.3920   2
   2   4  -2 843.381 60.9137  12
  -2  -4  -2 795.270 61.1736   6
   2   4  -2 786.258 64.2249   4
   4  -2  -2 633.898 61.7592   7
  -4   2  -2 742.709 59.6614  13
  -4   2  -2 668.400 58.2110   2
   4  -2  -2 716.761 58.3714   3
   4  -2  -2 706.222 60.6659  14
  -4   3  -2 944.867 71.3521   2
   4  -3  -2 1015.98 72.8746   7
  -3  -4  -2 991.364 75.9678  10
   3   4  -2 904.030 74.5518   4
  -4   3  -2 945.283 70.4560   9
   3   4  -2 867.218 71.8726  12
  -4   3  -2 919.250 71.4395  11
   4  -3  -2 1014.23 74.2020  11
  -4   3  -2 941.991 71.0236  13
  -4   3  -2 954.829 73.5955   8
  -3  -4  -2 954.994 76.5537   5
   4  -3  -2 954.115 76.1358   5
   3   4  -2 956.667 71.4771  14
   4  -3  -2 982.224 71.0383  15
   3   4  -2 986.027 72.4107   8
   3   4  -2 857.494 73.4881   1
   3   4  -2 957.865 71.7196   2
   4  -3  -2 942.923 71.6101   3
   3   4  -2 925.630 74.0906   3
  -3  -4  -2 932.180 72.1220   9
   4  -3  -2 907.814 75.4142   6
  -3  -4  -2 885.931 73.1099   6
  -3  -4  -2 998.845 73.7765  14
  -3  -4  -2 911.288 73.6095   8
   3   4  -2 924.281 72.6872  15
  -4   3  -2 975.388 72.5976  12
   4  -3  -2 1021.90 74.2795  14
  -4   3  -2 1053.87 73.1440   1
  -4   3  -2 1091.02 73.6538   5
   3   4  -2 862.480 74.1224  11
  -4   4  -2 502.979 50.9736   5
   4   4  -2 579.941 50.0457   3
   4   4  -2 466.258 43.9757   2
  -4  -4  -2 436.493 50.3703  10
  -4   4  -2 520.735 48.2931  11
   4   4  -2 552.559 48.2167  15
  -4  -4  -2 433.924 45.2026   8
   4   4  -2 482.605 48.9363   1
   4  -4  -2 508.809 50.0072   6
   4  -4  -2 474.460 47.1056   5
  -4  -4  -2 512.092 48.2631   9
  -4   4  -2 480.515 44.4504   2
  -4   4  -2 559.988 51.9758  13
  -4   4  -2 506.535 47.2682   8
   4  -4  -2 511.152 50.7120   3
   4  -4  -2 601.940 52.7332   7
  -4  -4  -2 564.384 50.6841   2
   4   4  -2 507.569 48.8162  12
  -4  -4  -2 509.292 47.1513   6
  -4   4  -2 529.995 51.4131  12
   4  -4  -2 605.774 53.8795  11
  -4   4  -2 520.476 47.7726   9
   4  -4  -2 525.537 48.3315  15
   4   4  -2 449.053 45.7115  11
   4  -4  -2 565.313 54.5664  14
   4   4  -2 507.741 52.4813   4
   4   4  -2 560.342 52.8048   8
  -4  -4  -2 535.593 50.2615   5
   4   4  -2 557.451 50.5897  14
  -4  -4  -2 583.735 47.8807  14
  -4   4  -2 558.322 51.9161   1
   4  -5  -2 561.951 49.8146  11
   5   4  -2 588.597 51.6648  11
  -5  -4  -2 581.818 55.3789  10
   4  -5  -2 584.596 56.2897   6
  -4   5  -2 605.147 51.5665   9
   4  -5  -2 631.070 54.5857  14
   5   4  -2 564.065 55.7132   1
   5   4  -2 597.461 53.8312  12
   4  -5  -2 588.218 54.1393  15
  -4   5  -2 476.958 50.9288  13
   5   4  -2 596.764 57.1673   3
   4  -5  -2 658.307 57.5213   7
  -5  -4  -2 559.554 55.3855   6
   4  -5  -2 561.074 55.0523   3
  -5  -4  -2 654.419 62.9825   5
  -5  -4  -2 679.967 55.1682   2
  -4   5  -2 576.740 56.2155  12
  -4   5  -2 591.483 54.7402   1
  -5  -4  -2 605.750 56.0546   8
   4  -5  -2 455.320 50.8087   5
   5   4  -2 614.339 52.5516  14
  -4   5  -2 661.187 54.6669   4
   5   4  -2 600.159 55.9975  15
   5   4  -2 597.118 53.6548   2
  -5  -4  -2 616.812 57.2875   9
   5   4  -2 687.443 54.3082   8
  -4   5  -2 594.628 58.3878   8
  -4   5  -2 554.587 51.1622  11
   5   4  -2 643.232 63.0071   4
  -4   5  -2 628.756 54.4881   2
   5   3  -2 210.709 39.1982   4
  -3   5  -2 271.846 34.9716  12
  -3   5  -2 261.988 39.6311   1
   5   3  -2 233.004 32.7855  12
  -5  -3  -2 237.204 36.2641   5
  -3   5  -2 282.635 30.9609   9
   5   3  -2 308.355 35.8198  11
   5   3  -2 245.933 32.3049  14
   5   3  -2 228.849 34.6850   1
   5   3  -2 277.424 36.7851   3
   5   3  -2 240.419 33.5009   7
  -3   5  -2 225.805 33.6293  13
   3  -5  -2 217.338 37.6154  10
   3  -5  -2 312.118 34.2192   3
  -3   5  -2 213.255 33.0208   8
  -3   5  -2 219.055 30.5091   2
  -5  -3  -2 248.399 34.3557   9
  -5  -3  -2 310.734 32.5183   2
  -3   5  -2 239.046 29.0483  11
   5   3  -2 183.196 34.0223  15
   3  -5  -2 255.162 38.6466   6
   3  -5  -2 204.343 33.6388  14
   5   3  -2 226.924 30.5669   2
   3  -5  -2 244.015 39.3824   7
  -5  -3  -2 177.457 37.3936  10
  -5  -3  -2 280.621 33.6666  13
  -5  -3  -2 256.262 33.2712   6
  -3   5  -2 338.660 36.3486   4
   3  -5  -2 202.875 35.5321   5
  -5  -3  -2 232.797 32.4701   8
   3  -5  -2 257.058 32.4652  15
  -5  -2  -2 45.0125 26.1584   9
   2  -5  -2 126.550 29.2437  14
   5   2  -2 134.376 30.1213   7
   5   2  -2 76.5755 28.8743  15
   2  -5  -2 70.9110 24.3677   3
  -5  -2  -2 97.5164 24.3874   2
  -5  -2  -2 25.9040 29.1443  10
  -5  -2  -2 130.453 29.1500   5
  -2   5  -2 171.749 34.3016   1
   2  -5  -2 60.2403 30.3845   6
  -2   5  -2 188.477 24.0225   9
   5   2  -2 93.3832 25.8009  12
  -5  -2  -2 130.059 28.0408   8
   5   2  -2 104.316 26.7007  14
   5   2  -2 45.3815 26.6784  11
  -2   5  -2 103.588 29.3628  12
   5   2  -2 89.6442 26.2859   1
  -2   5  -2 128.684 30.4731   4
  -2   5  -2 116.701 26.7394   2
   5   2  -2 87.4876 31.4111   4
   2  -5  -2 111.880 30.0038   5
  -5  -2  -2 62.5562 26.2546  13
   5   2  -2 50.2515 29.2508   3
  -2   5  -2 124.928 24.2178  11
   2  -5  -2 172.925 30.4325   7
  -5  -2  -2 93.5885 25.1315   6
  -2   5  -2 116.317 27.3825   8
   5   2  -2 116.913 25.7455   2
  -2   5  -2 123.653 27.9362  13
   2  -5  -2 62.8645 30.5345  10
   2  -5  -2 148.395 25.7442  15
   1  -5  -2 831.922 65.5754   7
  -1   5  -2 829.089 67.3532   4
   5   1  -2 745.630 64.2409   3
   5   1  -2 771.871 63.2750  14
   1  -5  -2 704.652 65.9055   6
   5   1  -2 772.146 64.6373   7
  -5  -1  -2 816.049 67.0452   5
  -1   5  -2 735.833 62.6621  11
  -1   5  -2 827.544 64.4680  12
   1  -5  -2 806.807 58.1860  15
  -1   5  -2 767.296 57.4903   9
  -5  -1  -2 800.642 64.3591  10
   5   1  -2 775.324 63.9281  15
   5   1  -2 702.036 65.3239   4
  -5  -1  -2 801.831 65.6049   8
  -1   5  -2 779.136 63.2240   2
  -5  -1  -2 754.602 63.6720  13
   1  -5  -2 759.528 65.7673   5
  -1   5  -2 685.597 61.7915  13
   1  -5  -2 810.268 59.1450   3
   1  -5  -2 755.885 65.0134  10
   5   1  -2 771.785 60.3261  12
   5   1  -2 838.307 61.9924   2
  -1   5  -2 868.664 66.1080   8
  -1   5  -2 808.361 67.3475   1
   5   1  -2 792.382 67.1085  11
  -5  -1  -2 803.961 62.0862   9
  -5  -1  -2 742.183 58.3630   6
  -5  -1  -2 871.602 63.1184   2
   1  -5  -2 836.418 65.8353  14
  -5   0  -2 121.056 30.8396  12
   0  -5  -2 153.774 22.0942  15
   0   5  -2 173.226 35.1687   1
   0  -5  -2 120.078 33.0165  10
   0   5  -2 160.235 21.3678   9
   0  -5  -2 111.759 22.8543   3
   0  -5  -2 135.924 29.7147   9
   0  -5  -2 155.307 30.7476  14
  -5   0  -2 140.354 25.6323   2
   0  -5  -2 193.167 31.8525   7
  -5   0  -2 99.8135 27.3079   8
   0   5  -2 115.149 26.4470  11
  -5   0  -2 165.322 30.2118  13
   0   5  -2 143.704 27.2000  13
   5   0  -2 137.425 31.3832   6
   5   0  -2 152.831 31.9490   3
  -5   0  -2 163.799 29.0072   9
  -5   0  -2 170.212 31.2009  10
   0   5  -2 184.092 31.7557   3
   5   0  -2 154.358 32.8269   7
   0  -5  -2 178.495 33.2741   6
   0   5  -2 171.281 34.1268   4
   5   0  -2 144.977 31.2907   4
   0   5  -2 135.210 29.8462  15
   5   0  -2 177.434 29.6347  11
   0   5  -2 156.836 26.9852   2
  -5   0  -2 173.101 22.5520   6
   0   5  -2 192.368 30.6338   8
   5   0  -2 180.634 29.9671  14
   5   0  -2 113.100 29.4962  15
   5   0  -2 103.800 23.1706  12
  -5   0  -2 165.734 29.4349   5
   0  -5  -2 163.118 30.8616   5
   0   5  -2 155.189 31.5326  12
   5  -1  -2 716.232 61.7000  15
  -5   1  -2 849.127 65.1651   8
   1   5  -2 817.432 63.4979   2
   5  -1  -2 655.173 62.4597   4
   1   5  -2 702.754 59.4744  13
   5  -1  -2 808.414 62.9446   7
   1   5  -2 818.036 64.4572  11
  -5   1  -2 766.701 61.3372   2
  -1  -5  -2 727.154 65.5669   5
  -5   1  -2 775.810 60.7830   9
  -5   1  -2 815.376 54.8616   6
  -1  -5  -2 711.212 54.2803  15
  -1  -5  -2 639.595 62.5403  10
  -1  -5  -2 727.774 64.5835   9
  -5   1  -2 903.712 65.3618   5
   1   5  -2 825.398 63.3981  12
   1   5  -2 706.772 53.6497   9
  -5   1  -2 854.927 64.0461  12
  -5   1  -2 861.080 63.2497   1
   1   5  -2 739.500 67.1937   4
  -1  -5  -2 775.408 61.5737   7
   5  -1  -2 783.671 64.6205   3
   5  -1  -2 731.212 56.4173  12
   1   5  -2 708.722 65.3770   1
   5  -1  -2 855.955 64.6730  14
   1   5  -2 811.428 65.3177   3
  -1  -5  -2 714.294 54.5577   3
   5  -1  -2 785.572 64.7287  11
  -5   1  -2 808.468 60.8802  13
   1   5  -2 797.410 64.6567   8
  -5   1  -2 813.802 62.6800  10
   5  -1  -2 787.918 65.7424   6
   1   5  -2 801.151 63.8338  15
  -1  -5  -2 782.806 65.7283  14
  -1  -5  -2 853.178 64.4905   6
  -5   2  -2 82.0467 28.7976  12
   2   5  -2 52.3574 26.3279  11
   5  -2  -2 95.4876 27.9404  15
  -2  -5  -2 79.3435 30.0100   5
   5  -2  -2 106.168 32.3345   6
  -2  -5  -2 119.809 27.6087  14
  -2  -5  -2 132.397 30.3318   6
  -5   2  -2 108.287 26.6676   8
  -2  -5  -2 90.4870 28.3270   9
  -5   2  -2 146.662 25.3879   2
   2   5  -2 64.1913 23.5855  13
   2   5  -2 71.5653 29.4515  12
  -5   2  -2 144.505 27.7573   9
   5  -2  -2 106.652 33.9479   7
   2   5  -2 77.9668 34.1759   4
   5  -2  -2 99.6652 28.4872   4
   2   5  -2 85.3269 28.3580   1
   5  -2  -2 116.564 28.6329  14
   2   5  -2 119.999 29.7736  15
  -2  -5  -2 78.3486 16.3534  15
  -5   2  -2 134.821 26.7902  13
  -5   2  -2 163.741 32.9476   1
  -2  -5  -2 86.1339 27.2602   7
  -2  -5  -2 115.764 30.4578  10
   2   5  -2 41.7135 29.8226   3
   2   5  -2 83.1467 18.5777   9
   2   5  -2 130.558 27.4457   2
   2   5  -2 95.0733 26.3022   8
  -5   2  -2 117.877 25.8935  10
   5  -2  -2 90.3485 28.9909   3
   5  -2  -2 126.121 27.8429  11
  -5   2  -2 147.384 27.5942   5
   5  -2  -2 90.6209 18.0742  12
  -3  -5  -2 280.421 36.3987   6
   5  -3  -2 239.456 34.4613  14
   3   5  -2 285.976 38.0664   1
  -5   3  -2 331.566 39.9330   1
  -5   3  -2 230.302 34.1916  13
   5  -3  -2 245.984 35.2249  15
   3   5  -2 244.265 33.7776  11
  -5   3  -2 294.586 35.5935  12
  -5   3  -2 318.760 32.1877  10
   5  -3  -2 224.505 37.0790   7
   5  -3  -2 283.125 33.1286  11
  -3  -5  -2 274.839 38.9421  10
   3   5  -2 250.545 33.3987  14
   5  -3  -2 245.073 36.1671   5
  -5   3  -2 262.136 33.3778   9
  -5   3  -2 271.537 29.2027  11
  -3  -5  -2 250.226 34.2161  14
   3   5  -2 236.398 36.1024  12
  -3  -5  -2 265.331 35.8559   9
   5  -3  -2 273.009 36.2789   3
   3   5  -2 192.715 28.7200  13
   3   5  -2 313.468 38.2046   3
  -5   3  -2 234.028 30.9584   2
   3   5  -2 200.752 31.6523   8
   3   5  -2 293.022 41.0598   4
  -3  -5  -2 281.082 37.8495   5
   3   5  -2 312.278 36.2761  15
  -5   3  -2 263.423 33.8859   8
  -5   3  -2 276.720 32.3042   5
  -3  -5  -2 248.919 33.4594   8
   3   5  -2 267.594 31.8468   2
   5  -3  -2 181.322 32.8120   4
   5  -3  -2 205.374 37.8544   6
  -5   4  -2 555.846 55.1612  12
  -4  -5  -2 645.153 57.9715   6
   5  -4  -2 635.553 57.0605   7
  -4  -5  -2 591.212 56.5829   8
   4   5  -2 554.208 54.4753   2
   5  -4  -2 574.686 58.0213   5
  -4  -5  -2 614.572 60.4413   5
   5  -4  -2 561.742 49.3136  11
  -4  -5  -2 631.119 56.8629  14
  -5   4  -2 540.217 54.0260   1
   4   5  -2 649.308 60.0845   4
   4   5  -2 657.280 56.2243  12
   5  -4  -2 595.186 53.8711  15
  -5   4  -2 550.887 53.9199   2
   4   5  -2 641.563 56.2835  15
   4   5  -2 643.212 59.5175  11
  -4  -5  -2 589.231 56.7334  10
   5  -4  -2 548.641 52.9485  14
  -5   4  -2 573.179 53.6902   5
  -5   4  -2 579.977 57.4389   8
  -5   4  -2 601.296 53.6475   9
   4   5  -2 538.931 53.0031   1
   4   5  -2 622.851 56.7047   8
  -4  -5  -2 649.282 55.3772   9
   4   5  -2 549.196 52.3762  14
   5  -4  -2 595.147 55.2745   6
  -5   4  -2 618.299 55.7139  13
  -5   4  -2 584.448 51.7951  11
   5  -4  -2 580.846 53.4246   3
   4   5  -2 598.584 57.9335   3
  -5   5  -2 137.471 26.4844   5
   5  -5  -2 124.094 32.2309   7
  -5  -5  -2 114.583 28.7985   8
   5   5  -2 109.483 36.3354   4
   5   5  -2 80.9174 29.6018   1
  -5   5  -2 150.647 36.7344   1
   5  -5  -2 175.068 35.9655   6
  -5  -5  -2 98.4664 31.9838   9
  -5   5  -2 132.342 30.9965   8
   5   5  -2 100.982 26.7275  14
  -5  -5  -2 97.1991 30.1041  14
  -5   5  -2 133.971 31.5824  13
  -5  -5  -2 163.425 34.0307   5
  -5   5  -2 101.693 26.7637   9
   5  -5  -2 124.279 31.2500  15
  -5   5  -2 75.7372 24.5305   2
   5  -5  -2 145.310 33.1866   3
  -5  -5  -2 104.034 32.9291   6
  -5   5  -2 126.427 31.3386  12
  -5  -5  -2 73.4030 35.8430  10
   5   5  -2 110.512 33.2548   3
   5   5  -2 75.3074 26.5203   2
   5  -5  -2 97.1305 28.5745  11
   5   5  -2 139.496 32.5003  11
   5  -5  -2 129.555 32.7550  14
   5   5  -2 109.518 28.1292   8
   5   5  -2 129.233 31.0590  15
   5  -5  -2 143.096 32.2711   5
  -5   5  -2 149.185 23.2009  11
   5   5  -2 112.689 33.2663  12
   6   5  -2 351.470 40.6156  14
  -5   6  -2 388.939 41.0877   2
   6   5  -2 445.454 46.8393  15
   6   5  -2 376.147 45.1773  11
  -5   6  -2 494.889 45.6740   4
   6   5  -2 426.358 53.0536   4
   5  -6  -2 458.509 46.5736   3
   6   5  -2 405.270 39.4048   2
  -5   6  -2 397.045 36.6179  11
   6   5  -2 414.184 42.9664   7
  -5   6  -2 520.373 44.6731   9
  -5   6  -2 401.769 46.3861  12
   5  -6  -2 420.485 44.8909  15
   5  -6  -2 404.842 43.7930   5
  -6  -5  -2 359.016 41.5354  13
   6   5  -2 369.393 44.5534   1
   5  -6  -2 451.780 47.7428  14
   5  -6  -2 413.359 47.7785   6
  -6  -5  -2 329.742 41.2828   8
   5  -6  -2 343.609 46.4724  10
   6   5  -2 480.280 45.6682  12
  -5   6  -2 539.238 48.9692   8
  -6  -5  -2 477.296 49.6633  10
   6   5  -2 409.164 47.9634   3
  -5   6  -2 498.579 51.8004   1
  -6  -5  -2 394.024 46.9868   9
  -6  -5  -2 430.535 45.9784   6
   5  -6  -2 463.507 49.6071   7
  -6  -5  -2 509.951 49.2450   5
   4  -6  -2 902.487 70.5239   3
  -4   6  -2 1030.34 75.0302   8
   4  -6  -2 937.573 70.6796  15
   6   4  -2 717.918 69.9821   1
  -4   6  -2 814.712 66.9935  11
  -4   6  -2 834.234 68.1808   9
  -4   6  -2 1091.97 74.4449   4
   4  -6  -2 893.639 73.5788   5
   4  -6  -2 930.735 75.3740   6
   6   4  -2 801.739 73.5502   3
   6   4  -2 927.267 73.0448  15
  -6  -4  -2 921.483 72.7064   8
  -6  -4  -2 922.154 70.6898   2
  -6  -4  -2 824.971 71.8092   6
   6   4  -2 880.160 68.9791   2
   6   4  -2 898.755 78.3922   4
   6   4  -2 905.453 72.1585  12
   4  -6  -2 920.622 75.3258  10
  -6  -4  -2 888.534 76.6431  10
   6   4  -2 830.376 70.0227  14
   6   4  -2 906.971 71.8568   7
  -6  -4  -2 819.784 73.1752   9
  -6  -4  -2 850.472 76.5018   5
   4  -6  -2 930.623 76.7514  14
  -4   6  -2 923.285 73.0839   1
  -4   6  -2 889.709 71.2752  13
  -6  -4  -2 970.211 69.6436  13
   4  -6  -2 977.264 74.8188   7
   6   4  -2 926.142 77.6529  11
  -4   6  -2 905.826 71.2710   2
  -4   6  -2 970.509 72.1727  12
   6   3  -2 1702.45 121.502  12
   3  -6  -2 1759.81 124.467   7
  -6  -3  -2 1707.26 123.517   9
   6   3  -2 1777.85 121.861   7
  -6  -3  -2 1845.69 121.673  13
   3  -6  -2 1840.91 121.143   3
  -6  -3  -2 1842.71 125.813   5
   6   3  -2 1797.52 124.928   3
  -3   6  -2 2150.11 126.569   4
  -6  -3  -2 1818.23 125.784  10
  -3   6  -2 1896.46 122.422  13
   6   3  -2 1749.20 124.577  11
   3  -6  -2 1715.35 123.818   5
   3  -6  -2 1580.89 124.658   6
  -6  -3  -2 1835.26 121.623   2
  -3   6  -2 1868.06 122.744   2
   3  -6  -2 1889.07 125.645  14
   6   3  -2 1653.11 121.762   1
   3  -6  -2 1611.97 123.812  10
  -3   6  -2 1761.55 119.899   9
   6   3  -2 1806.69 121.954  14
  -3   6  -2 1709.82 123.110  12
  -3   6  -2 1874.17 125.193   8
   6   3  -2 1876.76 127.137   4
  -3   6  -2 1714.60 120.128  11
  -3   6  -2 1793.04 124.706   1
  -6  -3  -2 1984.40 122.870   6
   6   3  -2 1841.88 120.579   2
  -6  -3  -2 1787.15 123.487   8
   3  -6  -2 1884.83 120.915  15
   6   3  -2 1812.94 123.186  15
  -6  -2  -2 94.8220 28.5166   9
   2  -6  -2 73.0520 32.3525  10
  -6  -2  -2 90.6026 31.4468  10
  -2   6  -2 56.9914 28.3909  12
   6   2  -2 64.0788 27.2798   1
   6   2  -2 75.5543 30.5661   3
  -2   6  -2 90.1606 26.3775   2
   6   2  -2 134.302 30.5543   7
  -6  -2  -2 90.2248 25.5649   2
   2  -6  -2 82.5143 25.8536   3
   6   2  -2 42.7172 24.8277   2
  -6  -2  -2 34.6736 24.4891   6
   2  -6  -2 85.5151 25.2034  15
   2  -6  -2 91.5361 33.4649   6
  -6  -2  -2 53.6773 28.7428  13
   6   2  -2 104.973 29.7627  15
  -2   6  -2 115.745 28.5845   8
  -2   6  -2 158.704 37.7985   1
   2  -6  -2 91.0304 29.5875   5
  -2   6  -2 93.1656 23.2804  11
   2  -6  -2 100.222 30.4320  14
  -6  -2  -2 89.3114 30.4554   5
   6   2  -2 93.0132 29.6120  11
  -2   6  -2 101.338 22.5516   9
   6   2  -2 99.3956 26.4199  14
   2  -6  -2 120.344 34.3186   7
  -2   6  -2 96.9324 27.7310  13
   6   2  -2 64.3973 25.5579  12
   6   2  -2 122.917 35.5864   4
  -6  -2  -2 69.4457 27.2773   8
  -2   6  -2 141.842 32.4879   4
   1  -6  -2 214.956 29.3295   3
  -6  -1  -2 257.506 36.1509  10
   1  -6  -2 240.638 38.3576   6
   6   1  -2 251.323 35.0666  11
  -6  -1  -2 263.807 35.4986   8
  -1   6  -2 280.330 31.8471  11
   6   1  -2 257.169 37.9227   3
   6   1  -2 266.898 35.3226  14
  -1   6  -2 304.316 42.9754   1
   1  -6  -2 282.180 30.4872  15
   1  -6  -2 234.507 36.7210   5
  -1   6  -2 296.959 39.0679   4
   6   1  -2 258.874 37.9400   7
   1  -6  -2 295.701 37.1141   7
   1  -6  -2 253.737 37.8101  10
  -1   6  -2 255.491 33.3784   2
  -6  -1  -2 283.063 32.1714   2
  -6  -1  -2 316.878 30.9936   6
  -1   6  -2 344.697 39.1478  12
  -1   6  -2 294.259 29.0633   9
  -6  -1  -2 233.037 34.8492   9
   6   1  -2 320.861 36.9743  15
  -1   6  -2 266.872 33.4968  13
   6   1  -2 287.309 40.3084   4
  -6  -1  -2 235.492 34.9982   5
  -1   6  -2 292.244 36.1394   8
   6   1  -2 239.208 31.5913  12
   1  -6  -2 305.094 36.3713  14
  -6  -1  -2 287.213 36.0305  13
   0  -6  -2 2080.67 144.971  10
   0   6  -2 1897.26 136.598   9
   0  -6  -2 2143.25 142.856   7
   0   6  -2 2041.31 141.701  11
  -6   0  -2 2224.55 137.808   6
   0   6  -2 2199.28 142.481   2
   0   6  -2 2295.40 146.280   4
   0  -6  -2 2020.73 144.312   5
   0  -6  -2 2030.14 137.156  15
   6   0  -2 2107.57 142.246  15
   0  -6  -2 2023.10 142.191   9
  -6   0  -2 2187.23 143.426   8
   6   0  -2 2065.51 144.232   4
   6   0  -2 2155.57 143.484   3
   6   0  -2 2174.89 142.729  14
  -6   0  -2 2197.87 140.816   2
   0   6  -2 2292.23 143.602   8
  -6   0  -2 2179.36 143.047   5
   0   6  -2 2090.12 143.398   3
   6   0  -2 2100.52 143.394   7
  -6   0  -2 2273.14 143.105  10
   6   0  -2 2261.48 143.044  11
  -6   0  -2 2089.53 143.184  12
   0   6  -2 2162.93 141.290  13
   0  -6  -2 2235.22 143.161  14
   0   6  -2 1989.67 144.959   1
  -6   0  -2 2150.26 141.617   9
   6   0  -2 2018.05 138.221  12
  -6   0  -2 2212.26 142.851  13
   0  -6  -2 2228.22 144.854   6
  -6   0  -2 2253.66 142.583   1
   0   6  -2 2100.73 142.788  12
   1   6  -2 252.580 32.3775  11
   1   6  -2 250.839 32.7327   2
   1   6  -2 225.251 39.1125   4
   1   6  -2 282.018 38.4017   3
  -1  -6  -2 280.983 35.3851   7
   6  -1  -2 275.734 35.4764  14
  -1  -6  -2 226.994 37.9304   6
   6  -1  -2 284.743 36.2672   4
  -1  -6  -2 221.262 24.7691  15
   1   6  -2 267.735 35.7851  15
   6  -1  -2 196.134 38.4312   6
  -6   1  -2 296.649 35.6737   9
  -6   1  -2 310.746 35.1089   8
  -1  -6  -2 184.958 34.2813  10
  -1  -6  -2 231.929 36.7168   5
  -6   1  -2 286.226 35.9556   1
   6  -1  -2 277.777 39.0738   7
  -6   1  -2 227.666 36.4435  12
   1   6  -2 399.152 43.5956   1
  -6   1  -2 243.578 33.8902  10
  -1  -6  -2 226.324 36.3854   9
  -1  -6  -2 225.061 24.6348   3
  -6   1  -2 250.649 30.9351   2
  -6   1  -2 244.815 32.7067  13
   6  -1  -2 240.920 26.6483  12
   1   6  -2 247.631 32.4451  13
  -6   1  -2 230.793 32.9265   5
   6  -1  -2 268.275 35.3768  15
  -1  -6  -2 281.777 34.5688  14
   6  -1  -2 265.177 34.0818  11
   1   6  -2 193.662 35.8250  12
  -6   1  -2 272.594 24.8447   6
   6  -1  -2 243.680 37.2671   3
   1   6  -2 264.833 24.2716   9
   1   6  -2 272.914 34.7450   8
   2   6  -2 61.5765 30.2490  15
  -2  -6  -2 53.4822 31.2155   6
   2   6  -2 20.0460 25.7159   2
   6  -2  -2 118.689 31.0657   3
   2   6  -2 9.42399 33.0148   4
  -6   2  -2 93.6160 27.5518   9
   6  -2  -2 42.7647 28.2695  15
   2   6  -2 105.884 25.3709  13
   2   6  -2 25.9451 30.8717   3
   2   6  -2 101.840 27.1627   8
  -2  -6  -2 76.3230 28.3428  14
   6  -2  -2 57.3230 27.2479  11
   2   6  -2 68.3793 27.6660  11
  -6   2  -2 83.1361 28.7103   1
  -2  -6  -2 104.413 31.4354   9
   6  -2  -2 121.893 29.2017  14
  -2  -6  -2 88.2520 28.5672   7
  -6   2  -2 94.1556 26.8644   8
   6  -2  -2 70.9921 31.6032   7
   2   6  -2 112.787 33.3683   1
  -2  -6  -2 77.5807 16.7067  15
  -6   2  -2 81.5761 29.5826  13
   6  -2  -2 62.3463 17.1593  12
  -6   2  -2 56.7388 29.0906  12
  -2  -6  -2 30.3477 33.6413  10
   2   6  -2 78.9349 30.9257  12
  -2  -6  -2 64.1721 31.5757   5
   6  -2  -2 101.369 32.7994   6
  -6   2  -2 83.5174 25.8900  10
  -6   2  -2 144.835 26.0250   5
  -6   2  -2 100.592 23.8205   2
   6  -2  -2 46.6572 28.5540   4
  -6   3  -2 1784.21 123.158   2
   3   6  -2 1863.65 124.164   8
  -3  -6  -2 1759.68 125.206   9
  -6   3  -2 1802.84 126.034   8
  -3  -6  -2 1716.70 127.686   5
  -6   3  -2 1912.53 124.931  13
   6  -3  -2 1688.17 123.650   4
   3   6  -2 1739.60 126.154   1
   3   6  -2 1593.13 126.804   4
  -6   3  -2 1968.46 121.909  10
   6  -3  -2 1839.52 128.014   6
  -6   3  -2 2127.71 127.191   1
   6  -3  -2 1805.41 125.193   7
  -3  -6  -2 1728.06 128.778  10
   3   6  -2 1733.87 125.779  11
   3   6  -2 1733.21 125.297  12
  -6   3  -2 1996.88 125.364  12
  -3  -6  -2 1800.37 126.351   6
   6  -3  -2 1977.72 126.882   3
   6  -3  -2 1870.40 124.616  15
   3   6  -2 1875.76 124.349   2
   3   6  -2 1855.63 126.737   3
   6  -3  -2 1988.94 124.202  11
  -3  -6  -2 1868.61 122.507   7
  -6   3  -2 1858.75 124.124   9
  -3  -6  -2 1827.91 124.370  14
   6  -3  -2 2031.29 127.752  14
   3   6  -2 1750.91 124.902  15
  -6   3  -2 1910.07 123.915   5
   3   6  -2 1532.00 120.465  13
  -6   4  -2 970.217 70.3792   9
  -6   4  -2 942.863 73.1022   8
   4   6  -2 867.963 74.9596   3
   4   6  -2 921.559 70.2193   8
  -6   4  -2 974.645 73.3332   1
  -4  -6  -2 865.748 72.1044   8
  -4  -6  -2 844.461 73.7944   9
  -4  -6  -2 922.060 67.9367   7
   4   6  -2 798.258 71.4357  15
  -4  -6  -2 791.155 75.3052   5
  -6   4  -2 872.401 66.9696  11
  -4  -6  -2 863.959 76.7966  10
   4   6  -2 817.199 75.2701  11
   6  -4  -2 1047.40 71.5605  11
  -6   4  -2 859.883 69.8007   2
   6  -4  -2 892.727 74.2554   7
   6  -4  -2 937.337 74.7545   3
   6  -4  -2 733.206 68.0121   4
  -4  -6  -2 941.221 71.2568  14
   6  -4  -2 939.736 75.8833   6
  -6   4  -2 978.867 71.8186  13
  -4  -6  -2 794.335 72.3347   6
   4   6  -2 911.890 72.8202  12
   4   6  -2 864.047 69.3885   2
   6  -4  -2 897.689 72.5411  15
   4   6  -2 676.852 70.8735   1
   6  -4  -2 928.037 75.3043  14
  -6   4  -2 826.000 70.7887  12
   4   6  -2 885.791 78.2292   4
  -6   4  -2 920.411 69.2130   5
   5   6  -2 475.880 54.8214   4
   6  -5  -2 406.888 48.8288   6
   5   6  -2 442.978 41.5304   2
   5   6  -2 416.328 48.3183   1
  -6   5  -2 439.310 45.8344   8
   6  -5  -2 425.264 48.2054   3
  -6   5  -2 428.235 37.4587  11
   6  -5  -2 402.621 41.6650   4
   5   6  -2 450.425 49.4244   3
   5   6  -2 420.432 47.0980  15
   6  -5  -2 391.857 46.4695  14
  -5  -6  -2 377.752 51.1238  10
  -5  -6  -2 377.070 43.2123  14
   6  -5  -2 452.131 50.6161   7
  -6   5  -2 530.722 52.1644   1
   6  -5  -2 452.015 47.0923  15
   5   6  -2 421.678 42.2125   8
  -5  -6  -2 410.663 48.8547   5
   5   6  -2 437.811 42.4249  14
   5   6  -2 439.650 46.7075  11
  -6   5  -2 503.852 47.0721  12
   5   6  -2 452.133 49.1031  12
  -6   5  -2 484.804 46.9666   5
  -5  -6  -2 420.947 48.2743   6
  -6   5  -2 408.789 41.3616   2
  -5  -6  -2 424.940 43.6430   8
   6  -5  -2 474.733 45.0425   5
   6  -5  -2 450.852 42.5840  11
  -6   5  -2 567.713 47.9802  13
  -6   5  -2 450.818 44.5016   9
  -5  -6  -2 389.887 47.8911   9
   6   6  -2 1594.19 112.935  15
  -6   6  -2 1713.33 115.622   1
  -6  -6  -2 1542.57 114.796   9
   6  -6  -2 1684.16 115.842  14
   6   6  -2 1659.09 116.376  11
   6   6  -2 1612.43 109.847  14
  -6  -6  -2 1572.53 119.181   5
  -6   6  -2 1721.03 112.104   4
   6   6  -2 1547.32 113.739  12
  -6   6  -2 1639.55 111.652   9
   6   6  -2 1579.87 109.580   2
   6   6  -2 1510.17 115.648   3
   6  -6  -2 1771.04 118.162   6
  -6   6  -2 1576.46 114.657   8
  -6   6  -2 1578.48 107.479  11
   6  -6  -2 1592.52 113.150   5
   6  -6  -2 1574.62 114.326   3
   6   6  -2 1304.76 110.095   1
  -6  -6  -2 1581.53 114.479   6
  -6   6  -2 1597.49 111.917   2
   6  -6  -2 1680.75 112.267  15
  -6  -6  -2 1587.95 112.341   8
  -6   6  -2 1573.23 112.307  12
  -6   7  -2 399.126 41.5302   2
   7   6  -2 338.228 45.0990  15
   6  -7  -2 365.344 46.7491   3
   7   6  -2 336.895 45.2202  11
   6  -7  -2 374.754 45.4801  15
  -6   7  -2 408.098 42.4914   9
  -6   7  -2 335.519 32.5699  11
   6  -7  -2 452.521 48.8121   6
  -7  -6  -2 363.307 47.7195   6
  -7  -6  -2 393.539 48.9996   5
   7   6  -2 269.501 42.3357   1
   6  -7  -2 333.797 45.7251  14
   6  -7  -2 322.564 43.8543  10
  -6   7  -2 477.493 43.4434   4
   7   6  -2 309.432 43.7816  12
   7   6  -2 280.309 37.3530  14
  -7  -6  -2 314.754 39.9166   8
  -6   7  -2 390.187 46.0492   8
  -7  -6  -2 297.518 37.5241  13
   6  -7  -2 265.311 39.5933   5
   7   6  -2 297.149 39.8326   7
  -6   7  -2 412.398 44.2788  12
   7   6  -2 333.363 36.2110   2
   7   6  -2 393.776 48.2562   3
  -7  -6  -2 325.089 46.0085   9
   7   5  -2 199.013 37.5783  15
  -7  -5  -2 262.137 41.6022   6
  -7  -5  -2 187.797 33.7772   8
   5  -7  -2 294.956 41.0755  14
  -5   7  -2 323.141 44.8755   1
   7   5  -2 254.471 41.0881   3
   7   5  -2 259.953 31.8153   2
   5  -7  -2 271.610 36.3802   5
  -5   7  -2 195.710 32.7864   2
   7   5  -2 171.063 36.9396  12
   5  -7  -2 196.308 39.2701  10
   7   5  -2 223.948 32.8500  14
  -5   7  -2 306.359 39.2852   8
  -7  -5  -2 222.264 40.7469   5
  -7  -5  -2 182.075 32.7275  13
   7   5  -2 235.346 38.9352  11
  -5   7  -2 237.993 27.3102  11
   7   5  -2 183.841 36.5380   1
   7   5  -2 206.435 34.5193   7
   5  -7  -2 280.082 41.8222   6
  -7  -5  -2 187.545 38.3620   9
  -5   7  -2 307.882 39.3354  12
  -5   7  -2 294.655 38.1663   4
   5  -7  -2 265.970 37.6716  15
  -5   7  -2 231.157 34.8140   9
   5  -7  -2 208.474 39.2926   3
   4  -7  -2 780.550 68.7010   3
   7   4  -2 852.656 70.9309  15
   7   4  -2 957.415 76.0114  11
  -4   7  -2 890.766 74.5462   1
  -4   7  -2 914.566 72.1127   4
   4  -7  -2 768.840 71.8076   7
  -4   7  -2 836.668 73.5845   8
  -7  -4  -2 859.816 70.0756   8
  -7  -4  -2 818.299 76.3743   5
  -7  -4  -2 849.887 70.6674   6
   4  -7  -2 802.170 72.0677   5
  -7  -4  -2 905.047 71.9809   9
  -4   7  -2 793.090 69.1237   2
   7   4  -2 834.742 69.3994  12
  -4   7  -2 797.968 64.2130  11
  -7  -4  -2 779.564 66.9901  13
  -7  -4  -2 875.608 75.2744  10
   4  -7  -2 760.534 68.6804  10
   7   4  -2 837.036 65.8642   2
   4  -7  -2 804.694 72.2146  14
  -4   7  -2 854.356 69.3171  12
   7   4  -2 777.186 67.9900   1
   7   4  -2 833.413 66.7474  14
  -7  -4  -2 943.661 68.2086   2
   7   4  -2 837.049 72.7840   3
   7   4  -2 806.651 68.5955   7
  -4   7  -2 738.798 66.2441   9
   4  -7  -2 859.074 67.0826  15
   4  -7  -2 787.373 73.5704   6
  -7  -3  -2 337.309 41.2880   9
   7   3  -2 321.128 43.5172   3
  -7  -3  -2 305.261 39.2436  13
   3  -7  -2 428.907 44.3558   7
  -3   7  -2 348.180 36.8601   9
  -3   7  -2 256.627 36.9550   2
   3  -7  -2 347.023 42.8992  10
   3  -7  -2 333.190 40.0575   5
  -3   7  -2 378.896 42.6174   4
  -7  -3  -2 323.356 42.6829   5
   7   3  -2 366.304 35.4175   2
  -3   7  -2 317.012 33.7910  11
   7   3  -2 300.816 47.4550   4
  -7  -3  -2 333.072 39.2677   8
   7   3  -2 247.820 38.1825   1
  -3   7  -2 326.108 42.3657  12
  -3   7  -2 359.452 39.3865  13
   3  -7  -2 318.814 38.1218   3
   7   3  -2 346.929 40.8492   7
   3  -7  -2 364.330 37.9065  15
   7   3  -2 285.379 41.7649  15
   7   3  -2 369.022 39.5615  12
   3  -7  -2 338.610 42.3473  14
  -7  -3  -2 349.197 44.9540  10
  -7  -3  -2 417.117 40.5016   6
  -7  -3  -2 379.798 36.4733   2
  -3   7  -2 445.765 47.9434   1
   3  -7  -2 271.416 43.6140   6
   7   3  -2 387.764 42.1138  11
   7   3  -2 342.421 37.7256  14
  -3   7  -2 281.209 39.6126   8
   7   2  -2 468.854 43.4991  14
   2  -7  -2 520.304 46.2196  14
  -7  -2  -2 490.851 46.2808   5
  -2   7  -2 388.021 43.9185   8
   7   2  -2 419.189 43.9861  11
  -2   7  -2 484.195 51.0576   1
   2  -7  -2 408.358 44.7336   5
   2  -7  -2 411.612 40.5920   3
  -7  -2  -2 409.632 40.2278   2
  -2   7  -2 496.207 46.4960  12
  -2   7  -2 510.121 40.6988  11
  -7  -2  -2 441.382 45.7490   9
   2  -7  -2 351.188 46.8329  10
  -2   7  -2 440.576 39.6956   9
   2  -7  -2 351.990 47.3047   6
  -2   7  -2 424.342 42.8817  13
  -2   7  -2 498.118 47.7242   4
   2  -7  -2 384.594 45.7709   7
   7   2  -2 343.824 46.5861   1
  -2   7  -2 395.648 41.7447   2
  -7  -2  -2 456.010 44.3221  13
   7   2  -2 424.375 45.3139  15
  -7  -2  -2 389.276 43.3237   8
   7   2  -2 446.225 46.2447   7
   7   2  -2 470.678 47.2001   3
   7   2  -2 404.301 41.2411  12
  -7  -2  -2 501.226 42.2846   6
  -7  -2  -2 413.945 47.6810  10
   7   2  -2 396.015 50.0803   4
   2  -7  -2 352.281 39.3393  15
   7   2   2 349.408 35.9702  15
  -7  -1  -2 113.087 31.7927  10
   1  -7  -2 129.900 34.7709   7
   7   1  -2 154.458 27.2654  12
   7   1  -2 97.5403 31.2195  15
   7   1  -2 97.9505 33.3807   4
   1  -7  -2 159.971 35.2914   6
   1  -7  -2 81.3515 31.6695   5
  -7  -1  -2 161.201 30.1604   8
   1  -7  -2 73.4315 24.7527   3
   1  -7  -2 65.3905 32.2661  10
   7   1  -2 139.488 29.2608  14
  -1   7  -2 54.5604 31.7642  12
   1  -7  -2 105.219 30.5375  14
  -1   7  -2 77.5209 27.3928  13
  -1   7  -2 171.990 38.1875   1
   1  -7  -2 100.771 24.4156  15
  -1   7  -2 171.375 30.6360   8
  -1   7  -2 111.758 22.7936   9
  -7  -1  -2 63.7218 25.4533   2
   7   1  -2 148.257 31.0504  11
  -1   7  -2 65.0164 33.7066   4
  -7  -1  -2 176.287 32.2175   5
  -7  -1  -2 158.300 31.6144   9
  -7  -1  -2 154.405 25.8110   6
   7   1  -2 130.590 34.1881   7
   7   1  -2 155.064 33.9108   3
  -1   7  -2 99.0761 28.4962   2
  -1   7  -2 122.947 26.2218  11
  -7  -1  -2 146.272 32.4487  13
   1  -7   2 125.957 27.8540   6
   7   0  -2 815.948 66.1071  12
  -7   0  -2 988.127 70.5429   1
  -7   0  -2 958.518 69.4133   2
  -7   0  -2 980.705 74.5902   8
   0   7  -2 920.753 76.2664   1
   7   0  -2 1025.09 74.8509   3
   0   7  -2 928.728 74.5456   8
  -7   0  -2 917.326 72.7276  13
   0   7  -2 873.229 70.0547  13
   7   0  -2 863.792 71.6933  15
   7   0  -2 924.970 73.1525  14
   0   7  -2 943.699 76.8344   4
   0  -7  -2 884.882 72.0205   7
   0   7  -2 879.315 71.7368  11
   0   7  -2 884.351 64.1293   9
  -7   0  -2 989.861 71.7179  10
   0  -7  -2 748.390 74.6181  10
  -7   0  -2 1000.96 74.3900   5
   0  -7  -2 847.662 75.0351   6
   0   7  -2 905.947 73.6449   2
  -7   0  -2 842.415 72.4767   9
   7   0  -2 841.247 74.8891   4
   0  -7  -2 810.151 73.6371   5
   7   0  -2 917.026 74.9015   7
   7   0  -2 1037.85 75.4731  11
   0  -7  -2 897.371 72.7810  14
  -7   0  -2 969.089 65.4699   6
   0   7  -2 872.249 72.4950  12
  -7   1  -2 142.475 26.3928   2
  -1  -7  -2 78.8845 35.2526  10
   1   7  -2 147.723 37.7789   1
  -1  -7  -2 101.308 19.7205  15
   1   7  -2 85.5098 18.3994   9
  -1  -7  -2 90.9695 30.0303   3
   1   7  -2 100.764 27.5501  13
  -7   1  -2 127.148 28.8898   8
   1   7  -2 133.587 30.0381   2
   1   7  -2 99.8645 31.2927  12
  -7   1  -2 151.385 30.2528  10
  -7   1  -2 109.298 31.3820   1
  -7   1  -2 132.579 28.3677   5
   7  -1  -2 126.604 30.5041  11
  -1  -7  -2 116.004 33.4697   9
   1   7  -2 128.396 28.1789  11
  -7   1  -2 120.600 33.3212  12
   1   7  -2 129.848 33.5910   3
   7  -1  -2 92.5072 29.6760  14
  -7   1  -2 131.318 20.2205   6
  -7   1  -2 102.405 28.6457   9
   7  -1  -2 73.5644 32.5114   7
  -1  -7  -2 127.190 31.8039  14
  -1  -7  -2 104.232 32.2308   7
   7  -1  -2 91.2425 32.1849   4
   1   7  -2 101.214 35.6271   4
   7  -1  -2 106.210 31.1584  15
  -7   1  -2 98.8483 32.3220  13
  -1  -7  -2 109.057 34.4621   6
   7  -1  -2 139.192 33.8562   3
  -1  -7  -2 139.331 35.1366   5
   7  -1  -2 116.527 21.4869  12
   1   7  -2 102.757 30.3210   8
   2   7  -2 524.776 49.2724   3
   2   7  -2 424.763 51.7241   4
  -2  -7  -2 454.685 48.3867   9
  -7   2  -2 415.733 44.9409   9
  -2  -7  -2 497.354 45.1350   7
   7  -2  -2 438.125 50.5561   7
   7  -2  -2 588.640 48.6865  14
   7  -2  -2 455.720 50.0042   6
  -7   2  -2 472.868 41.5171   2
  -7   2  -2 473.671 42.7390  10
   7  -2  -2 433.188 46.8645  15
   2   7  -2 427.682 49.2672   1
  -7   2  -2 453.224 46.6214   1
   2   7  -2 445.551 47.6828  12
  -2  -7  -2 433.426 43.9338  14
   7  -2  -2 425.766 43.2314  11
   7  -2  -2 518.142 48.8895   3
   7  -2  -2 427.666 45.5401   4
  -7   2  -2 348.604 42.9095  13
  -7   2  -2 468.205 47.2005  12
  -2  -7  -2 420.859 46.8976   5
   2   7  -2 474.097 47.0115  15
   2   7  -2 387.418 40.9159  13
  -7   2  -2 463.423 43.0007   5
  -2  -7  -2 400.097 48.0915  10
   2   7  -2 427.143 43.5136   8
  -2  -7  -2 389.033 47.6621   6
   2   7  -2 468.048 44.2011  11
   2   7  -2 441.955 43.6582   2
  -7   2  -2 479.318 46.6101   8
  -3  -7  -2 268.061 42.1251   9
   3   7  -2 384.966 45.0556  12
   7  -3  -2 360.995 38.7699  11
   3   7  -2 333.004 44.3027   3
  -7   3  -2 376.363 41.1940   8
   7  -3  -2 300.028 45.0273   6
  -7   3  -2 320.783 41.1940  12
  -7   3  -2 367.846 36.2895  10
  -7   3  -2 329.000 41.6577   1
   3   7  -2 333.501 44.3372   1
  -7   3  -2 359.645 40.9017   9
   3   7  -2 310.186 35.3750  13
  -3  -7  -2 320.137 44.1143   6
  -7   3  -2 375.369 37.6311   5
  -7   3  -2 333.644 36.5107   2
  -3  -7  -2 344.963 39.0132  14
   7  -3  -2 384.225 46.0197   7
   3   7  -2 370.696 39.6946   2
   3   7  -2 292.254 42.4456  15
   7  -3  -2 329.640 44.2841   3
  -7   3  -2 400.360 42.7758  13
   7  -3  -2 344.545 38.4423   4
  -3  -7  -2 348.684 44.6282   5
  -3  -7  -2 319.266 46.3828  10
   3   7  -2 309.017 40.0594  11
   3   7  -2 372.768 48.9568   4
  -3  -7  -2 367.249 39.0614   7
   3   7  -2 327.666 37.5570   8
   7  -3  -2 309.975 40.8122  15
   7  -3  -2 315.700 41.8007  14
  -4  -7  -2 823.955 75.7299   6
  -4  -7  -2 771.716 72.0860  10
   4   7  -2 776.090 73.4049   3
  -4  -7  -2 820.159 68.9277  14
  -7   4  -2 875.464 66.9642   5
   7  -4  -2 632.127 64.5386   4
  -7   4  -2 886.777 72.7476   8
   4   7  -2 838.562 68.3194  11
  -7   4  -2 799.048 67.5919   9
   4   7  -2 846.558 71.6584  15
  -4  -7  -2 853.960 74.8043   9
   4   7  -2 766.626 78.8440   4
   4   7  -2 773.535 70.2286   2
  -7   4  -2 936.584 71.5276   1
   4   7  -2 902.924 68.6011   8
   7  -4  -2 960.048 75.1933  14
  -4  -7  -2 918.332 77.7805   5
   7  -4  -2 934.286 69.0813  11
   7  -4  -2 899.700 74.1259   7
   4   7  -2 900.526 72.9577  12
   7  -4  -2 744.468 74.5329   6
  -7   4  -2 834.430 70.1370  12
  -7   4  -2 842.471 67.4939   2
  -7   4  -2 848.004 66.9297  13
   4   7  -2 728.592 69.8788   1
  -4  -7  -2 863.841 64.8940   7
   7  -4  -2 863.934 73.0692   3
   7  -4  -2 926.054 71.1850  15
  -7   5  -2 297.210 42.4804   1
   7  -5  -2 272.476 42.3151   3
   5   7  -2 252.306 40.9559  15
  -7   5  -2 235.542 30.6608   5
  -5  -7  -2 233.052 34.0470  14
  -5  -7  -2 158.309 40.1802   7
  -5  -7  -2 177.242 41.4330   5
   7  -5  -2 319.879 43.6628   7
  -5  -7  -2 220.682 42.0942   6
  -5  -7  -2 266.702 42.1921   9
   7  -5  -2 286.253 39.7844  15
   7  -5  -2 300.849 41.2826  14
  -7   5  -2 277.447 36.4411   9
   7  -5  -2 256.592 33.5271  11
   5   7  -2 165.191 32.1018   2
   7  -5  -2 222.250 34.6156   4
  -7   5  -2 230.927 36.2466   8
   5   7  -2 188.855 40.9400   3
   5   7  -2 200.409 41.7443  12
   5   7  -2 234.160 38.5973  11
   7  -5  -2 224.666 42.4206   6
  -7   5  -2 250.557 32.4393   2
  -7   5  -2 306.180 38.6454  12
   5   7  -2 201.303 32.2009   8
  -6  -7  -2 369.439 49.9318   6
  -7   6  -2 409.813 41.3703   2
   6   7  -2 272.437 36.9371   8
   7  -6  -2 408.011 48.6432   6
  -7   6  -2 429.453 44.7797   9
   7  -6  -2 438.172 39.3739  11
  -7   6  -2 485.371 41.6346  11
  -6  -7  -2 336.606 47.9639   9
   6   7  -2 345.470 47.4964  11
   7  -6  -2 417.428 48.8518   3
   6   7  -2 348.740 46.0252  15
  -7   6  -2 392.872 44.1519  12
   7  -6  -2 391.144 46.8176  14
   6   7  -2 367.347 48.8328   3
   6   7  -2 257.522 37.1303   2
  -7   6  -2 449.853 47.7379   8
   7  -6  -2 403.819 46.0456  15
   6   7  -2 296.314 48.0788  12
  -6  -7  -2 382.555 40.1290  14
  -6  -7  -2 259.190 46.8676   5
  -7   6  -2 438.171 48.1310   1
  -6  -7  -2 322.078 40.7157   8
  -7   7  -2 62.7136 30.4405   9
  -7  -7  -2 59.5768 39.4580   6
   7   7  -2 -39.244 36.1612  11
  -7   7  -2 46.1434 31.7688  12
   7  -7  -2 49.8872 33.3763  10
  -7   7  -2 52.3421 33.5273   8
   7   7  -2 56.0709 39.2832   3
   7  -7  -2 19.2595 34.8180  15
  -7   7  -2 25.6939 19.3441  11
  -7  -7  -2 39.7493 37.3112   9
  -7  -7  -2 41.9325 38.6768   5
   7  -7  -2 71.5968 30.9489   5
   7   7  -2 8.75644 35.1291  15
   7  -7  -2 38.2465 38.9356   6
   7   7  -2 16.3494 35.8055  12
  -7   7  -2 62.2276 28.8036   4
  -7  -7  -2 20.9313 28.0179  13
   7   7  -2 90.5960 26.7741   2
  -7  -7  -2 54.6887 29.7721   8
   7   7  -2 29.8517 28.2960  14
   7  -7  -2 39.6848 39.1358   3
  -7   7  -2 13.0662 27.2550   2
   7  -7  -2 46.2282 36.3003  14
  -7   8  -2 59.2866 32.6563   9
   8   7  -2 97.7714 47.3591   7
  -8  -7  -2 60.6261 30.0108  13
  -8  -7  -2 136.773 42.1349   6
   8   7  -2 128.297 41.5211  12
   7  -8  -2 22.1663 41.0019   3
  -8  -7  -2 74.4163 40.8686   9
   7  -8  -2 98.9535 35.2946  10
  -7   8  -2 138.643 34.7327  12
   7  -8  -2 116.341 42.3462   6
   8   7  -2 48.1832 40.1896   3
   7  -8  -2 65.0526 38.6239  14
   7  -8  -2 84.3214 39.0058  15
  -7   8  -2 93.5309 30.1700   2
  -8  -7  -2 108.841 43.3628   5
   8   7  -2 101.441 38.1113  15
  -7   8  -2 125.638 36.8368   8
  -8  -7  -2 36.0114 52.0664   8
   8   7  -2 76.7210 40.6641  11
   7  -8  -2 90.1609 39.2342   5
   8   6  -2 124.946 29.3963   2
   6  -8  -2 143.705 41.3176   6
   8   6  -2 84.9978 39.7435  11
  -6   8  -2 139.496 36.0524  12
   6  -8  -2 166.091 38.5067  15
   6  -8  -2 136.924 36.4773  10
   8   6  -2 134.129 32.8623   7
  -6   8  -2 214.490 35.8130   4
  -6   8  -2 161.375 24.3356  11
  -8  -6  -2 140.379 40.9053   9
  -8  -6  -2 152.320 31.5199  13
   8   6  -2 138.030 41.2877   3
  -8  -6  -2 150.859 43.0447   6
  -6   8  -2 199.860 38.2143   8
  -6   8  -2 173.744 35.1178   9
   8   6  -2 208.895 39.4962  12
   6  -8  -2 143.930 33.2774   5
   8   6  -2 162.224 31.4613  14
  -8  -6  -2 147.135 41.9954   5
   8   6  -2 167.644 39.8977  15
  -8  -6  -2 193.055 32.9188   8
  -6   8  -2 158.299 32.9478   2
   6  -8  -2 250.760 41.4229  14
   6  -8  -2 186.580 41.3253   3
  -8  -5  -2 239.601 44.3345   5
   5  -8  -2 180.797 41.0009   3
  -8  -5  -2 325.993 37.5879   8
  -5   8  -2 250.357 37.1178   9
   8   5  -2 240.359 43.7048   3
   8   5  -2 231.324 31.8879   2
   8   5  -2 270.758 42.5851  11
   8   5  -2 235.785 40.9037  12
  -5   8  -2 236.463 38.9027  12
  -5   8  -2 284.980 36.1754   2
   5  -8  -2 224.686 43.2608   6
  -5   8  -2 310.890 39.2117   4
   5  -8  -2 240.512 36.9373   5
   5  -8  -2 247.024 42.1465  14
   8   5  -2 253.728 35.1198  14
  -5   8  -2 284.468 41.1981   8
   5  -8  -2 245.938 41.0257  10
  -8  -5  -2 239.727 42.9795   6
  -8  -5  -2 177.291 34.6473  13
   5  -8  -2 261.847 40.6988  15
   8   5  -2 259.284 37.5842   7
   8   5  -2 248.088 41.8708  15
  -8  -5  -2 283.857 41.9842   9
  -5   8  -2 240.839 28.7958  11
  -8  -4  -2 305.716 37.9832   8
   8   4  -2 150.742 37.6991   1
   4  -8  -2 236.409 37.7889   5
   8   4  -2 258.806 41.9265  11
  -4   8  -2 275.412 36.2240   9
  -4   8  -2 279.859 39.4744  12
  -4   8  -2 187.332 35.1690   2
  -4   8  -2 289.977 40.3224   8
   8   4  -2 296.242 39.4630  12
   4  -8  -2 285.187 39.7369   3
   4  -8  -2 258.654 45.6541   6
  -8  -4  -2 354.787 42.6302   6
  -8  -4  -2 345.689 35.6711   2
  -8  -4  -2 250.203 36.9820  13
   8   4  -2 306.124 38.7970   7
   4  -8  -2 283.859 38.1889  15
   8   4  -2 255.936 42.7936   3
  -8  -4  -2 290.011 41.3499   9
   4  -8  -2 232.005 38.9387  10
   8   4  -2 319.910 36.3366  14
  -4   8  -2 281.922 39.1049   4
  -8  -4  -2 305.084 42.8782   5
   4  -8  -2 267.383 41.6771  14
  -4   8  -2 269.280 30.4301  11
   8   4  -2 273.934 41.0292  15
   3  -8  -2 107.995 35.1130   7
   3  -8  -2 -30.144 33.1165  10
  -3   8  -2 20.2507 30.0628   8
   8   3  -2 98.3078 34.6510  11
  -8  -3  -2 34.9736 31.3726  13
   3  -8  -2 6.64455 35.3320   6
   8   3  -2 29.6367 28.3024  12
   8   3  -2 65.7590 34.1163   3
   8   3  -2 46.5163 32.4213  15
   8   3  -2 39.7460 31.1385   7
   3  -8  -2 28.6792 28.2781   3
  -8  -3  -2 38.7341 32.0175   5
  -3   8  -2 50.2224 31.2787  12
   3  -8  -2 15.1127 26.9970  15
   3  -8  -2 52.3819 29.6367   5
  -8  -3  -2 66.4336 32.1954   9
   3  -8  -2 0.83449 31.8184  14
  -8  -3  -2 12.1458 29.4666   6
  -3   8  -2 68.0629 25.8596   9
  -8  -3  -2 24.7100 28.2033   8
  -8  -3  -2 20.2535 24.7489   2
  -3   8  -2 69.1118 23.1637  11
  -3   8  -2 71.5241 28.7770   2
   8   3  -2 1.73483 25.7793  14
  -3   8  -2 -0.0975 31.9756   4
   8   2  -2 44.4552 26.8914  12
  -8  -2  -2 107.311 32.3272  13
   8   2  -2 62.1122 31.8057  15
  -2   8  -2 99.7302 34.1329  12
   2  -8  -2 144.533 32.1914   5
  -8  -2  -2 77.1439 31.6661   5
  -8  -2  -2 170.231 30.5825   6
   8   2  -2 108.826 33.7102  11
  -8  -2  -2 91.6139 30.0972   8
  -2   8  -2 121.727 36.4620   4
   2  -8  -2 22.7153 35.6915   6
  -8  -2  -2 96.0998 26.5239   2
   2  -8  -2 107.251 34.6730   7
   2  -8  -2 124.069 27.4641   3
  -8  -2  -2 148.492 33.2448   9
  -2   8  -2 109.126 32.0391   8
   8   2  -2 90.2375 29.6067  14
  -2   8  -2 110.153 30.4867   2
   8   2  -2 97.4745 37.1994   4
   2  -8  -2 142.226 34.2248  14
  -8  -2  -2 85.0431 34.9215  10
  -2   8  -2 69.2901 24.9002  11
   8   2  -2 89.4444 35.0705   3
   2  -8  -2 99.5347 34.6494  10
  -2   8  -2 68.5061 24.8914   9
   2  -8  -2 137.255 27.3208  15
   8   2  -2 67.8307 34.5831   7
   8   2   2 86.8359 22.4724   3
   8   1  -2 553.084 54.7252   4
  -1   8  -2 554.429 53.7832   4
  -1   8  -2 485.702 46.0203  13
  -1   8  -2 472.737 43.9146  11
  -8  -1  -2 478.345 48.9312   9
   8   1  -2 509.911 46.9315  14
  -8  -1  -2 511.328 43.9942   2
   1  -8  -2 441.427 47.8143  14
  -8  -1  -2 487.788 48.8974   5
  -8  -1  -2 519.182 51.0588  10
   8   1  -2 485.179 50.8580   3
  -1   8  -2 498.845 47.9464  12
   8   1  -2 479.968 49.9378  15
   1  -8  -2 446.109 41.9799  15
  -8  -1  -2 459.779 47.2581   1
  -8  -1  -2 432.325 47.0362   8
   1  -8  -2 486.535 45.3912   3
   1  -8  -2 459.346 48.7207   5
   8   1  -2 505.922 46.9444  12
   1  -8  -2 432.680 50.1842   6
  -1   8  -2 501.537 47.6510   8
   8   1  -2 445.429 47.2052  11
  -8  -1  -2 542.750 47.2578   6
  -1   8  -2 506.666 44.2398   9
  -8  -1  -2 423.817 47.8614  13
   8   1  -2 531.781 51.9075   7
   1  -8  -2 510.570 49.1547   7
  -1   8  -2 491.868 47.2803   2
   1  -8  -2 435.948 53.6344  10
  -8  -1   2 637.644 50.7659   9
   8   1   2 460.263 42.5831  15
   8   1   2 453.606 45.4385   3
   1  -8   2 518.310 49.2092   6
  -1   8   2 437.938 43.3372  12
  -8   0  -2 802.123 58.5708   6
   0  -8  -2 796.690 71.4188   5
   0   8  -2 794.910 67.6168  12
   0  -8  -2 653.858 70.1512  10
  -8   0  -2 758.350 64.9635   9
   8   0  -2 794.878 68.8666  14
   8   0  -2 732.869 69.4288   7
   0  -8  -2 690.046 69.7466   3
   0   8  -2 876.757 75.5621   4
   8   0  -2 763.555 66.1110  15
   0  -8  -2 748.409 67.4709   7
   0   8  -2 723.183 65.8363  11
  -8   0  -2 862.933 64.5264   1
   0   8  -2 807.203 67.8659   2
  -8   0  -2 745.481 66.3685  13
   0   8  -2 824.618 69.4879   8
  -8   0  -2 826.301 62.5795   2
   0   8  -2 667.486 57.0917   9
   8   0  -2 751.279 69.2464   4
  -8   0  -2 798.052 67.8234   8
   8   0  -2 749.723 59.2927  12
   8   0  -2 730.796 69.4475   3
  -8   0  -2 756.222 66.3418   5
   0  -8  -2 739.949 69.8458   6
   0  -8  -2 778.968 66.6421  14
   0   8  -2 682.576 62.6409  13
  -8   0  -2 928.149 67.7700  10
   8   0  -2 816.688 68.9289  11
   8   0   2 767.035 59.2840  15
  -8   0   2 673.297 61.4443   9
   0  -8   2 804.003 65.4179   6
   8  -1  -2 563.137 51.3181   4
   8  -1  -2 533.574 50.6922  14
   1   8  -2 409.882 43.7664  13
   8  -1  -2 541.611 48.3906  11
   8  -1  -2 655.599 55.7120   7
   8  -1  -2 502.818 52.9786   3
  -8   1  -2 623.805 53.6374  10
   1   8  -2 446.469 47.8893   8
  -8   1  -2 604.391 51.8679  13
  -8   1  -2 544.172 51.8940   1
  -8   1  -2 515.646 49.9536   9
   8  -1  -2 565.266 51.4638  15
  -1  -8  -2 482.608 48.7227  14
  -1  -8  -2 515.897 54.5933  10
   1   8  -2 414.008 46.5171  11
  -1  -8  -2 454.554 52.6014   6
  -1  -8  -2 459.848 49.7441   7
   1   8  -2 444.956 48.2730   2
  -8   1  -2 502.070 46.9610   5
  -8   1  -2 559.818 50.1828   8
   1   8  -2 461.387 52.1002  12
   1   8  -2 549.001 53.2852   3
  -1  -8  -2 479.987 51.8233   5
  -8   1  -2 499.625 45.5600   2
   1   8  -2 561.391 56.6730   4
  -1  -8   2 681.838 59.5068   6
   2   8  -2 106.672 30.7221   8
  -8   2  -2 145.459 27.7309   5
  -8   2  -2 119.770 31.5542   8
   2   8  -2 83.0353 32.6611  15
   8  -2  -2 142.997 34.1974  15
   2   8  -2 85.4795 37.9521   4
  -2  -8  -2 66.6095 38.2398  10
  -2  -8  -2 114.829 36.5957   5
   2   8  -2 121.265 31.8727   2
  -8   2  -2 93.1187 31.8855   1
  -2  -8  -2 118.257 32.0457   7
   8  -2  -2 147.773 36.9608   3
  -8   2  -2 154.524 34.2486  13
   8  -2  -2 124.599 38.5803   6
   2   8  -2 49.2251 34.6393   3
   8  -2  -2 101.406 33.5626   4
   2   8  -2 136.511 34.7245  12
   2   8  -2 89.5054 27.2439  13
  -8   2  -2 116.708 31.1476  12
  -2  -8  -2 126.396 37.7703   6
  -8   2  -2 175.532 30.7514  10
  -8   2  -2 76.2856 24.8724   2
   8  -2  -2 125.785 33.5934  14
  -2  -8  -2 106.098 30.8818  14
   8  -2  -2 122.999 33.4671   7
  -8   2  -2 100.902 30.3632   9
  -2  -8  -2 167.668 36.6981   9
   2   8  -2 131.225 32.1891  11
   8  -2  -2 88.3886 30.1888  11
   3   8  -2 84.1987 35.9342   3
  -3  -8  -2 57.6595 28.9370   7
  -3  -8  -2 65.9606 35.0171   5
   3   8  -2 15.2123 27.0787   8
  -8   3  -2 5.25834 32.1359  12
   3   8  -2 78.5920 31.6610  11
   8  -3  -2 32.8664 31.9739  15
  -3  -8  -2 71.6378 33.8770   9
   3   8  -2 47.3951 32.9790  15
   8  -3  -2 24.6176 27.5069   4
   8  -3  -2 91.6267 37.1969   7
  -8   3  -2 54.9475 26.2371  10
   8  -3  -2 4.72926 34.5998   3
   8  -3  -2 45.6723 32.5293  14
   3   8  -2 40.6648 34.6980  12
  -8   3  -2 46.1440 24.1671   5
  -8   3  -2 124.727 33.3558  13
   3   8  -2 47.7233 29.5646   2
  -3  -8  -2 60.5977 29.5479  14
   8  -3  -2 17.7598 28.3833  11
  -8   3  -2 58.7851 31.1372   1
   3   8  -2 65.7925 41.3153   4
  -3  -8  -2 23.0207 34.8287   6
  -8   3  -2 26.6664 29.2287   9
   8  -3  -2 -21.647 36.3314   6
   3   8  -2 12.0825 24.5465  13
  -8   3  -2 57.4602 30.0922   8
  -3  -8  -2 65.5852 39.6271  10
  -8   3  -2 28.1553 24.6643   2
   8  -4  -2 276.953 36.9920   4
   8  -4  -2 317.676 42.5001   7
  -8   4  -2 307.170 43.7654   1
   8  -4  -2 299.295 42.4390  15
   4   8  -2 314.986 38.1182   2
   4   8  -2 286.663 41.0242  11
  -8   4  -2 266.502 34.9762   2
  -4  -8  -2 352.398 45.6196   9
   8  -4  -2 179.141 44.8918   6
  -8   4  -2 261.889 38.6951   8
  -4  -8  -2 381.248 47.4280   5
  -4  -8  -2 272.829 37.1243  14
  -4  -8  -2 271.609 44.7402   6
   8  -4  -2 283.321 42.7883  14
  -8   4  -2 296.364 33.9663   5
   8  -4  -2 327.009 46.0401   3
   4   8  -2 279.504 42.2687  12
   4   8  -2 343.082 44.9650  15
   4   8  -2 292.186 45.8260   3
   8  -4  -2 279.963 36.0525  11
  -8   4  -2 330.095 42.3289  12
   4   8  -2 328.907 36.3587   8
  -4  -8  -2 343.655 38.4907   7
  -8   4  -2 301.961 40.0786   9
  -5  -8  -2 299.817 48.7652   6
  -8   5  -2 276.646 32.3870   5
   8  -5  -2 273.590 42.1659  15
   8  -5  -2 204.179 43.3988   3
  -8   5  -2 226.492 42.4035   1
  -8   5  -2 220.922 38.8876  12
   8  -5  -2 323.823 44.0512  14
   5   8  -2 287.655 43.0953  15
  -8   5  -2 203.632 32.4436   2
   5   8  -2 228.923 44.1197  12
   5   8  -2 255.270 35.9134   2
   5   8  -2 243.673 45.5417   3
  -5  -8  -2 293.139 46.1401   5
  -5  -8  -2 237.758 35.5986  14
   8  -5  -2 309.491 46.3423   6
   5   8  -2 285.720 34.7597   8
  -8   5  -2 280.219 38.5328   9
   5   8  -2 227.806 40.6701  11
  -8   5  -2 232.151 38.1528   8
  -5  -8  -2 276.362 45.4760   9
   8  -5  -2 256.652 34.6567  11
   6   8  -2 193.137 45.4074   8
   8  -6  -2 254.504 32.8630  11
   6   8  -2 229.835 41.2010  15
  -6  -8  -2 197.554 32.6704  14
  -8   6  -2 131.410 34.6192   8
   8  -6  -2 202.803 41.5589  14
   6   8  -2 113.864 39.8467  11
   8  -6  -2 194.594 40.3427  15
   6   8  -2 175.543 43.9112  12
   8  -6  -2 148.066 42.9411   6
   6   8  -2 180.410 42.3744   3
  -8   6  -2 178.731 40.4842   1
  -8   6  -2 171.715 35.9981  12
  -8   6  -2 173.224 32.4387   2
  -6  -8  -2 166.727 45.3774   6
  -6  -8  -2 151.490 43.8140   9
   8  -6  -2 146.463 41.7792   3
  -8   6  -2 275.972 39.3565   9
   6   8  -2 186.265 31.6322   2
  -6  -8  -2 138.341 45.1703   5
  -7  -8  -2 130.079 42.5701   9
  -7  -8  -2 83.6859 43.6619   5
  -8   7  -2 127.866 34.3401  12
   8  -7  -2 129.812 39.5300  15
   8  -7  -2 115.547 43.9138   3
  -8   7  -2 52.1171 33.1335   8
  -7  -8  -2 85.0560 30.5883  13
  -7  -8  -2 129.125 47.7818   6
   8  -7  -2 132.982 40.2665  14
   7   8  -2 38.9339 40.4040  11
  -8   7  -2 85.2113 29.6196   2
   7   8  -2 124.887 39.3424  15
   7   8  -2 31.8233 41.1726  12
   7   8  -2 109.940 41.4737   3
   8  -7  -2 142.918 42.0697   6
  -8   7  -2 100.436 33.9956   9
  -8   8  -2 155.136 34.7941  12
   8  -8  -2 53.9640 43.6895   6
   8   8  -2 64.0917 43.8851   3
  -8   8  -2 89.5418 34.3359   2
   8   8  -2 125.888 40.7944  15
   8  -8  -2 73.3154 40.8373  14
  -8  -8  -2 69.4276 45.3113   6
   8  -8  -2 127.184 42.7816  15
  -8  -8  -2 125.807 46.5860   5
  -8   8  -2 110.831 35.2614   9
  -8  -8  -2 137.895 44.9412   9
   8   8  -2 94.9705 42.2161  12
   8  -8  -2 57.4137 44.5224   3
  -8   9  -2 162.343 36.9272  12
   9   8  -2 209.572 47.0464  12
  -9  -8  -2 92.5892 49.9917   5
   8  -9  -2 122.159 44.3757   6
   9   8  -2 172.594 43.9149  15
  -9  -8  -2 201.379 49.1332   9
   9   8  -2 164.381 47.3787   3
  -8   9  -2 147.970 37.5948   9
   8  -9  -2 66.7988 47.6431   3
  -9  -8  -2 78.8005 48.6911   6
   8  -9  -2 82.2493 42.8563  14
   8  -9  -2 188.588 46.0418  15
   7  -9  -2 219.106 45.6240  15
  -7   9  -2 247.121 40.1649   9
  -7   9  -2 274.592 42.8813  12
   9   7  -2 202.716 45.6127  12
   9   7  -2 238.779 45.0722  15
   7  -9  -2 166.553 44.1544  14
  -9  -7  -2 136.827 48.7422   5
   7  -9  -2 195.329 45.8326   6
  -9  -7  -2 305.785 49.8427   6
   7  -9  -2 181.244 49.4903   3
   9   7  -2 261.698 47.4831   3
  -9  -7  -2 204.308 48.2679   9
   6  -9  -2 102.927 34.4211   5
   6  -9  -2 37.2546 35.0989  10
   9   6  -2 89.8975 34.3132   7
   6  -9  -2 81.2600 40.3437  15
  -9  -6  -2 37.8107 30.3828  13
  -9  -6  -2 55.1880 36.8160   8
   9   6  -2 51.9183 41.8184  12
   9   6  -2 173.536 42.4567   3
  -9  -6  -2 116.059 41.0159   9
   6  -9  -2 134.576 42.1386   6
  -6   9  -2 103.606 33.6118   9
   9   6  -2 34.0729 41.2264  11
  -6   9  -2 203.944 38.5706  12
   9   6  -2 60.7749 37.4482  15
  -6   9  -2 199.523 37.4860   4
  -9  -6  -2 183.321 42.0872   6
  -6   9  -2 146.422 38.9846   8
   6  -9  -2 39.7739 41.8618   3
   6  -9  -2 3.63370 38.0696  14
  -9  -6  -2 118.102 43.1749   5
   5  -9  -2 287.931 39.4225   5
  -5   9  -2 295.312 40.2479  12
  -5   9  -2 256.922 29.8259  11
  -9  -5  -2 240.504 37.3443   8
  -9  -5  -2 221.011 45.0795   5
   9   5  -2 355.724 46.0964  12
  -9  -5  -2 239.248 38.2215  13
   9   5  -2 259.490 44.6911  11
   5  -9  -2 265.445 46.2134   6
   5  -9  -2 261.643 44.9119   3
  -9  -5  -2 213.316 42.9703   9
   5  -9  -2 230.003 42.1568  10
   9   5  -2 207.799 42.6060  15
   9   5  -2 277.978 46.8829   3
   5  -9  -2 309.665 45.4896  14
  -5   9  -2 213.207 41.6153   8
  -5   9  -2 314.317 39.3981   9
  -5   9  -2 353.676 42.6390   4
   9   5  -2 314.011 39.6081   7
   5  -9  -2 329.147 44.4597  15
  -5   9  -2 228.066 38.7404   2
   9   5  -2 213.037 34.9444  14
  -9  -5  -2 265.028 45.1996   6
  -9  -4  -2 729.225 66.4523   8
  -9  -4  -2 660.754 62.8361  13
  -9  -4  -2 622.967 62.7859   9
  -9  -4  -2 683.247 65.8770   6
  -4   9  -2 730.226 70.3046   8
  -4   9  -2 703.240 65.7925   2
  -9  -4  -2 758.971 74.7908   5
   9   4  -2 673.782 62.8979  15
   9   4  -2 646.200 61.3305  14
  -4   9  -2 653.146 61.0348   9
   4  -9  -2 582.055 59.9673  10
   9   4  -2 610.484 60.9373  11
  -9  -4  -2 640.938 60.8463   2
   4  -9  -2 734.461 64.3603  14
  -4   9  -2 819.422 67.0435   4
   4  -9  -2 693.749 65.1586   3
   9   4  -2 672.578 61.1896  12
   9   4  -2 575.950 63.7597   3
  -4   9  -2 653.924 57.9466  11
   4  -9  -2 718.954 65.1062   6
   9   4  -2 679.636 63.8531   7
   4  -9  -2 773.564 65.1373   5
   4  -9  -2 670.648 63.7188  15
  -4   9  -2 706.303 64.9878  12
  -9  -3  -2 336.251 40.2464   6
  -3   9  -2 300.806 35.7863   9
  -9  -3  -2 299.599 43.0292   5
  -3   9  -2 243.807 39.8071  12
  -3   9  -2 293.437 42.9157   4
  -9  -3  -2 290.346 38.2083   8
   3  -9  -2 243.383 44.1721   6
   3  -9  -2 242.586 41.9536  14
   3  -9  -2 276.923 38.5329  15
   9   3  -2 215.512 36.6422  14
  -9  -3  -2 251.637 32.9829   2
   9   3  -2 249.525 41.5227  15
  -3   9  -2 258.589 32.0848  11
   3  -9  -2 266.418 44.2069  10
   9   3  -2 323.396 44.0562   3
   3  -9  -2 224.700 39.1268   5
  -3   9  -2 200.999 38.6587   2
   9   3  -2 329.887 38.8897  12
   9   3  -2 271.949 42.4406  11
  -9  -3  -2 271.947 41.9403   9
   3  -9  -2 237.881 36.8751   3
  -3   9  -2 219.920 40.7713   8
  -9  -3  -2 265.532 39.8568  13
   9   3  -2 279.163 40.8516   7
   2  -9  -2 54.6232 37.3546   6
  -9  -2  -2 33.6959 31.6665   5
   9   2  -2 51.9440 28.0569  12
   2  -9  -2 50.6462 27.5469  15
  -2   9  -2 12.0652 24.6790   9
   2  -9  -2 65.0425 32.0967   5
   9   2  -2 65.9047 28.6682  14
   2  -9  -2 7.32395 31.7429  14
   2  -9  -2 -15.136 37.5008  10
   9   2  -2 33.9542 35.4319   3
  -9  -2  -2 44.7896 28.5877   6
  -2   9  -2 16.4627 32.7864  12
  -2   9  -2 32.4555 30.4205   2
   9   2  -2 -13.756 33.1489  11
   2  -9  -2 47.8425 28.0366   3
  -2   9  -2 101.110 37.7686   4
   9   2  -2 14.5605 32.7794  15
  -2   9  -2 22.8126 23.9028  11
  -9  -2  -2 57.3961 25.6537   2
  -9  -2  -2 18.6053 28.2500   8
  -9  -2  -2 19.0579 32.3346  13
  -2   9  -2 22.0335 30.9567   8
   9   2  -2 20.9321 35.9958   7
  -9  -2  -2 54.7976 32.6235   9
  -9  -1  -2 367.800 42.8838   8
  -1   9  -2 310.793 37.3374  11
   1  -9  -2 367.705 45.1414   7
   1  -9  -2 324.599 47.8394   6
   9   1  -2 329.001 46.0935   7
   9   1  -2 300.974 45.3594   3
  -9  -1  -2 492.361 40.6112   6
   1  -9  -2 386.927 44.4754   5
  -9  -1  -2 383.923 44.5294  13
   9   1  -2 394.198 43.7205  11
  -1   9  -2 333.189 36.8526   9
  -9  -1  -2 304.511 39.5919   1
   9   1  -2 442.355 43.5138  14
  -1   9  -2 343.386 42.9047   8
  -9  -1  -2 329.199 37.5481   2
   9   1  -2 383.481 44.5425  15
  -1   9  -2 428.068 47.1536  12
   1  -9  -2 448.214 44.6025  14
  -9  -1  -2 394.297 44.3681   9
   9   1  -2 365.286 37.7899  12
  -1   9  -2 311.928 43.8744   2
   1  -9  -2 306.796 36.3534  15
   1  -9  -2 396.040 50.8683  10
  -9  -1  -2 374.550 44.6693   5
  -1   9  -2 415.659 49.0096   4
   9   1   2 379.404 37.9095   3
  -9   0  -2 91.6743 31.4019   8
   0  -9  -2 87.4992 39.7375  10
   0  -9  -2 122.329 38.3488   6
   0   9  -2 97.4710 35.9593  12
   0  -9  -2 134.641 33.8642   7
  -9   0  -2 154.050 33.9630   9
   0   9  -2 134.041 32.5716   8
   9   0  -2 188.865 37.9803   3
   0   9  -2 178.028 41.0058   4
   9   0  -2 162.138 33.0252  14
  -9   0  -2 117.478 31.1131   1
   9   0  -2 152.707 38.4397   7
   9   0  -2 119.627 33.7728  11
   0   9  -2 124.664 34.7327   2
   9   0  -2 126.126 34.8373  15
  -9   0  -2 165.013 33.1627   5
  -9   0  -2 111.867 26.8889   2
   0  -9  -2 108.232 33.1499  14
  -9   0  -2 94.3006 33.2596  13
   0  -9  -2 154.357 37.5936   5
   0   9  -2 190.741 39.8932   9
   9   0  -2 85.6561 26.4661  12
  -9   0  -2 114.914 35.2196  10
   0   9  -2 172.823 30.7910  11
   0   9   2 117.324 27.9553  12
   9   0   2 158.305 26.0130  15
  -9   0   2 180.940 33.8312   9
   0  -9   2 166.048 33.5848   6
   9   0   2 151.821 29.7315   3
   1   9  -2 407.404 42.7426   8
   9  -1  -2 355.672 47.8326   3
   9  -1  -2 352.315 46.3563   4
  -9   1  -2 375.239 45.4361   9
   9  -1  -2 301.279 44.9876  15
   9  -1  -2 415.071 43.1279  11
   1   9  -2 348.135 45.6924  12
  -1  -9  -2 327.155 46.2971   5
  -9   1  -2 456.162 45.2155   8
   9  -1  -2 350.208 44.5656  14
   9  -1  -2 405.762 48.3150   7
  -1  -9  -2 357.715 49.4363   6
  -9   1  -2 407.092 43.3684   1
  -9   1  -2 365.269 40.9093   5
  -1  -9  -2 375.035 42.1697   7
  -1  -9  -2 305.870 41.5702  14
  -9   1  -2 407.040 45.2981  13
   1   9  -2 402.133 42.3013  11
   1   9  -2 361.960 43.5968   2
  -9   1  -2 342.520 38.1849   2
  -1  -9  -2 332.294 50.6555  10
   1   9  -2 377.100 52.1080   4
  -9   1  -2 447.097 44.6893  10
   1   9   2 335.845 39.2867  12
  -9   1   2 386.364 43.8912   9
  -1  -9   2 409.410 44.8416   6
   9  -1   2 425.372 42.1091   3
   9  -1   2 458.533 39.4024  15
  -2  -9  -2 25.3650 29.5284   7
   2   9  -2 62.7834 37.7647   3
  -2  -9  -2 40.5950 39.2035  10
   9  -2  -2 60.4611 36.5215   3
   2   9  -2 50.2109 29.1890   8
  -9   2  -2 28.3378 28.5032  10
   2   9  -2 34.2760 30.6722  11
   9  -2  -2 43.2333 31.7247   4
  -2  -9  -2 28.7063 30.0866  14
   9  -2  -2 42.4101 31.5946  14
  -2  -9  -2 43.9139 36.2409   5
  -2  -9  -2 -20.133 36.7460   6
  -9   2  -2 20.7004 29.0370   8
  -9   2  -2 -20.957 28.4805   9
   2   9  -2 20.9221 24.4468  13
  -9   2  -2 33.1109 26.2822   5
   2   9  -2 -41.552 33.8040  12
   9  -2  -2 29.9453 33.5263  15
   2   9  -2 43.1923 32.0814   2
  -9   2  -2 7.80932 29.4967   1
   9  -2  -2 103.008 38.9608   7
   9  -2  -2 27.8232 30.1203  11
  -9   2  -2 44.3916 24.3592   2
   9  -2   2 70.2490 26.8663  15
  -9   2   2 27.1400 33.9276   9
  -2  -9   2 53.2906 36.0648   6
  -3  -9  -2 264.939 37.4074   7
  -3  -9  -2 225.730 42.8688   9
  -9   3  -2 235.489 39.1569   8
   3   9  -2 313.299 37.6063   8
   3   9  -2 320.193 39.6347   2
   3   9  -2 193.195 40.9445  15
  -9   3  -2 270.086 42.7875  12
   9  -3  -2 382.192 46.8108   3
   3   9  -2 275.390 44.6228   3
  -9   3  -2 266.035 33.8027   5
   9  -3  -2 260.814 36.1518  11
   9  -3  -2 290.126 43.1199  14
   9  -3  -2 223.221 45.2256   6
   3   9  -2 200.573 42.3952  12
  -3  -9  -2 289.201 46.7788   6
  -3  -9  -2 267.240 37.4155  14
   3   9  -2 259.362 39.8490  11
  -9   3  -2 303.693 39.5275   1
  -3  -9  -2 278.147 46.0878   5
  -9   3  -2 306.192 41.2313   9
  -9   3  -2 268.213 34.7093   2
   9  -3  -2 195.651 37.5670   4
   9  -3  -2 306.214 42.7693  15
  -9   3   2 334.813 43.1375   9
  -3  -9   2 342.345 46.9886   6
   9  -3   2 349.573 38.0567  15
  -9   4  -2 641.433 60.2467   5
  -9   4  -2 640.255 64.8418   9
   4   9  -2 684.317 66.3730  12
   9  -4  -2 773.923 70.2616   6
   4   9  -2 743.363 65.5065   2
   9  -4  -2 718.082 71.0379   3
  -4  -9  -2 619.037 65.9680   5
  -4  -9  -2 610.088 63.9705  14
   9  -4  -2 740.995 65.8508  14
  -4  -9  -2 752.648 69.5501   6
   9  -4  -2 770.789 67.8342  15
  -4  -9  -2 648.590 64.9919   9
  -9   4  -2 689.895 67.9327   8
  -9   4  -2 754.628 66.1537   1
   4   9  -2 782.976 72.9430   3
   4   9  -2 713.291 64.0699  15
  -9   4  -2 782.094 68.6368  12
  -9   4  -2 629.747 61.5254   2
   4   9  -2 712.922 63.6078   8
   9  -4  -2 764.764 63.6594  11
   4   9  -2 662.533 62.2528  11
  -4  -9   2 710.484 67.8438   6
   5   9  -2 163.938 42.3938  11
  -9   5  -2 305.780 40.5994   8
  -9   5  -2 331.336 42.7815   1
  -5  -9  -2 142.642 43.9673   9
   9  -5  -2 259.582 43.9533  15
   9  -5  -2 206.830 43.5413  14
   9  -5  -2 259.982 35.9122  11
  -5  -9  -2 283.163 48.7676   5
   5   9  -2 303.695 37.8963   2
  -5  -9  -2 239.813 36.2778  14
  -9   5  -2 305.382 42.6421  12
  -5  -9  -2 327.919 51.4241   6
  -9   5  -2 220.627 38.3071   9
   5   9  -2 228.185 45.8825   3
   5   9  -2 318.307 46.1314  15
   9  -5  -2 171.976 44.5174   3
   5   9  -2 202.574 45.0579  12
   9  -5  -2 326.113 47.2088   6
  -9   5  -2 308.591 36.4801   2
  -6  -9  -2 90.8138 44.9177   5
   9  -6  -2 106.529 42.8265   6
  -9   6  -2 106.179 35.6031   9
   6   9  -2 124.564 39.3597  15
  -9   6  -2 83.0538 30.4311   2
   6   9  -2 93.7694 30.6115   2
  -6  -9  -2 151.672 44.1597   9
   6   9  -2 106.662 42.2682  12
   9  -6  -2 160.945 42.5293   3
   9  -6  -2 140.447 41.4408  14
  -9   6  -2 80.9365 32.2933   8
   6   9  -2 119.881 44.4939   3
  -9   6  -2 98.6335 35.1780  12
  -6  -9  -2 199.884 46.4856   6
   6   9  -2 94.5275 40.6516  11
   9  -6  -2 18.2636 37.5630  15
  -7  -9  -2 131.446 48.1208   5
   9  -7  -2 181.462 46.2016   6
   9  -7  -2 167.503 44.6849  14
   9  -7  -2 182.523 49.1241   3
  -9   7  -2 217.623 40.9237   9
  -9   7  -2 364.942 42.7569  12
   7   9  -2 216.782 46.2528  12
  -7  -9  -2 255.906 48.9712   9
   9  -7  -2 283.090 45.8587  15
  -9   7  -2 211.507 35.7107   2
   7   9  -2 214.557 46.2732   3
   7   9  -2 181.462 44.6243  15
  -7  -9  -2 362.571 54.2523   6
   8   9  -2 150.663 45.4945  12
  -9   8  -2 146.468 37.3573   9
  -9   8  -2 145.480 36.2522  12
   9  -8  -2 156.897 44.9499  15
  -8  -9  -2 167.901 49.5800   6
   8   9  -2 44.0812 42.8200   3
   9  -8  -2 143.529 44.7196  14
  -8  -9  -2 58.8372 48.7856   5
   8   9  -2 158.649 43.7352  15
  -8  -9  -2 104.315 47.9166   9
   9  -8  -2 103.975 43.4225   6
   9  -8  -2 179.042 49.4089   3
  -9   8  -2 127.384 36.4264   2
  -9   9  -2 443.693 48.4087  12
   9  -9  -2 407.866 55.5774  15
   9  -9  -2 384.265 58.8550   3
  -9  -9  -2 332.142 58.0091   9
  -9   9  -2 418.679 50.5024   9
   9   9  -2 318.440 54.5385  12
   9  -9  -2 305.561 51.9429   6
  -9  -9  -2 357.914 57.7166   6
   9   9  -2 340.469 53.0622  15
   9   9  -2 391.825 57.0237   3
   9 -10  -2 796.528 75.4830   6
  10   9  -2 669.905 76.4106  12
 -10  -9  -2 680.134 76.7644   9
  10   9  -2 733.987 75.9378   3
   9 -10  -2 732.798 79.4676   3
  10   9  -2 696.129 71.8292  15
 -10  -9  -2 818.789 79.9165   6
  -9  10  -2 738.591 69.7740  12
  -9  10  -2 814.710 72.2386   9
   9 -10  -2 898.852 78.5985  15
  10   8  -2 302.256 59.1690  12
  10   8  -2 363.681 52.4338  15
   8 -10  -2 255.558 59.1712   3
  -8  10  -2 367.406 49.0909   9
   8 -10  -2 360.089 55.9922  15
   8 -10  -2 368.946 55.7553   6
 -10  -8  -2 445.451 61.1211   6
 -10  -8  -2 417.568 57.1496   9
  -8  10  -2 403.809 50.3999  12
  10   8  -2 426.253 57.1011   3
  10   7  -2 979.326 93.7922  12
   7 -10  -2 1061.65 88.7929  15
  -7  10  -2 990.769 84.8639   9
   7 -10  -2 976.134 87.6161   6
 -10  -7  -2 1015.53 92.3661   9
 -10  -7  -2 1041.69 89.8986   6
  10   7  -2 948.954 86.6681  15
 -10  -7  -2 895.042 88.7853   5
   7 -10  -2 968.167 91.7724   3
  10   7  -2 923.025 89.1417   3
  -7  10  -2 1088.07 86.7395  12
   7 -10  -2 1004.95 92.8956  14
  -6  10  -2 210.230 38.7193   9
  -6  10  -2 209.752 38.1841  12
  -6  10  -2 128.323 40.0135   8
  10   6  -2 83.7860 44.5668  11
   6 -10  -2 209.714 45.2675  15
 -10  -6  -2 220.212 48.2180   5
  10   6  -2 170.620 47.3341  12
 -10  -6  -2 102.547 42.3641   9
 -10  -6  -2 229.323 47.6345   6
  10   6  -2 119.127 41.8585  15
   6 -10  -2 70.9381 42.5931   6
   6 -10  -2 240.348 47.4964   3
  10   6  -2 118.380 44.5322   3
   6 -10  -2 192.527 52.1489  10
   6 -10  -2 136.689 43.6284  14
   5 -10  -2 103.975 37.6378  10
  10   5  -2 115.632 41.9985  12
   5 -10  -2 53.4958 38.0471  14
 -10  -5  -2 20.8503 39.4733   5
   5 -10  -2 -24.148 38.4091   6
 -10  -5  -2 73.7846 40.9652   6
 -10  -5  -2 20.0631 39.4464   9
  -5  10  -2 80.8526 32.7271   9
 -10  -5  -2 60.7229 32.0404  13
  10   5  -2 5.21411 36.7787  15
   5 -10  -2 -1.5373 41.6310   3
 -10  -5  -2 71.0052 33.9554   8
  10   5  -2 14.5586 39.9681  11
   5 -10  -2 6.63132 31.7755   5
  -5  10  -2 40.7878 36.7700   8
  -5  10  -2 37.2570 33.9302   4
  -5  10  -2 40.5618 34.0393  12
   5 -10  -2 92.4827 38.0567  15
  10   5  -2 72.8144 40.6402   3
  10   5  -2 2.70616 34.7332   7
  10   4  -2 153.286 40.7713  11
  -4  10  -2 122.549 33.0386   9
 -10  -4  -2 245.892 42.7213   5
  -4  10  -2 113.379 25.5057  11
 -10  -4  -2 111.882 39.2870   9
   4 -10  -2 132.230 38.2877  15
   4 -10  -2 176.946 41.0006  14
 -10  -4  -2 144.581 33.8794  13
   4 -10  -2 149.605 43.4524   6
  10   4  -2 146.164 32.1572  14
  -4  10  -2 158.578 38.9264   8
  -4  10  -2 142.823 39.0999  12
  10   4  -2 121.403 40.3502  12
   4 -10  -2 157.488 41.4202   3
 -10  -4  -2 221.660 35.2207   8
  10   4  -2 170.256 43.4148   3
  -4  10  -2 204.081 38.9211   4
  10   4  -2 154.442 37.9717   7
   4 -10  -2 158.101 34.0119   5
  10   4  -2 204.189 41.4357  15
 -10  -4  -2 236.886 43.2253   6
   4 -10  -2 201.738 41.6350  10
   3 -10  -2 -22.646 37.2487  10
 -10  -3  -2 -3.6374 34.3163   6
 -10  -3  -2 -5.4319 34.5919   5
   3 -10  -2 -8.2141 31.5325  15
  -3  10  -2 -5.0944 22.0683  11
  10   3  -2 19.1597 35.3240  15
 -10  -3  -2 1.73942 33.3641   9
  -3  10  -2 -23.684 31.7752   2
  10   3  -2 81.7525 38.3835   3
  10   3  -2 76.7187 37.9694  11
  -3  10  -2 -18.192 27.7195   9
  10   3  -2 7.28907 33.4388  12
   3 -10  -2 31.1490 32.6708   5
   3 -10  -2 13.1805 34.5816  14
   3 -10  -2 -54.890 36.3898   6
  10   3  -2 68.4144 30.2989  14
  10   3  -2 23.4012 33.7017   7
 -10  -3  -2 85.0935 33.3566  13
  -3  10  -2 -20.722 32.7704  12
  -3  10  -2 4.93221 32.6567   4
 -10  -3  -2 39.2579 25.1618   2
   3 -10  -2 49.2069 33.5145   3
  -3  10  -2 17.4983 34.1173   8
 -10  -3  -2 37.3269 31.2346   8
 -10  -2  -2 89.8400 32.2841   8
 -10  -2  -2 41.6207 29.0051   1
 -10  -2  -2 105.863 35.0187   5
  -2  10  -2 88.8943 36.9614  12
  10   2  -2 94.2318 33.3608  12
 -10  -2  -2 68.0305 27.0967   2
   2 -10  -2 67.4021 35.4442  14
 -10  -2  -2 153.924 33.3927   6
  -2  10  -2 80.3411 37.0470   4
  10   2  -2 108.286 37.6209  11
  10   2  -2 121.958 36.2700   7
 -10  -2  -2 132.204 36.1315   9
 -10  -2  -2 107.432 34.4315  13
  10   2  -2 108.355 37.1908  15
  10   2  -2 121.258 31.5162  14
   2 -10  -2 93.0206 32.1356  15
   2 -10  -2 73.0282 40.4707  10
  10   2  -2 121.449 39.0601   3
  -2  10  -2 54.6010 26.7465  11
  -2  10  -2 38.2849 27.3154   9
  -2  10  -2 26.6988 33.0135   8
   2 -10  -2 64.9697 39.4936   6
  -2  10  -2 55.2128 33.7647   2
   2 -10  -2 85.3813 34.2644   5
  -1  10  -2 668.025 66.3678   8
  10   1  -2 582.086 60.9623   3
 -10  -1  -2 597.427 56.2221  13
 -10  -1  -2 646.117 59.6342   9
 -10  -1  -2 697.063 63.8368   8
 -10  -1  -2 595.896 56.7237   5
  10   1  -2 694.180 63.8221  15
  -1  10  -2 542.092 53.6975   9
  10   1  -2 726.491 61.9062  14
  -1  10  -2 626.642 57.9401   2
  -1  10  -2 605.578 52.9303  11
 -10  -1  -2 522.365 55.7877   1
   1 -10  -2 574.832 56.6420  14
   1 -10  -2 687.827 64.6260   6
  10   1  -2 585.227 58.5484   7
 -10  -1  -2 640.051 57.6309   2
  -1  10  -2 653.954 63.7096   4
  10   1  -2 638.360 57.2168  11
   1 -10  -2 570.884 60.7875  10
  -1  10  -2 677.767 60.4693  12
   1 -10  -2 566.209 58.0879   5
  10   1   2 645.507 57.7777   3
 -10   0  -2 628.765 54.2625   5
  10   0  -2 568.348 56.3335  15
 -10   0  -2 540.565 47.9851   2
  10   0  -2 601.693 53.4470  11
   0 -10  -2 548.636 56.0237   5
  10   0  -2 580.077 58.9463   3
 -10   0  -2 478.546 50.6418   1
 -10   0  -2 579.845 53.8177   8
   0 -10  -2 542.033 60.8493  10
   0 -10  -2 523.553 58.5838   6
   0  10  -2 578.148 52.7587   8
 -10   0  -2 513.509 53.0359  13
 -10   0  -2 543.763 54.8237   9
   0  10  -2 561.865 50.3766  11
   0  10  -2 499.021 53.6601  12
   0  10  -2 511.782 53.6910   2
   0 -10  -2 467.797 51.9487  14
  10   0  -2 523.344 53.2256  14
  10   0  -2 531.787 55.8593   7
  10   0   2 615.832 55.3023   3
  10   0   2 607.758 50.2584  15
   0 -10   2 680.455 61.6479   6
   1  10  -2 727.581 65.5468   8
  -1 -10  -2 624.031 57.2698  14
   1  10  -2 616.069 58.4278   2
   1  10  -2 673.694 57.5597  11
 -10   1  -2 610.943 60.1646   1
 -10   1  -2 634.578 62.7884   9
  10  -1  -2 667.769 61.5699   7
  10  -1  -2 757.952 65.9756  11
 -10   1  -2 618.637 62.6438   5
   1  10  -2 645.368 62.2323  12
  -1 -10  -2 653.234 65.4179  10
 -10   1  -2 626.265 58.6770   8
 -10   1  -2 624.028 58.1665   2
  10  -1  -2 617.913 61.4913  15
  10  -1  -2 743.862 67.1917  14
  10  -1  -2 603.509 61.5309   3
  -1 -10  -2 627.867 62.2280   5
  -1 -10  -2 618.936 64.0965   6
  10  -1   2 632.509 57.3876  15
  -1 -10   2 673.421 64.5150   6
   1  10   2 574.160 58.9058  12
  10  -1   2 753.992 58.6430   3
 -10   1   2 674.395 59.4222   9
  10  -2  -2 35.4286 33.8437  14
  -2 -10  -2 91.8243 32.9530  14
 -10   2  -2 39.7141 25.7380   2
 -10   2  -2 66.6305 32.6069   8
 -10   2  -2 54.3564 31.6649   9
  -2 -10  -2 68.3719 38.4303   5
  -2 -10  -2 101.155 42.4649   6
   2  10  -2 124.216 32.5395   8
  10  -2  -2 110.037 32.2112  11
 -10   2  -2 85.6944 30.9558   1
   2  10  -2 69.0479 36.7647  12
   2  10  -2 73.5829 33.1640  11
  10  -2  -2 75.5043 35.4492  15
  -2 -10  -2 53.1431 32.8258   7
 -10   2  -2 78.4585 28.3359   5
  10  -2  -2 116.399 39.2819   3
   2  10  -2 76.4682 35.1113   2
  10  -2   2 120.779 33.3775   3
  10  -2   2 159.305 29.6074  15
  -2 -10   2 123.997 39.6829   6
 -10   2   2 138.473 38.3338   9
   2  10   2 99.9848 33.0354  12
 -10   3  -2 7.69342 32.4460   9
  -3 -10  -2 41.9792 30.4462  14
   3  10  -2 3.97368 32.5815  11
  10  -3  -2 27.2966 38.0432   3
  10  -3  -2 36.9132 35.5742  15
  10  -3  -2 12.4599 29.6317  11
 -10   3  -2 47.4008 25.9527   5
  -3 -10  -2 47.2468 39.3815   6
  10  -3  -2 27.1141 36.0966  14
   3  10  -2 21.8067 38.1907  12
 -10   3  -2 37.9948 25.9448   2
   3  10  -2 52.4632 33.6418   2
  -3 -10  -2 34.2389 39.1171   9
 -10   3  -2 20.5254 30.1735   8
   3  10  -2 50.0804 29.4448   8
 -10   3  -2 42.3842 33.6521   1
   3  10  -2 33.3318 39.6345   3
  -3 -10  -2 22.6333 40.0320   5
 -10   3   2 28.6821 39.0399   9
   3  10   2 37.5861 33.2953  12
  10  -3   2 90.6034 33.7421   3
  -3 -10   2 -37.393 40.2222   6
  10  -3   2 -4.2331 27.4181  15
  10  -4  -2 235.004 46.5688   6
 -10   4  -2 214.517 32.3203   2
 -10   4  -2 172.175 39.2511  12
   4  10  -2 211.042 37.0309   2
  10  -4  -2 173.261 44.0909   3
 -10   4  -2 209.901 38.9303   8
   4  10  -2 188.132 41.2517  15
   4  10  -2 187.159 44.8443   3
  10  -4  -2 235.322 36.2814  11
  10  -4  -2 149.570 40.6431  15
   4  10  -2 182.401 43.7710  12
 -10   4  -2 208.852 39.1223   9
 -10   4  -2 224.029 39.4917   1
  -4 -10  -2 211.631 46.1966   5
  -4 -10  -2 195.205 42.8182  14
  -4 -10  -2 176.925 45.9085   9
  -4 -10  -2 199.533 45.6590   6
  10  -4  -2 167.936 41.4092  14
   4  10  -2 168.938 40.5863  11
   4  10   2 195.126 39.4748  12
  10  -4   2 219.403 35.3368  15
  -4 -10   2 149.503 45.4737   6
 -10   4   2 180.874 46.2736   9
  10  -4   2 232.009 40.5920   3
   5  10  -2 31.6620 41.3684  12
   5  10  -2 39.4142 38.3602  11
 -10   5  -2 21.0457 31.2368   9
  -5 -10  -2 71.1761 43.2653   5
  10  -5  -2 70.2442 39.0607  15
  -5 -10  -2 98.7480 44.6474   6
  10  -5  -2 -25.374 41.5997   6
 -10   5  -2 20.2847 32.1840   8
   5  10  -2 38.5031 40.7294   3
   5  10  -2 88.9001 32.7231   2
 -10   5  -2 73.7241 35.8850  12
  10  -5  -2 94.3476 42.3026   3
  10  -5  -2 17.9621 38.3664  14
 -10   5  -2 16.6722 33.8415   1
  -5 -10  -2 30.5561 40.9208   9
 -10   5  -2 20.7810 26.1309   2
   5  10  -2 -31.787 36.9931  15
   5  10   2 68.5669 35.9523  12
 -10   5   2 89.0534 44.7907   9
  -5 -10   2 52.7497 46.7586   6
  10  -5   2 93.2431 31.3379  15
  10  -6  -2 134.319 42.7988  14
  10  -6  -2 201.828 49.2862   6
  10  -6  -2 167.570 42.3187  15
  10  -6  -2 178.952 46.3216   3
 -10   6  -2 238.882 42.1575  12
   6  10  -2 183.414 46.9167  12
  -6 -10  -2 132.714 46.6591   9
 -10   6  -2 130.434 37.9195   9
  -6 -10  -2 155.399 48.7117   6
   6  10  -2 193.454 46.4393   3
 -10   6  -2 188.389 33.4970   2
 -10   6  -2 116.215 38.1883   8
  -6 -10  -2 111.227 48.1459   5
   6  10  -2 234.620 45.9957  15
  10  -6   2 163.590 37.2560  15
 -10   6   2 143.358 48.2287   9
  -6 -10   2 185.657 49.8352   6
  -7 -10  -2 1033.56 95.3811   6
  -7 -10  -2 1057.96 92.7329   9
   7  10  -2 942.308 92.3858   3
  -7 -10  -2 806.924 87.7981   5
  10  -7  -2 931.463 92.7072  14
 -10   7  -2 951.055 82.0613   9
  10  -7  -2 943.688 90.8780   3
  10  -7  -2 947.318 89.2310  15
 -10   7  -2 1080.04 83.0049  12
 -10   7  -2 901.534 81.3819   2
  10  -7  -2 1090.87 92.7387   6
   7  10  -2 1186.50 91.8863  12
   7  10  -2 905.483 86.8815  15
  -7 -10   2 1032.82 99.9026   6
  10  -7   2 1033.15 84.9779  15
 -10   7   2 1267.34 93.7563   9
   8  10  -2 304.319 56.3711   3
  -8 -10  -2 385.341 61.2908   6
 -10   8  -2 335.994 43.8773   2
 -10   8  -2 347.201 47.4651  12
  10  -8  -2 328.361 54.0693   6
  10  -8  -2 401.669 55.2837  15
   8  10  -2 321.392 53.1019  15
 -10   8  -2 401.781 49.3883   9
  -8 -10  -2 352.358 57.8882   9
  10  -8  -2 227.346 57.2794   3
   8  10  -2 431.705 56.2090  12
  10  -8   2 467.426 52.1118  15
  -8 -10   2 481.323 66.4897   6
   9  10  -2 654.728 71.2769  15
  10  -9  -2 720.914 74.1627   6
   9  10  -2 664.723 75.0760  12
  10  -9  -2 813.010 75.2929  15
  -9 -10  -2 635.886 75.4113   9
  10  -9  -2 747.456 77.4665   3
 -10   9  -2 876.789 73.1118   9
  -9 -10  -2 814.708 80.7807   6
 -10   9  -2 761.455 70.9130  12
   9  10  -2 723.646 74.0739   3
  10  -9   2 770.433 70.9102  15
  -9 -10   2 615.334 78.5641   6
 -10 -10  -2 513.634 70.1123   6
  10 -10  -2 415.424 59.7773   6
  10 -10  -2 557.124 69.5100   3
  10  10  -2 453.397 63.4042   3
  10 -10  -2 446.501 63.9774  15
  10  10  -2 587.136 62.9074  15
 -10  10  -2 527.061 59.1628   9
  10  10  -2 522.848 68.6325  12
 -10 -10  -2 520.611 68.1852   9
 -10  10  -2 470.147 56.6549  12
 -10 -10   2 386.325 69.1908   6
  10 -10   2 553.178 60.2963  15
 -10  11  -2 79.5941 38.6438  12
  10 -11  -2 9.94242 46.1982   6
 -10  11  -2 50.1084 40.3372   9
 -11 -10  -2 0.00916 54.3847   6
  10 -11  -2 76.3930 51.8063  15
  11  10  -2 41.7775 54.4143  12
 -11 -10  -2 61.5680 55.2948   9
  10 -11  -2 31.6320 56.7945   3
  11  10  -2 -10.335 46.2562  15
  11  10  -2 -11.535 49.7797   3
  10 -11   2 15.9686 41.7745  15
 -11 -10   2 -43.013 56.2580   6
  -9  11  -2 2.73592 37.3282   9
 -11  -9  -2 134.905 53.0454   9
   9 -11  -2 13.1042 46.4662  15
 -11  -9  -2 49.4027 50.1338   6
  11   9  -2 8.02930 47.6058   3
  -9  11  -2 66.9213 38.1845  12
   9 -11  -2 -11.607 55.2761   3
  11   9  -2 18.8235 44.2077  15
  11   9  -2 73.5656 51.4601  12
   9 -11  -2 -8.9026 42.9736   6
  11   8  -2 398.704 60.7565  12
  -8  11  -2 443.836 52.0559   9
  11   8  -2 244.198 55.1638   3
   8 -11  -2 403.533 57.6512  15
  11   8  -2 313.592 53.1108  15
   8 -11  -2 295.507 61.0061   3
   8 -11  -2 344.780 56.0495   6
  -8  11  -2 339.902 50.0465  12
 -11  -8  -2 256.797 57.4534   9
 -11  -8  -2 385.485 60.7483   6
  11   7  -2 188.129 53.5180  12
   7 -11  -2 90.3093 50.3691   3
  -7  11  -2 127.238 39.3759   9
  11   7  -2 118.301 45.8133   3
   7 -11  -2 132.984 47.3992  15
 -11  -7  -2 113.531 49.1088   9
  -7  11  -2 173.828 43.2616  12
   7 -11  -2 122.520 45.2177   6
  11   7  -2 25.0007 41.7461  15
 -11  -7  -2 100.301 50.1985   6
  -6  11  -2 128.217 38.4839   9
   6 -11  -2 103.153 46.8948   3
   6 -11  -2 71.8050 43.4803   6
 -11  -6  -2 57.0085 45.1981   5
 -11  -6  -2 92.8363 46.0759   9
   6 -11  -2 51.9333 41.9525  14
  -6  11  -2 154.504 40.2116  12
  11   6  -2 108.715 42.2865  15
  11   6  -2 108.335 45.7530   3
   6 -11  -2 126.616 44.0472  15
  11   6  -2 84.7001 48.6642  12
 -11  -6  -2 101.468 46.7264   6
  11   6  -2 -16.511 45.4214  11
 -11  -5  -2 343.906 53.1761   9
  -5  11  -2 454.774 48.6383   9
   5 -11  -2 260.116 48.1283  10
  11   5  -2 471.393 53.2585  15
   5 -11  -2 418.508 54.6097   6
  -5  11  -2 329.076 50.7361   8
  11   5  -2 461.381 55.8328  12
 -11  -5  -2 334.564 45.6648  13
   5 -11  -2 358.271 51.8038  15
   5 -11  -2 367.168 50.9412  14
   5 -11  -2 429.896 54.0066   3
 -11  -5  -2 543.856 56.2598   6
  11   5  -2 306.245 52.3435  11
  11   5  -2 331.492 54.1579   3
 -11  -5  -2 307.203 53.5737   5
  -5  11  -2 390.081 50.1617  12
   4 -11  -2 54.8798 33.8799   5
  11   4  -2 36.5791 40.3171   3
  11   4  -2 20.9507 38.0898  15
 -11  -4  -2 -11.712 37.9487   5
   4 -11  -2 -12.724 37.5475  14
   4 -11  -2 49.1203 38.4916  15
  -4  11  -2 30.3204 36.8215  12
  -4  11  -2 2.33382 36.8437   8
   4 -11  -2 82.0808 40.1386   3
   4 -11  -2 57.4416 42.3649   6
   4 -11  -2 108.351 37.6122  10
 -11  -4  -2 24.6273 30.3753  13
  11   4  -2 21.6140 34.3245   7
 -11  -4  -2 107.217 41.5995   6
  11   4  -2 29.2186 40.7603  12
  -4  11  -2 74.1356 32.5888   9
  11   4  -2 73.0873 40.6010  11
  -4  11  -2 53.7474 38.4177   4
 -11  -4  -2 67.0845 34.5857   8
 -11  -4  -2 91.6166 40.9158   9
  -3  11  -2 176.463 40.5400   8
  11   3  -2 123.099 41.8860  11
 -11  -3  -2 184.506 36.1277   8
   3 -11  -2 211.865 41.7264  14
   3 -11  -2 160.159 44.3759   6
 -11  -3  -2 208.538 42.0135   9
 -11  -3  -2 152.870 36.9412  13
   3 -11  -2 177.001 37.7681   5
  -3  11  -2 161.275 43.6092   4
  -3  11  -2 206.653 35.5724   9
  -3  11  -2 156.518 29.3158  11
  11   3  -2 171.883 39.2395   7
  11   3  -2 172.631 34.5560  14
  11   3  -2 123.056 39.5123  12
   3 -11  -2 187.551 44.4323  10
  -3  11  -2 210.337 42.4496  12
  11   3  -2 193.239 45.1398   3
 -11  -3  -2 157.457 41.2744   6
 -11  -3  -2 166.971 41.2049   5
  11   3  -2 213.413 42.4978  15
   3 -11  -2 147.175 38.2269  15
  -2  11  -2 313.854 41.1248   9
 -11  -2  -2 340.123 45.4097  13
   2 -11  -2 388.187 53.5877   6
  11   2  -2 422.355 51.9941   3
   2 -11  -2 329.010 47.2978  14
   2 -11  -2 277.561 56.1544  15
  11   2  -2 346.427 44.8579  12
   2 -11  -2 400.406 54.1288  10
 -11  -2  -2 414.599 47.8130   5
  11   2  -2 416.314 48.8538  11
   2 -11  -2 297.023 44.3875   5
  -2  11  -2 251.284 45.6979   2
  11   2  -2 384.313 49.1339  15
  -2  11  -2 362.385 39.0490  11
  11   2  -2 348.374 42.4570  14
 -11  -2  -2 447.619 46.0198   8
  -2  11  -2 350.292 47.9455  12
  11   2  -2 343.071 46.5702   7
 -11  -2  -2 332.851 48.5520   9
  -2  11  -2 378.949 46.6485   8
  -1  11  -2 295.019 36.6565  11
  -1  11  -2 354.687 46.6451  12
   1 -11  -2 392.549 49.5041  10
  11   1  -2 207.102 45.5178   3
 -11  -1  -2 199.791 42.7178   9
   1 -11  -2 245.872 42.2519  14
  11   1  -2 225.861 44.7755   7
 -11  -1  -2 285.815 34.8618   2
  -1  11  -2 338.155 43.5405   8
  -1  11  -2 311.866 44.0359   2
   1 -11  -2 332.934 45.3240   5
  11   1  -2 328.132 43.2659  11
   1 -11  -2 332.583 49.8440   6
  11   1  -2 234.684 43.0522  15
 -11  -1  -2 283.747 39.8985   8
  11   1  -2 246.135 39.6395  14
 -11  -1  -2 209.368 40.5082   5
   0 -11  -2 256.093 46.3756   6
 -11   0  -2 98.3909 37.8715   9
 -11   0  -2 140.894 49.3934   1
  11   0  -2 147.105 37.4770  14
 -11   0  -2 144.469 35.5303   8
 -11   0  -2 150.306 36.5189   5
 -11   0  -2 191.446 30.4269   2
   0  11  -2 129.233 35.4490   8
   0  11  -2 176.964 40.1856   2
  11   0  -2 183.662 37.6801  11
   0  11  -2 144.603 33.4421  11
  11   0  -2 163.544 39.7982  15
   0 -11  -2 168.501 36.1410  14
   0  11  -2 112.535 39.7344  12
  11   0  -2 192.424 42.9693   3
   0 -11  -2 212.488 40.6430   5
  11   0   2 145.468 35.0915   3
  11  -1  -2 344.883 46.2290  15
  -1 -11  -2 273.547 39.7804  14
 -11   1  -2 302.218 36.1649   2
 -11   1  -2 336.489 39.6941   5
  11  -1  -2 321.275 44.2466  14
  -1 -11  -2 262.235 46.6208   5
  -1 -11  -2 166.038 47.8022   6
  11  -1  -2 274.926 46.4809   3
   1  11  -2 326.454 48.5251  12
   1  11  -2 254.646 40.9457  11
 -11   1  -2 354.386 43.1256   8
   1  11  -2 316.827 41.6654   8
  11  -1  -2 337.431 41.9244  11
 -11   1  -2 302.739 39.8531   1
 -11   1  -2 301.455 44.4329   9
   1  11  -2 235.605 43.7852   2
  11  -1   2 250.121 36.9658  15
 -11   1   2 310.180 62.8804   9
  -1 -11   2 390.004 43.9286   6
   1  11   2 288.133 38.4496  12
  11  -1   2 289.275 41.3126   3
 -11   2  -2 337.005 43.1121   1
 -11   2  -2 312.731 39.2531   5
  11  -2  -2 303.567 47.3267  14
 -11   2  -2 387.633 38.7518   2
  -2 -11  -2 371.073 53.5765   6
  11  -2  -2 287.980 50.1718   3
   2  11  -2 323.897 41.8235   8
 -11   2  -2 337.665 45.2413   9
   2  11  -2 363.922 45.0046  11
 -11   2  -2 262.436 43.8372   8
  -2 -11  -2 273.459 49.6686   5
  11  -2  -2 401.632 42.8992  11
  -2 -11  -2 383.767 43.4026  14
  11  -2  -2 352.164 48.3890  15
   2  11  -2 339.801 49.7218  12
   2  11  -2 338.339 46.0092   2
   2  11   2 320.899 42.6570  12
  11  -2   2 422.961 46.6164   3
  11  -2   2 395.796 41.5475  15
  -2 -11   2 409.503 49.4689   6
 -11   2   2 429.435 51.1832   9
   3  11  -2 197.254 44.6397  12
  11  -3  -2 197.565 42.4033  15
  11  -3  -2 177.676 45.8032   3
 -11   3  -2 240.139 33.2276   2
 -11   3  -2 226.942 39.6555   1
 -11   3  -2 259.125 40.8674   9
  -3 -11  -2 110.552 45.0547   5
   3  11  -2 147.294 39.6519  11
 -11   3  -2 214.623 38.8392   8
  11  -3  -2 191.957 43.0699  14
   3  11  -2 240.881 40.2929   2
  -3 -11  -2 127.096 45.2423   6
  -3 -11   2 153.751 43.8770   6
  11  -3   2 204.858 40.0534   3
 -11   3   2 267.968 47.9721   9
   3  11   2 179.131 38.6951  12
  11  -3   2 222.567 36.7687  15
 -11   4  -2 70.4129 34.3015   8
   4  11  -2 112.269 41.6655  12
  11  -4  -2 57.3070 39.1495  15
  11  -4  -2 33.1825 38.7559  14
  -4 -11  -2 11.8687 41.5499   5
   4  11  -2 82.1032 35.7428   2
 -11   4  -2 -21.055 25.4063   2
  -4 -11  -2 45.0238 43.1632   6
  -4 -11  -2 82.3538 42.0055   9
   4  11  -2 -40.186 37.5393  11
 -11   4  -2 94.0542 35.4500   9
 -11   4  -2 24.6396 33.4340   1
  11  -4  -2 23.3635 41.3600   3
   4  11  -2 21.9899 41.2255   3
  11  -4   2 61.4478 37.2668   3
  11  -4   2 -2.6235 29.9916  15
   4  11   2 21.8644 37.7240  12
  -4 -11   2 51.2040 43.4554   6
 -11   4   2 20.6442 42.2027   9
 -11   5  -2 431.731 48.7787   9
  -5 -11  -2 265.058 56.8979   5
   5  11  -2 380.432 49.9957   2
   5  11  -2 424.847 55.0268  12
   5  11  -2 302.714 52.5999  11
 -11   5  -2 436.891 52.7670  12
   5  11  -2 458.813 56.4032   3
  -5 -11  -2 346.995 57.5257   6
  -5 -11  -2 349.333 56.4851   9
  11  -5  -2 366.686 55.3424   3
  11  -5  -2 296.910 51.8763  14
 -11   5  -2 421.520 43.0843   2
  11  -5  -2 318.067 51.4788  15
  11  -5  -2 436.094 55.6213   6
 -11   5  -2 348.911 47.7188   8
   5  11  -2 453.710 52.3466  15
 -11   5   2 382.713 57.2919   9
   5  11   2 408.695 52.8273  12
  11  -5   2 472.528 48.1223  15
  11  -5   2 474.185 52.3476   3
  -5 -11   2 454.983 58.9301   6
   6  11  -2 76.0861 44.8148  12
  11  -6  -2 56.3558 41.1659  15
  11  -6  -2 152.322 50.1136   6
 -11   6  -2 81.9331 36.2795   9
  -6 -11  -2 155.423 49.1143   6
 -11   6  -2 179.604 39.9615  12
   6  11  -2 86.9002 44.7470   3
  11  -6  -2 112.142 43.9900  14
 -11   6  -2 104.847 30.2121   2
  11  -6  -2 84.8057 45.3502   3
  -6 -11  -2 41.3359 49.4526   5
  -6 -11  -2 42.5814 46.6663   9
   6  11  -2 96.4309 42.6034  15
 -11   6   2 176.038 49.2409   9
  -6 -11   2 31.2967 51.4842   6
   6  11   2 153.668 45.1347  12
  11  -6   2 91.7721 34.6263  15
  11  -6   2 146.943 40.7277   3
   7  11  -2 104.866 44.0780  15
  -7 -11  -2 32.3933 47.2130   9
 -11   7  -2 122.693 31.7331   2
 -11   7  -2 41.1389 36.6392   9
   7  11  -2 72.6602 44.4847  12
  11  -7  -2 89.6173 43.3327  15
  11  -7  -2 189.175 50.7176   3
  -7 -11  -2 76.8024 49.5939   6
 -11   7  -2 107.624 38.9676  12
   7  11  -2 11.6149 46.3141   3
  11  -7  -2 119.945 49.1158   6
 -11   7   2 203.385 53.1166   9
  11  -7   2 177.202 45.0148   3
  11  -7   2 80.4638 35.8940  15
  -7 -11   2 116.736 54.5462   6
   7  11   2 161.458 44.7191  12
  -8 -11  -2 221.636 58.5191   9
 -11   8  -2 327.020 48.9501   9
  -8 -11  -2 349.388 61.9513   6
   8  11  -2 326.278 57.5299  12
  11  -8  -2 342.971 55.1800  15
   8  11  -2 335.358 57.5229   3
  11  -8  -2 393.609 60.5460   3
   8  11  -2 329.921 54.2321  15
  11  -8  -2 347.384 53.9624   6
 -11   8  -2 365.239 48.7788  12
  11  -8   2 317.905 47.6368  15
  11  -8   2 438.071 56.0854   3
  -8 -11   2 351.376 62.6144   6
   8  11   2 269.628 52.7029  12
 -11   8   2 359.199 60.9368   9
  11  -9  -2 51.2640 43.6833   6
 -11   9  -2 36.7174 38.3943  12
   9  11  -2 143.465 46.4169  15
  11  -9  -2 38.4408 46.7446  15
 -11   9  -2 30.3154 37.0609   9
  11  -9  -2 59.9500 51.6790   3
   9  11  -2 59.5009 48.0023  12
   9  11  -2 92.2086 51.3381   3
  -9 -11  -2 13.2490 53.0111   6
  -9 -11  -2 -17.196 51.8987   9
   9  11   2 -40.563 44.8727  12
  11  -9   2 56.4085 44.6108   3
  11  -9   2 102.701 39.3598  15
  -9 -11   2 17.5891 58.7584   6
 -11   9   2 -0.1549 51.7421   9
  11 -10  -2 24.4547 49.0324  15
  11 -10  -2 120.222 57.6142   3
  10  11  -2 68.4418 50.3936   3
 -10 -11  -2 95.6797 54.7350   6
 -11  10  -2 -14.889 37.6004   9
 -11  10  -2 -0.8214 35.9874  12
  10  11  -2 198.402 53.1633  12
  10  11  -2 0.12252 46.0478  15
 -10 -11  -2 35.4088 54.8969   9
  11 -10  -2 -15.667 46.6649   6
 -11  10   2 30.5351 53.3414   9
  10  11   2 -27.349 51.1705  12
  11 -10   2 120.107 48.2236   3
 -10 -11   2 -5.9961 56.3147   6
  11 -10   2 75.0485 40.5921  15
  11  11  -2 197.537 56.9080   3
 -11  11  -2 297.718 46.6286  12
  11  11  -2 180.618 51.0612  15
 -11 -11  -2 262.362 64.2784   6
  11 -11  -2 186.512 50.9489   6
 -11  11  -2 266.902 49.5450   9
 -11 -11  -2 250.725 62.2524   9
  11 -11  -2 148.314 61.5662   3
  11  11  -2 289.272 62.1141  12
  11 -11  -2 272.402 59.6465  15
  11  11   2 311.615 60.4199  12
 -11  11   2 271.921 59.3159   9
 -11 -11   2 280.884 66.6565   6
  11 -11   2 274.141 56.2192   3
  11 -11   2 312.060 51.5256  15
 -11  12  -2 3.62594 40.0613  12
 -11  12  -2 123.594 44.8242   9
  12  11  -2 135.199 65.5176  12
  11 -12  -2 29.7915 62.6140   3
  11 -12  -2 104.217 54.3814  15
  12  11  -2 56.5721 51.3218  15
 -12 -11  -2 114.664 61.5353   6
  11 -12  -2 59.3094 49.2608   6
  12  11  -2 88.8035 53.8965   3
 -12 -11  -2 72.2082 60.3578   9
 -12 -11   2 180.460 63.9582   6
 -11  12   2 24.7638 55.3486   9
  11 -12   2 95.0945 52.6955   3
  12  11   2 51.7977 53.4177  12
  11 -12   2 52.0595 44.1474  15
  12  10  -2 49.2304 53.0772   3
  10 -12  -2 21.9353 44.0527   6
  10 -12  -2 104.180 55.5356  15
 -10  12  -2 2.94638 41.5341   9
 -10  12  -2 30.8399 39.5695  12
  10 -12  -2 114.705 60.3624   3
 -12 -10  -2 93.8256 58.0212   9
  12  10  -2 23.6557 47.6410  15
 -12 -10  -2 80.5926 57.0589   6
  12  10  -2 10.5012 56.8122  12
 -12 -10   2 -8.4570 64.5528   6
  10 -12   2 31.8206 44.2191  15
  12   9  -2 -9.7142 43.4708  15
  -9  12  -2 -27.877 34.8278  12
 -12  -9  -2 116.506 57.2645   6
   9 -12  -2 63.9066 51.5147  15
   9 -12  -2 -7.0876 46.9655   6
 -12  -9  -2 35.0174 54.3126   9
  12   9  -2 -47.843 52.5849  12
  12   9  -2 22.7987 49.5514   3
   9 -12  -2 -16.293 55.6145   3
  -9  12  -2 69.0608 41.3906   9
  -8  12  -2 50.4637 39.5417  12
  12   8  -2 64.1609 50.6397   3
 -12  -8  -2 78.6541 52.3885   6
 -12  -8  -2 -20.599 52.1976   9
  -8  12  -2 5.31525 38.7712   9
   8 -12  -2 -10.271 43.4737   6
   8 -12  -2 86.4125 55.2237   3
   8 -12  -2 -52.324 47.9477  15
  12   8  -2 4.43731 43.8847  15
  12   8  -2 3.43988 54.3261  12
  -7  12  -2 144.026 41.8386  12
  12   7  -2 111.866 46.5441  15
 -12  -7  -2 183.491 51.9488   9
   7 -12  -2 153.840 50.5056   6
   7 -12  -2 178.704 54.5517   3
  -7  12  -2 238.475 43.3553   9
  12   7  -2 192.299 53.9399  12
   7 -12  -2 108.823 49.7471  15
  12   7  -2 125.969 49.5927   3
 -12  -7  -2 169.477 52.3341   6
  -6  12  -2 443.092 50.7685   9
   6 -12  -2 360.382 54.5160   6
  -6  12  -2 413.678 51.1167  12
   6 -12  -2 346.284 54.9949  15
  12   6  -2 283.128 51.4746  15
 -12  -6  -2 391.245 56.8196   6
  12   6  -2 360.673 56.0167   3
   6 -12  -2 267.295 57.5803   3
  12   6  -2 283.489 55.5091  12
 -12  -6  -2 285.223 56.5548   9
 -12  -5  -2 586.807 68.8003   5
  -5  12  -2 808.503 69.0229  12
   5 -12  -2 584.257 65.9218  14
   5 -12  -2 832.094 69.2005  15
  -5  12  -2 735.012 64.8490   9
 -12  -5  -2 844.057 70.7563   6
  12   5  -2 583.091 67.6185  12
  -5  12  -2 669.046 68.0513   8
  12   5  -2 670.094 70.8833   3
   5 -12  -2 689.122 70.2298   6
  12   5  -2 533.734 66.6261  11
 -12  -5  -2 546.658 68.7124   9
  12   5  -2 617.334 66.7567  15
   5 -12  -2 626.356 68.3103   3
  -4  12  -2 40.5625 39.5587   8
  -4  12  -2 76.7137 35.8807   9
   4 -12  -2 132.936 45.2493   6
  12   4  -2 15.1579 42.4101  11
 -12  -4  -2 73.4130 41.6184   5
  12   4  -2 65.8194 41.4685  15
 -12  -4  -2 115.803 42.8969   9
  -4  12  -2 90.3322 40.4555  12
   4 -12  -2 85.6968 42.9637  15
 -12  -4  -2 99.4066 43.8092   6
   4 -12  -2 73.5153 40.1498  14
  12   4  -2 129.154 44.5510   3
  12   4  -2 125.423 44.7973  12
   4 -12  -2 78.7920 43.5176  10
  12   3  -2 551.411 56.5500  12
   3 -12  -2 517.419 61.7119   6
   3 -12  -2 420.812 58.6974  10
   3 -12  -2 451.521 53.9404  14
   3 -12  -2 494.630 53.5254   5
 -12  -3  -2 439.380 51.7149   8
 -12  -3  -2 547.490 58.2498   9
  12   3  -2 504.675 55.8103  11
  12   3  -2 444.796 56.3197  15
   3 -12  -2 434.349 66.2544  15
 -12  -3  -2 505.247 55.4907   5
  -3  12  -2 452.406 54.3665   8
  -3  12  -2 488.347 50.6351   9
  12   3  -2 354.020 57.1622   3
  -3  12  -2 471.154 54.5964  12
  12   2  -2 86.2000 33.7064  14
  12   2  -2 -27.938 39.1493  11
  -2  12  -2 68.6453 38.5960  12
  12   2  -2 89.0574 41.4969   3
   2 -12  -2 59.4038 36.3307   5
  -2  12  -2 9.23182 35.4931   8
 -12  -2  -2 14.8278 36.3648   5
  12   2  -2 26.3845 38.5082  15
 -12  -2  -2 33.2477 38.0093   9
   2 -12  -2 22.1402 42.4160   6
   2 -12  -2 -12.850 34.8888  14
  -2  12  -2 112.073 27.9102  11
 -12  -2  -2 46.0008 32.5766   8
  12   1  -2 707.270 66.9969  15
  -1  12  -2 719.280 66.7923   2
  12   1  -2 743.680 68.5504  14
  -1  12  -2 781.808 71.5097  12
   1 -12  -2 684.318 70.8963   6
  -1  12  -2 784.438 73.6114   8
 -12  -1  -2 662.829 68.0712   9
  12   1  -2 662.714 70.1159   3
  -1  12  -2 770.899 68.6357  11
   1 -12  -2 707.849 65.2344  14
   1 -12  -2 627.699 65.6495   5
 -12  -1  -2 742.453 70.3267   8
  12   1  -2 741.673 64.6094  11
 -12  -1  -2 710.278 64.4579   5
   0  12  -2 794.832 74.8968   8
   0  12  -2 780.192 73.9761  11
  12   0  -2 797.539 74.3246  15
   0 -12  -2 738.433 72.0328  14
   0 -12  -2 798.194 78.4248   5
 -12   0  -2 721.029 73.2974   5
 -12   0  -2 711.247 71.3460   9
   0 -12  -2 789.209 76.0363   6
 -12   0  -2 697.987 73.2755   8
  12   0  -2 775.125 75.5862  14
  12   0  -2 824.388 75.2069  11
   0  12  -2 745.514 68.8649   2
   0  12  -2 841.776 75.9552  12
  12   0  -2 711.441 72.6984   3
  12   0   2 887.231 77.1652   3
   1  12  -2 676.368 65.5405   2
   1  12  -2 771.504 75.0411   8
  12  -1  -2 701.261 62.3465  11
 -12   1  -2 672.947 66.8382   9
  -1 -12  -2 635.722 71.2135   6
   1  12  -2 708.874 69.4330  12
  12  -1  -2 639.188 67.0528  15
  12  -1  -2 729.053 70.5762   3
  -1 -12  -2 662.463 68.5216   5
  12  -1  -2 716.828 66.0544  14
 -12   1  -2 699.242 71.4280   8
 -12   1  -2 773.025 76.8167   5
   1  12  -2 736.003 63.9030  11
  -1 -12  -2 804.740 68.7608  14
 -12   1  -2 784.345 63.3021   2
  12  -1   2 774.013 71.2818   3
   2  12  -2 86.5987 35.1563  11
  12  -2  -2 54.5821 37.4686  14
 -12   2  -2 6.46612 33.5886   9
  12  -2  -2 14.7799 36.9571  15
   2  12  -2 86.3294 38.7898   2
  -2 -12  -2 88.6545 42.7043   5
   2  12  -2 60.3832 39.7435  12
 -12   2  -2 20.1867 33.0393   8
 -12   2  -2 82.5991 26.7911   2
  12  -2  -2 33.6196 41.2977   3
  -2 -12  -2 107.664 45.7482   6
  12  -2   2 47.8976 30.6435  15
  -2 -12   2 54.7801 39.0979   6
 -12   2   2 67.7512 44.0345   9
   2  12   2 57.6437 32.2799  12
  12  -2   2 118.254 37.8259   3
  12  -3  -2 415.288 57.3838  15
 -12   3  -2 487.842 56.3253   9
   3  12  -2 621.183 63.5518  12
  12  -3  -2 498.536 61.5122   3
  -3 -12  -2 452.545 63.4967   6
 -12   3  -2 503.481 48.8866   2
   3  12  -2 650.997 55.8424   2
   3  12  -2 500.611 55.9270  11
  -3 -12  -2 479.116 61.4259   5
  12  -3  -2 489.250 57.5569  14
 -12   3  -2 550.271 56.8087   8
  12  -3   2 627.067 54.1221  15
 -12   3   2 538.525 61.6055   9
   3  12   2 453.217 52.8578  12
  12  -3   2 586.926 58.0040   3
  -3 -12   2 516.114 58.5829   6
  12  -4  -2 152.493 46.0678   3
 -12   4  -2 94.8482 37.6560   9
   4  12  -2 49.1213 41.1287  11
  12  -4  -2 60.8707 41.0385  14
 -12   4  -2 129.588 29.5977   2
  -4 -12  -2 32.8435 44.9195   6
   4  12  -2 64.9674 42.1076  12
  12  -4  -2 56.7787 39.6991  15
   4  12  -2 68.7378 36.7160   2
  -4 -12  -2 122.462 47.6384   5
 -12   4  -2 54.9618 35.9844   8
  12  -4   2 104.086 40.3453   3
 -12   4   2 82.0612 45.4723   9
  -4 -12   2 82.6898 44.1978   6
   4  12   2 72.1847 38.2710  12
  12  -4   2 120.265 34.8516  15
  12  -5  -2 626.890 70.1662   3
  12  -5  -2 647.110 67.1105  15
   5  12  -2 545.290 68.0760  12
 -12   5  -2 685.203 64.8675   9
   5  12  -2 619.851 70.1071   3
  -5 -12  -2 756.565 73.8162   6
 -12   5  -2 654.711 63.2143   2
 -12   5   2 723.928 72.8423   9
  12  -5   2 803.189 69.6695   3
   5  12   2 664.228 64.8947  12
  12  -5   2 675.942 63.1373  15
  -5 -12   2 749.434 71.8831   6
   6  12  -2 240.820 55.1808  12
 -12   6  -2 363.067 42.5354   2
  12  -6  -2 333.792 56.0838   3
  -6 -12  -2 241.136 59.6499   6
  12  -6  -2 377.254 57.0675   6
  -6 -12  -2 286.836 58.5430   9
 -12   6  -2 441.413 49.7877   9
  12  -6  -2 408.257 54.0404  15
   6  12  -2 342.177 55.3521   3
 -12   6  -2 348.902 49.3841  12
  12  -6   2 467.711 54.7582   3
 -12   6   2 324.347 57.8162   9
   6  12   2 312.059 53.6216  12
  12  -6   2 377.862 47.9032  15
  -6 -12   2 304.698 59.8664   6
 -12   7  -2 137.833 44.1005  12
 -12   7  -2 170.550 41.5835   9
   7  12  -2 180.391 51.3233  12
  -7 -12  -2 228.500 53.8927   9
  -7 -12  -2 150.555 53.7464   6
  12  -7  -2 149.280 45.9043  15
  12  -7  -2 81.2561 50.1410   3
  12  -7  -2 156.323 51.9069   6
   7  12  -2 169.974 51.7089   3
   7  12  -2 161.664 45.6504  15
  -7 -12   2 106.074 54.3268   6
 -12   7   2 151.684 53.9383   9
  12  -7   2 144.655 46.2564   3
  12  -7   2 163.997 40.5449  15
   7  12   2 214.760 48.7057  12
  12  -8  -2 14.1385 45.0486   6
 -12   8  -2 44.9740 37.8115   9
 -12   8  -2 -0.4223 37.0000  12
  12  -8  -2 53.9745 45.3806  15
  12  -8  -2 74.0660 51.4497   3
  -8 -12  -2 4.14213 55.2313   6
   8  12  -2 -57.452 43.7340  15
   8  12  -2 43.8048 48.8391   3
  -8 -12  -2 15.9319 51.4266   9
   8  12  -2 84.4639 47.8415  12
  12  -8   2 39.4389 44.7652   3
  12  -8   2 96.9489 39.2351  15
   8  12   2 45.4042 50.1338  12
  -8 -12   2 37.3576 57.5886   6
 -12   8   2 -4.9636 51.2793   9
   9  12  -2 75.2861 50.8558  12
  12  -9  -2 1.17911 46.1030  15
  12  -9  -2 0.48219 52.5806   3
   9  12  -2 47.5494 51.3431   3
 -12   9  -2 25.9690 39.0598  12
 -12   9  -2 61.1959 39.6345   9
   9  12  -2 98.1527 48.0387  15
  -9 -12  -2 24.7090 55.8478   6
  12  -9  -2 53.1857 44.9193   6
  -9 -12  -2 -6.5701 54.0239   9
  12  -9   2 -56.322 36.9521  15
  12  -9   2 82.5460 45.6017   3
  -9 -12   2 -58.532 58.7955   6
   9  12   2 64.1279 51.6571  12
 -12   9   2 -55.602 52.9246   9
 -10 -12  -2 126.775 58.6404   6
 -12  10  -2 71.5304 41.9137  12
 -12  10  -2 131.204 43.7983   9
  12 -10  -2 99.2511 50.0417   6
  10  12  -2 61.5203 54.8834   3
  10  12  -2 141.058 53.2759  15
  10  12  -2 168.865 54.7999  12
 -10 -12  -2 85.6405 59.0998   9
  12 -10  -2 59.0165 52.2546  15
  12 -10  -2 95.7166 56.1130   3
 -10 -12   2 104.277 64.5814   6
  12 -10   2 39.4981 48.5802   3
  12 -10   2 77.6360 43.0710  15
 -12  10   2 108.632 56.6547   9
  10  12   2 -19.416 51.4666  12
 -12  11  -2 67.7054 41.1240  12
  11  12  -2 58.1067 52.0503  15
  12 -11  -2 28.0311 61.6903   3
  12 -11  -2 46.9792 52.9002  15
  11  12  -2 22.8260 55.6289  12
 -11 -12  -2 77.1955 60.1544   6
 -12  11  -2 25.6430 41.9464   9
  11  12  -2 54.8230 56.1089   3
  12 -11  -2 -48.143 48.1951   6
 -11 -12  -2 -4.5037 59.4073   9
  12 -11   2 95.2577 44.7218  15
  12 -11   2 67.2447 49.7921   3
 -12  11   2 80.1835 58.2267   9
 -11 -12   2 58.5739 64.1779   6
  11  12   2 16.2111 54.4913  12
  12 -12  -2 -69.415 48.6145   6
  12 -12  -2 86.2701 57.4597  15
 -12  12  -2 23.0596 41.0560  12
  12 -12  -2 153.247 67.8688   3
 -12  12  -2 24.7234 42.0928   9
 -12 -12  -2 -6.0456 61.1293   9
  12  12  -2 40.9092 57.5457   3
  12  12  -2 -79.315 49.3831  15
  12  12  -2 -5.3485 61.0599  12
 -12 -12  -2 11.8836 59.7985   6
 -12  12   2 -18.812 54.9159   9
  12 -12   2 43.8332 44.8483  15
  12  12   2 -28.616 58.7905  12
  12 -12   2 24.8263 51.0518   3
 -12 -12   2 -16.293 61.9394   6
 -12  13  -2 86.7960 47.8787   9
  12 -13  -2 50.3987 59.9145  15
 -13 -12  -2 59.4996 66.9578   9
  12 -13  -2 48.1171 68.1865   3
  12 -13  -2 -7.4677 49.6461   6
 -13 -12  -2 142.674 60.6692   6
  13  12  -2 107.258 55.0437  15
  13  12  -2 170.201 65.9533  12
 -12  13  -2 77.8925 43.8051  12
  13  12  -2 94.8937 58.4717   3
  12 -13   2 67.5055 48.7144  15
  13  12   2 129.414 61.7367  12
  12 -13   2 85.9140 53.2013   3
 -13 -12   2 85.6933 70.7408   6
 -12  13   2 9.92800 55.4238   9
  11 -13  -2 -45.572 63.0174   3
 -11  13  -2 -34.373 41.7104   9
 -13 -11  -2 55.9891 60.0528   6
  13  11  -2 45.8225 52.7592  15
 -13 -11  -2 77.5748 61.7347   9
 -11  13  -2 50.3624 39.5557  12
  13  11  -2 21.3580 61.8958  12
  11 -13  -2 103.720 58.2841  15
  11 -13  -2 46.2377 49.9659   6
  13  11  -2 -2.8083 55.9047   3
  11 -13   2 26.2990 52.1752   3
 -13 -11   2 22.5564 67.6739   6
  13  11   2 1.01635 56.6795  12
 -11  13   2 -58.674 53.4880   9
  11 -13   2 11.1528 44.4162  15
  13  10  -2 -50.066 57.2991  12
  10 -13  -2 31.1954 61.9360   3
 -13 -10  -2 -35.212 57.7938   6
 -13 -10  -2 0.00283 58.2782   9
 -10  13  -2 -93.842 37.4000  12
  13  10  -2 -23.259 49.0802  15
  10 -13  -2 75.3717 50.1556   6
 -10  13  -2 -33.042 41.1201   9
  10 -13  -2 -23.191 54.6361  15
  13  10  -2 35.5552 55.2761   3
 -10  13   2 -44.111 50.8409   9
  13  10   2 -32.190 52.8982  12
 -13 -10   2 -54.157 65.7578   6
  10 -13   2 -34.844 45.2705  15
  13   9  -2 200.906 53.7440  15
  -9  13  -2 295.575 50.9676   9
   9 -13  -2 192.888 53.3650   6
   9 -13  -2 250.455 58.3519  15
 -13  -9  -2 162.083 63.2143   9
  13   9  -2 207.266 62.3397  12
  -9  13  -2 226.944 47.3919  12
 -13  -9  -2 286.573 62.0267   6
   9 -13  -2 195.666 63.1253   3
  13   9  -2 142.899 57.9687   3
  13   8  -2 173.867 62.3570  12
  13   8  -2 203.880 55.3928   3
 -13  -8  -2 244.134 59.7215   6
  -8  13  -2 199.980 47.5771   9
   8 -13  -2 260.049 51.6663   6
  -8  13  -2 251.447 46.9617  12
  13   8  -2 200.659 50.2251  15
 -13  -8  -2 165.366 59.0535   9
   8 -13  -2 211.226 56.8904  15
   8 -13  -2 223.522 61.1439   3
 -13  -7  -2 -19.186 50.1092   9
  13   7  -2 -37.548 43.6099  15
  13   7  -2 -4.5894 47.3147   3
   7 -13  -2 -62.849 51.2526   3
 -13  -7  -2 51.7746 51.6896   6
   7 -13  -2 54.1278 49.8668  15
  -7  13  -2 31.6375 39.9603   9
   7 -13  -2 -51.729 46.1938   6
  -7  13  -2 4.47984 36.5604  12
  13   7  -2 -73.085 50.4556  12
 -13  -6  -2 339.605 57.5341   6
  -6  13  -2 347.151 50.6257  12
 -13  -6  -2 289.827 58.9770   9
  -6  13  -2 219.028 47.5126   9
   6 -13  -2 297.016 55.2089  15
  13   6  -2 290.063 52.0873  15
   6 -13  -2 186.611 63.0434   3
   6 -13  -2 255.847 53.2425   6
  13   6  -2 363.392 56.7323   3
  13   6  -2 260.302 58.4774  12
 -13  -5  -2 -63.796 44.7120   9
  13   5  -2 83.5593 44.5462  15
  13   5  -2 18.1244 47.1619  12
 -13  -5  -2 137.748 49.2370   6
  -5  13  -2 42.3924 37.3259   9
  -5  13  -2 71.3990 41.1853  12
   5 -13  -2 54.5713 48.1845  15
  13   5  -2 29.0314 45.7596   3
   5 -13  -2 -5.9806 44.5042   6
  13   4  -2 442.616 57.2447  12
  -4  13  -2 503.702 56.1986  12
  -4  13  -2 344.043 53.6622   8
  -4  13  -2 472.377 51.6619   9
 -13  -4  -2 417.998 58.0885   9
 -13  -4  -2 391.086 54.9645   5
   4 -13  -2 459.781 61.7516   6
  13   4  -2 297.349 53.1956  15
  13   4  -2 378.858 55.7878  11
  13   4  -2 331.130 57.0407   3
   4 -13  -2 372.553 52.7021  14
   3 -13  -2 327.013 56.1288   6
  -3  13  -2 393.048 49.1644  12
  13   3  -2 291.488 52.1360   3
 -13  -3  -2 254.807 50.5198   9
  -3  13  -2 255.881 46.7119   8
   3 -13  -2 206.285 45.7678  14
  13   3  -2 248.569 48.6397  15
  13   3  -2 218.607 47.6039  11
 -13  -3  -2 224.436 46.3694   5
 -13  -2  -2 750.265 75.5457   8
 -13  -2  -2 733.233 72.5342   9
  -2  13  -2 820.059 75.1138  12
  -2  13  -2 750.975 68.7328   8
  13   2  -2 699.946 69.2673  11
  13   2  -2 693.375 70.4652  15
   2 -13  -2 840.592 81.5111   5
   2 -13  -2 815.503 76.2960   6
  13   2  -2 711.203 72.6832   3
   2 -13  -2 759.919 74.3315  14
 -13  -2  -2 658.001 67.7809   5
  -1  13  -2 227.326 41.3714   8
 -13  -1  -2 191.283 39.7503   5
  13   1  -2 225.249 39.2328  14
  13   1  -2 138.091 45.3991   3
  -1  13  -2 178.922 46.5964   2
  13   1  -2 222.229 43.6643  11
 -13  -1  -2 205.110 44.9614   9
   1 -13  -2 132.860 46.9133   6
  -1  13  -2 225.288 35.7956  11
   1 -13  -2 178.003 40.6696  14
  13   1  -2 124.652 42.4682  15
  -1  13  -2 194.001 45.9373  12
   0  13  -2 397.420 52.4498  12
   0  13  -2 242.130 48.0960   2
 -13   0  -2 250.433 41.2277   8
   0 -13  -2 249.769 54.8138   6
   0 -13  -2 307.289 49.0456   5
   0 -13  -2 276.732 43.7693  14
  13   0  -2 322.404 46.0023  11
  13   0  -2 290.230 47.4947  15
 -13   0  -2 233.986 45.1509   9
  13   0  -2 97.5835 46.6166   3
   1  13  -2 198.830 44.6190   2
  -1 -13  -2 224.169 47.7924   5
 -13   1  -2 225.789 40.2874   8
  13  -1  -2 175.856 41.9430  14
  13  -1  -2 130.541 46.2435   3
  -1 -13  -2 160.178 50.2872   6
   1  13  -2 138.782 38.4707  11
 -13   1  -2 218.332 43.9072   9
  13  -1  -2 272.644 46.5208  15
   1  13  -2 204.670 47.7596  12
  13  -1   2 223.984 43.8330   3
  13  -2  -2 688.335 73.1483   3
   2  13  -2 821.950 76.2452  12
  13  -2  -2 903.567 79.6120  14
 -13   2  -2 795.124 75.2316   8
  -2 -13  -2 679.137 72.6207   5
  -2 -13  -2 771.377 79.6434   6
  13  -2  -2 883.586 76.8163  15
   2  13  -2 699.564 69.1015   2
 -13   2  -2 753.774 71.9782   9
   2  13  -2 612.892 66.4517  11
  13  -2   2 805.348 78.4184   3
  13  -2   2 833.939 77.1109  15
   3  13  -2 255.617 45.7170   2
 -13   3  -2 295.935 40.0022   2
  -3 -13  -2 267.643 53.3592   5
  -3 -13  -2 343.880 55.7107   6
  13  -3  -2 237.533 47.8637  15
 -13   3  -2 297.650 46.5778   9
  13  -3  -2 218.306 50.6998   3
 -13   3  -2 277.787 45.0841   8
   3  13  -2 283.507 50.0955  12
   3  13  -2 268.030 47.1492  11
  13  -3  -2 240.330 48.0180  14
 -13   3   2 421.145 55.2569   9
  13  -3   2 298.269 42.9183  15
  -3 -13   2 287.437 50.3875   6
   3  13   2 252.303 43.3210  12
  13  -3   2 389.291 51.1725   3
  13  -4  -2 382.708 55.2138  15
  -4 -13  -2 540.586 63.1747   6
   4  13  -2 413.562 57.1370  12
  13  -4  -2 425.736 60.2417   3
 -13   4  -2 435.555 54.7787   9
 -13   4  -2 423.127 45.5229   2
 -13   4   2 394.142 59.4142   9
  -4 -13   2 461.628 59.6850   6
  13  -4   2 503.851 57.1311   3
  13  -4   2 485.298 51.5065  15
   4  13   2 391.487 52.7798  12
 -13   5  -2 -22.804 34.0458   9
  -5 -13  -2 37.1554 48.3358   6
 -13   5  -2 87.7582 29.5916   2
  13  -5  -2 56.9278 45.8800   3
   5  13  -2 44.9980 45.8989  12
  13  -5  -2 89.8952 42.7862  15
  13  -5   2 19.0495 41.9004   3
   5  13   2 62.1633 38.4647  12
 -13   5   2 17.9886 48.4058   9
  13  -5   2 67.0944 35.6479  15
  -5 -13   2 48.0826 47.0852   6
 -13   6  -2 416.016 45.0593   2
   6  13  -2 300.990 54.6857  12
 -13   6  -2 364.493 49.6778   9
  13  -6  -2 282.078 53.2250  15
   6  13  -2 349.487 57.6769   3
  -6 -13  -2 288.685 59.4981   6
  13  -6  -2 235.043 53.8345   3
  -6 -13   2 173.028 55.9907   6
  13  -6   2 315.437 53.2612   3
 -13   6   2 436.448 60.7805   9
  13  -6   2 328.217 45.7303  15
   6  13   2 284.299 51.6668  12
   7  13  -2 -22.488 48.5345   3
 -13   7  -2 15.8224 37.3030   9
  -7 -13  -2 -1.8799 52.8319   9
 -13   7  -2 55.6629 40.6814  12
  13  -7  -2 -68.756 42.9076  15
   7  13  -2 -15.694 45.1576  12
  -7 -13  -2 -42.605 49.4810   6
  13  -7  -2 0.45808 47.0509   3
  -7 -13   2 -71.091 51.9596   6
  13  -7   2 7.61980 42.7477   3
   7  13   2 11.2756 43.1982  12
  13  -7   2 13.2506 34.7966  15
 -13   7   2 -50.836 52.9611   9
  13  -8  -2 282.830 59.2795   3
 -13   8  -2 315.740 50.0835  12
  13  -8  -2 222.104 51.5104  15
   8  13  -2 313.788 58.6391  12
 -13   8  -2 269.855 48.4832   9
  13  -8  -2 109.058 48.9179   6
  -8 -13  -2 298.736 62.6064   9
  -8 -13  -2 308.695 63.8351   6
   8  13  -2 179.967 55.0687   3
   8  13  -2 175.546 51.1018  15
  13  -8   2 258.573 52.1849   3
  13  -8   2 227.256 46.5379  15
  -8 -13   2 197.086 61.6297   6
   8  13   2 202.536 55.0259  12
 -13   8   2 246.229 62.6534   9
 -13   9  -2 233.614 49.3236  12
  -9 -13  -2 188.133 61.2024   9
  13  -9  -2 176.632 52.8224   6
  13  -9  -2 252.900 55.3212  15
   9  13  -2 144.185 55.7629   3
 -13   9  -2 241.592 47.5972   9
  13  -9  -2 231.918 59.7129   3
  -9 -13  -2 214.984 63.2133   6
   9  13  -2 128.428 56.4960  12
   9  13  -2 200.875 53.3947  15
  13  -9   2 301.236 50.9079  15
  13  -9   2 349.356 56.4124   3
  -9 -13   2 191.708 63.2181   6
 -13   9   2 225.064 62.0625   9
   9  13   2 147.380 57.5868  12
  10  13  -2 18.9290 51.6415  12
 -13  10  -2 -3.2504 38.6800   9
  13 -10  -2 -46.982 49.5364   6
  13 -10  -2 43.9407 52.2137  15
 -10 -13  -2 -42.519 57.8073   9
  10  13  -2 6.15394 48.1171  15
 -10 -13  -2 -14.134 59.5247   6
  13 -10  -2 -104.12 53.6839   3
  10  13  -2 -44.617 53.1227   3
 -13  10  -2 7.39385 38.6915  12
  13 -10   2 38.0050 42.2081  15
  10  13   2 -61.987 49.3776  12
  13 -10   2 -6.0757 47.3986   3
 -13  10   2 26.0386 58.9340   9
 -10 -13   2 5.65321 60.3648   6
  11  13  -2 -25.683 55.1101  12
 -11 -13  -2 -0.5414 59.0193   6
 -11 -13  -2 27.8445 61.7490   9
  13 -11  -2 -24.331 52.0049  15
  13 -11  -2 80.4415 51.1263   6
 -13  11  -2 -1.1730 40.0320  12
 -13  11  -2 12.3108 41.1335   9
  13 -11  -2 -32.247 59.3229   3
  11  13  -2 76.5643 57.2068   3
  11  13  -2 -26.792 51.3972  15
  13 -11   2 -38.407 47.8973   3
  13 -11   2 30.3128 43.6841  15
  11  13   2 -0.1723 55.2741  12
 -13  11   2 61.2343 56.5339   9
 -11 -13   2 -7.4262 66.9421   6
  13 -12  -2 40.5884 65.8006   3
  13 -12  -2 -0.5361 49.9224   6
  12  13  -2 11.9216 57.9953   3
  12  13  -2 22.7238 54.5314  15
  12  13  -2 61.0621 60.8015  12
 -13  12  -2 46.5632 45.3310   9
 -12 -13  -2 162.975 63.5336   6
 -13  12  -2 76.0623 44.0655  12
  13 -12  -2 133.536 58.0469  15
 -12 -13  -2 2.18816 64.5863   9
  13 -12   2 159.335 50.9639  15
  12  13   2 202.817 62.6612  12
 -13  12   2 123.380 62.2464   9
  13 -12   2 90.5276 53.6662   3
 -12 -13   2 10.6214 68.5211   6
 -13 -13  -2 63.6322 61.4277   6
  13 -13  -2 31.2753 69.9753   3
 -13  13  -2 -33.703 44.0731   9
  13 -13  -2 91.8468 51.7858   6
 -13 -13  -2 -12.622 65.9153   9
  13  13  -2 70.1712 64.9860  12
  13 -13  -2 -83.356 59.6782  15
  13  13  -2 -127.25 85.0312   3
 -13  13   2 -60.780 58.8641   9
 -13 -13   2 -65.351 69.5889   6
  13  13   2 8.90220 58.9005  12
  13 -13   2 63.9765 55.2061   3
  13 -13   2 -28.676 48.5331  15
  13 -14  -2 191.179 77.6622   3
 -14 -13  -2 -40.194 64.9975   6
  13 -14  -2 85.4420 65.0047  15
 -14 -13  -2 -83.999 89.3694   9
  13 -14  -2 6.23693 52.6612   6
  14  13  -2 93.9203 69.3300  12
 -13  14  -2 20.4869 47.5396   9
  13 -14   2 -4.0229 51.5478  15
 -13  14   2 29.2335 58.5179   9
 -14 -13   2 62.1006 75.4905   6
  13 -14   2 33.6734 56.8292   3
  14  13   2 47.8465 60.5388  12
 -14 -12  -2 -55.981 65.2171   9
  14  12  -2 -86.777 68.6898  12
  14  12  -2 93.5763 63.0906   3
  12 -14  -2 -24.067 49.5115   6
 -12  14  -2 98.4448 47.6876   9
  12 -14  -2 49.9997 59.6906  15
  12 -14  -2 -72.081 68.4311   3
 -14 -12  -2 203.556 67.8355   6
  12 -14   2 24.1193 53.6070   3
 -14 -12   2 -76.715 65.9672   6
 -12  14   2 58.6318 59.0513   9
  12 -14   2 25.5099 50.4241  15
  14  12   2 48.7111 63.7790  12
  14  11  -2 64.5318 68.5109  12
  14  11  -2 64.6384 54.3349  15
  11 -14  -2 44.3900 49.8328   6
 -11  14  -2 53.9693 47.8706   9
 -14 -11  -2 57.2864 67.2321   9
  11 -14  -2 123.627 58.5868  15
  11 -14  -2 33.3883 66.6321   3
  14  11  -2 -75.121 56.0484   3
 -14 -11  -2 130.648 63.6520   6
 -11  14  -2 16.6894 39.5404  12
  11 -14   2 42.6236 55.2973   3
 -11  14   2 55.3980 57.7611   9
 -14 -11   2 75.2333 69.5120   6
  11 -14   2 21.1454 49.0339  15
  14  11   2 80.8652 61.0868  12
  10 -14  -2 199.857 69.1341   3
  14  10  -2 308.413 65.7043   3
  10 -14  -2 282.731 64.6446  15
  10 -14  -2 229.144 57.3550   6
 -10  14  -2 264.018 50.3932  12
 -14 -10  -2 288.610 64.4896   6
  14  10  -2 286.682 73.2340  12
  14  10  -2 260.202 59.5142  15
 -10  14  -2 320.884 55.5547   9
 -14 -10  -2 354.962 69.0214   9
 -10  14   2 209.184 60.2535   9
 -14 -10   2 211.980 74.2640   6
  10 -14   2 289.800 57.2855  15
  14  10   2 255.278 60.9324  12
  14   9  -2 -29.155 48.9146  15
 -14  -9  -2 38.5367 53.8586   6
   9 -14  -2 65.7844 61.2214   3
  -9  14  -2 55.4875 45.1804   9
  -9  14  -2 84.9563 41.0358  12
  14   9  -2 16.5142 56.0969   3
   9 -14  -2 -69.477 54.5461  15
  14   9  -2 60.7929 64.7695  12
   9 -14  -2 58.5787 50.6869   6
 -14  -9  -2 31.7240 60.7058   9
 -14  -8  -2 337.949 66.4594   9
   8 -14  -2 190.625 63.3666   3
  14   8  -2 224.049 61.8474  12
  14   8  -2 207.059 53.7117  15
   8 -14  -2 263.822 60.3155  15
  14   8  -2 237.646 57.6042   3
   8 -14  -2 203.632 54.8280   6
 -14  -8  -2 212.883 60.8499   6
  -8  14  -2 131.104 47.7759   9
  -8  14  -2 221.389 50.3521  12
 -14  -7  -2 257.146 59.8546   9
  -7  14  -2 122.095 42.5840  12
  14   7  -2 28.1792 52.8787   3
  -7  14  -2 174.190 45.8170   9
  14   7  -2 104.183 48.6530  15
   7 -14  -2 84.3270 54.1939  15
  14   7  -2 60.2267 60.3594  12
 -14  -7  -2 261.680 56.1450   6
   7 -14  -2 52.8946 49.1609   6
 -14  -6  -2 160.576 58.8726   9
 -14  -6  -2 286.512 56.2512   6
   6 -14  -2 225.155 55.4713  15
  14   6  -2 293.846 59.1846  12
  14   6  -2 235.380 58.0063   3
   6 -14  -2 154.912 52.0120   6
  -6  14  -2 256.832 50.0135  12
  -6  14  -2 222.174 47.6728   9
  14   6  -2 194.284 51.7881  15
   5 -14  -2 96.9795 51.2989   6
  14   5  -2 28.7836 48.0981   3
  14   5  -2 95.3503 46.0730  15
 -14  -5  -2 106.231 52.0976   9
  14   5  -2 14.8015 50.4978  12
  -5  14  -2 69.6243 40.4864   9
  -5  14  -2 24.9794 42.2480  12
   4 -14  -2 69.9064 47.9460   6
  14   4  -2 4.75326 46.6701   3
 -14  -4  -2 132.446 47.8321   9
  -4  14  -2 62.8395 43.2861  12
  14   4  -2 138.524 45.5290  15
  14   3  -2 15.1914 45.9571   3
  -3  14  -2 44.4165 41.9900  12
  14   3  -2 125.531 45.4581  15
 -14  -3  -2 16.0527 43.5607   9
  -3  14  -2 -2.7676 40.0407   8
  14   3  -2 59.7452 44.9243  11
 -14  -3  -2 15.7986 40.1079   5
   3 -14  -2 33.7852 39.5363  14
   3 -14  -2 60.8790 46.1397   6
 -14  -2  -2 305.978 52.8304   9
  -2  14  -2 236.691 47.2122   8
  14   2  -2 290.592 54.2693   3
  14   2  -2 409.919 52.2555  11
  14   2  -2 345.373 52.0626  15
 -14  -2  -2 275.931 48.1434   5
   2 -14  -2 268.793 54.8241   6
   2 -14  -2 264.036 46.6908  14
  -2  14  -2 345.413 51.3866  12
   1 -14  -2 123.342 57.8061   5
  -1  14  -2 39.5238 43.7900  12
  14   1  -2 56.2577 40.9529  15
   1 -14  -2 40.8245 46.8277   6
  14   1  -2 53.3228 45.2522   3
 -14  -1  -2 101.187 44.5634   9
   0  14  -2 74.8769 35.4863  11
   0 -14  -2 81.6452 48.6289   6
   0 -14  -2 107.520 42.7922   5
  14   0  -2 68.5199 42.5256  15
   0  14  -2 100.636 43.2791  12
  14   0  -2 65.1560 45.1511   3
 -14   0  -2 103.398 36.2517   8
 -14   0  -2 55.2540 40.9201   9
   0  14  -2 -5.6242 54.2570   2
  14   0  -2 22.9094 37.4520  14
   1  14  -2 12.0940 43.6628  12
  14  -1  -2 2.33406 42.8531   3
   1  14  -2 51.2312 36.1464  11
 -14   1  -2 53.7880 35.3798   8
  -1 -14  -2 163.749 49.1882   6
 -14   1  -2 -8.5730 38.9307   9
  -1 -14  -2 95.9281 46.4274   5
  14  -1  -2 24.3741 40.9438  15
  14  -1  -2 32.1958 38.0855  14
   1  14  -2 -10.966 42.1387   2
   2  14  -2 313.322 55.1037  12
   2  14  -2 271.501 46.9090  11
 -14   2  -2 252.528 46.0276   9
  -2 -14  -2 224.913 70.7565   5
   2  14  -2 263.145 49.5129   2
  14  -2  -2 200.419 48.6732  15
  14  -2  -2 313.187 54.3895   3
  -2 -14  -2 300.763 59.1895   6
  14  -2  -2 308.625 50.9412  14
  14  -2   2 424.966 53.6455   3
  -3 -14  -2 1.67637 50.2651   6
  14  -3  -2 10.2798 41.9122  15
  14  -3  -2 -0.2731 44.5644   3
   3  14  -2 66.2705 44.3338  12
 -14   3  -2 48.9355 38.3034   9
  14  -3   2 85.7192 42.9513   3
  -3 -14   2 52.6902 51.7726   6
  14  -3   2 90.6024 35.8504  15
  -4 -14  -2 0.33909 49.2954   6
  14  -4  -2 55.4958 43.1540  15
 -14   4  -2 -25.238 36.7638   9
  14  -4  -2 88.9649 48.1059   3
   4  14  -2 84.5180 49.3343  12
  -4 -14   2 -51.269 44.8147   6
  14  -4   2 102.857 46.1347   3
   4  14   2 6.97044 39.2744  12
  14  -4   2 50.9866 35.3387  15
 -14   4   2 11.7626 47.0385   9
  -5 -14  -2 91.7041 51.6974   6
 -14   5  -2 -18.093 36.0709   9
  14  -5  -2 78.9286 47.7660   3
   5  14  -2 92.2046 48.7497  12
  14  -5  -2 40.0801 43.4603  15
  14  -5   2 89.3942 45.5254   3
  -5 -14   2 106.496 50.7566   6
  14  -5   2 57.8562 36.7548  15
   5  14   2 49.8355 42.4652  12
 -14   5   2 51.2457 51.4257   9
  14  -6  -2 180.479 54.4755   3
  -6 -14  -2 280.254 63.3500   6
   6  14  -2 258.746 57.5752  12
  14  -6  -2 254.003 52.2764  15
 -14   6  -2 199.189 45.5288   9
  14  -6   2 252.059 53.1223   3
 -14   6   2 293.657 60.6035   9
  14  -6   2 324.650 48.1939  15
   6  14   2 220.049 49.6528  12
  -6 -14   2 247.885 57.8418   6
 -14   7  -2 125.586 41.6727   9
   7  14  -2 68.4194 51.7256   3
   7  14  -2 161.178 53.7772  12
  14  -7  -2 126.870 52.9908   3
  -7 -14  -2 146.950 56.3611   6
  14  -7  -2 173.239 50.0365  15
  14  -7   2 64.7264 39.4349  15
  -7 -14   2 137.078 57.0796   6
 -14   7   2 85.6736 56.8643   9
   7  14   2 3.42737 46.5763  12
  14  -7   2 101.188 48.4287   3
   8  14  -2 157.423 56.5979  12
 -14   8  -2 190.707 47.0689   9
  14  -8  -2 277.339 59.4658   3
  -8 -14  -2 211.046 60.8263   6
   8  14  -2 152.672 55.0257   3
  14  -8  -2 107.690 50.2719  15
   8  14   2 211.529 53.5789  12
  -8 -14   2 234.118 64.7905   6
  14  -8   2 291.828 48.5855  15
 -14   8   2 229.108 62.7584   9
  14  -8   2 257.088 54.2142   3
  -9 -14  -2 107.462 59.6898   6
  -9 -14  -2 -105.66 59.7106   9
   9  14  -2 44.3476 53.9904   3
  14  -9  -2 28.7880 50.3341  15
 -14   9  -2 -5.4464 41.5188  12
  14  -9  -2 25.1102 56.1929   3
   9  14  -2 10.3480 53.1932  12
  14  -9  -2 4.39095 45.8691   6
 -14   9  -2 -46.327 37.9466   9
   9  14   2 19.2798 48.6769  12
  14  -9   2 91.8034 43.5316  15
  -9 -14   2 25.6453 57.7466   6
 -14   9   2 33.8521 57.4160   9
  14  -9   2 46.8514 49.6725   3
 -10 -14  -2 331.637 73.7933   6
 -14  10  -2 322.055 52.9041   9
  10  14  -2 158.925 59.9814  12
  10  14  -2 296.874 62.2214   3
  14 -10  -2 238.198 65.8248   3
  14 -10  -2 248.304 59.1781  15
 -10 -14  -2 177.756 66.8922   9
  10  14  -2 243.667 55.6154  15
 -14  10  -2 329.856 53.1386  12
  14 -10  -2 156.696 55.4565   6
  14 -10   2 333.514 52.4689  15
 -14  10   2 258.216 66.1181   9
  14 -10   2 390.001 61.3406   3
 -10 -14   2 184.864 71.6900   6
  10  14   2 169.724 56.5249  12
  14 -11  -2 -23.259 52.4310   6
  11  14  -2 24.1888 52.4482  15
  11  14  -2 37.5139 57.3210  12
  11  14  -2 13.6069 57.9563   3
  14 -11  -2 144.443 55.7619  15
 -14  11  -2 183.796 47.1846   9
 -11 -14  -2 -69.161 62.5687   9
  14 -11  -2 -11.302 60.3116   3
 -14  11  -2 101.211 45.4941  12
 -11 -14  -2 64.9975 62.9561   6
  11  14   2 57.6509 56.7900  12
  14 -11   2 51.8611 50.8578   3
 -14  11   2 58.0290 61.8714   9
  14 -11   2 31.0364 44.5573  15
 -11 -14   2 85.5446 63.3636   6
 -12 -14  -2 7.64860 62.1822   6
  14 -12  -2 -24.586 56.4610  15
 -12 -14  -2 -46.393 62.5179   9
  12  14  -2 75.1669 61.9765  12
  14 -12  -2 64.7564 53.2726   6
 -14  12  -2 50.3632 45.7319   9
  14 -12  -2 96.5528 67.0136   3
  12  14   2 -7.7999 53.5368  12
 -14  12   2 -8.8890 61.3863   9
  14 -12   2 -6.7791 45.2172  15
 -12 -14   2 -33.150 69.2186   6
  14 -12   2 79.3635 54.5602   3
  14 -13  -2 175.811 65.0877  15
 -13 -14  -2 177.758 106.673   9
  14 -13  -2 -4.8895 57.1852   6
  13  14  -2 22.1233 61.0681  12
  14 -13  -2 2.16537 71.1509   3
 -13 -14  -2 109.121 69.1970   6
 -14  13  -2 11.6652 46.7537   9
  14 -13   2 97.4083 56.4620   3
  14 -13   2 12.4952 49.5438  15
 -14  13   2 28.2331 64.9575   9
  13  14   2 149.418 61.7745  12
 -13 -14   2 147.312 71.5103   6
 -14  14  -2 105.809 51.4285   9
  14  14  -2 92.6730 68.6262  12
  14 -14  -2 59.8334 66.6005  15
  14 -14  -2 16.8576 75.2721   3
 -14 -14  -2 108.506 66.1971   6
  14  14   2 65.1939 62.4786  12
 -14 -14   2 26.7441 75.9697   6
  14 -14   2 -13.488 51.8428  15
  14 -14   2 -47.669 55.5925   3
 -14  14   2 -123.12 62.9685   9
  14 -15  -2 -63.790 67.0017  15
  15  14  -2 85.5210 72.6153  12
 -14  15  -2 46.6820 51.7849   9
  14 -15  -2 105.412 80.1301   3
 -15 -14  -2 48.2625 65.1899   6
  14 -15   2 7.50195 58.4652   3
 -14  15   2 25.5190 63.4059   9
  15  14   2 49.9778 61.8473  12
  14 -15   2 -27.308 52.7089  15
 -15 -14   2 -31.233 78.1531   6
 -13  15  -2 0.74822 47.8494   9
  13 -15  -2 163.596 77.2918   3
  15  13  -2 15.6613 70.3105  12
 -15 -13  -2 -69.011 66.3373   6
  13 -15  -2 114.452 68.6374  15
  15  13   2 -34.565 63.5124  12
 -13  15   2 -28.911 64.3200   9
 -15 -13   2 -11.345 73.1928   6
  13 -15   2 39.7952 55.9795  15
  13 -15   2 -41.974 56.2278   3
  15  12  -2 -0.0973 73.0601  12
 -15 -12  -2 1.83998 65.1760   6
 -12  15  -2 27.6468 49.8422   9
  12 -15  -2 65.6552 53.9412   6
  12 -15  -2 65.7470 62.2115  15
  12 -15  -2 9.41345 71.0020   3
 -15 -12  -2 53.1965 78.3862   9
  12 -15   2 9.60511 52.4169  15
 -12  15   2 10.1250 58.3252   9
 -15 -12   2 29.9857 70.1502   6
  15  12   2 5.58816 65.7843  12
  12 -15   2 97.2831 58.3663   3
 -11  15  -2 71.1145 49.4269   9
  15  11  -2 33.3154 71.8146  12
  15  11  -2 41.6654 61.9293   3
  11 -15  -2 55.9001 69.6104   3
  11 -15  -2 19.2899 50.2464   6
 -15 -11  -2 9.50098 66.8483   9
  11 -15  -2 21.7634 59.2639  15
 -15 -11  -2 15.1513 61.6041   6
  15  11  -2 51.2743 73.7514  15
 -15 -11   2 38.0918 69.7501   6
  11 -15   2 70.1388 55.3064   3
 -11  15   2 25.8576 56.2043   9
  11 -15   2 70.9488 51.4285  15
  15  11   2 13.4877 62.8841  12
 -15 -10  -2 113.175 62.3590   6
  10 -15  -2 53.9668 67.9002   3
  10 -15  -2 125.589 60.9599  15
 -10  15  -2 -3.6864 38.9593  12
 -15 -10  -2 -30.658 63.0269   9
  15  10  -2 37.8130 54.2490  15
  10 -15  -2 50.4255 52.0127   6
 -10  15  -2 25.1567 46.7298   9
  15  10  -2 98.4834 60.4735   3
  15  10  -2 135.487 72.5490  12
  10 -15   2 19.9344 55.6638   3
  10 -15   2 7.99363 50.9066  15
  15  10   2 109.664 59.7713  12
 -15 -10   2 50.4684 72.3960   6
 -10  15   2 1.32478 52.1619   9
   9 -15  -2 568.646 87.0215   3
  -9  15  -2 629.552 68.9626   9
  15   9  -2 439.704 68.5529  15
  -9  15  -2 594.826 65.6714  12
   9 -15  -2 545.873 75.3260  15
   9 -15  -2 373.433 63.5039   6
 -15  -9  -2 653.446 76.5831   6
  15   9  -2 529.242 81.8502  12
 -15  -9  -2 566.481 82.0554   9
  15   9  -2 409.104 72.4632   3
 -15  -9   2 526.719 80.7155   6
   9 -15   2 492.041 70.1993  15
   8 -15  -2 236.279 63.0228  15
   8 -15  -2 185.899 53.9719   6
  -8  15  -2 303.440 51.7504  12
  -8  15  -2 352.617 56.1718   9
  15   8  -2 152.729 59.5116   3
 -15  -8  -2 268.012 64.4345   6
  15   8  -2 169.117 54.3508  15
  15   8  -2 321.854 66.6273  12
 -15  -8  -2 370.151 68.1991   9
   7 -15  -2 -10.918 53.6401  15
  -7  15  -2 72.8044 44.4436  12
 -15  -7  -2 -3.3378 53.2296   6
  15   7  -2 29.6628 47.9493  15
 -15  -7  -2 -26.238 57.9331   9
  15   7  -2 -40.124 52.1878   3
  -7  15  -2 33.0474 44.6877   9
  15   7  -2 31.9301 59.1865  12
   7 -15  -2 -11.453 47.7251   6
  -6  15  -2 169.996 48.9947  12
  15   6  -2 99.8612 56.4396  12
 -15  -6  -2 86.7425 60.0372   9
  -6  15  -2 105.437 45.3064   9
  15   6  -2 115.745 55.2333   3
  15   6  -2 71.1222 50.2301  15
   6 -15  -2 182.381 52.2113   6
 -15  -5  -2 8.70433 53.3327   9
  -5  15  -2 60.1621 46.4679  12
  15   5  -2 41.7963 50.5851   3
   5 -15  -2 -8.2158 48.2519   6
  15   5  -2 31.5540 47.9123  15
   4 -15  -2 85.5128 51.4921   6
  15   4  -2 64.1360 50.8955   3
  15   4  -2 -35.304 44.1601  15
 -15  -4  -2 57.7230 52.9397   9
  -4  15  -2 98.8784 47.7077  12
  15   3  -2 146.940 49.5323  15
   3 -15  -2 197.970 56.3120   6
  -3  15  -2 198.821 52.3030  12
  15   3  -2 168.997 52.1374   3
 -15  -3  -2 181.547 52.4991   9
  -2  15  -2 9.69543 42.6544  12
   2 -15  -2 83.2472 51.0330   6
 -15  -2  -2 15.9671 46.5427   9
  15   2  -2 19.6695 43.1032  15
  15   2  -2 -22.163 45.9212   3
   1 -15  -2 24.3411 48.6369   6
  -1  15  -2 112.695 45.5791  12
 -15  -1  -2 -36.072 42.2226   9
  15   1  -2 15.9973 46.4250   3
  15   1  -2 73.5132 43.3862  15
  15   0  -2 49.6572 47.1303   3
   0 -15  -2 168.590 54.2848   6
   0  15  -2 76.9069 45.6376  12
 -15   0  -2 61.1539 42.6364   9
  15   0  -2 72.4855 44.5025  15
 -15   1  -2 -27.171 39.9481   9
  -1 -15  -2 86.8233 55.5452   6
  15  -1  -2 38.7002 43.6634  15
  15  -1  -2 85.9560 46.2732   3
   1  15  -2 76.6521 48.4758  12
   2  15  -2 84.9778 48.5039  12
 -15   2  -2 78.9931 42.1417   9
  -2 -15  -2 -12.689 51.0241   6
  15  -2  -2 10.6069 47.0438   3
  15  -2  -2 38.9340 43.7988  15
  15  -2   2 5.37196 53.8459   3
   3  15  -2 72.4629 50.5651  12
  15  -3  -2 129.804 51.0863   3
 -15   3  -2 230.756 45.8192   9
  -3 -15  -2 172.476 58.5744   6
  15  -3  -2 20.8918 44.3678  15
  15  -3   2 269.574 51.9759   3
  15  -4  -2 43.4443 48.4806   3
  -4 -15  -2 18.6411 55.4571   6
  15  -4  -2 75.6747 46.6632  15
 -15   4  -2 46.8112 41.4533   9
   4  15  -2 -43.625 47.7430  12
  15  -4   2 70.3656 47.4942   3
  -4 -15   2 12.3741 51.3820   6
  15  -4   2 5.75569 36.1483  15
  15  -5  -2 12.2012 47.9955   3
   5  15  -2 77.9926 50.7381  12
  15  -5  -2 31.6042 44.4546  15
 -15   5  -2 112.791 42.1169   9
  -5 -15  -2 -5.3099 52.3237   6
 -15   5   2 85.5753 52.6100   9
  15  -5   2 11.1261 46.6221   3
  -5 -15   2 100.793 53.1545   6
   5  15   2 62.2575 42.9841  12
  15  -5   2 63.7783 38.6000  15
   6  15  -2 101.058 53.5867  12
  15  -6  -2 50.2677 51.6349   3
  15  -6  -2 214.932 51.0965  15
 -15   6  -2 121.988 41.4022   9
  -6 -15  -2 129.906 58.2704   6
  15  -6   2 92.0964 51.1890   3
  -6 -15   2 107.148 54.2174   6
   6  15   2 145.072 49.8604  12
 -15   6   2 134.477 57.7117   9
  15  -6   2 90.5805 41.0554  15
  -7 -15  -2 33.4747 55.6963   6
   7  15  -2 -6.3291 52.4030  12
  15  -7  -2 -15.899 50.8384   3
 -15   7  -2 40.4351 38.9485   9
  15  -7  -2 64.1907 48.2540  15
  15  -7   2 -17.276 39.0856  15
   7  15   2 66.0581 46.9103  12
  15  -7   2 26.4893 48.3999   3
 -15   7   2 -17.463 55.7558   9
  -7 -15   2 2.68888 57.1332   6
  -8 -15  -2 291.590 66.9727   6
   8  15  -2 335.356 62.9354  12
  15  -8  -2 166.799 54.5751  15
 -15   8  -2 278.457 51.4775   9
  15  -8  -2 150.911 59.0344   3
  -8 -15   2 252.017 63.5263   6
  15  -8   2 286.016 60.0616   3
  15  -8   2 237.725 50.1261  15
 -15   8   2 411.520 66.8412   9
   8  15   2 237.289 55.8513  12
 -15   9  -2 520.398 61.7726   9
  -9 -15  -2 405.679 76.2263   6
  15  -9  -2 340.792 63.3433  15
   9  15  -2 413.840 68.3053   3
   9  15  -2 355.496 69.3280  12
  15  -9  -2 363.539 70.5266   3
 -15   9   2 483.718 73.4893   9
  -9 -15   2 529.860 75.8074   6
   9  15   2 335.201 65.5639  12
  15  -9   2 513.486 61.7578  15
  15  -9   2 536.313 68.2070   3
  15 -10  -2 28.0354 61.2943   3
  10  15  -2 36.9354 57.9815  12
 -15  10  -2 133.177 46.5292   9
  10  15  -2 116.895 68.3772   3
  15 -10  -2 162.793 56.4616  15
 -10 -15  -2 151.532 64.3114   6
  15 -10   2 117.538 54.4791   3
  15 -10   2 86.5002 45.6428  15
  10  15   2 66.1329 55.3557  12
 -10 -15   2 97.9858 62.2874   6
 -15  10   2 70.4928 63.0322   9
  11  15  -2 33.1849 59.8928  12
  15 -11  -2 -29.738 54.9984  15
 -11 -15  -2 3.37518 68.9468   6
  15 -11  -2 194.141 67.5898   3
 -15  11  -2 46.4457 45.2800   9
 -11 -15  -2 108.952 67.9742   9
  15 -11   2 87.3834 56.6681   3
  15 -11   2 17.3771 46.5976  15
  11  15   2 14.8906 58.4800  12
 -11 -15   2 163.048 66.9839   6
 -15  11   2 72.3977 63.4670   9
  12  15  -2 75.7071 61.0236  12
  15 -12  -2 171.312 70.5906   3
  15 -12  -2 125.412 61.1478  15
 -12 -15  -2 39.5295 70.3695   6
 -15  12  -2 -17.937 45.1487   9
  15 -12   2 -29.867 53.2974   3
 -12 -15   2 121.031 70.5119   6
  15 -12   2 78.0992 51.0217  15
  12  15   2 -60.021 54.6647  12
 -15  12   2 62.8588 64.7298   9
  15 -13  -2 37.2521 71.7071   3
  13  15  -2 86.8530 66.5655  12
  15 -13  -2 -1.1267 59.4939  15
 -13 -15  -2 -15.124 64.6044   6
 -15  13  -2 149.598 51.3839   9
  15 -13   2 98.2871 59.2001   3
  13  15   2 -2.0214 58.3657  12
 -15  13   2 2.05302 68.5813   9
  15 -13   2 114.674 54.5330  15
 -13 -15   2 -18.539 67.5944   6
 -14 -15  -2 78.0215 72.2020   6
 -15  14  -2 52.3323 50.9037   9
  14  15  -2 205.992 74.3783  12
  15 -14  -2 -8.4833 64.4159  15
  15 -14  -2 -11.701 75.9256   3
  15 -14   2 28.0090 56.9666   3
 -14 -15   2 58.8485 71.8135   6
  15 -14   2 0.11876 54.5881  15
  14  15   2 155.188 65.0431  12
 -15  14   2 80.0939 69.4336   9
  15 -15  -2 282.811 86.3890   3
 -15 -15  -2 230.895 77.5386   6
  15 -15  -2 208.188 73.0192  15
  15  15  -2 332.550 80.8378  12
 -15  15  -2 217.447 61.2652   9
  15 -15   2 289.998 65.5397  15
  15  15   2 262.647 72.1793  12
  15 -15   2 238.801 67.1386   3
 -15 -15   2 60.8658 74.4921   6
 -15  15   2 252.880 75.8103   9
  16  15  -2 24.4285 78.5816  12
  16  15   2 -38.525 63.2641  12
 -16 -14  -2 251.178 75.6510   6
  16  14  -2 113.949 78.6801  12
  14 -16  -2 290.805 73.3354  15
  14 -16  -2 229.848 84.2408   3
 -14  16  -2 130.613 57.9304   9
  14 -16   2 74.1664 59.6368  15
  16  14   2 141.219 69.0403  12
  14 -16   2 212.481 64.5597   3
 -16 -14   2 96.3039 79.0748   6
 -14  16   2 229.578 69.5793   9
 -16 -13  -2 140.641 68.3898   6
 -13  16  -2 71.8665 53.2214   9
  13 -16  -2 33.0534 67.8830  15
  16  13  -2 44.4264 74.3170  12
  13 -16  -2 -15.726 75.4091   3
 -16 -13   2 11.5551 71.4927   6
 -13  16   2 -37.930 62.7178   9
  13 -16   2 57.2723 58.0202  15
  16  13   2 55.6342 66.0411  12
  13 -16   2 27.2112 57.6194   3
  16  12  -2 37.3471 72.9004  12
  12 -16  -2 122.610 68.0599  15
 -16 -12  -2 190.076 69.4667   6
 -12  16  -2 161.845 56.2536   9
  12 -16  -2 41.8059 75.1620   3
 -12  16   2 86.1252 60.6375   9
  12 -16   2 163.889 61.5859   3
 -16 -12   2 50.7703 79.1114   6
  16  12   2 154.743 68.1359  12
  12 -16   2 46.4308 57.1982  15
  11 -16  -2 33.6677 64.8408  15
  16  11  -2 192.474 77.2565  12
 -16 -11  -2 160.898 76.6975   9
  11 -16  -2 97.3291 76.0201   3
  11 -16  -2 141.914 54.6342   6
 -16 -11  -2 169.337 68.1582   6
 -11  16  -2 51.3239 52.7731   9
 -11  16   2 -85.489 56.9922   9
  16  11   2 212.887 72.9116  12
  11 -16   2 80.5303 61.3034   3
  11 -16   2 144.106 55.9367  15
 -16 -11   2 -42.531 75.0412   6
  16  10  -2 264.565 75.2620  12
  10 -16  -2 154.780 64.0098  15
 -16 -10  -2 151.974 64.3017   6
  16  10  -2 156.519 64.5936   3
  16  10  -2 -47.635 63.6530  15
 -10  16  -2 66.9648 50.7043   9
 -16 -10  -2 121.617 70.1294   9
  10 -16  -2 -37.231 50.7718   6
  10 -16   2 26.4935 52.5335  15
  16  10   2 94.4690 62.2445  12
 -16 -10   2 219.237 72.6320   6
  10 -16   2 -41.464 59.6538   3
 -10  16   2 130.718 60.1028   9
   9 -16  -2 207.787 53.2412   6
 -16  -9  -2 218.360 64.2496   6
  -9  16  -2 239.808 55.1969   9
  16   9  -2 108.087 62.6537   3
 -16  -9  -2 141.772 70.4907   9
  16   9  -2 114.528 67.1734  12
  16   9  -2 116.957 55.3296  15
   9 -16  -2 118.515 64.3599  15
  -9  16  -2 186.127 52.5590  12
   9 -16   2 83.7549 56.0865  15
 -16  -9   2 204.000 77.5372   6
  16   8  -2 143.197 56.2610  15
 -16  -8  -2 293.500 71.0680   9
 -16  -8  -2 518.064 86.1072   6
  -8  16  -2 245.592 55.0789  12
  16   8  -2 311.594 71.7169  12
   8 -16  -2 330.814 58.8049   6
  16   8  -2 222.629 63.5817   3
   8 -16  -2 184.224 65.5140  15
  -8  16  -2 281.998 56.9710   9
  16   7  -2 115.779 59.4865   3
  -7  16  -2 157.587 46.4581  12
  16   7  -2 138.183 74.9735  12
   7 -16  -2 85.4787 51.4796   6
  16   7  -2 19.3012 51.1624  15
 -16  -7  -2 39.0067 62.6106   9
  -7  16  -2 151.105 62.8899   9
  16   6  -2 32.1897 49.3864  15
  16   6  -2 72.7086 56.9304   3
 -16  -6  -2 176.462 64.6919   9
  -6  16  -2 20.7881 43.8411  12
   6 -16  -2 -26.895 52.1803   6
   5 -16  -2 -19.207 54.3004   6
  -5  16  -2 -48.320 44.4868  12
  16   5  -2 -48.319 51.0449   3
  16   5  -2 -36.603 47.8745  15
 -16  -5  -2 8.32130 56.0685   9
   4 -16  -2 42.6318 51.6904   6
  -4  16  -2 47.9354 45.1244  12
  16   4  -2 103.094 50.1002  15
 -16  -4  -2 128.158 58.5819   9
  16   4  -2 105.189 53.9654   3
   3 -16  -2 175.232 56.4731   6
  -3  16  -2 226.525 54.4166  12
  16   3  -2 261.220 55.0707  15
  16   3  -2 233.883 57.8601   3
 -16  -3  -2 207.507 54.8037   9
   2 -16  -2 5.19689 55.3751   6
  16   2  -2 97.1675 51.1007   3
  -2  16  -2 113.285 49.7873  12
 -16  -2  -2 111.188 53.1107   9
  16   2  -2 56.3643 47.7574  15
  16   1  -2 20.8619 44.7318  15
 -16  -1  -2 41.5217 49.0466   9
  -1  16  -2 3.74800 43.7312  12
   1 -16  -2 31.7520 54.5134   6
  16   1  -2 -35.681 48.2305   3
  16   0  -2 136.907 49.8305  15
   0  16  -2 165.395 54.2952  12
  16   0  -2 165.351 53.5457   3
   0 -16  -2 238.227 58.5737   6
 -16   0  -2 177.778 50.1154   9
 -16   1  -2 91.8671 45.3370   9
  -1 -16  -2 10.2188 56.3212   6
  16  -1  -2 -49.969 46.3204   3
   1  16  -2 -19.118 46.7057  12
  16  -1  -2 53.7437 45.4280  15
 -16   2  -2 143.839 46.3277   9
  -2 -16  -2 182.117 61.0946   6
  16  -2  -2 120.596 51.9924   3
   2  16  -2 87.4709 53.0589  12
  16  -2  -2 77.1729 47.4237  15
  16  -3  -2 175.644 55.1590   3
   3  16  -2 233.960 57.9535  12
 -16   3  -2 229.478 49.7552   9
  -3 -16  -2 282.259 61.6420   6
  16  -3  -2 246.907 53.8821  15
  16  -3   2 353.497 56.1427   3
  -4 -16  -2 86.1677 56.7923   6
   4  16  -2 42.5601 52.8973  12
  16  -4  -2 164.498 53.2376   3
  16  -4  -2 49.3325 47.4977  15
 -16   4  -2 58.7667 43.8236   9
  16  -4   2 232.253 53.7933   3
  16  -5  -2 21.4789 46.5717  15
  16  -5  -2 16.4582 50.7558   3
 -16   5  -2 11.8799 40.2586   9
  -5 -16  -2 28.4267 53.5929   6
   5  16  -2 43.2405 49.3736  12
  16  -5   2 42.3528 39.0747  15
  -5 -16   2 -21.537 51.4367   6
  16  -5   2 -3.6053 49.5434   3
  16  -6  -2 43.5991 47.9865  15
   6  16  -2 124.136 54.5213  12
  -6 -16  -2 71.9977 57.0607   6
  16  -6  -2 12.0637 51.4321   3
 -16   6  -2 -12.253 40.0851   9
  16  -6   2 86.7785 41.3805  15
   6  16   2 11.7410 47.7199  12
  16  -6   2 -116.33 48.9505   3
 -16   6   2 2.43022 55.8995   9
  -6 -16   2 -51.855 54.5917   6
  16  -7  -2 76.0843 54.7680   3
  -7 -16  -2 171.599 59.9132   6
   7  16  -2 79.3662 55.6811  12
  16  -7  -2 109.927 51.6282  15
 -16   7  -2 18.8238 39.7455   9
  -7 -16   2 96.8559 59.3214   6
  16  -7   2 92.1612 54.4007   3
  16  -7   2 123.465 44.4578  15
 -16   7   2 161.415 59.3122   9
   7  16   2 136.022 52.0937  12
 -16   8  -2 204.595 49.8893   9
  -8 -16  -2 266.525 71.3867   6
   8  16  -2 155.951 60.9242  12
  16  -8  -2 191.017 56.9790  15
  16  -8  -2 213.138 61.4946   3
  -8 -16   2 120.281 67.0707   6
   8  16   2 237.966 60.8580  12
  16  -8   2 285.746 60.5234   3
  16  -8   2 335.958 51.3871  15
 -16   8   2 320.183 66.1618   9
   9  16  -2 191.285 61.2510  12
 -16   9  -2 195.774 49.7323   9
  16  -9  -2 149.087 61.0473   3
  16  -9  -2 174.450 57.0301  15
  -9 -16  -2 336.390 67.6910   6
  16  -9   2 139.484 48.2780  15
  16  -9   2 159.602 58.8038   3
  -9 -16   2 175.862 70.1275   6
   9  16   2 205.388 61.2848  12
 -16   9   2 247.605 66.9278   9
  16 -10  -2 32.6783 63.5793   3
 -10 -16  -2 167.860 67.3981   6
 -16  10  -2 121.123 48.7056   9
  16 -10  -2 79.4893 55.6287  15
  10  16  -2 136.958 63.1997  12
  16 -10   2 61.6163 46.6141  15
  16 -10   2 162.784 60.8746   3
 -16  10   2 65.0926 63.2107   9
  10  16   2 74.6774 60.6860  12
 -10 -16   2 95.9255 66.1016   6
 -11 -16  -2 163.963 67.4340   6
  16 -11  -2 78.2408 58.3161  15
 -16  11  -2 136.434 50.5568   9
  11  16  -2 -4.4326 62.9490  12
  16 -11  -2 122.856 67.6392   3
  16 -11   2 65.3193 58.9868   3
 -11 -16   2 111.938 74.2827   6
 -16  11   2 101.684 68.0839   9
  11  16   2 6.56484 61.2029  12
  16 -11   2 93.7771 48.1668  15
  12  16  -2 170.121 67.9227  12
 -16  12  -2 98.2445 51.7578   9
  16 -12  -2 205.541 64.0583  15
 -12 -16  -2 204.107 72.5611   6
  16 -12  -2 217.497 73.6255   3
 -16  12   2 49.6362 69.1463   9
  12  16   2 48.1147 61.5035  12
  16 -12   2 170.336 54.3467  15
  16 -12   2 117.318 63.2448   3
 -12 -16   2 154.415 71.5743   6
 -13 -16  -2 -39.824 71.9145   6
 -16  13  -2 7.87204 48.2682   9
  13  16  -2 116.807 66.9420  12
  16 -13  -2 10.8404 71.5302   3
  16 -13  -2 -0.2682 62.1481  15
  16 -13   2 -102.78 58.2809   3
  13  16   2 -24.730 65.4215  12
  16 -13   2 45.2586 52.8747  15
 -13 -16   2 73.7379 77.5567   6
 -16  13   2 -26.296 66.1385   9
  16 -14  -2 175.580 70.0401  15
 -16  14  -2 127.400 55.1373   9
  16 -14  -2 267.689 80.8496   3
  14  16  -2 149.895 72.2378  12
 -14 -16  -2 203.910 77.5305   6
  16 -14   2 113.664 67.1038   3
 -14 -16   2 174.639 79.5117   6
  16 -14   2 17.1495 54.4094  15
 -16  14   2 108.444 71.7843   9
  14  16   2 46.0147 69.2492  12
  15  16   2 85.1403 70.3701  12
 -13  17  -2 -22.009 52.9168   9
  13 -17  -2 243.712 74.6904  15
 -17 -13  -2 5.08795 67.4062   6
  17  13  -2 39.7069 80.5169  12
  13 -17  -2 -14.563 87.2069   3
 -13  17   2 -96.821 61.4427   9
  13 -17   2 99.6566 60.8031  15
  17  13   2 31.6818 68.3036  12
  13 -17   2 7.39963 60.9078   3
 -17 -13   2 72.5500 74.5507   6
 -12  17  -2 145.589 57.0475   9
 -17 -12  -2 139.401 68.8812   6
  17  12  -2 13.0665 78.5255  12
  12 -17  -2 265.668 71.9133  15
  12 -17   2 6.00666 57.6708  15
 -12  17   2 -75.776 57.1572   9
  12 -17   2 92.6816 61.9934   3
 -17 -12   2 101.674 75.6807   6
  17  12   2 5.89756 66.9223  12
  17  11  -2 109.177 77.8133  12
 -17 -11  -2 151.095 66.7905   6
  11 -17  -2 15.6969 64.1996  15
 -11  17  -2 -13.205 52.9109   9
  11 -17   2 -29.584 60.0548   3
 -11  17   2 -13.640 58.3533   9
  17  11   2 32.8778 71.0173  12
  11 -17   2 19.4283 56.1127  15
 -17 -11   2 90.4330 74.8009   6
  17  10  -2 252.407 105.696   3
 -17 -10  -2 151.492 66.7527   6
  10 -17  -2 297.588 68.4251  15
 -17 -10  -2 60.1159 77.4977   9
  17  10  -2 108.267 75.4165  12
  10 -17  -2 78.9543 55.8969   6
 -10  17  -2 120.438 57.1361   9
  10 -17   2 77.1706 56.9011  15
  17  10   2 208.435 70.9542  12
  10 -17   2 112.422 64.8670   3
 -10  17   2 27.4463 58.9153   9
 -17 -10   2 297.189 84.0757   6
  17   9  -2 -25.357 72.2554  12
  17   9  -2 193.865 63.7156   3
   9 -17  -2 68.8731 56.6202   6
  -9  17  -2 82.5492 53.9082   9
 -17  -9  -2 90.1577 68.9949   9
  17   9  -2 -9.6851 57.8294  15
   9 -17   2 126.880 59.6464  15
  17   9   2 136.784 65.2158  12
 -17  -9   2 95.4694 75.3971   6
  -9  17   2 137.368 59.2151   9
  17   8  -2 45.8630 54.5233  15
 -17  -8  -2 89.1638 66.3541   9
  -8  17  -2 101.331 52.1830  12
   8 -17  -2 80.5420 57.0673   6
  17   8  -2 237.716 65.0703   3
  17   7  -2 163.251 62.5842   3
   7 -17  -2 222.049 61.0253   6
  -7  17  -2 128.573 50.6179  12
  17   7  -2 151.026 57.8514  15
 -17  -7  -2 233.159 70.0553   9
  -6  17  -2 31.6593 45.7089  12
  17   6  -2 68.6936 51.7836  15
 -17  -6  -2 19.9275 62.2327   9
   6 -17  -2 11.6388 51.8592   6
  17   6  -2 -60.256 56.9877   3
  17   5  -2 68.0906 55.2727   3
 -17  -5  -2 72.7337 60.9825   9
  17   5  -2 49.1228 50.3079  15
  -5  17  -2 45.6164 48.1941  12
   5 -17  -2 -59.862 55.6788   6
  17   4  -2 9.83033 48.2390  15
  17   4  -2 51.7506 54.1050   3
   4 -17  -2 38.8867 57.1509   6
  -4  17  -2 31.6492 50.2897  12
 -17  -4  -2 10.1358 58.0528   9
  17   3  -2 50.4217 53.6160   3
  -3  17  -2 196.711 52.2135  12
  17   3  -2 145.702 52.9605  15
 -17  -3  -2 36.3823 56.7172   9
   3 -17  -2 158.476 58.1849   6
 -17  -2  -2 -20.009 54.0615   9
  17   2  -2 52.6060 51.6844   3
   2 -17  -2 27.0589 52.8291   6
  -2  17  -2 101.104 51.0758  12
  17   2  -2 96.9412 50.2125  15
   1 -17  -2 65.5066 57.9051   6
  17   1  -2 76.8026 48.1297  15
  17   1  -2 74.6630 53.6377   3
 -17  -1  -2 188.169 55.6084   9
  -1  17  -2 102.016 49.7797  12
 -17   0  -2 -0.2744 46.5469   9
  17   0  -2 -4.7611 48.0355  15
   0  17  -2 56.7677 51.0230  12
   0 -17  -2 -16.687 52.1076   6
  17   0  -2 3.36393 49.7827   3
  17  -1  -2 78.8875 52.1438   3
   1  17  -2 76.3570 50.8471  12
  17  -1  -2 149.680 50.5712  15
 -17   1  -2 43.9850 47.0871   9
  -1 -17  -2 7.70294 54.7806   6
 -17   2  -2 -24.124 44.4319   9
  17  -2  -2 11.2317 46.9714  15
  -2 -17  -2 20.4395 55.1837   6
  17  -2  -2 113.041 53.6211   3
   2  17  -2 81.4778 51.4092  12
 -17   3  -2 39.8935 43.6919   9
  -3 -17  -2 156.100 62.5349   6
  17  -3  -2 144.667 50.1921  15
   3  17  -2 110.238 55.1339  12
  17  -3  -2 69.3097 52.9566   3
  17  -4  -2 101.576 53.9988   3
  17  -4  -2 23.6700 48.4080  15
  -4 -17  -2 129.301 60.0837   6
   4  17  -2 112.975 52.8471  12
 -17   4  -2 38.3952 44.4737   9
  17  -4   2 -37.957 46.8827   3
  17  -5  -2 67.0388 50.8630  15
   5  17  -2 163.211 55.8004  12
 -17   5  -2 74.7527 47.0971   9
  -5 -17  -2 81.7174 59.3460   6
  17  -5  -2 106.538 56.7546   3
  17  -5   2 110.422 51.8156   3
  -6 -17  -2 89.5136 60.4636   6
 -17   6  -2 102.820 46.1393   9
   6  17  -2 20.9827 53.7823  12
  17  -6  -2 68.4147 54.8900   3
  17  -6  -2 -5.5759 49.0789  15
  17  -6   2 4.58835 41.7859  15
  -6 -17   2 128.438 59.0628   6
  17  -6   2 84.9353 54.1592   3
 -17   7  -2 132.426 46.0310   9
   7  17  -2 128.497 58.1892  12
  17  -7  -2 168.835 60.6479   3
  -7 -17  -2 164.037 62.7774   6
  17  -7  -2 120.741 53.2133  15
   7  17   2 161.636 52.7805  12
  -7 -17   2 186.371 63.8246   6
 -17   7   2 156.527 64.3790   9
  17  -7   2 182.417 47.6769  15
  17  -7   2 177.133 60.4846   3
  17  -8  -2 26.4906 52.5883  15
  17  -8  -2 132.341 58.6042   3
   8  17  -2 49.6077 57.2220  12
  -8 -17  -2 106.498 62.2717   6
 -17   8  -2 41.0928 43.7019   9
  17  -8   2 182.100 60.8394   3
  17  -8   2 110.052 46.7850  15
 -17   8   2 111.784 61.6756   9
   8  17   2 50.6274 54.6162  12
  -8 -17   2 30.1578 65.2543   6
 -17   9  -2 249.809 52.4556   9
   9  17  -2 109.309 63.8302  12
  17  -9  -2 88.6418 61.4155   3
  17  -9  -2 116.434 58.5145  15
  -9 -17  -2 30.2658 64.6917   6
 -17   9   2 162.766 66.0156   9
  17  -9   2 183.733 50.3311  15
  -9 -17   2 175.132 71.1429   6
  17  -9   2 168.655 62.0518   3
   9  17   2 121.198 56.6850  12
  17 -10  -2 225.955 67.4452   3
  17 -10  -2 100.748 57.1610  15
 -17  10  -2 127.607 49.3430   9
  10  17  -2 10.1214 60.8770  12
 -10 -17  -2 68.4446 68.7732   6
  17 -10   2 118.463 60.8557   3
  10  17   2 109.989 62.2041  12
  17 -10   2 99.7248 49.4448  15
 -17  10   2 120.529 67.7807   9
 -10 -17   2 130.821 67.2984   6
 -11 -17  -2 -46.233 69.4540   6
  17 -11  -2 96.4601 68.5522   3
  17 -11  -2 73.5607 59.0200  15
  11  17  -2 28.6330 63.4007  12
 -17  11  -2 67.9111 48.4448   9
 -11 -17   2 60.0589 74.7411   6
  11  17   2 15.6165 62.0136  12
  17 -11   2 -50.249 46.0973  15
  17 -11   2 -41.998 56.9734   3
 -17  11   2 59.6181 67.1932   9
  17 -12  -2 93.1857 70.6780   3
  17 -12  -2 29.3546 60.1854  15
 -17  12  -2 19.4180 47.6508   9
 -12 -17  -2 124.315 74.5805   6
  12  17  -2 -11.519 61.7207  12
  17 -12   2 3.57374 59.8033   3
  12  17   2 -0.3352 63.6380  12
 -12 -17   2 84.5319 77.5986   6
 -17  12   2 42.3214 68.0893   9
  17 -12   2 120.987 51.4750  15
  17 -13  -2 28.8519 73.8144   3
  13  17  -2 93.6860 69.1391  12
 -13 -17  -2 66.8794 70.6579   6
  17 -13  -2 91.8156 64.8189  15
 -17  13  -2 158.921 54.6931   9
  17 -13   2 100.277 64.4096   3
  13  17   2 -21.314 64.6722  12
  17 -13   2 74.9444 53.6292  15
 -17  13   2 107.871 72.5615   9
 -13 -17   2 43.9140 73.7577   6
 -18 -12  -2 30.3813 66.3571   6
 -12  18  -2 -39.415 53.4418   9
  12 -18  -2 11.2261 68.5284  15
  18  12  -2 -100.24 78.0679  12
  12 -18   2 60.4540 64.2269   3
  18  12   2 33.6077 72.3177  12
 -12  18   2 73.3951 63.6432   9
  12 -18   2 0.59081 61.3440  15
 -18 -12   2 80.0434 80.7601   6
 -11  18  -2 102.033 56.5566   9
  18  11  -2 9.29775 77.1144  12
  11 -18  -2 56.9667 80.9582  15
  11 -18   2 43.9047 59.2298  15
 -18 -11   2 98.4943 79.0072   6
  11 -18   2 26.9081 62.6522   3
 -11  18   2 -44.924 60.1923   9
  18  11   2 -0.2478 68.8810  12
  18  10  -2 95.4607 78.5047  12
 -10  18  -2 78.8171 60.5462   9
  18  10   2 -55.051 68.2659  12
  10 -18   2 -54.784 57.1467  15
 -18 -10   2 12.2411 75.0835   6
  10 -18   2 -23.705 59.7032   3
 -10  18   2 19.8212 61.3767   9
  18   9  -2 -73.011 64.7116   3
 -18  -9  -2 -1.1578 86.5241   9
   9 -18  -2 -103.36 56.2665   6
  -9  18   2 -34.384 59.1147   9
 -18  -9   2 -49.511 73.5880   6
   9 -18   2 4.92549 66.2199   3
   9 -18   2 58.3980 59.8235  15
  18   9   2 40.9918 66.4589  12
  18   8  -2 77.8287 59.9348  15
  18   8  -2 61.6878 63.0012   3
   8 -18  -2 72.6765 56.2736   6
 -18  -8  -2 114.018 68.5183   9
   8 -18   2 43.8099 58.6983  15
 -18  -8   2 37.5083 74.0490   6
  18   7  -2 50.7402 61.4342   3
   7 -18  -2 95.4325 60.1753   6
  -7  18  -2 50.2297 49.7049  12
 -18  -7  -2 -35.214 65.4517   9
  18   7  -2 -4.4555 53.3867  15
  18   6  -2 38.9453 62.8922   3
  -6  18  -2 55.8101 48.7504  12
   6 -18  -2 59.8555 58.0049   6
 -18  -6  -2 58.1445 68.9373   9
  18   6  -2 -37.845 49.8771  15
 -18  -5  -2 80.4212 63.7901   9
   5 -18  -2 61.5721 56.4810   6
  18   5  -2 48.1041 52.3553  15
  -5  18  -2 7.18116 53.4357  12
  18   5  -2 58.0548 56.8922   3
 -18  -4  -2 4.01367 61.9759   9
  -4  18  -2 46.0412 50.0511  12
  18   4  -2 -19.854 56.1960   3
  18   4  -2 67.0985 52.6027  15
   4 -18  -2 34.9386 58.9837   6
  18   3  -2 101.748 54.2210  15
 -18  -3  -2 98.5950 60.4201   9
  -3  18  -2 232.108 55.8511  12
   3 -18  -2 189.712 61.0794   6
  18   3  -2 119.680 59.5062   3
  18   2  -2 121.002 54.4157  15
 -18  -2  -2 306.796 65.1120   9
  18   2  -2 200.482 61.1130   3
  -2  18  -2 157.045 55.9077  12
   2 -18  -2 204.823 59.1962   6
   1 -18  -2 131.660 61.8331   6
  18   1  -2 51.9923 56.6214   3
 -18  -1  -2 143.139 59.2704   9
  18   1  -2 250.533 55.2174  15
  -1  18  -2 157.881 53.6041  12
   0  18  -2 49.6544 52.2900  12
  18   0  -2 -3.6651 52.3403   3
   0 -18  -2 2.67842 58.7093   6
 -18   0  -2 -60.128 50.4802   9
  18   0  -2 8.14165 49.3706  15
  18  -1  -2 240.625 60.0822   3
 -18   1  -2 174.711 55.3492   9
  -1 -18  -2 203.430 65.3572   6
   1  18  -2 182.653 59.9448  12
  18  -1  -2 263.392 56.7575  15
  -2 -18  -2 223.691 69.1457   6
  18  -2  -2 198.581 59.2248   3
 -18   2  -2 117.962 53.1565   9
  18  -2  -2 220.029 55.3586  15
   2  18  -2 301.306 63.0246  12
   3  18  -2 76.3568 59.1496  12
  18  -3  -2 50.2328 51.0447  15
 -18   3  -2 276.136 53.0791   9
  18  -3  -2 176.372 57.6227   3
  -3 -18  -2 85.5476 61.6452   6
  18  -4  -2 76.2218 56.9227   3
   4  18  -2 23.6120 55.1964  12
  18  -4  -2 -2.5084 49.6291  15
 -18   4  -2 72.1257 48.1387   9
  -4 -18  -2 137.081 62.5953   6
  18  -5  -2 -10.963 55.6111   3
  -5 -18  -2 65.1307 61.4125   6
  18  -5  -2 60.8431 52.7303  15
 -18   5  -2 32.8776 47.0243   9
   5  18  -2 51.2521 55.4079  12
  18  -5   2 73.3044 54.7048   3
 -18   6  -2 35.3014 47.3247   9
   6  18  -2 42.5853 57.5211  12
  18  -6  -2 -72.046 54.1067   3
  -6 -18  -2 77.1711 66.1233   6
  18  -6  -2 110.308 54.9684  15
  18  -6   2 51.1821 54.0945   3
   7  18  -2 -39.239 59.4670  12
  -7 -18  -2 37.9669 63.6756   6
  18  -7  -2 129.526 60.9334   3
  18  -7  -2 -9.0796 50.8620  15
 -18   7  -2 100.315 48.2469   9
  18  -7   2 59.0664 46.9804  15
  18  -7   2 9.43895 53.5002   3
  -7 -18   2 40.9491 65.6840   6
 -18   8  -2 -5.2654 43.8289   9
  18  -8  -2 -38.925 53.7541  15
   8  18  -2 35.8404 60.4639  12
  18  -8  -2 27.9939 59.5172   3
  -8 -18  -2 -24.136 63.8795   6
  -8 -18   2 -1.5728 64.6043   6
 -18   8   2 117.519 65.5486   9
  18  -8   2 21.0338 56.4506   3
   8  18   2 67.1370 57.0595  12
  18  -8   2 46.0466 47.1021  15
   9  18  -2 -121.91 58.4242  12
 -18   9  -2 5.07503 44.7110   9
  18  -9  -2 46.6062 57.2875  15
  -9 -18  -2 9.88163 68.9421   6
  18  -9  -2 17.0387 61.2434   3
  18  -9   2 27.7280 47.5521  15
  18  -9   2 188.096 64.4869   3
 -18   9   2 103.704 65.7691   9
   9  18   2 -11.460 57.4394  12
  -9 -18   2 -39.091 66.0237   6
  18 -10  -2 19.6701 59.0250  15
  18 -10  -2 54.0295 65.6171   3
 -18  10  -2 -30.301 44.4849   9
  10  18  -2 -42.267 61.3552  12
 -10 -18  -2 -4.3276 67.1336   6
 -10 -18   2 13.2862 71.6512   6
  18 -10   2 107.828 50.8698  15
 -18  10   2 169.233 67.1781   9
  10  18   2 84.5037 63.0482  12
  18 -10   2 128.268 62.3559   3
  11  18  -2 115.257 69.1677  12
 -18  11  -2 7.56919 46.5616   9
  18 -11  -2 -16.112 63.1289   3
  18 -11  -2 6.84687 59.9881  15
 -11 -18  -2 38.2812 68.1248   6
 -18  11   2 -89.734 66.9152   9
 -11 -18   2 -78.971 71.9295   6
  18 -11   2 62.0884 49.3574  15
  11  18   2 -70.280 58.5885  12
  18 -11   2 -111.41 57.7946   3
 -12 -18  -2 84.2730 74.3445   6
  12  18  -2 -124.58 63.3672  12
  18 -12  -2 84.5116 61.4165  15
 -18  12  -2 60.0036 49.9107   9
  18 -12  -2 -130.45 66.5114   3
  18 -12   2 -69.532 60.9846   3
 -12 -18   2 -34.095 74.9353   6
  12  18   2 22.1307 64.2039  12
 -18  12   2 -63.530 69.1167   9
  18 -12   2 21.0913 49.3968  15
  19  10   2 -113.08 70.4417  12
  10 -19   2 104.731 69.4136   3
 -19 -10   2 59.4978 78.4403   6
  10 -19   2 -106.56 58.5358  15
 -10  19   2 -62.292 60.5307   9
   9 -19   2 81.9265 60.8344  15
 -19  -9   2 33.5076 79.8507   6
  -9  19   2 103.186 64.2536   9
   9 -19   2 -36.985 69.5981   3
  19   9   2 96.1167 68.7350  12
   8 -19  -2 127.967 60.0557   6
 -19  -8  -2 73.5082 97.1250   9
  19   8  -2 -35.978 61.4588   3
   8 -19   2 259.809 69.3392  15
 -19  -8   2 26.7071 81.6861   6
  19   8   2 43.6136 72.0023  12
   7 -19  -2 118.560 61.9813   6
  19   7  -2 38.4652 59.2882  15
  19   7  -2 128.311 65.9536   3
 -19  -7  -2 119.186 72.1283   9
 -19  -6  -2 37.1977 69.4809   9
  -6  19  -2 65.4812 54.2457  12
   6 -19  -2 40.9479 60.8509   6
  19   6  -2 -3.1526 62.5517   3
  19   6  -2 50.4078 57.6162  15
  -5  19  -2 37.8985 50.7373  12
  19   5  -2 57.9354 60.4311   3
 -19  -5  -2 -50.690 63.8975   9
  19   5  -2 134.381 57.1881  15
   5 -19  -2 -96.028 58.4393   6
  19   4  -2 164.265 64.4277   3
 -19  -4  -2 152.238 69.8550   9
   4 -19  -2 114.687 64.9762   6
  -4  19  -2 151.483 56.1977  12
  19   4  -2 103.477 55.0153  15
  19   3  -2 28.8050 59.2899   3
  -3  19  -2 69.3092 54.3390  12
 -19  -3  -2 18.6815 63.1452   9
  19   3  -2 -12.104 53.6216  15
   3 -19  -2 -25.104 61.3879   6
 -19  -2  -2 249.295 69.0973   9
  -2  19  -2 241.217 62.0335  12
  19   2  -2 244.059 64.9280   3
   2 -19  -2 319.187 67.4206   6
  19   2  -2 225.897 60.4017  15
   1 -19  -2 180.700 62.7804   6
  -1  19  -2 211.361 61.6238  12
  19   1  -2 117.428 55.2627  15
  19   1  -2 173.566 62.1182   3
 -19  -1  -2 104.627 60.3976   9
   0 -19  -2 87.8084 65.8674   6
   0  19  -2 114.678 57.6606  12
  19   0  -2 63.8520 58.3890   3
 -19   0  -2 37.6130 57.2013   9
  19   0  -2 26.1317 51.1764  15
  19  -1  -2 120.916 58.8992   3
   1  19  -2 119.661 60.1625  12
  19  -1  -2 71.1709 54.6523  15
 -19   1  -2 261.322 60.4658   9
  -1 -19  -2 171.463 65.2002   6
  19  -2  -2 165.552 56.8505  15
 -19   2  -2 266.435 61.2665   9
   2  19  -2 363.993 69.0123  12
  -2 -19  -2 223.595 69.7432   6
  19  -2  -2 242.545 63.4639   3
  19  -3  -2 2.96079 52.5327  15
   3  19  -2 82.3775 61.0615  12
  -3 -19  -2 -45.859 60.9285   6
 -19   3  -2 166.796 52.9536   9
  19  -3  -2 3.60508 55.2058   3
 -19   4  -2 94.2552 52.2850   9
  19  -4  -2 257.476 64.3976   3
  -4 -19  -2 248.264 69.7025   6
  19  -4  -2 120.521 57.7526  15
   4  19  -2 145.270 61.3856  12
  19  -5  -2 52.6798 60.0569   3
  19  -5  -2 88.9222 54.6836  15
   5  19  -2 47.5999 63.4497  12
 -19   5  -2 67.4126 50.0008   9
  -5 -19  -2 -66.305 64.0385   6
  -6 -19  -2 -33.654 61.3964   6
  19  -6  -2 18.0680 59.4546   3
 -19   6  -2 141.775 52.4209   9
  19  -6  -2 -19.949 54.6200  15
   6  19  -2 13.1049 59.0332  12
  19  -6   2 36.8942 57.0691   3
 -19   7  -2 205.070 54.1126   9
  19  -7  -2 125.517 65.2179   3
  19  -7  -2 161.338 60.4353  15
  -7 -19  -2 203.050 72.2095   6
   7  19  -2 154.358 64.7646  12
  19  -7   2 234.564 63.9565   3
  19  -8  -2 116.000 59.3369  15
 -19   8  -2 87.9887 50.2798   9
  -8 -19  -2 96.0804 66.7944   6
   8  19  -2 114.541 63.6863  12
  19  -8  -2 158.591 66.6929   3
  -8 -19   2 105.776 95.3329   6
  19  -8   2 142.177 61.9343   3
  19  -8   2 198.285 53.7495  15
  19  -9  -2 -21.481 57.5477  15
   9  19  -2 -12.887 63.3486  12
  19  -9  -2 -15.500 59.5941   3
  -9 -19  -2 141.091 69.8516   6
 -19   9  -2 47.0819 46.7284   9
  19  -9   2 -75.145 44.1430  15
  19  -9   2 67.8559 59.0681   3
  -9 -19   2 -47.018 67.9615   6
   9  19   2 40.8422 64.8670  12
 -10 -19  -2 -44.792 66.1972   6
 -19  10  -2 -18.610 46.0942   9
  19 -10  -2 129.342 62.4135  15
  19 -10  -2 108.076 65.9271   3
  10  19  -2 90.4023 64.1279  12
  19 -10   2 -10.684 51.2431  15
  19 -10   2 91.3765 61.6072   3
 -19  10   2 -7.5858 64.9433   9
  20   9   2 -131.75 75.0896  12
  -8  20   2 -84.775 58.8708   9
  20   8   2 32.3095 71.7315  12
   8 -20   2 -4.2831 75.3038   3
 -20  -8   2 6.97696 77.9658   6
   8 -20   2 36.0277 65.6777  15
   7 -20  -2 5.83432 62.1369   6
 -20  -7  -2 111.444 104.729   9
  20   7  -2 -4.1742 65.2965   3
 -20  -7   2 91.3432 84.7727   6
   7 -20   2 22.8814 67.6121  15
  20   6  -2 -69.327 55.2812  15
  20   6  -2 -68.062 63.9252   3
 -20  -6  -2 39.1008 70.9062   9
   6 -20  -2 -26.765 60.2153   6
  20   5  -2 208.338 67.2732   3
  20   5  -2 29.3977 56.4803  15
 -20  -5  -2 62.0205 71.4948   9
   5 -20  -2 51.3113 63.1862   6
  -5  20  -2 46.0848 53.8902  12
  20   4  -2 73.5523 57.7649  15
  20   4  -2 116.657 64.9048   3
   4 -20  -2 136.652 67.8192   6
 -20  -4  -2 244.643 73.3643   9
  -4  20  -2 192.113 59.7416  12
   3 -20  -2 -4.9055 61.0922   6
  20   3  -2 14.8240 55.8385  15
  -3  20  -2 119.268 59.3671  12
  20   3  -2 37.5595 62.1006   3
 -20  -3  -2 12.4841 66.3128   9
  20   2  -2 90.3377 63.3341   3
  -2  20  -2 131.281 61.8013  12
  20   2  -2 90.9101 56.0113  15
 -20  -2  -2 45.5602 64.2791   9
   2 -20  -2 13.8393 65.7860   6
  -1  20  -2 -9.1193 53.9045  12
  20   1  -2 -5.1704 59.6078   3
   1 -20  -2 65.2299 65.3456   6
  20   1  -2 -53.278 53.3119  15
 -20  -1  -2 -14.480 62.4325   9
   0  20  -2 114.556 57.9356  12
 -20   0  -2 98.6586 63.4161   9
  20   0  -2 178.162 58.7715  15
   0 -20  -2 119.649 69.3795   6
  20   0  -2 135.374 64.2987   3
  20  -1  -2 2.40976 59.2144   3
  -1 -20  -2 -51.408 67.8903   6
  20  -1  -2 -24.469 52.8623  15
   1  20  -2 11.8210 56.3239  12
 -20   1  -2 56.5567 60.0420   9
  20  -2  -2 16.1813 52.5772  15
 -20   2  -2 22.6914 55.7028   9
   2  20  -2 33.2710 64.5013  12
  -2 -20  -2 -42.904 66.4348   6
  20  -2  -2 -22.648 57.5829   3
  20  -3  -2 59.2531 60.4562   3
  20  -3  -2 -1.1858 53.7879  15
   3  20  -2 -5.5426 61.5955  12
 -20   3  -2 51.3924 56.6149   9
  -3 -20  -2 136.305 67.4734   6
  -4 -20  -2 96.7460 68.4079   6
  20  -4  -2 138.328 62.6037   3
   4  20  -2 79.8981 66.3117  12
 -20   4  -2 23.5183 52.8341   9
  20  -4  -2 50.3476 57.4161  15
 -20   5  -2 -16.341 49.3752   9
  20  -5  -2 13.3161 55.5725  15
  20  -5  -2 -1.9548 60.7192   3
   5  20  -2 80.0206 63.9010  12
  -5 -20  -2 -43.785 72.8285   6
  -6 -20  -2 -53.873 65.2343   6
   6  20  -2 -66.897 61.2266  12
  20  -6  -2 89.3729 56.9289  15
  20  -6  -2 -78.054 58.7418   3
 -20   6  -2 94.9554 53.5940   9
  20  -7  -2 113.349 58.9788  15
  -7 -20  -2 243.582 71.8555   6
   7  20  -2 67.5008 66.0325  12
 -20   7  -2 10.8554 52.0132   9
  20  -7  -2 -24.347 61.6152   3
  20  -7   2 -100.15 56.0390   3
 -20   8  -2 -27.218 47.4364   9
  -8 -20  -2 44.8125 72.2259   6
  20  -8  -2 27.9637 58.3097  15
   8  20  -2 3.79027 66.0984  12
  20  -8  -2 55.1219 64.9347   3
   6 -21   2 12.5002 71.1265  15
  21   5  -2 -19.773 59.8410  15
  21   5  -2 26.7263 63.6750   3
   4 -21  -2 155.739 70.2337   6
  -4  21  -2 30.7671 56.6309  12
  21   4  -2 123.657 68.6765   3
  21   3  -2 5.16764 57.9026  15
  21   3  -2 28.8596 66.3515   3
 -21  -3  -2 48.5619 67.4856   9
   3 -21  -2 -57.869 64.5806   6
   2 -21  -2 -31.279 64.1291   6
 -21  -2  -2 49.9793 69.8321   9
  -2  21  -2 97.5156 60.3644  12
  21   2  -2 1.13029 58.8518  15
  21   2  -2 31.4458 63.4368   3
   1 -21  -2 24.6468 61.8598   6
  21   1  -2 25.2807 63.6501   3
  21   1  -2 66.5461 59.5040  15
 -21  -1  -2 -11.572 66.0144   9
  -1  21  -2 -136.34 55.1330  12
  21   0  -2 70.2225 65.0677   3
   0  21  -2 -41.758 56.3365  12
 -21   0  -2 50.1567 63.9501   9
  21   0  -2 -71.558 54.3210  15
   0 -21  -2 -14.949 62.5545   6
 -21   1  -2 3.97313 63.6437   9
  21  -1  -2 -6.6665 54.6631  15
  -1 -21  -2 38.1348 71.4021   6
   1  21  -2 -78.661 54.7024  12
  21  -1  -2 -6.8718 61.0081   3
  -2 -21  -2 85.8830 73.9223   6
  21  -2  -2 12.1408 57.8366  15
 -21   2  -2 0.77126 58.7436   9
  21  -2  -2 9.45366 62.4076   3
   2  21  -2 52.4452 62.1288  12
  -3 -21  -2 -106.90 66.2087   6
  21  -3  -2 -4.9033 60.1952   3
   3  21  -2 31.6047 68.3687  12
 -21   3  -2 -2.1692 57.2976   9
  21  -3  -2 56.3340 56.0399  15
  21  -4  -2 23.3306 55.8980  15
 -21   4  -2 90.9280 58.1422   9
  21  -4  -2 105.775 64.8584   3
   4  21  -2 85.5780 67.3325  12
  -4 -21  -2 58.8841 74.5113   6
  -5 -21  -2 -18.221 68.8092   6
   5  21  -2 91.3968 64.2683  12
  21  -5  -2 2.77798 64.1691   3
 -21   5  -2 -0.6746 53.1559   9
  21  -5  -2 -1.8548 57.8862  15
   6  21  -2 95.6486 67.4106  12
  21  -6  -2 133.184 60.9854  15
 -21   6  -2 37.2654 53.2432   9
  21  -6  -2 109.034 66.2505   3
   0   0  -3 255.459 40.1516  14
   0   0  -3 278.162 40.3208  11
   0   0  -3 285.386 38.8071   2
   0   0  -3 351.517 39.2116   9
   0   0  -3 301.999 39.9940   8
   0   0  -3 312.266 42.1894  12
   0   0  -3 327.785 43.5772   5
   0   0  -3 347.246 41.3162   6
   0   0  -3 327.398 41.1666  15
   0   0  -3 395.177 45.1749   3
   1   0  -3 63.5418 32.3114  11
  -1   0  -3 47.8928 32.9293  14
   0   1  -3 48.5716 34.1205   5
   1   0  -3 52.6941 26.5624   9
   1   0  -3 140.745 32.9483  15
  -1   0  -3 5.49733 30.1220  15
  -1   0  -3 82.5240 29.5420   6
   0  -1  -3 53.3368 33.1931   5
  -1   0  -3 105.296 32.3320  11
   0   1  -3 23.8318 34.8862   3
  -1   0  -3 21.5714 32.3235   3
   1   0  -3 36.3469 28.7778   8
   0  -1  -3 54.7674 29.9476  15
  -1   0  -3 50.9682 32.9950   5
   0  -1  -3 49.8496 30.8930  12
   0   1  -3 103.354 33.4889  14
   1   0  -3 75.2390 34.6955   3
   1   0  -3 52.3239 29.7610   2
   0  -1  -3 80.8575 30.5567   8
   1   0  -3 71.3071 35.4582   5
  -1   0  -3 71.6097 27.8366   9
  -1   0  -3 51.6821 27.8439   8
   0  -1  -3 70.4703 27.3248   2
   0   1  -3 63.5743 28.5085   8
   0  -1  -3 38.3623 32.1925   3
   0  -1  -3 41.7854 32.2347  14
  -1   0  -3 55.4953 27.0964   2
   0  -1  -3 105.654 32.6447   6
  -1   0  -3 73.0297 31.9046  12
   0   1  -3 71.6181 29.0532   6
   0   1  -3 30.9690 31.0970  11
   1   0  -3 59.0316 33.2967   6
   0  -1  -3 91.6390 28.8205   9
   0   1  -3 99.8492 32.8962  15
   0   1  -3 48.6656 25.4254   9
   0   1  -3 41.6336 26.8063   2
   1   0  -3 -2.0358 28.9006  12
   1   0  -3 60.7912 32.2069  14
   0  -1  -3 72.2477 33.2339  11
   0   1  -3 17.6157 32.4029  12
  -1  -1  -3 662.753 57.7990   9
  -1  -1  -3 702.127 64.8977  14
   1   1  -3 668.176 61.1676  14
  -1   1  -3 638.740 56.5640  12
  -1  -1  -3 561.951 55.7420  15
  -1   1  -3 707.877 59.0760   3
   1   1  -3 776.139 58.5373  11
  -1  -1  -3 648.827 57.6122  12
  -1   1  -3 648.243 57.1169  15
  -1   1  -3 609.943 59.6870   5
  -1  -1  -3 614.224 59.4856   6
   1   1  -3 666.382 59.5032  15
   1  -1  -3 583.716 53.4008   9
   1  -1  -3 610.590 57.6958   6
  -1  -1  -3 605.922 57.8112   8
   1  -1  -3 624.982 57.2287   3
  -1  -1  -3 616.595 55.3305  11
   1   1  -3 688.695 62.6476  12
  -1   1  -3 553.763 54.3406   9
   1   1  -3 615.479 53.6827   9
   1  -1  -3 582.357 54.3259  15
   1  -1  -3 671.627 58.0340  11
   1  -1  -3 562.798 56.8086  14
  -1  -1  -3 623.750 56.2808   2
   1  -1  -3 407.814 52.4602   8
   1   1  -3 657.634 56.1188   6
  -1   1  -3 606.817 55.9963  13
  -1   1  -3 594.755 60.9240   8
  -1   1  -3 556.632 53.9889   2
   1  -1  -3 597.742 57.6059  12
  -1   1  -3 547.909 57.0103  14
   1   1  -3 601.338 61.7149   8
  -1  -1  -3 627.053 59.9413   5
   1  -1  -3 580.487 59.6418   5
   1   1  -3 643.321 62.9727   3
   1   1  -3 542.585 58.1474   5
   1  -1  -3 504.879 52.1914   2
  -1  -1  -3 665.589 56.1150   3
   1   1  -3 613.280 53.5399   2
  -1   1  -3 573.482 57.7181   6
  -1   1  -3 632.484 55.5975  11
  -2  -1  -3 -7.8531 33.0917   5
  -1   2  -3 -25.753 30.5197   1
   2   1  -3 94.2226 33.8086   6
   2   1  -3 59.5768 32.1979  14
   1  -2  -3 39.3140 29.9418   7
   2   1  -3 8.37867 35.4461   3
   1  -2  -3 4.95645 27.2504   2
   2   1  -3 36.6181 32.5972  11
   2   1  -3 37.9038 24.0360   9
  -1   2  -3 57.5059 30.3802  11
  -2  -1  -3 -2.2143 30.7381  11
  -1   2  -3 -29.328 33.3802   3
  -1   2  -3 6.13207 31.6971  15
  -2  -1  -3 -9.1911 27.8955   6
  -2  -1  -3 20.9298 33.1285  12
   2   1  -3 -46.665 30.9877  12
   1  -2  -3 22.0322 32.8861  11
  -1   2  -3 10.2666 29.1846   8
  -2  -1  -3 39.3412 30.1466   3
  -2  -1  -3 25.3059 27.6725   8
  -2  -1  -3 48.6404 29.2279   9
   1  -2  -3 -5.8029 32.0786  14
   1  -2  -3 22.4383 34.6578   6
   1  -2  -3 -20.702 26.8494  12
   2   1  -3 -6.7819 28.7762   2
  -2  -1  -3 -39.875 31.4856  14
   2   1  -3 28.9751 31.4882  15
  -1   2  -3 37.4309 31.1030  13
  -1   2  -3 55.8219 27.2460   6
  -1   2  -3 48.9921 32.4533   5
  -2  -1  -3 10.7240 33.9207  10
   1  -2  -3 9.54338 34.0117   5
  -1   2  -3 37.3738 32.5394  12
   1  -2  -3 15.2821 28.9155  15
   1  -2  -3 -19.269 26.4455   9
  -2  -1  -3 43.0683 28.4295  15
   2   1  -3 71.2629 31.6821   8
   1  -2  -3 -6.6425 27.2241   8
  -1   2  -3 -5.4515 23.8081   9
  -1   2  -3 16.2653 26.3721   2
   2   1  -3 19.2613 34.7997   4
   1  -2  -3 -14.730 31.6588   3
  -2  -1  -3 61.8554 28.4898   2
   2   0  -3 57.3440 33.0854  11
   2   0  -3 99.2728 32.9876  15
  -2   0  -3 16.1438 27.7866   2
   0  -2  -3 85.5543 32.0520   3
  -2   0  -3 52.2075 29.1814   6
   2   0  -3 69.3176 25.9054   9
   0   2  -3 51.9608 25.2503   9
   0   2  -3 46.9331 32.8536  14
   2   0  -3 36.1591 32.6892   6
   0   2  -3 -14.479 27.1735   8
  -2   0  -3 38.6304 32.9061   5
   0   2  -3 80.7449 31.3286  11
   0  -2  -3 34.3649 29.9602   8
   0   2  -3 2.58467 31.2315  13
   0  -2  -3 55.1979 27.1522   2
   0   2  -3 97.6916 34.2566  15
   0   2  -3 98.4151 29.5844   6
   0   2  -3 54.1272 33.7920  12
   0  -2  -3 49.4182 33.9043  11
  -2   0  -3 83.7272 33.6740  13
   0   2  -3 53.6256 37.1146   1
   0  -2  -3 23.5237 32.6027   6
  -2   0  -3 48.3355 33.2468  12
  -2   0  -3 76.5144 29.4821  15
   0  -2  -3 75.6175 33.8794  14
  -2   0  -3 63.6929 33.3400  14
  -2   0  -3 82.0891 32.5968   3
   0  -2  -3 45.9854 29.2481  15
   2   0  -3 62.0662 32.2759  14
   0  -2  -3 28.1569 28.2517   9
  -2   0  -3 99.0059 31.9028  11
   2   0  -3 63.3996 31.6916   8
   0  -2  -3 46.0048 34.0484   5
   0   2  -3 36.4724 33.5245   5
   2   0  -3 48.6888 28.1327   2
  -2   0  -3 60.3056 28.8252   9
   2   0  -3 69.6232 36.8671   5
   2   0  -3 58.9160 34.8766   3
   2   0  -3 54.1850 30.8724  12
   0   2  -3 -10.096 35.0724   3
   0  -2  -3 62.5966 32.9809  12
  -2   0  -3 55.4809 28.4048   8
   0   2  -3 3.81151 27.9299   2
  -1  -2  -3 64.5851 31.2630   3
  -1  -2  -3 38.4945 29.2077   9
   2  -1  -3 76.8580 35.5253   6
  -1  -2  -3 11.2645 30.9352   6
   1   2  -3 4.86393 32.1600  15
   2  -1  -3 17.7279 33.5155   7
  -2   1  -3 36.0456 26.3723   6
   1   2  -3 58.0081 28.3910   2
  -2   1  -3 -29.808 33.6222   1
  -1  -2  -3 1.90821 34.4479  10
  -1  -2  -3 38.5406 29.4726   2
  -1  -2  -3 -17.106 31.5676  14
   2  -1  -3 28.2548 31.9027  14
  -1  -2  -3 56.7592 31.8241   8
   2  -1  -3 39.7015 31.4503  15
  -1  -2  -3 -26.556 32.7181   5
   1   2  -3 38.5451 31.9844  14
   1   2  -3 70.0435 36.5135   3
   1   2  -3 99.8171 34.8578  12
  -2   1  -3 -27.476 30.0767  13
   2  -1  -3 1.18465 27.7307   8
  -1  -2  -3 14.4858 27.5013  15
  -1  -2  -3 -49.206 31.6284  11
  -2   1  -3 40.1573 26.4360   9
  -1  -2  -3 -7.6383 28.6033  12
  -2   1  -3 9.93799 32.2871   3
   2  -1  -3 26.4652 33.2966   3
   1   2  -3 -15.415 34.4943   4
   2  -1  -3 41.8795 36.4145   5
  -2   1  -3 52.4003 27.0059   2
  -2   1  -3 -4.0986 31.1699   5
   2  -1  -3 42.1717 28.1170  12
  -2   1  -3 -29.305 27.6221   8
  -2   1  -3 -10.925 29.1491  15
  -2   1  -3 -0.5036 29.7846  11
   2  -1  -3 34.9432 25.9160   9
   1   2  -3 39.5163 29.5224   6
   1   2  -3 12.6912 35.6403   1
  -2   1  -3 -10.905 32.3089  12
   1   2  -3 15.7363 31.0628  11
   1   2  -3 30.7613 29.0578   8
   1   2  -3 47.7954 23.7055   9
   2  -1  -3 11.9225 27.1482   2
   2  -1  -3 106.299 34.8133  11
  -2  -2  -3 864.508 76.5995   2
   2   2  -3 895.505 77.6350  15
   2  -2  -3 844.382 72.2481  12
  -2   2  -3 898.418 79.3937  12
  -2   2  -3 934.046 77.9159   8
   2  -2  -3 1019.77 78.5053  14
  -2  -2  -3 907.324 75.5560   9
  -2   2  -3 930.297 76.9334   3
  -2  -2  -3 920.548 71.6033  15
   2   2  -3 951.065 77.1691  12
   2   2  -3 1002.10 80.8489  11
   2  -2  -3 793.036 74.4411   7
  -2  -2  -3 952.109 83.6138   5
   2  -2  -3 1013.79 82.4292  11
  -2   2  -3 952.092 81.7929   5
  -2  -2  -3 886.716 71.9552   3
   2   2  -3 1012.75 82.3859   4
   2   2  -3 930.052 79.5594   1
   2   2  -3 1000.90 80.7993   3
  -2   2  -3 967.915 72.6918   9
   2   2  -3 979.033 69.2791   9
  -2  -2  -3 923.096 81.1921  10
   2  -2  -3 890.997 74.4331  15
  -2   2  -3 867.380 70.4309   6
   2  -2  -3 955.773 76.9788   3
   2  -2  -3 995.256 78.9256   6
  -2   2  -3 971.790 79.4568  11
   2   2  -3 867.032 78.6158   8
   2   2  -3 954.060 76.5369   2
  -2  -2  -3 929.768 78.4516   8
  -2   2  -3 941.654 74.8221   2
  -2   2  -3 933.784 76.2739  13
  -2  -2  -3 829.901 75.2399  12
   2   2  -3 972.471 78.8873  14
  -2  -2  -3 850.605 79.9558  14
  -2   2  -3 975.015 79.6882   1
   2  -2  -3 875.499 72.6228   9
  -2  -2  -3 940.638 75.7302   6
   2  -2  -3 922.416 83.2470   5
  -3  -2  -3 444.155 50.8358  12
   3   2  -3 553.343 54.6878   3
  -2   3  -3 520.761 48.3703   2
  -2   3  -3 383.991 47.2564   8
  -3  -2  -3 503.113 49.5468   9
  -2   3  -3 476.362 48.8032  13
   2  -3  -3 370.029 51.4619   7
   2  -3  -3 413.290 49.1196  14
   3   2  -3 406.803 47.4429  11
   2  -3  -3 316.822 47.4301  11
   3   2  -3 522.738 49.8566  15
  -3  -2  -3 412.601 49.3261   5
  -2   3  -3 488.477 44.1833   9
  -3  -2  -3 389.266 50.3983  10
   3   2  -3 538.264 49.9775  12
   3   2  -3 419.327 42.8679   9
  -2   3  -3 435.578 50.7244  12
  -2   3  -3 397.275 54.8577   1
  -3  -2  -3 439.324 41.6722  15
   3   2  -3 357.956 52.4659   4
   3   2  -3 413.978 45.6858   2
   2  -3  -3 360.483 50.9578   5
  -3  -2  -3 395.719 45.4743   2
   2  -3  -3 401.110 43.4984  12
   2  -3  -3 454.742 48.9684   3
   3   2  -3 487.733 53.3272   1
   2  -3  -3 403.610 46.5228  15
  -3  -2  -3 375.864 47.4215   8
  -3  -2  -3 463.820 50.1457  14
  -2   3  -3 410.021 45.4210  11
   3   2  -3 410.750 48.0128   8
  -3  -2  -3 536.767 47.9602   6
   2  -3  -3 464.094 51.8018   6
  -2   3  -3 521.829 50.9718   5
   3   2  -3 463.750 49.1082  14
  -3  -1  -3 159.852 39.5266  12
  -3  -1  -3 23.3854 29.9399   2
  -1   3  -3 137.258 36.5468  15
   1  -3  -3 105.276 38.3016   7
   3   1  -3 78.6247 37.4612   3
  -1   3  -3 127.240 31.3929   2
  -3  -1  -3 90.0168 31.5086   9
  -3  -1  -3 100.061 32.3462   8
  -3  -1  -3 114.287 36.2683   5
  -1   3  -3 99.3647 26.9613   9
   3   1  -3 145.672 33.1177   2
  -1   3  -3 87.5713 31.3456   8
   3   1  -3 106.396 24.9923   9
  -3  -1  -3 61.4988 34.3940  13
   1  -3  -3 96.3041 31.6373  15
  -1   3  -3 88.7271 36.5966   4
   3   1  -3 87.7974 32.7060  12
  -1   3  -3 174.393 37.1801  12
   1  -3  -3 162.732 34.5795   3
   1  -3  -3 117.807 32.1303  12
   1  -3  -3 130.900 37.1034   5
   3   1  -3 111.412 34.7807   6
   1  -3  -3 94.5968 37.7300   6
  -3  -1  -3 111.197 36.5481  10
   3   1  -3 137.650 36.5195  15
   1  -3  -3 105.309 34.7871  14
   3   1  -3 88.3996 34.2258  14
  -3  -1  -3 144.932 36.7704  14
  -1   3  -3 111.267 29.8249  13
  -1   3  -3 206.716 43.7455   1
  -1   3  -3 148.177 36.3210   5
   3   1  -3 91.4476 32.1174   8
  -1   3  -3 108.607 32.0588  11
  -3  -1  -3 112.876 31.3586   6
   1  -3  -3 84.1314 36.1706  11
  -1   3  -3 187.134 38.2406   3
   1  -3  -3 114.110 32.4219   9
   3   1  -3 67.8234 37.7713   4
   3   1  -3 99.8107 35.0836  11
   0   3  -3 51.7368 38.8389   1
  -3   0  -3 10.9532 28.6602   8
  -3   0  -3 -2.8249 27.0813   9
   0   3  -3 46.7628 32.8890  12
   3   0  -3 25.6204 30.6290  12
  -3   0  -3 26.5452 28.5405  13
  -3   0  -3 43.8799 27.5470   2
   0  -3  -3 33.7439 34.4417   6
   0   3  -3 14.0305 35.2464   4
   3   0  -3 -2.9173 31.6799  11
   3   0  -3 -18.652 31.3872  14
   0  -3  -3 0.59293 30.0446   8
   3   0  -3 19.1280 28.6546   2
   0   3  -3 41.0648 29.8030   8
  -3   0  -3 18.9655 26.4074   6
   0   3  -3 66.2822 24.2826   9
  -3   0  -3 28.9781 33.6986  12
   0  -3  -3 -26.520 32.0253   7
   0   3  -3 59.6583 35.7004   3
   3   0  -3 14.8826 35.3920   3
   0  -3  -3 1.78858 32.8994  10
   0   3  -3 2.38446 27.4809   2
   3   0  -3 7.41519 32.2203  15
   0  -3  -3 29.7509 30.0761  12
   0  -3  -3 -5.0021 29.6570   9
   0  -3  -3 20.8084 27.3557  15
   3   0  -3 29.0918 34.0118   7
   3   0  -3 2.02075 36.3177   4
   0  -3  -3 13.4442 34.6364   5
   0   3  -3 -4.3032 29.5892  11
   0   3  -3 1.78730 30.2141  13
  -3   0  -3 39.3151 34.0576  10
  -3   0  -3 15.6008 30.6040  11
   0  -3  -3 36.8321 33.2968  14
  -3   0  -3 74.6740 32.4755   5
   0   3  -3 8.21684 33.7392  15
   0  -3  -3 25.4130 30.1263   3
   3   0  -3 -15.361 32.3264   6
   1   3  -3 106.430 40.5200   1
   1   3  -3 77.7835 32.9356  11
   1   3  -3 130.728 36.1605  14
  -1  -3  -3 128.218 36.5346   5
   3  -1  -3 132.728 36.1489  11
  -1  -3  -3 103.725 30.7897   3
   1   3  -3 124.414 40.5198   4
   3  -1  -3 123.478 37.4797   4
  -1  -3  -3 121.306 35.9534   6
  -1  -3  -3 71.0790 31.1567   2
  -3   1  -3 120.621 31.9022  11
  -3   1  -3 117.292 27.6683   6
   1   3  -3 79.5255 31.2779   8
   3  -1  -3 92.1320 34.4519  14
   3  -1  -3 139.876 38.1906   6
  -3   1  -3 77.7724 33.7051  13
   1   3  -3 148.680 34.4496  12
   1   3  -3 135.977 25.2269   9
  -1  -3  -3 126.191 29.3352  15
   3  -1  -3 48.9077 37.0226   7
  -3   1  -3 114.361 39.3369   1
   3  -1  -3 150.115 37.6564   3
   3  -1  -3 99.8461 39.1175   5
  -3   1  -3 108.780 31.9053   8
  -3   1  -3 103.542 34.3547   5
  -1  -3  -3 78.2070 31.6074   8
   1   3  -3 146.659 39.6381   3
  -3   1  -3 102.909 30.9720   9
  -1  -3  -3 138.452 34.7605   9
   3  -1  -3 60.3367 34.2811  15
   3  -1  -3 47.1190 29.1794  12
  -1  -3  -3 84.5082 36.1767  14
  -1  -3  -3 44.7642 36.7820  10
   1   3  -3 119.350 31.1432   2
  -3   1  -3 95.1154 35.5844  12
   1   3  -3 215.129 38.3441  15
   1   3  -3 82.9680 31.7739  13
  -3   1  -3 155.572 31.7065   2
  -2  -3  -3 395.525 50.3832   5
  -2  -3  -3 500.584 44.1842   3
   2   3  -3 497.905 51.0913  15
   2   3  -3 496.751 53.6855   3
  -2  -3  -3 461.760 48.9311   8
  -2  -3  -3 482.998 50.1605   6
  -3   2  -3 458.678 45.6203   9
   3  -2  -3 387.057 51.9072   6
   2   3  -3 439.561 48.4629  11
   3  -2  -3 407.089 51.4115   3
  -2  -3  -3 477.796 53.2408  10
   2   3  -3 448.311 48.9815  12
  -2  -3  -3 511.258 50.7916  14
   2   3  -3 451.233 51.6283   1
   3  -2  -3 436.950 49.4182  11
   3  -2  -3 393.474 43.0333  12
  -2  -3  -3 427.573 42.3169  15
  -2  -3  -3 424.672 48.6341   9
   2   3  -3 382.790 46.4112   2
   3  -2  -3 397.620 48.7543  14
   3  -2  -3 499.310 53.3182   7
   3  -2  -3 405.232 51.8998   5
   3  -2  -3 482.411 48.2800  15
   2   3  -3 442.585 49.3951  14
  -3   2  -3 433.701 49.3109  13
   2   3  -3 387.083 48.4869   8
   2   3  -3 459.563 55.2214   4
  -3   2  -3 453.093 50.5950  12
  -3   2  -3 435.118 50.5063   8
  -3   2  -3 437.475 46.2043   2
   2   3  -3 538.947 53.9778   9
  -3   2  -3 431.509 50.6785   1
  -3   2  -3 500.766 50.5904   5
  -3   2  -3 471.429 46.3343  11
  -2  -3  -3 413.705 47.4513   2
  -3  -3  -3 728.312 68.3445   5
   3  -3  -3 695.967 59.1093  15
  -3  -3  -3 553.053 56.6319   8
  -3   3  -3 676.515 60.8890   2
  -3   3  -3 569.817 54.6068  11
  -3   3  -3 541.672 57.9782  13
   3   3  -3 700.149 63.4149   3
   3  -3  -3 545.691 57.9833  14
   3   3  -3 537.360 59.2899   1
   3  -3  -3 587.412 61.0476   6
   3  -3  -3 645.341 58.9079  11
  -3   3  -3 717.859 66.4034   1
  -3   3  -3 655.294 59.1902   5
  -3   3  -3 639.863 58.4872   9
   3   3  -3 551.641 58.2415  12
   3   3  -3 584.990 57.3853  14
   3  -3  -3 737.799 62.9455   3
   3   3  -3 592.485 57.4698   8
  -3   3  -3 536.315 57.0081   8
   3   3  -3 566.084 63.7923   4
  -3  -3  -3 653.950 63.3715  10
   3   3  -3 708.142 60.6876  15
  -3   3  -3 644.786 60.8681  12
   3  -3  -3 731.559 70.4567   5
  -3  -3  -3 685.323 60.6649  14
  -3  -3  -3 573.443 54.6517   2
   3  -3  -3 624.188 61.2463   7
  -3  -3  -3 679.254 58.5942   6
   3   3  -3 602.125 54.9277   2
   3   3  -3 568.500 56.1325  11
  -3  -3  -3 612.855 58.1419   9
   4   3  -3 303.938 44.6407   8
   3  -4  -3 491.270 47.1899  15
  -3   4  -3 364.162 41.1120   2
  -4  -3  -3 409.034 46.3208   6
  -3   4  -3 399.681 47.5413  13
   4   3  -3 408.711 46.4198  14
  -4  -3  -3 356.314 46.4530   5
  -3   4  -3 406.520 42.4630  11
   3  -4  -3 331.821 47.6365   3
  -3   4  -3 393.868 42.2365   9
   3  -4  -3 391.374 47.9757  14
   3  -4  -3 360.556 49.5256   5
   3  -4  -3 333.422 47.1914   7
  -3   4  -3 430.467 54.9865   1
  -3   4  -3 366.360 45.5962   8
   4   3  -3 385.682 44.6092  11
   4   3  -3 336.775 49.7645   3
  -4  -3  -3 303.954 42.4730   2
  -3   4  -3 407.070 46.7062   5
  -4  -3  -3 355.137 45.3152   8
   4   3  -3 380.286 48.1329  12
  -4  -3  -3 358.755 46.5101   9
  -3   4  -3 350.522 47.2319  12
   4   3  -3 337.180 50.0289   1
  -4  -3  -3 458.839 48.5413  14
   4   3  -3 369.062 52.0241   4
   3  -4  -3 427.544 51.3754   6
   4   3  -3 412.835 47.9069  15
   4   3  -3 371.801 44.1689   2
  -4  -3  -3 411.303 52.4699  10
   3  -4  -3 474.180 48.6818  11
  -2   4  -3 492.432 55.5716  12
   2  -4  -3 521.730 55.8148   5
  -2   4  -3 503.930 48.9329  11
   2  -4  -3 505.822 52.4417   3
   4   2  -3 534.573 52.5260  12
   2  -4  -3 501.945 53.2883  14
   4   2  -3 522.528 52.9354  14
  -2   4  -3 509.606 50.6932   2
  -2   4  -3 569.689 53.5240  13
  -2   4  -3 472.700 52.5671   8
  -4  -2  -3 483.831 54.4151  10
   4   2  -3 562.410 50.6942   2
   4   2  -3 555.881 53.4161  11
  -2   4  -3 534.512 47.7378   9
   4   2  -3 403.555 53.9752   1
   2  -4  -3 464.375 49.9914  15
   4   2  -3 517.801 53.9689  15
  -4  -2  -3 467.307 52.6539   5
  -4  -2  -3 485.860 52.3875   9
   2  -4  -3 564.953 56.8742   6
   2  -4  -3 553.794 54.0663  11
  -4  -2  -3 510.485 51.4324   2
  -2   4  -3 535.746 59.5832   1
  -4  -2  -3 467.452 52.2419  13
  -4  -2  -3 464.081 51.4429   8
   4   2  -3 557.667 56.4783   3
  -2   4  -3 542.107 57.2904   4
   4   2  -3 496.714 59.7366   4
  -4  -2  -3 584.111 51.5781   6
   2  -4  -3 494.786 56.0353   7
   4   2  -3 428.684 50.5797   8
  -4  -1  -3 187.485 38.3901  13
   1  -4  -3 126.445 34.4767   9
   1  -4  -3 124.709 41.2193  10
   1  -4  -3 54.5848 32.1744   3
  -1   4  -3 201.317 40.5224  12
   1  -4  -3 82.4065 31.1257  15
   4   1  -3 80.5750 33.2105   7
  -1   4  -3 139.352 27.9214   9
  -4  -1  -3 149.061 40.9846  12
  -4  -1  -3 117.683 36.1409  10
   1  -4  -3 148.478 36.9984  14
  -4  -1  -3 49.3517 29.3762   2
   4   1  -3 124.986 34.1148  12
  -1   4  -3 109.979 38.3423   4
   4   1  -3 96.4425 35.4677  14
  -1   4  -3 221.544 40.4200   3
  -4  -1  -3 135.502 33.1340   9
  -4  -1  -3 170.063 35.3068   8
   4   1  -3 94.4493 31.7389   2
   4   1  -3 103.118 35.1459  11
   4   1  -3 117.118 40.5530   4
  -1   4  -3 118.156 32.3595  11
  -1   4  -3 126.511 34.2821  13
  -4  -1  -3 178.432 37.5266   5
  -1   4  -3 131.636 42.5958   1
  -1   4  -3 152.120 33.2775   2
   1  -4  -3 152.815 40.6230   6
  -1   4  -3 138.461 34.0426   8
   1  -4  -3 169.032 40.4048   7
   1  -4  -3 174.081 40.2211   5
   4   1  -3 88.3924 38.9173   3
   4   1  -3 170.728 38.0523  15
  -4  -1  -3 168.222 31.8890   6
   4   0  -3 543.333 52.4883  14
   0   4  -3 476.620 52.7325  12
   0  -4  -3 477.169 52.1374   7
   0   4  -3 450.916 46.9677   2
   0  -4  -3 566.483 51.8616   3
   0   4  -3 459.850 48.4494  11
   0   4  -3 427.728 48.2994  13
   0   4  -3 382.523 53.5982   4
   0   4  -3 475.495 45.6260   9
   0   4  -3 561.530 56.1039   3
   4   0  -3 441.483 53.2354   3
   0  -4  -3 503.252 55.1263   5
   4   0  -3 570.961 53.5300  15
  -4   0  -3 513.814 56.8636  12
  -4   0  -3 497.459 51.8827  13
   4   0  -3 350.494 53.7198   4
   4   0  -3 484.534 47.0349  12
   0   4  -3 555.768 53.2446  15
   0   4  -3 512.088 58.2008   1
  -4   0  -3 428.221 51.9018  10
   0  -4  -3 545.232 51.0220   9
   0   4  -3 428.975 49.2678   8
  -4   0  -3 376.198 47.8128   8
  -4   0  -3 523.632 49.3271   6
   0  -4  -3 478.989 51.6645  14
  -4   0  -3 555.862 51.1956   2
   0  -4  -3 362.935 53.9656  10
   4   0  -3 450.861 46.7751   2
   4   0  -3 551.288 56.4529   6
  -4   0  -3 506.656 52.3186   5
   0  -4  -3 487.553 45.0803  15
   4   0  -3 447.058 50.4291   7
   4   0  -3 470.464 50.4001  11
  -4   0  -3 468.730 49.2324   9
   0  -4  -3 482.577 53.8733   6
  -4   1  -3 165.369 35.9575   5
  -4   1  -3 160.361 32.9709   9
   4  -1  -3 144.338 39.1499   3
   4  -1  -3 143.272 36.1243  15
  -4   1  -3 157.101 35.9509   8
   4  -1  -3 100.498 35.4041  11
   4  -1  -3 104.247 30.0314  12
  -1  -4  -3 246.186 40.5358   6
   1   4  -3 147.873 38.5937  15
   4  -1  -3 87.8684 34.4492  14
  -1  -4  -3 57.8831 29.6606   3
  -4   1  -3 115.762 31.8123  11
  -4   1  -3 153.018 40.2630   1
  -1  -4  -3 89.8163 35.0583   9
   1   4  -3 173.148 41.2287   3
   1   4  -3 125.170 32.8561  13
  -4   1  -3 185.098 38.5714  10
  -1  -4  -3 79.5380 32.4577   8
  -1  -4  -3 132.421 38.4321   5
   1   4  -3 94.6604 37.4917   4
  -4   1  -3 128.119 37.2868  13
   1   4  -3 123.170 38.0214  12
  -4   1  -3 107.403 29.2495   2
   4  -1  -3 113.319 35.3028   7
   4  -1  -3 142.682 41.0371   6
  -1  -4  -3 131.935 37.2282  14
   1   4  -3 79.7143 42.2630   1
  -1  -4  -3 120.190 28.6808  15
   1   4  -3 104.631 32.4788   8
   1   4  -3 118.749 34.0680  11
  -1  -4  -3 140.511 38.8449  10
   4  -1  -3 101.322 38.8914   4
   1   4  -3 152.575 31.0092   2
  -4   1  -3 58.3880 36.0607  12
  -1  -4  -3 173.220 37.9943   7
   2   4  -3 495.782 51.1332  11
   4  -2  -3 498.754 56.7816   5
   2   4  -3 526.673 54.5505  12
  -4   2  -3 537.979 49.7666  11
  -4   2  -3 521.081 58.3425   1
  -4   2  -3 449.737 47.7241   2
   4  -2  -3 532.385 54.7933  14
   2   4  -3 466.943 51.4490   8
  -4   2  -3 636.715 54.9037   5
   4  -2  -3 480.020 56.2425   7
  -2  -4  -3 511.964 53.9492  14
   4  -2  -3 464.134 52.2956  11
   4  -2  -3 475.046 53.3516  15
   2   4  -3 524.533 57.5359   3
   2   4  -3 511.328 53.3572  14
   4  -2  -3 501.451 55.2426   3
  -2  -4  -3 493.898 54.6144   5
   2   4  -3 503.584 58.4996   1
  -2  -4  -3 566.787 55.9263   6
   4  -2  -3 547.698 59.1850   6
  -2  -4  -3 480.483 51.0939   8
  -4   2  -3 550.104 53.6597  13
   2   4  -3 516.501 49.7236  13
   2   4  -3 511.113 59.8138   4
   2   4  -3 505.451 51.0141   2
  -4   2  -3 425.922 52.2276  12
  -4   2  -3 551.164 51.4694   9
  -2  -4  -3 471.466 53.1110   9
   2   4  -3 563.929 54.6403  15
  -2  -4  -3 511.371 54.6803  10
   4  -2  -3 478.871 54.3420   4
  -4   2  -3 506.096 52.5482   8
  -4   3  -3 529.091 56.8307   1
  -4   3  -3 425.698 42.9276   2
   3   4  -3 383.802 45.6024   2
   3   4  -3 387.532 46.1004   8
  -3  -4  -3 375.050 47.7571  14
   3   4  -3 402.458 50.9055   3
   4  -3  -3 483.321 50.9863   3
  -4   3  -3 369.460 42.7066  11
  -4   3  -3 430.857 49.4720   8
   3   4  -3 457.403 48.6519  12
   4  -3  -3 448.628 48.2936  11
   4  -3  -3 377.797 52.1482   6
   4  -3  -3 376.850 51.1886   5
   3   4  -3 379.467 53.2179   1
   3   4  -3 371.936 46.4515  11
   4  -3  -3 364.647 48.1036  15
  -4   3  -3 430.161 48.2794  13
  -4   3  -3 352.789 46.8779  12
   3   4  -3 426.883 48.0225  14
  -4   3  -3 436.438 47.1579   5
  -3  -4  -3 356.557 47.9706   9
   4  -3  -3 374.159 47.5332  14
  -3  -4  -3 364.730 46.1544   8
  -3  -4  -3 429.979 48.8495   6
  -3  -4  -3 342.515 51.6087  10
  -4   3  -3 428.105 44.7135   9
   4  -3  -3 419.347 52.3224   7
   3   4  -3 413.422 49.5530  15
   3   4  -3 360.034 53.9359   4
  -3  -4  -3 280.533 47.1250   5
   4   4  -3 525.230 62.6841   4
   4   4  -3 671.957 61.0477   3
   4   4  -3 469.995 52.8329  11
   4   4  -3 563.244 58.9368  12
   4  -4  -3 447.763 59.1053   6
   4  -4  -3 485.694 60.6880   7
   4  -4  -3 576.906 55.4456  15
   4   4  -3 488.464 56.2427  15
  -4  -4  -3 574.445 58.8854   5
  -4   4  -3 556.377 56.8858  13
  -4  -4  -3 564.260 56.0958   6
  -4   4  -3 481.081 49.3630   2
   4   4  -3 466.688 51.2219   2
  -4   4  -3 451.911 49.5553  11
   4  -4  -3 610.338 58.3041  14
  -4  -4  -3 530.123 53.8132   8
  -4  -4  -3 569.084 56.4771   9
   4   4  -3 519.713 54.3392  14
  -4   4  -3 550.933 57.0913  12
  -4   4  -3 596.719 62.9812   1
   4  -4  -3 574.595 57.9861   5
   4  -4  -3 535.133 57.0072   3
   4   4  -3 530.075 61.2721   1
  -4  -4  -3 584.939 60.4656  10
  -4  -4  -3 505.997 52.7881   2
  -4   4  -3 584.929 53.3624   9
  -4  -4  -3 598.938 56.2540  14
  -4   4  -3 612.727 57.9448   8
  -4   4  -3 606.258 55.2383   5
   4   4  -3 563.450 54.9120   8
   4  -4  -3 471.240 54.2784  11
  -4   5  -3 48.5728 27.0658  11
  -5  -4  -3 54.4456 35.3258   9
  -5  -4  -3 -4.8446 34.2892  13
  -4   5  -3 67.0167 34.8869   4
   5   4  -3 -15.767 31.6935   8
   4  -5  -3 -5.2180 34.9429  15
  -5  -4  -3 39.2078 32.5949   8
   5   4  -3 6.78811 40.2545   4
  -4   5  -3 -6.7201 41.0388   1
   4  -5  -3 77.4329 36.8938  11
   5   4  -3 91.6647 33.1517   2
   5   4  -3 -0.4959 35.4852  12
   5   4  -3 -40.762 32.6714  11
  -5  -4  -3 -21.610 39.7438  10
   5   4  -3 41.6124 36.3437  15
  -4   5  -3 36.3695 27.5670   2
  -4   5  -3 -66.494 33.6170  13
   4  -5  -3 42.9595 38.2282   3
   4  -5  -3 -7.6012 36.1062  14
   4  -5  -3 -39.337 37.4020   5
   4  -5  -3 19.5774 41.3483   6
  -4   5  -3 -35.468 27.0337   9
   4  -5  -3 -53.622 35.6370   7
  -5  -4  -3 9.68390 30.3957   2
  -4   5  -3 39.0349 33.7672   8
  -5  -4  -3 71.7471 36.0291   5
   5   4  -3 18.0741 32.8116  14
   5   4  -3 19.5136 38.8498   3
   5   4  -3 -1.4949 40.4952   1
  -5  -4  -3 62.1668 34.7131   6
  -4   5  -3 47.0107 33.7563  12
  -5  -3  -3 227.460 43.7001  10
  -3   5  -3 214.447 42.0643  12
  -3   5  -3 202.153 38.8411   8
   3  -5  -3 190.804 43.8560  10
   5   3  -3 226.607 41.2385  15
   3  -5  -3 177.120 39.8443  14
   5   3  -3 122.563 35.4149   2
   3  -5  -3 179.587 39.6604   3
   5   3  -3 182.944 40.2737   7
  -5  -3  -3 175.232 36.2668   8
  -3   5  -3 143.926 46.9161   1
   3  -5  -3 127.109 39.9779   7
   5   3  -3 185.546 43.0383   3
  -3   5  -3 305.191 44.1706   4
  -3   5  -3 207.743 33.6323   2
  -5  -3  -3 177.263 39.3271   9
  -5  -3  -3 209.365 35.4145   2
  -3   5  -3 198.805 39.8232  13
  -5  -3  -3 134.462 39.5371   5
   5   3  -3 169.682 38.0140  11
  -3   5  -3 165.660 33.2695  11
   3  -5  -3 183.219 43.1765   6
  -5  -3  -3 158.914 36.5789   6
  -3   5  -3 168.886 33.5368   9
   3  -5  -3 196.676 43.0266   5
   5   3  -3 172.432 45.3175   4
  -5  -3  -3 245.270 41.5840  13
   5   3  -3 142.009 39.5365  12
   5   3  -3 196.267 42.3500   1
   5   3  -3 213.212 39.3477  14
   3  -5  -3 202.675 38.2098  15
  -5  -2  -3 374.486 48.0084  13
  -2   5  -3 455.399 47.8183  13
   5   2  -3 498.745 49.8657  14
   2  -5  -3 410.419 50.6978   7
  -5  -2  -3 463.957 48.6208   8
   2  -5  -3 404.747 51.6848   5
  -2   5  -3 364.879 51.1722   1
   2  -5  -3 437.372 52.8608   6
  -2   5  -3 413.436 52.4500   4
   2  -5  -3 356.011 47.1072   3
   2  -5  -3 420.818 45.7034  15
  -2   5  -3 354.507 48.1063   8
  -2   5  -3 403.634 44.3340   2
   5   2  -3 356.036 46.4582  12
  -5  -2  -3 358.135 45.5396   2
  -5  -2  -3 419.507 49.6044   5
   5   2  -3 456.539 50.9482   7
  -2   5  -3 503.607 43.3665   9
  -5  -2  -3 375.930 47.4670   9
  -2   5  -3 393.229 52.0536  12
   5   2  -3 406.815 53.5582   4
   5   2  -3 382.675 45.1725   2
   2  -5  -3 433.154 50.6326  14
   2  -5  -3 302.315 50.3605  10
   5   2  -3 322.940 49.0217   1
  -5  -2  -3 544.046 47.0113   6
  -5  -2  -3 399.175 51.3414  10
  -2   5  -3 427.541 45.0150  11
   5   2  -3 494.407 50.7265  15
   5   2  -3 314.590 45.8119  11
   5   2  -3 561.899 54.3518   3
  -5  -1  -3 72.2575 31.1392   8
  -1   5  -3 84.9677 37.1308  12
  -5  -1  -3 77.6162 37.4650  12
   1  -5  -3 60.1591 30.4632  15
  -5  -1  -3 90.0128 36.0776  13
   5   1  -3 67.7240 32.2505  12
   5   1  -3 15.8066 33.8466  14
   5   1  -3 15.8850 30.2361   2
   1  -5  -3 23.2789 35.3556  14
   5   1  -3 59.0675 39.3819   4
   1  -5  -3 31.3628 31.7748   3
  -1   5  -3 49.7970 32.6612  13
  -5  -1  -3 117.988 34.6458   5
   1  -5  -3 27.3009 33.3051   7
  -1   5  -3 32.0268 36.6422   4
  -1   5  -3 69.4158 24.9983   9
  -5  -1  -3 149.317 34.4998   9
   5   1  -3 -26.266 32.1755   7
  -1   5  -3 28.3012 30.4388  11
  -5  -1  -3 67.2992 30.1035   2
  -5  -1  -3 131.279 37.2603  10
   1  -5  -3 90.0445 38.5769   5
   1  -5  -3 15.3285 39.7686  10
  -1   5  -3 56.5908 28.3349   2
   5   1  -3 108.149 35.5677  11
   5   1  -3 58.8976 35.5679  15
  -1   5  -3 37.4242 32.2436   8
  -5  -1  -3 118.352 29.9317   6
   1  -5  -3 80.6536 40.3634   6
  -1   5  -3 40.9761 43.2630   1
   5   1  -3 40.3172 37.9450   3
   0   5  -3 28.6652 37.4375   3
  -5   0  -3 92.0318 32.4645   9
   5   0  -3 86.9867 42.0007   4
   0   5  -3 79.7263 42.8130   1
   0  -5  -3 54.7071 35.6293   5
   0  -5  -3 67.4478 44.6435   3
   0   5  -3 88.6987 31.0828   2
  -5   0  -3 79.5826 39.1386  12
   0   5  -3 120.650 32.9792  11
  -5   0  -3 138.425 35.3998  10
   5   0  -3 124.135 40.5991   7
   5   0  -3 126.593 35.8179  14
   5   0  -3 95.6221 40.9713   6
   0  -5  -3 86.4866 37.1872  10
   5   0  -3 97.5869 30.7905  12
   0  -5  -3 75.9398 36.0090  14
   5   0  -3 181.006 37.7844  15
   5   0  -3 99.8429 40.6378   3
  -5   0  -3 88.3269 33.9585   8
   0  -5  -3 140.127 41.1221   6
  -5   0  -3 120.677 34.3026  13
  -5   0  -3 62.5988 31.1635   2
   0   5  -3 137.696 37.6670  15
   0   5  -3 154.624 38.9369  12
   5   0  -3 100.929 37.1480  11
   0  -5  -3 79.5245 28.6022  15
   0  -5  -3 65.1632 35.8572   7
  -5   0  -3 116.655 34.5399   5
   0   5  -3 126.895 40.1475   9
   0   5  -3 94.4612 33.7415   8
   0  -5  -3 85.8816 34.6504   9
   0   5  -3 95.1657 41.2428   4
   0   5  -3 66.2985 33.9622  13
  -1  -5  -3 65.5265 34.4640   7
   1   5  -3 51.3334 31.9549   8
  -5   1  -3 23.6089 34.7789  10
   1   5  -3 118.920 39.1705   3
   5  -1  -3 118.277 35.2922  11
  -1  -5  -3 52.2879 35.6034   9
  -5   1  -3 103.325 34.9084  13
   1   5  -3 31.7564 41.3048   4
   1   5  -3 21.4767 30.0052   2
   1   5  -3 57.8857 42.5109   1
   5  -1  -3 59.8953 39.5976   3
   5  -1  -3 57.1326 34.2185  14
  -5   1  -3 74.4425 31.6899   9
  -5   1  -3 92.0658 32.7239   5
   5  -1  -3 70.6138 40.6600   6
  -1  -5  -3 26.2720 35.7167  14
   5  -1  -3 71.9231 39.3380   7
   5  -1  -3 28.0580 39.4330   4
  -5   1  -3 -2.3939 29.9621   8
  -5   1  -3 66.2642 28.1321   2
  -1  -5  -3 37.2680 35.0666   5
  -5   1  -3 -2.1924 36.5801   1
  -5   1  -3 94.1109 38.7345  12
   1   5  -3 19.7619 35.6422  15
   1   5  -3 98.1782 36.1211  12
   1   5  -3 44.8286 30.4400  13
  -1  -5  -3 30.5511 37.4692  10
   1   5  -3 100.146 32.4776  11
   5  -1  -3 91.5754 37.5994  15
  -1  -5  -3 19.6369 36.6610   6
   2   5  -3 378.528 45.1234   2
  -2  -5  -3 379.201 49.2292   9
   2   5  -3 412.841 47.2680   8
   5  -2  -3 427.104 54.8740   6
  -2  -5  -3 360.034 49.8434   5
  -2  -5  -3 424.558 49.0577   7
   2   5  -3 370.346 54.7528   1
  -2  -5  -3 389.579 47.1695   8
   5  -2  -3 529.854 50.0536  11
  -5   2  -3 409.315 49.8724   8
   2   5  -3 409.350 44.9836  13
  -2  -5  -3 450.605 50.1322  14
   5  -2  -3 425.019 53.0713   3
   2   5  -3 369.575 54.5379   4
   5  -2  -3 397.044 48.8777  14
   2   5  -3 461.354 47.4865  11
   2   5  -3 462.496 54.1424   3
  -5   2  -3 479.279 50.7947  12
   2   5  -3 514.077 53.0909  12
  -5   2  -3 317.557 45.1043  13
  -5   2  -3 377.596 46.9660   5
   5  -2  -3 408.196 49.2893  15
  -5   2  -3 488.296 55.7165   1
  -2  -5  -3 298.475 50.7432  10
  -2  -5  -3 414.728 51.5260   6
   2   5  -3 507.067 52.2147  15
  -5   2  -3 435.526 49.1539  10
   5  -2  -3 376.212 53.8258   7
  -5   2  -3 432.659 45.7606   2
  -5   2  -3 507.704 48.3351   9
   5  -2  -3 339.446 51.9167   4
   3   5  -3 212.251 35.1253  13
  -5   3  -3 234.223 41.0412  12
  -3  -5  -3 129.766 44.0460  10
   5  -3  -3 229.947 43.7001   3
   5  -3  -3 228.774 47.2873   6
  -5   3  -3 254.248 37.7704   9
   5  -3  -3 238.095 40.9897  11
   3   5  -3 161.486 45.9182   1
   3   5  -3 170.114 43.4878   3
  -5   3  -3 286.024 39.6071  10
  -5   3  -3 197.155 45.4281   1
  -3  -5  -3 141.724 36.8913   8
   3   5  -3 165.646 41.2894  15
   3   5  -3 156.489 38.4100  14
  -5   3  -3 215.717 34.4305  11
  -3  -5  -3 182.618 40.2357   9
  -3  -5  -3 174.956 38.2813   7
   3   5  -3 120.094 37.0385   8
   3   5  -3 188.215 37.7356   2
   5  -3  -3 170.627 39.5977   4
   5  -3  -3 191.666 40.7717  14
  -3  -5  -3 256.658 42.5188   6
   3   5  -3 229.732 48.5535   4
  -5   3  -3 176.708 35.9357   5
   3   5  -3 167.316 38.4602  11
  -3  -5  -3 192.402 40.0113  14
  -5   3  -3 227.219 33.5003   2
   5  -3  -3 191.416 41.6820  15
  -5   3  -3 219.396 39.9981   8
   5  -3  -3 135.789 43.5645   5
   3   5  -3 187.616 41.5266  12
  -3  -5  -3 251.438 43.1179   5
   5  -3  -3 232.285 47.8531   7
  -5   3  -3 190.095 40.8239  13
   4   5  -3 -29.352 32.6694  14
   4   5  -3 10.4390 34.8257  12
  -5   4  -3 16.1318 26.2989  11
  -5   4  -3 5.66765 28.7477   2
   4   5  -3 -18.570 42.3555   4
  -4  -5  -3 -12.304 32.8698   8
   5  -4  -3 25.6186 36.0897  14
  -5   4  -3 -19.438 33.8592  13
  -4  -5  -3 56.1068 37.8374   9
   5  -4  -3 50.5764 36.1760  11
   4   5  -3 95.4827 37.9369  15
  -5   4  -3 40.2196 35.8974  12
  -5   4  -3 -50.450 28.5259   5
   5  -4  -3 -7.4749 38.1044   5
   4   5  -3 -25.301 32.0722   2
  -4  -5  -3 19.7800 35.3443   5
  -5   4  -3 -27.062 39.0379   1
   5  -4  -3 -10.372 40.8728   3
   4   5  -3 29.7026 32.3551  11
  -5   4  -3 -10.360 30.2140   8
   4   5  -3 98.0162 40.0351   3
  -4  -5  -3 -39.109 34.9915   6
  -4  -5  -3 -9.2369 39.8456  10
   5  -4  -3 36.7373 36.0162  15
   5  -4  -3 -12.509 39.7725   6
   4   5  -3 -3.6799 32.1547   8
   4   5  -3 10.9081 31.0275  13
   4   5  -3 2.26448 38.9945   1
  -4  -5  -3 8.66509 35.2180  14
   5  -4  -3 30.4861 42.2850   7
  -5   4  -3 17.1563 29.7828   9
  -5   5  -3 633.654 58.3704   9
   5  -5  -3 657.207 59.5283  11
   5  -5  -3 467.533 63.5380   7
   5   5  -3 585.410 68.8236   4
  -5   5  -3 670.230 67.0170   1
  -5  -5  -3 609.901 59.6610   8
   5   5  -3 686.611 62.7396  15
   5   5  -3 625.955 59.6055  14
  -5  -5  -3 589.837 62.5068   5
  -5   5  -3 743.268 64.2086   2
  -5   5  -3 540.275 60.3985  12
   5  -5  -3 599.110 63.4088   3
   5   5  -3 551.349 55.6250   2
   5  -5  -3 601.816 60.1891  15
   5   5  -3 669.035 62.1010  12
  -5   5  -3 536.431 52.7682  11
   5   5  -3 715.138 65.8873   1
  -5  -5  -3 645.068 60.4367  14
   5  -5  -3 625.142 62.2995   5
  -5   5  -3 570.106 59.8761   8
   5   5  -3 582.504 63.6070   3
   5   5  -3 583.657 57.6225   8
   5  -5  -3 635.068 62.8684  14
  -5   5  -3 596.310 60.4151  13
   5   5  -3 667.097 58.6765  11
  -5  -5  -3 644.918 67.0680  10
  -5   5  -3 625.806 58.0295   5
  -5  -5  -3 547.098 61.1341   9
   5  -5  -3 559.312 63.9702   6
  -5  -5  -3 816.388 64.3957   6
   6   5  -3 79.9232 37.4623  12
   6   5  -3 62.3098 34.9254  14
   5  -6  -3 76.2399 38.6609  14
  -6  -5  -3 124.945 45.6105  10
  -5   6  -3 87.1447 29.0332  11
  -5   6  -3 -24.681 37.3356   1
  -6  -5  -3 117.085 39.7208   5
   5  -6  -3 93.2873 47.4122   7
   6   5  -3 103.828 39.1776  15
  -5   6  -3 113.422 37.8770  13
  -5   6  -3 48.8456 29.1692   2
   6   5  -3 117.244 37.1536  11
   5  -6  -3 32.5854 42.5320   6
   6   5  -3 92.2023 42.8541   3
  -6  -5  -3 68.5231 38.6137  13
   6   5  -3 47.7776 46.9677   4
  -5   6  -3 50.7713 33.7799   8
  -5   6  -3 113.091 32.9897   9
   5  -6  -3 74.9841 41.7511   3
  -5   6  -3 87.6003 37.4977   4
  -6  -5  -3 37.9724 39.5589   9
   6   5  -3 34.1039 36.2772   7
   5  -6  -3 94.8575 39.2869  15
   5  -6  -3 -1.8864 39.1605   5
   5  -6  -3 58.0240 43.7990  10
  -6  -5  -3 34.2184 34.2693   8
   6   5  -3 44.6738 33.8454   2
   6   5  -3 40.0821 39.7952   1
  -5   6  -3 128.968 37.6984  12
  -6  -5  -3 88.6357 39.7301   6
   6   4  -3 41.5488 36.0536  12
  -6  -4  -3 30.3670 43.0774  10
   4  -6  -3 15.2298 36.3041  14
   4  -6  -3 19.3799 35.1211  15
   4  -6  -3 15.8609 38.5358   3
  -4   6  -3 58.1223 36.1692  12
   6   4  -3 79.4969 34.4220  14
   6   4  -3 1.45483 36.5778  15
   4  -6  -3 11.3344 43.7366   7
  -4   6  -3 28.2264 37.9392   1
  -6  -4  -3 73.5606 37.6384   5
   6   4  -3 51.8264 32.5141   2
  -6  -4  -3 -38.933 30.4154   2
   6   4  -3 16.1972 38.0334   1
  -4   6  -3 -22.270 35.3023  13
   4  -6  -3 20.8162 38.1357   5
  -6  -4  -3 44.8763 36.3884  13
   4  -6  -3 74.0658 42.1394  10
  -6  -4  -3 45.0616 35.3895   6
  -4   6  -3 76.4037 30.5984   9
  -4   6  -3 64.6297 34.9281   8
   6   4  -3 59.4799 47.2857   4
   6   4  -3 38.3419 36.5973   7
   6   4  -3 33.0794 34.0256  11
  -6  -4  -3 68.8247 33.6753   8
  -4   6  -3 71.5954 37.5500   4
  -4   6  -3 39.1312 27.1803  11
  -4   6  -3 18.0889 31.5950   2
  -6  -4  -3 42.6081 36.8829   9
   4  -6  -3 20.0712 40.9225   6
   6   4  -3 46.3589 40.9001   3
  -3   6  -3 204.469 34.1549   2
  -6  -3  -3 185.486 40.2178   9
   6   3  -3 110.586 40.2865   7
   6   3  -3 176.804 42.7370   1
  -3   6  -3 157.703 43.4232   4
  -6  -3  -3 174.485 37.8798   8
   3  -6  -3 214.527 46.9749   7
   6   3  -3 181.327 38.7055  12
  -3   6  -3 171.982 41.7083  12
   6   3  -3 163.122 38.7623  11
   6   3  -3 130.563 45.7739   4
   3  -6  -3 221.673 45.0439   6
   6   3  -3 146.248 37.5409  14
  -6  -3  -3 213.818 39.9864   5
   3  -6  -3 162.580 38.5632  15
  -6  -3  -3 178.142 39.5501  13
  -3   6  -3 201.839 33.0638  11
  -6  -3  -3 177.646 37.4466   6
   3  -6  -3 164.113 42.6262   5
  -3   6  -3 246.063 34.1529   9
  -6  -3  -3 141.049 35.0620   2
  -3   6  -3 201.258 39.8749   8
  -6  -3  -3 154.763 41.8667  10
   6   3  -3 150.646 36.5163   2
  -3   6  -3 180.972 39.5824  13
   3  -6  -3 178.941 42.6709  14
   3  -6  -3 127.196 40.0583   3
   3  -6  -3 194.825 43.6786  10
   6   3  -3 134.831 43.4740   3
   6   3  -3 222.815 42.4257  15
  -3   6  -3 236.399 47.5567   1
  -6  -2  -3 34.7391 38.1514  10
   6   2  -3 20.6457 37.1447  15
  -6  -2  -3 23.2970 32.5157   8
  -2   6  -3 34.5910 34.8162   8
  -6  -2  -3 -16.055 28.4108   2
   6   2  -3 72.6246 35.7667  11
   2  -6  -3 30.2040 32.5293  15
  -2   6  -3 30.9810 37.9707   4
  -2   6  -3 75.0884 29.9128  11
   6   2  -3 69.2581 34.5039  14
   6   2  -3 124.238 35.5682   7
   6   2  -3 38.2431 39.4397   3
  -6  -2  -3 48.6899 35.2062   9
   6   2  -3 51.7139 35.6371  12
   2  -6  -3 94.8559 39.4886  10
   2  -6  -3 23.4963 40.8538   7
   6   2  -3 105.130 32.6930   2
   2  -6  -3 68.5625 38.5004   5
   2  -6  -3 101.876 41.2663   6
  -2   6  -3 45.4886 35.5034  12
  -2   6  -3 84.9900 35.1708  13
  -6  -2  -3 58.9529 35.2301  13
   6   2  -3 27.4407 34.9206   1
  -2   6  -3 88.7668 38.7157   1
   2  -6  -3 74.2343 33.1669   3
   2  -6  -3 100.715 37.8700  14
  -2   6  -3 76.0352 32.0209   2
  -6  -2  -3 86.0016 31.6102   6
   6   2  -3 54.8626 43.5048   4
  -6  -2  -3 58.5871 34.8771   5
  -2   6  -3 37.6564 27.2408   9
   1  -6  -3 115.636 31.6071  15
  -1   6  -3 128.643 34.7506   9
   1  -6  -3 103.115 38.1453  14
  -6  -1  -3 87.7997 30.7375   2
   6   1  -3 89.9876 38.7779  15
   1  -6  -3 53.8242 38.7652   5
   6   1  -3 110.062 36.5250  11
   1  -6  -3 71.1649 38.8932   7
  -1   6  -3 120.984 35.9449   8
  -6  -1  -3 148.659 36.4411   5
  -6  -1  -3 110.438 34.6365  13
  -1   6  -3 107.585 32.2718   2
   1  -6  -3 160.730 40.3441  10
   6   1  -3 122.433 36.3228  14
   6   1  -3 124.499 40.7896   4
  -1   6  -3 46.9986 39.6718   4
   6   1  -3 72.2546 34.9817   7
  -6  -1  -3 65.1112 33.9166   8
  -1   6  -3 112.151 35.5317  13
  -6  -1  -3 43.2446 34.8728   9
  -1   6  -3 72.4106 44.5101   1
  -1   6  -3 113.622 31.4682  11
   6   1  -3 181.454 34.0954  12
   1  -6  -3 116.089 43.2071   6
   6   1  -3 163.644 42.8570   3
  -6  -1  -3 57.8538 39.5788  10
  -1   6  -3 120.525 38.5755  12
   0   6  -3 69.1791 37.0061  12
   0  -6  -3 165.278 42.9900   6
   0  -6  -3 22.3109 36.3521  14
   0   6  -3 104.683 32.7262   2
   6   0  -3 134.419 36.1767  11
  -6   0  -3 229.526 37.2091   5
   0  -6  -3 184.711 38.9368   9
   0   6  -3 64.0014 40.9765   4
   6   0  -3 165.053 39.5175  15
   0   6  -3 123.160 40.4827   3
   6   0  -3 129.695 42.1482   3
   0   6  -3 105.483 33.6669  11
  -6   0  -3 95.9332 31.4024   2
   0   6  -3 142.366 36.3668   8
  -6   0  -3 126.443 38.8069  13
   0  -6  -3 87.3971 43.1895  10
  -6   0  -3 117.836 35.6809   8
  -6   0  -3 70.1534 36.6432  10
  -6   0  -3 98.4021 38.9549  12
  -6   0  -3 161.751 35.3792   9
   0   6  -3 94.5456 40.2148   1
   0  -6  -3 153.376 40.2961   5
   0   6  -3 37.3652 32.8926  13
   6   0  -3 96.9310 40.4579   4
   6   0  -3 65.9263 40.5001   7
   0  -6  -3 101.483 40.9011   7
   6   0  -3 33.6146 34.8321  14
  -6   0  -3 119.197 35.1439   1
   1   6  -3 157.351 40.3671   3
  -6   1  -3 99.3450 31.0916   2
   1   6  -3 132.105 34.3777  11
  -6   1  -3 90.9637 35.9157   8
   6  -1  -3 90.6027 36.7089  11
  -6   1  -3 97.9284 33.8387  13
   1   6  -3 61.5685 33.5806  13
  -6   1  -3 67.2698 39.3117  12
   1   6  -3 157.248 39.8200  15
  -1  -6  -3 106.636 40.2410   6
  -1  -6  -3 112.719 41.7116  10
   6  -1  -3 142.642 43.6066   6
  -1  -6  -3 144.887 38.8399   5
   1   6  -3 144.459 43.9896   4
   1   6  -3 117.159 32.9214   2
  -6   1  -3 100.085 37.4470  10
  -1  -6  -3 130.844 38.6232  14
   6  -1  -3 138.194 41.1465   4
   6  -1  -3 111.328 42.8346   7
   6  -1  -3 95.3446 35.9804  14
   6  -1  -3 82.1050 38.9760  15
   6  -1  -3 146.445 42.9282   3
  -1  -6  -3 93.3709 37.3076   9
  -6   1  -3 107.529 34.4946   9
  -6   1  -3 33.5699 36.4233   1
   1   6  -3 119.526 39.4981  12
  -6   1  -3 137.726 35.1850   5
   1   6  -3 120.862 46.2047   1
  -1  -6  -3 110.466 37.8533   7
   1   6  -3 129.603 35.0942   8
   2   6  -3 72.9429 33.5948   8
   2   6  -3 78.8572 32.8368   2
   2   6  -3 49.3537 32.7916  11
  -6   2  -3 67.8740 28.4183   2
  -6   2  -3 38.7131 36.8968  12
  -2  -6  -3 36.9220 35.6348  14
  -2  -6  -3 13.8268 36.0914   7
  -6   2  -3 61.3280 32.1617  10
  -6   2  -3 80.7208 32.6959   8
   2   6  -3 97.3453 38.3996  12
  -6   2  -3 18.0633 38.5653   1
  -2  -6  -3 51.2232 37.1171   5
   2   6  -3 -20.165 41.0821   4
  -6   2  -3 113.123 37.6038  13
  -6   2  -3 95.6673 33.3861   9
  -2  -6  -3 84.9004 40.4890   6
   6  -2  -3 83.0027 35.8351  11
   6  -2  -3 127.364 42.2745   6
   2   6  -3 59.9030 39.2563   3
   2   6  -3 110.898 39.0540  15
   6  -2  -3 75.0190 42.8650   7
   6  -2  -3 63.5115 40.4939   3
   6  -2  -3 46.8249 38.9842   4
   6  -2  -3 2.57142 34.6651  14
   2   6  -3 56.0429 42.8425   1
   2   6  -3 37.0119 33.9226  13
  -2  -6  -3 66.3557 40.6753  10
  -2  -6  -3 36.5429 37.3742   9
   6  -2  -3 95.8453 38.8131  15
  -6   2  -3 11.9049 30.4243   5
  -3  -6  -3 205.271 44.6847   6
   6  -3  -3 199.492 42.8715   4
   6  -3  -3 237.600 43.6688  15
   3   6  -3 211.423 46.6851   4
   3   6  -3 218.855 47.9444   1
   3   6  -3 136.631 36.3869  11
   3   6  -3 153.451 37.0925   8
  -6   3  -3 155.252 32.1064   2
   3   6  -3 177.641 34.1931  13
   6  -3  -3 206.064 40.8805  11
  -6   3  -3 242.775 43.2382  12
   6  -3  -3 187.819 47.6444   6
  -6   3  -3 247.356 37.5680   5
  -3  -6  -3 208.281 41.6073   5
   3   6  -3 215.988 37.4299   2
  -3  -6  -3 230.331 41.8170  14
   6  -3  -3 255.063 47.9011   3
   3   6  -3 151.229 42.3704  15
  -6   3  -3 237.835 39.0515   9
   3   6  -3 231.018 46.0167   3
  -3  -6  -3 114.669 38.5477   7
  -3  -6  -3 163.176 45.2243  10
   3   6  -3 229.267 44.4710  12
  -6   3  -3 263.632 46.9619   1
   6  -3  -3 144.713 42.8545   7
  -6   3  -3 212.073 38.1062  10
  -6   3  -3 187.150 37.9395   8
  -6   3  -3 147.156 40.4404  13
   6  -3  -3 234.078 42.6101  14
  -3  -6  -3 194.413 42.7130   9
   6  -4  -3 48.9669 42.9883   6
  -4  -6  -3 42.6342 37.9810   9
   6  -4  -3 86.4330 36.9742  11
   6  -4  -3 72.3772 34.6365   4
  -4  -6  -3 3.41220 32.5806   7
  -4  -6  -3 38.9802 38.0214   5
   6  -4  -3 32.1755 44.3376   7
   4   6  -3 151.112 43.3759   1
  -6   4  -3 126.015 33.4600  10
  -6   4  -3 65.7173 28.4839  11
  -6   4  -3 87.9074 37.7030  13
  -4  -6  -3 15.7546 33.8055   8
  -4  -6  -3 41.3973 35.8675  14
   4   6  -3 -24.298 27.4282  13
   4   6  -3 126.496 42.2573   3
   4   6  -3 -5.9561 37.3921  12
   6  -4  -3 107.493 41.2599  15
  -6   4  -3 20.5489 29.4927   2
   4   6  -3 62.2469 34.2257   2
  -4  -6  -3 54.4238 44.0627  10
   6  -4  -3 54.6194 36.7964  14
   4   6  -3 -25.113 37.3607  15
  -6   4  -3 49.2995 32.3220   9
  -6   4  -3 103.463 35.8367   8
   4   6  -3 53.1229 34.5661  11
  -4  -6  -3 13.6326 39.3914   6
   4   6  -3 95.5080 34.7007   8
  -6   4  -3 43.7776 36.0563  12
   6  -4  -3 37.6351 42.7482   3
   4   6  -3 100.675 47.9118   4
  -6   4  -3 35.7261 29.8119   5
  -6   4  -3 62.9269 36.8538   1
   6  -5  -3 76.3324 37.8164  11
  -5  -6  -3 92.2273 40.1272   9
  -6   5  -3 66.2559 35.1617   8
   6  -5  -3 127.770 47.3981   7
   5   6  -3 125.263 40.4662  15
   5   6  -3 67.8372 41.5402   3
   5   6  -3 107.154 34.3845   8
   5   6  -3 53.4393 36.1835  14
   5   6  -3 45.3054 29.9601  13
   6  -5  -3 66.6154 38.0834  14
  -6   5  -3 70.8942 42.6345   1
   6  -5  -3 -35.154 42.6157   6
   6  -5  -3 97.4763 43.8927   3
   6  -5  -3 68.0388 40.2613  15
  -5  -6  -3 63.3724 35.0524   8
   5   6  -3 -5.3467 47.3581   4
  -6   5  -3 77.0773 32.8006   9
  -6   5  -3 121.636 33.2150   5
  -5  -6  -3 5.90713 39.2069   5
  -6   5  -3 65.7995 32.0404   2
  -5  -6  -3 88.3199 36.6767  14
   6  -5  -3 50.0844 41.5836   5
  -6   5  -3 49.9737 34.5489  12
  -6   5  -3 84.3088 37.3542  13
  -6   5  -3 69.0470 28.3275  11
  -5  -6  -3 46.4841 45.2302  10
   5   6  -3 28.4074 41.1211   1
   6  -5  -3 82.2077 36.6719   4
   5   6  -3 -3.0775 39.6689  12
   5   6  -3 90.1671 35.6283   2
   5   6  -3 97.0264 34.8294  11
  -6   5  -3 89.9908 31.5332  10
  -5  -6  -3 57.1286 42.5690   6
   6   6  -3 449.518 50.7529  11
   6   6  -3 465.939 55.9599  12
  -6   6  -3 480.050 53.9745   4
  -6   6  -3 478.142 49.1642   2
   6  -6  -3 362.105 53.3285   5
  -6   6  -3 459.586 44.3350  11
   6  -6  -3 444.484 55.0335  15
   6  -6  -3 469.235 57.9738   6
   6   6  -3 456.808 55.9828   1
  -6  -6  -3 414.668 55.6740   9
   6  -6  -3 380.706 59.6875   7
  -6   6  -3 497.999 51.4231   9
   6   6  -3 598.654 57.9935  15
   6  -6  -3 357.604 52.5803  14
   6   6  -3 365.359 55.8065   3
  -6   6  -3 408.511 51.6696   8
  -6  -6  -3 483.944 56.7434   5
   6   6  -3 431.621 48.0874   2
  -6   6  -3 500.880 52.5602  12
  -6  -6  -3 446.696 52.9905  13
   6   6  -3 468.318 64.9451   4
  -6  -6  -3 426.349 52.3337   8
   6  -6  -3 400.055 57.3588   3
  -6   6  -3 531.258 62.0785   1
  -6  -6  -3 447.527 60.3324  10
   6   6  -3 419.072 51.4351  14
   6  -6  -3 431.676 51.4640  11
   6   6  -3 427.448 61.0603  13
  -6  -6  -3 612.271 59.4102   6
  -6   6  -3 415.331 48.8407  13
  -7  -6  -3 214.008 42.0388   8
  -6   7  -3 236.896 42.4178  13
   6  -7  -3 201.601 50.0016  10
   7   6  -3 170.796 47.5285   3
   7   6  -3 99.1070 39.6489   7
  -7  -6  -3 198.483 40.8734  13
  -6   7  -3 219.576 43.0421  12
   6  -7  -3 245.473 51.3408   7
   6  -7  -3 200.202 51.1128   6
  -6   7  -3 204.186 38.7154   9
  -6   7  -3 243.356 43.4717   4
   6  -7  -3 223.266 50.6773   3
   7   6  -3 140.899 40.4329  14
  -6   7  -3 230.507 51.5545   1
   6  -7  -3 238.492 47.1370  15
  -7  -6  -3 258.302 48.1889   6
  -6   7  -3 198.610 32.2487  11
   7   6  -3 217.284 56.1756   4
   7   6  -3 163.256 37.9352   2
   7   6  -3 200.628 46.3792   1
   7   6  -3 126.778 44.6837  15
  -7  -6  -3 157.211 51.1783  10
  -7  -6  -3 259.473 46.9998   9
   7   6  -3 165.798 45.9311  12
   6  -7  -3 186.364 44.6411   5
  -5   7  -3 185.402 36.6365   9
   7   5  -3 150.847 44.4227   1
   7   5  -3 164.614 51.8513   4
  -7  -5  -3 191.935 50.0166  10
   7   5  -3 156.379 37.6152  14
   7   5  -3 116.806 41.7270  15
   5  -7  -3 143.309 42.1834   5
  -7  -5  -3 163.528 39.5289  13
  -5   7  -3 129.267 39.1080  12
   7   5  -3 210.914 45.1857  12
   7   5  -3 91.3930 35.1838   2
   7   5  -3 173.262 45.7645   3
   5  -7  -3 113.586 41.6297  14
   5  -7  -3 195.639 43.3251  15
  -5   7  -3 169.650 39.5018   8
  -5   7  -3 209.804 46.4756   1
   5  -7  -3 212.821 47.4635   3
  -7  -5  -3 111.274 37.2556   8
  -5   7  -3 158.713 39.7087  13
  -5   7  -3 199.103 36.6076   2
   5  -7  -3 163.878 45.5993   6
  -7  -5  -3 177.939 44.0454   5
  -7  -5  -3 160.426 43.5545   6
  -5   7  -3 145.110 31.3288  11
   7   5  -3 132.404 40.3533   7
  -7  -5  -3 150.732 42.8384   9
   7   5  -3 179.580 40.4947  11
  -5   7  -3 148.904 42.3393   4
   5  -7  -3 141.422 48.1977   7
   5  -7  -3 171.483 44.1118  10
   4  -7  -3 -0.5584 39.0118  10
   7   4  -3 57.2773 38.1850   7
   4  -7  -3 81.2275 37.9600  15
  -4   7  -3 63.9666 31.0236   9
  -7  -4  -3 43.6691 32.2435   2
   4  -7  -3 -62.066 38.1466   6
  -7  -4  -3 32.6815 38.9544   9
  -7  -4  -3 26.1557 43.6983  10
   7   4  -3 16.3231 37.6890  12
   7   4  -3 41.3889 39.5499   1
   4  -7  -3 53.2267 38.7696   3
  -4   7  -3 92.1885 39.2272  12
  -7  -4  -3 30.5466 36.6394   6
  -4   7  -3 45.5825 37.3045   4
  -4   7  -3 32.9758 30.6553   2
   4  -7  -3 86.3435 39.4627  14
  -4   7  -3 -0.4313 33.1049   8
   7   4  -3 -27.949 34.2611  11
   7   4  -3 26.0782 34.3064  14
  -4   7  -3 72.8558 46.4451   1
   4  -7  -3 67.1619 39.3729   5
  -7  -4  -3 -4.7807 35.9349   5
   4  -7  -3 100.813 47.3613   7
   7   4  -3 76.5537 47.7169   4
   7   4  -3 78.9140 38.9493  15
   7   4  -3 31.3724 40.4987   3
  -4   7  -3 36.0134 35.5636  13
  -7  -4  -3 87.6706 34.4248   8
  -7  -4  -3 1.26571 35.0329  13
   7   4  -3 42.0957 33.2067   2
  -4   7  -3 60.7147 27.8270  11
  -3   7  -3 80.7578 28.9556  11
   7   3  -3 11.7962 40.0470   3
   3  -7  -3 62.1305 39.5383   5
  -7  -3  -3 107.718 35.2403   8
   7   3  -3 75.5266 40.6415   1
   7   3  -3 29.0133 36.1310  12
   3  -7  -3 144.320 43.2459  10
   3  -7  -3 -18.069 33.3411  15
   7   3  -3 151.705 36.4528  14
  -7  -3  -3 11.7929 41.1189  10
   3  -7  -3 33.2910 38.4465  14
   3  -7  -3 111.588 46.9864   7
  -3   7  -3 60.0326 39.5881   4
  -3   7  -3 37.6924 35.9165  12
   3  -7  -3 23.1192 36.6077   3
  -7  -3  -3 79.6046 35.6744   5
   7   3  -3 60.2522 32.8712   2
  -3   7  -3 155.943 38.2342  13
   7   3  -3 -18.342 34.9128  11
  -7  -3  -3 57.8187 36.2016   9
  -3   7  -3 65.3847 29.3356   9
   7   3  -3 46.6979 45.1393   4
   7   3  -3 79.5309 39.5738   7
  -7  -3  -3 35.8547 31.8154   2
  -7  -3  -3 103.761 38.4749  13
  -7  -3  -3 94.9046 36.0524   6
   3  -7  -3 61.3980 41.6062   6
  -3   7  -3 84.2445 31.7920   2
  -3   7  -3 66.3288 35.9006   8
  -3   7  -3 45.7313 45.0927   1
   7   3  -3 4.56527 37.7210  15
  -2   7  -3 -52.509 35.2067  12
  -2   7  -3 -26.308 44.2152   1
  -7  -2  -3 66.2570 35.0694   5
   2  -7  -3 31.4978 39.1469   5
  -7  -2  -3 25.0351 39.2375  10
   2  -7  -3 -20.630 31.3879  15
   2  -7  -3 -7.9207 42.0945   7
   7   2  -3 -47.506 39.6993   4
   7   2  -3 17.0666 39.8904   3
  -7  -2  -3 -32.746 28.4902   2
   2  -7  -3 39.9727 43.7041   6
  -2   7  -3 -14.774 32.2081   8
   7   2  -3 5.38880 36.3691  11
  -2   7  -3 27.7882 34.2450  13
  -7  -2  -3 29.6482 37.0872  13
   2  -7  -3 -33.231 38.8370  10
  -2   7  -3 58.5042 30.9181   2
   2  -7  -3 -27.883 37.5492  14
  -2   7  -3 -16.752 37.2838   4
   7   2  -3 69.1431 33.9301  14
  -2   7  -3 9.77162 29.0186  11
   7   2  -3 -57.726 32.4932   1
   7   2  -3 4.85169 37.9483   7
   7   2  -3 20.3131 32.5350  12
  -2   7  -3 50.0985 33.9557   9
  -7  -2  -3 14.0181 31.8785   8
  -7  -2  -3 -6.5335 32.7632   9
   7   2  -3 -11.412 36.6024  15
  -7  -1  -3 579.504 60.6950  13
   7   1  -3 675.555 62.1632  15
   7   1  -3 631.785 64.0020   3
   7   1  -3 612.419 58.3274  11
  -1   7  -3 627.622 58.6756  13
   1  -7  -3 657.640 64.2348   6
  -1   7  -3 660.587 66.3354   4
  -1   7  -3 615.505 55.4094  11
   1  -7  -3 540.434 65.0382  10
  -1   7  -3 539.083 56.5148   2
   1  -7  -3 585.288 62.4796   7
   7   1  -3 596.082 59.0671  14
  -1   7  -3 676.502 63.8567  12
  -1   7  -3 652.064 68.9555   1
  -1   7  -3 534.218 59.1211   8
   7   1  -3 574.679 62.2001   7
   1  -7  -3 587.660 61.9279   5
  -7  -1  -3 645.403 60.1602   9
  -7  -1  -3 714.092 67.3343  10
   1  -7  -3 495.662 60.1123  14
  -7  -1  -3 706.077 68.2764   8
  -7  -1  -3 554.774 57.9750   5
  -7  -1  -3 601.013 56.1022   2
   7   1  -3 664.172 64.8111   4
   0   7  -3 119.284 42.4190   1
  -7   0  -3 150.083 38.5066  10
   0  -7  -3 148.710 40.1531   5
  -7   0  -3 157.181 33.8385   2
   0   7  -3 134.837 36.9081  13
   0  -7  -3 220.250 48.5325   6
   7   0  -3 215.709 46.1907   3
  -7   0  -3 158.504 39.1103   1
   7   0  -3 140.573 37.8313  14
   7   0  -3 127.938 45.7467   4
  -7   0  -3 141.533 36.4528   5
   0   7  -3 174.749 45.1630   4
  -7   0  -3 214.953 38.8114   8
   0  -7  -3 142.400 41.6785   7
  -7   0  -3 112.422 40.4761  13
   0  -7  -3 214.913 41.9122  14
  -7   0  -3 205.761 39.0622   9
   0   7  -3 169.427 38.9095   8
   0   7  -3 160.387 36.4050   2
   0   7  -3 137.562 34.2316  11
   0  -7  -3 115.595 44.8201  10
   0   7  -3 150.993 40.5072  12
   7   0  -3 170.028 38.9906  11
   7   0  -3 151.907 44.5137   7
   7   0  -3 187.619 42.0453  15
  -7   1  -3 633.833 58.9382   5
   1   7  -3 696.122 67.9021   8
   1   7  -3 541.179 56.0519  11
   1   7  -3 589.106 66.7510   4
  -1  -7  -3 716.425 65.6906   6
  -7   1  -3 624.143 59.3464   9
   7  -1  -3 663.706 62.5695  15
  -7   1  -3 602.715 62.4734  12
   1   7  -3 679.537 64.0065  12
  -7   1  -3 681.579 63.3864   8
  -7   1  -3 652.406 60.2093  10
  -7   1  -3 659.777 63.7049   1
   7  -1  -3 484.779 62.6301   4
   7  -1  -3 555.273 60.7884   7
   7  -1  -3 623.639 59.0717  11
   7  -1  -3 691.286 64.9381   3
   1   7  -3 575.966 57.3665   2
  -1  -7  -3 594.476 61.7352   7
  -1  -7  -3 548.222 63.7528  10
   7  -1  -3 746.189 69.3580  14
  -7   1  -3 561.458 58.1258  13
  -1  -7  -3 476.289 60.6788   9
   1   7  -3 606.885 56.5878  13
  -7   1  -3 686.265 63.4725   2
   7  -1  -3 610.901 64.0701   6
  -1  -7  -3 500.450 60.2863   5
   1   7  -3 657.697 61.9299  15
  -1  -7  -3 613.834 60.4192  14
   1   7  -3 628.240 68.0305   1
   1   7  -3 652.196 63.4831   3
  -7   2  -3 33.5351 36.9320  12
   7  -2  -3 35.3671 37.1856  14
  -2  -7  -3 60.7795 38.7039   5
   2   7  -3 17.6224 31.3789  11
   2   7  -3 40.7130 32.7252   8
  -2  -7  -3 -22.548 38.7812   6
   2   7  -3 9.29261 41.7908   1
   2   7  -3 -6.8437 41.5350   4
  -7   2  -3 5.80958 32.6526   8
   7  -2  -3 65.0077 44.0754   6
   2   7  -3 40.3904 33.3207   2
   7  -2  -3 26.2072 43.1657   7
  -7   2  -3 -7.5030 37.1929   1
  -2  -7  -3 8.40486 37.3582   9
   2   7  -3 89.7681 40.2234   3
   7  -2  -3 -21.540 42.4293   3
   2   7  -3 7.92475 39.1893  12
  -7   2  -3 -35.451 36.7257  13
   2   7  -3 0.20938 36.1681  15
  -7   2  -3 34.7836 32.9486   9
  -7   2  -3 -25.625 31.4827  10
   2   7  -3 11.4004 32.9325  13
  -2  -7  -3 -38.078 34.6401  14
  -2  -7  -3 49.5140 44.2346  10
  -2  -7  -3 39.0884 37.3574   7
   7  -2  -3 17.1575 39.0867  15
  -7   2  -3 72.8095 31.8411   5
  -7   2  -3 24.3588 27.8630   2
   7  -2  -3 -8.8209 38.8083   4
   7  -2  -3 -19.994 35.4014  11
   7  -3  -3 104.427 39.0819  14
   7  -3  -3 107.256 41.2532  15
  -7   3  -3 127.005 35.5132  13
  -7   3  -3 126.694 40.9187   1
  -3  -7  -3 43.3253 42.6592  10
   7  -3  -3 142.091 45.4999   3
   3   7  -3 96.7309 45.8018   1
   7  -3  -3 75.4613 47.7437   7
  -7   3  -3 47.0686 31.4356  10
  -7   3  -3 81.7489 38.6916  12
  -7   3  -3 95.5476 34.5304   9
   3   7  -3 16.7847 33.9892   2
  -3  -7  -3 80.4165 39.2140   5
   3   7  -3 82.6214 34.0117  13
   3   7  -3 56.3755 39.7359  12
   3   7  -3 47.3155 40.0181   3
   3   7  -3 146.627 49.4501   4
   3   7  -3 71.2901 34.0891  11
  -3  -7  -3 89.1847 41.3557   6
   3   7  -3 80.5427 33.6567   8
   3   7  -3 40.0750 40.7512  15
   7  -3  -3 70.2838 43.9094   6
  -3  -7  -3 70.0164 37.5638   7
  -3  -7  -3 111.067 40.4624   9
   7  -3  -3 53.9201 36.7508  11
  -7   3  -3 52.8974 32.4793   8
  -7   3  -3 74.3925 29.4568   2
   7  -3  -3 39.0630 35.3736   4
  -7   3  -3 164.079 34.7571   5
  -3  -7  -3 60.2730 36.8991  14
   4   7  -3 55.0436 44.2883   1
   7  -4  -3 47.2867 37.0349  11
  -4  -7  -3 14.7171 38.7301   9
  -7   4  -3 47.9489 30.4307   5
   4   7  -3 59.1343 39.5166  15
  -7   4  -3 30.8334 30.1104  10
  -7   4  -3 59.1406 29.8906   2
  -7   4  -3 54.6792 34.0522   9
   7  -4  -3 13.1341 34.9907   4
  -4  -7  -3 9.68842 35.4608  14
   4   7  -3 29.3192 34.6591  11
   4   7  -3 26.1948 33.7031   8
  -7   4  -3 1.35206 39.1532   1
   4   7  -3 86.6696 33.4175  13
  -4  -7  -3 46.0727 35.1837   7
  -4  -7  -3 11.8017 38.9471   5
   7  -4  -3 -14.225 36.6577  14
   7  -4  -3 20.2856 41.0182   7
   4   7  -3 5.51669 45.0207   4
   4   7  -3 63.1082 34.3625   2
  -4  -7  -3 -0.0006 40.2770   6
  -4  -7  -3 38.4386 45.8416  10
   4   7  -3 76.5093 40.3882  12
  -7   4  -3 -4.6587 35.2473  12
  -7   4  -3 60.8176 37.1901  13
   7  -4  -3 28.6087 43.2458   6
   7  -4  -3 29.0818 38.7281  15
   4   7  -3 77.3128 41.7059   3
   7  -4  -3 140.327 47.1197   3
  -7   4  -3 63.3949 32.8379   8
  -7   5  -3 196.549 42.3036  13
  -5  -7  -3 181.382 41.0946  14
  -5  -7  -3 139.456 40.0160   7
  -7   5  -3 161.998 33.1340   2
   5   7  -3 112.071 42.9410  15
   5   7  -3 197.409 52.6789   4
  -5  -7  -3 135.605 42.8524   5
   7  -5  -3 207.649 40.9601  11
   5   7  -3 177.797 38.7148  11
  -7   5  -3 187.069 35.8978   5
  -7   5  -3 211.716 40.1724   8
   5   7  -3 160.095 38.4435   8
   5   7  -3 206.573 48.3414   1
   5   7  -3 166.701 46.0062   3
   7  -5  -3 238.620 51.7635   7
  -5  -7  -3 243.610 48.9512   6
  -7   5  -3 227.222 46.7155   1
   5   7  -3 131.388 37.7683   2
  -7   5  -3 254.087 40.6281   9
   7  -5  -3 191.935 42.7944  14
  -5  -7  -3 135.777 45.0939   9
   7  -5  -3 160.191 39.3947   4
  -5  -7  -3 163.716 50.4909  10
   7  -5  -3 237.209 51.4118   3
   7  -5  -3 239.750 50.4391   6
   5   7  -3 194.454 47.1743  12
   7  -5  -3 188.018 44.7919  15
  -7   5  -3 189.028 41.5975  12
   6   7  -3 276.566 40.4345   2
  -7   6  -3 220.259 40.6242   9
   6   7  -3 148.794 48.8997  12
   7  -6  -3 173.026 44.7587   7
  -7   6  -3 216.991 49.3772   1
  -7   6  -3 161.319 31.7296  11
   7  -6  -3 234.675 51.5859   6
  -7   6  -3 252.748 44.1547  12
   7  -6  -3 216.731 51.8608   3
   6   7  -3 203.499 47.9169   3
  -6  -7  -3 295.790 51.3123   6
   6   7  -3 159.037 38.6752   8
  -6  -7  -3 190.044 40.8004  14
  -6  -7  -3 158.786 47.7502  10
   7  -6  -3 178.759 47.1974  15
  -7   6  -3 245.437 57.5368   2
   6   7  -3 139.534 47.2719   1
   6   7  -3 186.672 50.7687   4
   6   7  -3 179.202 45.5194  15
  -7   6  -3 264.182 40.0018  13
  -6  -7  -3 225.785 47.7326   9
   7  -6  -3 187.499 41.6384  11
  -7   7  -3 60.3698 37.8396  12
  -7   7  -3 124.799 36.0762   9
   7   7  -3 120.052 36.7575   7
  -7  -7  -3 30.2442 42.1286   9
  -7  -7  -3 74.0422 36.7753   8
  -7  -7  -3 97.8038 37.7755  13
   7  -7  -3 91.8166 45.4577  15
  -7  -7  -3 36.8298 47.5780  10
   7  -7  -3 134.046 49.5054   7
   7   7  -3 104.206 45.1396   3
   7  -7  -3 45.9518 40.2505   5
  -7   7  -3 163.092 41.6261   4
  -7   7  -3 90.8625 46.7272   1
   7  -7  -3 15.7177 47.9586   3
   7  -7  -3 135.827 46.0987   6
   7   7  -3 53.1692 45.8558   1
  -7  -7  -3 119.711 48.0050   6
   7   7  -3 -18.465 40.4256  15
   7   7  -3 90.0429 45.6992  12
   7  -7  -3 94.0402 43.2118  10
  -7   8  -3 133.241 39.5277   4
  -7   8  -3 75.1880 38.2244  12
   8   7  -3 48.6609 37.7079   7
  -8  -7  -3 133.430 37.7653  13
   7  -8  -3 60.5304 45.7458   6
  -7   8  -3 60.0995 41.4278   1
  -8  -7  -3 82.9660 43.8034   9
   7  -8  -3 63.9211 48.5631   3
   7  -8  -3 116.085 46.3353  15
  -8  -7  -3 88.8576 49.9658   6
   8   7  -3 125.567 47.5515   3
   8   7  -3 54.1075 47.9300  12
  -7   8  -3 75.4588 36.5170   9
   8   7  -3 106.068 44.3745  15
   7  -8  -3 116.314 44.0212  10
  -8  -6  -3 -20.071 45.4186   6
  -6   8  -3 41.8275 47.9057  11
   6  -8  -3 -53.250 42.4292  10
   8   6  -3 -9.4298 39.3931  15
   8   6  -3 62.0148 39.3227   7
   6  -8  -3 28.3045 46.1495   6
  -6   8  -3 1.98158 35.6514  12
   8   6  -3 -9.7592 43.4045  12
   8   6  -3 101.541 53.3717  14
   8   6  -3 -19.627 43.9055   3
   6  -8  -3 75.8214 46.5440   3
  -6   8  -3 24.9884 44.0547   1
  -8  -6  -3 53.7467 36.4410  13
  -8  -6  -3 46.8817 50.2886  10
  -6   8  -3 39.6186 33.1239   9
  -8  -6  -3 55.0610 41.7546   9
   6  -8  -3 21.7114 42.3819  15
   6  -8  -3 52.0492 47.9025   7
  -6   8  -3 29.1314 39.0641   4
  -8  -5  -3 693.241 62.7380   6
   5  -8  -3 524.274 59.7623  15
   5  -8  -3 522.448 58.2903   5
  -8  -5  -3 512.447 64.7969  10
  -5   8  -3 573.025 66.4333   1
  -5   8  -3 471.450 58.4902  12
   8   5  -3 546.148 56.9301   2
  -5   8  -3 663.651 62.8464   4
  -8  -5  -3 487.713 56.2230  13
   8   5  -3 575.878 61.2526  12
   8   5  -3 401.880 68.5395   4
   8   5  -3 461.327 56.5100   7
   8   5  -3 525.273 60.6532  15
  -8  -5  -3 537.010 61.2475   9
   5  -8  -3 558.927 61.5854  10
   8   5  -3 527.848 62.9011   3
  -5   8  -3 518.111 55.9245  13
   5  -8  -3 493.852 62.3107   6
  -5   8  -3 559.057 49.1296  11
  -5   8  -3 636.010 55.2177   9
   5  -8  -3 462.679 60.2112   7
  -8  -4  -3 123.876 38.2779   8
   4  -8  -3 73.1170 40.5531   5
   8   4  -3 144.803 39.6144  11
  -4   8  -3 91.3872 39.0786   8
  -4   8  -3 104.853 32.5968   9
  -8  -4  -3 174.144 43.3220   9
  -4   8  -3 137.497 55.8547   2
   4  -8  -3 46.8019 40.7161  14
   8   4  -3 89.3265 36.3275  14
  -4   8  -3 64.4288 37.5739  13
  -4   8  -3 153.225 44.9371   1
   8   4  -3 92.9417 41.4047   7
   4  -8  -3 59.5110 44.8520   7
   4  -8  -3 117.406 45.4940  10
   4  -8  -3 97.0527 43.8194   3
   8   4  -3 130.629 41.4114  12
  -4   8  -3 112.656 41.3779  12
   8   4  -3 122.334 41.6895  15
  -8  -4  -3 120.585 40.3214   6
  -8  -4  -3 100.606 41.5530   5
  -4   8  -3 128.216 44.1747   4
  -8  -4  -3 156.234 42.6494  13
  -8  -4  -3 48.6273 33.9342   2
   8   4  -3 73.6166 42.8442   3
   8   4  -3 140.236 42.0912   1
  -8  -4  -3 175.813 48.2638  10
   4  -8  -3 110.489 45.5677   6
  -4   8  -3 104.168 29.4438  11
   4  -8  -3 115.970 39.4628  15
   8   4  -3 218.076 51.4776   4
   8   3  -3 53.6171 46.4340   4
   3  -8  -3 68.0666 40.0923  14
   3  -8  -3 27.8690 43.7800  10
   8   3  -3 61.8041 36.9173  14
  -3   8  -3 93.0806 36.8405  12
   8   3  -3 162.071 45.3316   3
   3  -8  -3 63.6255 44.0771   6
   8   3  -3 168.957 40.7178   7
  -3   8  -3 47.9802 46.9293   1
  -3   8  -3 124.570 43.3630   4
  -8  -3  -3 137.650 40.1349   5
   3  -8  -3 127.984 46.8778   7
  -3   8  -3 174.531 37.3350  13
  -3   8  -3 97.6353 30.7492  11
  -8  -3  -3 46.5576 38.5519  13
   3  -8  -3 175.062 43.8795   5
  -3   8  -3 157.840 39.2222   8
  -8  -3  -3 90.5100 36.9439   8
  -8  -3  -3 148.882 47.2683  10
  -3   8  -3 87.0617 34.7595   9
  -8  -3  -3 122.000 39.4936   9
   8   3  -3 119.196 38.2652  11
   3  -8  -3 87.9335 36.6929  15
   8   3  -3 94.9442 37.4305  12
  -8  -3  -3 141.227 35.0284   2
   8   3  -3 111.633 41.7137   1
  -3   8  -3 60.8090 32.0213   2
   8   3  -3 58.0363 41.4165  15
  -2   8  -3 372.470 45.6299  13
   2  -8  -3 355.930 52.9951   6
  -2   8  -3 327.765 51.4130  12
   8   2  -3 321.687 57.3727   4
  -8  -2  -3 399.073 53.3041  10
  -8  -2  -3 338.317 42.7238   2
  -2   8  -3 328.078 51.3310   4
   2  -8  -3 351.641 50.8992  14
  -2   8  -3 352.932 41.7518  11
   2  -8  -3 402.830 55.6623  10
  -8  -2  -3 322.371 47.0493   5
  -2   8  -3 345.045 49.2103   8
  -2   8  -3 384.100 45.7528   2
   2  -8  -3 366.384 49.8509   5
   8   2  -3 367.826 50.1759  15
   8   2  -3 311.111 47.9631  11
   8   2  -3 260.386 45.8429   1
   8   2  -3 302.947 50.7736   7
   8   2  -3 280.599 51.2768   3
  -8  -2  -3 331.848 48.6732   9
   2  -8  -3 361.682 52.7589   7
  -8  -2  -3 364.007 49.2008  13
   8   2  -3 314.133 46.4061  14
  -8  -2  -3 391.850 48.4313   8
  -2   8  -3 464.540 60.5129   1
  -1   8  -3 652.810 56.1635   2
   1  -8  -3 546.410 63.3255   6
  -8  -1  -3 506.935 55.9342   5
  -8  -1  -3 546.460 57.9953   9
  -8  -1  -3 564.651 61.2899  10
  -1   8  -3 586.904 64.7034   4
   1  -8  -3 527.229 62.3475   7
  -8  -1  -3 503.671 57.8512  13
  -8  -1  -3 547.022 58.5857   1
   8   1  -3 479.487 59.2585  15
   8   1  -3 464.257 54.8338  14
  -1   8  -3 540.140 54.9277  13
  -1   8  -3 515.096 62.6041   1
  -1   8  -3 585.435 58.6905   8
   1  -8  -3 471.990 57.6654   5
   1  -8  -3 534.464 58.2847  14
   8   1  -3 520.048 62.4468   3
   8   1  -3 439.711 59.8763   4
  -1   8  -3 744.657 63.9652  11
   1  -8  -3 568.424 64.7147  10
  -8  -1  -3 601.698 54.0473   2
   8   1  -3 582.064 61.8099   7
  -8  -1  -3 525.678 56.7112   8
  -1   8  -3 526.244 58.4583  12
   8   1  -3 591.812 56.8224  11
   0   8  -3 7.90001 34.4782   8
   0   8  -3 5.98529 30.3625  11
   0   8  -3 9.65168 33.1943  13
   8   0  -3 13.9075 41.2224   3
  -8   0  -3 0.10709 30.5923   5
   8   0  -3 40.3730 39.5104  15
   0   8  -3 5.78081 41.1858   4
   0   8  -3 -112.79 35.2309  12
  -8   0  -3 22.4458 34.3984   9
   0   8  -3 -11.953 33.1489   2
  -8   0  -3 -26.934 35.0142  10
   0  -8  -3 -12.194 38.9570  10
   8   0  -3 -4.7472 35.4929  11
   0  -8  -3 -60.616 40.4246   6
  -8   0  -3 21.1708 34.1919   8
   0  -8  -3 43.3714 37.5351  14
   0   8  -3 61.9679 47.7495   1
  -8   0  -3 76.1255 37.4561  13
   8   0  -3 119.144 43.8394   7
   0  -8  -3 -41.334 39.9169   7
   8   0  -3 14.0142 34.8203  14
  -8   0  -3 40.8908 35.5766   1
  -8   0  -3 26.8743 30.3043   2
   8   0  -3 17.1511 39.3731   4
   0  -8  -3 -3.4480 37.2299   5
   1   8  -3 544.457 60.6969  12
  -8   1  -3 531.940 57.3452  13
  -1  -8  -3 494.256 56.2070  14
   1   8  -3 487.598 62.6289   4
   1   8  -3 472.747 53.9735   2
  -8   1  -3 553.103 52.9697   2
  -8   1  -3 649.164 61.3794  12
  -1  -8  -3 458.098 58.5991   5
  -1  -8  -3 544.335 63.1295  10
  -1  -8  -3 502.472 57.2399   7
   8  -1  -3 595.704 55.4575  11
   1   8  -3 483.413 54.8629   8
  -8   1  -3 521.527 59.1096   1
  -1  -8  -3 482.898 61.2062   6
   1   8  -3 533.980 53.9767  13
   1   8  -3 607.080 67.7508   1
  -8   1  -3 586.723 57.4699  10
   8  -1  -3 510.654 58.6604  15
   8  -1  -3 485.386 58.0076   7
   1   8  -3 598.487 60.4963   3
   1   8  -3 595.707 54.5714  11
  -8   1  -3 612.774 55.5536   5
  -8   1  -3 509.194 56.4305   9
   8  -1  -3 510.854 60.9913   4
  -1  -8  -3 425.445 57.9030   9
  -8   1  -3 566.764 57.7802   8
   8  -1  -3 558.034 62.7464   3
   8  -1  -3 552.217 58.5478  14
   8  -2  -3 286.636 50.7823   7
   2   8  -3 308.305 44.7824   8
  -8   2  -3 407.189 45.5316   5
  -2  -8  -3 342.996 47.7214  14
   2   8  -3 245.178 42.7686  11
   8  -2  -3 349.447 46.3035  11
  -8   2  -3 412.038 48.0501   9
   8  -2  -3 307.387 49.4355   4
   8  -2  -3 347.096 50.9110  15
   2   8  -3 257.133 54.4332   4
  -8   2  -3 412.275 44.8154  10
  -2  -8  -3 280.425 53.1400  10
  -2  -8  -3 270.877 48.9810   9
  -8   2  -3 324.239 40.8444   2
   2   8  -3 425.334 50.1162  15
   2   8  -3 313.791 44.7114   2
  -8   2  -3 371.201 48.6946   8
   2   8  -3 389.285 51.0530   3
   2   8  -3 414.440 45.5874  13
  -2  -8  -3 381.220 53.0951   6
   2   8  -3 304.510 50.6167  12
   2   8  -3 277.594 50.9636   1
   8  -2  -3 351.328 49.2673  14
  -2  -8  -3 296.120 49.8448   7
   8  -2  -3 334.181 53.8147   6
  -8   2  -3 366.665 45.9665  13
   8  -2  -3 342.800 55.1876   3
  -8   2  -3 253.662 47.1213   1
  -8   2  -3 426.248 51.7936  12
  -2  -8  -3 295.330 49.4302   5
  -3  -8  -3 116.593 39.0058  14
  -8   3  -3 91.4256 41.6423  12
   3   8  -3 94.6588 35.2616  11
  -3  -8  -3 94.4628 40.8901   5
  -8   3  -3 132.282 35.1071  10
  -8   3  -3 119.167 32.8390   5
   3   8  -3 84.7071 34.7316   8
   8  -3  -3 50.5547 46.0690   7
   8  -3  -3 105.225 39.5395  14
  -3  -8  -3 164.485 40.6219   7
  -8   3  -3 119.411 39.5008  13
  -3  -8  -3 159.201 49.6816  10
   8  -3  -3 90.9243 37.9056  11
  -8   3  -3 74.5630 30.0891   2
   3   8  -3 73.6641 31.9465  13
  -8   3  -3 69.2547 33.3927   8
   3   8  -3 20.5134 40.6870   3
  -3  -8  -3 114.652 40.9491   9
   3   8  -3 86.7443 40.0055  15
   8  -3  -3 99.6358 39.0273   4
   3   8  -3 101.194 48.8178   4
  -3  -8  -3 139.142 45.6082   6
   3   8  -3 69.9655 40.4489  12
   8  -3  -3 36.0759 40.6365  15
   8  -3  -3 48.2681 45.3094   6
  -8   3  -3 105.859 41.5532   1
  -8   3  -3 79.2826 35.4525   9
   3   8  -3 77.4062 47.4360   1
   8  -3  -3 48.9824 45.5145   3
   3   8  -3 78.6130 35.6101   2
   4   8  -3 137.590 44.0806  12
  -4  -8  -3 82.7422 49.5421  10
   8  -4  -3 72.4069 41.3230   7
   4   8  -3 110.732 37.9705  11
  -4  -8  -3 115.016 39.7994   7
   8  -4  -3 108.499 38.5726   4
   8  -4  -3 36.3987 44.2665   6
  -8   4  -3 138.934 41.4414  13
  -4  -8  -3 84.9028 38.2183  14
   4   8  -3 79.0594 44.6251   4
  -8   4  -3 149.583 37.7249   9
  -4  -8  -3 116.691 47.7314   6
  -4  -8  -3 47.0980 41.7737   9
   4   8  -3 141.791 50.2826   1
  -8   4  -3 87.5634 41.3926   1
   8  -4  -3 60.7360 47.7634   3
  -8   4  -3 100.199 34.1240   2
  -8   4  -3 104.555 39.3025  12
   4   8  -3 152.791 46.5338   3
   4   8  -3 169.263 37.8633   2
  -8   4  -3 118.894 32.8280   5
   4   8  -3 121.452 43.2417  15
   8  -4  -3 144.058 42.7835  14
  -8   4  -3 74.3305 41.5972   8
   8  -4  -3 50.2447 37.6821  11
   8  -4  -3 24.6363 41.3717  15
  -4  -8  -3 87.4545 47.7604   5
   4   8  -3 140.913 35.8611   8
  -8   5  -3 670.711 62.0485  12
   5   8  -3 444.049 66.6099   4
   5   8  -3 494.602 60.1010  15
  -8   5  -3 574.079 59.4964  13
   8  -5  -3 691.019 69.5855   6
   8  -5  -3 521.396 56.7457  11
  -8   5  -3 615.503 64.4792   1
  -5  -8  -3 501.859 62.1289   9
  -8   5  -3 646.357 59.3972   9
   5   8  -3 517.617 64.4725   1
   8  -5  -3 497.568 62.5694  15
  -5  -8  -3 494.430 56.0044  14
  -8   5  -3 458.547 51.7828   2
   8  -5  -3 623.000 67.7452   3
  -5  -8  -3 657.061 68.2133   6
   5   8  -3 580.211 64.1828   3
   5   8  -3 537.349 54.6168   2
  -5  -8  -3 498.858 67.3329  10
   5   8  -3 499.513 60.6880   8
   5   8  -3 549.435 64.9256  12
  -8   5  -3 714.621 62.4459   5
   8  -5  -3 446.077 59.2632   7
  -6  -8  -3 77.0107 50.5648  10
  -8   6  -3 -5.8953 42.4557   1
   8  -6  -3 122.711 50.9103   3
   8  -6  -3 32.3592 47.3851   7
   6   8  -3 161.444 47.0721   3
  -8   6  -3 16.9360 36.1191  12
   8  -6  -3 32.0689 49.4931   6
   6   8  -3 42.0796 35.6254   2
   6   8  -3 60.0465 45.7357  12
  -6  -8  -3 62.2853 48.6171   6
   6   8  -3 62.7631 47.5453   1
   6   8  -3 48.4068 42.3747  15
  -8   6  -3 39.6900 35.2242   9
  -6  -8  -3 174.329 45.4521   9
   8  -6  -3 73.9659 45.2385  15
   8  -7  -3 -15.574 46.2978  15
  -8   7  -3 150.600 37.9295   9
  -8   7  -3 100.822 40.0176   4
   7   8  -3 80.9217 45.3740  12
  -7  -8  -3 71.6000 49.0082   6
  -7  -8  -3 16.6837 38.3759  13
   7   8  -3 38.6672 45.4752   1
  -7  -8  -3 52.1897 45.1890   9
  -8   7  -3 80.7724 39.4718  12
   7   8  -3 97.2563 46.0263   3
   8  -7  -3 128.935 48.0367   6
   7   8  -3 125.147 45.2953  15
   8  -7  -3 38.5761 50.7742   3
  -8   7  -3 147.959 48.1211   1
  -8  -8  -3 232.059 53.3139   9
   8  -8  -3 202.056 52.2319  15
   8  -8  -3 196.056 47.3965  10
   8  -8  -3 237.158 57.4153   3
  -8  -8  -3 184.286 42.8525  13
  -8   8  -3 206.634 46.3663  12
   8   8  -3 227.739 48.9979   7
   8   8  -3 138.512 51.8166   3
  -8  -8  -3 361.869 59.5951   6
   8   8  -3 249.073 53.2028  12
  -8   8  -3 263.716 56.5207   4
  -8   8  -3 265.185 44.0493   9
  -8   8  -3 233.799 53.5555   1
   8   8  -3 232.706 51.1663  15
   8  -8  -3 220.083 54.0276   6
  -9  -8  -3 158.014 53.8470   6
   8  -9  -3 99.7881 52.0554   6
  -8   9  -3 -12.337 38.2830  12
   8  -9  -3 45.1315 47.1726  10
  -8   9  -3 113.365 40.2017   9
   9   8  -3 50.7324 46.5686  15
   9   8  -3 124.189 53.5864  12
  -9  -8  -3 68.3869 48.0438  13
   9   8  -3 59.1780 49.9183   3
   8  -9  -3 -5.5434 48.0151  15
   8  -9  -3 -22.131 52.5686   3
  -9  -8  -3 146.638 51.1351   9
  -9  -7  -3 43.4768 50.6701   6
  -7   9  -3 18.7489 34.8038   9
   7  -9  -3 2.91771 40.7681  10
   9   7  -3 24.0809 40.0786   7
   7  -9  -3 145.855 48.0552  15
  -7   9  -3 -1.2646 39.3614   4
  -9  -7  -3 -44.279 42.6381   9
  -9  -7  -3 71.5160 39.3144  13
   9   7  -3 94.9688 46.2867  15
   7  -9  -3 22.1113 46.3939   6
  -7   9  -3 0.44525 36.5610  12
   7  -9  -3 41.0157 51.5641   3
   9   7  -3 -12.269 48.3242  12
   9   7  -3 -28.993 45.8763   3
   6  -9  -3 384.900 56.2735  15
   9   6  -3 347.422 54.8507  15
  -9  -6  -3 310.010 48.7308  13
  -6   9  -3 503.049 56.2174   4
   6  -9  -3 393.703 58.6555   3
  -9  -6  -3 392.644 58.2840   6
   9   6  -3 316.876 55.8739   3
   9   6  -3 340.095 51.7039   7
   6  -9  -3 386.548 56.8982   6
  -9  -6  -3 411.819 57.9605   9
  -6   9  -3 401.225 53.7319  12
   9   6  -3 405.047 56.9302  12
   6  -9  -3 287.422 53.7796  10
  -6   9  -3 476.498 50.9340   9
  -5   9  -3 60.6317 34.1747   9
   5  -9  -3 110.644 48.5037  10
   5  -9  -3 132.203 43.3836  15
   9   5  -3 105.705 40.2245   7
  -5   9  -3 76.6190 41.0839   4
  -9  -5  -3 104.446 38.4318  13
   9   5  -3 45.0532 42.7181  15
   9   5  -3 78.9539 45.4286   3
   5  -9  -3 109.656 49.1316   7
  -9  -5  -3 148.449 47.1675   6
   9   5  -3 39.2885 47.8931  14
  -5   9  -3 47.5668 39.4252  12
  -5   9  -3 76.6342 35.0200  11
   5  -9  -3 64.6008 43.8574   6
  -9  -5  -3 126.601 44.0158   9
   9   5  -3 78.6912 44.8222  12
   9   4  -3 328.380 51.5548  15
   4  -9  -3 350.664 51.3913   5
   9   4  -3 297.033 49.6585   7
  -9  -4  -3 369.058 65.3031   5
  -9  -4  -3 263.694 49.4199   9
  -4   9  -3 413.125 59.8962   1
   4  -9  -3 275.237 52.5898   7
  -4   9  -3 414.425 52.2320   4
   9   4  -3 217.713 51.3894   3
  -4   9  -3 476.122 78.6063   8
  -4   9  -3 362.909 50.3793  12
  -9  -4  -3 257.025 42.7091   2
   4  -9  -3 230.317 54.0066   6
  -9  -4  -3 245.671 46.5866  13
  -9  -4  -3 328.163 56.9115  10
   9   4  -3 354.987 50.4317  12
  -9  -4  -3 353.918 47.2461   8
   9   4  -3 335.440 64.1696   4
  -4   9  -3 368.395 46.5014   9
   4  -9  -3 365.407 55.3759  10
   4  -9  -3 327.938 50.2305  15
   3  -9  -3 70.7372 43.7784   7
   9   3  -3 88.6549 35.4538  14
   3  -9  -3 112.627 45.5277   6
  -3   9  -3 188.521 40.7703   8
  -9  -3  -3 133.512 38.0491   8
   3  -9  -3 65.5343 44.8621  10
   9   3  -3 78.3114 42.0562  15
   9   3  -3 131.452 40.1560  11
   3  -9  -3 48.0864 40.9410   5
  -3   9  -3 72.3614 37.4286  13
  -3   9  -3 119.284 50.0148   1
  -9  -3  -3 76.5095 38.3877  13
  -3   9  -3 120.240 31.4424  11
   3  -9  -3 67.1172 40.3369  14
  -9  -3  -3 143.095 40.3588   5
   9   3  -3 79.5800 44.3152   3
  -3   9  -3 156.259 43.4691   4
  -9  -3  -3 50.2296 44.9998  10
  -3   9  -3 81.4459 38.8015  12
   9   3  -3 99.9126 42.4713   7
   9   3  -3 51.5062 49.5706   4
  -9  -3  -3 65.8191 39.5216   9
   9   2  -3 155.071 39.8834  11
  -2   9  -3 167.525 45.7907   4
  -9  -2  -3 115.517 44.1882  10
   9   2  -3 141.889 43.4371  15
   9   2  -3 110.507 37.6670  14
   2  -9  -3 102.186 41.4579  14
  -2   9  -3 154.068 38.2674  13
  -2   9  -3 108.942 33.2340  11
  -9  -2  -3 127.613 38.6439   5
  -9  -2  -3 157.848 40.7890   9
   9   2  -3 121.111 43.7387   7
  -9  -2  -3 127.520 41.6670  13
  -2   9  -3 169.001 43.3111  12
  -9  -2  -3 123.964 33.9575   2
   2  -9  -3 144.874 42.2156   5
   9   2  -3 157.239 46.3296   3
  -2   9  -3 178.992 41.4220   8
  -2   9  -3 118.554 51.2806   1
   2  -9  -3 100.615 44.8395   6
  -2   9  -3 138.409 39.0642   2
   2  -9  -3 107.610 45.9253  10
   9   2  -3 150.757 47.9629   4
  -9  -2  -3 153.389 38.7787   8
   2  -9  -3 173.913 46.1815   7
  -1   9  -3 207.724 49.2176   4
  -1   9  -3 188.801 43.7639   8
  -9  -1  -3 222.989 43.3438   8
  -1   9  -3 169.373 45.3877  12
   9   1  -3 218.060 49.1468   4
  -9  -1  -3 310.930 44.3106   5
   9   1  -3 217.850 49.1481   3
  -9  -1  -3 256.209 45.4962  13
   1  -9  -3 167.713 49.4673  10
   1  -9  -3 363.771 54.8521   6
   1  -9  -3 234.367 45.5251  14
  -9  -1  -3 205.103 42.5292   1
  -9  -1  -3 284.291 44.8390   9
  -1   9  -3 275.807 41.4099   2
   9   1  -3 207.944 40.9894  14
   1  -9  -3 220.689 45.6804   5
  -9  -1  -3 247.692 38.9065   2
   9   1  -3 282.318 50.3029   7
  -1   9  -3 230.434 36.9741  11
  -1   9  -3 194.648 39.6113  13
   1  -9  -3 283.108 50.4279   7
   9   1  -3 230.519 47.2449  15
  -9  -1  -3 278.644 47.6954  10
  -1   9  -3 231.322 48.8302   1
   9   1  -3 302.659 44.7791  11
   0   9  -3 288.472 39.5339  11
   9   0  -3 252.613 44.8230  14
   9   0  -3 290.319 47.3166  15
   0   9  -3 231.976 51.0482   4
  -9   0  -3 244.627 37.7230   2
   0   9  -3 219.186 39.2528  13
   0   9  -3 260.306 42.8370   8
   0   9  -3 193.269 45.4503  12
   0  -9  -3 182.130 49.6406   7
   0  -9  -3 203.831 45.9881   5
  -9   0  -3 227.395 41.9676   8
   0  -9  -3 101.881 53.0679  10
  -9   0  -3 224.009 41.4154  13
   0   9  -3 244.983 54.7250   1
  -9   0  -3 199.963 39.2470   5
   0  -9  -3 151.493 49.2278   6
   0  -9  -3 281.637 45.6952  14
   9   0  -3 221.518 50.3090   4
  -9   0  -3 228.924 42.9697   9
  -9   0  -3 216.231 43.8995  10
   9   0  -3 191.145 50.7161   7
  -9   0  -3 262.380 42.8000   1
   9   0  -3 278.808 43.0217  11
   0   9  -3 208.689 42.5978   2
   9   0  -3 326.365 50.6442   3
  -1  -9  -3 282.376 48.4809   5
  -1  -9  -3 262.367 53.9759  10
   9  -1  -3 228.299 45.2954  14
   1   9  -3 273.087 40.4964  11
  -9   1  -3 255.801 44.1236   8
   1   9  -3 280.513 54.6774   1
  -1  -9  -3 150.390 47.7128   7
   1   9  -3 218.296 41.9336   8
  -9   1  -3 229.913 44.1101   1
  -9   1  -3 282.548 46.7248  13
   9  -1  -3 176.286 49.0277   3
  -9   1  -3 218.198 39.8810   5
  -9   1  -3 262.877 43.7768   9
   9  -1  -3 260.859 47.7977   7
   1   9  -3 249.177 40.5962  13
   9  -1  -3 207.436 49.1601   4
   9  -1  -3 194.300 41.5217  11
   1   9  -3 220.890 51.0224   4
   1   9  -3 282.077 44.0003   2
  -1  -9  -3 235.781 44.8990  14
  -9   1  -3 253.993 38.5891   2
   9  -1  -3 315.206 48.7268  15
  -9   1  -3 278.010 44.3926  10
   1   9  -3 248.297 48.5967  12
  -1  -9  -3 325.235 54.5511   6
  -9   2  -3 124.855 41.5033   1
  -9   2  -3 114.200 42.6412  12
  -2  -9  -3 119.223 43.3625   7
   2   9  -3 199.342 38.4572  13
   9  -2  -3 177.949 45.2296  15
   2   9  -3 193.642 44.3273  12
  -2  -9  -3 184.768 46.0747   5
  -2  -9  -3 220.869 47.1297   6
  -2  -9  -3 172.275 44.8291   9
  -9   2  -3 166.081 36.9121   5
  -9   2  -3 123.415 38.9831   9
   2   9  -3 173.369 37.4080  11
   9  -2  -3 86.0343 41.9615   4
  -9   2  -3 93.3218 38.9958   8
  -9   2  -3 125.723 33.2088   2
   9  -2  -3 225.618 49.0600   3
  -2  -9  -3 183.248 41.4565  14
   2   9  -3 147.356 40.1946   2
   9  -2  -3 160.187 42.1738  14
  -2  -9  -3 283.348 55.3111  10
   2   9  -3 177.260 38.3349   8
  -9   2  -3 197.082 40.2793  10
   9  -2  -3 110.948 49.4199   7
   9  -2  -3 159.264 40.5349  11
   2   9  -3 148.501 44.7031   3
   2   9  -3 141.743 50.0015   1
   2   9  -3 200.932 52.4135   4
  -9   2  -3 193.530 43.7851  13
  -9   3  -3 159.636 41.4094  13
   3   9  -3 120.966 49.7651   4
  -3  -9  -3 58.7109 45.4073   6
  -3  -9  -3 41.7837 42.9735   9
  -9   3  -3 85.5836 37.0574   9
  -9   3  -3 108.553 43.0334  12
  -3  -9  -3 98.3373 38.2789  14
   3   9  -3 148.244 41.0729  15
   3   9  -3 64.4403 34.0608   8
   9  -3  -3 106.393 46.7261   3
   9  -3  -3 106.806 42.9934  15
  -9   3  -3 77.9829 31.8402   5
  -9   3  -3 61.0921 30.2293   2
   3   9  -3 34.3984 55.0436  11
   9  -3  -3 110.454 46.9943   7
   9  -3  -3 -19.010 45.1618   6
   3   9  -3 117.055 42.0530  12
  -3  -9  -3 102.556 40.4884   7
  -9   3  -3 108.862 41.6268   1
   9  -3  -3 77.4799 37.8904  11
   3   9  -3 113.645 42.4851   3
  -3  -9  -3 38.3049 50.1486  10
   3   9  -3 95.9007 46.0965   1
   3   9  -3 49.8673 35.8068   2
   9  -3  -3 47.1317 38.7790   4
  -4  -9  -3 299.815 54.8681  10
   4   9  -3 268.293 50.4402  15
   4   9  -3 292.582 52.5823   3
   9  -4  -3 329.048 46.9462  11
   4   9  -3 423.989 54.5627  12
  -9   4  -3 372.685 48.7077   9
  -9   4  -3 411.489 52.8453   1
   9  -4  -3 369.685 53.0152  15
  -4  -9  -3 280.176 52.4485   9
   4   9  -3 301.411 56.9862   1
   9  -4  -3 288.618 53.4183   7
  -9   4  -3 386.704 50.8256  12
   9  -4  -3 335.397 57.9859   3
  -9   4  -3 338.690 49.2353  13
  -4  -9  -3 362.570 57.0463   6
   4   9  -3 344.691 45.6193   2
   4   9  -3 270.720 59.6059   4
   9  -4  -3 328.300 56.1371   6
  -4  -9  -3 322.049 47.5641  14
  -9   4  -3 341.760 43.5611   2
   5   9  -3 59.9798 45.2088   3
   9  -5  -3 173.954 52.5940   6
  -9   5  -3 83.3786 41.5773   1
   5   9  -3 63.4752 46.3300  12
   5   9  -3 51.1092 42.4928  15
  -5  -9  -3 124.298 49.9231   6
  -9   5  -3 102.216 42.2443  12
   5   9  -3 166.809 38.6501   2
   9  -5  -3 122.360 46.0092  15
   9  -5  -3 137.089 50.2898   7
   9  -5  -3 93.9350 51.1029   3
  -9   5  -3 92.8347 37.7201   9
  -5  -9  -3 121.947 46.4993  10
  -5  -9  -3 67.9348 44.7500   9
   6   9  -3 486.847 62.8790  12
  -6  -9  -3 304.755 56.6726   9
   6   9  -3 356.799 58.9390   3
  -6  -9  -3 472.678 64.4577   6
  -9   6  -3 434.392 55.3699  12
   6   9  -3 390.407 57.0899  15
   9  -6  -3 383.177 60.0582  15
  -9   6  -3 504.555 54.0133   9
  -9   6  -3 397.902 58.6782   1
   9  -6  -3 382.719 59.6003   6
   9  -6  -3 354.600 62.4280   3
  -9   7  -3 44.1562 36.8752   9
   9  -7  -3 34.0655 52.3357   3
  -7  -9  -3 98.7237 51.1653   6
   7   9  -3 17.0625 45.2414  15
   9  -7  -3 24.6190 47.4468  15
   7   9  -3 -49.294 45.1745  12
  -7  -9  -3 74.7493 47.6619   9
  -9   7  -3 50.0447 40.0290  12
   7   9  -3 7.68251 47.3622   3
   9  -7  -3 19.0463 49.1872   6
  -7  -9  -3 35.9791 36.8514  13
  -9   7  -3 34.8506 44.9338   1
   8   9  -3 101.956 47.0173  15
  -8  -9  -3 159.095 55.2320   6
   9  -8  -3 -16.601 48.7381   6
  -9   8  -3 50.4158 39.0441  12
  -9   8  -3 69.6135 38.0473   9
   8   9  -3 164.878 54.2241  12
   9  -8  -3 160.981 52.9442  15
   8   9  -3 146.681 51.2585   3
   9  -8  -3 23.2432 55.0648   3
  -8  -9  -3 17.6507 48.2072   9
  -9   9  -3 97.2850 41.9742   9
   9  -9  -3 11.1446 49.1745  15
  -9   9  -3 94.1047 42.1158  12
   9  -9  -3 129.124 51.2667   6
   9  -9  -3 112.789 58.7861   3
   9   9  -3 40.3885 47.9190  15
   9   9  -3 90.4487 53.0711   3
   9   9  -3 84.2981 53.4994  12
  -9  -9  -3 29.6049 55.6321   6
  -9  -9  -3 21.1914 51.3650   9
   9 -10  -3 195.882 59.5174   6
 -10  -9  -3 278.107 59.4521   6
 -10  -9  -3 96.8440 57.1776   9
  -9  10  -3 195.337 47.3526  12
   9 -10  -3 308.758 65.9582   3
  10   9  -3 359.511 57.7306  15
  -9  10  -3 209.367 46.5032   9
  10   9  -3 152.500 56.9947   3
   9 -10  -3 279.489 58.5075  15
  10   9  -3 183.696 59.6978  12
 -10  -8  -3 24.6753 49.2778   9
 -10  -8  -3 191.359 57.5436   6
  -8  10  -3 73.5060 39.3981   9
  10   8  -3 67.2204 52.3908   3
   8 -10  -3 56.7851 50.0969   6
   8 -10  -3 85.8681 51.3515  15
  10   8  -3 162.235 52.0332  12
  -8  10  -3 20.8107 41.2233  12
   8 -10  -3 91.4914 56.7034   3
  10   8  -3 71.4742 47.9864  15
  -7  10  -3 215.054 46.5641  12
   7 -10  -3 202.550 48.9774  10
 -10  -7  -3 263.935 55.8246   6
  10   7  -3 235.936 53.5055  12
  -7  10  -3 238.248 43.1513   9
  10   7  -3 69.4739 51.5472   3
 -10  -7  -3 207.068 53.6307   9
   7 -10  -3 219.083 59.0212   3
   7 -10  -3 195.967 52.0564  15
   7 -10  -3 194.959 52.7461   6
  10   7  -3 178.465 50.2752  15
 -10  -7  -3 151.674 45.5654  13
  10   6  -3 7.55657 43.9015  15
  10   6  -3 47.3112 41.6507   7
   6 -10  -3 97.2081 46.2232  15
 -10  -6  -3 4.09030 39.4353  13
  10   6  -3 -9.3160 46.5465   3
  -6  10  -3 19.6339 35.5531   9
   6 -10  -3 8.81134 45.3461   6
 -10  -6  -3 28.0405 46.1587   9
 -10  -6  -3 91.4778 47.1635   6
  10   6  -3 42.3764 47.7430  12
   6 -10  -3 102.250 47.4655  10
  -6  10  -3 41.6164 40.0968  12
  -6  10  -3 17.0759 41.2326   4
  10   5  -3 42.0258 46.4606   3
  10   5  -3 -4.0744 42.4738  15
   5 -10  -3 20.4599 43.1764  10
  -5  10  -3 75.9438 41.2014   9
  -5  10  -3 57.8313 40.6202  12
   5 -10  -3 29.9832 44.5921   6
 -10  -5  -3 125.890 39.9278  13
  10   5  -3 58.9503 42.8098   7
 -10  -5  -3 85.2342 43.5495   9
  10   5  -3 39.6247 44.0554  12
  -5  10  -3 47.2491 42.6809   4
   5 -10  -3 81.0939 49.3951  15
  10   4  -3 30.3269 46.0736   3
  -4  10  -3 22.9191 32.0361  11
 -10  -4  -3 -21.964 35.7673   8
   4 -10  -3 22.6405 40.6350   5
  -4  10  -3 55.3486 39.0469  12
  10   4  -3 21.6385 39.9650   7
  -4  10  -3 54.9025 43.1219   4
   4 -10  -3 16.6381 45.2345   6
 -10  -4  -3 -23.571 39.2066   9
   4 -10  -3 57.2076 43.2001  10
  10   4  -3 10.0874 43.0468  15
  10   4  -3 75.2031 43.5239  14
 -10  -4  -3 29.5408 38.6288  13
 -10  -3  -3 63.6432 55.3173   2
   3 -10  -3 27.5568 46.4041  10
  10   3  -3 -33.552 41.1395  15
   3 -10  -3 16.5512 41.0109   5
  10   3  -3 53.8212 44.2094   3
 -10  -3  -3 -33.708 38.3140   9
  -3  10  -3 6.05101 27.7346  11
  10   3  -3 66.2368 42.8788   7
   3 -10  -3 -8.4004 46.6040   7
 -10  -3  -3 1.85075 37.2273  13
  -3  10  -3 -7.1189 42.5691   8
  -3  10  -3 -18.052 38.1447  12
 -10  -3  -3 18.9384 47.6031   5
 -10  -3  -3 8.40996 36.2611   8
  -3  10  -3 -55.173 38.9516   4
  10   3  -3 27.4052 35.8859  14
   3 -10  -3 -25.030 43.9813   6
   2 -10  -3 174.407 52.4618  10
  -2  10  -3 124.185 46.0525   4
  -2  10  -3 114.200 41.1807   8
 -10  -2  -3 134.105 41.2591  13
  10   2  -3 177.815 55.7549   4
  10   2  -3 151.648 39.4892  14
  -2  10  -3 163.688 34.1438  11
  10   2  -3 130.370 41.0600  11
 -10  -2  -3 185.187 41.8286   8
  10   2  -3 114.636 45.9376   7
 -10  -2  -3 127.210 39.7097   1
   2 -10  -3 148.240 47.1782   7
 -10  -2  -3 122.209 46.3423  10
 -10  -2  -3 152.768 41.5456   9
  10   2  -3 130.819 47.3965   3
   2 -10  -3 103.527 42.2544   5
   2 -10  -3 171.526 44.0859  14
  -2  10  -3 113.396 40.0874  12
  10   2  -3 118.814 44.1483  15
   2 -10  -3 154.631 48.0671   6
 -10  -2  -3 175.463 41.5688   5
  -1  10  -3 141.819 40.9189  13
 -10  -1  -3 245.040 41.1677   5
 -10  -1  -3 119.214 42.2821  13
  10   1  -3 143.644 42.3889  11
  10   1  -3 132.012 46.4044   3
  10   1  -3 261.531 46.8492  15
  10   1  -3 196.023 41.7223  14
   1 -10  -3 129.744 48.4922   6
  -1  10  -3 210.692 36.2469  11
 -10  -1  -3 144.941 43.0669   9
  -1  10  -3 181.428 43.3810  12
 -10  -1  -3 218.077 42.3368   8
  10   1  -3 146.134 47.7686   7
   1 -10  -3 123.308 44.5343  14
  10   1  -3 126.618 47.8244   4
  -1  10  -3 143.027 50.6156   4
   1 -10  -3 195.400 46.8743   7
  -1  10  -3 215.066 43.7351   8
   1 -10  -3 216.077 45.0108   5
   1 -10  -3 112.063 47.9622  10
 -10  -1  -3 230.717 50.0168  10
 -10  -1  -3 158.061 38.5571   1
   0 -10  -3 21.8441 39.8333   5
   0 -10  -3 22.7832 38.7538  14
 -10   0  -3 9.84385 35.0111   1
  10   0  -3 63.1347 40.2901  14
 -10   0  -3 -14.936 29.1689   2
   0  10  -3 30.2616 39.3310   2
   0  10  -3 9.96147 46.5010   4
  10   0  -3 0.72466 37.4252  11
  10   0  -3 53.7316 45.4000   4
   0  10  -3 -54.256 31.0308  11
   0 -10  -3 40.7140 51.4367  10
   0  10  -3 -24.809 36.5142  12
 -10   0  -3 -21.444 36.7289  10
  10   0  -3 23.2207 40.0343  15
  10   0  -3 -85.981 41.6661   3
   0 -10  -3 35.5890 45.0062   6
  10   0  -3 5.53536 44.9417   7
 -10   0  -3 30.4181 35.5568   9
 -10   0  -3 -53.848 32.6755  13
   0  10  -3 45.0507 37.0870   8
 -10   0  -3 17.1348 32.5660   5
   0 -10  -3 78.0906 40.9081   7
 -10   0  -3 -23.138 33.7742   8
   0  10  -3 -15.308 33.0472  13
  10  -1  -3 176.364 49.7543   3
 -10   1  -3 202.045 42.3473   9
  10  -1  -3 194.488 48.1128   4
  10  -1  -3 158.363 46.2899  15
   1  10  -3 220.145 41.7032   8
  10  -1  -3 180.565 48.9441   7
   1  10  -3 111.832 37.7287  13
   1  10  -3 144.859 40.5935   2
 -10   1  -3 168.372 40.5962   1
  -1 -10  -3 174.283 53.9268  10
 -10   1  -3 274.240 44.4737  10
  -1 -10  -3 112.924 50.9690   6
  10  -1  -3 208.971 43.8708  14
 -10   1  -3 200.818 44.3639   8
   1  10  -3 181.641 38.0923  11
 -10   1  -3 196.800 38.0192   5
 -10   1  -3 231.093 36.8730   2
 -10   1  -3 171.610 44.0751  13
  -1 -10  -3 178.046 43.4100  14
   1  10  -3 171.114 53.8857   4
   1  10  -3 156.049 46.1237  12
  -1 -10  -3 205.847 58.9133   5
  10  -1  -3 164.985 41.6791  11
  -1 -10  -3 109.727 46.3394   7
   2  10  -3 49.7056 48.5445   4
  10  -2  -3 156.480 40.9139  11
  10  -2  -3 100.451 45.2573   7
 -10   2  -3 126.344 42.4594  13
 -10   2  -3 131.577 40.2586   1
  -2 -10  -3 150.281 48.2632   6
 -10   2  -3 143.346 40.1423   9
  10  -2  -3 151.343 44.8523  15
   2  10  -3 146.506 41.9100   2
   2  10  -3 146.371 38.6480   8
  -2 -10  -3 152.679 52.2330  10
 -10   2  -3 138.311 32.8233   2
 -10   2  -3 171.537 36.8864   5
  10  -2  -3 71.8392 47.5571   3
  -2 -10  -3 201.076 44.4909   7
  -2 -10  -3 138.164 40.4301  14
   2  10  -3 185.497 45.7407  12
  10  -2  -3 29.1708 44.1509   4
   3  10  -3 101.747 39.0926   2
  -3 -10  -3 62.1852 49.5993   6
  10  -3  -3 51.9528 45.9635   3
  -3 -10  -3 68.6640 42.6264   9
   3  10  -3 -10.101 41.9491  12
   3  10  -3 30.9115 50.6385   4
  10  -3  -3 -5.8474 41.0375  15
 -10   3  -3 3.94777 37.9820   1
 -10   3  -3 -3.9480 35.0273   9
  10  -3  -3 74.4253 48.3937   7
  -3 -10  -3 -48.239 37.4749  14
  10  -3  -3 71.4947 37.2867  11
   3  10  -3 21.3069 42.0645   3
  -3 -10  -3 88.0529 53.2211  10
 -10   3  -3 34.5976 39.8403  13
 -10   3  -3 12.0940 30.0475   2
 -10   3  -3 21.3775 40.8490  12
 -10   4  -3 16.9308 40.7349  12
  10  -4  -3 -29.048 48.3182   3
  -4 -10  -3 41.1732 51.0450   6
 -10   4  -3 35.0914 40.6212   1
  10  -4  -3 -28.129 45.8661   6
   4  10  -3 61.3416 44.6616  12
  -4 -10  -3 -2.2670 42.8880   9
  10  -4  -3 52.2191 48.7615   7
   4  10  -3 51.2163 36.7326   2
  10  -4  -3 33.0645 43.0172  15
   4  10  -3 44.1551 43.2051   3
  -4 -10  -3 44.7907 51.7667  10
 -10   4  -3 8.61674 35.5685   9
   4  10  -3 77.0433 41.4971  15
  -5 -10  -3 61.4851 45.1672   9
 -10   5  -3 -29.812 38.7745  12
  10  -5  -3 72.2084 49.7948   6
   5  10  -3 -10.218 41.4594  15
  -5 -10  -3 -68.624 47.9441   6
   5  10  -3 52.3972 45.7241  12
  10  -5  -3 145.815 52.8716   3
 -10   5  -3 23.1307 37.1958   9
  10  -5  -3 139.715 47.0237  15
 -10   5  -3 99.5219 43.9862   1
   5  10  -3 11.8824 44.5453   3
   5  10  -3 113.207 51.1778   2
   6  10  -3 66.1053 48.8548  12
  -6 -10  -3 30.2378 46.2962   9
   6  10  -3 -69.698 42.4780  15
  10  -6  -3 56.8579 49.6991  15
 -10   6  -3 -65.270 39.8545  12
 -10   6  -3 3.29522 43.9043   1
  -6 -10  -3 49.4992 54.0444   6
 -10   6  -3 65.3823 37.1307   9
  10  -6  -3 32.7235 51.6190   3
   6  10  -3 62.0514 47.0723   3
  10  -6  -3 -13.530 51.0045   6
  -7 -10  -3 69.6221 50.1744   9
  10  -7  -3 128.884 53.2297   6
 -10   7  -3 192.899 47.2776   1
   7  10  -3 115.876 53.2892   3
 -10   7  -3 311.236 50.0682  12
   7  10  -3 163.272 52.2410  15
 -10   7  -3 184.432 42.6261   9
  10  -7  -3 160.749 58.9088   3
  10  -7  -3 232.900 56.3974  15
   7  10  -3 186.092 55.0350  12
  -7 -10  -3 262.057 61.5599   6
   8  10  -3 183.553 55.2112  12
  10  -8  -3 81.9283 51.9283  15
   8  10  -3 11.8436 52.1643   3
  -8 -10  -3 124.252 60.0861   6
   8  10  -3 83.4558 48.4363  15
  10  -8  -3 101.648 57.2994   3
  10  -8  -3 55.3828 52.2080   6
 -10   8  -3 112.976 40.9076   9
 -10   8  -3 154.996 44.6141  12
  -8 -10  -3 61.4097 51.0717   9
   9  10  -3 227.801 55.7083  15
 -10   9  -3 251.061 50.5425   9
  10  -9  -3 159.717 65.7169   3
   9  10  -3 185.954 63.1088  12
  10  -9  -3 271.473 60.0894  15
  -9 -10  -3 326.272 62.9718   6
  -9 -10  -3 151.197 57.7794   9
   9  10  -3 257.288 61.4615   3
  10  -9  -3 186.105 56.0425   6
 -10   9  -3 224.049 47.4038  12
  10 -10  -3 60.6093 61.9270   3
 -10  10  -3 31.4618 39.6937   9
  10 -10  -3 7.95418 51.3133   6
  10  10  -3 96.7359 53.3703  15
 -10 -10  -3 80.7206 56.8475   9
  10  10  -3 -11.763 53.7015   3
  10 -10  -3 -59.552 54.0155  15
 -10  10  -3 37.9840 40.6363  12
  10  10  -3 86.8029 60.0363  12
 -10 -10  -3 -10.550 55.2288   6
 -11 -10  -3 163.251 59.3713   9
  10 -11  -3 85.2947 66.0717   3
 -10  11  -3 71.8911 45.9819  12
  10 -11  -3 18.1061 57.9181  15
  11  10  -3 202.965 61.5576   3
 -11 -10  -3 166.876 63.0089   6
  10 -11  -3 47.4801 51.2598   6
  11  10  -3 123.386 60.2890  12
  11  10  -3 73.3173 54.4543  15
 -10  11  -3 82.7412 42.7876   9
 -11  -9  -3 25.2194 57.3416   6
  11   9  -3 28.4212 53.8033  12
   9 -11  -3 -54.212 47.3688   6
  11   9  -3 28.3220 50.8264  15
  11   9  -3 -35.371 53.8020   3
 -11  -9  -3 82.9892 57.0712   9
   9 -11  -3 79.2142 54.6234  15
  -9  11  -3 26.6522 39.6833  12
   9 -11  -3 72.9455 60.0626   3
  -9  11  -3 98.8371 41.5342   9
  11   8  -3 126.307 55.1925  12
  11   8  -3 44.5489 49.9735  15
 -11  -8  -3 125.264 55.8780   6
  11   8  -3 92.5518 54.9050   3
  -8  11  -3 18.5097 40.7286  12
   8 -11  -3 76.3895 51.6014  15
 -11  -8  -3 8.71254 52.6933   9
   8 -11  -3 47.3685 54.3138   6
   8 -11  -3 73.2014 87.5335   3
  -8  11  -3 -15.174 36.9235   9
  11   7  -3 143.393 54.8043   3
  -7  11  -3 174.393 42.4832   9
   7 -11  -3 146.640 53.8672   6
   7 -11  -3 122.719 52.6011  15
  11   7  -3 126.707 53.0324  12
 -11  -7  -3 224.994 57.7691   6
 -11  -7  -3 58.2490 51.4473   9
  -7  11  -3 147.119 45.8336  12
  11   7  -3 159.731 51.3426  15
   6 -11  -3 77.6377 49.1685  10
 -11  -6  -3 20.9837 45.7659   9
  -6  11  -3 132.162 42.8363  12
  -6  11  -3 113.310 58.9701   9
   6 -11  -3 64.8525 48.9524   6
  11   6  -3 99.8818 48.5806  12
 -11  -6  -3 171.344 42.7474  13
  11   6  -3 73.9938 49.2495  15
  11   6  -3 -8.0504 48.5045   3
   5 -11  -3 201.912 53.2028   6
  11   5  -3 223.957 54.1796   3
  -5  11  -3 287.041 51.2187   4
 -11  -5  -3 248.165 50.8912   9
   5 -11  -3 231.159 54.9478  10
 -11  -5  -3 180.808 43.0528  13
  11   5  -3 259.578 52.1531  15
  11   5  -3 21.0877 46.2846   7
  -5  11  -3 316.258 49.7045  12
  11   4  -3 253.277 51.6614  15
 -11  -4  -3 138.909 47.8830   9
   4 -11  -3 263.481 53.7782   6
 -11  -4  -3 242.266 46.2630  13
  -4  11  -3 238.754 47.4015  12
  11   4  -3 218.459 53.5370   3
   4 -11  -3 227.993 56.8242  10
  -4  11  -3 299.701 53.5024   4
  11   4  -3 273.898 50.4001   7
  11   3  -3 26.5107 47.4752  14
  11   3  -3 22.5319 44.2357   7
 -11  -3  -3 60.1198 36.9604   1
 -11  -3  -3 9.46431 41.2201  13
  -3  11  -3 28.0409 38.1967  11
   3 -11  -3 18.7145 44.9016   6
  -3  11  -3 -3.0011 40.9113  12
  11   3  -3 15.1720 45.8498   3
   3 -11  -3 24.8607 50.7155  10
  11   3  -3 5.74970 43.1253  15
 -11  -3  -3 24.7724 35.6367   8
   3 -11  -3 0.01744 39.7693   5
  -3  11  -3 45.0009 45.8301   4
 -11  -3  -3 9.34227 39.2380   9
  -2  11  -3 158.872 36.0419  11
 -11  -2  -3 231.144 44.5238   9
  11   2  -3 220.524 42.2268  14
 -11  -2  -3 165.248 41.8748   8
   2 -11  -3 136.022 51.6931  10
 -11  -2  -3 210.029 45.0566  13
   2 -11  -3 126.357 44.5351   5
  -2  11  -3 217.630 53.2362   4
  -2  11  -3 248.944 45.9774  12
 -11  -2  -3 194.038 53.2857   5
  11   2  -3 232.339 50.8617  15
  -2  11  -3 216.657 58.0993   8
  11   2  -3 188.851 50.9948   3
 -11  -2  -3 137.374 39.1785   1
   2 -11  -3 178.260 51.0925   6
  11   2  -3 167.853 50.9025   7
 -11  -1  -3 63.0963 36.5742   5
  11   1  -3 14.2573 39.4014  11
  -1  11  -3 -16.611 45.1120   4
   1 -11  -3 -4.4620 52.2822  10
 -11  -1  -3 47.8661 39.5957   9
  11   1  -3 91.3857 46.7893   3
 -11  -1  -3 -7.5938 41.3617  13
   1 -11  -3 -73.728 44.9122   6
   1 -11  -3 28.7473 44.3936   7
 -11  -1  -3 3.82141 37.9189   8
  -1  11  -3 15.7136 39.4934   8
  -1  11  -3 29.6633 39.6342  12
  11   1  -3 7.04146 45.3511   7
 -11  -1  -3 41.8839 36.6835   1
  11   1  -3 4.68548 36.6676  14
 -11  -1  -3 -72.531 57.9639   2
  11   1  -3 17.8079 41.7936  15
   1 -11  -3 -2.5436 43.3645   5
  -1  11  -3 46.5266 32.2312  11
   1 -11  -3 -36.943 40.9074  14
  11   0  -3 288.822 52.0251   7
  11   0  -3 247.115 47.9990  11
  11   0  -3 313.796 56.1144   3
 -11   0  -3 296.763 52.0597  10
   0  11  -3 415.878 50.5664   8
   0  11  -3 365.293 53.1283  12
   0 -11  -3 293.050 58.4041   6
 -11   0  -3 302.296 41.5183   2
   0 -11  -3 263.446 50.6045   7
   0  11  -3 303.467 52.2845  11
   0 -11  -3 351.468 49.2215  14
  11   0  -3 350.310 61.4995  14
 -11   0  -3 318.518 48.5966   9
 -11   0  -3 227.367 46.8795  13
  11   0  -3 274.687 51.4556  15
   0  11  -3 165.395 56.8988   4
  11   0  -3 311.581 57.8384   4
 -11   0  -3 250.114 46.0778   1
 -11   0  -3 240.118 44.1724   5
   0 -11  -3 295.042 56.1971  10
   1  11  -3 32.7466 50.2050   4
  11  -1  -3 83.8012 48.4776   4
   1  11  -3 -11.728 35.9452   8
 -11   1  -3 33.0475 30.9952   2
  11  -1  -3 63.4749 38.7588  11
  -1 -11  -3 28.9639 48.8052  10
 -11   1  -3 27.5496 31.8125   5
   1  11  -3 -6.6097 40.3641  12
  -1 -11  -3 33.9039 45.8181   6
 -11   1  -3 13.0152 37.5187   1
  11  -1  -3 48.1211 45.9552   7
  -1 -11  -3 -13.317 41.7884   7
 -11   1  -3 -0.0923 35.7059   9
  11  -1  -3 53.5330 43.3683  15
  -1 -11  -3 21.4919 38.6600  14
  11  -1  -3 15.3085 46.4488   3
 -11   1  -3 55.0861 40.6087  13
 -11   2  -3 207.747 43.8291   9
  -2 -11  -3 141.980 55.1198  10
 -11   2  -3 272.162 44.9505   1
   2  11  -3 243.151 50.7223   2
  -2 -11  -3 186.677 56.7393  14
 -11   2  -3 217.317 36.3643   2
  11  -2  -3 198.462 48.7880  15
 -11   2  -3 186.038 45.5720  13
  11  -2  -3 218.593 49.8767  11
  11  -2  -3 135.473 50.8843   3
  -2 -11  -3 180.317 51.1389   6
  11  -2  -3 201.776 52.5735   7
   2  11  -3 138.050 46.8690  12
   2  11  -3 214.267 59.1278   4
  11  -3  -3 53.2916 49.4443   3
   3  11  -3 25.7180 39.8895   2
   3  11  -3 95.6893 45.1820  12
 -11   3  -3 -36.485 34.8182   9
  -3 -11  -3 -15.925 51.0259   6
  11  -3  -3 -43.485 47.7817   7
  -3 -11  -3 18.6360 49.9914  10
  11  -3  -3 1.93863 42.3279  15
 -11   3  -3 -3.0912 37.0625   1
 -11   4  -3 242.462 48.5763   1
 -11   4  -3 256.120 45.7043   9
   4  11  -3 225.016 44.8852   2
  11  -4  -3 271.462 56.4469   3
  -4 -11  -3 198.896 51.8857   9
   4  11  -3 274.413 52.7036   3
  11  -4  -3 222.081 51.6505  15
   4  11  -3 259.103 53.1041  12
 -11   4  -3 266.967 50.2775  12
  -4 -11  -3 229.076 57.3523   6
  11  -4   3 260.001 46.8475  15
 -11   5  -3 313.181 50.3266  12
 -11   5  -3 123.030 43.1910   9
  11  -5  -3 241.505 53.3440  15
  11  -5  -3 173.926 57.4716   3
   5  11  -3 120.222 54.1196  12
  -5 -11  -3 152.626 52.3300   9
   5  11  -3 246.765 52.8167   3
  -5 -11  -3 217.049 57.8467   6
  11  -5  -3 231.630 53.8981   6
   5  11  -3 133.602 47.3903  15
 -11   5  -3 303.806 52.1137   1
  -5 -11   3 157.376 57.3661   6
   6  11  -3 103.035 50.6107   3
 -11   6  -3 37.5000 43.5381  12
 -11   6  -3 75.4210 39.0931   9
 -11   6  -3 41.4777 41.7403   1
  -6 -11  -3 75.8523 55.1832   6
  11  -6  -3 5.81711 52.9298   3
   6  11  -3 99.5071 49.5464  12
   6  11  -3 75.8170 46.3841  15
  -6 -11  -3 -9.7823 47.3272   9
  11  -6  -3 60.7972 53.3743   6
  11  -6  -3 13.4777 48.5826  15
  -6 -11   3 34.6594 57.8761   6
  11  -7  -3 104.921 54.0144   6
  -7 -11  -3 162.974 59.8300   6
  -7 -11  -3 123.233 52.6074   9
   7  11  -3 176.918 57.8106  12
  11  -7  -3 134.202 54.3706  15
 -11   7  -3 223.547 49.1497  12
   7  11  -3 18.1205 47.6094  15
 -11   7  -3 168.359 42.6695   9
   7  11  -3 72.4508 52.9774   3
  11  -7  -3 135.950 60.5883   3
  -7 -11   3 167.368 63.6400   6
   8  11  -3 36.3039 54.5839   3
  11  -8  -3 129.665 62.7095   3
 -11   8  -3 44.6230 40.4458   9
   8  11  -3 101.791 55.0708  12
   8  11  -3 89.5862 51.5544  15
 -11   8  -3 38.6319 43.0997  12
  11  -8  -3 25.6545 51.6219   6
  -8 -11  -3 -3.9428 60.6515   6
  -8 -11  -3 73.1287 55.3140   9
  11  -8  -3 111.859 55.7380  15
  11  -9  -3 56.3659 62.5379   3
  11  -9  -3 -3.9329 50.8960   6
 -11   9  -3 -3.5851 43.4638  12
   9  11  -3 -17.565 56.6064   3
   9  11  -3 31.4552 53.3554  15
   9  11  -3 30.6818 55.5849  12
  11  -9  -3 152.113 58.4357  15
  -9 -11  -3 86.6313 61.5051   6
  -9 -11  -3 61.6641 55.9189   9
 -11   9  -3 50.1355 42.2486   9
  10  11  -3 124.603 59.7955  12
 -11  10  -3 117.073 44.1500   9
  11 -10  -3 91.6184 59.5459  15
 -10 -11  -3 160.510 64.5784   6
 -11  10  -3 67.1270 45.9782  12
  11 -10  -3 123.165 67.5571   3
 -10 -11  -3 49.9358 59.7007   9
  10  11  -3 179.958 62.6021   3
  10  11  -3 84.7309 55.0733  15
  11 -10  -3 52.3604 53.5121   6
  11  11  -3 239.330 67.6395  12
 -11 -11  -3 301.955 68.8350   9
  11 -11  -3 269.094 71.5262   3
  11 -11  -3 122.486 56.6832   6
  11  11  -3 83.4033 62.7892   3
  11  11  -3 69.0955 57.8549  15
  11 -11  -3 140.356 63.1788  15
 -11  11  -3 210.260 49.5599  12
 -11  11  -3 292.040 50.6154   9
 -11 -11  -3 217.514 67.5293   6
 -11 -11   3 61.5760 67.4234   6
 -11  12  -3 45.5347 44.4909   9
  12  11  -3 73.4599 62.7465   3
 -11  12  -3 57.2402 46.1005  12
  11 -12  -3 218.878 73.5362   3
  12  11  -3 30.8031 56.7603  15
  12  11  -3 9.01442 61.4075  12
 -12 -11  -3 134.404 65.8579   6
  11 -12  -3 -46.378 57.6557   6
  11 -12  -3 28.8012 62.1305  15
 -12 -11  -3 116.633 66.9196   9
 -12 -11   3 53.1579 74.7495   6
 -10  12  -3 104.948 44.3233   9
  10 -12  -3 -51.354 66.0432   3
 -12 -10  -3 24.6514 62.8207   9
  10 -12  -3 43.1181 58.4560  15
 -10  12  -3 42.9903 42.1315  12
  12  10  -3 154.291 66.6338  12
  12  10  -3 46.7110 59.3489   3
 -12 -10  -3 64.0499 62.3837   6
  12  10  -3 100.286 55.8488  15
  10 -12  -3 -10.155 56.9404   6
  12   9  -3 87.3294 62.0725  12
 -12  -9  -3 39.3527 58.7438   9
  12   9  -3 93.8182 53.4818  15
  -9  12  -3 92.6620 42.4678   9
 -12  -9  -3 98.5536 60.4226   6
   9 -12  -3 121.255 57.4320   6
   9 -12  -3 155.535 57.9333  15
  -9  12  -3 90.3227 44.3265  12
  12   9  -3 54.2450 57.5062   3
 -12  -8  -3 287.179 79.7254   6
  12   8  -3 201.904 56.6774  15
   8 -12  -3 139.864 55.5356   6
  12   8  -3 170.096 58.6200   3
  -8  12  -3 201.400 48.5956  12
   8 -12  -3 166.889 56.1752  15
  -8  12  -3 194.025 43.8663   9
  12   8  -3 251.327 63.3447  12
 -12  -8  -3 172.503 59.3222   9
   7 -12  -3 -13.924 49.0781   6
  12   7  -3 37.4160 52.5840   3
  12   7  -3 16.7445 53.2284  12
  12   7  -3 44.5676 50.7573  15
 -12  -7  -3 -46.152 48.3071   9
  -7  12  -3 26.9862 45.0380  12
   6 -12  -3 175.606 53.1883   6
  -6  12  -3 186.481 47.7110  12
  12   6  -3 222.356 53.3019  15
  12   6  -3 178.070 55.4123   3
 -12  -6  -3 245.914 54.3337   9
  12   5  -3 52.9260 51.2695   3
  -5  12  -3 161.712 45.1424  12
   5 -12  -3 124.754 53.4163  10
 -12  -5  -3 68.4928 42.7488  13
 -12  -5  -3 63.4257 46.8828   9
  12   5  -3 114.006 50.8069  15
   5 -12  -3 107.210 51.4013   6
  12   4  -3 156.735 52.5651   3
  12   4  -3 88.5600 48.8720   7
   4 -12  -3 130.942 54.3385  10
 -12  -4  -3 154.221 41.6411  13
  12   4  -3 123.463 49.2607  15
  -4  12  -3 68.1697 43.2930  12
   4 -12  -3 41.2021 48.9799   6
 -12  -4  -3 127.930 48.4104   9
  -4  12  -3 71.3016 49.0660   4
 -12  -3  -3 42.0207 39.9525  13
   3 -12  -3 40.9448 48.3759   6
  -3  12  -3 4.89825 42.2760  12
   3 -12  -3 -64.639 44.5416  10
  12   3  -3 45.8370 49.3232   3
  -3  12  -3 58.1329 48.2663   4
  12   3  -3 4.31793 43.3234   7
 -12  -3  -3 32.9152 42.2706   9
  12   3  -3 -11.571 43.0541  15
 -12  -2  -3 -0.4076 39.0855   9
  12   2  -3 -23.506 44.9680   3
  12   2  -3 5.64791 44.7918  15
  12   2  -3 77.6511 58.4768  14
   2 -12  -3 -12.948 49.5606   6
  12   2  -3 6.40484 44.1498   7
   2 -12  -3 17.2839 47.1282  10
 -12  -2  -3 -5.4886 38.6015  13
  -2  12  -3 18.4906 42.6959  12
  -2  12  -3 77.1662 48.7813   4
  -1  12  -3 7.70927 48.3104   4
  -1  12  -3 85.6155 54.6671   8
  12   1  -3 55.1501 44.6042  15
  -1  12  -3 99.6536 43.6988  12
  12   1  -3 29.5786 45.1342   7
   1 -12  -3 -10.455 45.5062   6
 -12  -1  -3 65.3446 44.0145  13
   1 -12  -3 -6.4162 53.9053  10
  12   1  -3 24.0051 46.8150   3
 -12  -1  -3 27.9139 39.9447   9
 -12  -1  -3 35.0258 42.7492   5
  12   0  -3 305.073 53.7090  15
   0 -12  -3 258.477 56.3126   6
  12   0  -3 367.780 50.6976  11
   0  12  -3 281.673 63.1420   4
 -12   0  -3 226.180 46.7487   9
   0 -12  -3 257.482 60.5530  10
   0  12  -3 249.053 51.2787  12
   0 -12  -3 154.697 48.4129  14
  12   0  -3 247.985 52.7865   7
   0  12  -3 359.466 72.2875   8
 -12   0  -3 230.493 48.7884  13
  12   0  -3 302.500 56.3732   3
 -12   1  -3 -22.758 37.6873   9
  12  -1  -3 56.8637 48.4906   3
 -12   1  -3 38.7325 38.5838   1
  12  -1  -3 5.29771 48.1529   7
   1  12  -3 37.1239 43.1447  12
  12  -1  -3 135.917 46.3723  15
  -1 -12  -3 64.0817 47.8830   6
  -1 -12  -3 117.591 58.2681  10
  -2 -12  -3 85.5244 53.4953  10
  12  -2  -3 16.0148 47.7064   3
 -12   2  -3 27.7507 38.1190   9
   2  12  -3 77.9141 44.8606  12
  -2 -12  -3 -47.551 46.3764   6
  12  -2  -3 35.9936 45.1604  15
 -12   2  -3 89.7013 39.8986   1
   3  12  -3 14.4188 44.7753  12
  -3 -12  -3 -40.689 48.4578   6
 -12   3  -3 29.8156 38.2042   9
  12  -3  -3 13.7073 43.1898  15
 -12   3  -3 35.8304 40.1833   1
  12  -3  -3 60.6928 50.7691   3
 -12   4  -3 143.911 41.7993   9
  -4 -12  -3 205.549 58.5969   6
  12  -4  -3 148.110 49.6410  15
 -12   4  -3 140.085 45.5183   1
  12  -4  -3 127.992 53.8126   3
   4  12  -3 170.661 50.7525  12
  12  -4   3 60.4980 43.7473   3
 -12   5  -3 81.9674 44.3344   1
  -5 -12  -3 118.965 50.8328   9
   5  12  -3 29.7821 48.8653   3
 -12   5  -3 119.901 45.2637  12
   5  12  -3 114.955 48.9339  12
  12  -5  -3 148.962 56.9558   3
  12  -5  -3 52.2496 48.8399  15
  -5 -12  -3 201.221 57.6133   6
 -12   5  -3 58.4364 40.9148   9
  12  -5   3 143.163 39.0323  15
  12  -5   3 106.507 45.8008   3
 -12   6  -3 76.5913 45.4992  12
   6  12  -3 220.593 55.6787  12
  -6 -12  -3 279.513 61.1521   6
  -6 -12  -3 206.175 57.3478   9
  12  -6  -3 277.836 63.3117   3
   6  12  -3 133.800 49.2758  15
 -12   6  -3 229.233 46.0665   9
  12  -6  -3 183.057 55.5118   6
   6  12  -3 112.410 52.9639   3
  12  -6  -3 163.866 53.9766  15
  12  -6   3 261.733 44.6636  15
  -6 -12   3 215.206 61.7391   6
 -12   6   3 205.449 76.5455   9
   6  12   3 140.255 46.2940  12
  12  -7  -3 69.4498 52.2116   6
  12  -7  -3 -51.046 49.9676  15
  12  -7  -3 -82.894 57.2678   3
 -12   7  -3 37.7497 39.2379   9
   7  12  -3 -11.007 51.8876   3
  -7 -12  -3 -41.238 56.9980   6
   7  12  -3 7.97549 47.8714  15
   7  12  -3 144.037 58.3291  12
  -7 -12  -3 -52.934 52.6312   9
 -12   7  -3 -6.0215 42.9770  12
 -12   7   3 26.4019 54.9240   9
   7  12   3 -8.1765 46.0058  12
  12  -7   3 5.20319 36.9453  15
  -7 -12   3 -14.664 60.4542   6
  12  -8  -3 152.971 57.5885   6
   8  12  -3 23.7067 50.7797  15
  12  -8  -3 239.357 67.5192   3
  -8 -12  -3 87.5819 57.0652   9
   8  12  -3 110.970 57.5602  12
  12  -8  -3 160.483 57.2315  15
 -12   8  -3 156.839 48.3176  12
 -12   8  -3 190.539 46.6156   9
  -8 -12  -3 144.649 65.7407   6
   8  12  -3 127.560 58.1011   3
   8  12   3 108.312 53.7370  12
  12  -8   3 186.547 44.4656  15
 -12   8   3 216.406 63.0666   9
  -8 -12   3 14.6905 66.2830   6
  12  -9  -3 119.514 58.9289  15
  -9 -12  -3 29.4510 63.2724   6
  -9 -12  -3 57.1898 58.3541   9
 -12   9  -3 125.673 45.8289   9
 -12   9  -3 13.6414 45.0094  12
   9  12  -3 -5.5849 58.5135   3
  12  -9  -3 85.4568 54.0330   6
   9  12  -3 81.2847 58.6722  12
   9  12  -3 50.1752 54.7570  15
  12  -9  -3 -38.434 64.5643   3
 -12   9   3 -9.8849 59.3829   9
  12  -9   3 28.1876 40.6912  15
  -9 -12   3 139.136 70.2956   6
   9  12   3 65.4160 53.5546  12
 -10 -12  -3 -5.4570 61.9669   9
  10  12  -3 37.2347 57.5911  15
  12 -10  -3 37.0685 58.1868  15
  10  12  -3 5.90932 62.8555  12
  10  12  -3 -82.561 58.2418   3
  12 -10  -3 154.984 56.5936   6
  12 -10  -3 192.765 69.0571   3
 -12  10  -3 83.1330 45.7037  12
 -12  10  -3 94.6048 45.2566   9
 -10 -12  -3 222.506 65.6560   6
  12 -10   3 64.9061 45.0217  15
  10  12   3 80.2134 55.3509  12
 -10 -12   3 -34.216 68.2586   6
 -12  10   3 28.6399 62.6834   9
  12 -11  -3 -88.994 60.3020  15
  12 -11  -3 120.801 69.4913   3
  11  12  -3 132.647 64.4165  12
 -12  11  -3 124.643 45.5050  12
  12 -11  -3 65.4892 54.4624   6
  11  12  -3 104.570 59.0962  15
 -11 -12  -3 -32.107 64.0134   9
 -12  11  -3 93.2047 46.1752   9
 -11 -12  -3 101.695 66.6517   6
  11  12  -3 47.0122 63.8375   3
  12 -11   3 15.7377 45.5143  15
 -12  11   3 -10.621 64.5010   9
  11  12   3 49.1525 61.6288  12
 -11 -12   3 60.2720 73.8464   6
  12  12  -3 114.505 67.4016  12
  12  12  -3 70.1517 61.4244  15
 -12 -12  -3 50.9467 67.9336   9
  12 -12  -3 121.873 61.2574   6
 -12  12  -3 50.7752 46.1685  12
 -12  12  -3 194.186 49.2729   9
 -12 -12  -3 166.718 67.8035   6
  12 -12  -3 52.4290 64.5267  15
  12  12  -3 121.817 68.9409   3
  12 -12  -3 10.2838 71.9315   3
 -12  12   3 141.698 72.9430   9
  12  12   3 -19.846 58.6415  12
 -12 -12   3 20.0292 71.2280   6
  12 -12   3 94.7121 48.8835  15
  13  12  -3 -77.313 66.3304   3
 -12  13  -3 44.2301 46.0671  12
 -12  13  -3 -9.0592 43.6985   9
  13  12  -3 4.79859 58.8355  15
  12 -13  -3 58.4129 73.3730   3
 -13 -12  -3 32.2122 70.3842   9
  13  12  -3 -16.722 66.1992  12
  12 -13  -3 78.0781 63.5398  15
  12 -13  -3 -55.672 58.1914   6
 -13 -12  -3 133.926 69.5752   6
  12 -13   3 55.0604 49.8861  15
 -13 -12   3 -114.85 74.4878   6
  13  12   3 121.490 65.4995  12
 -12  13   3 -64.103 69.7522   9
 -13 -11  -3 27.1844 67.0146   9
  13  11  -3 157.814 71.4851  12
  11 -13  -3 50.4975 64.4026  15
 -11  13  -3 181.284 48.8920   9
 -11  13  -3 126.952 50.0122  12
 -13 -11  -3 47.9839 66.1711   6
  13  11  -3 83.4449 60.7338  15
  11 -13  -3 104.574 60.5542   6
  13  11  -3 100.090 65.9157   3
 -13 -11   3 -18.603 73.4888   6
  11 -13   3 45.3619 52.3373  15
  13  10  -3 36.2002 62.5709   3
 -13 -10  -3 97.9756 63.6436   6
 -10  13  -3 40.6666 45.4724  12
  13  10  -3 66.3613 66.3726  12
 -10  13  -3 6.72503 42.2956   9
  10 -13  -3 74.6252 59.7318   6
  13  10  -3 -84.058 52.2853  15
 -13 -10  -3 29.5470 65.5737   9
  10 -13  -3 4.30624 58.9112  15
  13   9  -3 -23.699 60.0698   3
 -13  -9  -3 -133.77 59.0853   9
   9 -13  -3 54.9911 58.3475  15
  13   9  -3 11.8743 54.2242  15
  -9  13  -3 93.4692 44.8684  12
  13   9  -3 114.310 65.2528  12
  -9  13  -3 7.86186 40.9930   9
   9 -13  -3 -22.453 57.1931   6
 -13  -8  -3 2.16765 56.5384   9
  13   8  -3 2.94941 52.6465  15
  13   8  -3 -17.579 55.6859   3
  13   8  -3 73.3197 69.9583  12
  -8  13  -3 -10.442 42.1458  12
   8 -13  -3 23.5160 54.7560   6
 -13  -7  -3 109.458 58.7172   9
  13   7  -3 64.4224 56.0141   3
  -7  13  -3 274.616 52.2925  12
  13   7  -3 245.711 57.3904  15
   7 -13  -3 200.389 58.3363   6
  -6  13  -3 138.480 50.2555  12
 -13  -6  -3 89.7806 52.8816   9
  13   6  -3 22.9305 52.3655   3
   6 -13  -3 52.9261 54.1264   6
  13   6  -3 114.302 52.6664  15
   5 -13  -3 213.701 59.5440   6
 -13  -5  -3 78.3525 50.6874   9
  13   5  -3 92.6704 51.4432  15
  13   5  -3 67.4133 54.1224   3
  -5  13  -3 160.005 44.4801  12
  13   4  -3 15.8571 47.9709  15
  13   4  -3 -52.143 48.0343   3
  -4  13  -3 121.893 44.4221  12
 -13  -4  -3 -12.845 38.3643  13
 -13  -4  -3 26.6018 46.7961   9
   4 -13  -3 61.4028 52.7746   6
   4 -13  -3 31.3102 48.7435  10
 -13  -3  -3 66.1778 44.3719  13
   3 -13  -3 37.8300 55.4375  10
  -3  13  -3 24.2440 44.9847  12
 -13  -3  -3 29.6072 43.6346   9
  -3  13  -3 38.7136 50.7264   4
   3 -13  -3 64.0349 49.0616   6
  13   3  -3 28.0243 44.7170   7
  13   3  -3 68.2920 51.4576   3
  13   3  -3 120.384 49.3755  15
  13   2  -3 31.8960 48.5538   3
  -2  13  -3 26.7975 44.4976  12
  13   2  -3 46.2257 46.8801  15
 -13  -2  -3 20.8254 43.0647   9
  13   2  -3 -93.378 47.0342   7
   2 -13  -3 73.8223 50.7790   6
   2 -13  -3 66.5966 57.4893  10
 -13  -2  -3 -23.753 43.3790  13
   1 -13  -3 289.496 56.4829   6
 -13  -1  -3 238.182 49.2428   9
  13   1  -3 214.702 51.4501  15
  -1  13  -3 159.296 47.7113  12
  13   1  -3 155.718 51.4562   7
  13   1  -3 173.841 52.3904   3
   1 -13  -3 157.613 63.3152  10
   0  13  -3 143.320 48.4197  12
  13   0  -3 60.0652 48.0487  15
   0 -13  -3 185.576 64.0173  10
  13   0  -3 135.168 52.6296   3
 -13   0  -3 116.058 44.2635   9
   0 -13  -3 105.281 54.4782   6
  -1 -13  -3 255.238 58.2654   6
   1  13  -3 138.261 49.8450  12
  13  -1  -3 226.249 55.9515   3
 -13   1  -3 213.482 47.0486   9
  13  -1  -3 246.184 52.6253  15
   2  13  -3 62.1984 46.5064  12
  13  -2  -3 -26.436 47.5273   3
  13  -2  -3 80.4587 46.2927  15
  -2 -13  -3 77.6158 52.5831   6
 -13   2  -3 72.9881 41.7719   9
  13  -3  -3 -24.225 45.2536  15
  -3 -13  -3 -1.1464 51.1579   6
  13  -3  -3 -28.871 50.1562   3
 -13   3  -3 -5.1269 38.7766   9
   3  13  -3 -14.328 46.2925  12
  13  -4  -3 -15.038 46.6731  15
   4  13  -3 43.5080 50.6271  12
 -13   4  -3 22.7499 38.2281   9
  -4 -13  -3 24.2413 55.9013   6
  13  -4  -3 107.222 53.2661   3
  13  -4   3 -2.7900 76.6508   3
  13  -5  -3 94.7023 56.7765   3
   5  13  -3 142.372 51.3755  12
  -5 -13  -3 104.607 57.8643   6
 -13   5  -3 100.187 42.8162   9
  13  -5  -3 111.754 51.3180  15
 -13   5  -3 67.8334 59.6319   1
  13  -5   3 77.0609 46.4759   3
  13  -6  -3 16.1049 56.8417   3
   6  13  -3 45.4453 53.2706   3
 -13   6  -3 108.986 42.2192   9
  13  -6  -3 77.0461 52.8254  15
  -6 -13  -3 109.399 59.5936   6
   6  13  -3 47.6656 56.0594  12
  13  -6   3 91.0584 39.0741  15
  13  -6   3 84.5339 48.3832   3
   7  13  -3 151.583 55.4043   3
 -13   7  -3 191.856 45.4857   9
   7  13  -3 110.674 57.3009  12
  13  -7  -3 108.356 57.4662  15
  13  -7  -3 38.8927 60.5728   3
  -7 -13  -3 61.4893 64.6752   6
  -7 -13  -3 3.29140 56.4490   9
 -13   7  -3 177.061 49.3014  12
   7  13   3 172.596 55.5390  12
  -7 -13   3 100.800 62.1121   6
 -13   7   3 -28.597 76.3826   9
  13  -7   3 129.317 41.8754  15
  13  -7   3 191.647 53.3848   3
  13  -8  -3 -53.244 63.9248   3
  13  -8  -3 -34.372 51.5462   6
   8  13  -3 9.88876 57.2146  12
   8  13  -3 13.9418 50.4164  15
 -13   8  -3 31.6807 44.9206  12
  13  -8  -3 -18.199 54.1488  15
   8  13  -3 44.6720 55.2145   3
  -8 -13  -3 71.7732 57.9781   9
 -13   8  -3 -75.241 38.1438   9
  -8 -13  -3 114.658 68.5715   6
  13  -8   3 -15.084 39.0514  15
 -13   8   3 -6.1140 60.6381   9
  13  -8   3 -44.356 48.2518   3
  -8 -13   3 -35.260 62.4092   6
   8  13   3 32.2948 55.5427  12
   9  13  -3 81.7842 61.8456  12
  -9 -13  -3 -7.2497 61.3238   9
  13  -9  -3 97.1064 60.8164  15
  13  -9  -3 68.1960 68.2111   3
   9  13  -3 70.6896 56.3496  15
 -13   9  -3 -9.8392 41.4682   9
  -9 -13  -3 4.71009 64.6581   6
   9  13  -3 -92.902 56.1370   3
  13  -9  -3 -59.581 53.3209   6
 -13   9  -3 25.2505 45.1405  12
   9  13   3 1.68125 53.4332  12
  13  -9   3 -71.976 48.9082   3
 -13   9   3 94.3743 65.1451   9
  -9 -13   3 -63.563 66.8030   6
  13  -9   3 1.55385 40.2634  15
  13 -10  -3 107.550 61.3073   6
 -10 -13  -3 -38.839 61.3159   9
  10  13  -3 55.4188 62.1114  12
  13 -10  -3 49.4712 60.6975  15
 -13  10  -3 -1.3571 44.5388   9
 -13  10  -3 48.9234 45.6030  12
  10  13  -3 47.8497 61.7996   3
 -10 -13  -3 96.9007 68.3926   6
  10  13  -3 -23.580 54.6553  15
  13 -10  -3 -35.553 68.0880   3
 -10 -13   3 -4.1655 69.6258   6
  10  13   3 60.0882 60.3603  12
 -13  10   3 87.5834 65.8072   9
  13 -10   3 69.8413 43.9466  15
  13 -10   3 12.7830 53.2108   3
  13 -11  -3 128.455 57.5838   6
  13 -11  -3 124.883 74.7692   3
 -11 -13  -3 -16.659 66.6436   9
 -13  11  -3 158.813 53.2361  12
  13 -11  -3 277.859 68.6233  15
  11  13  -3 123.914 59.3616  15
 -13  11  -3 97.8469 48.3945   9
  11  13  -3 198.279 67.8829   3
  11  13  -3 74.9396 66.3396  12
 -11 -13  -3 184.765 70.8771   6
  13 -11   3 51.8921 45.9025  15
 -13  11   3 81.1674 69.3637   9
 -11 -13   3 193.917 71.7270   6
  13 -11   3 180.482 58.9863   3
  11  13   3 31.4879 61.0985  12
  13 -12  -3 11.4214 59.0647   6
 -12 -13  -3 65.0100 68.4807   6
  12  13  -3 -1.5665 62.0923  15
 -13  12  -3 -97.406 41.9544   9
  13 -12  -3 2.74339 73.2996   3
 -12 -13  -3 -17.143 71.4269   9
 -13  12  -3 -3.7654 45.4574  12
  13 -12  -3 103.570 66.9384  15
  12  13  -3 63.6668 68.0533  12
  12  13  -3 -57.959 64.2815   3
  13 -12   3 -47.904 46.4425  15
 -12 -13   3 -85.349 70.0422   6
 -13  12   3 43.9641 70.5185   9
  13 -12   3 -62.168 55.1106   3
  12  13   3 10.7835 66.5153  12
  13 -13  -3 119.898 67.2880  15
  13 -13  -3 97.4831 77.4537   3
  13 -13  -3 49.8342 59.9496   6
 -13 -13  -3 -45.414 72.8145   9
 -13 -13  -3 99.6773 71.8340   6
 -13  13  -3 45.9557 46.6496   9
  13  13  -3 61.4507 70.1738   3
 -13  13  -3 102.020 48.0851  12
  13  13  -3 96.2379 66.0092  15
  13  13  -3 63.3356 69.7577  12
 -13 -13   3 -54.867 78.6777   6
  13 -13   3 33.7578 49.2607  15
 -13  13   3 16.5383 71.5761   9
  13 -13   3 19.3292 59.6262   3
  13  13   3 -38.060 66.0911  12
  13 -14  -3 -20.085 60.1938   6
  14  13  -3 -136.60 73.2063  12
 -14 -13  -3 106.316 71.0343   6
 -14 -13  -3 69.7760 79.9841   9
 -13  14  -3 99.8173 49.3575   9
  14  13  -3 71.8581 73.2549   3
  13 -14  -3 103.455 71.6705  15
 -14 -13   3 51.2307 77.4839   6
  13 -14   3 -2.8785 49.6754  15
  13 -14   3 16.5663 60.0698   3
 -13  14   3 -94.914 72.4671   9
  14  13   3 48.5901 71.1318  12
  12 -14  -3 103.539 62.4560   6
  14  12  -3 33.0654 63.5458  15
  14  12  -3 -54.667 73.2657  12
  14  12  -3 -119.12 66.7882   3
  12 -14  -3 54.5103 66.9277  15
 -14 -12  -3 96.8235 68.8391   6
 -12  14  -3 24.8103 49.1432  12
 -12  14  -3 56.5163 48.2888   9
 -14 -12  -3 65.8680 75.1641   9
  14  12   3 -5.7874 65.3699  12
 -14 -12   3 167.969 81.3877   6
  12 -14   3 38.2321 51.9988  15
 -12  14   3 -12.549 72.2055   9
  12 -14   3 -4.2181 61.9124   3
 -11  14  -3 75.4219 47.8481  12
 -14 -11  -3 3.65447 73.7409   6
  14  11  -3 46.0629 66.2230   3
  14  11  -3 -8.9116 70.6610  12
  11 -14  -3 110.174 65.6164  15
  11 -14  -3 40.7662 59.6032   6
  14  11  -3 -16.946 60.7194  15
 -14 -11  -3 23.3301 70.9502   9
 -11  14  -3 27.2556 46.1974   9
 -14 -11   3 -3.5347 79.0794   6
  11 -14   3 33.8655 55.2576  15
  14  10  -3 -6.5896 63.8988   3
 -14 -10  -3 195.023 73.2742   9
  14  10  -3 271.760 72.7823  12
  14  10  -3 119.703 63.3266  15
  10 -14  -3 122.148 57.4251   6
 -10  14  -3 199.312 49.8767  12
 -10  14  -3 178.131 51.1936   9
  14   9  -3 33.0927 55.9963  15
  14   9  -3 -11.225 61.9231   3
   9 -14  -3 -49.602 53.7432   6
 -14  -9  -3 18.6335 61.5546   9
  -9  14  -3 64.0423 47.1557  12
  14   8  -3 100.274 61.2557   3
  14   8  -3 30.4428 53.9919  15
  -8  14  -3 0.57174 45.6990  12
   8 -14  -3 33.3615 52.2745   6
 -14  -8  -3 52.9629 61.6127   9
  14   7  -3 20.1192 58.7092   3
  14   7  -3 60.7048 53.4300  15
   7 -14  -3 109.985 54.2181   6
  -7  14  -3 81.3132 47.6266  12
 -14  -7  -3 90.9234 59.7625   9
  14   6  -3 97.7881 57.2913   3
  14   6  -3 97.1406 52.3524  15
  -6  14  -3 132.067 47.7868  12
   6 -14  -3 84.5140 53.1591   6
 -14  -6  -3 127.029 53.5019   9
  -5  14  -3 69.2918 43.8044  12
   5 -14  -3 129.188 53.9518   6
 -14  -5  -3 95.7197 50.3906   9
  14   5  -3 -24.421 52.9284   3
  14   5  -3 65.4136 51.4059  15
  -4  14  -3 -83.704 42.0383  12
  14   4  -3 85.1902 53.7642   3
  14   4  -3 -10.057 48.2141  15
   4 -14  -3 43.7196 55.2233   6
 -14  -4  -3 -5.1056 48.3692   9
   3 -14  -3 179.173 54.4192   6
  14   3  -3 209.275 57.3838   3
  14   3  -3 129.707 52.9699  15
 -14  -3  -3 182.244 51.0850   9
   3 -14  -3 161.360 58.9369  10
  -3  14  -3 219.856 52.6044  12
  14   2  -3 93.1661 51.7601   3
  -2  14  -3 -57.179 45.6521  12
 -14  -2  -3 31.7850 43.5490   9
   2 -14  -3 21.6315 56.2925   6
  14   2  -3 62.4716 49.6362  15
  14   1  -3 174.154 55.0228   3
 -14  -1  -3 203.366 49.6875   9
  14   1  -3 88.7517 48.5380  15
  -1  14  -3 195.953 50.9464  12
   1 -14  -3 140.846 53.6765   6
  14   0  -3 72.8697 48.6419  15
   0  14  -3 75.1628 46.6270  12
 -14   0  -3 68.2704 44.5561   9
   0 -14  -3 168.946 54.3210   6
  14   0  -3 54.5607 51.6523   3
   1  14  -3 220.676 50.2978  12
 -14   1  -3 194.871 48.2167   9
  14  -1  -3 136.885 51.6342  15
  14  -1  -3 197.179 55.4507   3
  -1 -14  -3 191.147 55.1898   6
  -2 -14  -3 85.0535 53.6224   6
   2  14  -3 104.720 48.4553  12
  14  -2  -3 -15.539 46.1604  15
 -14   2  -3 11.7259 40.2568   9
  14  -2  -3 50.8513 51.3386   3
  14  -3  -3 170.641 57.2833   3
  14  -3  -3 140.353 51.0240  15
   3  14  -3 139.573 52.6463  12
 -14   3  -3 221.926 47.2898   9
  -3 -14  -3 198.893 59.1647   6
  14  -4  -3 81.5161 54.8133   3
  14  -4  -3 72.5673 49.6829  15
 -14   4  -3 13.0392 39.8732   9
  -4 -14  -3 51.5285 59.7982   6
   4  14  -3 -40.210 47.8662  12
  14  -5  -3 113.785 58.6405   3
 -14   5  -3 59.1545 41.3646   9
  14  -5  -3 188.423 54.7933  15
   5  14  -3 19.1385 52.8573  12
  -5 -14  -3 228.171 66.7420   6
  14  -5   3 51.9112 50.4967   3
 -14   6  -3 208.583 46.7971   9
  -6 -14  -3 184.245 63.7657   6
  14  -6  -3 73.3411 54.2445  15
  14  -6  -3 74.5954 59.8063   3
   6  14  -3 140.994 57.4612  12
  14  -6   3 117.735 52.0545   3
  14  -7  -3 63.6391 62.4747   3
 -14   7  -3 43.0092 41.9930   9
   7  14  -3 76.6409 58.9306   3
   7  14  -3 10.8980 56.0783  12
  14  -7  -3 121.820 57.5546  15
  -7 -14  -3 66.9670 65.7985   6
  14  -7   3 18.1962 50.0386   3
  14  -7   3 67.6481 41.5203  15
  14  -8  -3 129.207 58.2043  15
   8  14  -3 41.9522 60.5768  12
 -14   8  -3 98.2998 44.2853   9
   8  14  -3 64.6165 60.6553   3
 -14   8  -3 -22.887 43.3172  12
  14  -8  -3 73.8191 67.3139   3
  -8 -14  -3 -38.804 61.6009   9
  -8 -14  -3 -37.656 64.0505   6
  14  -8   3 10.6318 41.6399  15
 -14   8   3 -68.327 88.7479   9
  -8 -14   3 -12.163 66.8499   6
  14  -8   3 9.81389 51.0170   3
   8  14   3 62.5751 53.4731  12
 -14   9  -3 19.3551 44.9185   9
  -9 -14  -3 -35.722 65.1391   9
  14  -9  -3 10.1377 58.3514  15
   9  14  -3 -57.683 58.8685   3
  -9 -14  -3 48.5401 69.6454   6
  14  -9  -3 -71.331 57.4903   6
 -14   9  -3 47.5865 46.9546  12
   9  14  -3 98.2180 61.8237  12
  14  -9  -3 103.570 68.5499   3
  -9 -14   3 92.3409 72.2224   6
  14  -9   3 59.8273 53.4357   3
   9  14   3 -103.64 52.5605  12
  14  -9   3 18.9831 42.3515  15
 -14   9   3 -12.065 63.2870   9
  10  14  -3 115.924 60.3267  15
 -10 -14  -3 52.1528 69.8145   6
 -10 -14  -3 27.0677 69.4443   9
  10  14  -3 97.0008 67.1363  12
 -14  10  -3 89.1527 48.9705   9
  14 -10  -3 79.1954 66.5961  15
  14 -10  -3 200.097 75.5728   3
  14 -10  -3 62.3129 60.8113   6
 -14  10  -3 120.726 49.5949  12
  10  14  -3 67.9807 64.3492   3
 -10 -14   3 64.8154 68.7228   6
  14 -10   3 96.1176 58.1326   3
  10  14   3 209.722 66.7523  12
  14 -10   3 49.4358 45.5186  15
 -14  10   3 155.159 67.4892   9
 -11 -14  -3 -34.432 68.2977   6
  11  14  -3 -23.287 66.2957  12
  14 -11  -3 -106.33 72.1590   3
  11  14  -3 -141.41 55.9469  15
 -11 -14  -3 77.4542 72.2938   9
  14 -11  -3 12.1642 56.8354   6
  11  14  -3 53.3426 66.4407   3
 -14  11  -3 -76.298 47.8101  12
 -14  11  -3 -38.531 45.1087   9
  14 -11  -3 -165.92 62.2324  15
 -14  11   3 -0.5935 64.7942   9
  11  14   3 -0.1890 64.3211  12
 -11 -14   3 33.7015 75.9995   6
  14 -11   3 -36.170 46.3369  15
  14 -11   3 18.7669 57.0085   3
  12  14  -3 62.2160 69.2042   3
 -12 -14  -3 -14.286 73.9681   9
  12  14  -3 53.2962 61.9861  15
  12  14  -3 -26.155 69.3534  12
  14 -12  -3 -7.0220 76.0305   3
  14 -12  -3 34.0478 68.9751  15
 -14  12  -3 116.743 51.2284   9
 -14  12  -3 86.4154 52.0822  12
  14 -12  -3 29.7369 62.2639   6
 -12 -14  -3 98.0449 72.4599   6
 -12 -14   3 -28.859 78.8809   6
  14 -12   3 47.1387 62.1621   3
  14 -12   3 58.3850 47.8309  15
 -14  12   3 23.5921 70.0353   9
  12  14   3 53.3364 70.2090  12
  14 -13  -3 124.680 65.2132   6
  13  14  -3 176.808 77.1299  12
 -14  13  -3 -53.149 45.4597   9
  13  14  -3 -60.222 68.4568   3
 -13 -14  -3 -1.7358 71.9213   6
 -13 -14  -3 -93.933 75.1552   9
  14 -13  -3 -32.574 65.2533  15
  14 -13  -3 34.4104 79.2459   3
 -13 -14   3 -61.453 79.7858   6
 -14  13   3 -63.936 69.0260   9
  13  14   3 42.6330 67.7725  12
  14 -13   3 18.2149 51.5589  15
  14 -13   3 -105.23 56.1763   3
 -14  14  -3 126.914 52.7758   9
  14  14  -3 263.859 80.9456  12
  14 -14  -3 111.637 83.8019   3
  14 -14  -3 -67.022 70.8222  15
 -14 -14  -3 18.5685 73.0165   6
 -14 -14  -3 74.0878 79.0565   9
  14 -14  -3 79.6568 63.5064   6
  14  14   3 200.988 77.2287  12
 -14  14   3 61.4360 76.1085   9
 -14 -14   3 132.575 81.7155   6
  14 -14   3 154.953 58.3770  15
  14 -14   3 143.100 67.2647   3
  15  13  -3 -20.071 80.1469  12
  13 -15  -3 103.833 72.6950  15
 -13  15  -3 54.3054 50.3996   9
  13 -15  -3 6.42988 62.0892   6
 -15 -13  -3 -7.1154 70.8147   6
 -15 -13  -3 -36.046 80.3822   9
 -13  15   3 2.08486 74.5152   9
  13 -15   3 -27.085 53.2657  15
  13 -15   3 -84.842 58.6233   3
 -15 -13   3 -68.015 75.8588   6
  15  13   3 -37.861 72.4508  12
  12 -15  -3 82.2344 63.7602   6
  15  12  -3 256.001 80.2503  12
  15  12  -3 -36.679 68.2382   3
 -12  15  -3 32.8298 48.8513   9
 -15 -12  -3 -55.824 76.1762   9
  15  12  -3 12.2166 65.9387  15
  12 -15  -3 16.8500 70.5346  15
  12 -15   3 62.0732 55.6998  15
  12 -15   3 -47.700 63.6980   3
 -12  15   3 -13.908 73.6640   9
  15  12   3 -108.94 62.8499  12
 -15 -12   3 -36.931 79.7908   6
  15  11  -3 1.36863 61.6884  15
 -11  15  -3 -4.7661 49.9316  12
 -15 -11  -3 13.1551 73.0064   9
  15  11  -3 96.0721 69.2541   3
  15  11  -3 53.4236 74.4717  12
  11 -15  -3 75.8182 63.2190   6
 -15 -11   3 57.0275 82.2957   6
  11 -15   3 46.5802 57.0471  15
  10 -15  -3 44.5169 61.1356   6
 -10  15  -3 102.562 50.7529  12
  15  10  -3 -22.015 64.6911   3
  15  10  -3 56.5911 59.4754  15
 -15 -10  -3 33.6281 69.9808   9
 -15  -9  -3 80.9982 67.9292   9
  -9  15  -3 38.6707 47.0317  12
  15   9  -3 -1.7586 58.2072  15
   9 -15  -3 18.5981 61.1773   6
  15   9  -3 37.5383 66.8116   3
  15   8  -3 39.2906 57.5459  15
  15   8  -3 26.1597 61.8291   3
   8 -15  -3 52.0348 60.7916   6
 -15  -8  -3 128.592 68.5708   9
  -8  15  -3 71.3796 48.3569  12
  -7  15  -3 80.3824 49.6575  12
  15   7  -3 -42.363 57.7615   3
 -15  -7  -3 116.377 64.4460   9
  15   7  -3 42.0797 55.0319  15
   7 -15  -3 -22.373 53.7091   6
  -6  15  -3 56.7868 47.3371  12
  15   6  -3 85.6680 55.1382  15
  15   6  -3 105.149 60.5415   3
   6 -15  -3 94.2639 55.3316   6
 -15  -6  -3 71.0006 55.1623   9
 -15  -5  -3 68.0302 53.7914   9
  15   5  -3 57.2912 53.6110  15
  15   5  -3 32.4447 57.2176   3
   5 -15  -3 2.75579 55.4474   6
  -5  15  -3 178.042 48.0493  12
   4 -15  -3 172.893 57.6914   6
 -15  -4  -3 56.5468 52.0075   9
  15   4  -3 94.6454 52.4249  15
  -4  15  -3 155.861 52.7873  12
  15   4  -3 46.0259 55.8542   3
  -3  15  -3 88.2962 49.6677  12
  15   3  -3 -11.462 49.3706  15
 -15  -3  -3 -76.870 43.1356   9
   3 -15  -3 41.1775 54.5048   6
  15   3  -3 22.2817 54.9895   3
  15   2  -3 9.94260 49.7930  15
   2 -15  -3 -40.695 51.7752   6
 -15  -2  -3 50.1934 47.2544   9
  15   2  -3 89.9001 53.8336   3
  -2  15  -3 50.0890 50.2635  12
   1 -15  -3 29.9229 52.3096   6
  -1  15  -3 25.0647 45.9384  12
 -15  -1  -3 35.9296 43.5074   9
  15   1  -3 56.9486 49.5951  15
  15   1  -3 77.2433 54.5594   3
 -15   0  -3 268.026 53.4336   9
   0  15  -3 379.158 58.5004  12
   0 -15  -3 281.945 61.2621   6
  15   0  -3 249.098 60.5913   3
  15   0  -3 304.034 58.5233  15
 -15   1  -3 -1.8257 42.2551   9
  -1 -15  -3 139.512 54.0298   6
   1  15  -3 12.6688 44.6586  12
  15  -1  -3 27.6357 51.1240   3
  15  -1  -3 114.867 50.9473  15
  -2 -15  -3 26.6287 57.6488   6
  15  -2  -3 23.7838 48.7442  15
   2  15  -3 20.1777 49.3549  12
 -15   2  -3 67.7386 43.6988   9
  15  -2  -3 -54.256 49.3982   3
  15  -3  -3 -42.263 53.2225   3
 -15   3  -3 41.5875 42.6154   9
  15  -3  -3 107.495 50.5689  15
   3  15  -3 -24.668 46.1302  12
  -3 -15  -3 2.73434 56.2788   6
  -4 -15  -3 71.6491 59.6598   6
  15  -4  -3 35.7175 56.2058   3
  15  -4  -3 146.716 53.5231  15
 -15   4  -3 79.8980 43.4421   9
   4  15  -3 88.9122 51.1439  12
  15  -5  -3 94.0855 59.4576   3
 -15   5  -3 20.6184 42.6082   9
  -5 -15  -3 57.9791 60.6656   6
   5  15  -3 93.4807 53.2529  12
  15  -5  -3 132.657 55.9587  15
  15  -6  -3 150.711 63.0402   3
 -15   6  -3 199.052 47.7414   9
   6  15  -3 -27.141 56.2106  12
  -6 -15  -3 156.669 68.5479   6
  15  -6  -3 67.0972 54.7638  15
  15  -6   3 191.136 54.1470   3
  15  -7  -3 -66.775 54.7370  15
   7  15  -3 -53.986 58.8700  12
  15  -7  -3 -5.0715 59.5735   3
  -7 -15  -3 88.0492 65.7593   6
 -15   7  -3 60.8336 43.5983   9
  15  -7   3 43.2283 50.2833   3
  15  -8  -3 252.835 73.1789   3
   8  15  -3 154.431 66.5941  12
 -15   8  -3 188.944 49.8531   9
  15  -8  -3 46.1898 60.7373  15
  -8 -15  -3 180.148 70.0225   6
  15  -8   3 134.137 56.7715   3
  15  -8   3 112.638 46.4340  15
  15  -9  -3 36.2716 70.7752   3
  15  -9  -3 65.5809 61.5742  15
   9  15  -3 30.5980 63.4428   3
 -15   9  -3 14.7606 45.3338   9
  -9 -15  -3 -12.867 72.2271   6
   9  15  -3 34.3266 62.7443  12
   9  15   3 72.2013 56.8743  12
  -9 -15   3 33.2815 69.5175   6
  15  -9   3 -26.649 53.5339   3
  15  -9   3 75.3304 45.7390  15
  15 -10  -3 112.858 76.8648   3
  10  15  -3 116.073 67.0087  12
 -10 -15  -3 153.872 71.1089   6
  15 -10  -3 188.147 67.9404  15
 -10 -15  -3 9.28120 71.8029   9
  10  15  -3 176.082 67.3044   3
 -15  10  -3 61.3215 49.2040   9
 -15  10   3 -4.1121 69.5444   9
  15 -10   3 52.7493 47.0128  15
 -10 -15   3 16.2298 71.4530   6
  15 -10   3 84.3773 57.6630   3
  10  15   3 111.814 59.8206  12
  15 -11  -3 136.740 79.7621   3
  15 -11  -3 12.5559 56.3899   6
  11  15  -3 114.213 68.5270   3
 -11 -15  -3 122.114 73.9568   6
  15 -11  -3 164.197 71.6913  15
 -11 -15  -3 60.2906 75.6818   9
 -15  11  -3 50.5871 49.2804  12
  11  15  -3 140.582 70.5044  12
 -15  11  -3 124.154 51.2941   9
 -11 -15   3 -91.776 72.8826   6
  15 -11   3 51.8907 47.6011  15
  15 -11   3 77.6828 60.3204   3
 -15  11   3 -4.2788 70.1510   9
  11  15   3 65.3257 66.7687  12
  15 -12  -3 254.742 84.5342   3
 -12 -15  -3 -8.5499 71.5660   6
  15 -12  -3 90.2747 70.3041  15
  15 -12  -3 -43.186 61.1605   6
 -15  12  -3 74.9299 51.1225   9
  12  15  -3 65.4885 70.2622  12
 -12 -15  -3 -51.199 79.7988   9
 -15  12   3 33.7507 75.8511   9
  12  15   3 99.2140 69.5324  12
  15 -12   3 123.050 52.7767  15
 -12 -15   3 142.580 78.3640   6
  15 -12   3 14.5483 58.6031   3
  15 -13  -3 137.581 83.0001   3
 -15  13  -3 77.5972 51.1862   9
 -13 -15  -3 56.3423 72.3599   6
  15 -13  -3 -28.712 71.5214  15
 -13 -15  -3 -36.861 80.9445   9
  13  15  -3 119.044 79.0202  12
  15 -13  -3 -56.803 61.2792   6
  13  15   3 98.3461 68.0447  12
  15 -13   3 68.5342 64.1971   3
  15 -13   3 25.9277 51.7695  15
 -15  13   3 -43.814 73.3967   9
 -13 -15   3 -56.503 78.2197   6
  12 -16  -3 -56.217 61.3852   6
  16  12  -3 36.7543 71.0740   3
  16  12  -3 -29.855 63.0071  15
 -12  16  -3 58.9191 51.7064  12
 -16 -12  -3 53.5341 78.5411   9
  12 -16   3 17.4069 63.6610   3
 -16 -12   3 13.6457 83.8824   6
 -12  16   3 23.3234 76.4329   9
  12 -16   3 19.3593 55.5818  15
  16  12   3 13.0069 71.1815  12
  16  11  -3 31.4193 70.6629   3
  16  11  -3 105.985 66.2433  15
  11 -16  -3 16.1380 61.9473   6
 -11  16  -3 -16.274 50.6650  12
 -16 -11  -3 31.4628 76.6786   9
  16  11   3 -13.251 69.5170  12
 -16 -11   3 113.201 79.9168   6
  11 -16   3 9.75757 58.8898  15
 -11  16   3 34.6864 71.2049   9
  10 -16  -3 98.5405 63.2274   6
  16  10  -3 -36.749 61.9250  15
  16  10  -3 113.480 70.5214   3
 -10  16  -3 72.4459 51.2148  12
 -16 -10  -3 115.855 75.3341   9
  16   9  -3 70.9310 67.6135   3
  -9  16  -3 86.2010 51.5560  12
 -16  -9  -3 103.148 72.6759   9
   9 -16  -3 26.6005 61.1895   6
  16   9  -3 -15.699 57.8519  15
   8 -16  -3 -59.454 59.2644   6
  16   8  -3 -41.402 63.3624   3
 -16  -8  -3 -161.05 63.4639   9
  -8  16  -3 -129.37 49.2687  12
  16   8  -3 -4.3694 58.6581  15
   7 -16  -3 39.9714 56.9610   6
  16   7  -3 97.5013 57.5988  15
  16   7  -3 -73.007 59.3408   3
 -16  -7  -3 16.2549 64.7329   9
  -7  16  -3 159.760 56.4567  12
  -6  16  -3 -24.222 49.6805  12
  16   6  -3 107.801 63.6653   3
   6 -16  -3 -57.825 54.9343   6
  16   6  -3 9.06290 57.2734  15
 -16  -6  -3 55.9057 61.5802   9
   5 -16  -3 110.901 63.0238   6
  16   5  -3 83.2028 57.4240  15
  16   5  -3 42.6601 60.2682   3
  -5  16  -3 8.61120 47.6457  12
 -16  -5  -3 105.009 59.1376   9
 -16  -4  -3 111.336 54.7490   9
   4 -16  -3 78.5933 58.0125   6
  -4  16  -3 -30.162 48.1097  12
  16   4  -3 -27.486 52.0314  15
  16   4  -3 42.8862 58.3879   3
  16   3  -3 27.3082 56.1701   3
  -3  16  -3 -41.043 48.5587  12
  16   3  -3 -39.168 51.9507  15
   3 -16  -3 47.5815 57.0062   6
 -16  -3  -3 44.5011 51.5931   9
  -2  16  -3 33.8236 51.6409  12
 -16  -2  -3 83.5002 50.8874   9
  16   2  -3 6.27765 54.3559   3
   2 -16  -3 -66.078 53.3487   6
  16   2  -3 60.6275 53.6580  15
  16   1  -3 38.4464 52.8840  15
   1 -16  -3 59.9300 55.2980   6
  16   1  -3 46.1758 56.6157   3
 -16  -1  -3 87.1781 48.5383   9
  -1  16  -3 160.001 51.4139  12
   0 -16  -3 70.3647 56.9012   6
 -16   0  -3 104.903 48.5685   9
   0  16  -3 23.9863 48.6164  12
  16   0  -3 74.2679 53.1928  15
  16   0  -3 140.552 58.1303   3
  16  -1  -3 69.2679 52.1056  15
  16  -1  -3 -51.421 51.3385   3
  -1 -16  -3 98.4250 56.9256   6
 -16   1  -3 -64.578 43.5936   9
   1  16  -3 -14.864 48.3853  12
  16  -2  -3 34.2372 52.8748   3
 -16   2  -3 13.2553 43.1082   9
  16  -2  -3 70.7294 51.9037  15
  -2 -16  -3 -23.496 53.8617   6
   2  16  -3 47.6484 49.8579  12
  16  -3  -3 59.7694 56.9804   3
   3  16  -3 18.2720 52.2497  12
  -3 -16  -3 22.9777 62.0981   6
 -16   3  -3 66.6529 43.9186   9
  16  -3  -3 -33.002 49.4160  15
  -4 -16  -3 106.948 66.5567   6
   4  16  -3 75.2550 55.1201  12
 -16   4  -3 124.341 46.2073   9
  16  -4  -3 10.4780 56.1858   3
  16  -4  -3 86.4606 53.9528  15
   5  16  -3 35.1893 54.5342  12
  -5 -16  -3 66.4945 60.4392   6
  16  -5  -3 50.4730 54.8578  15
  16  -5  -3 5.12515 60.1848   3
 -16   5  -3 24.6337 45.1273   9
  16  -6  -3 84.2359 63.3367   3
   6  16  -3 49.0181 58.1644  12
  -6 -16  -3 -64.862 64.7518   6
 -16   6  -3 53.5660 45.3679   9
  16  -6  -3 113.285 57.4006  15
  16  -7  -3 41.6102 65.7192   3
 -16   7  -3 58.8855 44.5011   9
  -7 -16  -3 111.578 69.7794   6
   7  16  -3 21.0172 62.2050  12
  16  -7  -3 37.5034 58.1067  15
  16  -7   3 75.9618 54.8653   3
  -8 -16  -3 75.4335 73.6726   6
   8  16  -3 50.9895 62.3797  12
 -16   8  -3 -13.554 43.3255   9
  16  -8  -3 -7.7582 58.7628  15
  16  -8  -3 -20.664 65.7067   3
  16  -8   3 -27.210 53.6365   3
  16  -9  -3 27.4054 74.5490   3
   9  16  -3 64.1296 66.2441  12
 -16   9  -3 108.547 49.5728   9
  16  -9  -3 122.680 65.9408  15
  -9 -16  -3 127.097 77.4563   6
  16  -9   3 70.8149 52.6455  15
  16  -9   3 84.2738 58.1390   3
  10  16  -3 -68.014 64.4072  12
  16 -10  -3 54.7657 64.5867  15
 -16  10  -3 1.64840 46.4935   9
  16 -10  -3 5.91422 75.9748   3
 -10 -16  -3 96.2331 76.3781   6
  10  16   3 -43.616 60.1877  12
  16 -10   3 33.4958 57.2974   3
  16 -10   3 22.0915 48.6788  15
 -10 -16   3 148.346 73.2028   6
  16 -11  -3 116.280 79.7833   3
  11  16  -3 98.3189 75.3812  12
 -11 -16  -3 38.5810 70.6617   6
 -16  11  -3 34.5410 50.2547   9
  16 -11  -3 -100.44 63.8257  15
  16 -11   3 62.2553 61.0440   3
 -16  11   3 -14.035 69.8793   9
  12  16  -3 94.6085 72.1894   3
  16 -12  -3 103.160 83.8105   3
 -12 -16  -3 174.516 78.1026   6
 -16  12  -3 109.380 53.7556   9
  16 -12  -3 184.483 77.2560  15
  12  16  -3 1.18045 72.8205  12
 -12 -16   3 40.4015 80.6353   6
  16 -12   3 38.9858 61.0264   3
  12  16   3 75.2995 66.7566  12
  16 -12   3 120.340 52.8279  15
 -17 -10  -3 61.2380 78.3556   9
  10 -17  -3 149.269 64.3595   6
  17  10  -3 -17.220 59.7703  15
 -10  17  -3 62.2722 51.8971  12
  17  10  -3 -87.398 69.0063   3
  10 -17   3 102.783 64.1776  15
 -17 -10   3 -136.58 79.5399   6
  -9  17  -3 10.4013 49.8048  12
  17   9  -3 -3.6151 69.0225   3
   9 -17  -3 -1.7991 61.2432   6
  17   9  -3 -29.310 58.8528  15
 -17  -9  -3 -20.567 72.0535   9
 -17  -8  -3 -52.831 71.6764   9
  17   8  -3 159.735 72.0623   3
   8 -17  -3 -34.940 56.0702   6
  -8  17  -3 -59.646 49.3069  12
  17   8  -3 94.0291 64.7831  15
  17   7  -3 63.4845 60.6677  15
  17   7  -3 33.4454 63.0568   3
 -17  -7  -3 76.8443 69.6854   9
  -7  17  -3 88.7044 53.1396  12
   7 -17  -3 54.9841 63.2741   6
   6 -17  -3 69.1444 59.4004   6
  -6  17  -3 177.192 54.4972  12
  17   6  -3 -77.796 62.5107   3
  17   6  -3 23.2130 59.0576  15
 -17  -6  -3 86.4690 65.5575   9
   5 -17  -3 62.7307 64.8914   6
  17   5  -3 -10.227 55.9052  15
  17   5  -3 74.6410 64.1665   3
 -17  -5  -3 144.830 64.4429   9
  -5  17  -3 84.6579 54.6678  12
   4 -17  -3 78.9735 60.1059   6
 -17  -4  -3 200.665 61.0624   9
  -4  17  -3 40.8731 53.1940  12
  17   4  -3 207.622 61.5162  15
  17   4  -3 43.6495 62.6267   3
 -17  -3  -3 19.0606 53.2405   9
  17   3  -3 68.0820 57.9766  15
   3 -17  -3 4.03134 58.3009   6
  17   3  -3 -12.554 58.7377   3
  -3  17  -3 34.4265 53.5674  12
  17   2  -3 80.7352 58.5019   3
   2 -17  -3 61.3825 60.1904   6
  17   2  -3 16.1056 54.3113  15
 -17  -2  -3 87.3008 54.7383   9
  -2  17  -3 159.750 58.9480  12
  17   1  -3 -21.601 56.5723   3
   1 -17  -3 165.188 60.7886   6
  -1  17  -3 1.48853 55.1008  12
  17   1  -3 37.3683 54.0157  15
 -17  -1  -3 49.0313 51.0718   9
  17   0  -3 151.657 57.1659  15
   0  17  -3 212.974 59.0664  12
   0 -17  -3 133.178 63.8905   6
 -17   0  -3 139.756 51.8362   9
  17   0  -3 67.1133 59.6484   3
  -1 -17  -3 44.8515 56.4671   6
  17  -1  -3 -53.655 55.4114   3
   1  17  -3 -60.063 49.6333  12
  17  -1  -3 -101.21 51.0038  15
 -17   1  -3 43.3367 47.8568   9
  17  -2  -3 115.514 58.3688   3
 -17   2  -3 78.9867 47.4677   9
   2  17  -3 93.5441 54.9682  12
  17  -2  -3 20.0596 54.9297  15
  -2 -17  -3 55.2819 63.4470   6
  17  -3  -3 80.1877 59.8809   3
  -3 -17  -3 35.2928 64.6945   6
 -17   3  -3 -50.885 44.8558   9
  17  -3  -3 38.8380 52.7830  15
   3  17  -3 -24.981 53.2161  12
 -17   4  -3 118.186 47.9814   9
  17  -4  -3 25.4131 58.5314   3
   4  17  -3 17.5115 56.0555  12
  17  -4  -3 119.927 56.7638  15
  -4 -17  -3 66.7707 68.5142   6
  17  -5  -3 104.181 58.5318  15
   5  17  -3 -27.403 55.0891  12
  -5 -17  -3 -31.994 61.5367   6
 -17   5  -3 87.5725 46.4120   9
  17  -5  -3 4.83229 62.4291   3
   6  17  -3 104.622 60.4794  12
  -6 -17  -3 84.4594 71.5109   6
 -17   6  -3 109.538 48.8108   9
  17  -6  -3 7.87381 57.5662  15
  17  -6  -3 55.9124 65.1400   3
  17  -7  -3 57.2211 65.3352   3
  17  -7  -3 112.246 62.1480  15
   7  17  -3 28.4867 62.9181  12
  -7 -17  -3 76.1461 73.5287   6
 -17   7  -3 101.179 48.9592   9
  17  -8  -3 12.2427 68.6501   3
 -17   8  -3 9.20444 45.2839   9
  -8 -17  -3 14.4444 71.2313   6
   8  17  -3 -5.9250 61.2217  12
  17  -8  -3 -47.393 59.8728  15
  17  -8   3 18.2144 57.5412   3
 -17   9  -3 17.4857 45.7226   9
   9  17  -3 94.5675 69.7482  12
  -9 -17  -3 -51.181 69.2804   6
  17  -9  -3 28.6869 73.4800   3
  17  -9  -3 9.12383 63.6394  15
  17 -10  -3 89.7274 68.3036  15
  17 -10  -3 95.9657 78.3264   3
  10  17  -3 90.1608 69.0509  12
 -17  10  -3 9.51182 48.4774   9
 -10 -17  -3 162.736 75.0925   6
  17 -10   3 -16.502 95.9496  15
  17 -10   3 19.5567 60.4691   3
 -18  -8  -3 83.1073 76.2055   9
   8 -18  -3 110.749 64.0399   6
  18   8  -3 8.40591 61.1534  15
  -8  18  -3 7.27566 57.6062  12
  18   8  -3 47.5938 69.5694   3
  -7  18  -3 36.3014 53.8472  12
 -18  -7  -3 -52.079 70.0979   9
  18   7  -3 -121.34 58.5626  15
   7 -18  -3 60.6386 61.8070   6
  18   7  -3 72.1593 67.0216   3
 -18  -6  -3 125.492 69.1864   9
  18   6  -3 -36.483 63.4535   3
  -6  18  -3 59.3413 52.6813  12
   6 -18  -3 12.8628 65.9684   6
  18   6  -3 -9.9052 60.8942  15
  18   5  -3 17.3454 59.4535  15
  -5  18  -3 -35.001 52.8603  12
  18   5  -3 -11.757 65.4460   3
 -18  -5  -3 9.25212 66.4774   9
   5 -18  -3 10.8179 64.8584   6
  18   4  -3 -54.303 55.7216  15
  18   4  -3 17.4899 64.2923   3
 -18  -4  -3 48.8876 62.4741   9
   4 -18  -3 -1.4780 61.3779   6
  -4  18  -3 37.6366 53.3675  12
   3 -18  -3 -4.2494 60.0730   6
 -18  -3  -3 24.0918 57.3352   9
  18   3  -3 20.3490 62.1941   3
  -3  18  -3 21.1826 54.8796  12
  18   3  -3 -144.41 52.9144  15
  -2  18  -3 107.174 58.8652  12
  18   2  -3 65.5107 59.3257  15
  18   2  -3 60.9641 60.8036   3
 -18  -2  -3 121.692 58.3549   9
   2 -18  -3 66.9764 64.2126   6
   1 -18  -3 151.144 68.6416   6
 -18  -1  -3 -69.725 51.0141   9
  18   1  -3 -43.926 60.0103   3
  18   1  -3 129.254 58.1447  15
  -1  18  -3 29.3921 53.8149  12
  18   0  -3 84.6999 57.8392  15
  18   0  -3 -0.5774 60.4811   3
   0  18  -3 33.0011 57.8207  12
 -18   0  -3 65.8778 52.6834   9
   0 -18  -3 -72.161 58.0642   6
   1  18  -3 42.4512 55.5530  12
  -1 -18  -3 -29.064 64.4788   6
  18  -1  -3 9.06359 59.9309   3
  18  -1  -3 7.35577 55.1258  15
 -18   1  -3 -46.443 47.3633   9
 -18   2  -3 134.440 51.7407   9
  -2 -18  -3 76.7374 67.0093   6
  18  -2  -3 105.921 58.1833  15
  18  -2  -3 119.361 61.9938   3
   2  18  -3 5.58559 54.8211  12
  -3 -18  -3 43.0171 66.9793   6
  18  -3  -3 -72.304 53.4984  15
  18  -3  -3 -38.945 59.5218   3
 -18   3  -3 -24.279 47.0233   9
   3  18  -3 47.6889 56.3045  12
  18  -4  -3 65.0593 62.9140   3
  18  -4  -3 -12.405 54.0877  15
 -18   4  -3 23.2424 47.6121   9
  -4 -18  -3 3.01647 69.3862   6
   4  18  -3 49.5838 56.8492  12
  -5 -18  -3 117.466 68.9692   6
 -18   5  -3 96.5450 48.5400   9
   5  18  -3 35.7904 62.0968  12
  18  -5  -3 93.9950 65.4112   3
  18  -5  -3 59.1391 59.1758  15
   6  18  -3 -15.242 58.4716  12
  -6 -18  -3 86.6294 68.0530   6
  18  -6  -3 22.1925 59.4586  15
 -18   6  -3 110.453 48.6198   9
  18  -6  -3 41.8120 63.9964   3
  18  -7  -3 -64.926 57.8498  15
  -7 -18  -3 -8.6595 67.1945   6
 -18   7  -3 58.7712 47.7387   9
   7  18  -3 56.5409 61.6854  12
  18  -7  -3 22.4304 66.8800   3
  18  -8  -3 39.8487 65.4307  15
  18  -8  -3 -8.9899 68.9350   3
   8  18  -3 -15.727 67.2203  12
  -8 -18  -3 99.8008 75.5789   6
 -18   8  -3 25.1939 47.6740   9
  19   6  -3 54.0161 69.1004   3
  19   6  -3 19.9854 62.1077  15
  -6  19  -3 5.51917 56.5335  12
 -19  -6  -3 92.3187 72.9144   9
   6 -19  -3 33.6045 67.5902   6
  19   5  -3 -40.065 67.2943   3
   5 -19  -3 -36.701 66.7200   6
  -5  19  -3 17.9606 53.3944  12
 -19  -5  -3 50.6573 68.3182   9
  19   5  -3 33.2592 62.3265  15
   4 -19  -3 32.4686 68.2784   6
  -4  19  -3 19.4575 58.8582  12
  19   4  -3 76.6068 69.0189   3
 -19  -4  -3 76.2743 67.5357   9
  19   4  -3 38.6319 60.2939  15
 -19  -3  -3 -22.225 61.5593   9
   3 -19  -3 -17.164 67.4591   6
  -3  19  -3 -7.2676 59.1767  12
  19   3  -3 128.815 67.8061   3
  19   3  -3 40.8540 60.6861  15
  19   2  -3 102.688 63.9732   3
 -19  -2  -3 176.842 64.0086   9
  -2  19  -3 4.54916 60.9379  12
  19   2  -3 2.59454 59.2246  15
   2 -19  -3 -16.315 66.0234   6
   1 -19  -3 40.3718 64.4109   6
  19   1  -3 16.6056 63.2474   3
  -1  19  -3 197.525 62.3039  12
  19   1  -3 36.7817 56.9865  15
 -19  -1  -3 -7.2803 53.7899   9
  19   0  -3 50.9550 62.3686   3
   0 -19  -3 -67.098 67.7948   6
 -19   0  -3 58.9073 54.8040   9
   0  19  -3 -49.860 54.8993  12
  19   0  -3 -1.3172 58.2722  15
  19  -1  -3 12.6272 61.5631   3
  -1 -19  -3 162.163 71.2456   6
 -19   1  -3 -18.889 51.7071   9
   1  19  -3 150.902 62.1115  12
  19  -1  -3 64.8867 60.9114  15
  19  -2  -3 105.799 64.1951   3
  19  -2  -3 33.3334 58.7686  15
   2  19  -3 -10.152 55.9650  12
  -2 -19  -3 45.9688 67.4557   6
 -19   2  -3 98.3149 53.3120   9
 -19   3  -3 7.40082 48.1996   9
  19  -3  -3 -43.156 60.3915   3
   3  19  -3 55.2923 56.7136  12
  -3 -19  -3 54.4690 69.5006   6
  19  -3  -3 87.6465 58.4114  15
  -4 -19  -3 -59.209 64.2757   6
 -19   4  -3 -19.243 46.8311   9
  19  -4  -3 -12.183 60.6637   3
   4  19  -3 -41.359 58.7238  12
  19  -4  -3 -26.069 56.0850  15
   5  19  -3 76.0300 61.9234  12
 -19   5  -3 8.46564 46.5077   9
  19  -5  -3 -20.305 62.3823   3
  19  -5  -3 40.8457 59.6912  15
  -5 -19  -3 -76.817 69.8976   6
  -6 -19  -3 31.2657 74.5879   6
   6  19  -3 25.0922 62.3417  12
 -19   6  -3 43.8141 48.5227   9
  19  -6  -3 73.6695 61.7639  15
  19  -6  -3 96.8912 68.3667   3
  20   1  -3 -39.172 64.8663   3
  -1  20  -3 -2.6386 58.7892  12
  20   1  -3 126.154 63.6666  15
 -20  -1  -3 127.350 62.6013   9
  20   0  -3 30.1946 61.0030  15
  20   0  -3 -56.010 64.0420   3
   0 -20  -3 127.970 71.8397   6
 -20   0  -3 -1.6571 57.9144   9
   0  20  -3 70.7081 63.6709  12
   1  20  -3 100.705 59.8333  12
  20  -1  -3 -1.5350 59.5688  15
 -20   1  -3 47.5870 56.5410   9
  20  -1  -3 125.737 68.5682   3
   0   0  -4 694.912 66.2441   6
   0   0  -4 698.818 68.0592  12
   0   0  -4 507.814 67.5231   3
   0   0  -4 626.810 60.5661   9
  -1   0  -4 119.200 43.1851  13
  -1   0  -4 174.348 47.5525   3
   0   1  -4 142.027 40.5790   9
   1   0  -4 193.411 45.5837  12
   0   1  -4 93.0845 47.8595   1
  -1   0  -4 288.292 51.3770   6
   1   0  -4 157.912 46.5507  15
   1   0  -4 151.062 47.3308   4
   1   0  -4 105.840 48.5406   3
   0  -1  -4 192.072 48.1131  12
   0   1  -4 68.6952 46.7791  12
   1   0  -4 149.412 46.2969   6
   0  -1  -4 51.0162 46.6718   3
   0  -1  -4 153.789 43.1780  15
   0   1  -4 106.595 47.9269   3
   1   0  -4 102.561 36.9264   9
  -1   0  -4 210.198 50.5672  12
   0   1  -4 177.092 48.8913   4
   0  -1  -4 168.735 40.5359   9
   0   1  -4 226.896 47.0002  15
  -1   0  -4 142.042 39.6917   9
  -1   0  -4 67.3147 41.5660  15
   0   1  -4 72.0164 43.2478   6
   0   1  -4 120.533 42.0420  13
   0  -1  -4 160.856 47.0226   6
   1   1  -4 256.598 48.8277   6
  -1  -1  -4 280.249 48.7572   6
   1   1  -4 241.352 49.5929  15
  -1  -1  -4 264.866 47.7172  15
  -1  -1  -4 185.077 42.1789   9
   1   1  -4 177.528 51.6678   3
  -1  -1  -4 269.152 51.8547  10
   1  -1  -4 180.148 51.6711   3
   1   1  -4 187.299 51.7749   1
  -1   1  -4 290.320 50.5782  12
  -1   1  -4 251.416 53.0100   1
  -1   1  -4 218.802 45.1519  13
  -1  -1  -4 215.687 50.7484  12
   1  -1  -4 238.529 50.7096   7
   1  -1  -4 247.992 50.3353   6
  -1   1  -4 232.488 42.3058   9
  -1   1  -4 229.719 47.8179  15
  -1   1  -4 289.484 51.6589   3
   1  -1  -4 226.205 48.5237  15
   1  -1  -4 242.592 49.6844  12
   1   1  -4 203.248 53.2437   4
   1   1  -4 348.863 51.0575  12
  -1  -1  -4 159.102 47.4232   3
   1  -1  -4 179.911 41.0078   9
  -2  -1  -4 -24.471 40.7711  10
  -1   2  -4 19.3542 40.7054  15
   2   1  -4 19.4909 43.1150   6
   2   1  -4 26.0902 45.3069   1
  -1   2  -4 -30.951 34.2525   9
   2   1  -4 -35.378 43.0819  15
  -1   2  -4 -64.933 41.9540  12
  -1   2  -4 47.9250 38.7994  13
   2   1  -4 -4.5812 44.7308   4
   1  -2  -4 2.60845 44.8315   6
  -2  -1  -4 4.57169 44.0402  12
   2   1  -4 -40.578 47.3046   3
   1  -2  -4 -26.326 39.8216  15
  -1   2  -4 -27.974 45.4926   1
   1  -2  -4 -6.7652 42.5419   3
   1  -2  -4 -4.0112 34.7265   9
   2   1  -4 26.4303 41.9578  12
   1  -2  -4 -40.649 36.8012   7
  -2  -1  -4 -20.809 39.0538  13
  -1   2  -4 -56.779 40.2012   4
  -2  -1  -4 -49.441 35.8514   9
  -1   2  -4 -69.852 45.2905   3
  -2  -1  -4 16.7073 59.7632   6
   0  -2  -4 86.6676 50.0218  15
   0   2  -4 -18.536 43.4447  15
   0  -2  -4 45.6353 44.9260  12
   2   0  -4 138.187 50.5811   4
   2   0  -4 62.2061 43.6437  15
   0  -2  -4 89.6871 45.5868   6
   0   2  -4 176.749 50.1102   1
   0   2  -4 74.1353 47.9452   3
   0   2  -4 138.890 40.6205  13
  -2   0  -4 26.9522 34.6142  13
   0  -2  -4 84.9398 43.8727   7
   2   0  -4 95.1199 39.5233   7
  -2   0  -4 48.8509 37.3717   9
  -2   0  -4 38.1006 41.8592  10
   0   2  -4 85.3378 46.2218   4
   2   0  -4 121.083 49.4216  12
   0  -2  -4 22.4440 36.5752   9
   2   0  -4 94.7436 48.6217   3
   0   2  -4 118.918 44.4625  12
  -2   0  -4 82.0163 47.7377  12
   0  -2  -4 30.4293 43.7928  10
   2   0  -4 99.1226 47.7651   6
   1   2  -4 -10.070 36.5223  13
   2  -1  -4 3.29700 42.2370  15
  -1  -2  -4 60.4003 42.1909  10
   1   2  -4 43.4614 45.2519  12
   2  -1  -4 62.6123 46.4896   4
   1   2  -4 -32.139 41.7006  15
   2  -1  -4 27.8890 38.2009   7
   1   2  -4 -23.176 37.3669   1
   1   2  -4 -55.776 45.8015   3
   2  -1  -4 67.6496 34.7750   9
  -1  -2  -4 27.5123 43.5476   6
   1   2  -4 21.9333 43.9823   4
   2  -1  -4 20.3930 44.1741   6
  -2   1  -4 -45.888 44.6666  12
  -1  -2  -4 66.4435 38.2447   9
  -2   1  -4 39.1656 35.2241   9
  -2   1  -4 14.1669 38.6580  13
   2  -1  -4 -16.635 46.7180   3
  -1  -2  -4 -53.602 42.9097  12
  -2   1  -4 -62.953 36.6715   1
  -2  -2  -4 167.762 44.7190   6
   2  -2  -4 66.0523 47.8263   7
  -2   2  -4 80.9137 47.9668  12
  -2   2  -4 46.4398 40.6578  13
   2  -2  -4 133.422 48.6158   3
  -2  -2  -4 19.7850 46.1367  10
   2  -2  -4 126.569 42.5741  15
   2   2  -4 100.494 45.0253  15
  -2  -2  -4 74.1922 46.5454  12
  -2  -2  -4 192.364 42.8644   9
   2   2  -4 171.128 47.6504  12
   2   2  -4 107.136 48.3351   1
   2  -2  -4 169.465 50.5589   6
  -2   2  -4 157.693 39.4761   9
   2   2  -4 125.041 50.2755   4
   2   2  -4 123.856 50.8590   3
  -2   2  -4 51.9438 47.4074   1
  -2   3  -4 8.39583 43.3161   9
   3   2  -4 2.42615 46.8006   3
   2  -3  -4 16.9208 44.6580   3
  -2   3  -4 -15.116 40.5196  13
   3   2  -4 49.3623 50.3317   4
  -3  -2  -4 -28.211 37.5497   9
  -2   3  -4 84.2201 45.0190   4
   3   2  -4 94.2595 45.3470  12
  -3  -2  -4 46.4690 42.2739  13
   3   2  -4 105.694 46.4280   1
   2  -3  -4 41.3396 48.4735   6
  -2   3  -4 48.9029 47.5764  12
  -2   3  -4 -20.403 49.2951   1
  -3  -2  -4 40.9389 43.0432  10
   2  -3  -4 48.8747 40.6756  15
   3   2  -4 13.1016 46.3291  15
   2  -3  -4 19.9232 44.0142   7
   1  -3  -4 70.0056 47.6071   6
   3   1  -4 214.091 53.2572   3
  -3  -1  -4 49.6213 37.7479   9
   1  -3  -4 82.8043 46.5521  10
   3   1  -4 74.8115 47.2613   1
   3   1  -4 80.9881 59.9972  12
  -1   3  -4 13.3145 49.6706   1
   3   1  -4 33.2726 43.7944  15
  -3  -1  -4 51.5150 42.1869  10
   1  -3  -4 61.8161 46.0933   7
  -3  -1  -4 102.010 47.2924  12
   1  -3  -4 72.3363 38.3630   9
  -1   3  -4 125.185 45.8218   4
  -1   3  -4 43.4379 46.6198   3
  -3  -1  -4 52.2118 41.2269  13
   3   1  -4 89.8244 44.0258   7
  -1   3  -4 29.5462 38.7844  13
   3   1  -4 74.9957 49.7338   4
  -1   3  -4 107.990 48.2636  12
   3   0  -4 10.8445 43.2485   6
   3   0  -4 58.1858 45.0859  15
   0  -3  -4 -0.0350 44.7305  10
   0   3  -4 -43.240 47.4416   1
   0   3  -4 -47.883 44.6539   3
   0   3  -4 10.5966 45.7439  12
  -3   0  -4 39.0341 40.1922  13
  -3   0  -4 -44.225 39.6982  10
   3   0  -4 46.7809 47.6137   4
   3   0  -4 -34.674 43.3467   7
   3   0  -4 21.1530 47.9547   3
   0  -3  -4 57.2309 38.0824   9
  -3   0  -4 85.1551 38.4609   9
  -3   0  -4 -0.4874 44.9836   1
   0   3  -4 25.6583 45.4060   4
  -3   0  -4 182.195 51.5428  12
   0  -3  -4 0.50458 43.4247   7
   0   3  -4 9.45565 43.5542  15
   0   3  -4 83.3636 38.6251  13
   0  -3  -4 123.316 46.5872   6
  -1  -3  -4 84.1660 39.7562   9
   3  -1  -4 85.5938 48.5678   6
  -3   1  -4 52.9220 46.2317   1
   3  -1  -4 53.4636 47.8260   3
   1   3  -4 49.4986 47.9210   3
   1   3  -4 115.467 47.2963  15
   3  -1  -4 79.0867 43.3896  15
   1   3  -4 136.329 53.5087   1
   1   3  -4 33.6589 37.9141  13
  -3   1  -4 98.6370 39.3724   9
  -1  -3  -4 139.495 47.6546   6
  -3   1  -4 27.9586 43.8665  10
  -3   1  -4 74.2458 41.4417  13
   3  -1  -4 50.4455 46.9763   4
   1   3  -4 123.018 50.5411   4
   3  -1  -4 80.2562 47.4864   7
  -1  -3  -4 83.6326 44.1368   7
  -3   1  -4 24.6275 46.1307  12
   1   3  -4 13.5310 46.3931  12
  -1  -3  -4 59.5384 46.5293  10
   3  -2  -4 14.8314 44.7093   4
   3  -2  -4 67.7156 45.9709   7
  -3   2  -4 60.0997 37.1950  13
   2   3  -4 9.00368 48.4183   1
   2   3  -4 94.4459 51.2897   4
  -3   2  -4 -13.878 35.1247   9
   3  -2  -4 -11.209 41.6809  15
   3  -2  -4 2.90140 47.7125   6
  -2  -3  -4 62.5588 43.5925  10
   2   3  -4 34.7919 44.6649  12
   2   3  -4 55.6630 38.8155  13
  -3   2  -4 50.1177 47.4786  12
   2   3  -4 67.3358 46.8110  15
  -2  -3  -4 78.8655 43.3814   6
   3  -2  -4 2.39344 46.9870   3
  -3   2  -4 -40.802 38.6089   1
   2   3  -4 18.8211 49.2649   3
  -2  -3  -4 -4.4714 38.2211   9
   3   3  -4 192.678 49.8864  12
   3   3  -4 83.7196 47.4973  15
  -3   3  -4 225.735 40.7682   9
   3  -3  -4 70.3279 49.5439   3
  -3   3  -4 156.292 52.7459   1
  -3  -3  -4 129.892 49.2218  10
   3   3  -4 31.5429 50.9031   4
   3  -3  -4 263.397 52.4608   7
   3  -3  -4 249.720 53.8781   6
  -3  -3  -4 163.619 46.2184   6
  -3   3  -4 198.368 51.0377  12
   3   3  -4 104.861 52.5183   3
   3   3  -4 122.375 52.0318   1
   3  -3  -4 132.658 45.4529  15
  -3   3  -4 151.244 45.9565  13
  -3  -3  -4 217.380 45.0401   9
  -4  -3  -4 -11.789 42.5470  10
  -3   4  -4 47.2400 53.6704   9
  -3   4  -4 0.92176 40.6321  13
  -4  -3  -4 -5.1568 39.9429   9
   4   3  -4 45.7126 44.9775  12
   3  -4  -4 93.4055 50.1212  10
   4   3  -4 -3.2901 49.2595   4
  -4  -3  -4 -55.946 42.7352  13
   3  -4  -4 60.7953 55.1893   3
   4   3  -4 92.0087 51.2281   3
   4   3  -4 85.4748 46.5462  15
   3  -4  -4 -21.877 50.4823   6
   3  -4  -4 29.8072 43.5061  15
   4   3  -4 -11.958 47.9440   1
  -3   4  -4 -21.636 41.1301   4
  -3   4  -4 -27.478 46.9054   1
  -3   4  -4 52.5639 45.0654  12
   3  -4  -4 40.5292 47.8650   7
   2  -4  -4 47.4616 47.0723   7
   4   2  -4 41.2821 51.3531   4
  -2   4  -4 52.4665 44.6045  12
  -2   4  -4 42.7843 40.9644  13
   2  -4  -4 62.7047 48.6270  10
  -4  -2  -4 67.4105 43.6906  13
   4   2  -4 25.9944 42.0470   7
  -2   4  -4 125.768 46.5610   1
   4   2  -4 47.2022 45.5795   1
  -4  -2  -4 11.3886 39.1437   9
   2  -4  -4 25.0741 49.1512   6
   4   2  -4 109.279 49.9497   3
  -4  -2  -4 -23.382 42.0387  10
  -2   4  -4 37.8119 44.7239   4
   4   2  -4 104.543 67.7228  12
   4   2  -4 71.4634 44.5485  15
  -4  -1  -4 145.681 50.1499  12
  -1   4  -4 105.991 50.8062   1
   4   1  -4 104.917 45.8625  15
   1  -4  -4 91.8504 50.6639   6
   4   1  -4 110.204 50.7996   3
   1  -4  -4 16.1438 45.4495  10
  -4  -1  -4 96.3722 45.8191  10
  -4  -1  -4 116.384 42.4633  13
   4   1  -4 47.3407 46.3337   1
  -1   4  -4 9.53534 39.7476  13
  -4  -1  -4 88.4589 39.8387   9
  -1   4  -4 45.5431 43.6471   4
   4   1  -4 -12.842 44.7765   7
   4   1  -4 19.3699 49.7266   4
  -1   4  -4 68.0444 45.7907  12
   1  -4  -4 -25.446 46.4871   7
   4   0  -4 19.3121 49.4139   3
   0  -4  -4 53.1237 39.0711   9
   0   4  -4 13.8786 45.1560   4
  -4   0  -4 -17.460 45.3005   1
  -4   0  -4 -0.2741 36.8940   9
   0  -4  -4 3.79236 46.5704   6
   0  -4  -4 -71.833 42.3108   7
   0   4  -4 54.6577 47.4658   3
   0   4  -4 23.3021 43.9540  15
  -4   0  -4 67.6053 41.8930  13
   4   0  -4 -89.018 43.9257   7
   0   4  -4 -47.804 37.0868  13
   0   4  -4 21.2813 44.8315  12
   4   0  -4 -26.317 44.6470   6
   0  -4  -4 -17.391 45.5803  10
  -4   0  -4 -90.480 48.6645  12
   0   4  -4 -0.3291 42.0161   1
   4   0  -4 60.8907 49.1191   4
   4   0  -4 73.5805 45.1960  15
  -4   0  -4 -29.221 40.3165  10
   1   4  -4 88.3653 47.4536  12
  -1  -4  -4 74.9679 40.2143   9
  -4   1  -4 153.020 53.7243  12
   1   4  -4 22.4988 37.1960  13
  -4   1  -4 13.7697 44.6078   1
  -1  -4  -4 55.9121 42.9091   7
   4  -1  -4 62.1488 50.5323   3
   4  -1  -4 21.8469 50.1470   6
   1   4  -4 43.1122 50.0275   1
   4  -1  -4 33.2922 44.9860  15
   1   4  -4 86.1464 49.1691   4
  -4   1  -4 141.261 44.4079  10
  -4   1  -4 46.1473 38.2584   9
   1   4  -4 119.719 50.4272   3
  -1  -4  -4 -6.2290 44.2221  10
   4  -1  -4 21.5255 49.2826   4
   4  -1  -4 50.8308 48.5820   7
  -4   1  -4 137.440 45.5456  13
  -1  -4  -4 24.9853 46.4647   6
   1   4  -4 147.179 48.1709  15
  -4   2  -4 61.4168 39.8694  10
   4  -2  -4 5.85930 48.9705   3
  -4   2  -4 21.8802 42.3706   1
  -4   2  -4 109.007 37.5600   9
   4  -2  -4 19.6516 46.8821   7
   2   4  -4 -27.881 47.1461   1
  -2  -4  -4 26.0997 42.5895   7
   4  -2  -4 -1.2611 47.1556   6
   4  -2  -4 22.5293 45.1813   4
  -2  -4  -4 37.9622 40.7376   9
  -4   2  -4 27.9989 42.0850  13
   4  -2  -4 47.0268 44.9618  15
   2   4  -4 25.4921 49.6179   4
   2   4  -4 45.2900 49.6110   3
  -2  -4  -4 78.4505 45.2403   6
  -4   2  -4 57.8048 44.0395  12
   2   4  -4 7.21868 36.9155  13
   2   4  -4 107.405 46.5526  12
   2   4  -4 54.9180 46.0420  15
  -2  -4  -4 64.0989 48.0346  10
  -3  -4  -4 67.1474 45.5196   6
   4  -3  -4 100.898 50.2946   6
  -4   3  -4 38.1269 41.4302  13
  -4   3  -4 -5.2069 38.7816  10
  -3  -4  -4 -47.395 39.0714   9
   4  -3  -4 59.4265 49.1759   3
   3   4  -4 55.6546 45.7507  12
  -4   3  -4 27.9978 36.5180   9
   4  -3  -4 90.5368 50.5104   7
   4  -3  -4 94.0307 45.1170  15
  -3  -4  -4 -36.401 46.6117  10
  -4   3  -4 82.7277 43.7055   1
   3   4  -4 -13.029 44.4009  15
   3   4  -4 57.4926 49.9538   1
   3   4  -4 103.956 51.2537   4
   4  -3  -4 -23.829 46.1715   4
   3   4  -4 17.7024 36.7538  13
   3   4  -4 -94.720 46.8186   3
  -4   3  -4 -9.2120 45.0525  12
   4   4  -4 -48.202 45.5320  15
   4   4  -4 75.7026 47.5991  12
   4   4  -4 123.127 55.7951   4
  -4   4  -4 63.1692 48.6140   1
   4   4  -4 2.41109 50.3441   3
   4  -4  -4 16.2106 44.1580  15
  -4   4  -4 124.404 43.9319  13
   4  -4  -4 72.7890 49.1439   3
  -4  -4  -4 100.159 44.4456   9
  -4   4  -4 116.723 45.4884   4
  -4  -4  -4 60.7026 46.1920  10
  -4  -4  -4 104.436 45.9844  13
   4  -4  -4 95.5457 49.8602   7
  -4   4  -4 84.7520 46.1554  12
  -4  -4  -4 90.5824 46.9978   6
  -4   4  -4 73.0617 36.9575   9
   4   4  -4 150.931 39.7977  13
   4   4  -4 6.22813 49.1677   1
   4  -4  -4 101.879 52.4984   6
   4  -5  -4 40.4527 51.5648   7
   5   4  -4 148.289 56.2046   4
  -5  -4  -4 74.3827 48.0761  10
  -4   5  -4 21.6417 43.3728  12
   5   4  -4 -6.1416 46.2289  15
   5   4  -4 40.9644 50.0511   3
  -5  -4  -4 -38.613 42.1040  13
  -4   5  -4 43.2598 42.0049  13
   4  -5  -4 -14.112 46.2090  10
   4  -5  -4 20.3508 43.6456  15
   5   4  -4 108.738 45.7449  12
   5   4  -4 35.9069 44.2117   7
   5   4  -4 67.7855 48.7810   1
   4  -5  -4 40.2708 50.8739   6
  -4   5  -4 -39.497 49.2705   1
  -5  -4  -4 11.0017 43.4804   9
  -4   5  -4 21.1966 44.4562   4
  -5  -3  -4 24.9416 43.8914  13
  -3   5  -4 94.7598 44.8607  12
  -3   5  -4 83.6162 42.3435  13
   5   3  -4 108.390 49.9054   1
   5   3  -4 -11.264 50.7359   4
   5   3  -4 61.4028 49.1088   3
  -5  -3  -4 -21.630 41.1199   9
   5   3  -4 95.2882 46.2531   7
  -5  -3  -4 56.2337 46.1427  10
  -3   5  -4 -34.527 49.4171   1
   3  -5  -4 44.3939 49.7638  10
   3  -5  -4 84.8171 49.4457   6
   5   3  -4 -21.879 44.1618  15
  -3   5  -4 76.2045 45.1976   4
   3  -5  -4 59.6675 51.8965   7
  -2   5  -4 175.419 55.2188   1
  -5  -2  -4 65.2163 44.3268  13
   5   2  -4 95.9051 46.4958   1
   5   2  -4 141.940 53.5600   4
   2  -5  -4 113.243 51.8946   7
  -2   5  -4 163.183 44.2276  13
   5   2  -4 91.5420 48.8187   7
   5   2  -4 86.7821 52.1196   3
  -2   5  -4 99.9385 47.3154  12
  -2   5  -4 180.676 49.6031   4
   5   2  -4 101.881 47.5504  15
  -5  -2  -4 220.917 45.6607   9
  -5  -2  -4 105.767 48.5085  10
   2  -5  -4 63.1217 50.4179  10
   2  -5  -4 259.868 53.6339   6
  -1   5  -4 57.9862 47.5601   4
  -1   5  -4 84.8722 40.9795  13
  -5  -1  -4 43.7915 42.2887  13
   5   1  -4 12.4615 46.6651   7
   5   1  -4 55.3946 44.6888  15
   5   1  -4 180.288 56.3919   4
   5   1  -4 75.9611 44.9621   1
   5   1  -4 -34.052 48.1306   3
  -5  -1  -4 28.0011 40.8504   9
  -1   5  -4 -9.4661 50.2012   1
   1  -5  -4 110.776 47.1128   7
   1  -5  -4 42.0830 47.9174   6
  -5  -1  -4 81.4240 45.2003  10
   1  -5  -4 56.7891 47.4999  10
  -1   5  -4 99.7741 47.2787  12
   0   5  -4 -29.675 46.0826   3
   5   0  -4 5.51363 49.8053   3
  -5   0  -4 -54.496 46.8157  12
   5   0  -4 -9.7902 46.2009   7
   0   5  -4 118.367 48.3539  12
   0   5  -4 -25.213 47.0744   4
   0   5  -4 30.9353 51.6301   1
   5   0  -4 60.6158 52.1120   4
  -5   0  -4 0.73422 40.7489  10
   5   0  -4 80.5777 45.6708  15
  -5   0  -4 2.75153 42.8623   1
   0   5  -4 20.8698 39.7719  13
   0  -5  -4 -2.6831 45.9126  10
  -5   0  -4 75.5991 44.1642  13
   0  -5  -4 64.7185 40.4113   9
   0  -5  -4 -22.188 38.8889   7
   0  -5  -4 -70.398 46.9578   6
  -5   0  -4 -38.629 38.0433   9
   5  -1  -4 -37.651 45.9825  15
  -5   1  -4 160.834 49.7009  12
  -5   1  -4 68.8603 38.3855  13
   1   5  -4 -20.974 46.4621   3
   5  -1  -4 55.6411 50.4810   3
   5  -1  -4 35.6701 48.1710   6
   5  -1  -4 17.5110 46.1838   4
  -1  -5  -4 82.7881 47.5837   7
   1   5  -4 52.9255 44.6911  15
   1   5  -4 11.5910 49.6602   1
  -5   1  -4 85.4373 40.5777  10
  -5   1  -4 111.636 45.3504   1
   1   5  -4 12.5514 38.7338  13
   5  -1  -4 7.62819 46.6073   7
   1   5  -4 41.3347 48.3658   4
  -5   1  -4 13.4666 39.1620   9
  -1  -5  -4 136.731 50.4248   6
  -1  -5  -4 31.1397 40.9615   9
  -1  -5  -4 64.1835 47.0757  10
   1   5  -4 85.6570 48.7993  12
   2   5  -4 153.439 40.7882  13
  -5   2  -4 185.291 43.2602   9
  -5   2  -4 222.148 51.4635   1
  -5   2  -4 92.4539 45.0981  10
   5  -2  -4 152.741 53.4790   4
   2   5  -4 58.9048 48.8162   4
  -2  -5  -4 164.390 51.0865   6
  -2  -5  -4 57.9793 43.2375   7
  -2  -5  -4 125.471 45.0133   9
   2   5  -4 123.094 47.8517  12
   2   5  -4 98.2093 51.2813   3
   5  -2  -4 87.1275 55.7826   6
  -5   2  -4 242.479 52.7310  12
   5  -2  -4 197.752 50.3605  15
   2   5  -4 177.108 49.3154  15
  -2  -5  -4 92.3714 50.7134  10
   2   5  -4 71.1000 50.0143   1
   5  -2  -4 142.311 53.5069   3
  -5   2  -4 106.465 44.4410  13
   5  -2  -4 191.432 47.5088   7
  -5   3  -4 49.4591 38.7455   9
  -3  -5  -4 21.5693 42.5469   7
  -3  -5  -4 94.1327 49.2702  10
   3   5  -4 -11.953 46.3199  12
  -5   3  -4 62.1731 39.7572  10
  -5   3  -4 25.8896 42.8294   1
   5  -3  -4 46.8760 44.4912   7
   5  -3  -4 163.970 48.2842   4
   3   5  -4 12.1980 38.6490  13
  -5   3  -4 -42.180 42.6742  12
   3   5  -4 5.82384 49.6671   1
   3   5  -4 29.7248 49.6188   3
   3   5  -4 -127.04 42.6858  15
  -5   3  -4 35.3271 38.0684  13
   5  -3  -4 76.5358 50.0915   3
  -3  -5  -4 -49.108 41.6631   9
   5  -3  -4 -1.8612 42.9967  15
   3   5  -4 -65.872 46.6289   4
   5  -3  -4 23.0887 51.5589   6
  -3  -5  -4 29.5125 47.8004   6
  -5   4  -4 -40.409 36.4556   9
   5  -4  -4 7.15232 51.5391   6
  -4  -5  -4 79.8004 48.0032  10
   4   5  -4 -36.518 46.1760  15
  -5   4  -4 103.778 49.0423   1
   4   5  -4 -48.623 48.7798   1
   5  -4  -4 -28.816 45.6150  15
  -5   4  -4 48.5534 39.9347  10
  -5   4  -4 81.2236 44.2720  13
  -4  -5  -4 28.8191 42.7537   7
  -5   4  -4 40.0931 45.8944  12
   4   5  -4 -49.440 50.5323   4
   5  -4  -4 -37.805 48.2663   3
   4   5  -4 4.48428 38.6334  13
  -4  -5  -4 76.2597 47.2593   6
  -4  -5  -4 35.4997 44.8053   9
   5  -4  -4 68.9147 46.0726   7
   4   5  -4 93.4485 49.8787   3
   5  -4  -4 57.7017 45.7643   4
   4   5  -4 9.93977 47.4928  12
  -5   5  -4 162.378 45.8251  13
   5   5  -4 190.763 50.5488  12
   5  -5  -4 34.6180 51.9668   6
  -5   5  -4 51.3935 50.6459   1
  -5   5  -4 98.2184 45.0204  12
   5   5  -4 149.611 52.7722   3
   5  -5  -4 147.737 55.5655   7
   5   5  -4 224.946 56.0864   1
   5  -5  -4 184.877 49.1529  15
   5   5  -4 109.469 42.2546  13
  -5   5  -4 171.072 41.7745   9
   5  -5  -4 141.195 51.2139   3
  -5  -5  -4 88.4780 46.0250  13
  -5  -5  -4 34.4504 46.1633   9
  -5  -5  -4 96.3845 48.1720   6
   5   5  -4 150.131 49.7500  15
  -5  -5  -4 114.752 52.1591  10
  -5   5  -4 168.499 48.1470   4
   5   5  -4 108.068 55.2336   4
   5  -5  -4 42.0022 43.9568   4
   6   5  -4 -49.215 44.8975   1
  -6  -5  -4 -42.787 43.2865   9
  -6  -5  -4 -13.623 52.8528  10
   6   5  -4 10.0447 48.7700   3
  -5   6  -4 6.53510 43.7927  12
   6   5  -4 27.7279 44.7154   7
  -5   6  -4 57.8604 42.7818  13
   5  -6  -4 -49.667 51.4912   7
   6   5  -4 21.7832 35.8341  13
  -6  -5  -4 -43.302 40.7135  13
   5  -6  -4 -16.064 45.5573  15
   5  -6  -4 -23.574 53.7745  10
  -5   6  -4 -55.903 42.1433   1
   6   5  -4 68.8435 47.8779  15
   6   5  -4 -20.320 44.7211  12
   6   5  -4 33.4089 57.6236   4
   5  -6  -4 68.4798 57.7901   6
  -5   6  -4 13.8970 46.0685   4
   6   4  -4 58.0885 51.6928   1
  -4   6  -4 44.6038 44.4890   4
   4  -6  -4 2.69383 52.9071   6
   6   4  -4 -66.037 45.0118   7
  -4   6  -4 -3.9320 41.8540  13
   6   4  -4 26.7015 45.3308  15
  -6  -4  -4 62.8825 45.5768   9
   6   4  -4 16.2168 55.9917   4
  -4   6  -4 -2.0770 41.9033  12
  -6  -4  -4 80.0296 44.7954  13
   4  -6  -4 8.70122 50.6427  10
  -4   6  -4 -0.1755 51.2865   1
   4  -6  -4 -7.5469 48.0347   7
   6   4  -4 122.491 51.9931   3
  -6  -4  -4 -12.626 49.0061  10
   6   3  -4 32.9884 45.8965  15
   6   3  -4 7.14366 52.4282   4
   3  -6  -4 -49.869 44.5242  10
   6   3  -4 -17.237 45.6194   7
   6   3  -4 63.0723 49.4469   1
  -3   6  -4 -21.115 44.5557   4
  -6  -3  -4 53.2716 44.6301   9
   3  -6  -4 -64.092 52.1006   6
  -6  -3  -4 -9.2305 43.6199  10
  -3   6  -4 19.7868 43.1442  12
   3  -6  -4 26.1981 50.7751   7
  -3   6  -4 -41.803 40.4225  13
  -6  -3  -4 37.6231 42.4213  13
  -3   6  -4 15.4809 49.8464   1
   6   3  -4 56.0489 50.1082   3
  -2   6  -4 85.6708 53.9747   1
  -6  -2  -4 121.889 45.5051   9
   6   2  -4 29.3821 47.2472  15
   2  -6  -4 125.243 54.0272   6
  -6  -2  -4 128.068 48.6431  10
  -2   6  -4 121.040 49.5384  12
  -2   6  -4 36.5755 42.8847  13
   2  -6  -4 86.5032 50.8514   7
  -6  -2  -4 99.9350 46.2816  13
   6   2  -4 84.8840 44.9788   1
   2  -6  -4 -6.7740 46.2914  10
   6   2  -4 189.944 54.9268   3
   6   2  -4 145.972 50.1189   7
   6   2  -4 127.164 54.7561   4
  -2   6  -4 148.307 50.9483   4
   6   1  -4 53.6634 49.3454   7
  -1   6  -4 202.834 45.3001  13
   6   1  -4 179.167 52.5464   4
   1  -6  -4 205.502 55.2223   6
   6   1  -4 76.0883 45.9442   1
   6   1  -4 237.133 54.4616   3
  -6  -1  -4 233.216 49.7079  13
   1  -6  -4 174.599 52.7388   7
  -6  -1  -4 98.1225 47.5639   1
  -1   6  -4 119.826 52.1437   4
  -1   6  -4 186.026 53.1281  12
  -6  -1  -4 202.475 47.4422   9
  -6  -1  -4 164.055 50.2975  10
   1  -6  -4 185.571 51.9827  10
   6   1  -4 108.754 50.5476  15
  -1   6  -4 334.562 61.5893   1
   6   0  -4 140.930 50.7795  15
   0  -6  -4 106.092 52.8242  10
  -6   0  -4 95.9371 42.4537   1
  -6   0  -4 129.031 42.9860   9
   0   6  -4 144.482 51.5512   4
  -6   0  -4 160.104 47.2928  13
   0  -6  -4 168.857 53.7903   6
   6   0  -4 145.559 55.0789   3
   0   6  -4 120.172 42.2890  13
   6   0  -4 95.3097 49.4463   7
   6   0  -4 218.194 54.1111   4
  -6   0  -4 202.647 47.9606  10
   0   6  -4 260.582 55.3036  12
   0  -6  -4 91.6807 49.4576   7
  -6   0  -4 161.336 51.1567  12
   0   6  -4 175.866 54.3771   1
   1   6  -4 86.0219 55.3009   1
  -6   1  -4 165.577 44.5407   9
  -1  -6  -4 170.379 54.8630  10
   6  -1  -4 132.569 51.3866   7
   1   6  -4 150.091 47.3561  15
  -1  -6  -4 208.753 54.4967   6
   6  -1  -4 161.829 55.0639   3
  -6   1  -4 136.318 47.0349  13
   6  -1  -4 111.638 51.1759  15
  -1  -6  -4 222.633 50.7622   7
   1   6  -4 203.100 53.0991  12
   1   6  -4 179.035 44.3474  13
  -6   1  -4 171.252 49.5044   1
   1   6  -4 192.920 51.2856   3
   1   6  -4 189.597 52.6409   4
  -1  -6  -4 200.828 47.5533   9
  -6   1  -4 171.344 53.1366  12
  -6   1  -4 103.549 44.4671  10
   6  -1  -4 137.975 52.8855   6
   6  -1  -4 144.444 50.4691   4
  -6   2  -4 92.7041 49.7475   1
  -6   2  -4 138.478 43.1412   9
   2   6  -4 175.798 42.8793  13
  -6   2  -4 110.976 44.3129  10
   2   6  -4 78.3117 49.1424   3
  -2  -6  -4 87.4688 44.9926   9
  -6   2  -4 69.3890 49.8679  12
   2   6  -4 75.0569 52.5273   1
  -2  -6  -4 96.4780 48.4706   7
  -2  -6  -4 121.407 52.1833  10
   6  -2  -4 102.911 48.1227  15
   2   6  -4 81.9993 46.7168  15
   2   6  -4 50.3679 49.2714  12
   6  -2  -4 95.8937 52.2029   7
   2   6  -4 12.8979 50.1498   4
  -2  -6  -4 142.417 51.7076   6
   6  -2  -4 97.1378 53.5651   6
   6  -2  -4 126.701 53.8877   3
   6  -2  -4 38.1103 51.0704   4
  -6   2  -4 72.0595 46.3645  13
   3   6  -4 -7.4019 37.1520  13
   3   6  -4 0.53612 44.8256  15
   3   6  -4 65.5759 53.9600   4
   6  -3  -4 -16.568 51.1670   7
   6  -3  -4 169.986 50.3205  15
   6  -3  -4 -64.991 50.7377   3
  -6   3  -4 -8.8214 46.6155   1
   6  -3  -4 23.8955 51.3566   6
  -3  -6  -4 47.9678 45.5995   9
  -3  -6  -4 49.7647 43.7867   7
  -3  -6  -4 45.5021 49.3468   6
   3   6  -4 -62.177 46.0352   3
  -6   3  -4 -3.7089 39.7574  10
  -6   3  -4 80.7460 48.2590  12
  -6   3  -4 57.1620 40.1614   9
   3   6  -4 118.621 48.9875  12
   3   6  -4 39.2618 49.9941   1
   6  -3  -4 -37.109 47.0273   4
  -3  -6  -4 -6.9415 48.0934  10
  -6   3  -4 65.1244 44.0331  13
   6  -4  -4 26.7494 48.6486  15
   4   6  -4 35.4873 53.1323   4
   4   6  -4 -3.9855 35.1926  13
   4   6  -4 -11.674 49.5014   3
  -4  -6  -4 63.4484 48.9288   6
  -4  -6  -4 -31.133 44.2658   7
   4   6  -4 88.4610 52.8422   1
   6  -4  -4 44.9925 47.8920   4
   4   6  -4 122.181 51.1067  12
   6  -4  -4 -39.331 50.9218   3
  -4  -6  -4 21.8803 44.9410   9
  -4  -6  -4 37.5022 51.2040  10
  -6   4  -4 30.0516 40.6275  10
  -6   4  -4 125.890 41.7101   9
  -6   4  -4 10.1715 43.9508  12
   6  -4  -4 16.5788 50.7650   6
   6  -4  -4 43.5998 52.9397   7
  -6   4  -4 59.8245 50.8733   1
  -6   4  -4 -22.402 42.3230  13
   4   6  -4 32.4367 47.7985  15
   6  -5  -4 -4.3742 45.5188   4
   5   6  -4 -105.82 44.0041  12
   5   6  -4 22.7639 53.0015   1
   6  -5  -4 46.2795 51.6838   3
   6  -5  -4 43.2865 52.9251   6
  -6   5  -4 -31.148 37.5848   9
  -5  -6  -4 18.0228 53.2164  10
  -6   5  -4 29.3111 44.8686  13
   6  -5  -4 -2.6077 54.1356   7
  -6   5  -4 11.8871 41.3261   4
   5   6  -4 28.9254 50.0577   3
   5   6  -4 29.3375 38.4250  13
  -6   5  -4 -3.0005 48.7793   1
   5   6  -4 63.0805 57.4537   4
  -6   5  -4 20.8451 38.2340  10
  -5  -6  -4 -41.017 42.0289   7
  -5  -6  -4 -12.019 44.1275  13
  -6   5  -4 -59.352 41.7437  12
  -5  -6  -4 -30.902 48.5495   6
   6  -5  -4 -26.974 46.3534  15
  -5  -6  -4 -33.256 45.2805   9
   5   6  -4 52.8517 47.0869  15
  -6   6  -4 5.82063 37.9348   9
   6  -6  -4 -116.18 53.7059   3
   6   6  -4 -47.348 55.7591   4
  -6  -6  -4 109.446 42.9846   7
   6  -6  -4 81.4473 46.2448   4
   6   6  -4 -2.9976 42.2593   7
  -6   6  -4 70.9322 43.3999  13
   6  -6  -4 34.8149 50.3436  15
   6   6  -4 14.1368 48.9873   1
  -6  -6  -4 -33.427 46.1746   9
  -6   6  -4 58.0773 49.1162   1
   6   6  -4 56.1274 48.9215  15
   6   6  -4 -14.605 45.0560  12
  -6   6  -4 2.54448 42.0321  12
   6   6  -4 -6.8968 49.7107   3
  -6  -6  -4 89.7828 54.4852  10
   6  -6  -4 -9.3069 53.7868  10
  -6  -6  -4 -7.3227 50.8943   6
  -6  -6  -4 127.108 45.6980  13
   6  -6  -4 -38.102 55.9202   7
   6  -6  -4 25.2437 56.5159   6
  -6   6  -4 53.9334 47.6849   4
   6  -7  -4 70.2740 56.8344   7
   6  -7  -4 156.663 60.3621   6
  -6   7  -4 104.099 56.1306   1
  -7  -6  -4 194.384 47.7740  13
  -7  -6  -4 261.138 63.2565  10
   7   6  -4 116.770 48.0612   7
   7   6  -4 116.533 50.8000   1
  -6   7  -4 109.342 46.0156  13
   7   6  -4 129.615 54.6241   3
   6  -7  -4 96.9415 52.4063  10
  -6   7  -4 257.725 54.5843   4
   7   6  -4 231.201 54.8032  12
   7   6  -4 101.090 62.3047   4
   6  -7  -4 126.130 54.6123  15
  -7  -6  -4 145.068 51.1952   9
  -6   7  -4 198.904 48.1144  12
   7   6  -4 108.753 51.7658  15
   7   5  -4 84.1036 49.5806   7
  -7  -5  -4 24.5608 42.6331  13
   7   5  -4 35.4259 48.4460  15
   5  -7  -4 -1.7030 54.0182   7
   7   5  -4 55.8489 57.4298   4
  -7  -5  -4 -23.425 51.4051  10
  -5   7  -4 76.6625 44.0928  12
  -7  -5  -4 58.1588 47.2683   9
   5  -7  -4 75.7224 53.6020   6
  -5   7  -4 88.1143 43.6006  13
  -5   7  -4 88.4939 49.9294   4
   5  -7  -4 94.5704 51.0484  10
   7   5  -4 83.5686 53.8155   1
   7   5  -4 43.4633 50.4339   3
  -5   7  -4 121.587 53.6632   1
   4  -7  -4 147.265 56.0193   7
   7   4  -4 48.5117 52.4780   3
   7   4  -4 10.4111 56.7253   4
  -4   7  -4 175.915 46.7189  13
   7   4  -4 77.6730 48.9036  15
  -4   7  -4 89.6030 50.5841   4
   4  -7  -4 102.383 48.9170  10
  -7  -4  -4 53.6337 43.7437  13
  -7  -4  -4 143.071 53.8727  10
  -7  -4  -4 155.868 48.0271   9
   7   4  -4 81.7321 46.5925   7
  -4   7  -4 123.217 46.5707  12
   7   4  -4 89.5745 49.4245   1
  -4   7  -4 164.234 54.9852   1
   4  -7  -4 162.748 56.9967   6
  -3   7  -4 59.8902 44.4684  13
   3  -7  -4 223.093 56.9810   7
  -3   7  -4 148.250 51.3027   4
   7   3  -4 117.400 54.9640   3
   7   3  -4 102.156 55.4386   4
   3  -7  -4 112.837 53.1410  10
  -3   7  -4 131.906 47.6385  12
   7   3  -4 142.846 49.0585  15
  -7  -3  -4 33.5029 47.0488   9
   7   3  -4 118.187 53.3470   1
  -7  -3  -4 190.916 50.8037  13
   7   3  -4 120.138 50.6852   7
  -3   7  -4 75.3803 47.4617   1
   3  -7  -4 93.8768 54.1888   6
  -7  -3  -4 131.285 52.3864  10
  -7  -2  -4 160.732 47.9053   9
  -2   7  -4 12.4616 41.4038  13
   2  -7  -4 88.0298 49.6319   7
   7   2  -4 121.455 51.6354   3
   2  -7  -4 79.6639 52.9578   6
   7   2  -4 121.777 46.8234   1
   7   2  -4 16.8763 46.9324  15
  -2   7  -4 159.292 55.7878   1
   7   2  -4 64.7149 46.1865   7
   7   2  -4 151.436 58.7241   4
  -2   7  -4 109.842 48.4238  12
  -7  -2  -4 88.2565 46.6242  10
   2  -7  -4 -23.634 51.8388  10
  -2   7  -4 83.6486 48.1553   4
  -7  -2  -4 53.6210 40.8554  13
  -7  -1  -4 183.754 48.7562  10
  -1   7  -4 185.710 55.1266  12
   7   1  -4 223.658 54.3913   7
  -1   7  -4 345.548 51.5394  13
   1  -7  -4 262.870 56.5899   7
  -7  -1  -4 211.588 52.8087   1
   7   1  -4 229.530 57.9134   4
  -7  -1  -4 201.921 48.6469  13
  -7  -1  -4 235.136 48.8796   9
  -1   7  -4 153.647 54.7778   4
   1  -7  -4 225.775 55.0899  10
   7   1  -4 229.878 58.0271   3
  -1   7  -4 205.974 52.0720   1
   1  -7  -4 246.709 59.5394   6
   7   1  -4 271.211 53.5863  15
   7   1  -4 145.570 48.8768   1
  -7   0  -4 -2.3191 42.2244  10
   0  -7  -4 46.7851 49.7478   7
  -7   0  -4 -94.462 35.9825   1
   0  -7  -4 -21.916 50.8301   6
   7   0  -4 29.1692 48.5345  15
   0  -7  -4 -13.484 45.9647  10
   7   0  -4 31.7586 49.2214   7
  -7   0  -4 -8.1828 39.8592   9
   7   0  -4 71.6811 49.4574   4
   0   7  -4 -59.096 50.2863   1
   7   0  -4 -57.399 51.5707   3
  -7   0  -4 33.2778 43.2076  13
   0   7  -4 -17.768 39.1216  13
   0   7  -4 21.6627 47.6220  12
   0   7  -4 11.0718 49.6385   4
  -1  -7  -4 208.729 57.1955  10
  -1  -7  -4 354.820 60.2111   6
   7  -1  -4 165.148 52.5342  15
   7  -1  -4 188.369 49.9379   7
   1   7  -4 176.052 47.0517  13
  -7   1  -4 136.427 47.1328  10
  -1  -7  -4 239.487 53.6783   7
  -7   1  -4 256.037 54.0112   1
  -7   1  -4 236.507 46.8675   9
   1   7  -4 245.769 52.8057  12
   7  -1  -4 182.410 55.4303   3
   1   7  -4 211.420 58.0466   1
   7  -1  -4 229.394 53.9125   4
  -7   1  -4 269.159 54.7897  12
  -7   1  -4 115.926 49.2527  13
   1   7  -4 200.635 54.7868   4
   1   7  -4 260.474 53.8320   3
  -1  -7  -4 209.273 49.1239   9
  -7   2  -4 85.0920 48.9492   1
   2   7  -4 51.9451 42.6528  13
   7  -2  -4 25.7601 54.3819   6
  -7   2  -4 85.0447 41.7111   9
   2   7  -4 90.8059 45.8980  15
  -2  -7  -4 29.3047 45.4445   9
   7  -2  -4 81.3137 55.5226   3
   7  -2  -4 119.738 49.9063  15
   2   7  -4 60.2925 52.4800   1
   7  -2  -4 41.7773 46.0663   4
   2   7  -4 31.7945 51.9991   4
  -2  -7  -4 159.117 51.8420  10
  -7   2  -4 81.5117 41.7794  10
  -7   2  -4 48.0657 47.3119  12
   7  -2  -4 7.81047 51.2530   7
   2   7  -4 -20.617 45.7650   3
  -2  -7  -4 108.178 51.8881   6
  -7   2  -4 65.0635 44.5141  13
  -2  -7  -4 128.576 48.3756   7
   2   7  -4 22.9382 48.5791  12
   3   7  -4 106.584 50.3934   3
   3   7  -4 104.147 54.4908   1
  -3  -7  -4 67.4489 47.2996   9
   7  -3  -4 104.759 46.0533   4
  -7   3  -4 179.402 44.7643   9
  -7   3  -4 101.711 44.0993  10
   7  -3  -4 93.5709 55.9237   3
   7  -3  -4 94.6917 53.4444   7
  -3  -7  -4 240.937 50.9763   7
  -7   3  -4 73.6785 49.6380  12
   7  -3  -4 97.0010 51.8575  15
  -3  -7  -4 120.365 55.7821  10
   3   7  -4 103.147 47.8529  15
   7  -3  -4 156.278 57.3592   6
  -3  -7  -4 79.6045 53.0536   6
   3   7  -4 169.031 44.8636  13
   3   7  -4 178.609 53.2032  12
  -7   3  -4 90.9747 49.0331   1
  -7   3  -4 58.5295 46.4075  13
   3   7  -4 121.607 57.8263   4
  -7   4  -4 106.232 41.3249  10
   7  -4  -4 4.35718 50.3051  15
   7  -4  -4 58.0426 56.2691   7
  -7   4  -4 197.164 48.3492  13
   7  -4  -4 121.394 58.3288   6
   4   7  -4 135.546 52.0109  12
   4   7  -4 25.7071 51.9671   1
   4   7  -4 106.335 57.6230   4
  -4  -7  -4 50.0647 54.8876  10
  -4  -7  -4 76.3403 47.3386   7
   4   7  -4 51.2984 49.6101   3
  -7   4  -4 6.59543 43.2236   1
  -4  -7  -4 170.830 49.7165   9
  -7   4  -4 119.436 49.2544  12
   4   7  -4 98.5525 42.8740  13
  -4  -7  -4 99.3000 53.4643   6
   7  -4  -4 129.523 46.9219   4
   7  -4  -4 78.1980 56.9628   3
   4   7  -4 88.7492 50.0508  15
  -7   4  -4 164.332 43.2707   9
   5   7  -4 -61.502 48.4887  12
   5   7  -4 99.2913 57.8301   4
   5   7  -4 -19.378 49.1068   3
   7  -5  -4 58.6253 52.3807  15
  -7   5  -4 -64.828 42.5772  13
  -7   5  -4 43.6656 43.1791  12
   7  -5  -4 107.546 48.0130   4
  -5  -7  -4 98.0937 47.4234   7
   7  -5  -4 67.9851 58.1759   7
  -5  -7  -4 63.4723 56.9766  10
  -7   5  -4 45.4735 39.7553   9
  -7   5  -4 21.1409 47.6858   1
   7  -5  -4 40.1830 55.7620   3
   5   7  -4 43.8641 49.2581  15
   7  -5  -4 36.9756 51.7722   6
  -5  -7  -4 164.449 54.8954   6
   5   7  -4 135.446 56.3857   1
  -5  -7  -4 -47.706 46.9017   9
   6   7  -4 246.076 56.9091   1
   7  -6  -4 118.084 58.5548   3
  -7   6  -4 237.302 45.6689   9
   6   7  -4 120.536 53.0391  15
   7  -6  -4 99.0825 53.8428  15
   6   7  -4 224.859 63.7838   4
   6   7  -4 215.017 57.0597  12
  -6  -7  -4 190.737 54.1015   9
   7  -6  -4 86.0318 54.8967  10
  -6  -7  -4 260.855 57.6622   6
   6   7  -4 161.799 56.4731   3
   7  -6  -4 170.786 59.5151   7
  -7   6  -4 188.528 49.8583   4
  -7   6  -4 256.673 56.9992   1
  -6  -7  -4 47.8553 57.2704  10
   7  -6  -4 159.686 62.2855   6
   6   7  -4 210.856 49.9726   7
  -6  -7  -4 191.829 49.1909  13
  -7   6  -4 153.684 48.2263  12
  -7   6  -4 210.652 49.7551  13
   7   7  -4 -53.246 46.8513  15
   7   7  -4 5.17719 44.8661   7
  -7   7  -4 -24.637 40.5834  12
   7   7  -4 21.2381 50.3313   1
  -7  -7  -4 77.0905 47.4394  13
   7  -7  -4 38.9622 51.2329  15
  -7   7  -4 39.4377 45.0611  13
   7   7  -4 -25.214 58.9106   4
   7   7  -4 5.73330 52.0788   3
  -7  -7  -4 -25.221 48.9755   9
  -7   7  -4 49.0730 48.3147   1
  -7  -7  -4 34.5580 58.9237   6
  -7   7  -4 -4.4157 38.6695   9
   7   7  -4 -17.647 48.9685  12
   7  -7  -4 -9.7553 56.6188   6
   7  -7  -4 103.415 56.5590  10
  -7   7  -4 29.9197 43.2174   4
  -7  -7  -4 14.7014 57.6604  10
   7  -7  -4 38.6432 53.5073   7
   8   7  -4 92.3033 52.4548  15
  -8  -7  -4 -86.262 56.7415  10
  -7   8  -4 58.1272 57.1134   1
  -7   8  -4 -15.950 44.7801  13
   7  -8  -4 -42.511 54.7282   7
   8   7  -4 88.8157 55.3504  12
   7  -8  -4 16.2997 53.0883   6
   8   7  -4 -36.392 52.5410   3
   8   7  -4 59.9032 49.4512   7
  -8  -7  -4 -1.5669 51.3931   9
   7  -8  -4 57.0607 56.2219  10
  -7   8  -4 66.5015 45.6538  12
  -8  -7  -4 52.8983 47.3664  13
  -7   8  -4 98.4353 49.8472   4
   8   7  -4 31.8417 63.5856   4
  -6   8  -4 66.7003 56.7619   1
  -8  -6  -4 -3.5013 55.1537  10
   6  -8  -4 39.2077 49.1868  10
   6  -8  -4 109.345 53.8025   6
  -6   8  -4 -33.986 41.5378  12
  -8  -6  -4 78.1552 51.7604   9
   8   6  -4 -19.392 45.2100   7
  -6   8  -4 25.3425 48.1208   4
  -8  -6  -4 64.3680 45.6857  13
   6  -8  -4 25.7787 51.6573   7
   8   6  -4 -4.2869 48.0799  15
   8   6  -4 64.6662 52.0157   3
  -6   8  -4 -28.995 43.3008  13
   8   6  -4 6.31222 65.3647   4
   8   5  -4 149.022 52.9917   7
   8   5  -4 136.869 63.2092   4
  -8  -5  -4 230.150 59.7760  10
  -8  -5  -4 235.856 52.3703  13
   8   5  -4 91.2276 50.6327  15
  -5   8  -4 151.269 46.7713  13
  -8  -5  -4 217.271 54.2366   9
   5  -8  -4 205.217 57.3353   6
  -5   8  -4 226.195 61.8313   1
  -5   8  -4 215.552 55.1278   4
   5  -8  -4 152.513 54.9028  10
  -5   8  -4 192.128 47.7583  12
   8   5  -4 174.376 55.1574   3
   5  -8  -4 92.3309 55.6519   7
  -8  -4  -4 12.6013 51.8043  10
  -4   8  -4 30.1471 49.8867   1
  -8  -4  -4 64.2207 47.4782   9
   8   4  -4 31.6066 51.8895   3
   8   4  -4 83.6907 49.4315   7
   8   4  -4 40.2243 46.9498  15
  -4   8  -4 -7.3292 48.0261   4
   8   4  -4 7.07501 56.1587   4
  -4   8  -4 31.3870 42.3853  13
   4  -8  -4 64.1719 55.6459   7
  -8  -4  -4 30.5524 46.1022  13
   4  -8  -4 -7.7473 50.2263  10
   4  -8  -4 -39.260 49.9255   6
  -4   8  -4 14.4688 41.9432  12
   3  -8  -4 0.85748 54.0318   7
  -8  -3  -4 27.7047 44.9094   9
   8   3  -4 23.3809 48.6288  15
  -8  -3  -4 59.1786 44.8184  13
   8   3  -4 -11.399 48.3830   1
  -3   8  -4 58.9831 42.0725  13
   8   3  -4 -0.3975 53.5979   4
  -3   8  -4 61.9468 46.0933  12
  -8  -3  -4 -62.474 47.8416  10
  -3   8  -4 -28.005 53.6078   1
   8   3  -4 18.2556 46.5720   7
   3  -8  -4 40.9025 54.5830   6
   3  -8  -4 24.4400 50.5178  10
   8   3  -4 24.6649 50.4679   3
  -3   8  -4 -6.7730 44.5853   4
  -2   8  -4 -11.223 55.1475   1
   2  -8  -4 -2.3856 52.7199   6
   2  -8  -4 -15.953 51.5042   7
  -8  -2  -4 30.4419 44.8613   1
   8   2  -4 -11.680 51.4114   3
  -2   8  -4 -10.713 43.6092  12
   8   2  -4 39.4948 51.1901   4
  -8  -2  -4 52.7214 45.1417   9
  -8  -2  -4 -14.360 44.6779  13
  -8  -2  -4 -5.0450 47.2125  10
   8   2  -4 -7.3361 47.1681  15
  -2   8  -4 -44.528 45.5813   4
   8   2  -4 78.3573 50.2000   7
  -2   8  -4 -48.155 40.1952  13
   8   2  -4 27.7007 44.0943   1
   2  -8  -4 -36.341 52.9610  10
  -1   8  -4 8.87183 40.7412  13
   8   1  -4 26.3715 49.3635   4
   8   1  -4 45.9480 53.2186   3
   1  -8  -4 68.0213 52.3877   6
  -1   8  -4 27.5200 54.6212   1
   8   1  -4 51.4278 49.7351   7
   8   1  -4 46.9027 48.9528  15
  -1   8  -4 92.4036 47.9083  12
   8   1  -4 14.6706 45.6410   1
  -8  -1  -4 10.4009 44.3066  13
  -8  -1  -4 102.931 44.5246   9
  -8  -1  -4 69.6508 45.1852   1
   1  -8  -4 2.26307 55.4249  10
  -8  -1  -4 26.4999 45.5623  10
  -1   8  -4 67.3693 49.3734   4
   1  -8  -4 41.9363 50.7207   7
   0   8  -4 30.7023 45.0945  12
   8   0  -4 -0.6819 42.7476   7
   0   8  -4 18.3088 42.8401  13
   0   8  -4 -100.01 52.4235   1
   8   0  -4 -45.374 52.4277   3
   8   0  -4 -4.6230 47.9807  15
   0  -8  -4 -4.3224 47.3618  10
   0  -8  -4 -38.241 48.1231   7
   8   0  -4 18.7282 48.4433   4
   0   8  -4 -27.025 47.7118   4
  -8   0  -4 -4.0761 39.4257  13
  -8   0  -4 -59.848 39.8669   9
  -8   0  -4 28.7425 43.7629   1
   0  -8  -4 -16.507 50.3273   6
  -8   0  -4 -9.1178 44.6038  10
  -8   1  -4 32.1323 45.1282   1
   8  -1  -4 108.790 55.7382   3
  -8   1  -4 -10.111 42.5050  10
  -8   1  -4 115.619 46.6225  13
   8  -1  -4 97.3681 49.7107   4
   1   8  -4 92.7952 50.8305  12
   8  -1  -4 -6.9221 44.2834   7
   1   8  -4 73.4305 41.9163  13
   8  -1  -4 -22.734 50.1520  15
  -1  -8  -4 45.9199 51.4207   6
   1   8  -4 72.7721 51.0048   4
   1   8  -4 126.637 58.1890   1
  -8   1  -4 38.9506 43.4280   9
  -1  -8  -4 50.8279 52.8340  10
  -1  -8  -4 46.9444 49.1884   7
  -8   2  -4 37.3528 46.9204   1
  -8   2  -4 -44.832 47.2349  12
   2   8  -4 -57.524 49.5950   4
   8  -2  -4 -66.195 52.1768   3
   2   8  -4 -22.349 46.6147   1
  -2  -8  -4 -4.7709 52.1865   6
   8  -2  -4 19.1309 51.6519   7
  -8   2  -4 -4.3373 39.6092  10
   8  -2  -4 6.21219 49.0401  15
   2   8  -4 -42.643 46.7072   3
   2   8  -4 113.271 50.4320  12
   2   8  -4 24.0845 42.1917  13
  -2  -8  -4 -15.393 44.5117   9
   8  -2  -4 75.8246 50.6047   4
  -8   2  -4 1.23567 40.6729   9
  -2  -8  -4 50.9508 54.4091  10
  -8   2  -4 -12.751 45.0734  13
  -2  -8  -4 40.5733 48.0641   7
   3   8  -4 -24.226 54.9445   1
   3   8  -4 -23.202 46.8733   3
  -3  -8  -4 47.8407 50.0189   7
   3   8  -4 -40.231 50.0133  12
  -8   3  -4 3.85232 45.2663   1
   8  -3  -4 -28.002 53.7326   3
  -8   3  -4 70.4522 44.7312  13
  -8   3  -4 16.0838 42.1560   9
   8  -3  -4 108.563 56.0204   6
   8  -3  -4 24.2379 51.9176  15
   8  -3  -4 188.370 59.7337   7
  -8   3  -4 51.5349 42.9515  10
  -3  -8  -4 10.9938 47.4095   9
   8  -3  -4 -56.250 46.5056   4
  -3  -8  -4 -70.935 48.3314   6
  -8   3  -4 22.0430 47.7154  12
   3   8  -4 31.0850 46.3000  15
   3   8  -4 18.4412 40.4325  13
   3   8  -4 4.33530 54.9627   4
  -3  -8  -4 2.40493 53.4742  10
  -4  -8  -4 113.548 57.7688  10
   8  -4  -4 14.3325 55.4605   7
  -8   4  -4 -23.287 39.8996   9
   8  -4  -4 113.614 48.8019   4
   8  -4  -4 142.177 60.4587   3
   4   8  -4 39.6326 50.3713   3
  -8   4  -4 75.5060 48.6898  12
   4   8  -4 203.734 58.7147   1
   8  -4  -4 4.45888 55.9081   6
  -4  -8  -4 33.7892 54.6027   6
   4   8  -4 77.3299 47.8631  15
  -4  -8  -4 3.56062 45.9415   9
   8  -4  -4 24.1846 53.9974  15
   4   8  -4 45.0836 57.0627   4
  -8   4  -4 47.3469 47.0558   1
   4   8  -4 28.6992 49.6964  12
  -8   4  -4 61.2741 45.1876  13
  -4  -8  -4 82.6270 46.6101   7
   5   8  -4 170.133 61.4620   4
  -5  -8  -4 250.394 59.4421   6
   5   8  -4 207.514 54.9692  12
   5   8  -4 79.6371 52.7869   3
  -5  -8  -4 46.6972 51.5543   9
  -5  -8  -4 247.057 62.2440  10
   8  -5  -4 126.524 59.3054   7
   8  -5  -4 173.502 56.6767  15
   8  -5  -4 182.935 60.2728   6
   5   8  -4 188.939 54.0757  15
  -8   5  -4 122.672 52.9975   1
   8  -5  -4 102.747 59.3545   3
  -8   5  -4 214.782 47.5614   9
   5   8  -4 158.258 58.6711   1
  -8   5  -4 193.802 47.9151  13
  -8   5  -4 140.899 49.2663  12
  -8   6  -4 11.3672 44.5041   4
   8  -6  -4 -20.938 57.0865   3
   6   8  -4 -6.2013 50.3566  12
   8  -6  -4 -31.868 47.4187   7
  -8   6  -4 39.4632 43.9113  12
  -8   6  -4 80.4406 43.9346  13
  -6  -8  -4 54.8997 55.7768   6
  -6  -8  -4 -20.855 55.4081  10
   8  -6  -4 -45.619 53.0070   6
  -6  -8  -4 1.85879 43.7412  13
   6   8  -4 -35.384 51.6446   1
   6   8  -4 3.11008 49.6717   3
  -8   6  -4 21.6020 47.5708   1
  -6  -8  -4 -4.9996 50.0068   9
   8  -6  -4 12.6498 51.4161  15
   6   8  -4 -44.488 48.4575  15
   6   8  -4 -53.670 61.7039   4
  -8   6  -4 38.0788 40.0550   9
   7   8  -4 21.6401 54.8103  12
  -7  -8  -4 35.1846 53.2849   9
  -8   7  -4 52.9662 56.2822   1
  -8   7  -4 -39.233 42.8253  12
   8  -7  -4 10.6116 53.5717  15
   8  -7  -4 76.5317 51.7304  10
   7   8  -4 57.3035 52.8899   3
   8  -7  -4 -4.5405 58.0358   6
   8  -7  -4 -29.003 56.6104   3
   7   8  -4 -20.455 65.0280   4
   7   8  -4 18.1738 43.1194   7
  -8   7  -4 80.6262 43.6407   9
  -7  -8  -4 79.0655 60.8226  10
  -8   7  -4 26.2790 45.0000  13
  -7  -8  -4 59.4404 56.8685   6
  -7  -8  -4 78.5573 45.9021  13
   7   8  -4 24.0423 52.7176   1
  -8   7  -4 23.0081 47.3046   4
   7   8  -4 33.8064 51.6100  15
   8  -7  -4 -28.760 54.9118   7
  -8   8  -4 165.259 44.1137   9
  -8  -8  -4 133.973 45.9597  13
   8   8  -4 101.663 48.5492   7
  -8  -8  -4 42.4746 52.7615   9
  -8   8  -4 117.459 48.5179   4
  -8  -8  -4 -81.289 59.0277  10
   8  -8  -4 67.8077 56.1558   6
   8   8  -4 137.815 54.0104  12
   8  -8  -4 76.5907 61.2913   7
   8   8  -4 153.692 57.8236   3
  -8   8  -4 177.545 58.7746   1
  -8   8  -4 117.121 46.5761  12
   8   8  -4 243.351 56.7181  15
   8  -8  -4 170.914 60.6696  10
   8  -8  -4 59.4233 54.9094  15
  -8   9  -4 -31.472 43.1546  12
  -9  -8  -4 -42.858 50.9822   9
  -8   9  -4 -18.347 53.6468   1
  -9  -8  -4 54.7687 49.9079  13
   8  -9  -4 -27.507 52.6840   6
   9   8  -4 -72.628 49.4968  15
   9   8  -4 102.298 54.5284  12
   8  -9  -4 143.238 58.7378  10
   9   8  -4 88.6809 57.2907   3
   9   7  -4 8.97912 50.8946  15
  -7   9  -4 23.7514 48.5259   4
   9   7  -4 -32.345 53.1819   3
  -9  -7  -4 -12.741 51.6463   9
  -7   9  -4 65.0606 55.6743   1
  -7   9  -4 -27.434 42.4944  12
   7  -9  -4 3.91928 58.8990   7
   7  -9  -4 -40.458 56.4554   6
  -9  -7  -4 102.320 50.7813  13
   7  -9  -4 52.4323 55.8568  10
   9   7  -4 43.6154 45.8659   7
  -6   9  -4 8.23390 45.6726   4
  -6   9  -4 53.8246 55.1817   1
  -9  -6  -4 10.9868 58.2681  10
   6  -9  -4 81.2230 52.8364  10
   6  -9  -4 -58.980 55.0356   6
   6  -9  -4 -7.0930 55.9840   7
   9   6  -4 -61.481 48.9636  15
   9   6  -4 31.5334 53.8148   3
  -6   9  -4 5.16145 42.5732  12
  -9  -6  -4 78.5599 52.8733   9
   9   6  -4 49.2369 48.1501   7
   9   6  -4 -97.846 60.6689   4
  -9  -6  -4 40.0835 46.1556  13
  -9  -5  -4 0.77975 56.6164  10
   9   5  -4 -40.727 59.8352   4
   9   5  -4 -3.0449 52.9381   3
  -9  -5  -4 3.94162 49.4083   9
   5  -9  -4 70.2272 56.5567   7
  -5   9  -4 0.50338 45.1613  13
  -5   9  -4 88.1608 46.5293  12
   9   5  -4 88.0899 49.0312   7
  -5   9  -4 43.0311 48.6451   4
   5  -9  -4 90.6711 54.7061  10
  -9  -5  -4 31.3302 45.3732  13
  -5   9  -4 62.5541 54.1070   1
   9   5  -4 17.6542 50.4003  15
   5  -9  -4 29.7960 56.3734   6
   9   4  -4 -90.428 46.3507  15
  -4   9  -4 14.1129 57.5194   1
   9   4  -4 65.6816 52.0574   3
  -4   9  -4 14.3342 49.5149   4
  -4   9  -4 -36.470 42.1822  13
  -9  -4  -4 20.9866 44.9110  13
  -4   9  -4 24.1438 42.9854  12
   4  -9  -4 121.647 56.1852   6
   4  -9  -4 -25.371 56.4332  10
  -9  -4  -4 -30.812 51.1319  10
   9   4  -4 -11.044 57.0632   4
  -9  -4  -4 -31.522 45.8691   9
   9   4  -4 7.20866 48.8897   7
   4  -9  -4 -29.013 53.0274   7
  -3   9  -4 235.146 62.2972   1
   9   3  -4 150.775 54.4521   3
   3  -9  -4 199.404 58.1391   7
   9   3  -4 41.0798 49.2217   7
   3  -9  -4 73.0487 56.6942  10
  -3   9  -4 71.7293 46.4925  13
   3  -9  -4 129.045 57.9569   6
  -3   9  -4 78.4124 46.4413  12
   9   3  -4 160.341 53.0973  15
  -9  -3  -4 108.627 49.3253   9
   9   3  -4 193.502 60.5030   4
  -9  -3  -4 113.362 48.3488  13
  -3   9  -4 199.404 55.2206   4
  -9  -3  -4 58.7267 55.0847  10
   9   2  -4 60.5754 53.3348   3
   2  -9  -4 -16.198 51.3284  10
  -9  -2  -4 -16.311 43.8438   9
  -2   9  -4 22.4072 47.9417   4
  -9  -2  -4 -44.822 46.9648  10
  -2   9  -4 -42.803 40.5613  13
  -9  -2  -4 6.70063 42.7759   1
  -9  -2  -4 38.4319 46.2428  13
   9   2  -4 65.6605 50.9045  15
   2  -9  -4 85.5912 53.7815   7
  -2   9  -4 68.9245 59.7380   1
   2  -9  -4 26.7812 56.0564   6
  -2   9  -4 44.0348 45.5403  12
   9   2  -4 -5.8116 52.8896   4
   9   2  -4 29.4255 48.2775   7
  -1   9  -4 30.9098 43.8602  12
   1  -9  -4 76.1090 54.7392   6
   1  -9  -4 -20.488 53.8860   7
   9   1  -4 -12.674 48.4240  15
  -9  -1  -4 -15.471 45.7625  13
  -9  -1  -4 -10.915 45.1315  10
  -1   9  -4 106.088 57.4724   1
  -1   9  -4 30.8445 43.3333  13
  -9  -1  -4 3.97412 42.2128   9
   9   1  -4 -11.605 56.6072   4
   9   1  -4 67.0538 53.4046   3
   9   1  -4 5.32650 50.2434   7
  -9  -1  -4 86.6761 44.9849   1
  -1   9  -4 10.9244 50.5030   4
   1  -9  -4 68.5464 55.8899  10
   9   0  -4 19.8241 54.0032   3
   0  -9  -4 40.7911 51.6193   7
   9   0  -4 94.1744 52.5631   7
  -9   0  -4 127.467 47.1363   1
   9   0  -4 73.1927 49.8736   4
  -9   0  -4 120.005 42.8605  13
  -9   0  -4 72.1155 44.0694   9
   0   9  -4 136.045 50.9925  12
   0  -9  -4 140.677 56.2061   6
  -9   0  -4 14.9638 47.6594  10
   0  -9  -4 56.7122 52.1760  10
   0   9  -4 98.4969 43.4757  13
   0   9  -4 42.6151 50.0782   1
   9   0  -4 43.6406 50.4871  15
   0   9  -4 168.127 54.8416   4
   9  -1  -4 48.8898 52.2145   4
  -1  -9  -4 89.8761 49.0966   7
  -9   1  -4 69.1297 45.7676  13
  -1  -9  -4 -19.033 51.5689  10
   1   9  -4 37.9345 49.6247   1
   1   9  -4 -5.6285 54.1342   4
   9  -1  -4 58.4574 55.7547   3
  -1  -9  -4 51.2724 56.8767   6
   9  -1  -4 -2.9591 51.9399   7
   9  -1  -4 84.7338 53.1963  15
  -9   1  -4 124.280 47.1332  10
  -9   1  -4 150.049 49.0744   1
  -9   1  -4 25.6442 43.2584   9
   1   9  -4 -33.116 42.0082  13
   1   9  -4 -11.561 48.7454  12
   9  -2  -4 54.3472 54.7387   7
   2   9  -4 40.2742 55.5249   1
  -2  -9  -4 8.65074 53.8953  10
  -2  -9  -4 67.5706 56.2091   6
  -9   2  -4 29.2442 42.4701   9
  -9   2  -4 75.7467 46.9139   1
  -9   2  -4 -5.2180 39.5500  10
  -9   2  -4 39.9282 41.0346  13
   2   9  -4 42.5847 43.1908  13
  -2  -9  -4 -39.497 46.9167   7
   9  -2  -4 5.04262 49.7463  15
   9  -2  -4 25.6909 56.5716   3
   2   9  -4 29.4137 47.9369  12
   2   9  -4 10.8233 53.5343   4
   9  -2  -4 9.03807 45.9059   4
  -3  -9  -4 255.275 65.1280  10
   9  -3  -4 136.307 53.1057   4
   3   9  -4 188.215 60.3492   4
   9  -3  -4 184.539 56.2463  15
  -9   3  -4 167.779 46.8821   9
   3   9  -4 122.017 62.8571   1
  -3  -9  -4 214.307 62.9212   6
  -3  -9  -4 101.379 53.0252   9
   9  -3  -4 161.303 60.8601   3
  -9   3  -4 208.042 50.4743  13
  -9   3  -4 193.033 52.4751   1
   9  -3  -4 173.059 58.9851   7
   3   9  -4 118.864 55.0723  12
  -3  -9  -4 154.612 56.7188   7
  -9   3  -4 246.017 56.8109  12
   3   9  -4 171.135 53.5212   3
   9  -4  -4 59.6988 59.8207   3
  -9   4  -4 45.1199 46.3800   1
   4   9  -4 28.0984 47.8289   3
  -4  -9  -4 -44.694 55.9404  10
  -4  -9  -4 -13.070 49.1947   9
  -9   4  -4 70.0686 41.8617   9
   4   9  -4 -60.238 44.5463  15
   4   9  -4 1.33266 55.0679   4
   9  -4  -4 -66.694 50.7507   6
  -4  -9  -4 103.411 58.5484   6
   9  -4  -4 0.61132 49.1218   7
   4   9  -4 -9.2415 59.2336   1
   9  -4  -4 70.6538 54.7955  15
  -9   4  -4 17.8603 46.4226  13
   4   9  -4 25.2705 53.4556  12
  -9   4  -4 52.2424 47.9136  12
  -5  -9  -4 16.1317 55.3255  10
  -9   5  -4 12.4742 48.3392   1
  -9   5  -4 73.0618 50.3299  12
  -5  -9  -4 39.5857 50.3763   9
  -9   5  -4 27.1860 41.1256   9
   9  -5  -4 110.013 60.7154   3
   5   9  -4 -13.956 53.6357   1
   9  -5  -4 80.5581 52.9387  15
   5   9  -4 68.8246 61.3577   4
   9  -5  -4 -20.215 54.7750   7
   9  -5  -4 26.6690 58.5830   6
   5   9  -4 -11.588 48.6185   3
  -5  -9  -4 -22.918 56.3515   6
   5   9  -4 78.1861 57.3929  12
   5   9  -4 -2.5224 47.6805  15
  -9   5  -4 49.6037 40.5791  13
   6   9  -4 16.2973 58.7366   1
  -9   6  -4 81.2329 48.0228  13
  -9   6  -4 45.8342 47.3487  12
   9  -6  -4 66.8767 57.5965  15
   9  -6  -4 37.3022 59.8567   3
   6   9  -4 7.67682 64.1743   4
   9  -6  -4 131.414 57.9355   6
  -6  -9  -4 -22.142 43.9633  13
  -9   6  -4 71.5514 42.9497   9
  -6  -9  -4 52.0033 62.8621  10
  -9   6  -4 3.02700 50.2379   1
  -6  -9  -4 78.0190 58.4276   6
  -6  -9  -4 -29.918 49.9600   9
   9  -6  -4 -15.202 56.0267   7
   6   9  -4 139.655 52.9142   3
   6   9  -4 -127.27 46.8637  15
  -9   6  -4 109.714 46.5136   4
   6   9  -4 95.9147 55.6830  12
   9  -7  -4 -26.823 58.1914   7
  -7  -9  -4 11.0035 55.6817   6
   7   9  -4 81.9039 54.9427  15
   9  -7  -4 59.0975 52.4250  10
  -7  -9  -4 7.87698 53.2119   9
  -9   7  -4 42.4817 42.6628   9
   7   9  -4 -35.702 51.7446   3
   9  -7  -4 6.82570 58.4974   6
  -9   7  -4 32.1510 47.3342   4
  -7  -9  -4 111.881 64.5036  10
   9  -7  -4 51.9288 62.0632   3
   7   9  -4 72.6553 57.0701  12
  -7  -9  -4 0.16480 44.4936  13
   7   9  -4 -13.144 67.3997   1
   9  -7  -4 70.0721 56.0134  15
   7   9  -4 22.3724 46.1928   7
  -9   7  -4 10.4441 50.9965   1
  -9   7  -4 -52.154 43.2662  12
   9  -8  -4 31.2858 56.8854  15
   8   9  -4 59.0945 53.0487  12
   9  -8  -4 210.048 75.9043   3
  -9   8  -4 18.6069 52.0029   1
   8   9  -4 -26.030 52.0410  15
   9  -8  -4 56.5071 56.8715  10
  -8  -9  -4 67.4945 43.7471  13
  -9   8  -4 83.9269 43.7199   9
  -8  -9  -4 -26.888 50.4957   9
   8   9  -4 47.7579 55.4189   3
  -8  -9  -4 -21.748 56.9915   6
   9  -8  -4 -14.900 52.8819   6
  -9   8  -4 43.3107 44.5263  12
   9   9  -4 125.454 57.9045  12
   9   9  -4 166.310 57.6010  15
   9  -9  -4 63.9876 57.1989   6
  -9   9  -4 221.530 52.5280   9
  -9   9  -4 -1.5094 47.6413  12
  -9  -9  -4 56.7857 56.8441   9
   9  -9  -4 49.6151 59.4649  15
   9  -9  -4 87.7574 75.0226  10
   9   9  -4 21.6763 56.5401   3
 -10  -9  -4 -11.765 57.6000   9
  10   9  -4 -60.325 57.2072   3
  -9  10  -4 49.1967 45.5698  12
  10   9  -4 71.7348 100.452  12
  10   9  -4 -1.0506 55.7869  15
   9 -10  -4 117.801 58.4898   6
 -10  -8  -4 5.37004 56.1339   9
   8 -10  -4 82.6925 57.5531   6
 -10  -8  -4 26.8227 52.7282  13
  10   8  -4 50.9448 55.1551  15
   8 -10  -4 45.8410 57.6830  10
  -8  10  -4 88.3551 49.6147  12
  10   8  -4 78.2721 57.3633   3
  -7  10  -4 132.573 75.4467   4
 -10  -7  -4 15.2612 45.1891  13
  10   7  -4 -58.417 51.3585  15
  -7  10  -4 85.0059 45.5230  12
  10   7  -4 10.5295 54.2730   3
   7 -10  -4 63.5750 55.5710  10
 -10  -7  -4 -12.371 51.4187   9
   7 -10  -4 5.70668 52.5915   6
  10   7  -4 131.768 67.1083   7
  10   6  -4 -20.825 50.9833  15
   6 -10  -4 19.0243 54.0884  10
 -10  -6  -4 53.5147 51.9695   9
   6 -10  -4 32.6751 53.9706   6
  10   6  -4 50.8841 56.2551   3
 -10  -6  -4 40.5775 46.8354  13
  -6  10  -4 55.0571 50.6501   4
   6 -10  -4 -71.686 55.8571   7
  -6  10  -4 17.8106 43.6975  12
  10   6  -4 0.52797 51.3682   7
  -5  10  -4 19.6506 45.6434  12
   5 -10  -4 54.3649 53.0201   6
  -5  10  -4 -10.331 56.7458   1
   5 -10  -4 -11.004 57.3695  10
  10   5  -4 3.90666 48.3017   7
  10   5  -4 71.4631 56.0091   3
  10   5  -4 -9.7358 48.7494  15
 -10  -5  -4 82.7488 49.9193  13
 -10  -5  -4 31.2322 59.2219  10
  -5  10  -4 54.6343 48.2105   4
 -10  -5  -4 -14.036 49.5953   9
   5 -10  -4 -34.519 55.4640   7
  10   4  -4 4.24765 49.4366   7
 -10  -4  -4 35.3245 45.9152  13
  -4  10  -4 -19.496 51.6350   4
   4 -10  -4 20.9556 55.8142   7
   4 -10  -4 -7.7006 50.0571   6
   4 -10  -4 40.1353 58.1972  10
  10   4  -4 73.3635 52.8300   3
 -10  -4  -4 4.87190 57.6526  10
 -10  -4  -4 47.2156 51.1667   9
  10   4  -4 54.0418 61.9795   4
  10   4  -4 -0.5000 49.5676  15
  -4  10  -4 26.9097 56.7654   1
  -4  10  -4 -14.348 44.8304  12
  -3  10  -4 108.774 59.7456   1
  -3  10  -4 125.436 52.4598   4
 -10  -3  -4 43.6338 53.7918  10
   3 -10  -4 104.603 53.8655   6
  10   3  -4 61.4040 51.7792   7
   3 -10  -4 75.9635 52.1629  10
  -3  10  -4 108.230 45.9388  13
 -10  -3  -4 68.9978 47.0993  13
 -10  -3  -4 67.3602 44.9805   1
  10   3  -4 39.2112 64.5031   4
  10   3  -4 110.401 55.0716   3
 -10  -3  -4 172.324 53.3979   9
  -3  10  -4 76.8308 46.7801  12
   3 -10  -4 123.584 53.7927   7
  10   3  -4 77.3670 51.1388  15
   2 -10  -4 132.152 60.6019  10
  -2  10  -4 57.2950 51.9193   4
  -2  10  -4 57.8989 48.1482  12
 -10  -2  -4 22.8999 53.6885  10
  10   2  -4 33.9678 53.9433   4
   2 -10  -4 -38.179 51.0959   6
 -10  -2  -4 93.5269 48.6901   9
  10   2  -4 31.1728 51.1332   7
 -10  -2  -4 59.0526 43.1747   1
  -2  10  -4 98.9946 60.5456   1
  10   2  -4 101.658 52.1182  15
  10   2  -4 86.7087 54.6808   3
  -2  10  -4 53.8143 42.6948  13
   2 -10  -4 15.1775 53.2745   7
 -10  -2  -4 77.2856 49.8620  13
 -10  -1  -4 48.1145 47.5213  13
  10   1  -4 33.6620 57.2420   4
   1 -10  -4 96.7213 58.0525  10
   1 -10  -4 6.34841 50.8256   7
   1 -10  -4 45.6489 53.9596   6
 -10  -1  -4 50.7654 46.7871   9
  -1  10  -4 -23.005 46.3783  12
  10   1  -4 67.4697 51.2836  15
 -10  -1  -4 58.0785 45.8967   1
  -1  10  -4 65.4825 55.3550   4
  -1  10  -4 103.785 45.6876  13
 -10  -1  -4 -10.802 50.3552  10
  -1  10  -4 28.0157 50.9602   1
  10   1  -4 53.4985 55.9676   3
  10   1  -4 78.0653 52.9801   7
 -10   0  -4 -38.366 45.0284  13
   0  10  -4 43.0817 55.3098   4
 -10   0  -4 -8.5477 43.9324   9
  10   0  -4 20.9460 55.0038   7
   0  10  -4 -26.990 57.8056   1
  10   0  -4 -13.908 55.3813   3
   0 -10  -4 -13.094 53.4459  10
   0 -10  -4 -23.184 58.3108   6
   0  10  -4 -17.101 47.1443  12
  10   0  -4 15.2083 50.7423   4
  10   0  -4 50.2651 52.6771  15
   0 -10  -4 17.0126 53.4982   7
   0  10  -4 -48.899 41.5431  13
 -10   0  -4 41.6037 45.0074   1
 -10   0  -4 -52.342 45.9929  10
  10  -1  -4 86.0793 56.7338   3
 -10   1  -4 -17.247 41.7023   9
  -1 -10  -4 62.5144 54.2450   6
   1  10  -4 5.31848 42.9730  13
  -1 -10  -4 -36.046 52.5587   7
  10  -1  -4 87.5166 55.9673   7
 -10   1  -4 7.15984 44.7677   1
   1  10  -4 -40.621 47.7097   1
   1  10  -4 71.9326 59.0888   4
 -10   1  -4 85.8709 48.2484  13
  10  -1  -4 117.333 55.8240   4
   1  10  -4 79.2185 52.1272  12
 -10   1  -4 25.9594 50.3520  10
  -1 -10  -4 -16.948 57.5042  10
  10  -1  -4 34.0698 50.7224  15
 -10   2  -4 125.720 50.0162   1
  -2 -10  -4 78.9929 59.6939   6
   2  10  -4 58.6827 51.2342  12
  10  -2  -4 75.2736 53.8785  15
   2  10  -4 70.0543 58.9478   1
  10  -2  -4 91.3030 52.3013   4
 -10   2  -4 82.8153 45.0300   9
 -10   2  -4 37.6094 48.2226  13
  10  -2  -4 16.1104 55.6713   7
  10  -2  -4 66.0958 61.2796   3
   2  10  -4 21.5064 56.5378   4
  -2 -10  -4 112.877 61.7374  10
  -2 -10  -4 1.56203 67.8452   7
 -10   3  -4 77.4147 45.5262   9
   3  10  -4 -24.283 58.2512   4
   3  10  -4 138.426 55.3577  12
  -3 -10  -4 191.289 63.3205   6
   3  10  -4 125.307 51.4717   3
  10  -3  -4 160.551 63.5717   3
   3  10  -4 87.0285 57.3929   1
  10  -3  -4 110.293 56.8824  15
 -10   3  -4 127.052 50.6898  13
  10  -3  -4 -6.5325 55.4471   7
 -10   3  -4 94.1959 46.9698   1
  -3 -10  -4 111.034 62.5806  10
 -10   4  -4 89.9897 44.4618   9
   4  10  -4 37.5281 50.7494   3
  -4 -10  -4 -11.630 59.8771  10
   4  10  -4 -58.021 50.7302  12
  -4 -10  -4 -23.721 50.1092   9
  10  -4  -4 69.0290 61.1845   3
  -4 -10  -4 82.9309 56.8522   6
 -10   4  -4 29.6597 46.8817   1
 -10   4  -4 79.2732 48.7500  12
  10  -4  -4 -41.253 55.1089  15
   4  10  -4 106.680 58.6323   1
 -10   4  -4 35.8688 47.5312  13
   4  10  -4 73.6498 61.3219   4
  10  -4  -4 0.50304 54.6121   7
 -10   5  -4 35.8244 49.8905   1
  10  -5  -4 -23.724 61.2909   3
 -10   5  -4 31.0149 49.4468  12
  -5 -10  -4 21.4059 51.9182   9
   5  10  -4 -24.869 57.5863   1
   5  10  -4 27.8622 64.3933   4
  10  -5  -4 29.1594 55.1957   6
  10  -5  -4 -10.072 56.3715   7
   5  10  -4 10.0385 47.7257  15
  -5 -10  -4 82.8003 60.7564   6
 -10   5  -4 65.9292 48.5797  13
 -10   5  -4 -17.005 41.9886   9
   5  10  -4 27.5737 53.3284  12
   5  10  -4 -19.864 48.6420   3
  10  -5  -4 -72.605 51.9813  15
  -5 -10  -4 44.3849 61.0810  10
   6  10  -4 50.5213 50.7082  15
   6  10  -4 19.9470 54.3705  12
 -10   6  -4 65.1311 43.7152   9
  10  -6  -4 31.0245 58.2784  15
 -10   6  -4 -29.381 49.6852   1
   6  10  -4 -28.757 52.5488   3
  -6 -10  -4 40.0081 52.9074   9
 -10   6  -4 -35.052 48.8912  12
  10  -6  -4 120.618 66.4304   3
  -6 -10  -4 -22.196 63.5715  10
  -6 -10  -4 -13.525 58.9758   6
  10  -6  -4 19.7206 60.3088   7
  10  -6  -4 -27.473 56.4881   6
   7  10  -4 22.6846 53.1168  15
  10  -7  -4 139.548 59.6914  10
 -10   7  -4 99.7995 52.2641   1
 -10   7  -4 61.9672 43.9270   9
 -10   7  -4 111.208 50.2368  12
  -7 -10  -4 18.5065 54.5698   9
  -7 -10  -4 59.7528 59.4953   6
  10  -7  -4 31.7776 57.4003  15
  -7 -10  -4 10.3085 43.8032  13
  10  -7  -4 70.0537 66.2992   3
   7  10  -4 66.1996 57.0409   3
  10  -7  -4 -45.445 59.3931   6
   7  10  -4 64.3857 55.7986  12
  -8 -10  -4 48.7774 57.0752   9
   8  10  -4 30.0902 57.7648  12
 -10   8  -4 99.8948 45.8779   9
   8  10  -4 -29.506 55.2841   3
  -8 -10  -4 48.0063 60.2982   6
   8  10  -4 33.2219 55.0891  15
  10  -8  -4 -67.888 63.5820   3
 -10   8  -4 62.8259 48.7876  12
  10  -8  -4 15.0903 56.3792   6
  10  -8  -4 74.8512 59.5225  15
 -10   8  -4 32.8313 51.8718   1
  10  -9  -4 111.948 58.1993   6
   9  10  -4 -62.810 55.9751  15
   9  10  -4 91.8663 58.7454   3
  -9 -10  -4 -25.749 62.4271   6
  10  -9  -4 -51.621 59.8670  15
   9  10  -4 -33.906 54.6784  12
  -9 -10  -4 -20.460 56.6240   9
 -10   9  -4 -19.329 44.4056   9
 -10   9  -4 0.32727 45.3413  12
  10 -10  -4 -79.870 56.9877   6
  10  10  -4 74.5950 60.9070  12
  10 -10  -4 63.7503 68.8684  15
  10  10  -4 80.9408 61.3798   3
 -10  10  -4 -6.5729 46.5426  12
  10  10  -4 144.300 61.9715  15
 -10 -10  -4 79.9152 63.2047   9
  11  10  -4 65.6294 65.0633   3
  11  10  -4 127.187 62.4043  15
  10 -11  -4 -25.090 62.5278   6
 -10  11  -4 41.5553 48.5687  12
 -11 -10  -4 66.2552 64.5394   9
 -11  -9  -4 68.0223 59.8400   9
   9 -11  -4 65.2610 63.0013   6
  11   9  -4 111.587 62.7853   3
  -9  11  -4 56.0922 47.0637  12
  11   9  -4 63.9694 58.2906  15
  -8  11  -4 -64.117 43.0245  12
   8 -11  -4 40.3062 60.7203   6
  11   8  -4 -17.169 57.3157  15
 -11  -8  -4 -24.285 56.6426   9
  11   8  -4 -83.591 56.5931   3
 -11  -7  -4 47.2901 56.9948   9
  11   7  -4 24.3901 57.7782   3
  -7  11  -4 -53.475 42.9322  12
  11   7  -4 10.9614 54.5147  15
   7 -11  -4 18.3102 52.6238  10
   7 -11  -4 6.60761 59.4558   6
 -11  -7  -4 103.991 50.2244  13
  11   6  -4 -66.502 53.5594   3
  -6  11  -4 -78.322 49.9901   4
 -11  -6  -4 -54.342 52.2040   9
   6 -11  -4 9.09323 52.6649  10
 -11  -6  -4 39.4245 45.8926  13
  -6  11  -4 50.0301 46.0813  12
   6 -11  -4 -16.162 56.0497   6
  11   6  -4 -18.389 53.2537  15
  11   6  -4 41.6648 51.1733   7
  -5  11  -4 24.3160 49.2757   4
  11   5  -4 50.5471 53.9213   3
   5 -11  -4 -30.330 52.3397   6
 -11  -5  -4 -74.761 49.5315   9
 -11  -5  -4 -0.2275 49.0947  13
   5 -11  -4 -8.5562 57.4729  10
  11   5  -4 21.1613 50.3065  15
  11   5  -4 -32.617 49.2452   7
  -5  11  -4 5.30624 45.4282  12
   4 -11  -4 129.905 59.6936   6
  11   4  -4 -24.052 54.3879   7
 -11  -4  -4 47.2258 45.1141   1
   4 -11  -4 176.172 59.4026  10
  -4  11  -4 168.241 53.6294  12
   4 -11  -4 35.8877 59.6438   7
  11   4  -4 203.927 57.2606  15
  -4  11  -4 227.926 58.2435   4
 -11  -4  -4 188.723 50.6068  13
 -11  -4  -4 32.2686 51.6866   9
  11   4  -4 150.671 58.2435   3
   3 -11  -4 -28.857 55.1477   6
  11   3  -4 69.5872 53.2305  15
  -3  11  -4 53.2573 49.6983  12
 -11  -3  -4 57.4162 45.1526   1
   3 -11  -4 -25.459 56.4426  10
 -11  -3  -4 101.749 50.9677   9
  -3  11  -4 93.5955 54.0394   4
 -11  -3  -4 56.2618 48.3154  13
  11   3  -4 13.5237 52.2999   7
   3 -11  -4 22.3279 56.3723   7
  11   3  -4 -8.8807 52.0730   3
 -11  -3  -4 6.81572 58.9466  10
   2 -11  -4 72.8224 54.2602   6
 -11  -2  -4 49.2894 44.6893   1
 -11  -2  -4 11.4717 56.5021  10
  11   2  -4 83.4236 65.8720   4
  11   2  -4 149.690 56.6760   7
  -2  11  -4 103.751 55.5035   4
  -2  11  -4 6.96393 45.5203  12
 -11  -2  -4 97.9758 49.1413   9
 -11  -2  -4 109.734 50.7888  13
  11   2  -4 11.6425 51.8376  15
   2 -11  -4 32.2184 58.6000  10
  11   2  -4 143.012 58.3087   3
   2 -11  -4 68.5516 57.7082   7
  -1  11  -4 4.25754 52.2918   4
 -11  -1  -4 -15.892 47.6645  13
  11   1  -4 -63.356 57.8279   4
   1 -11  -4 -3.2046 50.6978   7
 -11  -1  -4 18.5904 44.6653   1
  11   1  -4 -56.973 53.9494   7
  11   1  -4 4.86053 51.2748  15
  -1  11  -4 -39.539 45.5267  12
  -1  11  -4 24.4457 42.4109  13
  11   1  -4 13.0631 53.7313   3
   1 -11  -4 46.7550 58.9179  10
   1 -11  -4 13.9816 54.1753   6
 -11  -1  -4 2.60376 45.3327   9
 -11  -1  -4 -59.246 52.3044  10
   0 -11  -4 -3.2153 56.1672  10
 -11   0  -4 26.4225 44.5345   9
  11   0  -4 40.8470 56.4951   3
 -11   0  -4 72.1107 46.2790   1
   0  11  -4 36.4121 55.7900   4
  11   0  -4 -7.6768 56.0323   4
  11   0  -4 46.5983 51.7724  15
   0  11  -4 -29.747 45.6309  13
 -11   0  -4 -10.526 73.2170  10
 -11   0  -4 40.9518 47.0892  13
   0 -11  -4 64.6068 50.7318   7
   0 -11  -4 -1.1036 58.4047   6
   0  11  -4 41.7467 49.2989  12
  11   0  -4 -1.7478 55.5443   7
  11  -1  -4 21.1027 51.8100  15
  -1 -11  -4 18.4669 60.8150  10
  -1 -11  -4 47.1165 55.7020   6
  11  -1  -4 33.5820 56.0265   4
 -11   1  -4 -31.375 43.9259   1
   1  11  -4 -24.558 48.3647  12
  11  -1  -4 11.1427 54.2754   7
 -11   1  -4 82.2971 49.2416  13
  -1 -11  -4 -37.584 90.7112   7
 -11   1  -4 -18.438 43.0814   9
  11  -1  -4 -63.689 55.3906   3
   1  11  -4 -37.482 54.8738   4
  -2 -11  -4 119.455 60.4162  10
   2  11  -4 36.4753 58.8984   4
 -11   2  -4 148.254 45.1733  13
  11  -2  -4 131.191 57.5994   7
   2  11  -4 149.964 56.6411  12
  11  -2  -4 90.8171 62.0141   3
  -2 -11  -4 118.563 63.4754   6
 -11   2  -4 32.9307 45.7412   9
  11  -2  -4 88.7075 54.7724  15
 -11   2  -4 164.080 50.0338   1
  -3 -11  -4 39.3060 61.8268  10
   3  11  -4 94.3765 63.1757   4
   3  11  -4 132.667 53.2528  12
 -11   3  -4 114.977 48.4949   1
  11  -3  -4 -12.942 60.6615   3
 -11   3  -4 115.706 50.0908  13
  -3 -11  -4 102.060 63.5724   6
  11  -3  -4 136.270 56.1313  15
  11  -3  -4 9.70494 55.3080   7
 -11   3  -4 74.3975 45.5137   9
   4  11  -4 80.1218 53.3471   3
   4  11  -4 108.007 54.6490  12
  11  -4  -4 58.0497 59.3402   7
  -4 -11  -4 241.857 65.7195   6
 -11   4  -4 146.712 52.8455  13
  11  -4  -4 123.949 65.1810   3
   4  11  -4 84.3956 66.8820   4
  11  -4  -4 160.218 56.9879  15
 -11   4  -4 259.139 50.4907   9
  -4 -11  -4 48.6977 65.8667  10
 -11   4  -4 91.3273 47.2413   1
 -11   5  -4 75.9462 52.7240   1
 -11   5  -4 12.5025 42.8665   9
  -5 -11  -4 48.0513 52.0892   9
 -11   5  -4 46.5266 48.6597  12
   5  11  -4 103.503 60.1533  12
  11  -5  -4 112.641 66.7896   3
  11  -5  -4 12.6274 59.4603  15
  -5 -11  -4 5.33457 65.8038  10
  11  -5  -4 98.5474 61.9325   7
   5  11  -4 10.2358 52.0634   3
  -5 -11  -4 -93.318 59.5831   6
  11  -6  -4 13.5783 67.3211   3
   6  11  -4 -115.04 46.5846  15
 -11   6  -4 68.4893 49.3944  12
  -6 -11  -4 19.6433 54.6059   9
 -11   6  -4 16.9365 51.1717   1
   6  11  -4 121.937 58.8940  12
 -11   6  -4 39.9908 44.1531   9
  11  -6  -4 -21.319 56.1295  15
  -6 -11  -4 -96.924 59.7589   6
   6  11  -4 53.5975 53.6688   3
  11  -6  -4 47.5630 56.9288   6
  11  -7  -4 -42.145 60.9710   6
  11  -7  -4 1.30120 60.4089  15
   7  11  -4 -28.738 55.2802   3
 -11   7  -4 10.0315 49.3783  12
 -11   7  -4 43.1178 50.8106   1
  11  -7  -4 44.5550 68.1885   3
  -7 -11  -4 65.4331 57.6859   9
 -11   7  -4 49.1698 44.3674   9
   7  11  -4 105.578 60.4989  12
  -7 -11  -4 90.6815 61.7427   6
   7  11  -4 -58.501 51.7785  15
  -8 -11  -4 86.2491 64.0885   6
  11  -8  -4 100.197 68.9730   3
   8  11  -4 -16.312 58.3113  12
  11  -8  -4 -32.374 56.9808   6
  -8 -11  -4 -44.609 56.9597   9
 -11   8  -4 18.3119 44.8966   9
   8  11  -4 153.991 58.9534   3
  11  -8  -4 -33.877 59.7274  15
 -11   8  -4 52.4045 50.4921  12
   8  11  -4 -62.405 53.1069  15
  -9 -11  -4 64.0917 67.8368   6
   9  11  -4 57.5828 58.4038  15
  -9 -11  -4 109.638 61.5496   9
 -11   9  -4 59.9086 51.8040  12
   9  11  -4 52.6537 62.2710   3
  11  -9  -4 78.8698 62.9447  15
  11  -9  -4 43.8827 58.7525   6
  11  -9  -4 59.4753 70.5543   3
 -11   9  -4 19.6236 45.8518   9
   9  11  -4 28.9936 59.2149  12
  11 -10  -4 67.7094 60.2905   6
  11 -10  -4 49.8859 64.6993  15
 -10 -11  -4 4.58113 61.8493   9
  10  11  -4 78.4242 64.2547  15
 -11  10  -4 15.3508 47.9166  12
  10  11  -4 -13.540 62.4186   3
 -11  10  -4 56.1394 47.1685   9
  10  11  -4 7.30588 64.1131  12
 -11 -11  -4 75.7434 66.0395   9
  11  11  -4 27.3464 60.7261  12
  11  11  -4 -59.285 59.3510  15
  11 -11  -4 -80.851 56.6394   6
 -11  11  -4 14.4694 47.7384  12
  11  11  -4 74.1643 67.1049   3
 -12 -11  -4 -19.659 66.4220   9
 -11  12  -4 -15.891 48.5344  12
  11 -12  -4 -36.798 64.1241   6
  12  11  -4 24.8503 64.7534  15
  12  11  -4 29.9586 67.2770   3
 -10  12  -4 38.1883 50.7227  12
  12  10  -4 -4.5602 60.3335  15
 -12 -10  -4 -49.486 63.3433   9
  10 -12  -4 -81.205 62.7623   6
  12  10  -4 -25.655 64.0267   3
  12   9  -4 43.1466 61.3546  15
  12   9  -4 -36.285 59.4429   3
  -9  12  -4 9.33392 47.1676  12
 -12  -9  -4 30.9072 63.1798   9
   9 -12  -4 -24.378 62.0218   6
  12   8  -4 111.111 61.5869  15
  -8  12  -4 -44.219 44.3450  12
  12   8  -4 15.7086 59.9162   3
   8 -12  -4 56.4360 59.8008   6
 -12  -8  -4 77.5906 61.7900   9
 -12  -7  -4 34.8834 57.1227   9
  -7  12  -4 62.0341 47.7777  12
   7 -12  -4 23.7714 55.8906   6
  12   7  -4 -24.380 60.0304   3
  12   7  -4 -76.430 55.2457  15
 -12  -6  -4 -45.719 52.5318   9
 -12  -6  -4 -25.447 49.4857  13
  12   6  -4 11.9467 58.6555   3
   6 -12  -4 28.6385 57.3565   6
  -6  12  -4 -29.056 46.0017  12
   6 -12  -4 120.634 64.2017  10
  12   6  -4 7.87489 53.8703  15
 -12  -5  -4 113.045 52.8495  13
   5 -12  -4 49.6710 64.6617  10
  12   5  -4 16.4898 52.2856  15
   5 -12  -4 0.27287 56.2901   6
 -12  -5  -4 -25.070 52.9501   9
  12   5  -4 63.5226 57.3244   3
  -5  12  -4 -25.741 47.2786  12
  -5  12  -4 86.6550 57.3856   4
  12   5  -4 151.243 56.2213   7
  -4  12  -4 94.8435 59.0307   4
  12   4  -4 101.835 59.0387   7
 -12  -4  -4 82.7318 54.2045   9
   4 -12  -4 52.6388 59.5718   6
 -12  -4  -4 -15.785 47.3559  13
  -4  12  -4 30.7628 47.7663  12
  12   4  -4 2.10434 55.3381   3
  12   4  -4 11.7295 53.7920  15
   4 -12  -4 -25.014 58.2444  10
 -12  -3  -4 -12.282 49.5850  13
   3 -12  -4 40.4830 57.7496   6
 -12  -3  -4 32.4104 50.8221   9
  -3  12  -4 -21.641 46.5017  12
   3 -12  -4 59.3690 64.8248  10
  12   3  -4 21.3832 53.4752  15
  -3  12  -4 41.3830 53.9764   4
  12   3  -4 29.6567 54.2561   7
  12   3  -4 -9.8349 56.2867   3
   2 -12  -4 94.5969 60.3863  10
 -12  -2  -4 -55.800 41.8260   1
  12   2  -4 -66.371 55.4041   3
 -12  -2  -4 66.9739 49.6662   9
  12   2  -4 -11.034 53.4677   7
  -2  12  -4 -60.324 56.0164   4
 -12  -2  -4 -26.208 45.2410  13
  -2  12  -4 77.2129 48.8099  12
   2 -12  -4 -26.473 53.7925   6
  12   2  -4 -1.6258 52.7556  15
   2 -12  -4 -141.55 53.8437   7
 -12  -1  -4 62.5325 48.3775  13
 -12  -1  -4 33.9917 44.3734   1
  12   1  -4 59.6158 57.6819   3
   1 -12  -4 121.479 62.4359  10
  -1  12  -4 5.99741 55.5000   4
 -12  -1  -4 54.9532 48.0481   9
   1 -12  -4 -8.1467 56.2596   6
  -1  12  -4 -95.432 44.4537  12
  12   1  -4 -7.7576 52.4837  15
  12   1  -4 46.6305 56.7550   7
   1 -12  -4 -87.320 56.6435   7
  12   0  -4 -68.176 49.1667  15
   0 -12  -4 -92.789 53.5967   6
 -12   0  -4 15.9202 47.9267  13
  12   0  -4 -67.852 53.8233   7
 -12   0  -4 25.2281 44.1345   1
 -12   0  -4 15.6516 46.2836   9
  12   0  -4 -148.97 74.3736   4
   0 -12  -4 -63.851 56.7531  10
  12   0  -4 -2.4712 56.6470   3
   0  12  -4 68.9897 50.8996  12
   0  12  -4 -15.610 56.7757   4
  -1 -12  -4 -10.946 60.2628   6
  12  -1  -4 8.70250 55.2123   7
   1  12  -4 -45.722 58.5276   4
  12  -1  -4 -16.864 58.3601   3
  12  -1  -4 45.3635 57.0765  15
 -12   1  -4 11.4360 44.2289   9
   1  12  -4 23.8183 48.7780  12
 -12   1  -4 96.9623 47.4549   1
 -12   1  -4 44.7816 48.7563  13
  -1 -12  -4 26.8559 67.7174  10
  -2 -12  -4 -22.558 63.8270  10
   2  12  -4 -68.589 49.8450  12
  12  -2  -4 -24.344 61.0059   3
 -12   2  -4 64.6983 45.9762   9
  12  -2  -4 89.8806 56.7757  15
 -12   2  -4 -22.017 49.3458  13
  -2 -12  -4 0.28949 60.6400   6
   2  12  -4 -56.790 64.6614   4
  12  -2  -4 -62.868 53.6655   7
 -12   2  -4 -58.767 44.1656   1
 -12   3  -4 -0.6737 44.6082   9
  -3 -12  -4 104.325 61.9954   6
  12  -3  -4 159.030 65.2290   3
  12  -3  -4 -83.482 57.8114   7
  12  -3  -4 167.112 60.4340  15
   3  12  -4 103.328 54.6762  12
  -3 -12  -4 -13.205 70.1202  10
 -12   3  -4 81.8228 48.3764   1
   4  12  -4 123.321 56.1353  12
 -12   4  -4 97.4811 50.0347   1
  -4 -12  -4 72.5896 68.6854  10
  -4 -12  -4 52.8921 64.3296   6
 -12   4  -4 14.3237 45.5975   9
  12  -4  -4 141.871 67.1784   3
  12  -4  -4 57.0855 58.1613  15
  12  -4  -4 -7.9274 60.3037   7
  -5 -12  -4 116.359 67.0035   6
 -12   5  -4 -16.987 50.1652   1
  12  -5  -4 85.6099 62.1040  15
 -12   5  -4 27.5587 45.0981   9
   5  12  -4 61.8899 54.4009   3
  12  -5  -4 -49.355 64.7928   3
   5  12  -4 139.744 62.1663  12
 -12   6  -4 51.7563 45.9596   9
  12  -6  -4 19.1108 59.5473  15
  -6 -12  -4 111.711 66.1743   6
  -6 -12  -4 -104.50 52.1751   9
 -12   6  -4 -30.020 51.1780   1
   6  12  -4 -0.7886 56.8660  12
   6  12  -4 -22.263 55.3180   3
  12  -6  -4 58.0656 68.1935   3
 -12   6  -4 -84.628 47.3604  12
  12  -7  -4 125.596 63.5461  15
   7  12  -4 120.466 59.2609   3
  -7 -12  -4 43.0130 59.7574   9
   7  12  -4 20.3661 53.4272  15
   7  12  -4 27.0988 57.7503  12
 -12   7  -4 12.5922 48.7807  12
 -12   7  -4 -70.327 52.9733   1
  12  -7  -4 -28.248 58.7640   6
  12  -7  -4 73.6330 70.3135   3
 -12   7  -4 23.3793 46.6126   9
  -7 -12  -4 16.2148 61.4687   6
  12  -8  -4 56.6502 72.2468   3
 -12   8  -4 -16.724 48.9771  12
   8  12  -4 32.6612 59.0272  12
   8  12  -4 49.5348 60.3115   3
  12  -8  -4 24.0280 61.1173  15
  12  -8  -4 75.8554 58.7180   6
  -8 -12  -4 46.1833 66.2685   6
  -8 -12  -4 87.1943 61.9950   9
 -12   8  -4 20.6965 45.7762   9
   8  12  -4 -50.673 54.2359  15
  -9 -12  -4 138.307 70.0101   6
 -12   9  -4 59.5304 50.5085  12
   9  12  -4 238.240 68.6211  12
  12  -9  -4 -64.985 70.1005   3
  -9 -12  -4 -8.2609 62.5032   9
  12  -9  -4 45.9985 61.8511   6
 -12   9  -4 42.5067 47.4441   9
   9  12  -4 25.5745 59.1105  15
  12  -9  -4 142.776 66.2515  15
   9  12  -4 -38.344 61.2277   3
  10  12  -4 63.3554 62.9302  12
 -10 -12  -4 47.7691 65.5380   9
 -12  10  -4 -31.685 53.4429  12
  12 -10  -4 -38.041 64.9165  15
  12 -10  -4 -95.746 63.7271   6
 -12  10  -4 -78.270 44.3933   9
  10  12  -4 42.8190 60.1246  15
 -10 -12  -4 -91.444 66.5633   6
  10  12  -4 51.4562 64.0028   3
  11  12  -4 251.989 72.2833  12
 -12  11  -4 -51.827 49.9063  12
 -12  11  -4 74.0864 49.7127   9
  11  12  -4 29.2089 67.8942   3
  11  12  -4 68.5736 66.0287  15
  12 -11  -4 -29.125 59.3275   6
  12 -11  -4 69.2928 68.9271  15
 -11 -12  -4 -143.27 65.1852   9
 -11 -12   4 -105.32 79.4441   6
  12 -12  -4 59.7083 67.7433   6
  12  12  -4 -19.077 68.7575   3
  12  12  -4 -55.920 65.5495  15
 -12  12  -4 -67.680 49.0872  12
 -12 -12  -4 -15.016 69.6910   9
  12  12  -4 2.91732 91.3475  12
 -11  13  -4 32.3238 51.6718  12
 -13 -11  -4 -24.054 68.0172   9
  11 -13  -4 -43.676 66.2079   6
  13  11  -4 -101.48 62.2632  15
  13  11  -4 44.8284 71.9679   3
  10 -13  -4 40.8376 67.5517   6
 -10  13  -4 -7.5214 48.5617  12
  13  10  -4 -62.794 64.9813   3
  13  10  -4 44.0761 63.3117  15
 -13 -10  -4 -7.0599 67.0541   9
  -9  13  -4 85.3487 52.7446  12
  13   9  -4 14.4392 61.8047  15
   9 -13  -4 -0.2815 64.9864   6
  13   9  -4 58.1305 64.1372   3
 -13  -9  -4 -1.2919 64.3919   9
 -13  -8  -4 83.4376 63.8010   9
  -8  13  -4 65.2698 49.8324  12
  13   8  -4 40.0447 61.6431  15
   8 -13  -4 47.9345 64.0952   6
  13   8  -4 2.61099 62.0154   3
  -7  13  -4 -51.612 43.8065  12
   7 -13  -4 -11.906 61.9923   6
  13   7  -4 -47.729 62.1874   3
  13   7  -4 -3.7662 59.4785  15
 -13  -7  -4 85.3842 60.2965   9
  -6  13  -4 18.2390 46.8392  12
  13   6  -4 58.9305 60.1844   3
  13   6  -4 85.5689 57.9564  15
   6 -13  -4 13.9812 60.2956   6
 -13  -6  -4 -28.193 54.7637   9
   5 -13  -4 40.3203 59.5723   6
  -5  13  -4 76.8375 52.0732  12
  13   5  -4 -9.1780 56.9161  15
  13   5  -4 -69.231 55.7494   3
 -13  -5  -4 20.6989 51.9779  13
 -13  -5  -4 28.5568 55.8151   9
   5 -13  -4 49.6791 66.7605  10
   4 -13  -4 113.331 57.6863   6
 -13  -4  -4 -35.670 51.0897  13
 -13  -4  -4 85.7201 55.0012   9
  13   4  -4 21.9228 54.9899  15
  -4  13  -4 138.169 51.7484  12
  13   4  -4 135.972 61.6683   3
  13   4  -4 46.5036 57.7063   7
  -4  13  -4 18.1722 59.5772   4
   4 -13  -4 215.657 71.3629  10
  13   3  -4 24.3901 58.0731   7
   3 -13  -4 -29.679 60.6480  10
  -3  13  -4 42.6257 46.5631  12
  -3  13  -4 43.2157 61.5293   4
 -13  -3  -4 30.0962 51.1942   9
  13   3  -4 -51.287 56.4055   3
  13   3  -4 -81.494 53.1837  15
 -13  -3  -4 -52.406 47.6556  13
   3 -13  -4 -25.971 53.5939   6
  -2  13  -4 17.8421 59.4264   4
  13   2  -4 75.2428 55.0753   7
 -13  -2  -4 71.3530 50.9981   9
   2 -13  -4 78.9078 69.5272  10
  13   2  -4 47.4992 56.7547  15
  -2  13  -4 131.634 53.0107  12
   2 -13  -4 111.441 63.1535   6
 -13  -2  -4 -4.5089 51.1470  13
  13   2  -4 63.7989 58.9295   3
  13   1  -4 24.1939 57.6265   7
  13   1  -4 13.8050 59.9409   3
  -1  13  -4 -95.364 61.7560   4
 -13  -1  -4 -22.915 47.6578   9
   1 -13  -4 62.5677 63.9137  10
  -1  13  -4 34.7430 49.0911  12
 -13  -1  -4 -6.5639 47.4961  13
   1 -13  -4 55.8187 57.5819   6
  13   1  -4 -61.825 51.5516  15
 -13   0  -4 -109.53 47.3864  13
   0  13  -4 -60.548 60.5163   4
 -13   0  -4 -45.073 43.5495   9
   0  13  -4 0.31041 51.9084  12
   0 -13  -4 -44.219 61.5075  10
   0 -13  -4 -67.566 59.9964   6
  13   0  -4 -3.7824 58.8577   3
  13   0  -4 -31.568 56.5516   7
  13   0  -4 66.9719 55.5442  15
  13  -1  -4 91.9462 58.7278  15
   1  13  -4 -16.611 50.5134  12
  -1 -13  -4 67.1881 60.8177   6
 -13   1  -4 1.43212 46.3659   9
  13  -1  -4 -69.674 57.6658   7
 -13   1  -4 -6.1100 50.4152  13
  13  -1  -4 -64.335 59.5806   3
  -1 -13  -4 -48.350 65.0637  10
  -2 -13  -4 47.5662 62.1429   6
 -13   2  -4 64.1503 48.0713   9
   2  13  -4 63.7317 53.7867  12
  13  -2  -4 108.548 64.6179   3
  13  -2  -4 48.1735 60.4363   7
  -2 -13  -4 -58.394 63.9933  10
  13  -2  -4 80.0829 58.8886  15
 -13   3  -4 86.0124 51.7890   1
  13  -3  -4 -21.482 62.7819   3
  -3 -13  -4 48.6641 63.7186   6
 -13   3  -4 43.3646 46.3779   9
  13  -3  -4 45.2306 59.9820  15
   3  13  -4 -20.385 52.7022  12
 -13   4  -4 11.0419 52.5953   1
  13  -4  -4 71.6936 66.5727   3
  13  -4  -4 130.871 60.4884  15
   4  13  -4 44.4922 58.5662  12
 -13   4  -4 60.6057 47.7758   9
  -4 -13  -4 148.009 69.8333   6
  13  -5  -4 124.170 73.6985   3
 -13   5  -4 32.2152 46.9858   9
 -13   5  -4 15.4946 51.2437   1
  -5 -13  -4 2.05391 63.1110   6
  13  -5  -4 67.6014 62.9782  15
   5  13  -4 41.4958 59.3795  12
 -13   6  -4 -55.473 44.0429   9
   6  13  -4 -12.172 61.3120  12
  13  -6  -4 74.9496 65.9159  15
  -6 -13  -4 50.1648 67.7342   6
  13  -6  -4 148.746 74.0281   3
 -13   6  -4 -45.911 51.0584   1
   7  13  -4 62.0358 65.4313  12
  -7 -13  -4 -16.557 61.5125   9
   7  13  -4 39.9941 59.0701   3
  -7 -13  -4 -106.16 65.5443   6
  13  -7  -4 -96.332 62.6801  15
 -13   7  -4 18.0308 46.4985   9
 -13   7  -4 131.437 50.6278  12
  13  -7  -4 -28.237 72.6407   3
   8  13  -4 2.62374 64.4714  12
  13  -8  -4 -34.757 66.2271  15
 -13   8  -4 52.1150 49.0672   9
  -8 -13  -4 41.6252 63.9039   9
  -8 -13  -4 24.8868 69.3041   6
  13  -8  -4 67.8616 74.2399   3
 -13   8  -4 -49.068 48.8953  12
   8  13  -4 -29.068 60.5887   3
  -9 -13  -4 -147.34 62.0227   9
  13  -9  -4 36.7897 63.1638  15
   9  13  -4 14.9549 63.5458   3
  13  -9  -4 64.3239 76.8911   3
 -13   9  -4 41.4872 53.2912  12
 -13   9  -4 32.2016 48.4827   9
   9  13  -4 36.1107 58.5391  15
  13  -9  -4 -84.246 58.5902   6
   9  13  -4 -24.825 63.1897  12
  -9 -13  -4 94.2730 70.8105   6
  13 -10  -4 -38.365 76.9021   3
 -13  10  -4 19.3938 53.5295  12
  10  13  -4 57.0768 69.2467  12
  13 -10  -4 -80.340 65.9017   6
  10  13  -4 -26.977 66.3488   3
 -10 -13  -4 76.6516 73.7020   6
 -13  10  -4 94.9671 49.5150   9
  10  13  -4 -43.535 59.2621  15
 -10 -13  -4 18.1112 69.1178   9
  13 -10  -4 168.366 70.7457  15
 -11 -13  -4 -22.433 68.3268   9
  13 -11  -4 129.970 72.2894  15
 -11 -13  -4 90.5113 80.6172   6
  11  13  -4 55.8822 65.4324  15
  11  13  -4 -42.888 67.9931   3
 -13  11  -4 49.2652 48.7733   9
  11  13  -4 57.3607 72.5867  12
  13 -11  -4 -4.9449 63.1031   6
 -13  11  -4 -33.401 54.0759  12
  13 -11   4 -4.4190 49.6192  15
 -10  14  -4 85.6276 53.1890  12
  14  10  -4 7.55375 65.9992  15
  14  10  -4 -18.702 67.5096   3
  14   9  -4 87.6205 69.1191   3
  14   9  -4 58.1405 65.1199  15
 -14  -9  -4 44.7892 69.5380   9
  -9  14  -4 37.1019 49.4792  12
   9 -14  -4 16.1809 60.4427   6
 -14  -8  -4 -2.3578 65.2949   9
  14   8  -4 18.9825 65.0701   3
  14   8  -4 66.3380 62.1496  15
   8 -14  -4 53.1768 59.2626   6
  -8  14  -4 28.6953 50.9563  12
 -14  -7  -4 54.1767 64.4789   9
  -7  14  -4 -4.3668 48.2311  12
  14   7  -4 28.8107 59.9512  15
   7 -14  -4 12.4453 58.9578   6
  14   7  -4 21.2757 63.9754   3
  14   6  -4 -0.3522 58.6148  15
  14   6  -4 -126.08 56.6040   3
 -14  -6  -4 -107.18 55.9308   9
   6 -14  -4 111.761 59.2603   6
  -6  14  -4 74.7599 51.5942  12
   5 -14  -4 -1.6550 58.2257   6
  -5  14  -4 42.0197 50.9666  12
  14   5  -4 155.075 61.1128  15
 -14  -5  -4 27.4081 57.9352   9
  14   5  -4 -15.423 59.5146   3
 -14  -4  -4 -49.110 50.1382  13
 -14  -4  -4 -70.640 53.1965   9
  -4  14  -4 -3.8869 50.5378  12
   4 -14  -4 20.3889 68.5065  10
  14   4  -4 -2.9264 56.9410  15
  14   4  -4 66.6763 61.2629   3
   4 -14  -4 -13.142 60.5547   6
  -3  14  -4 31.1414 49.0712  12
  14   3  -4 31.5684 59.2849   7
   3 -14  -4 51.4910 59.2966   6
 -14  -3  -4 95.5556 53.1800   9
  -3  14  -4 -144.29 63.6032   4
   3 -14  -4 -33.796 69.0336  10
 -14  -3  -4 -34.040 52.2755  13
  14   3  -4 39.4353 59.9486   3
  14   3  -4 71.1663 57.9692  15
 -14  -2  -4 -59.019 49.6203  13
  14   2  -4 41.3335 60.6771   3
  -2  14  -4 -12.623 50.3419  12
   2 -14  -4 -21.891 67.0767  10
  14   2  -4 -57.947 58.1578   7
  -2  14  -4 -46.554 67.1842   4
   2 -14  -4 -43.122 59.3679   6
 -14  -2  -4 -30.888 48.9129   9
  14   2  -4 -44.437 54.0906  15
 -14  -1  -4 -101.67 48.5311  13
 -14  -1  -4 31.9158 51.2293   9
   1 -14  -4 -39.157 57.7275   6
  14   1  -4 -33.446 53.9960  15
  -1  14  -4 124.824 55.4618  12
   1 -14  -4 -95.747 62.1677  10
  14   1  -4 -52.661 56.9517   7
  14   1  -4 -7.1429 59.8386   3
   0 -14  -4 -33.235 61.3498   6
 -14   0  -4 16.9336 47.8580   9
  14   0  -4 -77.531 57.2647   7
  14   0  -4 66.2632 61.3820   3
  14   0  -4 63.8240 59.2272  15
   0  14  -4 -34.416 50.3292  12
   0 -14  -4 -49.960 67.2809  10
   1  14  -4 -63.694 52.6178  12
  14  -1  -4 90.3651 64.4783   3
  -1 -14  -4 101.758 67.5662   6
  14  -1  -4 11.7302 58.1150  15
 -14   1  -4 -15.696 45.8775   9
  14  -2  -4 -54.443 57.5592  15
 -14   2  -4 -5.1942 46.8450   9
  14  -2  -4 151.028 68.0399   3
  -2 -14  -4 20.5908 67.1542   6
   2  14  -4 56.0516 56.7332  12
  14  -3  -4 -33.034 64.9066   3
  14  -3  -4 133.273 61.4175  15
  -3 -14  -4 180.802 70.7093   6
 -14   3  -4 53.5778 47.4362   9
   3  14  -4 149.768 61.4329  12
  -4 -14  -4 -66.288 63.5523   6
  14  -4  -4 -61.991 61.7816  15
 -14   4  -4 2.62608 47.0303   9
  14  -4  -4 11.4068 66.4498   3
   4  14  -4 75.2363 59.9451  12
  14  -5  -4 141.520 73.9546   3
  14  -5  -4 30.1152 62.4133  15
  -5 -14  -4 106.193 71.3870   6
   5  14  -4 6.07753 63.1459  12
 -14   5  -4 91.1384 49.1116   9
  -6 -14  -4 56.4794 71.1705   6
 -14   6  -4 52.7634 48.5572   9
  14  -6  -4 -9.7217 62.7512  15
   6  14  -4 68.7844 64.4709  12
  14  -6  -4 123.113 76.4489   3
  14  -7  -4 82.0674 66.5434  15
   7  14  -4 -96.994 60.9775  12
  14  -7  -4 -3.5055 76.0704   3
 -14   7  -4 19.8737 47.1596   9
  -7 -14  -4 26.5360 70.8995   6
  14  -8  -4 66.7068 69.8304  15
   8  14  -4 181.957 70.3276  12
   8  14  -4 86.1548 66.7780   3
  -8 -14  -4 74.8671 70.5979   6
  14  -8  -4 116.603 80.2173   3
 -14   8  -4 55.3985 49.1642   9
  14  -9  -4 69.5232 80.3178   3
  -9 -14  -4 29.2670 72.4455   6
 -14   9  -4 26.6238 49.3940   9
  14  -9  -4 49.2435 66.5952  15
 -14   9  -4 -102.97 51.1344  12
   9  14  -4 -16.745 64.7612  12
  -9 -14  -4 54.5866 70.4016   9
   9  14  -4 -268.37 62.2650   3
  14  -9   4 -63.322 96.0796   3
  10  14  -4 52.6494 68.9308   3
  14 -10  -4 126.964 72.6463  15
 -14  10  -4 77.9260 51.8362   9
  14 -10  -4 -20.363 79.5971   3
  10  14  -4 90.6339 68.7106  12
  14 -10   4 22.7087 60.2451   3
 -15  -8  -4 40.4832 66.9455   9
   8 -15  -4 150.893 66.9683   6
  -8  15  -4 80.8798 51.0471  12
  15   8  -4 102.254 70.0506   3
  15   8  -4 148.250 66.4223  15
  15   7  -4 51.6064 61.7935  15
  -7  15  -4 -27.138 47.6348  12
  15   7  -4 -95.522 65.4522   3
 -15  -7  -4 107.935 67.6828   9
   7 -15  -4 -15.760 58.6864   6
  15   6  -4 17.6944 64.1049   3
  -6  15  -4 32.8947 52.9617  12
  15   6  -4 -145.67 55.7625  15
   6 -15  -4 49.7569 56.8188   6
 -15  -6  -4 -42.617 60.4832   9
  15   5  -4 75.9009 60.4220  15
  -5  15  -4 48.7752 53.9724  12
  15   5  -4 34.8946 61.5371   3
   5 -15  -4 -53.141 55.7529   6
 -15  -5  -4 -29.406 56.2415   9
  -4  15  -4 -45.235 51.2062  12
   4 -15  -4 45.4815 64.7193   6
  15   4  -4 -1.1801 61.0003   3
  15   4  -4 120.818 61.4803  15
 -15  -4  -4 23.0080 56.9484   9
 -15  -3  -4 -58.696 51.0435   9
  -3  15  -4 123.706 52.5118  12
   3 -15  -4 -7.6141 69.4214  10
   3 -15  -4 29.5734 59.7140   6
  15   3  -4 -30.750 56.4986  15
  15   3  -4 -56.177 60.8715   3
   2 -15  -4 -89.539 68.0718  10
 -15  -2  -4 30.1088 52.3650   9
   2 -15  -4 -10.049 64.9312   6
  -2  15  -4 -54.682 49.1185  12
  15   2  -4 -54.438 57.2491  15
  15   2  -4 109.102 64.6087   3
 -15  -1  -4 54.5482 52.2058   9
  -1  15  -4 11.8225 52.1508  12
  15   1  -4 42.7927 60.0889   3
  15   1  -4 -3.4757 56.5523  15
   1 -15  -4 4.07846 59.7227   6
 -15   0  -4 27.8866 49.1663   9
  15   0  -4 70.7300 64.4683   3
  15   0  -4 64.4907 58.7190  15
   0 -15  -4 99.8442 60.9114   6
   0  15  -4 4.04641 51.5088  12
   1  15  -4 47.4411 56.4408  12
  15  -1  -4 91.3157 66.4728   3
 -15   1  -4 32.4179 49.1525   9
  15  -1  -4 -193.27 53.2545  15
  -1 -15  -4 72.7686 64.5183   6
   2  15  -4 -16.853 54.1965  12
 -15   2  -4 73.4870 50.6204   9
  -2 -15  -4 -7.9957 64.1232   6
  15  -2  -4 -11.889 58.7585  15
  15  -2  -4 48.3797 65.2902   3
  15  -3  -4 48.9627 69.4185   3
  -3 -15  -4 1.36293 68.5584   6
  15  -3  -4 -20.194 60.2617  15
   3  15  -4 1.58765 55.7260  12
 -15   3  -4 -1.1658 46.9354   9
   4  15  -4 39.6771 58.9874  12
  15  -4  -4 45.1460 63.4007  15
  -4 -15  -4 117.217 71.7330   6
 -15   4  -4 48.1251 48.3606   9
  15  -4  -4 -82.734 68.9182   3
  15  -5  -4 -55.749 71.6831   3
  15  -5  -4 18.8843 63.5798  15
  -5 -15  -4 -17.126 70.9246   6
   5  15  -4 -34.406 61.8340  12
 -15   5  -4 65.0145 49.6128   9
  15  -6  -4 16.1458 63.1259  15
 -15   6  -4 -8.0288 46.5609   9
   6  15  -4 -29.266 62.4317  12
  15  -6  -4 22.6904 76.0300   3
  -6 -15  -4 81.7792 74.2463   6
  15  -7  -4 51.5630 66.6921  15
  15  -7  -4 -42.175 77.0536   3
   7  15  -4 84.0262 66.0564  12
 -15   7  -4 -36.019 46.5875   9
  -7 -15  -4 -1.5223 72.4327   6
  15  -8  -4 -28.336 69.1066  15
  15  -8  -4 49.8388 78.3458   3
 -15   8  -4 -51.751 47.0526   9
   8  15  -4 -36.315 64.3579  12
  -8 -15  -4 117.095 76.0118   6
  16   6  -4 15.6858 61.4455  15
 -16  -6  -4 77.4448 64.0534   9
  16   6  -4 -3.0340 65.0647   3
   6 -16  -4 11.1087 59.6350   6
  -6  16  -4 -35.648 53.3708  12
   5 -16  -4 -38.459 62.7484   6
  16   5  -4 -46.159 61.4359  15
  -5  16  -4 3.70217 52.8962  12
 -16  -5  -4 -5.2806 61.1812   9
  16   5  -4 48.6262 64.7594   3
  16   4  -4 32.5610 64.0596   3
   4 -16  -4 43.2723 60.1417   6
  16   4  -4 51.8132 61.6348  15
  -4  16  -4 71.7113 56.9537  12
 -16  -4  -4 -9.4556 55.6948   9
  16   3  -4 -56.589 59.6547  15
 -16  -3  -4 -2.0282 54.9501   9
  16   3  -4 -11.035 61.0494   3
  -3  16  -4 2.79718 51.1950  12
   3 -16  -4 45.8720 63.0469   6
 -16  -2  -4 -35.734 51.1215   9
   2 -16  -4 47.1773 62.4509   6
  16   2  -4 -19.919 63.3648   3
  16   2  -4 -69.452 56.2371  15
  -2  16  -4 -53.405 49.3687  12
  16   1  -4 -51.158 60.9339   3
  -1  16  -4 134.536 59.4291  12
 -16  -1  -4 47.5082 51.8436   9
   1 -16  -4 122.164 68.6962   6
  16   1  -4 11.5309 58.5851  15
  16   0  -4 11.0260 64.1293   3
  16   0  -4 -41.789 59.9658  15
   0  16  -4 127.875 58.4427  12
   0 -16  -4 71.7631 68.4984   6
 -16   0  -4 13.1517 50.3557   9
  -1 -16  -4 8.17968 69.9379   6
  16  -1  -4 2.23075 64.5571   3
 -16   1  -4 45.0991 50.0463   9
  16  -1  -4 118.160 63.3442  15
   1  16  -4 22.7509 57.0264  12
  -2 -16  -4 60.7813 66.3199   6
 -16   2  -4 -45.276 47.3298   9
  16  -2  -4 -14.208 60.3258  15
   2  16  -4 89.6480 58.9031  12
  16  -2  -4 76.0002 67.5666   3
   3  16  -4 35.7950 57.4436  12
  16  -3  -4 -34.575 68.5168   3
  16  -3  -4 -42.256 59.9426  15
 -16   3  -4 -71.442 44.8794   9
  -3 -16  -4 54.3665 66.7979   6
  16  -4  -4 9.48791 63.2556  15
  -4 -16  -4 -38.473 67.2674   6
   4  16  -4 122.502 63.7828  12
  16  -4  -4 160.483 75.5477   3
 -16   4  -4 23.5591 49.7060   9
  -5 -16  -4 48.8387 73.7311   6
   5  16  -4 47.8623 66.3031  12
  16  -5  -4 -103.87 72.1156   3
  16  -5  -4 18.6364 65.0140  15
 -16   5  -4 19.0459 49.7763   9
 -16   6  -4 -17.910 47.8332   9
   6  16  -4 73.4182 66.2013  12
  16  -6  -4 22.5309 66.3846  15
  16  -6  -4 190.217 81.2263   3
  -6 -16  -4 18.7311 74.4833   6
   2 -17  -4 162.389 71.0136   6
  17   2  -4 61.2204 64.2179   3
 -17  -2  -4 51.9317 56.3020   9
  -2  17  -4 30.3741 54.6791  12
  17   2  -4 -52.746 60.6369  15
  17   1  -4 -36.012 59.4446  15
 -17  -1  -4 68.6064 53.8760   9
  17   1  -4 -31.117 62.4169   3
  -1  17  -4 40.1454 56.4325  12
   1 -17  -4 46.7739 69.6554   6
   0 -17  -4 -49.057 68.2291   6
 -17   0  -4 52.6275 53.3437   9
   0  17  -4 71.0071 58.5529  12
  17   0  -4 11.8163 68.4907   3
  17   0  -4 -62.239 60.3160  15
  17  -1  -4 -87.654 59.2526  15
  -1 -17  -4 51.9898 72.0231   6
   1  17  -4 -7.9555 57.3558  12
 -17   1  -4 15.6220 50.9622   9
  17  -1  -4 93.0420 68.9062   3
  17  -2  -4 65.8410 64.2399  15
 -17   2  -4 45.2277 51.0955   9
   2  17  -4 1.58471 56.1255  12
  17  -2  -4 48.1989 68.3005   3
  -2 -17  -4 8.07271 66.4351   6
   0   0  -5 85.8068 55.3366  10
   0   0  -5 -11.838 53.9362   4
   0   0  -5 9.54714 53.8452   7
   0   0  -5 65.5571 48.0947  13
   0   0  -5 43.0216 53.6671   1
  -1   0  -5 4.56060 52.1048   1
   0   1  -5 95.3991 46.9897  13
   0   1  -5 -24.311 55.4133   4
   1   0  -5 90.5234 49.3657  13
  -1   0  -5 78.1633 55.2356   4
   1   0  -5 -44.515 51.8754   1
   0  -1  -5 36.9391 53.9350   7
   0  -1  -5 67.9974 55.8610   1
   0  -1  -5 32.2331 55.2887  10
   0   1  -5 -48.843 52.7735   1
   1   0  -5 -95.769 53.6638   4
  -1   0  -5 49.3975 47.4483  13
   1   0  -5 -25.990 52.8645   7
   0  -1  -5 11.8607 53.3211   4
  -1   0  -5 42.4963 50.3677  10
   0  -1  -5 67.7236 49.8960  13
  -1  -1  -5 8.51951 47.2039  13
  -1   1  -5 127.400 56.4119   1
   1  -1  -5 108.583 56.0618  10
   1   1  -5 15.0662 57.2794   4
   1   1  -5 -11.811 53.1947   7
   1  -1  -5 46.4788 56.8565   4
   1   1  -5 33.5906 45.9974  13
   1   1  -5 37.0636 55.8043   1
  -1   1  -5 39.7288 52.4788  10
   1  -1  -5 18.7562 54.4202   1
   1  -1  -5 95.7594 55.7268   7
  -1  -1  -5 72.6923 56.1876   1
  -1   1  -5 1.14065 45.3622  13
  -1  -1  -5 43.2784 54.7305   7
   1   1  -5 -16.466 84.1415   3
  -1  -1  -5 88.8368 52.4886  10
  -1   1  -5 4.91681 53.7308   4
  -2  -1  -5 9.77394 47.6612  13
   2   1  -5 -2.5126 57.2138   3
  -1   2  -5 -20.834 55.6868   1
   2   1  -5 -14.762 52.7650   1
   1  -2  -5 -28.018 53.4614   4
   2   1  -5 -40.127 44.5277  13
  -2  -1  -5 2.39919 54.2708   1
   1  -2  -5 23.6354 55.7454   7
  -1   2  -5 -21.464 45.4299  13
  -1   2  -5 36.9830 54.2007   4
   2   1  -5 -14.768 56.3147   4
   2   1  -5 66.2224 54.8553  15
  -1   2  -5 22.4193 54.9004  12
   2   1  -5 53.1341 55.8790   7
  -2  -1  -5 44.9268 52.2427  10
   1  -2  -5 76.4507 56.3984  10
   0  -2  -5 8.83984 56.5924  10
   0   2  -5 40.1122 58.4641   1
   0   2  -5 -77.787 55.6761   3
   2   0  -5 -15.606 52.3932   1
   2   0  -5 131.178 57.6174   4
  -2   0  -5 1.56593 50.9218  10
  -2   0  -5 -188.32 77.6627  12
   2   0  -5 -12.642 55.3052   7
   0   2  -5 8.03112 52.2068   4
   0   2  -5 61.3823 46.4959  13
  -2   0  -5 71.8051 48.5500  13
  -2   0  -5 1.74785 53.6063   1
   0  -2  -5 95.6410 56.4717   7
   1   2  -5 -76.466 56.5634   1
   2  -1  -5 -55.430 52.0047   1
  -1  -2  -5 23.2126 51.7821   7
  -1  -2  -5 -63.998 50.9751  10
  -2   1  -5 -6.2929 46.6695  13
   1   2  -5 10.2299 45.4210  13
  -2   1  -5 34.5211 54.1444   4
  -1  -2  -5 48.6956 43.3302  13
  -2   1  -5 9.20572 59.4475  12
  -2   1  -5 50.7674 51.7596  10
   2  -1  -5 18.7687 58.1383   7
   2  -1  -5 30.7775 59.7729   4
   1   2  -5 -35.828 54.9851   3
  -2   1  -5 -46.758 54.0753   1
   1   2  -5 -79.994 49.8583  15
   1   2  -5 -47.447 54.0539   4
  -2   2  -5 79.9698 53.2634  10
   2  -2  -5 -6.7216 54.3322   6
  -2  -2  -5 56.5738 51.5134  13
  -2  -2  -5 166.898 56.5145   7
   2  -2  -5 73.6889 57.5223  10
  -2  -2  -5 135.197 55.0066  10
  -2   2  -5 84.7873 60.1069  12
  -2  -2  -5 25.2074 45.8584   9
   2   2  -5 47.8926 54.3092  15
   2   2  -5 45.3724 45.8785  13
   2  -2  -5 21.6248 58.3049   7
   2   2  -5 59.5621 55.8027   7
   2   2  -5 83.4189 60.8434   1
   2   2  -5 79.0740 61.1628   3
   2   2  -5 80.4566 60.5612   4
  -2   2  -5 78.1434 48.6416  13
  -2   2  -5 42.0968 54.0336   4
  -2   2  -5 -12.333 56.8630   1
   2  -2  -5 91.8981 57.7681   4
  -3  -2  -5 51.6383 55.0199  10
   2  -3  -5 79.6896 55.8272   4
  -2   3  -5 -67.551 54.8332  12
  -2   3  -5 82.3782 50.8621  13
  -2   3  -5 10.8177 54.7102   1
   3   2  -5 -9.6711 59.4025   3
   2  -3  -5 36.9259 56.9484  10
   3   2  -5 32.9352 46.7252  13
   2  -3  -5 -60.619 54.8424   6
  -3  -2  -5 7.10625 46.2423   9
   3   2  -5 43.2705 59.3852   1
   2  -3  -5 39.8140 56.6870   7
   3   2  -5 12.1645 56.5062  15
  -3  -2  -5 -8.8118 49.4400  13
  -2   3  -5 23.2916 53.6414   4
   3   2  -5 151.787 63.3658   4
   3   2  -5 -2.1429 54.8847   7
  -1   3  -5 -29.127 47.6844  13
   3   1  -5 75.4651 51.8643   7
   3   1  -5 -17.122 54.9802  15
   3   1  -5 87.6363 55.0091   1
  -3  -1  -5 47.4430 55.7620   1
  -1   3  -5 28.5515 57.7190  12
  -1   3  -5 68.3087 59.5400   1
   1  -3  -5 39.7120 55.3438  10
   1  -3  -5 -88.161 52.7829   6
   3   1  -5 44.6390 59.7173   3
   1  -3  -5 60.3040 54.2362   7
  -3  -1  -5 -10.662 47.8711  13
  -1   3  -5 13.7644 56.5792   4
  -3  -1  -5 13.7942 45.7123   9
  -3  -1  -5 43.5768 52.1366  10
   3   1  -5 41.2880 61.1045   4
   0  -3  -5 63.8389 54.7738   7
   0   3  -5 63.2697 61.2453   1
   3   0  -5 19.1859 52.7246   1
   0  -3  -5 39.2313 56.0301  10
  -3   0  -5 43.1239 48.4775  13
  -3   0  -5 26.2611 48.0271   1
   0   3  -5 108.244 54.4944  12
   3   0  -5 60.6149 58.6209   3
   0   3  -5 95.4474 57.8382   4
   3   0  -5 29.6702 58.3734   4
  -3   0  -5 50.5452 49.8231  10
   3   0  -5 67.2392 56.8626   7
  -3   0  -5 20.0146 59.0588  12
   0   3  -5 65.0527 49.3306  13
   3   0  -5 52.5700 54.1074  15
   1   3  -5 34.0051 56.7659   1
   3  -1  -5 22.7543 50.6932   1
  -3   1  -5 133.003 58.8409   1
  -1  -3  -5 68.7513 54.1712  10
   3  -1  -5 -1.0110 61.2751   4
  -3   1  -5 -20.179 48.4791  13
  -3   1  -5 -5.3274 50.7744  10
   3  -1  -5 -89.958 54.2554   7
  -3   1  -5 84.2563 58.2844  12
   1   3  -5 56.6049 52.7188  15
   1   3  -5 -57.946 55.1431   4
   1   3  -5 -69.600 57.2322   3
  -1  -3  -5 -35.739 52.2886   7
   3  -1  -5 27.2863 56.6438   6
  -1  -3  -5 75.4198 46.8547   9
   1   3  -5 -36.965 44.6440  13
   3  -2  -5 68.6107 54.9237   4
   2   3  -5 -38.984 46.4418  13
   2   3  -5 37.2970 60.0929   1
   3  -2  -5 -72.266 55.9886   6
  -3   2  -5 53.5772 50.4465  10
  -2  -3  -5 -100.60 50.8169   7
  -2  -3  -5 -2.4280 45.6701   9
  -3   2  -5 65.8494 61.5533  12
  -3   2  -5 60.1569 59.7806   1
  -2  -3  -5 -0.6430 48.4375  13
  -2  -3  -5 43.6096 57.5296  10
  -3   2  -5 54.3085 50.4486  13
   3  -2  -5 -48.719 47.6615   7
   2   3  -5 -82.905 52.2449  15
   2   3  -5 38.0594 60.0816   3
  -3   2  -5 -42.339 50.2911   4
   2   3  -5 56.7748 59.9537   4
   3   3  -5 110.991 62.1262   1
   3   3  -5 68.1884 47.8202  13
   3  -3  -5 102.390 57.9550  10
   3  -3  -5 57.3820 60.4636   7
  -3  -3  -5 31.7568 51.6082  13
  -3  -3  -5 156.695 59.5576  10
   3  -3  -5 126.623 59.6623   6
  -3   3  -5 16.5856 58.3142   1
   3   3  -5 108.538 55.7323   7
  -3   3  -5 33.5603 56.0626  12
  -3   3  -5 52.3492 53.4243   4
   3   3  -5 154.041 62.4176   3
   3   3  -5 -3.2762 60.8145   4
  -3   3  -5 167.721 55.7729  10
  -3   3  -5 79.7216 50.2143  13
  -3  -3  -5 -14.794 48.5267   9
   3   3  -5 173.765 60.2533  15
  -3  -3  -5 68.8002 55.4238   7
   3  -3  -5 64.9085 57.8740   4
   4   3  -5 -38.703 57.0227   4
  -3   4  -5 52.6799 50.2876  13
  -3   4  -5 -12.855 54.4562  12
  -4  -3  -5 35.6576 55.7972  10
   4   3  -5 -46.144 54.9201   7
   3  -4  -5 -39.142 51.4874   7
  -3   4  -5 77.4388 53.1307   4
   3  -4  -5 61.3278 59.9667   6
   4   3  -5 -22.690 43.8520  13
   4   3  -5 -28.114 56.8088  15
   3  -4  -5 -44.106 51.7574   4
   4   3  -5 -111.17 58.5837   3
   3  -4  -5 33.5714 58.0105  10
   4   3  -5 120.237 59.2785   1
  -3   4  -5 -95.655 56.9932   1
  -4  -3  -5 1.36168 49.7415   9
  -4  -3  -5 4.77751 49.6034  13
  -3   4  -5 19.4574 47.7316  10
  -2   4  -5 25.5546 57.6419  12
   2  -4  -5 111.808 56.8623  10
   4   2  -5 -8.6471 54.8131  15
  -2   4  -5 84.7539 51.8607  13
   4   2  -5 82.9809 63.4351   3
  -2   4  -5 -8.0467 53.3030   4
   2  -4  -5 143.967 58.1303   7
  -4  -2  -5 82.0398 50.5415  13
   2  -4  -5 158.029 60.9159   6
   4   2  -5 -17.119 56.9230   7
   4   2  -5 -55.264 43.7707  13
   4   2  -5 48.1065 63.3918   4
  -4  -2  -5 16.8222 55.0122  10
  -4  -2  -5 12.4505 47.8806   9
  -2   4  -5 99.4468 60.8743   1
   4   2  -5 64.9527 60.0114   1
  -4  -2  -5 9.53340 53.3328   1
  -1   4  -5 -121.23 50.6541   4
  -4  -1  -5 -77.429 47.5488  13
  -4  -1  -5 -24.070 46.1848   9
   4   1  -5 36.2382 54.2532   1
   4   1  -5 9.36921 60.7820   3
  -4  -1  -5 18.4575 52.7438  10
  -1   4  -5 20.7222 58.3712  12
  -1   4  -5 30.6655 59.8395   1
   1  -4  -5 -36.774 57.1526   6
   4   1  -5 46.5457 56.3868   7
   1  -4  -5 116.433 57.8477  10
  -4  -1  -5 37.2589 51.5233   1
   4   1  -5 -19.872 54.9627  15
   4   1  -5 17.2839 63.9684   4
  -1   4  -5 -22.890 47.8733  13
   1  -4  -5 9.79684 54.6094   7
   0  -4  -5 -0.7583 60.9131   6
  -4   0  -5 87.8626 53.3170  13
   4   0  -5 50.3279 60.3579   4
   4   0  -5 23.7082 58.6352   7
   4   0  -5 30.9015 60.6735   3
   0   4  -5 21.3960 58.8294   1
  -4   0  -5 47.4679 47.8098   9
   0  -4  -5 -35.513 53.7404   7
  -4   0  -5 -3.0285 51.1965  10
   4   0  -5 39.1353 55.7173  15
   0  -4  -5 45.5691 56.1818  10
   0   4  -5 74.7591 57.5575  12
   0   4  -5 -2.9931 56.4015   4
   4   0  -5 43.1278 52.5383   1
  -4   0  -5 14.4713 51.6432   1
   0   4  -5 36.6097 49.8428  13
   4  -1  -5 -19.594 50.8101   1
  -1  -4  -5 -12.394 55.5644   7
   4  -1  -5 8.45053 61.6485   4
   1   4  -5 -21.768 53.9991  12
  -1  -4  -5 56.8930 48.1063   9
   4  -1  -5 -76.997 56.3359   7
   1   4  -5 12.2494 50.2783  13
   1   4  -5 -106.62 56.5104   3
  -4   1  -5 17.6294 51.5620  13
  -1  -4  -5 -48.632 55.2914  10
  -4   1  -5 -10.955 46.1581  10
  -4   1  -5 50.5172 62.8285  12
   4  -1  -5 39.1383 53.7090  15
  -4   1  -5 43.2415 57.4458   1
   1   4  -5 111.375 60.3490   1
   4  -1  -5 32.1801 75.5714   3
   1   4  -5 -31.699 57.3034   4
  -2  -4  -5 -80.888 49.2237  13
  -4   2  -5 -8.4489 48.9464  13
   4  -2  -5 59.6498 57.0095   4
   4  -2  -5 -34.165 58.3400   6
   2   4  -5 -55.664 50.0347  15
  -4   2  -5 97.1212 57.2838   1
   2   4  -5 62.6960 46.1079  13
   2   4  -5 -24.265 57.8967   4
  -2  -4  -5 -2.3613 55.8765   7
   4  -2  -5 16.7548 59.0238   7
   2   4  -5 -82.698 57.6656   3
  -2  -4  -5 28.0818 48.7401   9
  -4   2  -5 168.443 61.4366  12
   2   4  -5 51.4861 57.5396   1
  -4   2  -5 37.3275 53.0792  10
  -4   2  -5 -34.041 48.2916   4
  -2  -4  -5 97.7411 59.4196  10
  -4   3  -5 -92.020 56.8729  12
  -3  -4  -5 -13.409 47.8500   9
   3   4  -5 2.10634 55.9039  15
  -4   3  -5 -31.784 54.5273   1
   4  -3  -5 39.8057 59.3481   7
  -4   3  -5 53.2719 49.5217  10
   3   4  -5 52.2789 48.9884  13
   4  -3  -5 -38.088 57.6607   4
   4  -3  -5 -47.510 58.7362   6
  -4   3  -5 14.5428 54.0330   4
   3   4  -5 44.3242 52.7527   7
   3   4  -5 -27.631 59.8227   3
   4  -3  -5 57.4571 58.5433  10
   3   4  -5 23.9532 58.3443   1
  -3  -4  -5 37.7910 52.6467   7
  -3  -4  -5 71.5422 55.8788  10
   3   4  -5 16.1500 63.0929   4
  -4   3  -5 -60.443 46.1934  13
  -3  -4  -5 24.4887 52.8310  13
   4  -4  -5 -7.5122 61.2620   7
   4   4  -5 81.0493 61.3150   1
  -4  -4  -5 -15.369 52.3483   7
   4  -4  -5 67.8091 60.1121  10
   4  -4  -5 56.9760 61.1808   6
   4   4  -5 79.2992 64.1236   3
  -4  -4  -5 -0.4402 50.6157   9
   4  -4  -5 -1.6265 53.7060   4
   4   4  -5 35.5871 46.1515  13
   4   4  -5 18.8754 56.9620  15
   4   4  -5 -27.418 53.2253   7
  -4  -4  -5 79.8716 57.2376  10
  -4   4  -5 28.5224 56.1512  12
  -4   4  -5 -34.855 46.6235  10
  -4   4  -5 29.2229 50.9876  13
  -4  -4  -5 11.4090 51.6833  13
  -4   4  -5 29.3486 51.3508   4
  -4   4  -5 -48.564 57.0931   1
   4   4  -5 57.0715 64.1235   4
  -4   5  -5 60.6414 58.1828  12
  -4   5  -5 21.4271 54.1150   4
  -5  -4  -5 1.77460 51.8889   7
   5   4  -5 -0.6505 57.6334  15
  -4   5  -5 26.2133 49.7556  10
   4  -5  -5 -27.170 62.7845   6
  -5  -4  -5 89.2431 53.0123   9
  -5  -4  -5 2.93311 55.4609  10
   5   4  -5 -128.38 58.8230   3
   5   4  -5 -19.847 55.7944   7
   4  -5  -5 5.60231 54.2257   4
   4  -5  -5 42.1031 59.0641  10
   5   4  -5 -12.994 68.0680   4
   5   4  -5 29.0328 57.6245   1
   4  -5  -5 60.1813 58.4540   7
  -4   5  -5 25.3373 51.0095  13
   5   4  -5 66.5300 46.7594  13
  -4   5  -5 144.709 62.9748   1
  -5  -4  -5 12.4945 51.1266  13
   5   3  -5 -6.9363 68.0730   4
   3  -5  -5 56.2833 58.1117   4
   3  -5  -5 -33.282 58.4634  10
  -5  -3  -5 8.16689 51.2133   9
   5   3  -5 35.6026 57.4523   7
   5   3  -5 -57.463 59.5657   1
   5   3  -5 49.2470 50.3178  13
  -3   5  -5 99.2585 63.0480   1
   3  -5  -5 -79.362 56.4956   7
  -3   5  -5 23.6974 50.6147  13
   5   3  -5 60.6188 62.7309   3
  -3   5  -5 -39.947 52.0504   4
   3  -5  -5 72.6202 63.8028   6
  -3   5  -5 -67.771 54.0229  12
   5   3  -5 51.4926 60.0164  15
  -5  -3  -5 102.315 56.0171  10
  -5  -3  -5 -13.684 49.2236  13
   5   2  -5 122.702 67.6678   4
   5   2  -5 112.174 64.8236   3
  -2   5  -5 14.9627 55.9534   4
   2  -5  -5 62.5807 61.3352   6
  -5  -2  -5 73.7379 55.8698   1
  -2   5  -5 -145.43 56.0185   1
  -5  -2  -5 -71.961 46.7651   9
   2  -5  -5 4.63563 58.3689   7
   5   2  -5 -8.9145 57.7865   7
   2  -5  -5 48.5693 53.1007  10
   5   2  -5 -28.424 57.6418   1
  -2   5  -5 -40.851 53.3850  12
  -2   5  -5 -21.807 47.9875  13
  -5  -2  -5 21.9844 51.6708  13
  -5  -2  -5 39.5490 54.3518  10
   5   2  -5 109.328 57.3169  15
   5   1  -5 151.424 68.2824   4
  -1   5  -5 126.798 64.5292   1
  -5  -1  -5 126.944 56.3420  10
   1  -5  -5 68.9847 57.1712   7
   5   1  -5 32.9706 58.9463   1
  -5  -1  -5 2.15187 48.9995   9
   1  -5  -5 65.9089 59.6481  10
  -1   5  -5 -17.649 54.6075  12
  -1   5  -5 60.2711 49.6735  13
   1  -5  -5 68.9066 58.6934   6
  -5  -1  -5 14.0441 52.2669   1
   5   1  -5 37.8415 56.6919   7
  -1   5  -5 123.032 58.9645   4
  -5  -1  -5 78.1265 53.8260  13
   5   1  -5 96.8922 58.7420  15
   5   1  -5 51.9098 62.5044   3
  -5   0  -5 44.0569 49.1667   9
  -5   0  -5 21.4431 50.6316  10
   0  -5  -5 114.415 63.0436  10
   0   5  -5 14.9349 57.6961   4
   0  -5  -5 -69.916 56.8181   6
   5   0  -5 65.2625 55.3617   1
   5   0  -5 -120.42 55.1980   4
  -5   0  -5 -15.170 50.5831  13
   0   5  -5 40.2918 53.1491  12
   5   0  -5 -59.226 57.7574   3
  -5   0  -5 109.482 57.3397   1
   5   0  -5 -80.273 54.4893  15
   0   5  -5 74.1216 52.1753  13
   0  -5  -5 -47.551 55.8939   7
   5   0  -5 -43.042 57.0548   7
   0   5  -5 99.4006 63.0106   1
   5  -1  -5 93.5478 60.1346   4
   5  -1  -5 77.1108 56.0881   1
  -5   1  -5 103.262 54.9332  10
  -1  -5  -5 -40.315 46.7131   9
  -5   1  -5 29.6490 59.5541  12
  -5   1  -5 -25.668 47.4220   9
   5  -1  -5 46.1395 59.7719   7
  -1  -5  -5 72.1686 83.9560   6
  -1  -5  -5 158.472 59.3013   7
   5  -1  -5 98.3801 62.6724   3
   1   5  -5 85.4064 63.3597   1
   1   5  -5 68.0920 58.9103   4
  -5   1  -5 164.670 52.7501  13
  -5   1  -5 22.7251 55.7420   1
   1   5  -5 94.9916 58.6693  12
   5  -1  -5 14.8989 54.9252  15
  -1  -5  -5 185.793 59.7845  10
   1   5  -5 56.5370 49.6709  13
   5  -2  -5 6.01122 61.9118   4
   5  -2  -5 43.5596 60.1680   6
  -5   2  -5 -47.449 46.6797   1
   2   5  -5 26.1559 61.7118   1
   2   5  -5 -68.594 54.0163  12
  -2  -5  -5 15.7582 48.6500   9
   5  -2  -5 -20.527 61.6881   7
  -2  -5  -5 -23.350 59.6001  10
  -5   2  -5 34.2585 47.1180  10
   2   5  -5 -82.006 57.6971   4
   2   5  -5 10.1357 53.1248  15
  -5   2  -5 16.4179 50.0805  13
   2   5  -5 -29.558 50.4673  13
   2   5  -5 24.5763 59.8762   3
  -5   2  -5 52.8174 63.3788  12
  -2  -5  -5 -59.330 52.3393   7
   5  -2  -5 84.6888 55.9447  15
  -5   3  -5 -22.171 45.1030  10
   5  -3  -5 -27.547 62.3575   6
   3   5  -5 32.1019 60.6530   3
   5  -3  -5 137.823 58.1568   4
  -5   3  -5 -85.790 54.0848   1
   5  -3  -5 -38.170 60.9883   7
   3   5  -5 107.814 48.1994  13
  -3  -5  -5 -41.272 50.7519  13
  -5   3  -5 130.049 54.6627  13
  -3  -5  -5 87.9175 58.1750  10
  -3  -5  -5 12.6227 50.6829   9
   3   5  -5 -63.529 58.2365   1
  -3  -5  -5 53.3764 56.7778   7
   3   5  -5 -36.096 61.0254   4
  -5   3  -5 -51.900 62.1087  12
  -5   3  -5 22.8946 49.6947   4
   3   5  -5 6.20472 56.0452  15
  -4  -5  -5 52.6978 56.6706  10
  -5   4  -5 -22.506 58.8526  12
  -5   4  -5 41.1537 48.9462  13
   4   5  -5 130.623 60.2056  15
  -5   4  -5 80.5159 60.9144   1
  -5   4  -5 -3.8123 52.3890   4
   5  -4  -5 99.3060 62.5188   4
   5  -4  -5 69.2662 59.6249  10
   5  -4  -5 32.4456 61.3419   7
  -5   4  -5 149.224 52.4365  10
   4   5  -5 -12.910 59.0861   3
  -4  -5  -5 79.0124 55.9286   7
  -4  -5  -5 78.4933 54.6258  13
   5  -4  -5 118.497 66.2367   6
   4   5  -5 76.4875 59.6327   1
   4   5  -5 18.7561 45.0735  13
   4   5  -5 -19.257 64.1232   4
  -4  -5  -5 38.9903 51.9865   9
   4   5  -5 195.819 59.1013   7
   5   5  -5 -36.223 54.9231   7
  -5   5  -5 -16.483 51.0384  13
   5  -5  -5 0.12015 56.4899   4
   5   5  -5 49.7572 45.1223  13
  -5   5  -5 29.8574 56.3885  12
   5   5  -5 -41.940 60.5405   4
   5   5  -5 77.1437 59.2275   1
  -5  -5  -5 -84.066 50.0358   9
  -5  -5  -5 71.1816 60.9157  10
  -5   5  -5 -63.712 47.2229  10
  -5   5  -5 113.120 61.4768   1
  -5  -5  -5 9.70780 49.9054  13
   5  -5  -5 1.40125 56.8105  10
  -5   5  -5 69.1611 52.9671   4
   5   5  -5 25.8897 63.7275   3
   5   5  -5 -103.76 58.0497  15
  -5  -5  -5 143.121 58.7101   7
   5  -5  -5 101.943 61.3608   6
   5  -5  -5 37.3674 60.9877   7
  -5   6  -5 -114.54 54.0757  12
  -6  -5  -5 8.48036 52.5784   7
  -5   6  -5 6.03565 58.9623   1
   5  -6  -5 113.253 66.0293   7
  -6  -5  -5 48.5073 64.6976  10
   5  -6  -5 -0.7965 61.5960   6
  -5   6  -5 57.7023 53.4218   4
   5  -6  -5 154.412 66.5389  10
   5  -6  -5 80.9639 53.8722   4
   6   5  -5 -77.452 71.7256  13
   6   5  -5 -33.847 67.9439   4
  -5   6  -5 -11.720 50.7802  13
   6   5  -5 -145.24 56.9060  15
   6   5  -5 18.4947 58.4337   1
   6   5  -5 84.2103 65.6284   3
   6   5  -5 18.3363 55.6555   7
  -6  -5  -5 43.3219 52.7478  13
  -6  -5  -5 93.0759 55.6077   9
   4  -6  -5 33.5594 60.9417   7
  -6  -4  -5 19.3338 52.6557   9
  -4   6  -5 65.9442 61.9971   1
   6   4  -5 40.1872 66.3010   4
  -4   6  -5 10.3408 51.0243  13
   6   4  -5 127.076 66.4064   3
   6   4  -5 0.48613 56.1373   7
   6   4  -5 0.79861 59.3875   1
   4  -6  -5 3.83438 62.2406  10
   4  -6  -5 66.6585 54.8907   4
  -4   6  -5 -24.490 54.0765   4
   4  -6  -5 -44.660 59.5971   6
  -4   6  -5 34.8079 56.1466  12
   6   4  -5 31.6176 59.9662  15
   6   4  -5 34.6808 48.7207  13
  -6  -4  -5 -3.1492 55.3366  13
  -6  -4  -5 22.6151 58.3876  10
  -6  -3  -5 16.3776 51.9454  13
   6   3  -5 52.5089 62.5208   1
   6   3  -5 21.3822 57.3362   7
  -3   6  -5 86.0496 63.4316   1
   3  -6  -5 106.261 60.8893   7
   3  -6  -5 24.6780 64.1170   6
   6   3  -5 -18.314 59.1045  15
  -3   6  -5 105.124 51.8874  13
  -6  -3  -5 137.754 58.4386  10
   6   3  -5 33.0928 65.0617   3
   6   3  -5 90.9214 67.2571   4
   3  -6  -5 103.894 58.4440  10
  -3   6  -5 71.4731 56.9442  12
  -6  -3  -5 84.8173 52.4639   1
  -6  -3  -5 19.0978 52.4365   9
  -3   6  -5 38.4423 56.2640   4
   6   2  -5 46.9447 57.8309   7
   2  -6  -5 62.0262 58.5170   7
  -6  -2  -5 69.7061 53.9143  13
  -2   6  -5 -57.898 47.7834  13
   2  -6  -5 96.6214 63.3685   6
   6   2  -5 0.78074 56.5830   1
  -6  -2  -5 42.8958 53.2252   1
  -6  -2  -5 24.5759 53.0316  10
   6   2  -5 2.65236 59.1576  15
   6   2  -5 11.9632 67.4671   4
  -2   6  -5 69.0450 56.4512  12
   2  -6  -5 14.9933 62.7386  10
  -2   6  -5 9.60524 62.6200   1
  -6  -2  -5 -24.225 49.6344   9
  -2   6  -5 9.35110 55.8167   4
   6   2  -5 -77.994 62.2965   3
  -1   6  -5 -15.810 52.8952   4
  -6  -1  -5 9.10519 54.1445  10
   6   1  -5 32.3352 54.4307   1
   6   1  -5 11.9991 58.6442   4
   1  -6  -5 50.1067 60.6508  10
   6   1  -5 -50.972 61.6735   3
  -1   6  -5 -32.787 61.3927   1
   1  -6  -5 38.6575 58.8071   7
  -1   6  -5 24.4041 49.7339  13
  -6  -1  -5 -39.010 51.7758  13
  -6  -1  -5 63.0510 54.6432   1
  -6  -1  -5 -25.757 48.8951   9
   6   1  -5 16.7035 55.4369  15
   1  -6  -5 29.7634 60.4210   6
  -1   6  -5 -27.252 54.0465  12
   6   1  -5 -33.429 48.8796   7
   0  -6  -5 -17.183 56.8260  10
   0   6  -5 18.3406 48.1826  13
   6   0  -5 -39.790 55.9089  15
   6   0  -5 -24.822 62.1809   3
   0  -6  -5 -16.048 58.3504   6
  -6   0  -5 -56.131 49.8703  10
   6   0  -5 46.8842 60.5825   7
  -6   0  -5 -63.382 46.0399   9
  -6   0  -5 -4.5789 51.2546   1
   0  -6  -5 -27.943 58.3342   7
   0   6  -5 40.2620 60.9810   1
  -6   0  -5 -29.630 49.8285  13
   6   0  -5 -59.881 50.8243   1
   6   0  -5 19.2997 59.5629   4
   0   6  -5 -91.223 52.9006  12
   0   6  -5 21.6551 57.7884   4
  -1  -6  -5 -83.737 56.6333   6
   1   6  -5 3.20429 51.8790   1
  -6   1  -5 117.371 56.0567  10
  -1  -6  -5 85.7471 55.9483   7
  -6   1  -5 49.5403 51.7719  13
  -6   1  -5 52.3159 49.2940   9
   6  -1  -5 -29.482 62.1239   3
   1   6  -5 14.7978 48.1671  13
   6  -1  -5 -52.857 55.5935  15
   6  -1  -5 35.0487 51.3249   1
   1   6  -5 65.1005 58.4241   4
  -6   1  -5 -25.839 55.5767   1
   6  -1  -5 61.6561 63.3390   4
   6  -1  -5 -57.845 56.7534   7
   1   6  -5 51.8535 57.5291  12
  -1  -6  -5 56.6285 58.7028  10
   2   6  -5 40.1923 61.2934   3
  -6   2  -5 48.7928 62.5391   9
   6  -2  -5 34.5537 55.2742  15
  -6   2  -5 102.385 51.7051  10
  -6   2  -5 -2.3087 53.4692   1
   6  -2  -5 30.0402 58.4692   7
  -6   2  -5 13.0796 62.3621  12
  -6   2  -5 -28.005 51.1235  13
   2   6  -5 6.56602 58.1197   4
   2   6  -5 10.1547 57.3487   1
   6  -2  -5 -24.177 57.6013   4
  -2  -6  -5 -18.440 55.3568   7
  -2  -6  -5 144.785 61.1830  10
   2   6  -5 -69.818 57.4704  12
   6  -2  -5 -32.884 62.5231   3
  -2  -6  -5 23.9461 51.9347   9
   2   6  -5 -9.2462 50.2344  13
  -6   3  -5 117.074 61.2495   1
  -3  -6  -5 84.8708 58.1741   7
  -6   3  -5 82.1373 48.6521  10
  -6   3  -5 25.7863 64.4644  12
   6  -3  -5 41.5759 59.9904   7
   3   6  -5 46.7946 62.0880   1
  -3  -6  -5 24.2175 54.3187  13
   6  -3  -5 57.5439 61.7716   6
   3   6  -5 40.8293 55.3324  15
   3   6  -5 40.4672 51.5684  13
  -6   3  -5 40.2700 49.3257  13
  -3  -6  -5 16.4620 57.3547  10
   6  -3  -5 7.79149 59.7553   4
  -3  -6  -5 43.5282 51.5577   9
   3   6  -5 113.906 63.3132   4
   3   6  -5 107.122 61.4528   3
   6  -3  -5 -50.218 61.7535  15
   3   6  -5 164.818 62.1353  12
  -6   4  -5 39.2292 59.9500   1
  -4  -6  -5 -2.0973 51.9911   9
   6  -4  -5 -46.556 64.7848   6
   4   6  -5 76.0411 52.3559  13
  -4  -6  -5 -24.423 62.4249  10
   4   6  -5 65.5054 63.5563   4
   6  -4  -5 15.6776 59.1940   4
   4   6  -5 81.8539 58.9598  15
  -4  -6  -5 -3.9353 53.3611  13
   4   6  -5 65.8499 65.1092   1
   6  -4  -5 97.9270 63.4576   7
  -6   4  -5 -49.586 42.7500  10
  -6   4  -5 58.1792 60.9877  12
   6  -4  -5 -33.431 60.9082  10
   4   6  -5 30.2590 61.8281   3
  -6   4  -5 5.53612 51.7278  13
  -6   4  -5 -18.328 49.7945   4
  -4  -6  -5 67.6468 58.4515   7
   5   6  -5 69.0996 65.6747   1
   6  -5  -5 -36.931 56.3467   4
   6  -5  -5 67.7225 63.7766   6
  -5  -6  -5 35.1915 54.0321   9
  -5  -6  -5 -5.1666 53.9477   7
   5   6  -5 48.1324 54.5340   7
   5   6  -5 41.6180 59.9237   3
  -5  -6  -5 72.8602 64.1198  10
   6  -5  -5 89.4154 63.3373  10
   6  -5  -5 -76.479 63.6196   7
  -5  -6  -5 -0.5415 52.8832  13
  -6   5  -5 -22.971 55.6599   1
   5   6  -5 -10.141 58.7515  15
  -6   5  -5 76.2882 53.0070   4
  -6   5  -5 74.6136 51.3655  13
   5   6  -5 -3.1449 67.1206   4
  -6   5  -5 20.9301 59.1903  12
  -6   6  -5 -22.464 49.8915  13
  -6  -6  -5 -39.879 94.4795   7
  -6  -6  -5 -18.059 54.3225   9
  -6   6  -5 42.6539 56.1021   1
   6  -6  -5 -52.551 62.4612   6
   6   6  -5 -114.05 70.3970   4
   6   6  -5 27.8079 56.5627   1
   6   6  -5 -71.311 58.9994   3
  -6   6  -5 33.1107 52.9411   4
   6  -6  -5 75.5123 62.0817   4
  -6  -6  -5 -14.005 50.7786  13
   6   6  -5 4.39156 61.7404  15
  -6   6  -5 58.3766 57.4968  12
   6  -6  -5 10.8654 59.4778  10
  -6  -6  -5 39.1722 66.6222  10
   6  -6  -5 20.2594 63.7862   7
   6   6  -5 12.4312 55.1778   7
   7   6  -5 62.1634 57.6522   7
   7   6  -5 -3.3955 73.8167   1
   6  -7  -5 -88.232 64.4984   7
  -6   7  -5 -71.407 55.7852  12
  -6   7  -5 -44.596 51.3944  13
  -7  -6  -5 -6.8318 53.6876  13
  -7  -6  -5 12.5779 61.6818  10
   7   6  -5 59.7091 59.7128  15
   6  -7  -5 96.8906 62.9602  10
   7   6  -5 -51.829 67.8810   4
  -6   7  -5 36.2031 56.7768   4
   6  -7  -5 -101.05 65.6258   6
  -6   7  -5 84.3626 63.3953   1
  -7  -6  -5 163.168 60.5849   9
   7   6  -5 -17.095 61.3891   3
   5  -7  -5 100.468 59.0706   4
   7   5  -5 72.8063 57.7182   7
  -7  -5  -5 38.5600 57.6941   9
   5  -7  -5 71.2858 67.8219   7
   5  -7  -5 12.6011 68.7691   6
  -5   7  -5 31.9381 51.1597  13
  -5   7  -5 -21.365 55.7868  12
   7   5  -5 70.5912 68.6962   4
   7   5  -5 10.9364 64.7509   3
   7   5  -5 5.68754 63.2648   1
   7   5  -5 131.700 62.0000  15
  -7  -5  -5 206.928 67.6035   7
  -5   7  -5 63.2659 61.2088   1
  -5   7  -5 40.4270 55.9037   4
   5  -7  -5 -13.833 59.0080  10
  -7  -5  -5 29.8734 54.8556  13
  -7  -5  -5 50.6551 65.6680  10
  -4   7  -5 21.4957 61.6421   1
   7   4  -5 47.2471 57.4376   7
   7   4  -5 51.3496 68.8738   4
   4  -7  -5 67.2510 57.4324   4
  -4   7  -5 52.9089 55.9354   4
  -7  -4  -5 51.7899 60.9217  10
  -7  -4  -5 -13.616 54.0058  13
   4  -7  -5 49.9159 61.9173  10
   7   4  -5 47.7894 60.4600  15
   7   4  -5 38.2325 62.6724   1
  -4   7  -5 58.7460 55.5552  12
  -7  -4  -5 26.4959 55.1385   9
   7   4  -5 -1.9226 55.7300  13
  -4   7  -5 50.2560 51.1917  13
   7   4  -5 -16.901 64.2693   3
   4  -7  -5 20.3685 64.8212   7
   4  -7  -5 43.4909 67.5472   6
   7   3  -5 91.8583 66.4280   3
  -7  -3  -5 18.0726 56.0684   1
  -7  -3  -5 19.0852 53.3300   9
  -3   7  -5 127.654 65.2859   1
   3  -7  -5 -61.658 62.7863   6
   7   3  -5 -20.103 55.0739   7
   3  -7  -5 -6.9375 59.1772   7
  -3   7  -5 36.9532 49.7723  13
   3  -7  -5 76.5817 65.8077  10
  -7  -3  -5 156.217 57.6061  13
   7   3  -5 135.758 57.2237   1
  -7  -3  -5 57.4340 58.3551  10
   7   3  -5 -28.652 57.4412  15
  -3   7  -5 19.6555 55.4364   4
   7   3  -5 71.9606 70.7324   4
  -3   7  -5 18.5344 55.2777  12
   7   2  -5 117.344 60.9059   1
   7   2  -5 45.7475 65.6629   3
   2  -7  -5 -16.486 61.9257  10
  -7  -2  -5 89.2140 54.4770   1
  -7  -2  -5 -35.589 56.2123  10
  -2   7  -5 56.8448 55.7880   4
  -7  -2  -5 116.648 56.3582  13
   2  -7  -5 26.4601 64.3367   6
  -2   7  -5 71.9682 51.9155  13
   7   2  -5 32.2639 55.6534   7
  -2   7  -5 -31.565 53.7759  12
   2  -7  -5 95.2383 61.5830   7
   7   2  -5 75.4240 61.7953   4
   7   2  -5 4.81504 57.0005  15
  -2   7  -5 53.1770 63.7492   1
  -7  -2  -5 49.4339 53.0866   9
  -1   7  -5 -17.818 60.5731   1
  -7  -1  -5 15.7311 53.4095  13
   7   1  -5 -23.609 57.8348   1
   1  -7  -5 79.7290 61.0320   7
   1  -7  -5 -32.579 60.7391   6
  -7  -1  -5 35.6808 50.9526   9
  -1   7  -5 -4.5914 54.4612  12
   7   1  -5 -57.017 57.7979   7
  -7  -1  -5 31.1732 49.0698   1
  -1   7  -5 47.3158 50.0793  13
   1  -7  -5 5.41549 62.4499  10
   7   1  -5 47.0388 59.5786  15
   7   1  -5 63.5895 67.2904   3
  -7  -1  -5 34.7790 53.4857  10
  -1   7  -5 26.4019 56.7047   4
   7   1  -5 -104.94 59.4662   4
   0  -7  -5 3.40380 57.6854  10
  -7   0  -5 -8.5583 49.8636   9
   0   7  -5 -62.889 54.7351   4
   0  -7  -5 78.7734 62.1780   7
  -7   0  -5 20.2630 54.2248  10
   0  -7  -5 -16.856 59.8916   6
   7   0  -5 -9.7892 63.6049   4
   7   0  -5 -26.353 60.0756   7
  -7   0  -5 15.8683 46.5134  13
   0   7  -5 -38.914 60.9175   1
   7   0  -5 -53.955 56.6502  15
   0   7  -5 6.30474 50.0417  13
   7   0  -5 92.7478 54.6002   1
  -7   0  -5 -31.029 52.9054   1
   0   7  -5 123.280 60.8381  12
   7   0  -5 16.5570 64.8821   3
   7  -1  -5 48.2654 53.3920   1
  -1  -7  -5 61.6832 60.2602   6
   7  -1  -5 15.9471 56.0844  15
   7  -1  -5 -22.891 57.0932   7
  -7   1  -5 53.0437 54.9397   1
   7  -1  -5 21.7887 62.3744   4
   7  -1  -5 6.60989 64.6981   3
   1   7  -5 -39.222 57.2961   4
   1   7  -5 67.9902 63.0357   1
  -1  -7  -5 28.5059 58.9866   7
   1   7  -5 59.1483 48.8307  13
   1   7  -5 -71.508 59.2669  12
  -1  -7  -5 -100.86 57.0464  10
  -7   1  -5 40.4149 54.0718  10
  -7   1  -5 -26.553 49.2620   9
  -7   1  -5 78.7621 54.1904  13
  -7   2  -5 19.8201 59.5152  12
  -7   2  -5 40.3125 53.9823   1
   7  -2  -5 37.5893 64.4298   3
   7  -2  -5 7.29555 57.5123  15
  -7   2  -5 43.8514 52.4089  10
  -2  -7  -5 -1.0716 59.1263   6
   2   7  -5 70.1280 61.7414   4
   2   7  -5 -33.479 56.9681  12
   7  -2  -5 27.7222 61.0431   7
   7  -2  -5 31.2175 56.9543   4
  -2  -7  -5 -24.029 56.4523   7
  -7   2  -5 -33.243 51.3276  13
   2   7  -5 -35.573 49.9914  13
  -7   2  -5 18.1915 49.4156   9
   2   7  -5 -89.686 58.2073   1
  -2  -7  -5 -21.317 59.7219  10
  -7   3  -5 77.1829 55.0215  13
  -7   3  -5 52.8191 64.7344  12
   3   7  -5 2.63307 62.1727   4
  -3  -7  -5 18.1657 57.2273   7
   3   7  -5 -28.656 60.0854  12
  -7   3  -5 49.8253 50.6287  10
   3   7  -5 -32.364 50.0185  13
   7  -3  -5 23.6531 58.1512  15
   7  -3  -5 54.0076 57.2113   4
   3   7  -5 77.9662 64.3425   1
   3   7  -5 -24.683 60.4800   3
  -7   3  -5 106.587 56.5175   1
  -3  -7  -5 -42.517 52.7715   9
  -3  -7  -5 -41.222 61.5582  10
   7  -3  -5 -32.083 62.7682   7
   4   7  -5 -53.440 56.7184   3
   7  -4  -5 91.0009 67.8095   7
   4   7  -5 18.5015 57.9562  15
  -4  -7  -5 138.616 58.6455   7
  -4  -7  -5 -10.424 63.2495  10
   7  -4  -5 70.8925 67.2088   6
  -7   4  -5 55.5697 53.4751   4
   4   7  -5 -84.305 63.9308   4
  -4  -7  -5 69.5820 54.3742  13
  -4  -7  -5 -49.999 53.7058   9
  -7   4  -5 -21.281 58.9423  12
  -7   4  -5 92.1631 53.4255  13
   4   7  -5 126.136 63.7839   1
   4   7  -5 47.8136 70.2068  12
  -7   4  -5 24.5563 58.5663   1
   7  -4  -5 85.8525 59.3467   4
   5   7  -5 108.090 63.3699   1
   5   7  -5 112.269 72.6804   4
  -5  -7  -5 126.986 57.5752   9
  -7   5  -5 13.9499 56.0092   4
   7  -5  -5 127.124 68.1899   6
   7  -5  -5 -32.453 64.5706   7
   5   7  -5 85.4283 58.3292   7
   7  -5  -5 43.1639 88.0108   4
  -5  -7  -5 73.8533 63.5257  10
  -7   5  -5 92.0195 59.4450   1
  -7   5  -5 18.5284 59.5032  12
   5   7  -5 -96.418 56.0642  15
   5   7  -5 22.1253 63.1210   3
  -7   5  -5 -57.315 47.2791  13
   7  -5  -5 -13.181 67.8965  10
  -5  -7  -5 -28.776 51.1904  13
   6   7  -5 15.9317 58.9591  15
   7  -6  -5 -27.947 56.6714   7
   6   7  -5 37.4411 62.8453   3
   7  -6  -5 52.1548 66.2682   6
  -6  -7  -5 -13.388 54.9294   9
   6   7  -5 58.3397 57.5352   7
  -6  -7  -5 4.30158 51.9010  13
  -7   6  -5 -40.090 54.5534   1
  -7   6  -5 33.8281 57.3060  12
   6   7  -5 64.7935 66.1291   1
  -7   6  -5 55.3497 54.5090   4
  -7   6  -5 15.1973 50.3036  13
   7  -6  -5 26.5621 62.4323  10
  -6  -7  -5 -20.974 65.2270  10
   6   7  -5 94.1768 68.9702   4
  -7   7  -5 -27.928 53.3987  12
  -7  -7  -5 48.2433 65.5881  10
   7  -7  -5 -57.612 65.7195  10
  -7   7  -5 87.0020 55.6103   4
   7   7  -5 83.0499 63.0530   3
  -7   7  -5 -44.732 62.4916   1
   7   7  -5 -62.355 70.9160   4
   7   7  -5 14.4662 56.6399   7
  -7  -7  -5 24.5605 52.1672  13
   7   7  -5 -14.397 60.3565  15
   7  -7  -5 30.7853 65.4800   7
  -7   7  -5 5.62233 50.9800  13
  -7  -7  -5 33.3203 59.6225   9
   7  -7  -5 -103.08 66.5779   6
  -8  -7  -5 -29.651 57.2915  13
   8   7  -5 26.9188 65.2533   3
   8   7  -5 91.8812 57.9824   7
   7  -8  -5 -71.841 62.5988   6
   8   7  -5 -63.003 81.9604   4
  -7   8  -5 -0.0591 52.7857  12
   7  -8  -5 -41.754 65.9456  10
  -7   8  -5 -103.81 51.3810  13
   7  -8  -5 -15.655 61.7330   7
  -7   8  -5 60.8763 55.3841   4
  -8  -7  -5 26.3759 68.5719  10
   8   7  -5 -93.388 58.6433  15
  -8  -7  -5 95.4803 61.7537   9
  -7   8  -5 -33.716 64.2550   1
   8   6  -5 -36.106 54.5707   7
   6  -8  -5 -76.964 62.8114   6
  -6   8  -5 -35.678 53.2469   4
  -6   8  -5 -53.249 49.1405  13
  -6   8  -5 -9.6394 56.2796  12
   8   6  -5 -5.3794 70.8002   4
  -6   8  -5 -1.6597 65.8944   1
   8   6  -5 -16.402 63.9468   3
  -8  -6  -5 -114.19 56.5400   9
  -8  -6  -5 -105.38 54.2500  13
   6  -8  -5 11.7420 66.7695  10
  -8  -6  -5 28.2350 65.0751  10
   8   6  -5 3.28310 61.5179  15
   6  -8  -5 -3.5298 63.0065   7
   5  -8  -5 -72.235 61.9427   6
   8   5  -5 -52.781 55.7885   7
   8   5  -5 59.9351 61.8127  15
  -5   8  -5 -4.8208 63.1484   1
   5  -8  -5 90.6846 67.2510   7
   8   5  -5 -33.131 69.6792   4
  -5   8  -5 41.3113 50.7835  13
  -5   8  -5 58.0707 54.0302  12
   5  -8  -5 6.43272 63.5575  10
  -8  -5  -5 22.7158 66.2000  10
   8   5  -5 19.5693 64.7739   3
  -5   8  -5 52.6699 56.5203   4
  -8  -5  -5 25.5096 57.8814   9
  -8  -5  -5 -33.784 53.5939  13
   4  -8  -5 -56.557 59.1754  10
   8   4  -5 -28.325 61.4872  15
   8   4  -5 -23.430 68.1126   4
   4  -8  -5 51.8217 65.1764   7
  -8  -4  -5 42.6431 53.6494  13
  -8  -4  -5 -16.293 60.4655  10
  -4   8  -5 -6.0735 54.0379  12
   8   4  -5 69.7228 67.0177   3
  -8  -4  -5 40.2897 54.7817   9
  -4   8  -5 21.9261 50.5205  13
   8   4  -5 1.69330 54.3639   7
  -4   8  -5 38.6144 54.4604   4
  -4   8  -5 65.3445 67.7909   1
  -8  -4  -5 39.3346 54.6738   1
   4  -8  -5 -101.06 61.0480   6
  -3   8  -5 72.6832 56.8416  12
   8   3  -5 20.6824 60.7823  15
  -3   8  -5 -32.227 66.3892   1
   3  -8  -5 -49.204 64.0899   7
   3  -8  -5 -41.152 62.3429  10
  -8  -3  -5 -9.2016 52.9296   1
   3  -8  -5 -2.5144 61.7575   6
  -3   8  -5 32.5673 55.5857   4
  -8  -3  -5 33.2167 62.0176  10
   8   3  -5 37.2052 72.4080   4
   8   3  -5 -4.1348 59.6658   7
  -8  -3  -5 57.9416 57.1261   9
  -8  -3  -5 23.5493 54.1353  13
   8   3  -5 33.0412 66.0589   3
  -3   8  -5 38.3167 50.5074  13
  -8  -2  -5 -71.938 52.1316  13
   8   2  -5 23.1834 59.6992   7
  -8  -2  -5 -21.573 54.5465  10
  -2   8  -5 -84.046 46.5416  13
  -8  -2  -5 20.4104 52.1317   9
   8   2  -5 -88.203 58.4896  15
  -8  -2  -5 -4.7854 51.7403   1
   2  -8  -5 -62.493 61.6930  10
  -2   8  -5 70.2263 69.0113   1
  -2   8  -5 33.3756 57.0696   4
   8   2  -5 -37.272 62.7187   3
  -2   8  -5 73.7859 58.4574  12
   2  -8  -5 -31.357 59.6982   6
   2  -8  -5 -19.578 61.7566   7
   8   2  -5 -92.375 61.6817   4
  -8  -1  -5 113.194 57.0959  10
   8   1  -5 3.70284 67.5053   3
   8   1  -5 49.7406 61.8435   7
  -8  -1  -5 26.8952 53.7786   1
   1  -8  -5 -150.72 59.6135   6
  -1   8  -5 43.1472 56.4317  12
   1  -8  -5 12.9806 62.2955   7
   8   1  -5 57.7683 62.1098   1
   1  -8  -5 -71.654 58.9707  10
   8   1  -5 72.6692 60.6936  15
  -8  -1  -5 21.9144 52.1581   9
  -8  -1  -5 46.4414 54.9425  13
  -1   8  -5 48.1046 49.9325  13
  -1   8  -5 -14.024 62.0756   1
  -1   8  -5 -67.823 56.6168   4
   8   1  -5 48.0483 60.0818   4
   8   0  -5 183.172 60.6015   1
   0   8  -5 105.608 58.9032  12
   0  -8  -5 76.0343 64.0437   6
   0   8  -5 -89.977 63.7393   1
   0  -8  -5 6.78945 58.5484  10
   8   0  -5 -44.270 54.9985  15
   0   8  -5 -79.654 56.3931   4
  -8   0  -5 31.6674 55.9673  10
   8   0  -5 48.2365 65.9078   4
   8   0  -5 -21.386 58.9160   7
  -8   0  -5 22.8477 52.5504  13
  -8   0  -5 1.54618 54.8092   1
   0  -8  -5 -19.132 57.2651   7
  -8   0  -5 -4.2570 51.6824   9
   0   8  -5 46.5469 49.0412  13
   8   0  -5 -15.351 67.2407   3
   8  -1  -5 -12.751 51.1974   1
   1   8  -5 79.9822 63.1015  12
  -1  -8  -5 -17.088 58.4623   7
  -8   1  -5 43.8952 54.1062   1
   8  -1  -5 48.8621 59.3279   7
  -8   1  -5 -22.529 51.0725  10
   1   8  -5 -7.1073 58.8211   4
   8  -1  -5 58.2063 69.5014   3
  -1  -8  -5 -19.615 62.5872  10
  -8   1  -5 6.43994 51.4532   9
  -1  -8  -5 74.0415 63.4339   6
   8  -1  -5 31.8342 64.2210   4
   8  -1  -5 -54.182 59.0531  15
  -8   1  -5 70.8760 55.3977  13
   1   8  -5 26.8115 49.9239  13
   1   8  -5 1.20304 67.4212   1
   8  -2  -5 -73.174 66.2020   3
  -8   2  -5 66.9248 52.6623  10
  -8   2  -5 -5.2634 52.7880  13
   8  -2  -5 13.1711 63.8715   7
   8  -2  -5 52.2954 58.3793  15
  -2  -8  -5 56.1959 68.6180  10
   2   8  -5 70.5994 67.5819   1
  -2  -8  -5 78.1720 61.0621   7
   2   8  -5 56.9863 62.0821  12
  -8   2  -5 -57.353 52.6038   1
  -8   2  -5 55.9218 52.2762   9
   8  -2  -5 -35.393 59.7050   4
   2   8  -5 -3.8761 49.3073  13
  -2  -8  -5 50.2695 61.2060   6
   2   8  -5 52.4216 62.6195   4
   3   8  -5 163.889 62.3061   3
  -8   3  -5 -11.369 56.0986   1
  -3  -8  -5 67.7951 62.8105  10
  -8   3  -5 101.341 51.8320   9
   3   8  -5 -2.6722 62.5619  12
   8  -3  -5 -82.972 58.2749  15
  -3  -8  -5 106.084 60.2126   7
   8  -3  -5 -14.841 65.9701   7
  -3  -8  -5 -72.947 52.5168   9
   3   8  -5 114.666 66.8747   1
  -8   3  -5 81.0681 59.7236  12
   8  -3  -5 -41.041 65.9658   3
  -3  -8  -5 153.709 64.5819   6
  -8   3  -5 -5.6559 45.9416  13
   3   8  -5 122.901 67.9071   4
   8  -3  -5 6.25138 59.9564   4
   4   8  -5 205.625 68.4779   1
  -4  -8  -5 11.3416 55.7262   9
   8  -4  -5 59.6766 66.9024   7
   4   8  -5 71.7895 58.5365  12
  -8   4  -5 36.1270 54.0479   1
  -8   4  -5 56.9104 51.7552   4
  -4  -8  -5 -65.743 62.0655  10
   4   8  -5 62.9287 66.4815   4
   4   8  -5 105.533 63.2355   3
   8  -4  -5 50.5338 61.4958  15
  -8   4  -5 103.757 61.9486  12
  -8   4  -5 46.7591 51.2165  13
  -4  -8  -5 137.879 56.5967  13
   8  -5  -5 -84.738 60.1597   6
   8  -5  -5 18.5337 65.3833   7
  -8   5  -5 69.3505 58.7599  12
   5   8  -5 12.9239 59.4323   3
  -5  -8  -5 -13.853 68.3558  10
  -8   5  -5 42.7046 56.1044   4
   5   8  -5 -103.74 60.2792   1
   8  -5  -5 26.3950 67.1937  10
  -8   5  -5 -53.796 56.1478   1
  -8   5  -5 54.7581 52.3305  13
   5   8  -5 68.7165 58.6713   7
  -5  -8  -5 -32.202 55.9357   9
  -5  -8  -5 -14.847 56.7039  13
   5   8  -5 19.1509 68.0816   4
   5   8  -5 28.0837 58.1105  15
  -6  -8  -5 -68.336 55.6439   9
  -8   6  -5 19.2910 51.6881   4
   6   8  -5 -9.4869 63.9788   1
   6   8  -5 -27.877 68.9878   4
   6   8  -5 79.4174 62.4115   3
  -6  -8  -5 66.4419 53.5134  13
   8  -6  -5 11.2412 67.0862   6
  -6  -8  -5 1.67413 66.8082  10
  -8   6  -5 -5.0350 60.2375  12
   6   8  -5 33.8143 59.6687  15
  -8   6  -5 -26.329 56.2157   1
   8  -6  -5 105.107 64.6136  10
   8  -6  -5 -90.708 62.8723   7
  -8   6  -5 -44.872 50.7701  13
   6   8  -5 -0.0304 54.7008   7
   8  -7  -5 30.5502 63.7666  10
   7   8  -5 18.4599 63.0569   3
  -8   7  -5 95.5675 55.3920   4
   7   8  -5 14.0412 55.8139   7
   8  -7  -5 -31.233 69.7270   6
   8  -7  -5 -29.498 65.0861   7
  -8   7  -5 4.04401 56.3392  12
   7   8  -5 -24.430 58.7164  15
  -8   7  -5 -85.940 59.1184   1
  -8   7  -5 -76.039 50.9372  13
   7   8  -5 -149.27 73.0687   4
  -7  -8  -5 -113.23 66.8647  10
  -7  -8  -5 102.399 60.9660   9
  -7  -8  -5 39.6480 53.2917  13
   8   8  -5 89.1400 57.9562   7
  -8   8  -5 -30.444 54.0922  12
   8  -8  -5 -213.97 60.8233   7
   8   8  -5 38.5661 61.3269  15
  -8  -8  -5 29.3197 70.9998  10
  -8   8  -5 -47.193 63.0993   1
  -8  -8  -5 68.2022 58.3067  13
   8  -8  -5 84.0142 67.6220  10
   8   8  -5 16.7647 63.8275   3
  -8   8  -5 92.6935 55.9660   4
   8  -8  -5 67.8207 68.9929   6
  -8  -8  -5 -80.309 57.4447   9
  -9  -8  -5 96.5192 59.1971  13
   9   8  -5 21.0186 63.4546  15
  -8   9  -5 31.9751 52.8025  12
  -9  -8  -5 15.9103 63.4882   9
  -8   9  -5 -69.249 61.7054   1
   8  -9  -5 53.0868 69.8837  10
  -8   9  -5 86.4864 59.7756   4
   9   8  -5 120.695 62.3767   7
   9   8  -5 -57.219 63.1709   3
   8  -9  -5 -11.666 68.8636   6
   8  -9  -5 -179.72 66.0242   7
   7  -9  -5 -85.187 66.5231   7
  -9  -7  -5 -48.180 69.0908  10
  -7   9  -5 -48.965 61.1864   1
   9   7  -5 -47.152 62.7372   3
  -9  -7  -5 33.8780 53.6851  13
  -7   9  -5 1.89095 54.2961   4
   9   7  -5 -45.965 59.4181  15
   7  -9  -5 71.5314 70.9702  10
  -9  -7  -5 -20.442 60.4275   9
   7  -9  -5 60.4968 67.6891   6
   9   7  -5 86.6398 58.3256   7
  -7   9  -5 17.4571 55.8559  12
   9   6  -5 17.2011 58.7163   7
  -6   9  -5 49.5866 64.2773   1
   9   6  -5 0.37796 65.1546   3
  -6   9  -5 -82.737 50.5078  13
  -9  -6  -5 -0.1790 53.9185  13
  -6   9  -5 9.36188 53.5115   4
  -9  -6  -5 68.2724 67.3054  10
   6  -9  -5 84.5676 67.5639   6
   9   6  -5 27.0508 61.7171  15
  -6   9  -5 -23.123 54.8494  12
   6  -9  -5 56.6333 63.2183  10
   9   6  -5 -100.06 81.9592   4
   6  -9  -5 124.080 64.8163   7
  -9  -6  -5 -25.552 59.4337   9
   9   5  -5 -6.4292 71.3078   4
   9   5  -5 105.842 61.0254   7
  -9  -5  -5 77.3571 58.6842  13
   5  -9  -5 -9.2338 64.8722   6
  -9  -5  -5 99.9851 57.0249   1
  -9  -5  -5 -114.84 61.1504  10
  -5   9  -5 -42.862 64.8596   1
  -5   9  -5 13.1357 55.3054   4
   5  -9  -5 85.0057 71.3030  10
  -9  -5  -5 -75.054 56.2961   9
   9   5  -5 83.0368 66.0905   3
   9   5  -5 71.8386 63.2940  15
  -5   9  -5 69.9997 56.6626  12
   5  -9  -5 5.12839 62.9711   7
  -5   9  -5 17.5870 53.0222  13
   9   4  -5 4.62663 58.7495   7
  -4   9  -5 11.4377 68.4834   1
  -9  -4  -5 -91.147 50.7364   1
  -4   9  -5 -73.160 52.5166  13
   4  -9  -5 -89.158 62.2788   6
   9   4  -5 -29.588 73.7470   4
   4  -9  -5 48.2834 62.7931   7
   4  -9  -5 58.9374 66.7482  10
   9   4  -5 -15.890 63.9015   3
   9   4  -5 15.7019 62.2057  15
  -9  -4  -5 -46.451 62.2676  10
  -4   9  -5 2.35317 58.7158   4
  -9  -4  -5 26.1139 55.6283  13
  -9  -4  -5 -21.232 57.0237   9
  -4   9  -5 21.7520 52.5322  12
   9   3  -5 57.7230 69.1080   3
  -3   9  -5 38.2843 68.9810   1
   3  -9  -5 0.27098 62.2370   6
   9   3  -5 -51.743 60.0683  15
   3  -9  -5 70.8485 67.9945  10
   3  -9  -5 -62.190 64.5003   7
  -3   9  -5 55.3500 50.3949  13
  -9  -3  -5 47.9770 54.0244   1
  -9  -3  -5 45.0663 58.5620  13
   9   3  -5 -52.026 64.8730   4
   9   3  -5 62.2341 60.5691   7
  -3   9  -5 51.0818 55.2149  12
  -9  -3  -5 187.083 59.7059   9
  -3   9  -5 17.9703 57.8101   4
  -9  -3  -5 -92.071 56.3878  10
  -9  -2  -5 -37.264 52.6150   9
  -2   9  -5 -55.629 47.9874  13
  -9  -2  -5 -10.075 52.3819  13
   9   2  -5 -69.506 60.6121  15
   2  -9  -5 110.090 63.3373  10
   9   2  -5 76.5013 69.0708   3
  -2   9  -5 -50.548 68.1656   1
  -2   9  -5 21.1592 55.7507  12
  -9  -2  -5 55.5992 53.2964   1
   2  -9  -5 -15.460 65.4212   7
   9   2  -5 191.282 65.5292   7
  -9  -2  -5 -26.732 57.1716  10
  -2   9  -5 87.7969 63.5390   4
   9   2  -5 66.1703 71.0696   4
   2  -9  -5 -99.633 60.5163   6
  -9  -1  -5 45.7081 54.2096  13
   1  -9  -5 6.03961 62.3673   6
  -1   9  -5 -47.573 59.9213   4
   1  -9  -5 -107.58 56.3029  10
   9   1  -5 -45.966 68.3278   3
  -9  -1  -5 33.2679 53.6957   9
  -9  -1  -5 -48.004 53.6239  10
  -1   9  -5 45.7392 58.3898  12
   9   1  -5 -25.748 56.7960  15
  -1   9  -5 89.6437 50.6704  13
   9   1  -5 38.7356 69.4512   4
  -1   9  -5 -31.518 64.6895   1
  -9  -1  -5 60.7011 54.0775   1
   9   1  -5 -81.871 56.8511   7
   1  -9  -5 -10.908 60.7404   7
  -9   0  -5 111.238 53.6804   1
   9   0  -5 77.3328 67.7242   3
   0  -9  -5 156.756 71.9306  10
  -9   0  -5 131.095 55.9028   9
   0   9  -5 101.708 64.0765  12
   0   9  -5 67.7228 64.1593   4
   9   0  -5 68.8259 67.2716   4
   9   0  -5 50.3939 61.6758   7
  -9   0  -5 0.87021 53.4235  13
   9   0  -5 44.2613 61.3360  15
   0   9  -5 -5.4129 68.0624   1
   0   9  -5 89.8265 51.8193  13
   0  -9  -5 77.8387 61.4045   7
   0  -9  -5 -19.676 65.5047   6
  -9   0  -5 28.2362 54.2825  10
  -1  -9  -5 -84.603 56.9117   7
   9  -1  -5 -51.840 62.0961  15
   1   9  -5 54.9664 52.8844  13
   1   9  -5 37.6710 63.2729  12
  -1  -9  -5 -67.678 64.3466  10
   9  -1  -5 34.5488 64.2474   4
  -9   1  -5 111.732 55.2997   9
  -9   1  -5 6.97023 51.5823  10
  -1  -9  -5 -35.879 62.7218   6
   9  -1  -5 61.5745 67.4392   3
  -9   1  -5 57.7712 53.6223   1
   1   9  -5 -0.8714 61.9793   4
   1   9  -5 2.78210 67.4109   1
  -9   1  -5 41.5368 55.9464  13
   9  -1  -5 -8.6159 62.7365   7
  -2  -9  -5 21.5949 64.4341   6
  -9   2  -5 -67.880 48.2903   9
   9  -2  -5 51.6429 68.8982   3
   2   9  -5 52.1029 66.0119   4
  -9   2  -5 49.4301 52.9540  13
  -9   2  -5 174.733 60.0029   1
  -2  -9  -5 133.807 66.6793  10
  -2  -9  -5 93.5951 63.0431   7
   2   9  -5 4.85490 63.7249   1
   9  -2  -5 -3.6880 65.1496   7
   2   9  -5 -12.478 60.3954  12
   9  -2  -5 -88.684 60.1637   4
   9  -2  -5 -49.941 58.5940  15
  -9   3  -5 59.4147 50.0934   9
   3   9  -5 -11.152 67.4554   1
   9  -3  -5 50.0630 64.8600   7
  -9   3  -5 21.4105 56.1082   1
   3   9  -5 -32.991 64.2011   4
   9  -3  -5 11.4676 63.4801  15
  -9   3  -5 -2.9320 52.4120  13
   3   9  -5 23.7294 62.7230  12
  -3  -9  -5 97.1979 64.4745   6
  -3  -9  -5 11.5181 67.7313  10
   9  -3  -5 31.4287 68.2000   3
   4   9  -5 113.882 74.6732   4
   4   9  -5 -44.067 59.8290  12
   9  -4  -5 26.3414 73.9176   3
  -4  -9  -5 -121.23 64.5891  10
   4   9  -5 104.336 60.0432   3
  -9   4  -5 20.6103 55.9547  12
   4   9  -5 -34.305 66.2242   1
   9  -4  -5 90.8422 65.5025  15
  -4  -9  -5 30.9611 57.4379   9
  -9   4  -5 7.45363 55.6953   1
  -9   4  -5 -6.2534 49.0232   9
   9  -4  -5 80.9464 67.2398   7
  -9   4  -5 79.1401 54.8745  13
  -4  -9  -5 80.6367 88.7001   6
   5   9  -5 -70.643 64.0965   1
   5   9  -5 -126.19 67.6360   4
  -5  -9  -5 -22.998 67.7646  10
  -9   5  -5 25.5809 52.7796   4
  -9   5  -5 53.2387 55.7456   1
  -9   5  -5 37.7019 57.2478  12
   9  -5  -5 0.23771 65.5852   7
   9  -5  -5 -55.343 62.1117  15
  -5  -9  -5 32.0181 60.0219   9
   5   9  -5 62.4991 58.1156  12
   5   9  -5 -14.374 58.9876   3
  -9   5  -5 64.2449 54.9967  13
  -5  -9  -5 4.13680 55.4789  13
  -9   6  -5 72.9829 58.0892  12
   6   9  -5 8.19332 65.6698   1
   9  -6  -5 7.95871 65.2326   6
   6   9  -5 -46.277 75.0945   4
   9  -6  -5 -78.081 65.7640   7
  -9   6  -5 -22.639 53.9672  13
  -9   6  -5 149.370 66.3212   1
   6   9  -5 -8.1431 59.1604   3
   9  -6  -5 27.8197 68.2894  10
  -6  -9  -5 41.0124 72.1678  10
   6   9  -5 93.5389 58.1691   7
  -9   6  -5 97.4622 57.0797   4
  -6  -9  -5 0.04715 59.8276   9
   6   9  -5 1.18711 57.3148  15
  -6  -9  -5 29.1386 53.4030  13
  -9   7  -5 80.5042 59.7881  12
   7   9  -5 -10.981 57.9789   7
   9  -7  -5 39.2983 63.3799  10
  -7  -9  -5 -59.429 71.3904  10
   9  -7  -5 -24.883 67.2435   7
  -7  -9  -5 27.4129 52.1066  13
   9  -7  -5 -54.521 70.2936   6
   7   9  -5 -18.942 79.1823   4
  -7  -9  -5 -2.8649 60.7380   9
  -9   7  -5 -10.579 59.4617   1
   7   9  -5 -4.6217 58.8701  15
   7   9  -5 -99.926 61.0889   3
  -9   7  -5 108.165 59.4857   4
   9  -8  -5 16.8831 60.2822  10
   8   9  -5 -49.322 60.1868   3
   8   9  -5 3.50970 61.2479  15
   9  -8  -5 -21.714 68.3328   7
   9  -8  -5 34.1966 71.0910   6
  -8  -9  -5 -20.325 61.5029   9
  -9   8  -5 166.217 66.9082   4
  -9   8  -5 1.46342 58.3517  12
  -8  -9  -5 99.4170 55.9841  13
  -9   8  -5 36.9342 64.1171   1
   8   9  -5 26.2321 62.3348   7
  -7  10  -5 34.9173 54.7718  12
 -10  -7  -5 9.44647 63.4427   9
  -7  10  -5 12.8294 57.3758   4
  10   7  -5 93.6631 64.9364  15
   7 -10  -5 -82.861 67.8348   6
 -10  -7  -5 16.9930 52.6407  13
   7 -10  -5 34.2616 63.8134  10
  10   7  -5 -12.421 66.8024   3
  10   7  -5 56.5185 62.4368   7
 -10  -6  -5 -57.729 67.3773  10
 -10  -6  -5 -44.578 58.6161   9
  -6  10  -5 -46.582 53.6342   4
  10   6  -5 128.903 60.4737   7
   6 -10  -5 -8.6885 70.0210   6
  -6  10  -5 7.59462 51.0960  12
  -6  10  -5 -87.358 64.4571   1
  10   6  -5 -103.48 59.6051  15
   6 -10  -5 -11.892 66.6556   7
 -10  -6  -5 76.7226 55.5743  13
   6 -10  -5 118.963 66.5333  10
  10   6  -5 130.623 67.7779   3
  -5  10  -5 48.4352 59.0797   4
 -10  -5  -5 3.76089 66.7466  10
 -10  -5  -5 62.8800 55.2203   1
  -5  10  -5 45.2857 70.4921   1
   5 -10  -5 -37.941 69.3561   6
 -10  -5  -5 -65.275 52.8702  13
   5 -10  -5 54.7148 64.1802  10
  10   5  -5 35.6114 59.4833   7
  10   5  -5 -77.009 74.4321   4
  10   5  -5 -6.3919 60.7354  15
   5 -10  -5 -55.686 65.3434   7
 -10  -5  -5 15.7972 60.0721   9
  -5  10  -5 18.7690 53.4661  12
  10   5  -5 19.9196 64.6612   3
  10   4  -5 -157.99 75.6957   4
  10   4  -5 79.5214 62.7896  15
 -10  -4  -5 7.02647 51.4021   1
   4 -10  -5 22.8774 69.3844  10
   4 -10  -5 -123.53 64.0916   6
  -4  10  -5 -59.370 66.0026   1
  -4  10  -5 47.1710 62.1863   4
  10   4  -5 42.7943 61.0293   7
  10   4  -5 73.1542 68.4080   3
  -4  10  -5 -18.833 52.4966  12
 -10  -4  -5 -161.19 59.9470  10
 -10  -4  -5 45.9325 58.7362   9
 -10  -4  -5 -1.2494 57.8419  13
   4 -10  -5 -84.332 62.3244   7
  -4  10  -5 -86.858 50.4925  13
 -10  -3  -5 31.1720 53.9482  13
  -3  10  -5 6.73112 60.7821   4
 -10  -3  -5 41.1739 57.9576   9
  10   3  -5 -138.79 65.1930   3
   3 -10  -5 47.1566 68.2305   6
  -3  10  -5 -75.476 50.5054  13
  10   3  -5 -50.284 74.2335   4
  -3  10  -5 -45.273 56.7661  12
   3 -10  -5 36.2011 65.1504  10
  -3  10  -5 -43.804 68.5105   1
  10   3  -5 48.9283 62.1393  15
 -10  -3  -5 84.1828 53.3977   1
  10   3  -5 -7.2316 61.5206   7
 -10  -3  -5 -32.002 58.4347  10
   3 -10  -5 -23.659 58.5693   7
  -2  10  -5 14.6825 51.8570  13
   2 -10  -5 -117.96 66.7420   6
  10   2  -5 -22.306 57.3007  15
  -2  10  -5 -29.988 69.6797   1
  10   2  -5 38.2722 71.4771   4
  10   2  -5 11.1321 62.0452   7
 -10  -2  -5 26.2975 56.4998  13
  -2  10  -5 -1.5446 58.2033  12
 -10  -2  -5 42.7415 54.2683   1
 -10  -2  -5 -11.532 54.4009   9
   2 -10  -5 -1.1595 62.9794   7
 -10  -2  -5 -39.239 57.4094  10
  -2  10  -5 -9.2473 58.2040   4
   2 -10  -5 8.44631 67.0401  10
  10   2  -5 5.85160 67.1498   3
  10   1  -5 99.9076 71.9240   4
  10   1  -5 27.9120 63.4049   7
   1 -10  -5 -104.19 64.9135   6
 -10  -1  -5 114.226 56.8830   1
 -10  -1  -5 -75.705 52.7472  13
   1 -10  -5 178.656 74.5064  10
 -10  -1  -5 51.1463 56.7461   9
  10   1  -5 -79.934 68.8280   3
  -1  10  -5 -26.350 59.6188   4
 -10  -1  -5 29.5541 56.8986  10
  -1  10  -5 -25.423 48.0227  13
  10   1  -5 -82.524 60.7952  15
   1 -10  -5 56.5881 63.2871   7
  -1  10  -5 -62.855 66.4341   1
  -1  10  -5 5.03237 61.8082  12
 -10   0  -5 -38.431 52.4822   9
   0 -10  -5 92.5883 68.2570   7
  10   0  -5 -50.008 67.5554   3
 -10   0  -5 -3.6632 52.3178   1
   0 -10  -5 -8.1361 66.1500   6
 -10   0  -5 25.7605 63.4193  10
  10   0  -5 -149.58 63.6501   4
 -10   0  -5 86.9015 56.6140  13
   0  10  -5 65.1059 61.8487  12
   0  10  -5 11.8310 64.3456   4
   0 -10  -5 -51.879 70.2843  10
  10   0  -5 46.7781 64.4688  15
   0  10  -5 16.1231 64.5556   1
  10   0  -5 -14.660 64.1389   7
   0  10  -5 -78.394 51.1792  13
  10  -1  -5 -95.097 63.1165   4
   1  10  -5 36.6815 60.6862  12
   1  10  -5 -61.668 61.8441   4
  -1 -10  -5 15.5176 66.2065   6
  10  -1  -5 5.01759 61.7531  15
  10  -1  -5 147.774 71.2015   3
 -10   1  -5 25.0728 54.2558   1
 -10   1  -5 -31.695 54.1530  13
  10  -1  -5 83.6096 66.6420   7
   1  10  -5 62.4844 67.2056   1
  -1 -10  -5 30.9542 69.3101  10
  -1 -10  -5 -2.4840 65.7469   7
 -10   1  -5 -5.7971 51.6060   9
   2  10  -5 73.0389 67.1279   4
  10  -2  -5 36.8472 64.4510  15
  -2 -10  -5 -13.332 66.4188  10
  -2 -10  -5 97.8209 67.2209   6
   2  10  -5 -12.773 64.1860  12
 -10   2  -5 106.624 59.0738   1
 -10   2  -5 16.5581 51.7925   9
 -10   2  -5 -7.1920 53.5055  13
   2  10  -5 14.9876 67.7364   1
  10  -2  -5 -64.840 68.1135   3
  10  -2  -5 59.1049 67.7565   7
 -10   3  -5 53.4370 53.3244   9
   3  10  -5 -114.16 66.0380   4
 -10   3  -5 111.344 57.7532   1
 -10   3  -5 2.15934 53.5014  13
  -3 -10  -5 3.75843 66.3003   6
   3  10  -5 -35.301 64.1644   1
  10  -3  -5 -13.163 63.0990   7
   3  10  -5 10.5357 59.0846  12
  10  -3  -5 -78.216 68.5905   3
  -3 -10  -5 5.70973 70.6646  10
  10  -3  -5 27.5409 66.6892  15
   4  10  -5 -108.79 70.6712   1
  -4 -10  -5 37.8107 68.0096  10
  -4 -10  -5 45.2191 66.7941   6
 -10   4  -5 34.4841 50.3222   9
  10  -4  -5 -6.2064 65.4092  15
 -10   4  -5 -70.705 50.7499  13
   4  10  -5 -47.531 69.8485   4
   4  10  -5 100.527 61.7374  12
  10  -4  -5 44.5500 65.5441   7
 -10   4  -5 -54.528 54.6709   1
  10  -4  -5 -11.640 71.5394   3
  -5 -10  -5 -91.056 58.8702   9
   5  10  -5 -17.213 71.6073   4
 -10   5  -5 96.6614 57.2933   9
  10  -5  -5 -27.945 64.0416   7
 -10   5  -5 -23.297 57.1451  12
 -10   5  -5 -55.508 53.0054  13
 -10   5  -5 0.89755 57.8168   1
 -10   5  -5 76.9180 54.7830   4
  -5 -10  -5 -4.1972 71.2997  10
   5  10  -5 9.61765 68.0823   1
  -5 -10  -5 41.3781 54.1844  13
  10  -5  -5 27.5275 65.6471  15
   5  10  -5 14.5655 63.9487  12
   5  10  -5 -92.863 56.8603   3
  -6 -10  -5 -84.672 57.4045   9
   6  10  -5 -144.73 58.4628  12
  10  -6  -5 -65.164 64.7168   7
  10  -6  -5 -19.257 62.6001  10
   6  10  -5 -27.986 58.3904   3
 -10   6  -5 -42.756 56.0635  12
 -10   6  -5 67.2582 63.8559   1
   6  10  -5 70.4033 53.8274   7
 -10   6  -5 -17.502 50.0716   4
  -6 -10  -5 12.3415 73.8242  10
   6  10  -5 -112.56 71.5390   1
  -6 -10  -5 -33.738 52.2409  13
  -7 -10  -5 -128.34 73.0005  10
  10  -7  -5 -172.63 64.3810   7
  -7 -10  -5 17.2716 54.6178  13
   7  10  -5 -11.267 59.1562  15
  10  -7  -5 58.9627 67.7143  10
 -10   7  -5 31.8075 64.4761   1
 -10   7  -5 91.3627 58.6791  12
   7  10  -5 26.6471 74.9718   7
  10  -7  -5 30.6635 65.3339   6
   7  10  -5 46.3002 61.9241   3
  -7 -10  -5 -72.487 61.9659   9
  11   6  -5 86.0690 63.8398  15
  11   6  -5 -63.272 65.9704   3
 -11  -6  -5 64.1850 63.2530   9
   6 -11  -5 50.4446 64.4996  10
 -11  -6  -5 -2.5063 53.7588  13
 -11  -6  -5 41.4797 56.9186   1
  -6  11  -5 -18.892 54.3143  12
   6 -11  -5 -49.159 63.2258   6
  11   6  -5 63.1683 59.4894   7
  -6  11  -5 57.5096 62.5421   4
   5 -11  -5 90.8114 66.6680  10
   5 -11  -5 -96.884 66.7748   7
  11   5  -5 78.6157 60.5328   7
  11   5  -5 58.0669 63.5029  15
  -5  11  -5 17.3199 57.5844   4
 -11  -5  -5 83.8577 55.5946  13
  11   5  -5 -67.292 64.2312   3
   5 -11  -5 -31.203 64.2045   6
 -11  -5  -5 43.3751 53.7061   1
 -11  -5  -5 17.2682 61.1940   9
  -5  11  -5 27.3998 53.3013  12
 -11  -4  -5 -47.647 57.6992   9
 -11  -4  -5 93.3773 53.6584   1
   4 -11  -5 43.5425 65.1274   6
   4 -11  -5 -126.44 66.6781   7
  11   4  -5 -9.8996 60.9989   7
 -11  -4  -5 54.5599 55.4525  13
  11   4  -5 45.7573 68.9003   3
   4 -11  -5 61.1912 65.9711  10
  11   4  -5 -62.101 62.1976  15
  -4  11  -5 -47.837 55.6703   4
  -4  11  -5 -31.419 55.6055  12
 -11  -4  -5 -212.77 66.0489  10
  11   3  -5 -77.431 63.6267   3
 -11  -3  -5 42.0242 55.8218  13
  -3  11  -5 123.650 59.5390  12
 -11  -3  -5 8.22130 67.1334  10
  11   3  -5 -20.821 61.4139   7
  -3  11  -5 -14.409 64.3411   4
  11   3  -5 -160.91 70.2918   4
  11   3  -5 34.3204 62.8102  15
   3 -11  -5 59.5037 74.7798  10
   3 -11  -5 23.0516 64.6759   6
   3 -11  -5 -131.14 62.4587   7
 -11  -3  -5 93.6744 54.4667   1
 -11  -3  -5 82.6399 59.4263   9
  11   2  -5 70.2470 71.7656   4
 -11  -2  -5 6.00298 56.1815  13
 -11  -2  -5 35.4962 57.0722   9
   2 -11  -5 40.8671 64.3677   6
 -11  -2  -5 -70.505 60.1804  10
 -11  -2  -5 -20.420 52.5253   1
  11   2  -5 74.9025 64.7813   7
   2 -11  -5 36.9785 67.0886  10
  11   2  -5 -6.4028 60.2881  15
   2 -11  -5 -85.953 62.6266   7
  -2  11  -5 -167.34 49.5735  13
  -2  11  -5 -41.143 58.9806  12
  -2  11  -5 28.6389 61.7837   4
  11   2  -5 28.0860 69.6268   3
 -11  -1  -5 -27.182 52.0648   1
  -1  11  -5 -165.64 62.5815  13
  11   1  -5 167.634 70.8562   3
  -1  11  -5 -0.8379 66.2338   4
   1 -11  -5 1.26902 60.7742   7
  11   1  -5 -54.260 70.8050   4
   1 -11  -5 -4.7265 67.0370   6
   1 -11  -5 45.9315 71.0944  10
  -1  11  -5 54.4922 63.5193  12
 -11  -1  -5 66.5386 56.6498   9
 -11  -1  -5 106.299 58.6202  13
  11   1  -5 45.7061 65.7132   7
  11   1  -5 6.88137 62.9972  15
  11   0  -5 -55.991 66.3898   4
  11   0  -5 83.0783 68.2053   7
  11   0  -5 160.686 74.6122   3
   0 -11  -5 117.735 69.1055   6
   0 -11  -5 -25.155 66.6629   7
   0 -11  -5 -41.702 70.4123  10
   0  11  -5 12.4291 59.8731  12
 -11   0  -5 -23.040 53.6213   9
 -11   0  -5 39.0587 56.0233  13
 -11   0  -5 55.2879 55.4891   1
   0  11  -5 -40.255 62.2618   4
  11   0  -5 -3.8361 65.9800  15
 -11   1  -5 -12.921 52.1413   1
   1  11  -5 -9.8373 64.1791   4
  -1 -11  -5 -3.6188 71.5828  10
   1  11  -5 73.2917 62.2227  12
  11  -1  -5 -103.21 63.9455   7
 -11   1  -5 -7.5794 56.5975  13
  11  -1  -5 249.921 78.0447   3
  -1 -11  -5 -15.359 64.8611   6
  11  -1  -5 34.5129 63.4152  15
 -11   1  -5 118.531 56.2048   9
   2  11  -5 47.9272 63.2484  12
 -11   2  -5 -3.3125 55.3992  13
  11  -2  -5 -105.63 71.1110   3
  11  -2  -5 -17.131 66.4191  15
  -2 -11  -5 131.085 74.9607  10
 -11   2  -5 37.5941 53.1410   1
  11  -2  -5 -105.11 62.0503   7
 -11   2  -5 70.1504 53.8189   9
   2  11  -5 -36.524 65.5763   4
  -2 -11  -5 -13.190 68.0552   6
  11  -3  -5 7.11011 63.3686   7
  11  -3  -5 -1.0039 67.6364  15
   3  11  -5 -80.113 71.3191   4
  -3 -11  -5 -22.162 67.3423   6
 -11   3  -5 21.7177 52.4070   9
 -11   3  -5 25.5877 54.5562   1
  11  -3  -5 47.4098 73.7375   3
 -11   3  -5 -133.12 55.0588  13
  -3 -11  -5 57.5392 69.4343  10
   3  11  -5 -3.6303 62.2740  12
  -4 -11  -5 0.57323 73.9604  10
   4  11  -5 -74.634 72.1394   4
 -11   4  -5 -11.405 56.3083   1
  11  -4  -5 -90.770 72.9018   3
 -11   4  -5 -60.250 50.6680   9
 -11   4  -5 5.47039 56.2934  13
   4  11  -5 87.7611 62.7263  12
  -4 -11  -5 140.411 71.9465   6
  11  -4  -5 -80.599 63.4284   7
  11  -4  -5 -38.373 66.0337  15
  -5 -11  -5 -52.080 68.2815   6
  -5 -11  -5 95.5232 55.6872  13
  11  -5  -5 0.67143 69.0688   7
   5  11  -5 -56.542 61.0626  12
 -11   5  -5 4.05530 48.5664   4
  11  -5  -5 12.8407 76.3772   3
  -5 -11  -5 90.0794 81.7826  10
  11  -5  -5 165.465 71.6132  15
 -11   5  -5 -14.750 58.0998   1
 -11   5  -5 -3.2625 52.1934   9
  -6 -11  -5 129.524 60.4714  13
 -11   6  -5 -57.849 50.7920  12
   6  11  -5 -42.110 61.0898  12
  11  -6  -5 -7.2149 72.3878   7
  11  -6  -5 9.17222 69.3708  15
  -6 -11  -5 -129.84 72.0617  10
 -11   6  -5 -29.081 58.7063   1
  11  -6  -5 -19.348 67.4074  10
   6  11  -5 47.4248 62.2113   3
  12   4  -5 85.6116 70.7262   3
  12   4  -5 -90.770 61.5445  15
  -4  12  -5 54.8436 64.9043   4
   4 -12  -5 92.0299 70.8696  10
  12   4  -5 17.3349 64.2888   7
 -12  -4  -5 37.8186 58.8874   1
 -12  -4  -5 29.6164 57.1451  13
  12   3  -5 189.465 66.7750  15
 -12  -3  -5 113.478 57.5566  13
  -3  12  -5 27.3764 57.8665  12
 -12  -3  -5 68.6822 59.5416   9
  12   3  -5 98.8834 73.1657   3
   3 -12  -5 -7.4417 67.8361  10
   3 -12  -5 -193.96 64.6401   7
  -3  12  -5 -1.1419 66.4477   4
 -12  -3  -5 28.0035 54.0999   1
   3 -12  -5 42.6080 66.0199   6
  12   3  -5 -56.629 62.6660   7
   2 -12  -5 -84.867 65.4413   7
  -2  12  -5 -152.53 62.4742   4
  12   2  -5 -20.250 61.6815  15
 -12  -2  -5 1.81094 57.6220   9
 -12  -2  -5 30.5715 53.5383   1
  12   2  -5 52.6527 67.9153   7
 -12  -2  -5 -19.109 55.5699  13
  12   2  -5 67.9261 71.6571   3
  -2  12  -5 44.8139 62.0544  12
   2 -12  -5 -76.361 75.9663  10
   2 -12  -5 -6.4840 64.8806   6
   1 -12  -5 -25.871 68.8590   6
   1 -12  -5 -166.76 99.4601   7
  12   1  -5 -96.665 76.8337   4
  12   1  -5 -80.633 63.0539   7
  12   1  -5 6.55927 63.9140  15
 -12  -1  -5 -29.572 51.2020   1
 -12  -1  -5 -5.5333 55.3372   9
 -12  -1  -5 7.64650 55.3390  13
  -1  12  -5 -10.488 63.3871   4
  -1  12  -5 -50.586 56.5626  12
  12   1  -5 67.7246 72.2450   3
   1 -12  -5 82.2494 70.8245  10
 -12   0  -5 58.9306 57.7400  13
  12   0  -5 8.17287 66.3768  15
 -12   0  -5 -51.904 52.9095   9
  12   0  -5 -46.261 71.1350   3
   0 -12  -5 -27.123 69.8155   6
   0 -12  -5 -106.22 68.9016  10
  12   0  -5 6.66702 67.4996   7
   0  12  -5 -79.970 68.7892   4
   0  12  -5 83.6556 61.5211  12
 -12   0  -5 57.5848 55.4254   1
   1  12  -5 -32.579 71.4917   4
  12  -1  -5 136.432 77.6687   3
 -12   1  -5 -13.270 53.4786   1
 -12   1  -5 68.2234 53.9415   9
  12  -1  -5 0.91002 64.5784   7
  12  -1  -5 -28.787 63.0612  15
  -1 -12  -5 -9.3600 66.3812   6
  -1 -12  -5 136.607 76.7061  10
   1  12  -5 19.1175 64.7440  12
 -12   1  -5 -41.833 55.9205  13
  12  -2  -5 -129.17 66.0157  15
 -12   2  -5 -12.426 53.5151   9
  12  -2  -5 -30.553 64.8767   7
 -12   2  -5 20.8808 55.1608   1
  -2 -12  -5 -105.55 70.9359  10
   2  12  -5 48.4133 73.9248   4
   2  12  -5 -4.4160 61.3024  12
  12  -2  -5 3.25421 75.3710   3
  -2 -12  -5 1.40950 68.9443   6
 -12   2  -5 -28.688 56.4616  13
 -12   3  -5 60.2972 52.9600   9
 -12   3  -5 15.6588 55.6444   1
 -12   3  -5 31.5887 59.1241  13
   3  12  -5 -54.864 73.4094   4
   3  12  -5 -17.554 64.3767  12
  12  -3  -5 109.689 78.3745   3
  12  -3  -5 58.8695 68.6160   7
  12  -3  -5 20.5547 70.0071  15
  -3 -12  -5 -49.813 73.6353  10
  -3 -12  -5 33.7034 72.3506   6
  12  -4  -5 -0.4707 69.6197  15
  12  -4  -5 -43.171 66.5409   7
  12  -4  -5 118.597 79.2743   3
 -12   4  -5 64.4635 57.8384   1
  -4 -12  -5 -83.471 82.3808  10
   4  12  -5 145.818 70.6062  12
   0   0   0    0.00    0.00   0
;
_shelx_hkl_checksum              50506
loop_
_symmetry_equiv_pos_as_xyz
'x, y, z'
'-x, -y, z'
'y, -x, -z'
'-y, x, -z'
'-x+1/2, y+1/2, -z'
'x+1/2, -y+1/2, -z'
'-y+1/2, -x+1/2, z'
'y+1/2, x+1/2, z'
loop_
_atom_site_label
_atom_site_type_symbol
_atom_site_fract_x
_atom_site_fract_y
_atom_site_fract_z
_atom_site_U_iso_or_equiv
_atom_site_adp_type
_atom_site_occupancy
_atom_site_symmetry_multiplicity
_atom_site_calc_flag
_atom_site_refinement_flags
I1 I 0.08033(4) 0.41967(4) -0.1784(2) 0.0461(3) Uani 1 2 d S
Se1 Se 0.06605(5) 0.10138(5) 0.2652(2) 0.0311(2) Uani 1 1 d .
Se2 Se 0.02926(5) 0.22497(6) 0.0239(3) 0.0364(3) Uani 1 1 d .
N1 N 0.1627(4) 0.1381(4) 0.4070(17) 0.0288(17) Uani 1 1 d .
N2 N 0.2553(4) 0.2447(4) 0.440(2) 0.024(2) Uani 1 2 d S
C1 C 0.1825(5) 0.2125(5) 0.3311(18) 0.0234(18) Uani 1 1 d .
C2 C 0.1309(5) 0.2656(5) 0.1486(19) 0.0260(19) Uani 1 1 d .
C3 C 0.1580(5) 0.3420(5) 0.064(3) 0.031(3) Uani 1 2 d S
C4 C 0.3055(5) 0.1945(5) 0.651(3) 0.025(3) Uani 1 2 d S
H4A H 0.3365 0.2301 0.7844 0.030 Uiso 1 1 d R
C5 C 0.3624(5) 0.1376(5) 0.484(3) 0.039(3) Uani 1 2 d S
H5B H 0.3307 0.1023 0.3509 0.058 Uiso 1 1 d R
H5A H 0.3941 0.1060 0.6341 0.058 Uiso 1 2 d SR
loop_
_atom_site_aniso_label
_atom_site_aniso_U_11
_atom_site_aniso_U_22
_atom_site_aniso_U_33
_atom_site_aniso_U_23
_atom_site_aniso_U_13
_atom_site_aniso_U_12
I1 0.0316(3) 0.0316(3) 0.0750(6) 0.0141(3) -0.0141(3) 0.0043(4)
Se1 0.0237(4) 0.0223(4) 0.0474(5) 0.0004(4) 0.0018(4) -0.0033(3)
Se2 0.0240(5) 0.0275(5) 0.0576(6) 0.0031(5) -0.0072(5) -0.0021(4)
N1 0.022(4) 0.022(4) 0.042(5) -0.002(3) 0.001(3) 0.001(3)
N2 0.021(3) 0.021(3) 0.031(5) 0.002(3) -0.002(3) 0.003(4)
C1 0.022(4) 0.025(5) 0.023(4) -0.005(4) 0.007(4) 0.003(3)
C2 0.018(4) 0.018(4) 0.042(5) -0.001(4) 0.001(4) 0.009(3)
C3 0.022(4) 0.022(4) 0.049(8) 0.000(4) 0.000(4) 0.003(5)
C4 0.023(4) 0.023(4) 0.030(7) 0.010(4) -0.010(4) -0.001(5)
C5 0.031(4) 0.031(4) 0.055(9) -0.005(5) 0.005(5) 0.007(6)
loop_
_atom_type_symbol
_atom_type_description
_atom_type_scat_dispersion_real
_atom_type_scat_dispersion_imag
_atom_type_scat_source
C C 0.0033 0.0016 'International Tables Vol C Tables 4.2.6.8 and 6.1.1.4'
H H 0.0000 0.0000 'International Tables Vol C Tables 4.2.6.8 and 6.1.1.4'
N N 0.0061 0.0033 'International Tables Vol C Tables 4.2.6.8 and 6.1.1.4'
Se Se -0.0929 2.2259 'International Tables Vol C Tables 4.2.6.8 and 6.1.1.4'
I I -0.4742 1.8119 'International Tables Vol C Tables 4.2.6.8 and 6.1.1.4'
loop_
_geom_angle_atom_site_label_1
_geom_angle_atom_site_label_2
_geom_angle_atom_site_label_3
_geom_angle
_geom_angle_site_symmetry_1
_geom_angle_site_symmetry_3
N1 Se1 Se2 94.7(2) . .
C2 Se2 Se1 87.5(2) . .
C1 N1 Se1 116.9(6) . .
C1 N2 C1 123.2(10) . 7
C1 N2 C4 118.2(5) . .
C1 N2 C4 118.2(5) 7 .
N1 C1 N2 119.4(7) . .
N1 C1 C2 123.5(8) . .
N2 C1 C2 117.1(8) . .
C3 C2 C1 120.0(8) . .
C3 C2 Se2 122.6(6) . .
C1 C2 Se2 117.4(6) . .
C2 C3 C2 121.4(11) 7 .
C2 C3 I1 119.3(5) 7 .
C2 C3 I1 119.3(5) . .
N2 C4 C5 114.5(10) . .
N2 C4 H4A 108.2 . .
C5 C4 H4A 109.0 . .
C4 C5 H5B 108.3 . .
C4 C5 H5A 111.2 . .
H5B C5 H5A 110.4 . .
loop_
_geom_bond_atom_site_label_1
_geom_bond_atom_site_label_2
_geom_bond_distance
_geom_bond_site_symmetry_2
I1 C3 2.080(12) .
Se1 N1 1.805(7) .
Se1 Se2 2.3570(12) .
Se2 C2 1.878(8) .
N1 C1 1.308(10) .
N2 C1 1.391(9) .
N2 C1 1.391(9) 7
N2 C4 1.472(14) .
C1 C2 1.443(11) .
C2 C3 1.383(10) .
C3 C2 1.383(10) 7
C4 C5 1.502(16) .
C4 H4A 0.9600 .
C5 H5B 0.9649 .
C5 H5A 0.9726 .
