#------------------------------------------------------------------------------
#$Date: 2019-11-23 18:36:28 +0200 (Sat, 23 Nov 2019) $
#$Revision: 234468 $
#$URL: file:///home/coder/svn-repositories/cod/cif/7/12/50/7125049.cif $
#------------------------------------------------------------------------------
#
# This file is available in the Crystallography Open Database (COD),
# http://www.crystallography.net/
#
# All data on this site have been placed in the public domain by the
# contributors.
#
data_7125049
loop_
_publ_author_name
'Barbero, H\'ector'
'Ferrero, Sergio'
'\'Alvarez-Miguel, Luc\'ia'
'G\'omez-Iglesias, Patricia'
'Miguel, Daniel'
'\'Alvarez, Celedonio M'
_publ_section_title
;
 Affinity modulation of photoresponsive hosts for fullerenes: light-gated
 corannulene tweezers.
;
_journal_issue                   88
_journal_name_full
'Chemical communications (Cambridge, England)'
_journal_page_first              12964
_journal_page_last               12967
_journal_paper_doi               10.1039/c6cc06445k
_journal_volume                  52
_journal_year                    2016
_chemical_formula_moiety         'C40 H26 N2'
_chemical_formula_sum            'C40 H26 N2'
_chemical_formula_weight         534.63
_space_group_crystal_system      triclinic
_space_group_IT_number           2
_space_group_name_Hall           '-P 1'
_space_group_name_H-M_alt        'P -1'
_atom_sites_solution_hydrogens   geom
_atom_sites_solution_primary     direct
_audit_creation_date             2015-10-01
_audit_creation_method
;
Olex2 1.2
(compiled 2015.01.26 svn.r3150 for OlexSys, GUI svn.r4998)
;
_audit_update_record
;
2016-07-19 deposited with the CCDC.
2016-09-06 downloaded from the CCDC.
;
_cell_angle_alpha                106.270(7)
_cell_angle_beta                 91.672(6)
_cell_angle_gamma                92.388(7)
_cell_formula_units_Z            1
_cell_length_a                   3.9995(3)
_cell_length_b                   9.9251(9)
_cell_length_c                   17.4542(14)
_cell_measurement_reflns_used    1209
_cell_measurement_temperature    296
_cell_measurement_theta_max      28.3910
_cell_measurement_theta_min      2.4340
_cell_volume                     663.92(10)
_computing_cell_refinement
;
CrysAlisPro, Agilent Technologies,
Version 1.171.37.35 (release 13-08-2014 CrysAlis171 .NET)
(compiled Aug 13 2014,18:06:01)
;
_computing_data_collection
;
CrysAlisPro, Agilent Technologies,
Version 1.171.37.35 (release 13-08-2014 CrysAlis171 .NET)
(compiled Aug 13 2014,18:06:01)
;
_computing_data_reduction
;
CrysAlisPro, Agilent Technologies,
Version 1.171.37.35 (release 13-08-2014 CrysAlis171 .NET)
(compiled Aug 13 2014,18:06:01)
;
_computing_molecular_graphics    'Olex2 (Dolomanov et al., 2009)'
_computing_publication_material  'Olex2 (Dolomanov et al., 2009)'
_computing_structure_refinement  'ShelXL (Sheldrick, 2008)'
_computing_structure_solution    'ShelXS (Sheldrick, 2008)'
_diffrn_ambient_temperature      296
_diffrn_detector                 'CCD plate'
_diffrn_detector_area_resol_mean 10.4757
_diffrn_detector_type            Atlas
_diffrn_measured_fraction_theta_full 0.998
_diffrn_measured_fraction_theta_max 0.819
_diffrn_measurement_details
;
#__ type_ start__ end____ width___ exp.time_
  1 omega  -12.00   86.00   1.0000  104.7950
omega____ theta____ kappa____ phi______ frames
    -       11.8245   37.0000  -90.0000 98

#__ type_ start__ end____ width___ exp.time_
  2 omega  -19.00   71.00   1.0000  104.7950
omega____ theta____ kappa____ phi______ frames
    -       11.8245   77.0000    0.0000 90

#__ type_ start__ end____ width___ exp.time_
  3 omega  -52.00   36.00   1.0000  104.7950
omega____ theta____ kappa____ phi______ frames
    -       11.8245  -37.0000   90.0000 88
;
_diffrn_measurement_device       'four-circle diffractometer'
_diffrn_measurement_device_type  'SuperNova, Dual, Cu at zero, Atlas'
_diffrn_measurement_method       '\w scans'
_diffrn_orient_matrix_UB_11      -0.0400047000
_diffrn_orient_matrix_UB_12      0.0626545000
_diffrn_orient_matrix_UB_13      -0.0093963000
_diffrn_orient_matrix_UB_21      -0.0420000000
_diffrn_orient_matrix_UB_22      -0.0393364000
_diffrn_orient_matrix_UB_23      -0.0400033000
_diffrn_orient_matrix_UB_31      -0.1679275000
_diffrn_orient_matrix_UB_32      -0.0091842000
_diffrn_orient_matrix_UB_33      0.0103345000
_diffrn_radiation_monochromator  mirror
_diffrn_radiation_probe          x-ray
_diffrn_radiation_type           MoK\a
_diffrn_radiation_wavelength     0.71073
_diffrn_reflns_av_R_equivalents  0.0392
_diffrn_reflns_av_unetI/netI     0.0916
_diffrn_reflns_Laue_measured_fraction_full 0.998
_diffrn_reflns_Laue_measured_fraction_max 0.819
_diffrn_reflns_limit_h_max       5
_diffrn_reflns_limit_h_min       -4
_diffrn_reflns_limit_k_max       13
_diffrn_reflns_limit_k_min       -13
_diffrn_reflns_limit_l_max       13
_diffrn_reflns_limit_l_min       -21
_diffrn_reflns_number            5196
_diffrn_reflns_point_group_measured_fraction_full 0.998
_diffrn_reflns_point_group_measured_fraction_max 0.819
_diffrn_reflns_theta_full        26.000
_diffrn_reflns_theta_max         29.707
_diffrn_reflns_theta_min         2.140
_diffrn_source                   'SuperNova (Mo) X-ray Source'
_exptl_absorpt_coefficient_mu    0.078
_exptl_absorpt_correction_T_max  0.997
_exptl_absorpt_correction_T_min  0.988
_exptl_absorpt_correction_type   analytical
_exptl_absorpt_process_details
;
CrysAlisPro, Agilent Technologies,
Version 1.171.37.35 (release 13-08-2014 CrysAlis171 .NET)
(compiled Aug 13 2014,18:06:01)
Analytical numeric absorption correction using a multifaceted crystal
			model based on expressions derived by R.C. Clark & J.S. Reid.
(Clark, R. C. & Reid, J. S. (1995). Acta Cryst. A51, 887-897)
Empirical absorption correction using spherical harmonics,
 implemented in SCALE3 ABSPACK scaling algorithm.
;
_exptl_crystal_colour            yellow
_exptl_crystal_colour_primary    yellow
_exptl_crystal_density_diffrn    1.337
_exptl_crystal_description       needle
_exptl_crystal_F_000             280
_exptl_crystal_size_max          0.3868
_exptl_crystal_size_mid          0.0963
_exptl_crystal_size_min          0.0362
_refine_diff_density_max         0.150
_refine_diff_density_min         -0.202
_refine_diff_density_rms         0.039
_refine_ls_extinction_coef       0.015(3)
_refine_ls_extinction_expression Fc^*^=kFc[1+0.001xFc^2^\l^3^/sin(2\q)]^-1/4^
_refine_ls_extinction_method     SHELXL
_refine_ls_goodness_of_fit_ref   0.977
_refine_ls_hydrogen_treatment    constr
_refine_ls_matrix_type           full
_refine_ls_number_parameters     191
_refine_ls_number_reflns         3102
_refine_ls_number_restraints     0
_refine_ls_restrained_S_all      0.977
_refine_ls_R_factor_all          0.1363
_refine_ls_R_factor_gt           0.0569
_refine_ls_shift/su_max          0.000
_refine_ls_shift/su_mean         0.000
_refine_ls_structure_factor_coef Fsqd
_refine_ls_weighting_details
'w=1/[\s^2^(Fo^2^)+(0.0313P)^2^] where P=(Fo^2^+2Fc^2^)/3'
_refine_ls_weighting_scheme      calc
_refine_ls_wR_factor_gt          0.0989
_refine_ls_wR_factor_ref         0.1387
_reflns_Friedel_coverage         0.000
_reflns_number_gt                1427
_reflns_number_total             3102
_reflns_threshold_expression     'I > 2\s(I)'
_cod_data_source_file            c6cc06445k2.cif
_cod_data_source_block           Compound_4a_hbpazophend
_cod_database_code               7125049
_shelxl_version_number           2014-3
_chemical_oxdiff_formula         'C40 H26 N2'
_shelx_space_group_comment
;
The symmetry employed for this shelxl refinement is uniquely defined
by the following loop, which should always be used as a source of
symmetry information in preference to the above space-group names.
They are only intended as comments.
;
_reflns_odcompleteness_completeness 99.78
_reflns_odcompleteness_iscentric 1
_reflns_odcompleteness_theta     26.32
_olex2_refinement_description
;
1. Fixed Uiso
 At 1.2 times of:
  All C(H) groups
2.a Aromatic/amide H refined with riding coordinates:
 C2(H2), C3(H3), C5(H5), C6(H6), C13(H13), C14(H14), C15(H15), C16(H16),
 C19(H19), C20(H20), C21(H21), C22(H22), C24(H24)
;
_shelx_res_file
;
TITL HBpAzophenD in P-1 #2
REM reset to P-1 #2
CELL 0.71073 3.999497 9.925121 17.454185 106.2702 91.6717 92.3881
ZERR 1 0.000299 0.000884 0.001408 0.0074 0.0063 0.0066
LATT 1
SFAC C H N
UNIT 40 26 2

L.S. 5 0 0
PLAN  8
TEMP 22.85
BOND
MORE -1
BOND $H
CONF
fmap 2 53
acta 52
REM <olex2.extras>
REM <HklSrc "%.\\HBpAzophenD.hkl">
REM </olex2.extras>

WGHT    0.031300
EXTI    0.015427
FVAR       3.02104
N1    3    0.515525    0.935327   -0.010419    11.00000    0.06709    0.03753 =
         0.03905    0.01067    0.00049   -0.00165
C1    1    0.441725    0.867014    0.049153    11.00000    0.05465    0.03755 =
         0.03480    0.01274    0.00068   -0.00484
C2    1    0.286000    0.929715    0.119786    11.00000    0.05256    0.03532 =
         0.04318    0.01149    0.00367    0.00389
AFIX  43
H2    2    0.215740    1.020964    0.129880    11.00000   -1.20000
AFIX   0
C3    1    0.237598    0.854966    0.174332    11.00000    0.05531    0.03918 =
         0.03916    0.00871    0.00922    0.00400
AFIX  43
H3    2    0.136376    0.897528    0.221737    11.00000   -1.20000
AFIX   0
C4    1    0.335907    0.716693    0.160786    11.00000    0.04438    0.04078 =
         0.03379    0.01015   -0.00111    0.00059
C5    1    0.480885    0.655829    0.088483    11.00000    0.06213    0.03401 =
         0.03847    0.00733    0.00192    0.00354
AFIX  43
H5    2    0.544521    0.563471    0.077118    11.00000   -1.20000
AFIX   0
C6    1    0.531899    0.729931    0.033396    11.00000    0.07032    0.03719 =
         0.03292    0.00423    0.00865   -0.00017
AFIX  43
H6    2    0.627803    0.687006   -0.014683    11.00000   -1.20000
AFIX   0
C11   1    0.277990    0.635145    0.218911    11.00000    0.04155    0.03736 =
         0.03542    0.01184    0.00283    0.00541
C12   1    0.388081    0.688378    0.302572    11.00000    0.04080    0.03656 =
         0.03511    0.00778    0.00419    0.00443
C13   1    0.571252    0.818026    0.332265    11.00000    0.05079    0.04224 =
         0.04643    0.01256    0.00380   -0.00219
AFIX  43
H13   2    0.623186    0.870958    0.297474    11.00000   -1.20000
AFIX   0
C14   1    0.674916    0.868136    0.411217    11.00000    0.05992    0.04486 =
         0.04808    0.00504   -0.00255   -0.00612
AFIX  43
H14   2    0.795661    0.953949    0.429511    11.00000   -1.20000
AFIX   0
C15   1    0.598331    0.789878    0.463577    11.00000    0.06173    0.05408 =
         0.03809    0.00248   -0.00201    0.00049
AFIX  43
H15   2    0.664755    0.824021    0.517311    11.00000   -1.20000
AFIX   0
C16   1    0.425711    0.662900    0.436363    11.00000    0.05860    0.05379 =
         0.03663    0.01337    0.00080    0.00253
AFIX  43
H16   2    0.379080    0.611376    0.472172    11.00000   -1.20000
AFIX   0
C17   1    0.315703    0.607287    0.355589    11.00000    0.04203    0.03925 =
         0.03605    0.01092    0.00428    0.00782
C18   1    0.138773    0.471082    0.326681    11.00000    0.03978    0.03890 =
         0.04286    0.01434    0.00367    0.00411
C19   1    0.059099    0.385348    0.375786    11.00000    0.05652    0.05266 =
         0.04430    0.01907    0.00459    0.00198
AFIX  43
H19   2    0.119994    0.416622    0.429938    11.00000   -1.20000
AFIX   0
C20   1   -0.106556    0.256352    0.346031    11.00000    0.06224    0.05874 =
         0.06520    0.03154    0.00297   -0.00394
AFIX  43
H20   2   -0.155970    0.201310    0.379868    11.00000   -1.20000
AFIX   0
C21   1   -0.200545    0.207979    0.265152    11.00000    0.05936    0.04177 =
         0.06457    0.01430   -0.00022   -0.00423
AFIX  43
H21   2   -0.312601    0.120570    0.244917    11.00000   -1.20000
AFIX   0
C22   1   -0.128083    0.288949    0.215604    11.00000    0.05533    0.03847 =
         0.05072    0.01100   -0.00086   -0.00070
AFIX  43
H22   2   -0.193349    0.256405    0.161738    11.00000   -1.20000
AFIX   0
C23   1    0.043482    0.420610    0.244745    11.00000    0.04427    0.03779 =
         0.04008    0.01101    0.00277    0.00429
C24   1    0.118028    0.505565    0.193520    11.00000    0.05166    0.03742 =
         0.03305    0.00910    0.00172    0.00467
AFIX  43
H24   2    0.054108    0.470815    0.139664    11.00000   -1.20000
AFIX   0
HKLF 4

REM  HBpAzophenD in P-1 #2
REM R1 =  0.0569 for    1427 Fo > 4sig(Fo)  and  0.1363 for all    3102 data
REM    191 parameters refined using      0 restraints

END

WGHT      0.0313      0.0000

REM Highest difference peak  0.150,  deepest hole -0.202,  1-sigma level  0.039
Q1    1   0.4457  0.7556  0.3202  11.00000  0.05    0.15
Q2    1   0.6296  0.8784 -0.0636  11.00000  0.05    0.14
Q3    1   0.2922  0.6619  0.2607  11.00000  0.05    0.14
Q4    1   0.1072  0.4397  0.2782  11.00000  0.05    0.14
Q5    1   0.2487  0.5416  0.3410  11.00000  0.05    0.13
Q6    1  -0.3476  0.2605  0.3186  11.00000  0.05    0.13
Q7    1   0.7949  0.7164 -0.0087  11.00000  0.05    0.13
Q8    1  -0.1928  0.2383  0.1408  11.00000  0.05    0.13
;
_shelx_res_checksum              36731
_shelx_hkl_file
;
   0   0  -2 6527.66 131.447   1
   0   0  -3 3442.50 118.223   1
   0   0  -4 5.26374 6.12708   1
   0   0  -5 4897.49 182.105   1
   0   0  -6 2557.74 140.816   1
   0   0  -7 635.294 76.6040   1
   0   0  -8 607.860 79.8366   1
   0   0  -9 2666.79 175.730   1
   0   0 -10 553.051 83.2200   1
   0   0  11 4.84935 8.40050   1
   0   0 -11 36.7287 25.5053   1
   0   0 -12 30.3613 25.2234   1
   0   0  12 31.7231 27.8588   1
   0   0 -13 46.4156 28.0208   1
   0   0 -14 85.7077 40.2476   1
   0   0 -15 42.2913 27.7321   1
   0   0 -16 40.0672 29.0420   1
   0   0 -17 35.7588 26.7314   1
   0   0 -18 15.1622 28.2947   1
   0   0 -19 66.2683 44.7666   1
   0   0 -20 94.4232 49.9309   1
   0   1 -21 17.6612 28.2702   1
   0   1 -20 45.6649 30.6121   1
   0   1 -19 85.9495 46.7734   1
   0   1 -18 156.459 64.3294   1
   0   1 -17 1203.00 161.422   1
   0   1 -16 310.251 79.5768   1
   0   1 -15 276.316 73.2493   1
   0   1 -14 386.982 80.0835   1
   0  -1  13 256.391 72.1188   1
   0   1 -13 233.048 59.6322   1
   0  -1  12 108.547 42.2138   1
   0   1 -12 100.923 39.6806   1
   0   1 -11 24.5106 21.0895   1
   0   1 -10-18.6269 14.4792   1
   0   1  -9 287.279 57.8147   1
   0   1  -8 36.5209 17.9264   1
   0   1  -7 146.073 34.6000   1
   0   1  -6 2492.60 134.925   1
   0   1  -5 706.324 65.9561   1
   0   1  -4 682.782 58.8007   1
   0   1  -3 18815.1 271.549   1
   0   1  -2 5102.52 123.705   1
   0  -1   1 67.0096 10.7747   3
   0  -1   1 62.2971 13.2596   2
   0  -1   0 4730.24 92.1753   3
   0  -1  -1 23054.0 221.930   2
   0  -1  -1 23256.0 225.355   3
   0  -1  -2 27167.5 300.269   3
   0  -1  -3 17423.3 291.090   1
   0  -1  -4 72.2655 19.0595   1
   0  -1  -5 144.428 33.2682   1
   0  -1  -6 771.712 80.6889   1
   0  -1  -7 27073.8 516.706   1
   0  -1  -8 1507.49 130.655   1
   0  -1  -9 2230.85 169.161   1
   0  -1 -10 310.490 65.3969   1
   0   1  10 272.030 63.4080   1
   0   1  11 135.438 45.8612   1
   0  -1 -11 134.052 44.6562   1
   0  -1 -12-16.8925 16.0693   1
   0   1  12-11.3839 14.8105   1
   0  -1 -13 7.48636 8.24482   1
   0  -1 -14 12.1354 18.5160   1
   0  -1 -15 121.844 50.1032   1
   0  -1 -16 333.975 87.4110   1
   0  -1 -17 23.3872 21.3433   1
   0  -1 -18 119.909 52.8433   1
   0  -1 -19 42.3861 43.2507   1
   0  -1 -20 30.4296 19.2043   1
   0   2 -21 456.905 117.063   1
   0   2 -20 27.3281 30.8486   1
   0   2 -19 117.873 53.5100   1
   0   2 -18 100.389 47.8427   1
   0   2 -17 236.077 77.1722   1
   0   2 -16 1865.23 198.203   1
   0   2 -15 3327.91 254.135   1
   0   2 -14 1120.28 141.647   1
   0   2 -13 436.363 84.9457   1
   0  -2  13 506.029 100.062   1
   0  -2  12 1080.09 139.220   1
   0   2 -12 1021.73 125.891   1
   0   2 -11 10.8388 11.9792   1
   0  -2  11 26.8267 24.8085   1
   0   2 -10 1077.04 116.216   1
   0   2  -9 201.711 47.7915   1
   0   2  -8 184.943 41.7467   1
   0   2  -7 16.6904 19.5221   1
   0   2  -6 1078.54 92.1632   1
   0   2  -5 2047.90 124.602   1
   0   2  -4 19.0245 12.2406   1
   0   2  -3 1353.90 87.2857   1
   0  -2   2 526.199 45.6840   3
   0  -2   2 635.881 50.9944   2
   0  -2   1 38.7878 12.6228   3
   0  -2   1 72.9078 22.2649   2
   0   2  -1 35.9616 12.5558   2
   0   2   0 11445.5 206.633   2
   0  -2   0 11258.8 206.591   3
   0  -2   0 11526.5 190.903   2
   0   2   1 4902.16 134.992   2
   0  -2  -1 4990.67 137.607   3
   0  -2  -1 5104.50 136.307   2
   0  -2  -2 70.8608 17.8474   3
   0  -2  -2 61.2566 16.8559   2
   0  -2  -3 377.424 46.1300   3
   0  -2  -4 1813.83 110.690   3
   0  -2  -5 77.3530 26.3889   3
   0  -2  -6 159.537 36.2926   1
   0  -2  -6 149.282 39.5687   3
   0  -2  -7 16.9490 19.7772   1
   0  -2  -8 2271.88 167.525   1
   0   2   9 711.924 101.237   1
   0  -2  -9 808.919 106.052   1
   0   2  10 1050.80 131.613   1
   0  -2 -10 1169.17 133.861   1
   0  -2 -11 25.9110 23.5923   1
   0   2  11 9.92226 12.1968   1
   0  -2 -12 210.856 62.4872   1
   0  -2 -13-11.3749 21.2557   1
   0  -2 -14 582.084 112.554   1
   0  -2 -15 248.242 75.0859   1
   0  -2 -16 474.694 114.685   1
   0  -2 -17 36.0975 35.2168   1
   0  -2 -18-16.5758 12.5258   3
   0  -2 -18 67.2252 47.7685   1
   0  -2 -19-22.9410 27.6502   1
   0  -2 -19 64.9314 47.4668   3
   0  -2 -20 108.468 57.7044   3
   0   3 -21 72.5372 46.8584   1
   0   3 -20 8.39747 22.7287   1
   0   3 -19 34.1795 28.8849   1
   0   3 -18 87.4575 48.9342   1
   0   3 -17-4.32888 6.62801   1
   0   3 -16 75.8105 45.7030   1
   0   3 -15 3288.80 255.596   1
   0   3 -14 6625.16 351.356   1
   0  -3  13 4228.20 288.588   1
   0   3 -13 4145.51 263.481   1
   0  -3  12 1273.65 151.978   1
   0   3 -12 1213.79 135.649   1
   0   3 -11 264.044 60.7048   1
   0  -3  11 241.666 62.2552   1
   0   3 -10 336.628 66.2670   1
   0   3  -9 4369.91 228.856   1
   0   3  -8 6913.77 279.636   1
   0   3  -7 2451.56 158.830   1
   0   3  -6 3087.86 168.352   1
   0   3  -5 1259.41 103.086   1
   0   3  -4 60.7537 30.0331   2
   0   3  -4 17.5811 15.0851   1
   0  -3   3 41.9157 15.9511   3
   0   3  -3 96.6078 40.4053   2
   0  -3   3 177.158 51.6179   2
   0   3  -2 150.232 32.9557   2
   0  -3   2 140.746 28.1316   3
   0  -3   2 240.340 44.4192   2
   0  -3   1 49.7880 14.0083   3
   0  -3   1 102.148 29.4860   2
   0   3  -1 49.7235 9.18009   2
   0  -3   0 7.41626 5.29342   2
   0   3   0 18.0263 9.15966   2
   0  -3   0 30.8344 14.9984   3
   0  -3  -1 4917.56 160.650   2
   0   3   1 4848.37 168.402   3
   0   3   1 4904.92 168.857   2
   0  -3  -1 4685.52 165.573   3
   0  -3  -2 1306.81 87.3582   2
   0   3   2 1323.86 89.7150   3
   0   3   2 1310.27 90.6668   2
   0  -3  -2 1292.32 90.0539   3
   0  -3  -3 169.087 36.4445   3
   0   3   3 141.490 32.9323   3
   0  -3  -3 172.266 35.9507   2
   0  -3  -4 301.701 47.7182   3
   0  -3  -4 254.254 44.9550   2
   0  -3  -5 177.082 39.9004   3
   0  -3  -5 209.667 44.3438   2
   0  -3  -6 222.224 50.5167   3
   0  -3  -7 768.817 93.8961   3
   0  -3  -8 17.0807 11.3089   3
   0   3   8 40.8142 23.5597   1
   0   3   9 42.2997 26.3721   1
   0  -3  -9 50.9276 29.2706   3
   0   3  10 245.653 66.1394   1
   0  -3 -10 253.354 63.0922   3
   0  -3 -11 7.98823 9.35696   3
   0  -3 -12 14.0117 20.5540   3
   0  -3 -13-22.3719 24.9412   3
   0  -3 -14 26.2843 13.4200   3
   0  -3 -15 437.534 103.064   3
   0  -3 -16 261.518 80.7647   3
   0  -3 -17 208.906 79.1398   3
   0  -3 -18 63.6449 49.9299   3
   0  -3 -19 18.7996 37.4806   3
   0   4 -21 120.444 65.4989   1
   0   4 -20 69.0104 45.9610   1
   0   4 -19 17.2367 14.3905   1
   0   4 -18 110.975 54.0355   1
   0   4 -17 399.945 97.8210   1
   0   4 -16 1.72997 16.4134   1
   0   4 -15 1779.86 191.337   1
   0   4 -14 744.831 118.573   1
   0   4 -13 19.7570 17.9054   1
   0  -4  12 47.3471 33.1146   1
   0   4 -12 115.233 45.9879   1
   0  -4  11 173.357 55.8358   1
   0   4 -11 160.023 50.8438   1
   0  -4  10 78.3685 36.1549   1
   0   4 -10 81.7726 32.5185   1
   0   4  -9 451.136 78.8790   1
   0   4  -8 1798.14 150.147   1
   0   4  -7 5371.68 246.485   1
   0   4  -7 5266.15 235.508   2
   0   4  -6 17511.1 421.844   2
   0   4  -6 17462.1 435.697   1
   0   4  -5 2191.24 146.770   2
   0   4  -5 2149.57 150.407   1
   0   4  -4 88.5970 33.0110   2
   0  -4   4 43.8777 19.9941   3
   0  -4   3 23.9506 15.6890   3
   0   4  -3 33.8146 20.2057   2
   0  -4   3 115.671 37.1128   2
   0  -4   2 1637.54 108.400   2
   0   4  -2 1630.53 114.702   2
   0  -4   2 1668.26 110.495   3
   0   4  -2 1697.59 113.540   3
   0  -4   1 1433.55 99.9882   2
   0   4  -1 1620.91 109.705   3
   0   4  -1 1487.14 111.158   2
   0  -4   1 1528.36 106.409   3
   0  -4   0 1538.70 99.4937   2
   0  -4   0 1552.36 109.000   3
   0   4   0 1609.60 109.190   3
   0   4   0 1662.22 116.362   2
   0  -4  -1 4395.80 182.778   3
   0  -4  -1 4481.48 175.533   2
   0   4   1 4557.18 188.869   2
   0   4   1 4466.92 185.723   3
   0   4   2 45.3642 16.7268   3
   0   4   2 55.7610 21.4043   2
   0  -4  -2 41.1339 17.4228   3
   0  -4  -2 44.6041 18.4550   2
   0  -4  -3 109.685 30.7136   3
   0   4   3 126.581 33.2179   3
   0  -4  -3 104.059 29.2019   2
   0  -4  -4 1631.04 127.005   3
   0  -4  -4 1619.45 121.756   2
   0  -4  -5 5.30891 8.65450   3
   0  -4  -5 16.0822 14.8885   2
   0   4   5 8.26404 10.1002   1
   0   4   6 56.7731 27.1026   1
   0  -4  -6 61.8354 27.9911   3
   0  -4  -6 52.5619 25.9509   2
   0  -4  -7 359.641 65.8779   3
   0   4   7 356.820 72.1353   1
   0  -4  -7 406.813 73.4552   2
   0  -4  -8 184.847 52.2216   3
   0  -4  -8 183.177 51.3413   2
   0   4   8 137.970 46.8335   1
   0  -4  -9-16.0906 20.5876   3
   0  -4  -9-6.21753 22.5983   2
   0  -4 -10-0.11640 7.44506   3
   0  -4 -11 38.8320 24.5300   3
   0  -4 -12 81.1477 38.6670   3
   0  -4 -13 22.6935 20.6679   3
   0  -4 -14-13.3644 15.7164   3
   0  -4 -15 29.4075 27.3167   3
   0  -4 -16 162.105 65.1051   3
   0  -4 -17 11.6079 22.6441   3
   0  -4 -18 195.851 75.5112   3
   0   5 -21 1.11059 13.0425   1
   0   5 -20 23.0985 27.8499   1
   0   5 -19 63.3218 42.8105   1
   0   5 -18-26.6512 33.8537   1
   0   5 -17 11.5211 24.0440   1
   0   5 -16 11.1619 25.9100   1
   0   5 -15 497.071 103.054   1
   0   5 -14-5.22119 19.1018   1
   0   5 -13 396.023 86.1083   1
   0   5 -12 45.4922 28.2702   1
   0  -5  12 66.5669 38.2362   1
   0   5 -11 30.2635 26.0717   1
   0  -5  11 32.1403 31.1806   1
   0   5 -10 410.927 82.7701   2
   0   5 -10 232.405 56.9300   3
   0   5 -10 235.135 62.8898   1
   0   5  -9 687.374 95.3331   3
   0   5  -9 684.398 101.502   2
   0   5  -9 739.710 104.085   1
   0   5  -8 1053.93 120.423   2
   0   5  -8 968.320 115.521   1
   0   5  -7 154.222 43.8442   2
   0   5  -7 162.188 48.4007   1
   0   5  -6 31.2008 24.7949   1
   0   5  -6 113.605 48.3454   2
   0   5  -5 127.546 45.3293   2
   0  -5   4 330.151 60.8034   2
   0   5  -4 184.305 47.5135   2
   0  -5   4 121.122 35.0876   3
   0  -5   3 403.783 64.6513   2
   0   5  -3 284.752 54.2325   2
   0  -5   3 274.758 52.3101   3
   0   5  -3 251.658 48.9396   3
   0   5  -2 1079.84 103.203   3
   0  -5   2 1113.13 102.170   3
   0  -5   2 1105.67 101.280   2
   0   5  -2 1181.94 113.487   2
   0  -5   1 144.338 40.9505   2
   0  -5   1 111.810 32.0240   3
   0   5  -1 116.445 34.8797   2
   0   5  -1 89.3193 30.0811   3
   0  -5   0 1076.27 93.9015   2
   0   5   0 1216.04 113.601   2
   0  -5   0 1078.23 101.664   3
   0  -5  -1 20274.1 411.889   2
   0  -5  -1 19813.7 438.107   3
   0   5   1 19638.5 443.940   2
   0  -5  -2 309.652 58.2079   3
   0  -5  -2 355.773 55.5183   2
   0   5   2 315.475 54.6823   2
   0  -5  -3 290.071 52.2542   2
   0  -5  -3 260.138 52.9772   3
   0   5   4 80.3911 29.5162   3
   0  -5  -4 59.3880 26.4427   3
   0  -5  -4 48.4987 18.8113   2
   0   5   5 747.450 106.421   1
   0   5   5 944.421 108.605   3
   0  -5  -5 846.079 93.2727   2
   0  -5  -5 854.973 101.687   3
   0  -5  -6 1077.81 113.574   2
   0   5   6 1045.12 129.135   1
   0  -5  -6 1180.19 123.778   3
   0  -5  -7 1079.21 124.279   2
   0   5   7 1054.89 135.821   1
   0  -5  -7 1196.45 130.635   3
   0  -5  -8 2314.74 187.580   3
   0  -5  -8 2218.70 181.058   2
   0  -5  -9 406.009 80.8689   2
   0  -5  -9 445.763 84.0736   3
   0  -5 -10 1319.54 151.754   2
   0  -5 -10 1421.04 156.700   3
   0  -5 -11 1153.28 146.960   3
   0  -5 -11 1071.88 148.150   2
   0  -5 -12 18.4758 26.2523   2
   0  -5 -12 5.01383 8.73095   3
   0  -5 -13 24.8753 7.53928   2
   0  -5 -13 3.02396 14.9706   3
   0  -5 -14 27.8451 31.8082   2
   0  -5 -14 1.54458 13.6336   3
   0  -5 -15-4.47212 32.7326   2
   0  -5 -15-3.68755 10.9712   3
   0  -5 -16 23.7911 39.3192   3
   0  -5 -16 62.2374 42.4527   2
   0  -5 -17-25.8035 30.5936   3
   0   6 -21 334.227 109.662   1
   0   6 -20 11.6750 9.86235   1
   0   6 -19 5.57923 13.3069   1
   0   6 -18 17.4423 23.2707   1
   0   6 -17 49.9008 35.7807   1
   0   6 -16 28.3473 29.1194   1
   0   6 -15 128.616 53.8093   1
   0   6 -14 45.5683 25.2885   1
   0   6 -13 121.729 48.3369   1
   0   6 -12 237.872 68.4766   1
   0   6 -11 6.54543 19.9902   2
   0   6 -11-3.51361 18.7099   1
   0   6 -10 26.7173 20.7789   1
   0   6 -10 25.6410 18.7092   3
   0   6 -10 29.2850 23.5678   2
   0   6  -9 36.6156 29.7398   1
   0   6  -9 91.7115 41.4544   2
   0   6  -9 31.4005 22.8398   3
   0   6  -8 600.502 96.1389   1
   0   6  -8 721.560 112.881   2
   0   6  -8 557.888 90.6019   3
   0   6  -7 10.4180 13.0788   3
   0   6  -7 21.5596 19.0777   1
   0   6  -7 40.4871 35.7296   2
   0   6  -6 64.5722 34.3309   2
   0   6  -6 71.3328 33.1037   1
   0   6  -6 34.5242 20.9210   3
   0  -6   5 11.1893 13.3556   3
   0   6  -5 25.1840 18.5639   3
   0   6  -5 24.6919 21.0101   2
   0  -6   4-5.93463 16.1431   3
   0   6  -4-6.14481 12.0523   3
   0   6  -4-23.5062 26.4554   2
   0   6  -3 34.1620 21.6139   3
   0  -6   3 36.5864 24.2212   3
   0   6  -3 25.9400 17.6937   2
   0   6  -2 9.89794 17.8171   2
   0  -6   2 30.1351 25.2231   2
   0  -6   2 2.96084 4.50122   3
   0   6  -2 1.77378 6.28941   3
   0  -6   1 359.433 66.6465   2
   0   6  -1 218.084 50.3649   3
   0   6  -1 226.355 55.3025   2
   0  -6   1 209.442 49.3105   3
   0  -6   0 36.5908 24.9055   3
   0   6   0 35.2875 20.0232   2
   0  -6   0 69.4900 35.8419   2
   0   6   0 24.5398 18.6806   3
   0   6   1 215.619 51.0266   2
   0   6   1 224.708 51.4759   3
   0  -6  -1 218.366 53.0658   3
   0  -6  -1 223.899 50.0904   2
   0  -6  -2 594.070 77.3381   2
   0   6   2 644.173 87.2972   2
   0  -6  -2 625.311 86.8743   3
   0   6   2 572.793 84.5863   3
   0  -6  -3 1057.64 116.241   3
   0  -6  -3 928.711 100.065   2
   0   6   3 940.583 111.004   3
   0  -6  -4 156.613 42.4177   2
   0   6   4 143.846 45.4951   3
   0  -6  -4 157.254 47.5705   3
   0  -6  -5 277.210 61.8713   3
   0   6   5 320.856 71.2342   3
   0  -6  -5 265.561 56.2497   2
   0  -6  -6 138.389 43.2759   3
   0  -6  -6 104.314 38.4467   2
   0  -6  -7 53.5269 32.8586   2
   0  -6  -7 65.4885 31.8298   3
   0  -6  -8 11070.3 404.677   2
   0  -6  -8 11175.5 440.309   3
   0  -6  -9 14.4436 15.3627   2
   0  -6  -9 4.68039 19.3791   3
   0  -6 -10 1026.07 142.785   3
   0  -6 -10 996.646 136.732   2
   0  -6 -11-35.8478 26.1799   2
   0  -6 -11-8.04158 25.6779   3
   0  -6 -12-9.27830 18.6234   3
   0  -6 -12 8.71901 15.6449   2
   0  -6 -13 43.9283 33.8027   3
   0  -6 -13 44.5014 36.5788   2
   0  -6 -14-0.28132 31.4371   3
   0  -6 -14 29.1044 34.0133   2
   0  -6 -15 57.5864 34.0071   3
   0  -6 -16 123.143 60.6000   3
   0   7 -20 346.231 106.002   1
   0   7 -19-8.60662 17.4035   1
   0   7 -18 10.1190 27.4474   1
   0   7 -17-4.22691 23.6371   1
   0   7 -16 140.665 61.1767   1
   0   7 -15 173.272 65.0324   1
   0   7 -14 372.003 90.4599   1
   0   7 -13-14.6227 27.6630   1
   0   7 -12 10.5285 9.60493   1
   0   7 -11 461.604 93.7873   1
   0   7 -10 257.845 72.1972   1
   0   7  -9 622.730 107.775   1
   0   7  -9 667.552 115.096   2
   0   7  -8 44.0500 29.6296   3
   0   7  -8 59.2455 36.8539   1
   0   7  -8 76.6755 41.8444   2
   0   7  -7 1.24305 26.8589   1
   0   7  -7 19.5818 25.1215   3
   0   7  -7-10.5861 19.6534   2
   0   7  -6 467.909 88.4720   2
   0  -7   6 492.824 85.4006   3
   0   7  -6 503.701 89.7610   3
   0  -7   5 624.427 93.4451   3
   0   7  -5 581.258 97.3528   2
   0   7  -5 578.536 94.8133   3
   0   7  -4 0.37859 7.85567   3
   0   7  -4-8.26775 24.9656   2
   0   7  -3 7.00461 18.0186   2
   0  -7   3-8.28395 13.9177   3
   0   7  -3-0.05226 10.1000   3
   0   7  -2 0.76777 9.97752   3
   0  -7   2 0.28504 5.01821   3
   0   7  -2 12.0302 19.6075   2
   0  -7   2 51.0348 34.7558   2
   0   7  -1 36.8156 23.9209   3
   0  -7   1 23.4136 7.51534   2
   0   7  -1-6.88185 22.9998   2
   0  -7   1 24.1819 17.2969   3
   0   7   0 58.9592 32.6925   3
   0  -7   0 79.3001 33.2260   3
   0  -7   0 145.798 52.0689   2
   0   7   0 96.7149 38.4768   2
   0   7   1 197.572 52.1280   2
   0  -7  -1 216.248 52.6230   3
   0  -7  -1 248.900 60.6547   2
   0   7   1 203.590 53.9891   3
   0  -7  -2 469.276 78.0910   2
   0   7   2 457.677 79.9038   2
   0   7   2 474.166 84.3615   3
   0  -7  -2 430.710 78.2353   3
   0  -7  -3-5.87241 22.3534   3
   0  -7  -3-12.8990 23.5607   2
   0  -7  -4 18.2346 12.1466   3
   0  -7  -4 4.73268 26.2108   2
   0  -7  -5 83.7519 27.7581   2
   0  -7  -5 105.837 39.0044   3
   0  -7  -6 111.836 35.0332   2
   0  -7  -6 89.1982 39.1356   3
   0  -7  -7 1.97232 16.0486   2
   0  -7  -7 6.92476 11.6606   3
   0  -7  -8 326.844 69.6387   2
   0  -7  -8 388.141 87.3625   3
   0  -7  -9 1314.74 164.852   3
   0  -7  -9 1163.73 140.214   2
   0  -7 -10 364.067 79.0560   2
   0  -7 -10 401.389 92.5590   3
   0  -7 -11 410.885 88.9857   2
   0  -7 -11 431.655 101.303   3
   0  -7 -12 11.5849 26.7129   3
   0  -7 -12 47.0276 33.7914   2
   0  -7 -13-17.2281 22.0543   3
   0  -7 -14 52.7924 38.7206   3
   0   8 -20 31.0370 44.6379   1
   0   8 -19 35.2511 33.5732   1
   0   8 -18 6.33943 20.0845   1
   0   8 -17 47.3298 26.2464   1
   0   8 -16 77.9832 41.7964   1
   0   8 -15-6.43456 18.7064   1
   0   8 -14 168.055 65.4217   1
   0   8 -13 812.394 139.904   1
   0   8 -12 163.535 59.3004   1
   0   8 -11 101.521 47.8647   1
   0   8 -10 0.40308 18.4014   1
   0   8  -9 1155.06 158.480   1
   0   8  -8 2923.80 255.648   1
   0   8  -8 2731.72 242.460   2
   0   8  -7 4038.54 288.122   2
   0   8  -7 4368.86 312.872   1
   0  -8   6 0.65576 10.2005   3
   0   8  -6-18.5338 41.9161   2
   0  -8   5 3108.81 225.096   3
   0   8  -5 3410.85 259.855   2
   0   8  -4 1689.59 180.681   2
   0  -8   4 1545.23 156.541   3
   0   8  -3 12.2042 20.9308   2
   0  -8   3 2.10987 14.5750   3
   0  -8   2 126.995 55.3415   2
   0  -8   2 13.3313 17.5017   3
   0   8  -2 43.9545 24.5522   2
   0  -8   1 38.4052 25.2809   3
   0  -8   1 50.6940 31.8437   2
   0   8  -1 55.0851 28.8867   2
   0  -8   0 49.3588 29.8194   3
   0   8   0 19.1276 16.4241   2
   0  -8   0 14.0006 29.7534   2
   0  -8  -1 66.0746 45.7801   2
   0   8   1 22.3082 22.4520   2
   0  -8  -1 9.33099 20.5378   3
   0  -8  -2 24.4888 23.1298   3
   0   8   2 33.0704 25.7045   2
   0  -8  -2 68.4662 41.7310   2
   0  -8  -3 52.1970 31.0858   2
   0  -8  -3 45.3581 28.5816   3
   0  -8  -4 4.06244 15.0718   2
   0  -8  -4 14.3430 7.49244   3
   0  -8  -5 4.53708 11.3637   3
   0  -8  -5-9.51015 24.4424   2
   0  -8  -6-1.58732 28.2262   3
   0  -8  -6 0.15799 22.0007   2
   0  -8  -7 15.2088 20.1878   3
   0  -8  -7-7.46305 12.3402   2
   0  -8  -8 230.246 70.9504   3
   0  -8  -8 209.212 56.4369   2
   0  -8  -9 44.6223 26.8146   2
   0  -8  -9 35.0932 19.6240   3
   0  -8 -10 50.7605 26.9205   3
   0  -8 -11 53.9695 32.5750   3
   0  -8 -12 24.1041 31.8073   3
   0  -8 -13 7.66183 16.2191   3
   0   9 -19-16.8714 16.9892   1
   0   9 -18-37.0790 34.5654   1
   0   9 -17 4.58170 29.5489   1
   0   9 -16 66.8866 44.3661   1
   0   9 -15-28.7635 35.9453   1
   0   9 -14 58.6560 44.7744   1
   0   9 -13 2.61262 11.8818   1
   0   9 -12-13.0910 21.4598   1
   0   9 -11 10.9070 21.4663   1
   0   9 -10-2.26832 11.4379   1
   0   9  -9 15.4148 19.6257   1
   0   9  -8 885.333 151.805   1
   0  -9   6 4178.89 281.061   3
   0   9  -6 4551.26 326.328   2
   0  -9   5 4368.68 284.416   3
   0   9  -5 4751.75 327.614   2
   0   9  -4 1031.60 149.694   2
   0  -9   4 1034.48 136.473   3
   0  -9   3 20.8747 17.7504   3
   0   9  -3-42.2325 42.4532   2
   0  -9   2 302.437 81.4454   2
   0   9  -2 173.994 58.5384   2
   0  -9   2 180.147 55.1520   3
   0  -9   1 372.707 80.9126   3
   0  -9   1 430.831 88.4535   2
   0   9  -1 484.675 100.602   2
   0   9   0 453.322 93.1010   2
   0  -9   0 465.664 91.3235   2
   0  -9   0 485.789 93.6263   3
   0   9   1 42.1044 32.0432   2
   0  -9  -1 30.3542 26.0612   2
   0  -9  -1 55.4545 33.9639   3
   0  -9  -2 711.740 115.921   3
   0  -9  -2 717.116 107.046   2
   0  -9  -3 84.6136 42.1750   2
   0  -9  -3 87.7439 43.6012   3
   0  -9  -4 91.1226 40.4878   3
   0  -9  -4 77.7293 40.6931   2
   0  -9  -5 79.6972 43.4434   3
   0  -9  -5 60.3032 28.4518   2
   0  -9  -6 19.2584 17.5857   2
   0  -9  -6 35.5523 23.3543   3
   0  -9  -7 0.27421 29.0794   3
   0  -9  -8-16.7073 26.0121   3
   0  -9  -9 17.0612 31.2315   3
   0  -9 -10-9.54508 26.5174   3
   0  -9 -11-21.1125 25.4425   3
   0  10 -17 22.8997 34.8581   1
   0  10 -16 51.9374 41.0721   1
   0  10 -15-21.7619 30.1853   1
   0  10 -14-3.35419 12.0739   1
   0  10 -13 32.4402 26.4004   1
   0  10 -12 38.0083 22.4666   1
   0  10 -11-16.0254 23.8465   1
   0  10 -10-30.9670 23.3676   1
   0  10  -9 84.9334 50.3554   1
   0  10  -8 0.77272 35.0820   1
   0 -10   6-0.15595 8.73708   3
   0 -10   5 18.0040 15.8274   3
   0 -10   4 2.64099 14.3346   3
   0  10  -3 148.732 55.6888   2
   0 -10   3 198.470 62.5950   3
   0  10  -2-20.1812 22.4546   2
   0 -10   2 14.5124 17.1508   3
   0  10  -1 17.2842 20.1124   2
   0 -10   1 121.515 48.9531   3
   0 -10   1 158.783 67.5840   2
   0 -10   0 7.50883 14.8442   3
   0 -10   0 55.8764 41.7041   2
   0 -10  -1 259.424 73.1491   3
   0 -10  -1 251.976 71.4113   2
   0 -10  -2 755.115 131.054   3
   0 -10  -2 687.052 107.172   2
   0 -10  -3 97.4849 49.3713   3
   0 -10  -3 63.3887 39.4743   2
   0 -10  -4 55.0681 40.3905   3
   0 -10  -4 75.3125 42.1090   2
   0 -10  -5 14.2986 27.7952   3
   0 -10  -6 17.9793 35.1828   3
   0 -10  -7-6.67363 20.5647   3
   0 -10  -8 81.9234 44.4544   3
   0  11 -15 144.238 74.9638   1
   0  11 -14-4.14172 29.3100   1
   0  11 -13 18.9376 25.7941   1
   0  11 -12 28.2762 44.8259   1
   0  11 -11 38.4618 29.3005   1
   0  11 -10 7.45967 12.5239   1
   0  11  -9 23.5666 26.2366   1
   0  11  -8 10.5743 15.2207   1
   0 -11   6-9.16744 8.75377   3
   0 -11   5 19.6272 19.2336   3
   0 -11   4 23.1819 22.0364   3
   0 -11   3 10.1503 17.2289   3
   0 -11   2 9.80199 20.0414   3
   0 -11   1 37.0294 28.5735   3
   0 -11   0 89.6022 56.7779   2
   0 -11   0 18.8640 16.1266   3
   0 -11  -1-29.9336 27.3550   3
   0 -11  -2 42.6244 36.3222   3
   0 -11  -3-6.21050 23.9638   3
   0 -11  -4 54.4646 35.4579   3
   0 -11  -5 33.8204 23.8311   3
   0 -11  -6 26.7993 16.1429   3
   0  12 -12 174.786 78.4446   1
   0  12 -11 69.2555 51.8220   1
   0  12 -10 11.8628 35.6048   1
   0  12  -9 53.6884 45.4881   1
   0  12  -8-51.1136 44.7018   1
   0 -12   6 21.2318 42.3643   3
   0 -12   5 81.0741 53.0875   3
   0 -12   4 108.313 52.8012   3
   0 -12   3 4.17776 18.1169   3
   0 -12   2 17.1742 25.0759   3
   0 -12   1 54.6730 45.7963   3
   0 -12   0 10.5554 20.9393   3
   0 -12  -1 33.3712 25.4067   3
   0 -12  -2 35.6366 42.3454   3
   1 -13   1-0.42235 7.32699   3
   1 -13   2-70.1063 44.8851   3
   1 -13   3 189.878 86.2700   2
   1 -13   3 18.5031 10.7850   3
   1 -13   4 124.892 76.9041   2
  -1  13  -6 64.2713 52.6184   1
   1 -12  -4-6.05536 28.9294   3
   1 -12  -3 3.71926 15.7336   3
   1 -12  -2 3.33580 27.8418   3
   1 -12  -1-16.5203 34.1972   3
   1 -12  -1 33.1543 40.7182   2
   1 -12   0 53.4137 44.8565   2
   1 -12   0 54.5429 37.5460   3
   1 -12   1 48.4092 38.7185   3
   1 -12   1-10.5126 18.8052   2
   1 -12   2-8.16992 26.2009   3
   1 -12   2 47.9055 50.6792   2
   1 -12   3 34.5358 41.7869   2
   1 -12   3 52.1156 29.1913   3
   1 -12   4 101.799 55.0893   2
   1 -12   4 92.2552 49.8458   3
   1 -12   5 259.267 88.2179   2
  -1  12  -7 120.478 66.7519   1
  -1  12  -8 29.8420 35.2066   1
  -1  12  -9 109.999 67.2268   1
  -1  12 -10-41.4727 40.0834   1
  -1  12 -11-0.82064 10.2888   1
  -1  12 -12-45.4654 41.1118   1
  -1  12 -13-0.68632 28.6397   1
   1 -11  -8 48.5043 38.9871   3
   1 -11  -7 20.9320 28.6406   3
   1 -11  -6 24.3887 24.5569   3
   1 -11  -5-11.7536 20.4678   3
   1 -11  -4 134.853 59.1804   2
   1 -11  -4 123.974 54.6025   3
   1 -11  -3 68.7441 42.5859   2
   1 -11  -3 14.8311 21.2997   3
   1 -11  -2 219.929 71.2222   3
   1 -11  -2 242.269 75.9405   2
   1 -11  -1 77.1446 37.6923   3
   1 -11  -1 220.232 81.2799   2
   1 -11   0 112.083 61.4081   2
   1 -11   0-30.3597 25.0117   3
   1 -11   1-2.36292 13.8335   2
   1 -11   1-13.3271 19.8716   3
   1 -11   2 63.8659 41.7540   3
   1 -11   2 7.93314 30.0800   2
   1 -11   3 1.96649 21.8556   3
   1 -11   3 7.81615 36.5713   2
   1 -11   4 32.1455 25.6643   3
   1 -11   4 114.416 61.2248   2
   1 -11   5 492.870 113.988   2
   1 -11   6 215.243 89.7598   2
  -1  11  -7 661.846 148.749   1
   1 -11   7 660.591 123.917   2
  -1  11  -8 12.8057 18.6852   1
  -1  11  -9 187.740 78.8771   1
  -1  11 -10 3.52821 24.1608   1
  -1  11 -11-12.6353 21.4249   1
  -1  11 -12 49.6558 42.6239   1
  -1  11 -13-6.47870 29.7776   1
  -1  11 -14-62.0773 45.7491   1
  -1  11 -15-12.0459 29.5722   1
  -1  11 -16 63.2638 46.7829   1
   1 -10 -10 36.0853 17.2980   3
   1 -10  -9 48.1109 34.7573   3
   1 -10  -8 2.41542 28.9481   3
   1 -10  -7-125.504 55.1935   2
   1 -10  -7-20.2254 31.9573   3
   1 -10  -6 40.3842 28.7460   2
   1 -10  -6 38.6167 24.1943   3
   1 -10  -5 13.8236 14.3220   2
   1 -10  -5 34.7859 26.8765   3
   1 -10  -4 18.4583 12.9593   2
   1 -10  -4 61.3343 39.2910   3
   1 -10  -3 76.2898 35.6222   2
   1 -10  -3 135.608 55.4828   3
   1 -10  -2 61.2078 39.8376   2
   1 -10  -2 55.4339 36.0918   3
   1 -10  -1 148.408 54.1334   3
   1 -10  -1 202.314 69.8680   2
   1 -10   0 278.631 76.1894   3
   1 -10   0 295.471 85.6577   2
   1 -10   1 222.387 68.2144   3
   1 -10   1 338.885 93.6529   2
   1 -10   2 307.369 89.7855   2
   1 -10   2 200.742 63.9489   3
   1 -10   3 709.404 122.693   3
   1 -10   3 707.148 125.890   2
   1 -10   4 49.5434 35.1019   2
   1 -10   4 91.6183 41.6217   3
   1 -10   5 3034.55 258.763   2
   1 -10   6 1192.51 159.819   2
  -1  10  -7 108.388 56.9925   1
   1 -10   7 457.764 102.713   2
  -1  10  -8 331.647 95.7806   1
  -1  10  -9 4.02937 17.9176   1
  -1  10 -10 122.719 58.1237   1
  -1  10 -11 18.6222 20.0801   1
  -1  10 -12 56.7897 35.6063   1
  -1  10 -13-8.47815 21.6430   1
  -1  10 -14 33.4645 30.0623   1
  -1  10 -15 86.2140 53.1061   1
  -1  10 -16 5.30902 43.3685   1
  -1  10 -17-58.9713 43.1780   1
  -1  10 -18-12.8367 21.6629   1
   1  -9 -12 2.13835 26.0091   3
   1  -9 -11 58.6868 32.5727   3
   1  -9 -10 70.1434 52.5886   2
   1  -9 -10 24.9690 16.7639   3
   1  -9  -9-27.8072 41.2262   3
   1  -9  -9 7.63050 12.1402   2
   1  -9  -8 15.9092 16.3775   2
   1  -9  -8 99.1626 45.3712   3
   1  -9  -7 250.275 74.4282   3
   1  -9  -7 239.265 76.9579   2
   1  -9  -6 28.6718 24.5396   3
   1  -9  -6 4.91475 9.22159   2
   1  -9  -5 9.80415 15.0877   3
   1  -9  -5-29.5889 36.6538   2
   1  -9  -4-28.0544 39.0529   2
   1  -9  -4 25.0678 26.2699   3
   1  -9  -3-30.9540 41.1983   2
   1  -9  -3 18.4241 17.9977   3
   1  -9  -2-3.18428 27.0577   2
   1  -9  -2 22.5888 21.6031   3
   1  -9  -1-15.6958 23.7788   2
   1  -9  -1-7.51278 10.5957   3
   1  -9   0 4.46464 17.1372   3
   1  -9   0 15.9013 30.1243   2
   1  -9   1 175.291 65.3662   2
   1  -9   1 155.769 53.4097   3
   1  -9   2 24.0213 15.1465   3
   1  -9   2 108.047 61.2441   2
   1  -9   3 2245.42 213.559   2
   1  -9   3 2024.39 193.200   3
   1  -9   4-3.68431 21.4100   2
   1  -9   4 5.62359 14.0825   3
   1  -9   5 720.798 121.215   2
  -1   9  -6 450.258 104.690   1
   1  -9   6 628.354 114.094   2
  -1   9  -7 1013.08 158.965   1
   1  -9   7 1085.16 148.436   2
   1  -9   8 928.749 134.132   2
  -1   9  -8 842.372 142.807   1
  -1   9  -9 65.5523 39.7426   1
  -1   9 -10 109.174 46.9863   1
  -1   9 -11 186.785 66.6202   1
  -1   9 -12 285.633 80.4020   1
  -1   9 -13-25.9724 20.7604   1
  -1   9 -14 88.9017 47.9738   1
  -1   9 -15 126.499 60.7245   1
  -1   9 -16 21.4133 25.2067   1
  -1   9 -17 19.0259 37.4365   1
  -1   9 -18 28.4193 28.7902   1
  -1   9 -19 89.9297 53.0343   1
   1  -8 -14-11.8772 19.3322   3
   1  -8 -13-40.5254 33.6388   3
   1  -8 -12-3.44736 29.8050   2
   1  -8 -12 2.18621 23.6892   3
   1  -8 -11-0.35877 6.90061   3
   1  -8 -11 21.0041 19.8496   2
   1  -8 -10-20.0782 19.1640   3
   1  -8 -10 16.2463 24.7694   2
   1  -8  -9 9.80351 14.6738   3
   1  -8  -9 57.7937 47.0830   2
   1  -8  -8 160.014 59.4048   2
   1  -8  -8 231.843 67.2297   3
   1  -8  -7 299.050 75.6404   3
   1  -8  -7 261.750 75.2429   2
   1  -8  -6 7.12634 9.96610   3
   1  -8  -6 11.8809 16.3089   2
   1  -8  -5 6.73484 14.2932   2
   1  -8  -5 8.82981 19.5653   3
   1  -8  -4 47.9857 28.1591   3
   1  -8  -4 32.6282 27.3007   2
   1  -8  -3 60.4606 33.8446   3
   1  -8  -3 39.8660 16.8763   2
   1  -8  -2 7.02940 15.3126   3
  -1   8   2 32.1105 25.5254   3
   1  -8  -2-16.8569 29.7651   2
  -1   8   2-2.20382 12.3018   2
  -1   8   1-5.24522 22.8793   2
  -1   8   1-14.5798 15.4452   3
   1  -8  -1 34.4074 22.1763   3
   1  -8  -1-21.5851 28.3172   2
  -1   8   0 60.0972 35.5118   2
  -1   8   0 61.2376 27.8893   3
   1  -8   0 36.1382 20.7486   2
   1  -8   0 60.0259 32.1481   3
   1  -8   1 42.1284 23.5450   3
   1  -8   1 56.3099 33.1664   2
  -1   8  -1 48.6911 26.2918   3
  -1   8  -1 54.2379 35.3003   2
   1  -8   2 8.75999 19.4217   2
   1  -8   2 2.37113 13.2143   3
  -1   8  -2-29.4638 32.7395   2
  -1   8  -2-14.7939 15.2857   3
   1  -8   3 297.356 82.6023   2
   1  -8   3 208.337 58.9350   3
  -1   8  -3 166.230 62.2206   2
  -1   8  -3 242.354 59.7784   3
   1  -8   4 253.896 73.1519   2
   1  -8   4 113.156 45.8198   3
  -1   8  -4 69.3518 38.9822   2
  -1   8  -4 76.2106 37.4181   3
  -1   8  -5 29.2946 15.5686   3
   1  -8   5 144.377 50.2623   2
  -1   8  -6-2.35785 20.0863   3
  -1   8  -6 3.25080 10.1504   1
  -1   8  -7 38.1665 30.0089   1
   1  -8   7 216.612 69.6973   2
   1  -8   8 1481.04 165.188   2
  -1   8  -8 1327.22 163.778   1
  -1   8  -9 1191.06 153.905   1
  -1   8 -10 1447.35 169.882   1
  -1   8 -11 367.569 86.1309   1
  -1   8 -12 119.419 52.3569   1
  -1   8 -13 3.56096 15.3991   1
  -1   8 -14 32.5245 31.4279   1
  -1   8 -15 74.2511 42.3569   1
  -1   8 -16 14.7748 17.3468   1
  -1   8 -17 31.1963 35.8865   1
  -1   8 -18 80.0532 51.7405   1
  -1   8 -19 231.502 92.5885   1
  -1   8 -20-13.7298 22.1151   1
   1  -7 -15 26.0481 21.4181   2
   1  -7 -15 30.9741 29.7135   3
   1  -7 -14 124.999 60.3420   3
   1  -7 -14 144.602 78.3834   2
   1  -7 -13 186.574 78.3618   2
   1  -7 -13 276.519 84.0341   3
   1  -7 -12 202.248 67.5573   3
   1  -7 -12 233.336 78.2931   2
   1  -7 -11 26.4403 24.4392   3
   1  -7 -11 22.1387 36.3742   2
   1  -7 -10 1044.14 167.119   2
   1  -7 -10 1153.66 152.910   3
   1  -7  -9 3590.11 260.870   3
   1  -7  -9 3199.48 281.310   2
   1  -7  -8 1401.35 180.304   2
   1  -7  -8 1500.94 163.546   3
   1  -7  -7 117.298 50.5501   2
   1  -7  -7 70.0612 31.8845   3
   1  -7  -6 294.429 78.4355   2
   1  -7  -6 299.598 67.0949   3
   1  -7  -5 22.9496 18.2791   3
   1  -7  -5 21.2529 12.2957   2
   1  -7  -4-12.3999 19.0677   3
  -1   7   4 9.83141 13.6842   3
   1  -7  -4 6.47068 13.6475   2
  -1   7   3 49.9286 25.6166   3
   1  -7  -3 8.08471 16.5476   3
   1  -7  -3 11.0441 13.5233   2
  -1   7   3 6.42271 12.8569   2
  -1   7   2 32.2247 24.9953   3
   1  -7  -2 15.3066 21.2073   2
  -1   7   2 15.7299 23.4718   2
   1  -7  -2 24.7412 19.6776   3
   1  -7  -1 205.156 52.8633   2
  -1   7   1 252.225 76.2442   2
   1  -7  -1 201.998 51.6210   3
  -1   7   1 214.203 51.7536   3
  -1   7   0 397.486 91.7331   2
   1  -7   0 455.142 76.7709   3
   1  -7   0 279.339 64.7714   2
  -1   7   0 473.480 78.6110   3
  -1   7  -1 11.6405 12.5727   3
  -1   7  -1-5.49727 18.6458   2
   1  -7   1-13.8664 20.9520   2
   1  -7   1 19.2567 18.5191   3
  -1   7  -2-4.02108 10.7456   3
   1  -7   2 30.0953 22.8443   2
  -1   7  -2-15.1467 43.5853   2
   1  -7   2-3.93316 5.51894   3
   1  -7   3 20.2596 17.1019   3
  -1   7  -3 13.6354 16.5531   3
   1  -7   3 64.9553 38.9591   2
  -1   7  -3-9.67812 29.7470   2
  -1   7  -4-5.02807 16.7050   2
  -1   7  -4 1.76230 10.5137   3
   1  -7   5-1.98144 17.1684   2
  -1   7  -5 66.9288 40.5237   2
  -1   7  -5 12.7257 12.6719   3
  -1   7  -6 55.3644 44.5483   2
  -1   7  -6 18.2426 12.5596   1
   1  -7   6 86.7453 51.7486   2
  -1   7  -6 0.87713 16.3262   3
  -1   7  -7 1116.41 165.092   2
  -1   7  -7 853.205 112.785   3
  -1   7  -7 884.935 122.095   1
   1  -7   7 1071.04 133.988   2
  -1   7  -8 172.275 52.7671   3
   1  -7   8 381.999 84.6027   2
  -1   7  -8 226.615 61.4504   1
  -1   7  -9 198.492 55.8830   3
  -1   7  -9 147.013 48.2028   1
  -1   7 -10 869.105 122.841   1
  -1   7 -11 637.315 107.538   1
  -1   7 -12 149.696 52.7048   1
  -1   7 -13-4.10864 17.6778   1
  -1   7 -14 9.22632 15.4822   1
  -1   7 -15 242.655 76.7733   1
  -1   7 -16 9.78250 14.5861   1
  -1   7 -17 28.9834 26.3101   1
  -1   7 -18 27.3561 27.8684   1
  -1   7 -19 58.0390 48.5624   1
  -1   7 -20 24.7694 28.3931   1
   1  -6 -17 53.4439 39.3265   3
   1  -6 -17-2.48321 29.7493   2
   1  -6 -16 8.39858 15.7649   3
   1  -6 -16-7.87997 18.8808   2
   1  -6 -15-19.2585 22.8090   3
   1  -6 -15 12.9072 35.9529   2
   1  -6 -14 41.9828 39.1064   3
   1  -6 -14 17.4200 18.4285   2
   1  -6 -13 40.2642 30.6744   2
   1  -6 -13 33.2134 23.6493   3
   1  -6 -12 188.989 59.4395   3
   1  -6 -12 246.206 83.3044   2
   1  -6 -11 153.815 74.5078   2
   1  -6 -11 160.209 51.6989   3
   1  -6 -10 448.544 110.561   2
   1  -6 -10 326.409 75.4589   3
   1  -6  -9 1315.04 148.967   3
   1  -6  -9 1340.04 179.650   2
   1  -6  -8 161.232 58.6111   2
   1  -6  -8 146.918 47.4488   3
   1  -6  -7 2044.86 210.515   2
   1  -6  -7 1915.70 166.568   3
   1  -6  -6 3381.32 260.388   2
  -1   6   6 3401.69 246.770   1
   1  -6  -6 3284.28 210.850   3
   1  -6  -5 1316.87 157.613   2
   1  -6  -5 1309.34 129.404   3
  -1   6   5 1255.43 147.790   1
  -1   6   4 237.597 61.2064   1
  -1   6   4 244.520 54.6342   3
   1  -6  -4 191.069 58.0890   2
   1  -6  -4 202.875 49.0977   3
  -1   6   3 1568.50 175.730   2
   1  -6  -3 1605.53 163.176   2
  -1   6   3 1562.98 134.597   3
   1  -6  -3 1663.09 137.743   3
   1  -6  -2 1335.21 120.471   3
  -1   6   2 1185.03 150.126   2
   1  -6  -2 1246.34 141.964   2
   1  -6  -1 3084.15 219.712   2
  -1   6   1 3121.34 243.208   2
   1  -6  -1 3069.29 180.184   3
   1  -6   0 620.723 80.8038   3
  -1   6   0 529.642 102.061   2
   1  -6   0 497.229 86.0610   2
  -1   6  -1 378.999 84.4435   2
   1  -6   1 340.575 66.4099   2
   1  -6   1 378.667 62.5936   3
   1  -6   2-4.10983 8.67463   3
  -1   6  -2-0.55148 19.9378   2
   1  -6   2 12.8717 11.8072   2
   1  -6   3 267.794 66.0135   2
  -1   6  -3 216.741 64.0432   2
   1  -6   3 190.189 46.1423   3
  -1   6  -4 27.3411 23.1444   2
   1  -6   4 76.3747 45.4276   2
  -1   6  -5 130.653 42.6285   1
   1  -6   5 211.231 59.2768   2
  -1   6  -5 116.840 50.2379   2
  -1   6  -6 1291.77 133.832   1
  -1   6  -6 1153.22 117.741   3
  -1   6  -6 1155.49 154.723   2
   1  -6   6 1224.13 131.069   2
  -1   6  -7 1388.34 170.644   2
  -1   6  -7 1215.85 125.206   3
  -1   6  -7 1295.65 132.452   1
   1  -6   7 1599.58 149.787   2
   1  -6   8 1773.43 156.749   2
  -1   6  -8 1622.95 185.706   2
  -1   6  -8 1385.46 136.599   3
  -1   6  -8 1403.53 139.719   1
  -1   6  -9-21.0088 14.1344   2
  -1   6  -9-17.3823 16.9687   1
  -1   6  -9 0.21022 11.8729   3
  -1   6 -10 66.4038 27.0848   1
  -1   6 -10 84.9324 36.7500   3
  -1   6 -11 154.370 49.1712   1
  -1   6 -12 75.2244 34.6176   1
  -1   6 -13 33.8410 25.2093   1
  -1   6 -14 119.657 47.9298   1
  -1   6 -15 11.2289 23.0237   1
  -1   6 -16 40.1032 27.9937   1
  -1   6 -17 55.6780 36.1050   1
  -1   6 -18-35.4991 25.8947   1
  -1   6 -19 16.2928 22.4724   1
  -1   6 -20-29.6288 30.7738   1
  -1   6 -21 5.25697 28.5152   1
   1  -5 -19-5.56896 17.4771   2
   1  -5 -18-51.8675 38.8199   3
   1  -5 -18 9.20000 21.4568   2
   1  -5 -17 3.68551 13.9340   2
   1  -5 -17 21.9007 31.8291   3
   1  -5 -16-11.0922 39.1505   2
   1  -5 -16 19.0545 21.1493   3
   1  -5 -15 61.1431 45.5719   2
   1  -5 -15 53.3092 37.7859   3
   1  -5 -14 46.1508 32.3411   2
   1  -5 -14 10.9923 12.9749   3
   1  -5 -13-12.0528 11.3909   2
   1  -5 -13 26.6538 29.7600   3
   1  -5 -12 0.31395 24.9353   2
   1  -5 -12 0.06800 27.3300   3
   1  -5 -11-9.04909 19.3575   3
   1  -5 -11 2.72214 15.9571   2
   1  -5 -10 19.7260 22.1745   2
   1  -5 -10 12.3524 22.5306   3
   1  -5  -9 812.094 136.102   2
   1  -5  -9 799.823 109.060   3
   1  -5  -8 140.910 41.7982   3
   1  -5  -8 149.131 56.7873   2
  -1   5   8 142.427 47.0594   1
  -1   5   7 22.3017 16.3674   1
   1  -5  -7 36.5528 12.9829   3
   1  -5  -7 51.0355 35.4091   2
  -1   5   6 280.445 65.0189   1
   1  -5  -6 300.359 78.2893   2
   1  -5  -6 303.922 59.1854   3
  -1   5   5 647.392 95.6538   1
   1  -5  -5 669.519 109.225   2
   1  -5  -5 637.477 81.0921   3
   1  -5  -4 663.890 80.6773   3
   1  -5  -4 629.391 101.791   2
  -1   5   4 666.014 93.6173   1
   1  -5  -3 2728.07 157.589   3
   1  -5  -3 2665.21 203.973   2
  -1   5   3 2786.23 163.051   3
  -1   5   3 2647.64 212.638   2
  -1   5   2 124.869 45.0724   2
   1  -5  -2 118.276 39.0591   2
  -1   5   2 175.903 37.6643   3
   1  -5  -2 141.040 35.8393   3
   1  -5  -1 61.2759 30.8581   2
  -1   5   1 83.4129 39.7994   2
   1  -5  -1 77.9189 24.5373   3
  -1   5   1 85.2226 26.4679   3
  -1   5   0 1200.93 140.627   2
  -1   5   0 1092.31 93.6726   3
   1  -5   0 1300.74 102.760   3
   1  -5   0 1138.81 125.267   2
   1  -5   1 2740.10 189.627   2
  -1   5  -1 2847.87 152.080   3
  -1   5  -1 2737.52 212.609   2
   1  -5   1 2887.00 152.217   3
  -1   5  -2 1203.65 139.333   2
  -1   5  -2 1334.58 105.674   3
   1  -5   2 1308.71 103.047   3
   1  -5   2 1126.34 121.703   2
   1  -5   3 153.284 44.4763   2
  -1   5  -3 187.402 41.1035   3
  -1   5  -3 203.646 60.0229   2
  -1   5  -4 1546.10 159.066   2
  -1   5  -4 1425.32 113.133   3
   1  -5   4 1615.18 141.357   2
  -1   5  -5 29.7132 12.4833   2
   1  -5   5 141.745 49.8073   2
  -1   5  -5 54.0966 23.2606   1
  -1   5  -5 43.9618 22.8103   3
   1  -5   6 4526.26 236.778   2
  -1   5  -6 4626.48 226.747   1
  -1   5  -7 3127.66 189.937   1
   1  -5   7 3147.86 203.299   2
  -1   5  -8 138.185 42.3829   3
  -1   5  -8 105.031 41.4345   2
   1  -5   8 342.043 73.5835   2
  -1   5  -8 133.340 41.1338   1
  -1   5  -9 44.4519 20.9947   1
  -1   5  -9 39.8619 25.6329   2
  -1   5 -10 179.372 61.7706   2
   1  -5  10 149.423 45.7240   1
  -1   5 -10 122.422 41.6319   1
   1  -5  11 101.169 43.7670   1
  -1   5 -11 111.195 41.2351   1
   1  -5  12 3.32177 11.1545   1
  -1   5 -12 24.4757 23.8756   1
  -1   5 -13 1654.06 169.819   1
  -1   5 -14 460.753 92.4246   1
  -1   5 -15 3011.28 248.353   1
  -1   5 -16 428.252 96.5555   1
  -1   5 -17 108.370 53.2270   1
  -1   5 -18 39.5495 39.5777   1
  -1   5 -19 34.6321 23.1885   1
  -1   5 -20-1.60958 8.94345   1
  -1   5 -21 44.4509 45.8522   1
   1  -4 -20 29.2638 38.7811   2
   1  -4 -19-46.0861 36.8831   3
   1  -4 -19 31.0151 43.7381   2
   1  -4 -18 11.2644 27.0910   2
   1  -4 -18 39.3383 34.8064   3
   1  -4 -17 66.9711 43.2074   3
   1  -4 -17 32.5906 37.5036   2
   1  -4 -16 254.708 99.1565   2
   1  -4 -16 300.715 87.5354   3
   1  -4 -15 46.2855 49.9581   2
   1  -4 -15-2.79338 16.3299   3
   1  -4 -14-12.0590 17.7442   3
   1  -4 -14 23.1440 31.6167   2
   1  -4 -13 51.6423 38.4065   2
   1  -4 -13 59.3958 36.4489   3
   1  -4 -12-3.92751 9.71486   2
   1  -4 -12 26.7473 25.7511   3
   1  -4 -11 81.4254 52.1698   2
   1  -4 -11 51.1730 28.6820   3
   1  -4 -10 74.7567 34.5708   3
   1  -4 -10 101.593 51.0254   2
   1  -4  -9-6.56680 11.6293   2
  -1   4   9-4.73380 19.0892   1
   1  -4  -9 0.90743 17.6621   3
   1  -4  -8 3.90425 9.93085   3
   1  -4  -8-2.77773 15.7272   2
  -1   4   8-3.49291 18.0690   1
  -1   4   7 258.720 59.9145   1
   1  -4  -7 268.468 72.0258   2
   1  -4  -7 244.338 50.3136   3
   1  -4  -6 375.051 79.9758   2
   1  -4  -6 415.739 63.8986   3
  -1   4   6 390.370 71.0066   1
   1  -4  -5 3.69419 12.6315   2
   1  -4  -5 5.37490 8.73948   3
  -1   4   4 116.697 35.8679   1
   1  -4  -4 112.001 29.7956   3
   1  -4  -4 100.284 39.3583   2
  -1   4   3 191.118 42.3820   1
  -1   4   3 200.183 38.9620   3
   1  -4  -3 187.876 51.3539   2
   1  -4  -3 185.127 36.0995   3
   1  -4  -2 904.809 108.751   2
  -1   4   2 974.748 117.928   2
  -1   4   2 1066.12 82.1178   3
   1  -4  -2 1041.55 83.9948   3
  -1   4   1 308.168 42.7875   3
   1  -4  -1 280.646 60.2027   2
  -1   4   1 266.896 60.8830   2
   1  -4  -1 369.629 48.8405   3
  -1   4   0 19.3977 8.08573   3
  -1   4   0 5.65543 9.89914   2
   1  -4   0-0.47399 5.50123   2
   1  -4   0 37.9281 14.7139   3
   1  -4   1 1790.82 145.265   2
  -1   4  -1 1883.54 107.194   3
  -1   4  -1 1866.51 158.779   2
   1  -4   1 1955.55 107.945   3
  -1   4  -2 1204.56 125.709   2
   1  -4   2 1003.52 105.035   2
  -1   4  -2 1105.91 82.5747   3
   1  -4   2 1230.31 86.9052   3
   1  -4   3 978.961 104.564   2
  -1   4  -3 1077.31 84.1952   3
   1  -4   4 240.700 58.2622   2
  -1   4  -4 248.223 45.4326   1
  -1   4  -4 218.012 40.3201   3
   1  -4   5 538.849 81.0866   2
  -1   4  -5 431.700 61.8494   1
  -1   4  -5 506.637 64.7549   3
   1  -4   6 91.4350 34.6259   2
  -1   4  -6 34.5923 18.5315   1
   1  -4   7 868.378 101.670   2
  -1   4  -7 699.275 84.3034   1
   1  -4   8 1714.61 145.865   1
  -1   4  -8 1686.63 137.401   1
  -1   4  -9 384.823 81.7499   2
   1  -4   9 268.793 60.4633   1
  -1   4  -9 291.292 57.6608   1
   1  -4  10 128.226 43.5922   1
  -1   4 -10 206.209 63.4444   2
  -1   4 -10 122.751 41.9016   1
  -1   4 -11 909.032 128.310   2
  -1   4 -11 928.363 113.494   1
   1  -4  11 819.592 117.780   1
  -1   4 -12 882.464 117.249   1
  -1   4 -12 1109.75 146.506   2
   1  -4  12 987.296 133.406   1
  -1   4 -13 5480.90 305.130   1
   1  -4  13 5425.45 331.317   1
  -1   4 -14 1151.24 147.188   1
  -1   4 -15 591.187 108.240   1
  -1   4 -16 552.753 111.610   1
  -1   4 -17 35.8059 19.5835   1
  -1   4 -18 192.496 69.4923   1
  -1   4 -19 40.4525 31.0855   1
  -1   4 -20 99.7374 52.3479   1
  -1   4 -21 18.9298 27.0688   1
   1  -3 -20 136.722 68.0854   3
   1  -3 -19 155.128 66.5942   3
   1  -3 -18 127.795 63.4097   3
   1  -3 -17 29.4498 36.5743   3
   1  -3 -16 77.8193 47.2868   3
   1  -3 -15 1374.95 188.983   1
   1  -3 -15 1237.37 164.465   3
   1  -3 -14 61.0243 31.2284   1
   1  -3 -14 65.7388 38.6050   3
   1  -3 -13 21.7338 27.2088   1
   1  -3 -13 49.0024 33.3978   3
   1  -3 -12 141.605 52.0078   1
   1  -3 -12 168.642 54.1552   3
   1  -3 -11 40.1374 27.3093   1
   1  -3 -11 56.3755 35.7193   3
  -1   3  10-1.33457 6.39688   1
   1  -3 -10 7.93782 26.0776   3
  -1   3   9 86.0597 39.0150   1
   1  -3  -9 75.8789 33.2139   3
  -1   3   8 284.604 63.0061   1
   1  -3  -8 245.675 52.1628   3
   1  -3  -8 275.978 73.9891   2
   1  -3  -7 247.678 68.1507   2
   1  -3  -7 249.493 50.7870   3
   1  -3  -6 965.473 90.6703   3
   1  -3  -6 1015.16 130.740   2
   1  -3  -5 967.766 121.637   2
   1  -3  -5 952.700 84.2950   3
  -1   3   5 948.620 97.1786   1
   1  -3  -4 37.7084 26.4468   2
  -1   3   4 22.2556 14.6701   1
   1  -3  -4 20.7445 11.5220   3
  -1   3   3 1138.31 96.0832   1
   1  -3  -3 1164.01 122.122   2
   1  -3  -3 1042.46 75.8651   3
  -1   3   2 2231.95 102.080   3
   1  -3  -2 2095.46 158.243   2
   1  -3  -2 2095.84 98.5695   3
  -1   3   2 1992.59 155.841   2
  -1   3   1 516.502 44.8881   3
  -1   3   1 575.634 83.2174   2
   1  -3  -1 568.213 50.8421   3
   1  -3  -1 540.239 76.9878   2
   1  -3   0 815.022 91.6048   2
  -1   3   0 842.223 57.6969   3
   1  -3   0 791.435 57.1232   3
   1  -3   1 6676.39 166.670   3
  -1   3  -1 6897.68 168.322   3
   1  -3   1 6840.22 262.260   2
  -1   3  -2 158.150 26.7513   3
   1  -3   2 106.087 28.4800   2
  -1   3  -3 697.369 64.5823   1
  -1   3  -3 697.444 61.4107   3
   1  -3   3 671.544 79.4578   2
   1  -3   4 97.7304 35.0679   2
  -1   3  -4 23.5929 12.7819   1
   1  -3   5 4.94811 4.06576   1
   1  -3   5 1.09034 22.4321   2
  -1   3  -5 25.5476 13.8819   1
   1  -3   6 576.914 71.8460   1
   1  -3   6 669.018 83.5947   2
  -1   3  -6 610.781 69.3198   1
   1  -3   7 788.727 95.8667   2
   1  -3   7 703.874 83.3912   1
  -1   3  -7 699.568 79.6676   1
   1  -3   8 24.4547 18.6543   1
  -1   3  -8 37.2641 17.0603   1
  -1   3  -9 2864.74 177.442   1
   1  -3   9 2648.52 182.995   1
  -1   3  -9 2835.74 203.250   2
  -1   3 -10 1822.17 166.630   2
  -1   3 -10 1735.36 146.648   1
   1  -3  10 1844.97 161.675   1
   1  -3  11 1566.30 158.271   1
  -1   3 -11 1530.15 145.293   1
  -1   3 -11 1416.56 153.559   2
  -1   3 -12 3.02802 16.5819   1
   1  -3  12 1.80386 15.8084   1
  -1   3 -12-13.6887 28.2662   2
  -1   3 -13 66.8123 34.6079   1
  -1   3 -13 74.4204 41.3260   2
   1  -3  13 60.7485 29.9421   1
  -1   3 -14 337.573 78.6126   1
  -1   3 -15 285.993 75.9646   1
  -1   3 -16 375.681 90.9412   1
  -1   3 -17 89.8509 46.0317   1
  -1   3 -18 38.9793 37.1716   1
  -1   3 -19 108.953 52.7383   1
  -1   3 -20 204.001 75.0784   1
  -1   3 -21 59.6864 41.6964   1
   1  -2 -20 9.92348 28.0102   3
   1  -2 -19 32.2207 34.1533   1
   1  -2 -18 209.531 76.4545   1
   1  -2 -17 35.8941 28.5387   1
   1  -2 -16 7.07196 9.73145   1
   1  -2 -15 39.9706 39.7351   1
   1  -2 -14 137.817 51.4903   1
   1  -2 -13 95.1740 41.6245   1
   1  -2 -12 299.393 73.2422   1
  -1   2  11 84.6665 37.9223   1
   1  -2 -11 129.859 46.9866   1
  -1   2  10 100.906 38.7427   1
   1  -2 -10 99.2103 39.3895   1
  -1   2   9 1386.67 142.188   1
   1  -2  -9 1459.26 139.748   1
   1  -2  -8 10434.5 358.171   1
  -1   2   7 1025.91 107.500   1
   1  -2  -7 1034.13 105.446   1
  -1   2   6 575.637 74.1294   1
   1  -2  -6 540.842 71.7595   1
  -1   2   5 38.6578 13.3188   1
   1  -2  -5 70.9804 23.6552   1
   1  -2  -5 68.3383 31.7417   2
   1  -2  -5 50.2302 20.0895   3
   1  -2  -4 110.130 39.0746   2
  -1   2   4 110.755 26.7326   1
   1  -2  -4 117.671 25.8767   3
  -1   2   3 55.5040 17.2919   1
   1  -2  -3 54.3618 14.4393   3
   1  -2  -3 74.7378 29.6560   2
   1  -2  -2 568.099 41.1064   3
  -1   2   2 642.662 55.4346   1
   1  -2  -2 661.330 82.7277   2
   1  -2  -1 2913.83 166.040   2
   1  -2  -1 3103.48 85.3792   3
  -1   2   1 2904.05 77.0958   3
   1  -2   0 14233.2 354.475   2
  -1   2   0 14791.4 173.552   3
   1  -2   0 14755.6 172.048   3
  -1   2  -1 47061.5 337.316   3
   1  -2   1 45660.7 620.893   2
   1  -2   2 862.850 83.4147   2
  -1   2  -2 983.014 56.2860   1
  -1   2  -3 48.2780 15.2861   1
   1  -2   3 21.5859 12.7838   2
   1  -2   3 50.9018 16.7353   1
   1  -2   4 52.2920 32.0600   2
   1  -2   4 1.86649 4.68609   1
  -1   2  -4 5.38039 6.84983   1
   1  -2   5 52.8965 25.7758   2
  -1   2  -5 31.9209 15.3658   2
  -1   2  -5 49.3126 19.9558   1
   1  -2   5 55.0813 18.5709   1
   1  -2   6 388.021 63.6257   2
  -1   2  -6 319.707 61.6752   2
  -1   2  -6 286.008 45.6176   1
   1  -2   6 269.116 47.8255   1
  -1   2  -7 371.825 57.3121   1
   1  -2   7 394.501 62.2393   1
  -1   2  -7 427.906 73.2080   2
   1  -2   8 27.9159 10.6865   1
  -1   2  -8 23.5262 17.6574   1
  -1   2  -8 106.648 46.9031   2
  -1   2  -9 14.3624 12.9312   1
   1  -2   9 18.5334 19.7074   1
  -1   2 -10 358.428 67.4036   1
   1  -2  10 360.770 72.1184   1
  -1   2 -10 368.611 71.3758   2
  -1   2 -11 1164.76 127.572   1
   1  -2  11 1050.82 130.307   1
  -1   2 -11 1022.12 121.708   2
  -1   2 -12 1055.44 127.623   2
  -1   2 -12 1051.32 127.241   1
   1  -2  12 936.551 129.733   1
   1  -2  13 64.3759 35.6030   1
  -1   2 -13 36.8095 23.2388   1
  -1   2 -13 100.654 46.8433   2
  -1   2 -14 171.334 57.2078   1
  -1   2 -15 250.353 70.3368   1
  -1   2 -16 1190.68 157.124   1
  -1   2 -17 717.598 126.858   1
  -1   2 -18 236.968 75.2050   1
  -1   2 -19 6.03338 16.0853   1
  -1   2 -20 112.151 60.1431   1
  -1   2 -21 41.3065 29.4072   1
   1  -1 -20 8.91585 41.8746   1
   1  -1 -19 92.1357 54.3067   1
   1  -1 -18 9.87823 14.0292   1
   1  -1 -17 8.98435 12.2737   1
   1  -1 -16 91.4086 46.5937   1
   1  -1 -15 86.3995 42.9840   1
   1  -1 -14 84.6545 41.5915   1
   1  -1 -13 45.3551 23.4160   1
   1  -1 -12 6.08382 6.48295   1
  -1   1  12 3.57375 17.3300   1
  -1   1  11 292.698 68.1789   1
   1  -1 -11 359.642 73.6340   1
   1  -1 -10 22.4592 16.3304   1
  -1   1  10 14.2554 16.1845   1
   1  -1  -9 1.04963 11.1379   1
   1  -1  -8 527.871 74.3613   1
  -1   1   7 1077.13 105.068   1
   1  -1  -7 1037.36 98.8031   1
  -1   1   6 6332.56 236.484   1
   1  -1  -6 6258.80 224.520   1
   1  -1  -5 7315.69 221.269   1
  -1   1   5 7461.53 236.151   1
   1  -1  -4 2188.47 108.985   1
  -1   1   4 2245.55 116.676   1
   1  -1  -3 1910.66 141.865   2
  -1   1   3 1850.77 93.0938   1
   1  -1  -3 1779.48 85.0380   1
   1  -1  -2 59800.1 421.207   1
  -1   1   2 60291.1 461.275   1
   1  -1  -2 61601.8 745.112   2
  -1   1   1 72647.2 383.459   1
   1  -1  -1 79866.0 790.010   2
   1  -1   0 43547.7 562.894   2
   1  -1   1 28315.1 442.287   2
  -1   1  -2 416.402 33.7971   1
   1  -1   2 472.995 33.1420   1
   1  -1   2 386.783 48.4493   2
  -1   1  -2 389.821 53.3756   2
   1  -1   3 1583.49 99.7014   2
  -1   1  -3 1649.96 110.650   2
  -1   1  -3 1737.55 84.9575   1
   1  -1   3 1718.89 79.4500   1
   1  -1   4 1.71943 5.39729   1
   1  -1   4 57.9257 27.6961   2
  -1   1  -4-4.27658 6.05632   2
  -1   1  -4 6.56409 6.70611   1
  -1   1  -5 615.648 74.5897   2
   1  -1   5 754.146 73.9238   2
  -1   1  -5 649.130 66.1060   1
   1  -1   5 588.472 62.2649   1
  -1   1  -6 140.719 33.5161   1
  -1   1  -6 153.945 44.0234   2
   1  -1   6 128.412 32.7449   1
  -1   1  -7 3991.10 188.128   1
  -1   1  -7 4024.77 200.476   2
   1  -1   7 4087.21 197.730   1
   1  -1   8 2943.18 180.862   1
  -1   1  -8 2845.60 172.733   2
  -1   1  -8 2856.18 172.060   1
  -1   1  -9 35.9790 22.0888   1
  -1   1  -9 70.0092 38.7582   2
   1  -1   9 34.6912 19.4271   1
  -1   1 -10 717.944 96.5010   1
   1  -1  10 704.567 99.7705   1
  -1   1 -11 420.689 81.7302   2
  -1   1 -11 388.226 74.5778   1
   1  -1  11 374.268 77.1089   1
   1  -1  12 6.57412 17.5977   1
  -1   1 -12 99.7066 47.5151   2
  -1   1 -12 29.8420 28.4898   1
  -1   1 -13-26.2349 21.9303   1
  -1   1 -13 95.2588 53.0511   2
  -1   1 -14 97.8104 54.5158   2
  -1   1 -14 34.6461 28.1602   1
  -1   1 -15 125.005 50.3661   1
  -1   1 -16 109.640 47.1751   1
  -1   1 -17 208.673 67.8371   1
  -1   1 -18 649.359 127.149   1
  -1   1 -19 464.674 115.119   1
  -1   1 -20 43.1470 40.8457   1
  -1   1 -21 3.63266 30.8395   1
   1   0 -21 127.699 67.7764   1
   1   0 -20-19.1087 33.6287   1
   1   0 -19 75.7427 48.6772   1
   1   0 -18 12.6710 12.8253   1
   1   0 -17 18.6728 20.9831   1
   1   0 -16 18.2161 18.9147   1
   1   0 -15 6.45949 17.8735   1
   1   0 -14 226.623 63.3468   1
   1   0 -13 174.802 51.0781   1
   1   0 -12 8.20103 13.9324   1
  -1   0  12 15.8307 16.9395   1
   1   0 -11-8.96339 10.4402   1
  -1   0  11 21.0889 21.5616   1
   1   0 -10-8.65381 7.67783   1
  -1   0  10 2.84711 7.56437   1
   1   0  -9 148.359 40.8661   1
   1   0  -8 1072.50 104.539   1
  -1   0   8 998.437 106.319   1
   1   0  -7 246.609 47.8931   1
  -1   0   7 240.857 47.6338   1
   1   0  -6 42.5120 18.2660   1
  -1   0   6 25.7019 15.1119   1
   1   0  -5 889.600 74.9830   1
  -1   0   5 911.597 78.8575   1
   1   0  -4 1887.64 98.5169   1
  -1   0   4 1951.53 103.899   1
   1   0  -3 1492.48 75.0171   1
  -1   0   3 1414.62 75.5368   1
   1   0  -2 7361.81 137.241   1
   1   0  -2 7366.46 117.055   3
  -1   0   2 7509.94 144.897   1
   1   0  -1 736.353 34.2471   3
   1   0  -1 694.715 68.8473   2
  -1   0   1 764.596 33.2558   3
   1   0  -1 762.687 35.5002   1
  -1   0   0 10568.9 246.372   2
   1   0   0 10930.5 249.347   2
   1   0   0 10169.7 146.944   3
  -1   0   0 10545.7 137.181   3
   1   0   1 21443.2 218.092   1
   1   0   1 21763.1 339.099   2
  -1   0  -1 21441.4 346.330   2
  -1   0  -1 21715.9 240.688   3
  -1   0  -2 54811.0 547.094   2
   1   0   2 54856.2 520.000   2
   1   0   2 56315.2 417.080   1
  -1   0  -3 3500.26 123.112   1
   1   0   3 3462.10 123.271   1
   1   0   3 3364.23 127.387   2
  -1   0  -3 3287.31 136.070   2
   1   0   4 85.8872 22.5033   1
  -1   0  -4 68.3093 19.5874   2
  -1   0  -4 96.6545 25.9773   1
   1   0   4 177.298 38.1509   2
  -1   0  -5 10058.7 264.694   2
   1   0   5 10047.4 273.516   1
  -1   0  -5 9947.62 263.366   1
  -1   0  -6 707.644 75.9052   1
  -1   0  -6 726.217 74.6959   2
   1   0   6 677.937 78.8917   1
  -1   0  -7 7844.27 254.470   2
   1   0   7 8144.88 290.595   1
  -1   0  -7 7952.18 274.335   1
  -1   0  -8 2242.56 157.347   1
  -1   0  -8 2188.26 140.394   2
   1   0   8 2192.79 160.711   1
   1   0   9 4.72944 9.61315   1
  -1   0  -9 2.46653 15.4773   1
   1   0  10 5.34947 9.61184   1
  -1   0 -10-0.45144 6.86264   1
   1   0  11 20.4878 24.2267   1
  -1   0 -11 31.3434 26.7824   1
   1   0  12 8.05430 19.9820   1
  -1   0 -12 26.4363 23.6872   1
  -1   0 -13 182.600 60.9366   2
  -1   0 -13 9.05835 13.6912   1
  -1   0 -14 354.103 83.2195   2
  -1   0 -14 197.192 63.4843   1
  -1   0 -15 464.919 100.829   1
  -1   0 -16 923.658 148.681   1
  -1   0 -17 89.4662 47.3139   1
  -1   0 -18 20.6617 36.3323   1
  -1   0 -19 142.690 62.1715   1
  -1   0 -20-55.7641 41.6264   1
   1   1 -21 567.709 125.096   1
   1   1 -20 35.9851 26.5243   1
   1   1 -19 14.0187 38.8232   1
   1   1 -18 13.5905 25.5625   1
   1   1 -17 145.543 57.3793   1
   1   1 -16 837.480 131.671   1
   1   1 -15 2005.07 194.688   1
   1   1 -14 1171.29 142.689   1
   1   1 -13 26.6653 22.6829   1
  -1  -1  13 65.8333 36.0486   1
   1   1 -12 55.6276 31.9556   1
  -1  -1  12 30.1809 30.4004   1
  -1  -1  11 388.926 80.3221   1
   1   1 -11 363.366 72.5492   1
  -1  -1  10 95.7762 38.8442   1
   1   1 -10 97.8740 34.8987   1
   1   1  -9 81.3153 30.0040   1
   1   1  -8 632.775 78.4779   1
  -1  -1   8 638.279 85.7870   1
   1   1  -7 230.925 43.7321   1
  -1  -1   7 201.979 46.2301   1
   1   1  -6 571.792 64.8196   1
  -1  -1   6 568.989 68.0312   1
  -1  -1   5 170.769 33.7972   1
   1   1  -5 149.789 29.7999   1
   1   1  -4 145.827 26.8166   3
   1   1  -4 139.934 28.2492   1
  -1  -1   4 140.215 29.6136   1
   1   1  -3 12.9469 8.68416   3
   1   1  -3 7.07690 4.59942   1
  -1  -1   3 10.2890 9.52012   1
   1   1  -2 1939.58 93.3398   1
   1   1  -2 1952.43 82.4040   3
  -1  -1   2 1910.09 80.2023   3
   1   1  -1 12235.4 208.696   3
  -1  -1   1 12293.4 204.304   3
  -1  -1   0 426.918 39.7161   3
   1   1   0 411.543 41.9885   2
   1   1   0 417.194 38.6696   3
  -1  -1  -1 3068.43 111.436   3
   1   1   1 3231.76 107.598   2
  -1  -1  -1 3046.85 106.304   2
   1   1   1 3180.39 117.117   3
   1   1   2 17844.8 228.119   2
  -1  -1  -2 18021.9 295.622   3
  -1  -1  -2 17689.6 253.398   2
   1   1   3 19316.4 238.895   2
   1   1   3 19745.9 346.999   1
  -1  -1  -3 19707.6 344.229   3
  -1  -1  -3 19319.0 272.464   2
  -1  -1  -4 4293.10 138.539   2
   1   1   4 4187.77 171.165   1
  -1  -1  -4 4214.06 178.439   3
  -1  -1  -5 2489.65 142.143   1
  -1  -1  -5 2440.49 114.157   2
  -1  -1  -5 2423.78 140.460   3
   1   1   5 2326.79 138.105   1
   1   1   6 3.30723 4.29207   1
  -1  -1  -6 22.3749 19.0436   2
  -1  -1  -6 6.86855 6.95497   1
  -1  -1  -7 846.670 76.9506   2
  -1  -1  -7 920.316 101.132   1
   1   1   7 877.451 98.8907   1
  -1  -1  -8 427.117 61.4087   2
   1   1   8 378.783 70.9362   1
  -1  -1  -8 384.786 69.7739   1
  -1  -1  -9 1208.20 128.115   1
   1   1   9 1269.25 136.697   1
  -1  -1  -9 1163.82 103.371   2
  -1  -1 -10 266.672 64.1033   1
   1   1  10 266.306 66.6603   1
  -1  -1 -10 397.573 69.7268   2
  -1  -1 -11 238.425 63.4835   1
   1   1  11 234.676 65.5195   1
  -1  -1 -12 211.899 64.4887   2
  -1  -1 -12 24.5376 11.1734   1
  -1  -1 -13 183.497 68.0263   2
  -1  -1 -13-1.03551 13.3433   1
  -1  -1 -14 436.663 88.9708   2
  -1  -1 -14 356.154 88.4518   1
  -1  -1 -15 543.771 105.912   2
  -1  -1 -15 440.757 102.438   1
  -1  -1 -16-7.29695 16.9768   1
  -1  -1 -17 2.61724 13.1333   1
  -1  -1 -18 108.861 51.4945   1
  -1  -1 -19 13.5193 18.1909   1
   1   2 -21 64.3997 49.9165   1
   1   2 -20 19.6445 23.3802   1
   1   2 -19 113.024 51.3764   1
   1   2 -18 1.24964 24.3633   1
   1   2 -17 803.796 137.628   1
   1   2 -16 1050.02 149.861   1
   1   2 -15 418.798 91.6772   1
   1   2 -14 14987.5 528.592   1
   1   2 -13 56.0001 32.2976   1
  -1  -2  13 52.5773 38.5653   1
   1   2 -12-5.08779 9.29390   1
  -1  -2  12-6.90720 18.1661   1
   1   2 -11-1.26447 9.15106   1
  -1  -2  11 33.6327 27.0978   1
   1   2 -10 11.6262 5.78424   1
  -1  -2  10-4.71578 7.48892   1
   1   2  -9 450.814 70.5961   1
   1   2  -8 2544.05 160.941   1
  -1  -2   8 2480.31 171.011   1
   1   2  -7 2130.27 141.782   1
  -1  -2   7 2296.32 157.069   1
   1   2  -6 50.0348 20.7314   1
  -1  -2   6 50.3016 21.3462   1
   1   2  -5 3097.28 142.412   3
   1   2  -5 3153.26 156.533   1
  -1  -2   5 2831.71 166.324   1
   1   2  -4 785.148 77.3194   1
   1   2  -4 842.419 70.3304   3
   1   2  -3 1617.86 94.0810   3
   1   2  -3 1583.68 104.073   1
  -1  -2   3 1615.10 93.0414   3
  -1  -2   2 386.680 45.3909   3
   1   2  -2 418.777 48.2353   3
   1   2  -1 3200.82 131.665   3
  -1  -2   1 3020.63 126.770   3
  -1  -2   0 1695.40 95.2531   3
   1   2   0 1835.54 100.326   3
   1   2   1 1480.65 92.3682   3
  -1  -2  -1 1405.35 91.8972   3
   1   2   2 107.618 26.8123   3
  -1  -2  -2 109.828 27.5771   3
  -1  -2  -3 185.199 36.5729   3
   1   2   3 232.919 41.4827   3
   1   2   4 533.119 68.9253   1
  -1  -2  -4 563.325 68.2149   3
  -1  -2  -4 545.044 39.1901   2
  -1  -2  -5 907.901 58.9308   2
  -1  -2  -5 905.078 91.3587   3
   1   2   5 867.593 94.0355   1
  -1  -2  -6 65.6930 28.4646   3
  -1  -2  -6 153.613 32.3099   2
   1   2   6 50.5596 21.5164   1
  -1  -2  -7 4.37509 7.90883   3
   1   2   7-4.15552 9.11958   1
  -1  -2  -8 10.9987 10.1212   3
   1   2   8 9.54952 10.5750   1
   1   2   9 1318.99 146.412   1
  -1  -2  -9 1390.81 142.174   3
  -1  -2 -10 974.661 123.772   3
   1   2  10 932.010 127.592   1
  -1  -2 -11 41.7578 27.1718   3
  -1  -2 -12 13.4584 12.0097   3
  -1  -2 -13 41.7600 27.2279   3
  -1  -2 -14 100.549 53.2376   3
  -1  -2 -15 34.5578 33.8080   3
  -1  -2 -15 198.554 71.6696   2
  -1  -2 -16 71.2212 57.6078   3
  -1  -2 -17 17.5018 28.2840   3
  -1  -2 -18 49.7288 45.3524   3
  -1  -2 -19 7.68012 8.36271   3
   1   3 -21 24.7723 29.4156   1
   1   3 -20-73.2656 45.6206   1
   1   3 -19 9.15713 16.2296   1
   1   3 -18-15.6130 22.3972   1
   1   3 -17 649.541 124.751   1
   1   3 -16 226.012 70.5600   1
   1   3 -15 37.6849 22.8218   1
   1   3 -14 9.27114 20.7048   1
   1   3 -13 944.151 125.977   1
   1   3 -12 3301.29 227.765   1
  -1  -3  12 3369.96 254.356   1
   1   3 -11 903.667 114.090   1
  -1  -3  11 888.788 125.358   1
  -1  -3  10 903.728 122.335   1
   1   3 -10 785.249 103.245   1
   1   3  -9 122.879 38.8499   1
  -1  -3   9 124.732 41.1963   1
   1   3  -8 331.276 58.1035   3
   1   3  -8 369.208 65.4226   1
   1   3  -7 20989.3 482.424   1
   1   3  -7 20914.2 441.675   3
   1   3  -6 741.534 87.2165   1
   1   3  -6 805.949 83.9133   3
   1   3  -5 303.988 53.7481   1
   1   3  -5 216.151 40.8845   3
   1   3  -4-3.09761 7.50846   1
  -1  -3   4 7.42663 12.1636   3
   1   3  -4-2.04252 10.1712   3
  -1  -3   3 255.248 42.5358   3
   1   3  -3 257.219 43.9795   3
  -1  -3   2 153.532 32.2777   3
   1   3  -2 198.192 39.0564   3
  -1  -3   1 611.961 67.0756   3
   1   3  -1 527.099 61.8223   3
   1   3   0 2811.08 146.150   3
  -1  -3   0 2966.96 145.841   3
  -1  -3  -1 1675.47 113.086   3
  -1  -3  -2 7445.07 243.991   3
  -1  -3  -3 935.742 90.5416   3
   1   3   4 192.635 45.4647   1
  -1  -3  -4 228.189 46.7960   3
  -1  -3  -5 251.530 51.5799   3
  -1  -3  -5 259.803 25.2934   2
   1   3   5 246.880 53.7497   1
   1   3   6 592.257 87.5641   1
  -1  -3  -6 700.005 50.9047   2
  -1  -3  -6 563.395 80.1608   3
   1   3   7 692.051 97.9200   1
  -1  -3  -7 673.001 91.9753   3
   1   3   8 400.589 77.3311   1
  -1  -3  -8 387.760 71.6251   3
  -1  -3  -9 3.26758 10.4471   3
   1   3   9 13.7330 4.87921   1
  -1  -3 -10 241.914 60.8524   3
  -1  -3 -11-3.88405 24.4160   3
  -1  -3 -12 194.295 60.9325   3
  -1  -3 -13 6.87955 12.3394   3
  -1  -3 -14 104.418 51.4461   3
  -1  -3 -15 181.757 71.4931   3
  -1  -3 -16 17.0221 15.4054   3
  -1  -3 -17 144.189 61.5927   3
  -1  -3 -18 94.1796 52.2140   3
   1   4 -21 44.8598 44.5232   1
   1   4 -20-5.43119 36.4040   1
   1   4 -19 60.8968 41.3918   1
   1   4 -18-3.51046 10.8377   1
   1   4 -17 27.1248 27.0945   1
   1   4 -16 35.9471 28.8622   1
   1   4 -15 112.972 47.1902   1
   1   4 -14 237.501 67.0304   1
   1   4 -13 125.689 45.5017   1
  -1  -4  12-4.02022 20.5496   1
   1   4 -12 9.30201 14.9547   1
   1   4 -11 350.474 76.2996   1
  -1  -4  11 314.986 78.8122   1
   1   4 -11 343.683 68.2558   3
   1   4 -10 224.938 60.0857   1
   1   4 -10 148.381 43.7557   3
  -1  -4  10 171.669 55.3524   1
   1   4  -9 133.187 46.8896   1
   1   4  -9 113.620 37.6748   3
   1   4  -8 64.3846 35.7513   1
   1   4  -8 78.9989 30.8215   3
   1   4  -7 545.302 75.6136   3
   1   4  -7 637.506 89.8831   1
   1   4  -6 1280.48 113.940   3
   1   4  -6 1337.82 128.801   1
   1   4  -5 2172.00 162.766   1
   1   4  -5 2266.99 147.740   3
  -1  -4   5 2189.10 144.562   3
  -1  -4   4 2266.96 143.408   3
   1   4  -4 2128.06 141.245   3
   1   4  -3 33.4160 16.8868   3
  -1  -4   3 25.0161 15.1487   3
  -1  -4   2 145.239 36.8426   3
   1   4  -2 237.226 39.7993   2
  -1  -4   1 2624.76 151.649   3
   1   4  -1 2627.75 105.164   2
   1   4   0 9679.67 172.914   2
  -1  -4   0 9636.04 296.267   3
  -1  -4  -1 1065.25 99.7587   3
  -1  -4  -2 2429.69 155.794   3
  -1  -4  -3 353.494 60.3152   3
  -1  -4  -4 131.538 37.9879   3
  -1  -4  -5 85.4460 31.9550   3
   1   4   5 35.5660 19.9369   1
   1   4   6 626.243 97.8964   1
  -1  -4  -6 553.909 46.2524   2
  -1  -4  -6 629.992 89.7004   3
  -1  -4  -7 89.1733 34.4813   3
  -1  -4  -7 57.4186 18.0874   2
   1   4   7 110.726 41.5001   1
  -1  -4  -8 2935.22 207.867   3
  -1  -4  -8 3044.19 153.231   2
  -1  -4  -9 5709.87 303.142   3
  -1  -4 -10 40.0277 26.3583   3
  -1  -4 -11 489.823 95.6982   3
  -1  -4 -12 36.0245 22.6562   3
  -1  -4 -13-7.05773 17.4452   3
  -1  -4 -14 28.4288 28.7226   3
  -1  -4 -15 43.9986 32.9304   3
  -1  -4 -16 0.30597 9.20720   3
  -1  -4 -17-15.1219 38.7905   3
   1   5 -21 47.0656 43.7063   1
   1   5 -20 81.8202 50.6891   1
   1   5 -19 64.6480 46.1215   1
   1   5 -18 27.9143 28.3030   1
   1   5 -17 20.9553 14.3271   1
   1   5 -16 1.21047 25.5593   1
   1   5 -15 0.56705 12.8794   1
   1   5 -14 11.7014 16.4336   1
   1   5 -13 8.36404 15.2782   1
   1   5 -12 105.357 42.9855   1
   1   5 -11 99.1994 42.4827   3
   1   5 -11 68.5182 36.9117   1
   1   5 -10 154.674 53.0482   1
   1   5 -10 170.066 50.0372   3
   1   5  -9 13.6724 9.26867   3
   1   5  -9 16.5123 18.4478   1
   1   5  -8 271.638 63.8311   1
   1   5  -8 356.164 68.4985   3
   1   5  -7 528.545 90.2163   1
   1   5  -7 510.496 79.3023   3
   1   5  -6 25.7976 18.9020   1
  -1  -5   6 19.4973 16.4619   3
   1   5  -6 11.4035 11.1732   3
  -1  -5   5 248.865 52.4051   3
   1   5  -5 244.805 53.4779   3
   1   5  -4 883.524 92.4649   2
  -1  -5   4 1016.11 104.390   3
   1   5  -4 892.881 102.678   3
   1   5  -3 3.63722 15.5658   2
  -1  -5   3 18.8795 20.0729   3
   1   5  -2 86.9984 28.7434   2
  -1  -5   2 31.1061 12.4719   3
   1   5  -1-7.63101 11.5191   2
  -1  -5   1 2.99553 12.8647   3
   1   5   0 127.898 24.7821   2
  -1  -5   0 73.9404 27.7479   3
   1   5   1 835.816 52.2136   2
  -1  -5  -1 1172.48 115.448   3
   1   5   2 976.656 109.344   3
  -1  -5  -2 953.124 106.890   3
   1   5   3 1950.57 159.376   3
  -1  -5  -3 2058.38 160.675   3
  -1  -5  -4 2.06678 10.9538   3
   1   5   4-17.9349 15.5168   3
  -1  -5  -5 43.1913 21.6224   3
   1   5   5 81.7194 35.9737   1
   1   5   5 42.8433 24.5761   3
  -1  -5  -6 2276.31 74.4764   2
  -1  -5  -6 2324.50 186.187   3
  -1  -5  -7 2129.53 97.3430   2
  -1  -5  -7 2174.19 186.022   3
  -1  -5  -8 1634.34 165.493   3
  -1  -5  -8 1585.18 99.2168   2
  -1  -5  -9 1337.24 101.741   2
  -1  -5  -9 1678.72 173.206   3
  -1  -5 -10 70.4799 42.9778   3
  -1  -5 -10 36.0986 16.4950   2
  -1  -5 -11-8.06586 13.9257   3
  -1  -5 -11 33.6568 18.7244   2
  -1  -5 -12 113.988 47.7175   3
  -1  -5 -12 50.8982 23.6303   2
  -1  -5 -13 1.95235 13.1356   2
  -1  -5 -13-2.33216 23.6984   3
  -1  -5 -14-16.7361 23.5922   3
  -1  -5 -15 290.645 87.4344   3
  -1  -5 -16 133.442 62.9336   3
   1   6 -21 418.853 123.484   1
   1   6 -20 385.978 111.301   1
   1   6 -19 40.1429 35.0287   1
   1   6 -18 45.2285 36.8067   1
   1   6 -17-11.8542 33.8291   1
   1   6 -16 1.18534 17.0400   1
   1   6 -15 194.386 66.9307   1
   1   6 -14 56.2600 38.9716   1
   1   6 -13 530.227 105.999   1
   1   6 -12 33.4104 28.2547   1
   1   6 -11-1.73636 17.5947   1
   1   6 -10 149.218 52.4085   1
   1   6  -9 72.6153 33.4660   1
   1   6  -9 83.8462 35.7548   3
   1   6  -8 14.2607 15.8804   1
   1   6  -8 38.9506 28.4488   3
   1   6  -7 206.866 54.8403   3
   1   6  -7 371.986 73.0875   2
   1   6  -7 267.742 70.0215   1
  -1  -6   6-6.60738 11.6438   3
   1   6  -6 28.6156 25.0174   3
   1   6  -5 75.7531 33.3931   3
   1   6  -5 90.8027 36.1947   2
  -1  -6   5 90.3828 36.1363   3
  -1  -6   4 67.7404 28.3692   3
   1   6  -4 94.0543 35.4313   3
   1   6  -4 163.528 45.5946   2
   1   6  -3 50.7743 31.1655   3
   1   6  -3 76.8318 31.1612   2
  -1  -6   3 64.9927 28.3633   3
   1   6  -2-10.8140 16.7019   2
   1   6  -2-9.67570 13.7682   3
  -1  -6   2 1.56693 4.83934   3
   1   6  -1 280.223 61.6922   3
   1   6  -1 336.073 49.7664   2
  -1  -6   1 304.334 60.3288   3
   1   6   0 316.320 44.3502   2
  -1  -6   0 300.890 62.7391   3
   1   6   0 292.053 63.4992   3
   1   6   1 125.385 43.9163   3
   1   6   1 106.251 23.1878   2
  -1  -6  -1 125.784 42.5437   3
  -1  -6  -2 548.597 87.9333   3
   1   6   2 504.080 86.0149   3
  -1  -6  -3 481.208 82.9405   3
  -1  -6  -4 680.735 101.797   3
  -1  -6  -5 262.501 65.6820   3
  -1  -6  -6 94.6189 42.5002   3
  -1  -6  -7-4.62099 8.23722   3
  -1  -6  -8 1348.07 75.1470   2
  -1  -6  -8 1376.00 162.960   3
  -1  -6  -9 192.855 63.0855   3
  -1  -6  -9 186.099 32.6051   2
  -1  -6 -10 688.783 71.1217   2
  -1  -6 -10 783.965 129.955   3
  -1  -6 -11 42.7252 33.9343   3
  -1  -6 -12 85.9346 37.9515   3
  -1  -6 -13 156.916 63.5967   3
  -1  -6 -14-40.0261 32.2114   3
   1   7 -20 58.5686 55.2649   1
   1   7 -19-7.00958 12.1668   1
   1   7 -18 40.5022 40.5468   1
   1   7 -17 5.07952 11.2034   1
   1   7 -16 159.310 62.8156   1
   1   7 -15 158.271 62.8435   1
   1   7 -14 236.457 77.4632   1
   1   7 -13 1486.13 184.794   1
   1   7 -12 45.3954 34.9779   1
   1   7 -11 161.637 56.9999   1
   1   7 -10-0.83353 8.92921   1
   1   7 -10 146.834 66.3613   2
   1   7  -9 60.3334 44.3953   1
   1   7  -9 162.073 71.5906   2
   1   7  -8 1038.07 129.635   2
   1   7  -8 884.057 135.003   1
   1   7  -7 1866.81 164.003   2
   1   7  -7 1962.20 202.243   1
  -1  -7   7 1715.71 162.048   3
  -1  -7   6 6085.29 304.640   3
   1   7  -6 5835.04 278.949   2
   1   7  -5 51.5861 34.9806   2
  -1  -7   5 2.04799 13.5713   3
   1   7  -4 1132.13 113.659   2
  -1  -7   4 1077.55 123.881   3
  -1  -7   3 1056.35 121.966   3
   1   7  -3 1056.67 105.146   2
  -1  -7   2 27.7652 16.5816   3
   1   7  -2 69.3497 29.9281   2
  -1  -7   1 4.87617 13.3315   3
   1   7  -1-7.47836 8.69391   2
  -1  -7   0-2.35633 10.4457   3
   1   7   0-4.72150 5.42279   2
   1   7   1-4.11886 3.33545   2
  -1  -7  -1-7.86377 21.2110   3
  -1  -7  -2 69.9943 30.3759   3
  -1  -7  -3 1.83286 15.5937   3
  -1  -7  -4 28.5785 20.9859   3
  -1  -7  -5 66.4158 35.5665   3
  -1  -7  -6 93.2605 42.4207   3
  -1  -7  -7 43.3952 31.1003   3
  -1  -7  -8 26.4941 8.02086   3
  -1  -7  -9 275.313 78.9411   3
  -1  -7 -10 730.134 130.733   3
  -1  -7 -11 716.056 134.261   3
  -1  -7 -12 57.1470 42.0523   3
  -1  -7 -13 5.82182 22.3209   3
   1   8 -19 23.0821 25.5400   1
   1   8 -18 2.82366 11.6147   1
   1   8 -17-2.48670 18.6910   1
   1   8 -16 5.32208 16.0984   1
   1   8 -15-18.3572 37.7763   1
   1   8 -14-27.2316 34.4116   1
   1   8 -13 100.066 55.0189   1
   1   8 -12 85.7390 45.5809   1
   1   8 -11 467.822 104.077   1
   1   8 -10-5.79864 23.0088   1
   1   8  -9 1049.95 140.360   2
   1   8  -9 1028.81 156.585   1
   1   8  -8 235.012 70.8492   2
   1   8  -8 183.879 65.2712   1
   1   8  -7 136.930 49.8772   2
  -1  -8   7 70.6281 37.1528   3
   1   8  -6 10849.5 404.038   2
  -1  -8   6 10455.8 425.057   3
   1   8  -5-15.9063 19.2611   2
  -1  -8   5 13.9485 21.5063   3
   1   8  -4 815.038 104.098   2
  -1  -8   4 805.868 114.569   3
  -1  -8   3 212.452 58.7588   3
   1   8  -3 253.743 57.4892   2
  -1  -8   2 3.74270 15.6992   3
   1   8  -2 7.45633 10.8622   2
   1   8  -1 60.2845 23.3746   2
  -1  -8   1 85.9852 38.4185   3
   1   8   0 356.395 55.0510   2
  -1  -8   0 333.587 77.1427   3
  -1  -8  -1 430.793 89.0195   3
  -1  -8  -2 110.674 44.9090   3
  -1  -8  -3 509.395 100.095   3
  -1  -8  -4 33.8172 21.3132   3
  -1  -8  -5 10.7217 24.1656   3
  -1  -8  -6 30.1636 30.7622   3
  -1  -8  -7 98.5067 54.1598   3
  -1  -8  -8 113.869 56.3350   3
  -1  -8  -9 36.2438 35.3766   3
  -1  -8 -10 48.1072 27.6541   3
  -1  -8 -11 78.7238 43.2729   3
   1   9 -18 0.24176 20.4579   1
   1   9 -17-3.28639 12.3775   1
   1   9 -16 125.186 72.0047   1
   1   9 -15 46.5192 30.1515   1
   1   9 -14 41.2295 34.4717   1
   1   9 -13-24.6163 26.6835   1
   1   9 -12 127.514 64.8509   1
   1   9 -11 18.3088 11.7409   1
   1   9 -10 17.6375 20.0085   1
   1   9  -9 67.8699 46.8574   1
   1   9  -8 105.839 58.5700   1
   1   9  -8 61.6829 39.5812   2
   1   9  -7 25.6853 22.4950   2
  -1  -9   7 22.9640 7.98895   3
   1   9  -6 1102.23 136.286   2
  -1  -9   6 1199.44 152.135   3
   1   9  -5 484.660 88.1720   2
  -1  -9   5 464.777 94.1949   3
  -1  -9   4 1084.06 141.730   3
   1   9  -4 1142.90 135.312   2
   1   9  -3 445.864 82.3793   2
  -1  -9   3 392.273 86.3796   3
  -1  -9   2 5.47256 14.2265   3
   1   9  -2-18.2395 25.2545   2
  -1  -9   1 18.7608 21.5999   3
   1   9  -1-39.0859 21.7305   2
  -1  -9   0 62.2464 34.8964   3
  -1  -9  -1 910.608 137.903   3
  -1  -9  -2 46.3537 32.5445   3
  -1  -9  -3 71.5308 42.6761   3
  -1  -9  -4-6.37120 24.3981   3
  -1  -9  -5 26.7815 35.4421   3
  -1  -9  -6 61.4346 35.4529   3
  -1  -9  -7 14.9863 28.7561   3
  -1  -9  -8 36.9199 24.8907   3
  -1  -9  -9 41.0125 31.2651   3
   1  10 -16 87.7711 58.6624   1
   1  10 -15 48.7376 54.0743   1
   1  10 -14 63.3589 42.0349   1
   1  10 -13 53.3546 43.7021   1
   1  10 -12 77.9084 54.7022   1
   1  10 -11 9.41816 8.66408   1
   1  10 -10-14.3393 29.5331   1
   1  10  -9 175.691 68.6872   1
   1  10  -8 36.0914 42.2108   1
  -1 -10   7-2.44016 25.9264   3
  -1 -10   6 134.282 56.4556   3
  -1 -10   5 119.616 51.9075   3
  -1 -10   4 82.3159 40.2984   3
  -1 -10   3 328.456 84.9102   3
  -1 -10   2-3.48326 17.2678   3
  -1 -10   1 18.3754 27.8645   3
  -1 -10   0 7.85844 19.1403   3
  -1 -10  -1 174.350 64.8924   3
  -1 -10  -2 100.699 50.6460   3
  -1 -10  -3 17.1011 24.5568   3
  -1 -10  -4 63.4153 36.3443   3
  -1 -10  -5-0.20677 6.87958   3
  -1 -10  -6 26.0266 19.7227   3
   1  11 -14 470.154 128.003   1
   1  11 -13 3.87517 15.6213   1
   1  11 -12 540.870 136.085   1
   1  11 -11 106.105 59.5691   1
   1  11 -10 25.6506 26.0855   1
   1  11  -9 17.9525 24.8182   1
   1  11  -8 94.6135 60.6159   1
  -1 -11   7 0.18200 19.1861   3
  -1 -11   6 11.7439 6.70677   3
  -1 -11   5 12.6791 7.97342   3
  -1 -11   4-1.33689 19.9880   3
  -1 -11   3 5.05555 17.6585   3
  -1 -11   2 87.8492 47.7452   3
  -1 -11   1 42.4532 36.8419   3
  -1 -11   0-13.7780 18.9303   3
  -1 -11  -1-3.35481 14.4637   3
  -1 -11  -2 16.8130 21.0620   3
  -1 -11  -3-49.0937 37.8105   3
   1  12  -8 48.2884 45.7787   1
  -1 -12   7 43.7684 38.9033   3
  -1 -12   6 24.6818 27.4970   3
  -1 -12   5 454.998 113.710   3
  -1 -12   4-10.6306 23.6893   3
  -2  13  -4 201.339 90.5239   1
  -2  13  -5 118.634 69.5478   1
  -2  13  -6 67.7201 52.6172   1
  -2  13  -7 106.961 65.4707   1
  -2  13  -8-12.6665 23.7236   1
  -2  13  -9 49.7684 14.3917   1
   2 -12  -3 71.9192 44.8692   2
   2 -12  -2 45.1567 38.8456   2
   2 -12  -1 232.397 88.8718   2
   2 -12   0 40.9795 45.6986   2
   2 -12   1 133.806 74.6135   2
   2 -12   2 437.417 114.265   2
   2 -12   3 241.147 82.7428   2
   2 -12   4 73.9322 55.5867   2
  -2  12  -4 19.3730 19.3942   1
  -2  12  -5 85.3586 51.8948   1
   2 -12   5 77.8676 48.0687   2
  -2  12  -6 305.205 105.458   1
   2 -12   6 488.910 128.083   2
   2 -12   7 108.010 84.0613   2
  -2  12  -7 2.89773 22.8757   1
  -2  12  -8-22.1622 38.5266   1
   2 -12   8 153.247 88.1633   2
  -2  12  -9 2.58444 27.7476   1
  -2  12 -10-23.6531 28.6552   1
  -2  12 -11-37.3409 35.5296   1
  -2  12 -12 24.1089 17.6503   1
  -2  12 -13 3.14274 11.5726   1
  -2  12 -14-5.45324 15.8621   1
   2 -11  -6 33.7116 34.5321   2
   2 -11  -5-166.201 72.8847   2
   2 -11  -4-7.59359 36.8319   2
   2 -11  -3 21.7609 22.3766   2
   2 -11  -2-51.5788 39.9180   2
   2 -11  -1 12.8300 23.2694   2
   2 -11  -1-49.8039 31.5040   3
   2 -11   0 26.1598 33.7211   2
   2 -11   0-13.6396 16.8582   3
   2 -11   1 23.1259 42.1335   2
   2 -11   2 119.229 65.4440   2
   2 -11   3 488.555 119.201   2
   2 -11   4 1129.68 179.081   2
   2 -11   5-19.0189 21.0542   2
  -2  11  -5 27.0414 18.5744   1
   2 -11   6 711.413 140.012   2
  -2  11  -6 735.407 153.964   1
   2 -11   7 77.3476 47.8158   2
  -2  11  -7 56.5025 34.6653   1
  -2  11  -8 71.4481 48.6358   1
   2 -11   8 171.738 86.8739   2
   2 -11   9 362.776 107.615   2
  -2  11  -9 196.555 76.2440   1
   2 -11  10 304.002 96.2522   2
  -2  11 -10 100.689 55.3364   1
  -2  11 -11 51.3113 29.1628   1
  -2  11 -12 73.2400 46.1595   1
  -2  11 -13-119.259 59.2170   1
  -2  11 -14 12.8621 25.9621   1
  -2  11 -15 69.0367 45.3580   1
  -2  11 -16 11.5573 25.5499   1
   2 -10  -9 64.0738 57.0163   2
   2 -10  -8 140.551 70.1482   2
   2 -10  -7 70.9942 58.3379   2
   2 -10  -6-96.2339 56.4014   2
   2 -10  -5-21.2726 49.9086   2
   2 -10  -5 31.6595 34.0688   3
   2 -10  -4-4.50929 44.3975   2
   2 -10  -4-9.31049 18.2288   3
   2 -10  -3-2.61096 40.2832   2
   2 -10  -3 26.9531 19.3256   3
   2 -10  -2-16.0141 44.8273   2
   2 -10  -2 1.42358 15.1660   3
   2 -10  -1-54.2434 54.1011   2
   2 -10  -1-10.7203 14.1531   3
   2 -10   0-17.9573 28.7353   2
   2 -10   0-13.9775 9.46217   3
   2 -10   1-24.1094 26.5130   2
   2 -10   1 8.59731 22.1931   3
   2 -10   2 236.706 82.1149   2
   2 -10   3 387.401 103.190   2
   2 -10   4 359.796 99.2833   2
  -2  10  -5 19.4438 24.5576   1
   2 -10   5 207.752 79.7840   2
  -2  10  -6 26.4455 36.1184   1
   2 -10   6-38.9147 42.4314   2
   2 -10   7 100.783 54.0227   2
  -2  10  -7 10.7737 23.1088   1
  -2  10  -8 28.0412 26.7212   1
   2 -10   8 109.568 69.7238   2
   2 -10   9 108.656 65.3098   2
  -2  10  -9-41.2642 31.5731   1
   2 -10  10 305.078 94.8003   2
  -2  10 -10 43.3205 32.6414   1
  -2  10 -11 248.440 76.9008   1
  -2  10 -12 188.542 64.0409   1
  -2  10 -13 115.785 53.1306   1
  -2  10 -14 44.8185 36.3277   1
  -2  10 -15-30.8002 29.5125   1
  -2  10 -16 38.9549 31.3757   1
  -2  10 -17 47.7010 37.6288   1
  -2  10 -18 13.7325 45.7868   1
   2  -9 -11-40.5308 40.1784   2
   2  -9 -10 34.7264 36.1575   2
   2  -9  -9 312.827 104.223   2
   2  -9  -8 90.2396 50.7940   2
   2  -9  -7 146.771 63.6345   2
   2  -9  -7 232.140 64.7966   3
   2  -9  -6 13.0687 21.6191   2
   2  -9  -6 42.7706 29.4117   3
   2  -9  -5 42.1875 29.6341   2
   2  -9  -5 56.2096 27.7517   3
   2  -9  -4-0.98436 12.1703   3
   2  -9  -4 13.5068 23.9963   2
   2  -9  -3-120.112 58.6558   2
   2  -9  -3 27.6072 19.4766   3
   2  -9  -2 26.8294 13.3157   2
   2  -9  -2 66.1535 36.0447   3
   2  -9  -1-121.459 56.6282   2
   2  -9  -1-7.90135 11.9259   3
  -2   9   0 22.4029 18.4637   3
   2  -9   0 0.66756 21.3412   2
   2  -9   0 23.8473 16.4939   3
  -2   9  -1 18.2727 13.3605   3
   2  -9   1 21.2627 10.4645   2
   2  -9   1 8.61291 22.2944   3
  -2   9  -2 138.254 45.9177   3
   2  -9   2 88.1822 42.5525   2
   2  -9   3 373.219 97.8050   2
  -2   9  -3 342.231 73.5321   3
  -2   9  -4 47.3254 25.1161   3
   2  -9   4 190.798 75.2963   2
   2  -9   5 183.749 79.9251   2
  -2   9  -5 128.648 55.2163   1
   2  -9   6 127.616 57.7544   2
  -2   9  -6 33.4518 29.6308   1
  -2   9  -7 45.3948 31.5397   1
   2  -9   7-3.68734 15.5993   2
   2  -9   8 70.0067 46.3127   2
  -2   9  -8 9.06126 19.0750   1
   2  -9   9 147.898 70.0729   2
  -2   9  -9 29.8374 22.6728   1
  -2   9 -10 165.305 56.8711   1
   2  -9  10 383.820 104.784   2
  -2   9 -11-45.5291 31.4339   1
   2  -9  11 164.078 85.3471   2
  -2   9 -12-7.01014 17.3175   1
  -2   9 -13 24.2490 28.6684   1
  -2   9 -14 18.4607 25.5910   1
  -2   9 -15-12.7238 19.4345   1
  -2   9 -16-18.9200 22.7005   1
  -2   9 -17-6.09366 15.9727   1
  -2   9 -18 80.4489 48.3678   1
  -2   9 -19 103.571 55.3279   1
   2  -8 -13-46.3428 44.9578   2
   2  -8 -12 123.573 70.6593   2
   2  -8 -11 566.079 146.919   2
   2  -8 -10 26.3568 40.2073   2
   2  -8 -10 19.0001 15.8526   3
   2  -8  -9 777.241 164.571   2
   2  -8  -9 707.743 113.247   3
   2  -8  -8 337.075 105.995   2
   2  -8  -8 511.962 94.5793   3
   2  -8  -7 12.8885 13.5182   3
   2  -8  -7-13.3679 16.2372   2
   2  -8  -6-5.53845 9.12258   2
   2  -8  -6-1.85764 11.2457   3
   2  -8  -5 32.6741 36.6547   2
   2  -8  -5 51.1077 25.3027   3
   2  -8  -4 84.9778 49.8089   2
   2  -8  -4 72.5574 30.7522   3
   2  -8  -3 64.2873 35.4497   2
   2  -8  -3 80.7002 31.3646   3
  -2   8   2 203.237 52.8329   3
   2  -8  -2 197.126 72.9261   2
   2  -8  -2 201.683 50.7503   3
  -2   8   1 0.32377 7.21597   3
   2  -8  -1-40.5744 53.6437   2
   2  -8  -1 1.36097 6.49723   3
  -2   8   0 162.598 43.6859   3
   2  -8   0 129.563 41.0742   3
   2  -8   0 50.1093 10.3575   2
   2  -8   1 81.0144 33.5001   2
  -2   8  -1 86.2502 31.6242   3
  -2   8  -2-16.5933 14.9815   3
   2  -8   2-61.5795 38.0348   2
  -2   8  -3 7.44618 8.80872   3
   2  -8   3 22.9448 21.9996   2
  -2   8  -4 3.27441 23.4116   1
   2  -8   4 68.6963 54.2035   2
  -2   8  -4 5.53926 4.23115   3
  -2   8  -5 245.489 66.9793   1
  -2   8  -5 273.350 62.4760   3
   2  -8   5 266.439 86.3595   2
   2  -8   6 108.693 64.5495   2
  -2   8  -6 30.4529 19.4577   1
  -2   8  -6 6.62198 15.0083   3
  -2   8  -7-11.9978 16.7818   1
  -2   8  -7-2.19262 16.3583   3
   2  -8   7-0.90792 13.2288   2
   2  -8   8 59.8252 50.1855   2
  -2   8  -8 5.80018 6.86944   1
  -2   8  -9 208.999 56.7336   1
   2  -8   9 337.391 91.5596   2
   2  -8  10 976.733 145.617   2
  -2   8 -10 689.685 110.365   1
  -2   8 -11 384.193 84.3799   1
   2  -8  11 596.775 114.716   2
  -2   8 -12 95.2839 41.6378   1
  -2   8 -13 37.5401 29.7263   1
  -2   8 -14 28.9000 23.4526   1
  -2   8 -15-0.92940 7.76572   1
  -2   8 -16 2.26916 33.6338   1
  -2   8 -17-6.88228 20.7090   1
  -2   8 -18-14.7374 24.2797   1
  -2   8 -19-31.1839 31.0720   1
  -2   8 -20 7.23062 16.6196   1
   2  -7 -15-0.70007 9.91725   2
   2  -7 -14-58.3821 51.5732   2
   2  -7 -13-9.95061 22.0482   2
   2  -7 -12 63.6987 37.4172   3
   2  -7 -12 54.3884 43.5474   2
   2  -7 -11 926.646 186.119   2
   2  -7 -11 986.351 136.149   3
   2  -7 -10 65.2636 54.8753   2
   2  -7 -10 11.7729 15.1169   3
   2  -7  -9 107.513 60.3500   2
   2  -7  -9 67.7400 28.6996   3
   2  -7  -8 35.8039 27.2169   2
   2  -7  -8 15.7352 21.4404   3
   2  -7  -7 518.737 125.902   2
   2  -7  -7 380.449 73.5445   3
   2  -7  -6 392.304 71.6763   3
   2  -7  -6 309.981 95.8211   2
   2  -7  -5 188.642 70.7676   2
   2  -7  -5 181.474 45.7118   3
   2  -7  -4 213.681 74.8311   2
  -2   7   4 228.164 62.7573   1
   2  -7  -4 248.372 54.2046   3
  -2   7   3 281.848 68.2809   1
   2  -7  -3 318.201 60.9785   3
   2  -7  -3 301.688 87.6954   2
  -2   7   2 1009.97 123.857   1
   2  -7  -2 971.228 153.766   2
   2  -7  -2 1068.64 108.726   3
   2  -7  -1 79.5043 43.9810   2
   2  -7  -1 88.4268 31.9396   3
   2  -7   0-22.0328 40.1567   2
   2  -7   0 6.42447 11.5178   3
   2  -7   1 76.8346 38.1595   2
   2  -7   2-3.34699 27.3455   2
   2  -7   3-27.6734 31.2042   2
   2  -7   4 28.4696 29.4372   2
  -2   7  -4 57.5063 26.5893   1
   2  -7   5 625.841 116.747   2
  -2   7  -5 476.846 74.2666   3
  -2   7  -5 532.565 86.2071   1
  -2   7  -6 67.9770 30.2742   1
  -2   7  -6 57.4374 25.5159   3
   2  -7   7 1463.29 175.078   2
  -2   7  -7 1354.81 135.456   1
  -2   7  -7 1192.58 123.382   3
  -2   7  -8-3.70554 21.7730   1
   2  -7   8 69.7790 43.6641   2
  -2   7  -8 26.6178 19.1045   3
  -2   7  -9 37.0019 18.5078   1
   2  -7   9 128.669 61.6430   2
  -2   7  -9 84.4554 33.2157   3
   2  -7  10 349.856 94.1477   2
  -2   7 -10 129.952 46.7428   1
   2  -7  11 573.308 110.930   2
  -2   7 -11 238.371 62.2788   1
  -2   7 -12 456.253 89.4493   1
  -2   7 -13 221.965 65.5426   1
  -2   7 -14 81.3253 43.7266   1
  -2   7 -15 20.5293 13.3308   1
  -2   7 -16-57.4911 36.7419   1
  -2   7 -17-22.5979 24.4647   1
  -2   7 -18-39.9538 33.3858   1
  -2   7 -19 49.7276 33.0281   1
  -2   7 -20 28.9683 22.9938   1
   2  -6 -16 53.0368 51.1667   2
   2  -6 -15 45.7518 65.1041   2
   2  -6 -14 12.3463 10.7909   3
   2  -6 -14 28.3117 32.2417   2
   2  -6 -13-1.30623 12.8838   3
   2  -6 -13-132.000 73.3284   2
   2  -6 -12-2.58396 7.41405   3
   2  -6 -12-11.0544 22.0083   2
   2  -6 -11 131.947 44.2512   3
   2  -6 -11 132.134 67.6303   2
   2  -6 -10 22.3066 20.6752   3
   2  -6 -10 12.7930 26.7338   2
   2  -6  -9-1.26555 14.8454   3
   2  -6  -9-15.4912 21.2098   2
   2  -6  -8-5.63722 6.80612   3
   2  -6  -8 84.0749 48.8244   2
  -2   6   7 99.0793 44.9576   1
   2  -6  -7 66.6733 44.8987   2
   2  -6  -7 54.5032 24.0704   3
  -2   6   6 915.143 124.745   1
   2  -6  -6 811.352 151.504   2
   2  -6  -6 858.585 97.0164   3
  -2   6   5 716.865 106.442   1
   2  -6  -5 639.283 127.952   2
   2  -6  -5 687.466 85.7929   3
  -2   6   4 1747.00 162.309   1
   2  -6  -4 1965.72 224.962   2
   2  -6  -4 1942.01 136.049   3
   2  -6  -3 259.238 48.6702   3
  -2   6   3 222.521 56.6281   1
   2  -6  -3 214.189 69.6702   2
  -2   6   2 23.6949 18.1356   3
   2  -6  -2 19.0744 11.1524   3
   2  -6  -2 3.65285 14.8922   2
  -2   6   1 31.6018 18.7561   3
   2  -6  -1 32.9441 27.6479   2
   2  -6  -1 13.7876 3.45241   3
   2  -6   0 35.9548 26.8685   2
  -2   6   0 30.7169 15.9301   3
   2  -6   0 43.8501 22.8011   3
   2  -6   1 222.886 62.8998   2
  -2   6  -1 289.914 48.2833   3
  -2   6  -2-5.45398 12.0776   3
   2  -6   2-13.0230 30.5642   2
  -2   6  -3 10.5316 17.1758   1
  -2   6  -3 33.6197 14.6658   3
   2  -6   3 26.7931 8.65641   2
   2  -6   4 492.441 95.8442   2
  -2   6  -4 470.125 72.8440   1
  -2   6  -4 419.653 63.1931   3
   2  -6   5 1741.97 180.436   2
  -2   6  -5 1553.41 130.032   1
   2  -6   6 225.617 70.2248   2
  -2   6  -6 66.0788 23.9882   1
   2  -6   7 1083.39 146.875   2
  -2   6  -7 800.352 95.3841   3
  -2   6  -7 882.064 102.386   1
  -2   6  -8 98.6485 35.0910   1
   2  -6   8 146.999 58.7560   2
  -2   6  -8 42.8763 20.7735   3
   2  -6   9 697.693 123.951   2
  -2   6  -9 601.351 89.6770   1
  -2   6  -9 471.289 80.3632   3
   2  -6  10 935.594 133.505   2
  -2   6 -10 662.439 96.1381   1
  -2   6 -10 798.633 109.501   3
   2  -6  11 828.125 130.314   2
  -2   6 -11 498.271 88.0953   1
  -2   6 -12 563.056 96.5189   1
  -2   6 -13 1551.67 167.058   1
  -2   6 -14 1777.91 186.302   1
  -2   6 -15 49.0423 25.7918   1
  -2   6 -16 218.000 75.5100   1
  -2   6 -17-13.6138 21.2054   1
  -2   6 -18 64.6121 36.6190   1
  -2   6 -19 57.8867 39.9726   1
  -2   6 -20 46.1117 29.7045   1
  -2   6 -21 20.4571 25.9457   1
   2  -5 -17 4.03906 17.4862   2
   2  -5 -16 31.3540 39.0643   2
   2  -5 -16 18.9525 25.6036   3
   2  -5 -15 28.8619 34.3553   2
   2  -5 -15 33.2197 26.7244   3
   2  -5 -14-7.21013 25.6264   3
   2  -5 -14 12.6190 23.3775   2
   2  -5 -13 21.1906 17.1946   3
   2  -5 -13 62.6533 48.8365   2
   2  -5 -12 22.4151 16.6196   3
   2  -5 -12 107.110 63.5169   2
   2  -5 -11-11.5305 21.1534   3
   2  -5 -11-7.97357 40.1287   2
   2  -5 -10-9.86551 14.1226   3
   2  -5 -10 67.2158 41.0194   2
   2  -5  -9-8.79960 14.7568   3
   2  -5  -9 32.4852 32.9981   2
   2  -5  -8 135.099 38.7886   3
  -2   5   8 100.917 45.0890   1
   2  -5  -8 184.048 72.2267   2
  -2   5   7 649.737 106.692   1
   2  -5  -7 695.885 138.227   2
   2  -5  -7 547.443 73.5861   3
  -2   5   6 23.6362 15.4120   1
   2  -5  -6 33.7353 23.1515   2
   2  -5  -6 45.5390 19.4660   3
   2  -5  -5 120.561 55.2483   2
   2  -5  -5 93.7444 26.8504   3
   2  -5  -4 1785.88 205.855   2
   2  -5  -4 1817.00 118.328   3
   2  -5  -3 906.250 142.485   2
   2  -5  -3 862.112 77.9557   3
  -2   5   3 840.415 99.8909   1
  -2   5   2 557.702 75.6570   1
   2  -5  -2 548.503 106.177   2
  -2   5   2 474.309 106.708   2
   2  -5  -2 550.072 59.7350   3
  -2   5   1-1.79251 13.6628   2
  -2   5   1 3.58971 4.17870   1
  -2   5   1 3.43573 7.15227   3
   2  -5  -1 4.80628 12.9965   2
   2  -5  -1-11.8178 10.1962   3
  -2   5   0 205.075 68.1079   2
  -2   5   0 190.114 31.7904   3
   2  -5   0 212.239 63.5633   2
   2  -5   1 691.393 114.466   2
  -2   5  -1 602.755 117.918   2
  -2   5  -1 620.234 61.0411   3
  -2   5  -2 173.110 33.7098   3
   2  -5   2 93.1536 37.3865   2
  -2   5  -2 111.149 45.9598   2
  -2   5  -3 108.240 28.7440   3
   2  -5   3 74.3789 33.6961   2
  -2   5  -3 101.524 47.5794   2
  -2   5  -3 109.094 30.9556   1
   2  -5   4 12.3381 7.73938   2
  -2   5  -4 36.3705 27.0862   2
  -2   5  -4 62.7845 23.2875   3
  -2   5  -4 47.2228 18.7469   1
  -2   5  -5 95.8307 29.5292   1
   2  -5   5 137.286 54.8395   2
  -2   5  -5 125.623 57.1572   2
  -2   5  -5 67.9145 25.0981   3
  -2   5  -6 0.58000 13.5429   1
   2  -5   6 75.4670 50.3031   2
  -2   5  -6 4.43680 4.67196   3
  -2   5  -6 17.8098 21.7964   2
  -2   5  -7 1.11707 19.8811   2
  -2   5  -7 9.57426 13.5571   1
  -2   5  -8 4.46072 8.80398   1
   2  -5   8 4.15167 19.9549   2
   2  -5   9 164.278 63.6554   2
  -2   5  -9 24.4039 17.4501   1
   2  -5  10 297.756 82.0465   2
  -2   5 -10 52.5495 27.0297   1
  -2   5 -11 552.504 91.1097   1
   2  -5  11 575.126 102.210   1
  -2   5 -12 2054.87 183.588   1
   2  -5  12 2021.41 203.110   1
  -2   5 -13 291.220 72.7086   1
  -2   5 -14 1470.10 170.162   1
  -2   5 -15 36.6099 26.8610   1
  -2   5 -16 109.582 49.0657   1
  -2   5 -17 264.349 84.2672   1
  -2   5 -18 46.8256 43.2107   1
  -2   5 -19 98.1239 57.0206   1
  -2   5 -20 274.296 88.4215   1
  -2   5 -21 98.1005 53.7706   1
   2  -4 -18 28.9142 26.5007   3
   2  -4 -17 287.976 121.526   2
   2  -4 -17 185.066 66.5545   3
   2  -4 -16 108.056 61.4190   2
   2  -4 -16 102.005 47.7226   3
   2  -4 -15 118.795 87.1384   2
   2  -4 -15 99.1389 52.5313   3
   2  -4 -14-40.6167 28.7549   2
   2  -4 -14-6.20402 15.4247   3
   2  -4 -13 45.0399 29.2707   3
   2  -4 -13 52.6384 42.8364   2
   2  -4 -12 20.4321 24.6665   2
   2  -4 -12 21.7101 18.3553   3
   2  -4 -11-15.3714 9.17490   2
   2  -4 -11-6.12127 24.2025   3
   2  -4 -10 5.06190 6.38555   3
   2  -4 -10 3.28272 15.2912   2
   2  -4  -9 70.6112 41.2115   2
   2  -4  -9 7.74766 5.14687   3
  -2   4   9 27.0996 24.5854   1
  -2   4   8 930.824 127.772   1
   2  -4  -8 965.664 161.466   2
   2  -4  -8 874.060 91.2605   3
   2  -4  -7 1152.01 98.2729   3
  -2   4   7 1192.03 136.272   1
   2  -4  -7 1354.20 186.740   2
   2  -4  -6 677.914 130.388   2
   2  -4  -6 674.444 69.4156   3
  -2   4   5 237.805 51.9370   1
   2  -4  -5 240.338 38.9299   3
   2  -4  -5 267.033 80.3748   2
   2  -4  -4 29.8814 31.1571   2
   2  -4  -4 11.0873 5.16810   3
  -2   4   4 20.4183 17.4234   1
   2  -4  -3 146.783 26.2431   3
   2  -4  -3 80.8888 31.8023   2
  -2   4   3 115.278 32.7060   1
  -2   4   2-15.8126 28.9470   2
  -2   4   2 5.66350 10.5541   1
   2  -4  -2 12.5874 15.1986   2
   2  -4  -2 2.12895 4.76567   3
  -2   4   1 354.033 48.5959   1
  -2   4   1 325.431 81.1761   2
   2  -4  -1 246.653 66.7101   2
  -2   4   1 280.917 32.3051   3
   2  -4   0 768.302 114.901   2
  -2   4   0 745.003 121.443   2
  -2   4   0 590.744 44.7353   3
   2  -4   1 145.654 48.5123   2
  -2   4  -1 113.366 21.6571   3
  -2   4  -2 141.662 28.1942   1
   2  -4   2 123.409 47.2047   2
  -2   4  -2 126.128 23.8724   3
  -2   4  -2 168.181 54.1316   2
   2  -4   3 974.003 126.506   2
  -2   4  -3 1009.36 140.978   2
  -2   4  -3 956.884 72.6231   1
  -2   4  -3 952.925 73.6229   3
  -2   4  -4 44.3427 16.5574   1
   2  -4   4 27.9840 19.7459   2
  -2   4  -4 54.6841 19.6924   3
  -2   4  -4 25.3793 7.46759   2
   2  -4   5 624.962 103.161   2
  -2   4  -5 594.665 109.390   2
  -2   4  -5 564.228 62.3687   1
   2  -4   6 114.029 53.8057   2
  -2   4  -6 68.0056 23.4633   1
  -2   4  -6 52.0498 32.2111   2
  -2   4  -7 8.19915 14.3994   1
  -2   4  -7 8.62175 14.0456   2
   2  -4   8 11.2367 10.2169   1
  -2   4  -8 1.31918 5.74400   1
   2  -4   8 54.9290 46.6565   2
  -2   4  -8 46.4426 35.1288   2
  -2   4  -9 182.792 63.1993   2
   2  -4   9 381.851 85.6531   2
   2  -4   9 229.368 56.4534   1
  -2   4  -9 177.024 45.0560   1
   2  -4  10 311.469 89.0421   2
  -2   4 -10 104.204 36.0564   1
   2  -4  10 126.488 44.0208   1
  -2   4 -11-13.7412 23.3301   1
   2  -4  11 4.05293 8.29054   1
  -2   4 -12 138.692 46.2011   1
   2  -4  12 154.578 52.3358   1
  -2   4 -13-8.07064 13.1211   1
   2  -4  13 6.24432 22.7178   1
  -2   4 -14 16.2361 16.3911   1
  -2   4 -15 131.079 52.0118   1
  -2   4 -16-1.17231 11.8860   1
  -2   4 -17-20.2509 22.0278   1
  -2   4 -18 67.0578 34.1578   1
  -2   4 -19 102.461 49.7883   1
  -2   4 -20 118.113 58.9553   1
  -2   4 -21 113.971 54.7621   1
   2  -3 -19 80.1390 52.3111   3
   2  -3 -18 235.284 116.531   2
   2  -3 -18 154.970 67.0789   3
   2  -3 -17 267.398 117.844   2
   2  -3 -17 80.1688 42.4607   3
   2  -3 -16 26.6279 40.0837   2
   2  -3 -16 32.0337 32.3596   3
   2  -3 -15 13.0048 21.5348   2
   2  -3 -15 33.8435 25.3226   3
   2  -3 -14 152.973 68.0001   2
   2  -3 -14 113.413 47.4257   3
   2  -3 -13 310.883 105.807   2
   2  -3 -13 265.676 69.6369   3
   2  -3 -12 20.8446 28.8605   2
   2  -3 -12 36.0808 28.0122   3
   2  -3 -11 106.980 53.0811   2
   2  -3 -11 71.7574 34.7429   3
  -2   3  10 1131.61 144.309   1
   2  -3 -10 1339.08 198.909   2
   2  -3 -10 1256.95 124.391   3
   2  -3  -9 33.3657 32.7795   2
   2  -3  -9 73.8259 27.8357   3
  -2   3   9 59.2548 30.4438   1
  -2   3   8 652.440 97.5081   1
   2  -3  -8 582.659 122.636   2
   2  -3  -8 595.089 72.0484   3
   2  -3  -7 1159.81 167.798   2
   2  -3  -7 1005.58 84.8539   3
   2  -3  -6 141.811 56.2501   2
  -2   3   6 102.331 33.8370   1
   2  -3  -6 108.435 24.4139   3
   2  -3  -5 6.33330 5.11826   3
  -2   3   5 2.44458 11.8873   1
   2  -3  -5 37.0107 32.7727   2
   2  -3  -4 267.615 30.9467   3
  -2   3   4 283.220 47.5200   1
   2  -3  -4 207.911 65.8358   2
  -2   3   3 672.174 66.0950   1
   2  -3  -3 620.810 112.090   2
   2  -3  -3 624.958 39.6062   3
  -2   3   2 812.905 63.3359   1
   2  -3  -2 786.414 119.870   2
  -2   3   1 14208.3 231.875   1
   2  -3  -1 14428.5 492.467   2
  -2   3   0 4684.20 121.372   1
   2  -3   0 4915.96 280.075   2
   2  -3   1 7367.22 334.657   2
  -2   3  -1 7237.59 132.718   1
  -2   3  -1 6951.93 132.805   3
   2  -3   2 381.438 77.1927   2
  -2   3  -2 364.767 32.0305   1
  -2   3  -2 356.556 35.0330   3
   2  -3   3 377.408 73.8154   2
  -2   3  -3 415.501 84.1561   2
  -2   3  -3 367.745 36.5084   1
   2  -3   4 579.321 92.3846   2
  -2   3  -4 703.119 111.210   2
  -2   3  -4 656.622 56.4986   1
  -2   3  -5-6.00310 6.66931   1
   2  -3   5 24.4503 19.7870   2
  -2   3  -5 22.0715 22.7386   2
   2  -3   6 91.3155 27.9722   1
  -2   3  -6 114.290 28.8221   1
  -2   3  -6 79.7509 39.6114   2
   2  -3   6 96.6501 43.3754   2
  -2   3  -7 21.0291 13.4635   1
   2  -3   7 41.4889 23.4506   1
   2  -3   7 94.7325 41.9165   2
  -2   3  -7 66.7586 40.4687   2
   2  -3   8 57.8438 29.1741   1
  -2   3  -8 45.3499 20.4719   1
   2  -3   8 117.924 60.7634   2
  -2   3  -8 39.9436 30.2225   2
  -2   3  -9 125.406 39.2554   1
   2  -3   9 327.032 77.4044   2
   2  -3   9 133.134 43.0300   1
  -2   3 -10 416.836 75.3810   1
   2  -3  10 410.859 77.9719   1
  -2   3 -10 344.069 85.2670   2
  -2   3 -11 1159.58 127.883   1
  -2   3 -11 1073.94 155.027   2
   2  -3  11 1105.32 136.949   1
  -2   3 -12 195.673 56.8940   1
   2  -3  12 203.031 63.2201   1
  -2   3 -13 13.9754 18.3353   1
   2  -3  13 4.13349 20.5733   1
  -2   3 -14 50.9892 32.5590   1
  -2   3 -15 11.6067 15.4477   1
  -2   3 -16 116.833 55.0996   1
  -2   3 -17 1.67730 21.9808   1
  -2   3 -18 4.25256 13.1173   1
  -2   3 -19 27.7157 27.5821   1
  -2   3 -20-24.9867 35.1016   1
  -2   3 -21-6.89422 16.4519   1
   2  -2 -20 39.5318 26.4687   3
   2  -2 -19 13.6305 20.4544   3
   2  -2 -19 32.7845 33.2942   1
   2  -2 -18 67.2560 40.2196   3
   2  -2 -18 54.3149 45.2315   1
   2  -2 -17-5.86473 13.9824   1
   2  -2 -16 20.0360 38.0042   1
   2  -2 -15 14.4047 18.0903   1
   2  -2 -14-6.86710 20.5698   1
   2  -2 -13 237.543 69.5578   1
   2  -2 -12 129.276 48.8152   1
  -2   2  11 95.8319 39.0732   1
   2  -2 -11 76.4112 39.4780   1
   2  -2 -10 29.1552 25.9713   2
  -2   2  10 58.4961 29.8811   1
   2  -2 -10 62.3939 34.8700   1
   2  -2  -9 123.057 46.3256   2
  -2   2   9 123.819 45.1167   1
   2  -2  -9 130.902 46.2869   1
   2  -2  -8 3.13843 14.3338   2
   2  -2  -8 21.2190 17.3732   1
   2  -2  -7 72.3587 42.7424   2
  -2   2   7 38.5892 21.1132   1
   2  -2  -7 40.8389 22.4306   1
   2  -2  -6 1164.89 101.507   1
  -2   2   6 1070.13 100.123   1
   2  -2  -6 999.428 146.132   2
   2  -2  -6 1093.75 75.9927   3
   2  -2  -5 47.1626 30.4530   2
   2  -2  -5 56.4746 14.2719   3
   2  -2  -5 53.5873 19.2097   1
  -2   2   5 58.1533 21.6729   1
   2  -2  -4 1594.36 176.838   2
  -2   2   4 1625.94 100.050   1
   2  -2  -3 8912.88 405.064   2
  -2   2   3 8831.15 199.553   1
   2  -2  -2 1185.82 140.755   2
  -2   2   2 1061.88 54.8102   1
   2  -2  -1 19713.3 550.303   2
   2  -2   0 5476.67 285.381   2
   2  -2   1 460.393 80.8961   2
  -2   2  -1 282.180 25.5211   3
  -2   2  -1 443.852 28.2171   3
   2  -2   2 463.730 80.9308   2
  -2   2  -3 1159.31 58.8952   1
   2  -2   3 1418.33 136.521   2
  -2   2  -4 896.934 63.2630   1
   2  -2   4 876.917 108.074   2
   2  -2   4 923.011 65.7121   1
  -2   2  -5 1021.63 77.1046   1
   2  -2   5 1036.02 116.316   2
   2  -2   5 1013.33 78.4703   1
  -2   2  -6 2354.64 130.813   1
   2  -2   6 2553.97 181.109   2
   2  -2   6 2427.30 138.938   1
   2  -2   7 26.7965 19.4108   1
   2  -2   7 7.66002 19.4259   2
  -2   2  -7 20.8617 17.6262   1
   2  -2   8 1633.00 145.187   2
  -2   2  -8 1534.81 125.348   1
  -2   2  -8 1525.61 167.783   2
   2  -2   8 1554.51 134.318   1
   2  -2   9 1311.09 127.834   2
  -2   2  -9 1162.35 114.574   1
  -2   2  -9 927.197 133.258   2
   2  -2   9 968.623 114.079   1
   2  -2  10 40.4752 29.7375   1
  -2   2 -10 44.0632 24.0419   2
  -2   2 -10 34.3782 26.8882   1
  -2   2 -11 292.866 66.5460   1
   2  -2  11 329.970 77.1687   1
  -2   2 -11 275.400 71.9869   2
  -2   2 -12 297.954 72.8546   1
   2  -2  12 363.116 81.5082   1
  -2   2 -12 264.382 73.4607   2
  -2   2 -13 368.427 80.9840   1
  -2   2 -14 65.9138 32.5530   1
  -2   2 -15 65.8022 44.6437   1
  -2   2 -16 54.7699 38.6054   1
  -2   2 -17 61.2333 45.7759   1
  -2   2 -18 427.702 106.909   1
  -2   2 -19 46.2447 34.8406   1
  -2   2 -20 45.1295 40.0536   1
   2  -1 -20 9.18599 22.9985   1
   2  -1 -19 52.0917 39.5407   1
   2  -1 -18 37.4214 32.7494   1
   2  -1 -17 26.7734 29.3683   1
   2  -1 -16 40.2963 24.1519   1
   2  -1 -15 22.7718 16.2069   1
   2  -1 -14 550.007 105.926   1
   2  -1 -13 102.353 42.2194   1
   2  -1 -12 36.5291 25.3117   1
  -2   1  12 12.4019 14.4508   1
   2  -1 -11 57.5484 26.4505   1
  -2   1  11 75.4477 34.6997   1
   2  -1 -10-12.0070 13.6364   1
  -2   1  10-3.25461 14.6593   1
   2  -1  -9 65.5709 28.6750   1
   2  -1  -8 116.730 34.1074   1
   2  -1  -7 291.005 52.4434   1
  -2   1   7 294.523 54.8518   1
  -2   1   6 12.1330 6.60288   1
   2  -1  -6-26.4594 24.5444   2
   2  -1  -6-1.19996 6.57791   1
   2  -1  -5 2236.27 119.046   1
   2  -1  -5 2303.42 209.193   2
  -2   1   5 2106.29 121.609   1
   2  -1  -4 1468.83 85.0617   1
   2  -1  -4 1530.34 165.756   2
  -2   1   4 1415.56 85.5608   1
   2  -1  -4 1401.36 56.4795   3
   2  -1  -3 2834.70 101.513   1
   2  -1  -3 3000.80 222.759   2
  -2   1   3 2733.99 100.019   1
   2  -1  -2 42.2594 10.1435   1
   2  -1  -2 46.3913 24.7596   2
  -2   1   1 23.0183 20.5984   2
   2  -1  -1 2.04476 11.0107   2
   2  -1   0 664.789 92.7041   2
  -2   1   0 734.938 102.236   2
  -2   1   0 575.350 31.4314   3
   2  -1   1 1848.43 149.406   2
  -2   1  -1 1796.19 156.569   2
  -2   1  -1 1671.35 66.7407   3
   2  -1   2 1067.20 113.621   2
  -2   1  -2 1032.90 120.359   2
   2  -1   2 1008.83 44.4333   1
  -2   1  -2 1126.59 68.3104   3
  -2   1  -3 87.0047 22.7169   3
   2  -1   3 54.0671 10.1123   2
  -2   1  -3 81.1151 33.6256   2
   2  -1   3 73.1935 16.5321   1
   2  -1   4 397.200 68.0980   2
  -2   1  -4 447.076 79.9640   2
   2  -1   4 491.710 52.0437   1
   2  -1   5 1415.61 127.090   2
  -2   1  -5 1477.81 101.755   1
  -2   1  -5 1352.07 141.053   2
   2  -1   5 1468.33 103.403   1
  -2   1  -6 3682.94 172.931   1
   2  -1   6 3523.66 198.243   2
  -2   1  -6 3560.74 232.086   2
   2  -1   6 3339.50 169.653   1
   2  -1   7 68.8681 37.8179   2
   2  -1   7 20.2345 17.1680   1
  -2   1  -7 7.68547 12.5835   1
   2  -1   8 308.636 65.2272   2
   2  -1   8 127.212 37.8070   1
  -2   1  -8 137.103 39.5680   1
  -2   1  -9-2.85846 11.7927   1
   2  -1   9 14.4981 16.1740   1
  -2   1 -10-34.3793 38.3966   2
   2  -1  10 22.9035 22.3753   1
  -2   1 -10 45.1892 33.0076   1
   2  -1  11 9.41982 10.5461   1
  -2   1 -11-12.4387 23.4288   2
  -2   1 -11 14.6777 5.49170   1
   2  -1  12 32.9309 23.7737   1
  -2   1 -12 34.8707 19.7943   2
  -2   1 -12 86.2548 38.3153   1
  -2   1 -13 297.959 76.3853   2
  -2   1 -13 264.251 74.3963   1
  -2   1 -14 157.987 59.3962   1
  -2   1 -15 709.515 125.263   1
  -2   1 -16 4.75061 14.3890   1
  -2   1 -17 52.5261 32.7561   1
  -2   1 -18 208.336 74.8285   1
  -2   1 -19 255.599 88.5149   1
  -2   1 -20 111.719 62.4229   1
   2   0 -20-13.8297 21.4186   1
   2   0 -19 41.8664 35.2897   1
   2   0 -18 58.9480 40.6405   1
   2   0 -17 81.2534 43.7938   1
   2   0 -16 546.008 109.434   1
   2   0 -15 468.762 98.9671   1
   2   0 -14 486.649 93.4030   1
   2   0 -13 1419.30 157.094   1
   2   0 -12 18.2218 13.9318   1
  -2   0  12 14.1114 11.9622   1
   2   0 -11 92.3985 35.3693   1
  -2   0  11 66.7242 36.4312   1
   2   0 -10 33.4620 19.7269   1
  -2   0  10 52.5472 29.8373   1
   2   0  -9 17.7224 17.7438   1
   2   0  -8 81.8975 31.6186   1
  -2   0   8 45.3549 24.0456   1
   2   0  -7 9.82056 9.78176   1
  -2   0   7-2.92974 9.74424   1
  -2   0   6 4.69424 4.20913   1
   2   0  -6 4.02463 11.1870   1
   2   0  -6 4.83252 7.98251   3
   2   0  -5 6.62378 4.29946   1
  -2   0   5 15.6076 10.8951   1
   2   0  -5 11.8222 9.73439   3
   2   0  -4 297.502 39.5073   1
   2   0  -4 351.655 76.1266   2
  -2   0   4 251.858 39.4752   1
   2   0  -4 306.645 34.9731   3
   2   0  -3 3802.67 123.939   1
   2   0  -3 4071.26 250.301   2
   2   0  -3 3730.37 112.704   3
   2   0  -2 1634.85 154.255   2
   2   0  -2 1616.21 69.6157   1
   2   0  -2 1381.61 63.8998   3
   2   0  -1 6.80930 6.10499   3
   2   0  -1 10.4162 6.15108   1
  -2   0   1 2.47774 1.92509   3
   2   0  -1 17.4064 14.8896   2
   2   0   0 274.965 56.3211   2
  -2   0   0 310.975 64.1995   2
  -2   0   0 330.798 34.9706   3
   2   0   1 1331.82 118.999   2
  -2   0  -1 1281.65 124.261   2
  -2   0  -1 1339.10 75.2524   3
   2   0   1 1225.17 63.7707   1
   2   0   2 6677.40 165.454   1
   2   0   2 6526.72 260.283   2
  -2   0  -2 6517.33 277.211   2
  -2   0  -2 6600.12 184.177   3
   2   0   3 3085.14 130.254   1
   2   0   3 2926.31 171.276   2
  -2   0  -3 3096.59 191.939   2
  -2   0  -3 3086.66 141.379   3
   2   0   4 1651.38 126.941   2
   2   0   4 1775.66 110.515   1
  -2   0  -4 1772.10 149.797   2
  -2   0  -4 1776.88 120.170   3
  -2   0  -5 2.63314 7.41239   3
   2   0   5 16.5667 11.6349   1
   2   0   5 72.9281 34.2536   2
  -2   0  -5 13.1522 7.60081   2
  -2   0  -6 74.9280 27.4104   3
   2   0   6 52.5606 23.6009   1
   2   0   6 116.849 39.7413   2
  -2   0  -6 48.1716 25.1230   2
   2   0   7 238.375 55.3482   2
   2   0   7 71.5410 28.8997   1
  -2   0  -7 111.625 40.3519   2
   2   0   8 29.9753 20.6305   1
  -2   0  -8 10.3626 13.5232   2
  -2   0  -8 45.2376 26.7327   1
   2   0   9 276.575 65.5980   1
  -2   0  -9 242.525 59.4105   1
   2   0  10 5.76832 19.1231   1
  -2   0 -10 12.9088 18.3219   1
   2   0  11 4.92774 9.25482   1
  -2   0 -11-1.68795 5.48238   1
  -2   0 -11-3.24028 18.3159   2
  -2   0 -12 1.59876 19.3853   2
  -2   0 -12 11.7363 25.7007   1
  -2   0 -13 182.384 58.0746   2
  -2   0 -13 166.485 59.2201   1
  -2   0 -14 1.35984 22.7656   2
  -2   0 -14 18.1753 22.5389   1
  -2   0 -15 112.782 52.7132   1
  -2   0 -16 49.8688 41.9353   1
  -2   0 -17 262.797 86.0450   1
  -2   0 -18 83.6265 48.5595   1
  -2   0 -19 28.0339 39.9745   1
  -2   0 -19 30.4987 31.0441   3
   2   1 -21 13.3033 20.8949   1
   2   1 -20 281.169 87.3670   1
   2   1 -19 70.5396 45.9354   1
   2   1 -18 468.588 110.338   1
   2   1 -17 41.1748 31.1188   1
   2   1 -16 1815.09 197.496   1
   2   1 -15 2762.75 235.469   1
   2   1 -14 558.392 102.020   1
   2   1 -13 195.830 57.1022   1
   2   1 -12 40.6588 24.5445   1
  -2  -1  12 44.7867 32.5826   1
   2   1 -11 49.0784 26.8427   1
  -2  -1  11 36.2868 23.3679   1
  -2  -1  10 7.58707 12.4995   1
   2   1 -10-0.92721 16.5155   1
   2   1  -9 972.537 107.099   1
   2   1  -8 2.25274 6.30490   1
   2   1  -8 5.28573 12.3979   3
   2   1  -7 2040.71 135.798   1
  -2  -1   7 1928.27 143.673   1
   2   1  -7 2040.51 125.263   3
   2   1  -6 1920.68 123.453   1
  -2  -1   6 1986.18 137.190   1
   2   1  -6 2008.19 115.075   3
   2   1  -5 176.405 35.4998   1
   2   1  -5 157.261 30.3376   3
   2   1  -4 91.6613 26.2754   1
   2   1  -4 77.4662 20.5011   3
   2   1  -3 1000.03 120.186   2
   2   1  -3 896.807 71.9029   1
  -2  -1   3 985.863 70.6166   3
   2   1  -3 969.342 72.4275   3
   2   1  -2-2.80624 6.01081   1
   2   1  -2 4.41847 13.3793   2
   2   1  -2-1.78248 6.48534   3
  -2  -1   2 8.89563 7.63145   3
   2   1  -1 13.6739 8.54698   3
  -2  -1   1 8.27006 6.35321   3
   2   1  -1 19.2206 13.1168   2
  -2  -1   0 155.601 29.5856   3
   2   1   0 166.642 32.0966   3
   2   1   0 141.076 40.1676   2
  -2  -1  -1 68.1324 19.9376   3
   2   1   1 86.7403 25.7723   3
   2   1   1 105.773 31.1390   2
   2   1   2 1084.33 83.9719   1
   2   1   2 1059.56 96.2736   2
  -2  -1  -2 1065.57 100.541   2
  -2  -1  -2 1086.54 86.3892   3
   2   1   3 1935.73 121.145   1
   2   1   3 2017.12 127.440   2
  -2  -1  -3 1903.21 132.165   2
  -2  -1  -3 1924.43 121.150   3
   2   1   4 8123.85 259.826   1
   2   1   4 8018.36 245.060   2
  -2  -1  -4 8112.88 280.494   2
  -2  -1  -4 7999.21 263.094   3
   2   1   5 2977.67 171.556   1
   2   1   5 3108.36 148.216   2
  -2  -1  -5 3079.98 179.249   2
  -2  -1  -5 3136.33 177.854   3
   2   1   6 784.194 94.1877   1
  -2  -1  -6 869.934 98.6400   2
  -2  -1  -6 813.261 97.6835   3
   2   1   7 48.8755 24.1361   1
  -2  -1  -7 72.9744 31.6104   3
  -2  -1  -7 59.4812 27.0117   2
   2   1   8 12.4668 17.1636   1
  -2  -1  -8 9.57941 9.55158   3
  -2  -1  -8 4.80230 13.8372   2
  -2  -1  -9 538.751 81.1929   2
   2   1   9 676.699 107.477   1
  -2  -1  -9 603.224 100.237   3
  -2  -1 -10-9.82746 20.1730   3
   2   1  10 13.9973 20.7509   1
  -2  -1 -11-17.0652 22.6339   3
  -2  -1 -12 33.7908 32.3220   3
  -2  -1 -13-11.8561 17.7829   3
  -2  -1 -13 9.98414 28.5703   2
  -2  -1 -14 50.7191 40.9697   3
  -2  -1 -14 7.79663 12.8639   2
  -2  -1 -15 98.0206 53.8799   3
  -2  -1 -16 61.9944 40.5070   3
  -2  -1 -17 31.6302 39.7775   3
  -2  -1 -18 118.462 58.8876   3
   2   2 -21 27.9697 17.3361   1
   2   2 -20-0.41686 20.2689   1
   2   2 -19 116.606 58.3342   1
   2   2 -18-13.6836 23.8078   1
   2   2 -17 177.876 64.7979   1
   2   2 -16 58.9937 35.7325   1
   2   2 -15 0.77531 7.08585   1
   2   2 -14 239.081 67.8378   1
   2   2 -13 1430.76 160.109   1
   2   2 -12 1987.77 178.373   1
  -2  -2  12 1890.01 195.035   1
   2   2 -11 308.793 66.8059   1
  -2  -2  11 311.654 74.3649   1
  -2  -2  10 54.8148 29.2729   1
   2   2 -10 81.2251 34.1354   1
   2   2 -10 30.8351 16.3427   3
   2   2  -9 2956.91 187.764   1
  -2  -2   9 2835.42 205.405   1
   2   2  -9 2946.19 177.025   3
   2   2  -8 755.456 91.7111   1
   2   2  -8 786.727 88.1621   3
   2   2  -7 1518.65 125.860   1
   2   2  -7 1618.66 119.546   3
   2   2  -6 191.932 44.8307   1
   2   2  -6 191.561 40.7514   3
   2   2  -5-2.68539 4.68328   3
   2   2  -5-3.61351 9.60062   1
   2   2  -4 37.3688 16.2824   1
  -2  -2   4 34.0143 16.2531   3
   2   2  -4 30.3794 15.1168   3
   2   2  -3 115.794 33.0111   1
  -2  -2   3 136.719 31.6063   3
   2   2  -3 135.151 32.2659   3
   2   2  -2 77.4047 24.4051   3
   2   2  -2 63.4342 26.1483   2
  -2  -2   2 65.1000 21.8991   3
   2   2  -1 0.55870 4.25282   2
   2   2  -1-3.84334 7.42851   3
  -2  -2   1 8.77333 6.96240   3
   2   2   0 4544.35 202.338   2
  -2  -2   0 4687.34 188.756   3
   2   2   0 4457.25 185.606   3
   2   2   1 6881.99 229.689   2
   2   2   1 7243.22 247.275   3
  -2  -2  -1 7154.21 237.239   3
   2   2   2 3995.89 162.603   2
  -2  -2  -2 3640.88 177.130   3
   2   2   2 3942.86 191.130   3
  -2  -2  -3 6.64505 4.06030   3
   2   2   3 10.7388 10.0557   2
   2   2   3 10.4825 14.4725   1
   2   2   4 517.471 75.4167   1
   2   2   4 591.293 55.3573   2
  -2  -2  -4 447.791 53.3034   2
  -2  -2  -4 526.954 74.8518   3
   2   2   5 1477.31 132.108   1
  -2  -2  -5 1421.21 99.7677   2
  -2  -2  -5 1507.95 127.465   3
   2   2   6 265.113 60.6621   1
  -2  -2  -6 340.187 51.5722   2
  -2  -2  -6 259.069 56.8050   3
  -2  -2  -7 25.7703 20.7447   3
  -2  -2  -7 9.54838 3.91043   2
   2   2   7 21.1868 23.4234   1
   2   2   8-1.51178 9.97589   1
  -2  -2  -8 0.64196 12.5366   3
  -2  -2  -8 27.1547 20.2448   2
   2   2   9 1205.99 143.285   1
  -2  -2  -9 1217.63 114.618   2
  -2  -2  -9 1200.56 139.324   3
  -2  -2 -10 1.40706 22.5833   3
  -2  -2 -10 0.75857 21.1911   2
  -2  -2 -11 270.159 72.4984   3
  -2  -2 -11 144.932 34.9820   2
  -2  -2 -12 77.1306 35.2546   3
  -2  -2 -13 9.45234 12.8242   3
  -2  -2 -14-6.62464 20.6553   3
  -2  -2 -15 62.8487 39.4254   3
  -2  -2 -16 6.36462 10.7578   3
  -2  -2 -17 11.5915 23.6744   3
   2   3 -21 161.741 67.7046   1
   2   3 -20 7.61013 16.2021   1
   2   3 -19 19.4857 23.9313   1
   2   3 -18-15.1331 29.7419   1
   2   3 -17-31.2877 31.5992   1
   2   3 -16-10.7695 15.5207   1
   2   3 -15 338.747 82.8653   1
   2   3 -14-19.2527 22.0772   1
   2   3 -13 149.794 46.3657   3
   2   3 -13 152.027 53.1725   1
   2   3 -12 1401.66 153.794   1
   2   3 -12 1373.98 139.767   3
   2   3 -11 1531.38 153.432   1
  -2  -3  11 1422.38 164.734   1
   2   3 -11 1367.41 135.781   3
   2   3 -10 962.877 118.494   1
   2   3 -10 925.854 108.168   3
   2   3  -9 288.493 63.1768   1
   2   3  -9 281.029 58.5600   3
   2   3  -8 76.1945 30.2374   1
   2   3  -8 80.1661 28.2453   3
   2   3  -7 83.5021 32.0568   1
   2   3  -7 94.1840 30.0640   3
   2   3  -6 136.469 40.7735   1
   2   3  -6 123.144 35.3248   3
   2   3  -5 899.096 103.919   1
  -2  -3   5 1014.08 96.9306   3
   2   3  -5 1020.14 100.458   3
   2   3  -4 160.828 42.8937   1
   2   3  -4 191.149 43.0999   3
  -2  -3   4 162.108 38.9684   3
  -2  -3   3 285.591 50.3996   3
   2   3  -3 262.192 51.8538   3
  -2  -3   2 1127.79 100.932   3
   2   3  -2 1052.81 102.738   3
   2   3  -1 6.54626 12.7792   2
   2   3  -1 20.4381 11.8402   3
  -2  -3   1 3.58027 5.35473   3
   2   3   0 1478.33 103.835   2
  -2  -3   0 1530.97 121.878   3
   2   3   0 1374.27 117.804   3
   2   3   1 1075.52 76.5188   2
  -2  -3  -1 1032.84 100.622   3
   2   3   1 1039.12 105.680   3
  -2  -3  -2 57.7493 26.1121   3
   2   3   2 52.8110 24.2431   3
   2   3   2 28.5751 9.16785   2
   2   3   3 252.936 25.0150   2
   2   3   3 311.300 61.2609   3
  -2  -3  -3 264.203 53.9277   3
   2   3   4 398.237 72.2708   1
  -2  -3  -4 353.745 65.7190   3
  -2  -3  -5 132.599 40.4422   3
   2   3   5 210.077 52.9969   1
   2   3   6 733.600 105.942   1
  -2  -3  -6 432.337 36.6112   2
  -2  -3  -6 677.811 98.0020   3
   2   3   7 5265.56 288.738   1
  -2  -3  -7 3960.24 134.270   2
  -2  -3  -7 5601.16 283.048   3
   2   3   8 820.622 116.613   1
  -2  -3  -8 663.379 63.7428   2
  -2  -3  -8 861.152 116.438   3
  -2  -3  -9 3555.98 165.354   2
  -2  -3  -9 3918.53 260.795   3
  -2  -3 -10 764.474 81.3734   2
  -2  -3 -10 766.753 119.466   3
  -2  -3 -11-3.82509 16.6634   3
  -2  -3 -11 10.7961 8.68774   2
  -2  -3 -12 209.412 68.4967   3
  -2  -3 -13 16.2005 27.9225   3
  -2  -3 -14-23.5183 35.7769   3
  -2  -3 -15 11.7200 12.8191   3
  -2  -3 -16 52.4646 40.5588   3
   2   4 -21 165.218 81.7787   1
   2   4 -20 7.08916 21.5502   1
   2   4 -19-0.54136 21.8518   1
   2   4 -18-38.5757 37.3376   1
   2   4 -17 46.3271 33.0479   1
   2   4 -16 9.28390 23.5021   1
   2   4 -15 39.8116 29.1513   1
   2   4 -14 171.329 58.0733   1
   2   4 -13 362.153 83.6120   1
   2   4 -12-26.2244 20.4770   3
   2   4 -12 37.2811 28.3935   1
   2   4 -11 21.7187 13.1425   3
   2   4 -11 34.2007 17.3949   1
   2   4 -10 394.296 80.6479   1
   2   4 -10 356.380 71.9936   3
   2   4  -9 491.741 86.6165   1
   2   4  -9 487.960 81.7188   3
   2   4  -8 29.3218 23.6431   1
   2   4  -8-4.11107 14.2196   3
   2   4  -7 14.0262 15.1855   1
   2   4  -7-3.75573 4.63644   3
   2   4  -6 17.5868 16.6453   3
   2   4  -6 14.3455 18.7719   1
   2   4  -5 2472.96 188.862   1
  -2  -4   5 2560.23 169.755   3
   2   4  -5 2622.20 176.409   3
  -2  -4   4 878.470 98.5912   3
   2   4  -4 813.634 98.5853   3
   2   4  -3 72.5694 30.7447   3
  -2  -4   3 65.5309 26.5141   3
   2   4  -2 12.7896 5.88191   3
  -2  -4   2 24.1202 17.2732   3
   2   4  -1 51.9364 21.7108   2
   2   4  -1 37.4639 20.3912   3
  -2  -4   1 59.1549 25.4869   3
   2   4   0 272.949 38.7370   2
  -2  -4   0 221.203 50.4293   3
   2   4   0 289.798 61.2579   3
   2   4   1 167.351 46.5194   3
   2   4   1 111.654 17.6376   2
  -2  -4  -1 132.899 38.6235   3
  -2  -4  -2 415.224 75.4158   3
   2   4   2 420.094 77.4522   3
  -2  -4  -3 5.22677 5.99555   3
   2   4   3-13.8079 14.1229   3
  -2  -4  -4 11.6790 7.93086   3
   2   4   4 47.9968 21.4881   1
   2   4   5 762.102 110.606   1
  -2  -4  -5 849.765 110.686   3
   2   4   6 263.116 66.8710   1
  -2  -4  -6 293.710 70.6317   3
  -2  -4  -7 2060.43 187.113   3
  -2  -4  -8 369.974 83.7754   3
  -2  -4  -9 1.91220 18.0082   3
  -2  -4 -10 10.6640 15.7554   3
  -2  -4 -11 365.095 87.2888   3
  -2  -4 -12 30.7746 27.6254   3
  -2  -4 -13 26.0427 29.1556   3
  -2  -4 -14 280.975 91.0282   3
  -2  -4 -15 16.1796 11.5571   3
   2   5 -20 54.7168 42.1004   1
   2   5 -19-3.98481 12.8289   1
   2   5 -18 42.1810 26.2328   1
   2   5 -17-7.61921 25.8945   1
   2   5 -16 12.9007 19.1611   1
   2   5 -15 70.5938 41.8879   1
   2   5 -14 340.851 86.7247   1
   2   5 -13-21.2066 22.3804   1
   2   5 -12 403.520 88.3365   1
   2   5 -11 29.0850 34.7712   1
   2   5 -10 22.3113 15.7276   1
   2   5 -10-50.5069 28.4103   3
   2   5  -9 182.296 55.4960   1
   2   5  -9 174.942 54.4294   3
   2   5  -8 110.075 39.5462   3
   2   5  -8 71.0350 34.2053   1
   2   5  -7 219.540 57.6817   3
   2   5  -7 176.631 53.7748   1
   2   5  -6 1082.53 135.690   1
  -2  -5   6 1043.24 118.247   3
   2   5  -6 1081.69 124.353   3
  -2  -5   5 182.169 47.5736   3
   2   5  -5 185.048 51.1079   3
   2   5  -4 142.962 45.2327   3
  -2  -5   4 225.324 53.8764   3
   2   5  -3 239.756 58.9803   3
  -2  -5   3 281.422 62.5758   3
   2   5  -2 126.189 44.2480   3
  -2  -5   2 115.243 38.6505   3
   2   5  -1 1.10115 9.46825   3
   2   5  -1 6.56349 10.6953   2
  -2  -5   1-0.04703 9.11970   3
  -2  -5   0 82.8418 33.2635   3
   2   5   0 65.6360 32.3139   3
   2   5   0 92.4457 14.8738   2
   2   5   0 51.1538 12.8569   2
  -2  -5  -1 296.925 64.8398   3
   2   5   1 285.829 66.0946   3
   2   5   2 63.9255 32.7210   3
  -2  -5  -2 52.8702 27.0367   3
  -2  -5  -3 611.304 96.6812   3
  -2  -5  -4 430.642 83.2772   3
  -2  -5  -5 70.0953 34.5574   3
  -2  -5  -6 390.121 84.2155   3
  -2  -5  -7 83.7170 38.7515   3
  -2  -5  -8 49.6091 34.3758   3
  -2  -5  -9 69.2440 38.1556   3
  -2  -5 -10 77.1999 39.0514   3
  -2  -5 -11 56.2246 36.6932   3
  -2  -5 -12 0.65096 27.2153   3
  -2  -5 -13 29.5252 35.2481   3
  -2  -5 -14 126.695 60.1105   3
   2   6 -20 152.496 68.4829   1
   2   6 -19 130.830 63.3704   1
   2   6 -18 112.563 55.9680   1
   2   6 -17 25.0933 10.1083   1
   2   6 -16 16.7666 8.97469   1
   2   6 -15 151.538 62.2580   1
   2   6 -14 428.978 102.297   1
   2   6 -13 56.6177 32.7287   1
   2   6 -12 159.857 58.6325   1
   2   6 -11 134.231 50.7132   1
   2   6 -10 33.2839 24.9711   1
   2   6  -9 118.009 46.3763   1
   2   6  -8 1782.87 188.607   1
   2   6  -7 926.029 133.224   1
  -2  -6   7 870.539 116.365   3
   2   6  -6 1727.63 184.131   1
  -2  -6   6 1580.78 156.444   3
   2   6  -5 6068.82 312.549   3
  -2  -6   5 6134.88 304.519   3
   2   6  -4-47.1888 27.3860   3
  -2  -6   4 14.9592 20.0035   3
   2   6  -3 9.96383 13.2726   3
   2   6  -3 112.164 36.2224   2
  -2  -6   3 28.9041 21.9967   3
   2   6  -2 2.17764 7.07869   2
  -2  -6   2 9.17037 15.7897   3
   2   6  -1 46.1385 17.3539   2
   2   6  -1 56.6296 14.9708   2
  -2  -6   1 65.3053 30.0516   3
  -2  -6   0-20.3811 20.2686   3
  -2  -6  -1 134.977 48.1290   3
  -2  -6  -2-8.06231 12.4906   3
  -2  -6  -3 13.4495 8.48492   3
  -2  -6  -4 545.187 98.8255   3
  -2  -6  -5 398.487 88.1803   3
  -2  -6  -6 240.982 70.2590   3
  -2  -6  -7 1.36296 7.19840   3
  -2  -6  -8 24.1367 27.5982   3
  -2  -6  -9 49.0492 35.8947   3
  -2  -6 -10 363.983 94.3445   3
  -2  -6 -11 80.4782 50.1672   3
  -2  -6 -12-26.6477 21.4347   3
   2   7 -19 54.9563 42.0057   1
   2   7 -18 16.8164 18.6768   1
   2   7 -17 5.50736 13.9115   1
   2   7 -16-7.93621 6.92236   1
   2   7 -15 67.2858 42.7155   1
   2   7 -14 63.4156 35.3034   1
   2   7 -13 68.0295 39.0545   1
   2   7 -12 302.310 84.4917   1
   2   7 -11 54.5110 26.8334   1
   2   7 -10 96.7698 53.1027   1
   2   7  -9-3.07286 17.4441   1
   2   7  -8 2377.65 233.932   1
   2   7  -7 1572.15 191.075   1
  -2  -7   7 1631.33 170.484   3
   2   7  -6 824.173 101.473   2
  -2  -7   6 737.652 112.504   3
   2   7  -5 430.722 69.3940   2
  -2  -7   5 367.605 79.5632   3
   2   7  -4 283.155 49.4778   2
  -2  -7   4 310.358 72.8389   3
   2   7  -3 31.3410 22.0624   2
  -2  -7   3 0.42666 9.17188   3
   2   7  -2 6.13074 3.57238   2
  -2  -7   2 7.06122 11.5769   3
  -2  -7   1 254.202 67.0671   3
  -2  -7   0-0.32199 6.54238   3
  -2  -7  -1 731.188 116.174   3
  -2  -7  -2 313.206 77.7424   3
  -2  -7  -3 11.8087 12.2129   3
  -2  -7  -4 89.8819 40.7278   3
  -2  -7  -5 167.813 61.2543   3
  -2  -7  -6 55.0427 40.0041   3
  -2  -7  -7 11.6132 17.4154   3
  -2  -7  -8-55.3124 36.7638   3
  -2  -7  -9 32.4284 24.3811   3
  -2  -7 -10 417.830 105.504   3
  -2  -7 -11 47.2351 48.3203   3
   2   8 -18-19.0416 25.5151   1
   2   8 -17 42.8389 36.8384   1
   2   8 -16 32.8222 26.9690   1
   2   8 -15 46.3810 41.0052   1
   2   8 -14 152.769 66.7980   1
   2   8 -13 83.5938 47.6197   1
   2   8 -12 88.1734 47.4884   1
   2   8 -11 122.642 57.9556   1
   2   8 -10 299.250 86.7660   1
   2   8  -9 163.058 63.2528   1
   2   8  -9 293.718 80.6537   2
   2   8  -8 86.9021 42.9979   2
   2   8  -8 22.7249 10.6258   1
   2   8  -7 234.026 77.0050   1
   2   8  -7 278.836 66.4007   2
  -2  -8   7 289.761 75.7528   3
   2   8  -6 327.659 67.6072   2
  -2  -8   6 364.375 85.1665   3
   2   8  -5 132.183 40.2087   2
  -2  -8   5 51.6778 32.3434   3
   2   8  -4 756.318 86.6941   2
  -2  -8   4 734.124 118.347   3
   2   8  -3-18.7347 22.5533   2
  -2  -8   3 25.0111 25.5373   3
   2   8  -2 28.2770 12.8744   2
  -2  -8   2 22.2317 20.4202   3
  -2  -8   1 591.114 108.251   3
  -2  -8   0 33.5261 27.5843   3
  -2  -8  -1 195.978 63.1636   3
  -2  -8  -2 16.4993 19.8160   3
  -2  -8  -3 16.1525 26.5589   3
  -2  -8  -4 53.8929 33.3830   3
  -2  -8  -5 31.6645 22.8557   3
  -2  -8  -6 26.9641 26.5382   3
  -2  -8  -7-25.8220 25.4065   3
  -2  -8  -8 221.066 77.3817   3
  -2  -8  -9 306.249 97.2811   3
   2   9 -16 73.7671 49.3672   1
   2   9 -15 19.7642 25.9632   1
   2   9 -14 42.7339 35.5751   1
   2   9 -13-57.0569 41.5119   1
   2   9 -12 128.862 61.5080   1
   2   9 -11-23.3048 26.9413   1
   2   9 -10 18.9292 12.2115   1
   2   9  -9-20.7713 25.9130   1
   2   9  -8 68.3156 45.6235   1
  -2  -9   8 99.0697 47.5076   3
  -2  -9   7 2.29867 20.6851   3
   2   9  -7 6.88388 13.2888   1
  -2  -9   6 32.5804 24.7443   3
  -2  -9   5 341.922 84.0193   3
  -2  -9   4 947.707 142.345   3
  -2  -9   3 543.245 105.117   3
  -2  -9   2 144.355 52.8261   3
  -2  -9   1 15.6585 15.7518   3
  -2  -9   0 1.33595 17.5506   3
  -2  -9  -1 6.91191 13.7207   3
  -2  -9  -2 28.7340 28.9862   3
  -2  -9  -3 30.3924 11.8319   3
  -2  -9  -4-30.9327 29.0760   3
  -2  -9  -5-19.6387 36.1425   3
  -2  -9  -6 8.80136 18.8893   3
   2  10 -14 308.516 103.760   1
   2  10 -13 379.593 111.706   1
   2  10 -12-1.24892 22.6983   1
   2  10 -11 113.616 58.6385   1
   2  10 -10 14.6447 23.7361   1
   2  10  -9 22.0341 40.1217   1
  -2 -10   8 14.5079 26.9497   3
   2  10  -8-15.9610 42.9516   1
  -2 -10   7 128.521 59.0639   3
  -2 -10   6 102.739 49.9207   3
  -2 -10   5 22.6182 11.6389   3
  -2 -10   4 241.297 75.4382   3
  -2 -10   3 132.457 58.4639   3
  -2 -10   2 140.903 63.1396   3
  -2 -10   1 137.422 58.6359   3
  -2 -10   0 23.0066 12.2360   3
  -2 -10  -1 11.0157 25.7301   3
  -2 -10  -2-2.52160 29.7222   3
  -2 -10  -3 72.0988 41.5706   3
   2  11 -10-29.3598 34.8258   1
   2  11  -9-3.57317 14.7130   1
  -2 -11   8 26.7303 37.3317   3
   2  11  -8-72.8505 54.5064   1
  -2 -11   7 79.7122 50.8516   3
  -2 -11   6 137.415 58.9566   3
  -2 -11   5-46.1655 35.3143   3
  -2 -11   4 340.759 97.8880   3
  -2 -11   3 16.7654 36.2608   3
   3 -10  -2-37.2954 61.4096   2
   3 -10  -1-32.1446 38.9679   2
   3 -10   0-6.85114 35.8045   2
   3 -10   1-21.7729 27.1749   2
   3 -10   2-29.9824 50.6996   2
   3 -10   3 38.3411 45.3064   2
   3 -10   4 65.8669 47.8419   2
   3 -10   5 20.5956 34.2275   2
   3 -10   6 114.279 77.8927   2
   3 -10   7 59.8451 39.6803   2
   3 -10   8 53.8052 25.9753   2
   3  -9  -6 12.6089 27.4373   2
   3  -9  -5 90.7566 64.8107   2
   3  -9  -4 179.016 82.5783   2
   3  -9  -3-10.0799 21.2734   2
   3  -9  -2 3.36369 29.5889   2
   3  -9  -1 26.3755 29.8895   2
   3  -9   0-1.85655 19.1047   2
   3  -9   1-25.2648 25.3391   2
   3  -9   2-41.6425 49.8853   2
   3  -9   3 11.0062 9.54036   2
  -3   9  -3 10.4447 14.3176   1
  -3   9  -4 64.7107 27.4900   1
   3  -9   4 135.542 67.6800   2
   3  -9   5 73.6787 51.3981   2
  -3   9  -5 78.1301 33.0904   1
  -3   9  -6 49.2336 25.7028   1
   3  -9   6 130.069 70.9496   2
  -3   9  -7 5.03749 16.5432   1
   3  -9   7 147.594 72.6366   2
   3  -9   8-16.2115 22.9512   2
   3  -9   9 0.11037 30.8828   2
   3  -9  10 18.4263 43.6108   2
   3  -9  11 162.204 72.0098   2
   3  -9  12 102.886 67.8962   2
   3  -8  -8-5.00761 17.5937   2
   3  -8  -7 4.50416 32.2932   2
   3  -8  -6 81.6341 57.1915   2
   3  -8  -5 13.2228 30.6793   2
   3  -8  -4 66.2745 56.3336   2
   3  -8  -3 386.396 117.562   2
   3  -8  -2 192.719 81.0053   2
   3  -8  -1 32.9239 18.3441   2
   3  -8   0-37.4445 43.5525   2
  -3   8  -1-15.0343 15.4087   1
   3  -8   1-33.9502 48.0160   2
   3  -8   2-20.7752 26.3029   2
  -3   8  -2 23.0935 17.8807   1
  -3   8  -3 114.546 41.3084   1
   3  -8   3 95.8345 53.1230   2
   3  -8   4 43.2686 40.1877   2
  -3   8  -4-43.0528 24.1705   1
   3  -8   5 665.458 135.274   2
  -3   8  -5 563.840 88.9920   1
  -3   8  -6 5.73186 16.8202   1
   3  -8   6 67.0794 45.1929   2
   3  -8   7 146.903 63.3079   2
  -3   8  -7 38.0394 24.6954   1
   3  -8   8 170.797 65.9873   2
  -3   8  -8 56.6136 29.3390   1
   3  -8   9-4.04769 19.4541   2
  -3   8  -9 34.0965 31.4387   1
   3  -8  10 131.271 63.4840   2
  -3   8 -10 110.742 49.8408   1
   3  -8  11 108.829 76.3157   2
  -3   8 -11 90.2896 43.8445   1
  -3   8 -12 44.5758 32.7215   1
   3  -8  12 229.487 88.4764   2
  -3   8 -13 38.2214 31.0494   1
  -3   8 -14 116.097 58.4991   1
   3  -7 -10 129.163 77.0001   2
   3  -7  -9 33.1037 38.2728   2
   3  -7  -8 54.3700 43.7691   2
   3  -7  -7 3.73190 11.0628   2
   3  -7  -6 46.2812 46.4807   2
   3  -7  -5 13.3351 22.7068   2
   3  -7  -4 44.4698 27.2642   2
   3  -7  -3-7.60773 17.1210   2
   3  -7  -2 30.1325 33.6680   2
   3  -7  -1 3.08480 20.3460   2
   3  -7   0 21.4056 17.0845   2
  -3   7  -1 5.86866 11.2617   1
   3  -7   1-0.94441 55.2962   2
  -3   7  -2-3.09360 9.56845   1
   3  -7   2-24.1263 36.0329   2
  -3   7  -3 86.0930 24.3665   3
  -3   7  -3 192.623 43.7507   1
   3  -7   3 136.166 52.9755   2
  -3   7  -4 169.516 39.9394   1
   3  -7   4 143.496 64.5679   2
  -3   7  -4 118.451 32.2021   3
  -3   7  -5 281.669 55.9010   1
   3  -7   5 272.221 85.9629   2
  -3   7  -6 376.372 68.0778   1
   3  -7   6 428.318 108.324   2
   3  -7   7 202.977 78.2056   2
  -3   7  -7 85.4488 30.4822   1
   3  -7   8 105.309 65.5163   2
  -3   7  -8 6.61610 13.6929   1
  -3   7  -9 110.684 43.5159   1
   3  -7   9 29.3495 29.5041   2
  -3   7 -10 225.915 61.5622   1
   3  -7  10 293.169 89.0903   2
  -3   7 -11-2.29434 19.6865   1
   3  -7  11 178.417 81.5547   2
   3  -7  12 2176.15 241.104   2
  -3   7 -12 2257.82 221.789   1
  -3   7 -13 6.68816 15.3693   1
  -3   7 -14 64.4957 38.5101   1
  -3   7 -15 609.037 123.878   1
  -3   7 -16 45.5814 29.8539   1
  -3   7 -17 91.5101 51.1580   1
   3  -6 -12 71.5639 64.8195   2
   3  -6 -11 114.563 69.6811   2
   3  -6 -10 49.1575 49.7411   2
   3  -6  -9 14.2812 20.8575   2
   3  -6  -8-27.0142 33.7871   2
   3  -6  -7 38.8556 29.8354   2
   3  -6  -6 30.3970 31.9432   2
   3  -6  -5 210.056 86.0949   2
   3  -6  -4 418.125 118.938   2
  -3   6   3 363.463 62.6500   1
   3  -6  -3 394.828 110.202   2
  -3   6   2 37.8823 16.0283   1
   3  -6  -2 70.3566 55.7770   2
   3  -6  -1 29.0543 31.8947   2
  -3   6   1 6.66043 7.45660   1
  -3   6   0 105.628 28.0508   1
   3  -6   0 109.278 53.8341   2
  -3   6   0 85.7003 25.0467   1
  -3   6  -1 18.0083 12.9347   1
  -3   6  -1 11.1590 6.84718   3
   3  -6   1-9.90235 32.4589   2
  -3   6  -1 10.0411 12.6145   1
  -3   6  -2-7.59554 5.62410   3
  -3   6  -2-9.04130 12.7110   1
  -3   6  -2-5.84157 3.38904   1
  -3   6  -3 32.5163 13.7979   3
   3  -6   3 24.6551 12.5662   2
  -3   6  -3 32.8883 13.7338   1
   3  -6   4 65.3467 34.7088   2
  -3   6  -4 58.2513 21.1859   1
  -3   6  -4 52.4348 20.1274   3
  -3   6  -5 11.1458 15.0221   1
   3  -6   5 58.4615 43.9996   2
  -3   6  -5 20.2133 12.3546   3
  -3   6  -6-0.75892 9.23839   1
   3  -6   6 34.9744 39.8735   2
  -3   6  -7 5.42381 10.4323   1
   3  -6   7 69.9692 48.3925   2
  -3   6  -8 30.0895 22.7697   1
   3  -6   8 151.802 67.8751   2
  -3   6  -8 48.8025 21.3079   3
  -3   6  -9 49.6833 26.3510   1
   3  -6   9 34.4711 25.8732   2
  -3   6  -9 63.6330 30.6271   3
  -3   6 -10 46.9964 25.2135   1
   3  -6  10 36.2773 31.6831   2
  -3   6 -10-10.6030 12.9515   3
  -3   6 -11 289.360 71.8242   1
   3  -6  11 389.266 102.910   2
   3  -6  12 1645.85 199.636   2
  -3   6 -12 1513.88 169.254   1
  -3   6 -13 481.416 100.423   1
  -3   6 -14 348.602 90.8768   1
  -3   6 -15 70.9987 41.6082   1
  -3   6 -16 99.5139 49.8602   1
  -3   6 -17 20.0987 20.0427   1
  -3   6 -18 156.048 69.0945   1
   3  -5 -13-26.7345 36.9536   2
   3  -5 -12-10.7411 27.4891   2
   3  -5 -11-68.9488 55.3932   2
   3  -5 -10 128.336 76.5375   2
   3  -5  -9 603.272 155.352   2
   3  -5  -8-28.6872 49.5459   2
   3  -5  -7 507.983 135.684   2
   3  -5  -6 128.491 62.8882   2
  -3   5   5 30.4330 18.2770   1
   3  -5  -5 11.6486 16.7733   2
  -3   5   4 256.588 48.2672   1
   3  -5  -4 290.626 93.3796   2
  -3   5   3 313.883 48.9909   1
   3  -5  -3 364.715 100.302   2
   3  -5  -2 932.953 162.717   2
  -3   5   2 902.108 74.8923   1
  -3   5   1 22.0694 11.2629   1
  -3   5   1 18.3331 10.7965   1
   3  -5  -1 34.4563 30.3049   2
  -3   5   0 265.539 30.9441   1
   3  -5   0 347.461 92.1801   2
   3  -5   1-9.17455 16.8857   2
  -3   5  -2 0.71867 1.04455   3
   3  -5   2-55.8653 45.8054   2
  -3   5  -3 31.3379 9.99759   1
   3  -5   3 27.5253 33.6009   2
  -3   5  -3 29.0706 10.9581   3
  -3   5  -4 16.1490 8.64273   1
   3  -5   4 15.8807 13.2628   2
  -3   5  -4 23.1963 9.79244   3
  -3   5  -5 35.9791 16.9736   1
   3  -5   5 38.1480 29.8184   2
  -3   5  -5 23.8546 10.6675   3
  -3   5  -6 48.6282 17.3663   1
   3  -5   6 57.8677 39.8377   2
  -3   5  -6 51.6062 20.8362   3
  -3   5  -7 54.4642 24.0367   1
   3  -5   7 82.4169 55.8636   2
  -3   5  -8 16.6534 18.6731   1
   3  -5   8 126.886 60.7404   2
  -3   5  -9 23.0202 20.4464   1
   3  -5   9 28.9315 31.7758   2
  -3   5 -10-5.36635 15.9165   1
   3  -5  10 40.4445 37.8808   2
  -3   5 -11 22.2917 20.8740   1
   3  -5  11 144.359 77.1715   2
   3  -5  12 386.398 98.5107   2
  -3   5 -12 167.740 52.6616   1
  -3   5 -13 89.4911 46.1543   1
  -3   5 -14 93.9999 43.3589   1
  -3   5 -15 39.6340 34.5238   1
  -3   5 -16 32.8251 30.1036   1
  -3   5 -17 85.6432 54.0811   1
  -3   5 -18 161.496 67.4165   1
  -3   5 -19 131.189 63.5457   1
   3  -4 -14 12.3868 25.6030   2
   3  -4 -13-33.7566 39.7895   2
   3  -4 -12 12.7945 24.9067   2
   3  -4 -11 20.5881 9.45038   2
   3  -4 -10 105.713 65.8648   2
   3  -4  -9 585.576 153.334   2
  -3   4   9 376.156 77.7385   1
  -3   4   8 60.0789 32.3498   1
   3  -4  -8 80.4366 48.2298   2
   3  -4  -8 40.6846 14.1981   3
   3  -4  -7 117.902 18.3339   3
   3  -4  -7 248.849 92.1289   2
  -3   4   6 16.2405 16.5370   1
   3  -4  -6-8.28541 17.1331   2
  -3   4   5 466.009 63.0875   1
   3  -4  -5 496.943 123.705   2
   3  -4  -4 536.107 129.641   2
  -3   4   4 525.943 59.6768   1
   3  -4  -3 2297.21 253.610   2
  -3   4   3 2064.54 99.4539   1
   3  -4  -2 2607.26 262.942   2
   3  -4  -1 2028.10 225.160   2
   3  -4   0 2619.16 252.562   2
   3  -4   1 381.679 91.7778   2
   3  -4   2 39.0234 34.1151   2
   3  -4   3 43.8905 23.5886   2
  -3   4  -3 48.1564 12.7289   3
   3  -4   4 154.703 56.8798   2
  -3   4  -4 171.236 29.7413   3
   3  -4   5 82.0606 37.1415   2
  -3   4  -5 87.2016 24.8149   3
  -3   4  -5 38.1832 13.3587   1
   3  -4   6 44.8944 39.6665   2
  -3   4  -6 8.11200 5.88168   1
   3  -4   7 73.4984 52.4608   2
  -3   4  -7 55.0446 20.3572   1
   3  -4   8 144.411 66.9795   2
  -3   4  -8 31.2493 18.1895   1
   3  -4   9 33.2082 31.9543   2
  -3   4  -9 35.2068 22.4844   1
   3  -4  10-17.5925 16.6810   1
  -3   4 -10 16.2652 17.4346   1
   3  -4  11 4.22315 9.60664   1
  -3   4 -11 64.7532 39.0793   1
  -3   4 -12 4.28474 17.3379   1
  -3   4 -13 12.5849 13.8973   1
  -3   4 -14 43.8372 29.3781   1
  -3   4 -15 18.9841 21.0213   1
  -3   4 -16 8.31221 10.1081   1
  -3   4 -17 14.3978 10.5162   1
  -3   4 -18 5.66135 20.3922   1
  -3   4 -19 13.4747 21.6777   1
  -3   4 -20 18.2885 25.6413   1
   3  -3 -15 17.6600 30.1514   2
   3  -3 -14 65.6712 54.6410   2
   3  -3 -13 123.070 42.0105   2
   3  -3 -12 65.5768 34.6852   2
   3  -3 -11-5.34958 11.8318   2
   3  -3 -11-7.69058 11.5764   3
  -3   3  10 50.8362 29.3581   1
   3  -3 -10 13.2662 11.3509   3
   3  -3 -10 2.63345 21.6819   2
  -3   3   9-4.17853 8.80983   1
   3  -3  -9 6.97233 6.87556   3
   3  -3  -9 33.4475 30.3924   2
   3  -3  -8 17.4661 7.23110   3
   3  -3  -8 60.5813 38.5331   2
  -3   3   7 15.1281 6.01464   1
   3  -3  -7-3.42693 14.1065   2
  -3   3   6 32.8416 12.7795   1
   3  -3  -6 93.5428 53.7240   2
  -3   3   5 83.3972 25.3920   1
   3  -3  -5 115.777 64.7071   2
  -3   3   4 14.8057 9.47000   1
   3  -3  -4-59.5572 58.1190   2
   3  -3  -3 1382.89 192.351   2
   3  -3  -2 4762.42 343.551   2
   3  -3  -1 89.2131 40.7664   2
   3  -3   0 1250.36 167.118   2
   3  -3   1 39.6181 32.5508   2
   3  -3   2 324.839 83.7913   2
  -3   3  -3 363.836 37.2306   3
   3  -3   3 365.223 83.8012   2
  -3   3  -3 357.312 40.2723   3
   3  -3   4 449.257 87.9215   2
  -3   3  -4 550.894 61.9685   3
   3  -3   5 197.747 63.1290   2
   3  -3   6 1663.61 179.735   2
  -3   3  -7 582.096 69.7238   1
   3  -3   7 735.202 121.949   2
   3  -3   7 533.466 69.4084   1
  -3   3  -8 26.0134 10.4897   1
   3  -3   8 9.21524 14.9449   1
   3  -3   9 48.2809 26.3557   1
   3  -3   9 98.4877 49.8753   2
  -3   3  -9 26.7048 18.0744   1
   3  -3  10 75.9048 33.3854   1
   3  -3  10 194.521 68.9399   2
  -3   3 -10 72.0112 30.4540   1
   3  -3  11 234.630 72.7711   2
  -3   3 -11 33.0255 24.3043   1
   3  -3  11 132.651 46.9668   1
  -3   3 -12 130.330 49.0704   1
   3  -3  12 169.212 62.2224   1
  -3   3 -13 21.6477 22.5442   1
  -3   3 -14-10.9138 15.2480   1
  -3   3 -15-9.76237 15.8124   1
  -3   3 -16 71.3806 40.6946   1
  -3   3 -17-5.23127 13.5131   1
  -3   3 -18-40.7845 34.6692   1
  -3   3 -19 16.8932 26.6909   1
  -3   3 -20 2.63920 8.83081   1
   3  -2 -18 32.7090 32.9698   1
   3  -2 -17 12.2247 20.1722   1
   3  -2 -16 101.234 67.1744   2
   3  -2 -16 171.864 64.6456   1
   3  -2 -15 19.8733 41.1074   2
   3  -2 -15 1.33024 16.2213   1
   3  -2 -14 67.7010 58.8555   2
   3  -2 -14 67.9056 37.8001   1
   3  -2 -13-31.8862 35.5331   2
   3  -2 -13 26.8915 15.8849   3
   3  -2 -13 64.1529 42.4873   1
   3  -2 -12 140.247 69.3496   2
   3  -2 -12 49.1147 28.0108   3
   3  -2 -12 38.0592 31.1867   1
   3  -2 -11 134.637 65.9768   2
   3  -2 -11 126.269 37.3458   3
  -3   2  11 94.4145 38.3887   1
   3  -2 -11 166.745 53.9958   1
   3  -2 -10 26.6309 33.6067   2
   3  -2 -10 3.41837 5.66867   3
  -3   2  10 11.0916 20.3886   1
   3  -2 -10-7.61939 10.5026   1
   3  -2  -9 134.420 67.1537   2
   3  -2  -9 86.9896 23.4069   3
   3  -2  -9 116.389 41.4729   1
   3  -2  -9 91.9335 24.3938   3
   3  -2  -8 115.085 57.1981   2
   3  -2  -8 34.4143 12.0056   3
  -3   2   8 53.9030 28.8766   1
   3  -2  -8 78.6369 19.6164   3
  -3   2   7 29.3668 18.2543   1
   3  -2  -7 90.2348 55.4891   2
  -3   2   6 9.88517 8.70669   1
   3  -2  -6 10.7828 9.37453   2
  -3   2   5 14.0712 8.13750   1
   3  -2  -5 25.3467 25.6410   2
   3  -2  -4 108.929 55.9199   2
   3  -2  -3-24.5345 37.3529   2
   3  -2  -2-21.8847 35.7853   2
   3  -2  -1 44.5085 25.3591   2
  -3   2   0 53.3416 31.0619   2
   3  -2   0 43.9178 24.7081   2
  -3   2  -1 102.638 52.3728   2
   3  -2   1 141.448 51.1090   2
  -3   2  -2 1.76499 4.15740   3
  -3   2  -2 26.2523 23.9398   2
   3  -2   2 16.7853 30.1096   2
   3  -2   3 209.844 55.6576   2
  -3   2  -3 213.802 32.8341   3
  -3   2  -3 303.326 85.9626   2
  -3   2  -4 50.3652 19.5754   3
   3  -2   4-24.1025 30.7978   2
  -3   2  -4 56.9946 42.5242   2
   3  -2   5 865.083 124.196   2
  -3   2  -5 872.346 147.635   2
   3  -2   5 819.293 63.7213   1
  -3   2  -5 927.305 93.5605   3
   3  -2   6 436.386 89.1438   2
   3  -2   6 289.149 46.3231   1
  -3   2  -6 367.375 67.2621   3
  -3   2  -6 301.247 87.4658   2
   3  -2   7 205.836 65.6939   2
   3  -2   7 147.469 39.4463   1
  -3   2  -7 129.546 56.9060   2
   3  -2   8 56.0984 29.6205   1
   3  -2   8 67.4714 36.9773   2
  -3   2  -8 34.9692 32.6439   2
   3  -2   9 28.1701 20.7942   1
   3  -2   9 74.8477 45.8452   2
  -3   2 -10-4.89805 8.10196   1
   3  -2  10 58.6071 36.0006   1
   3  -2  11 43.5951 27.7826   1
  -3   2 -11 26.7553 24.9908   1
   3  -2  12 32.5251 25.7958   1
  -3   2 -12 22.0451 23.7191   1
  -3   2 -13 873.342 129.855   1
  -3   2 -14 24.7541 20.3420   1
  -3   2 -15 46.8486 33.2671   1
  -3   2 -16 116.818 56.4030   1
  -3   2 -17 7.26143 15.6514   1
  -3   2 -18 74.7570 42.8305   1
  -3   2 -19 15.4738 23.2064   1
   3  -1 -19-4.71766 14.2834   1
   3  -1 -18 25.7109 43.0368   1
   3  -1 -17 190.295 75.3616   1
   3  -1 -16 64.8125 62.0023   2
   3  -1 -16 94.6818 48.0543   1
   3  -1 -15 1170.14 169.869   1
   3  -1 -15 1116.21 204.292   2
   3  -1 -14 454.371 130.376   2
   3  -1 -14 579.775 115.349   1
   3  -1 -13 365.977 116.279   2
   3  -1 -13 297.848 77.2093   1
   3  -1 -12 28.8109 32.5642   2
   3  -1 -12 17.8898 16.8990   1
  -3   1  12 34.1430 38.7349   1
   3  -1 -11-3.78157 23.0856   2
   3  -1 -11-1.10635 6.53449   3
   3  -1 -11 9.61509 21.4756   1
  -3   1  11 45.0069 28.2850   1
  -3   1  10 64.9566 32.2604   1
   3  -1 -10 47.5047 37.8260   2
   3  -1 -10 56.7540 31.5116   1
   3  -1 -10 69.3743 25.7350   3
   3  -1  -9 50.7503 39.2534   2
   3  -1  -9 46.2634 23.4275   1
   3  -1  -9 55.3862 19.5982   3
   3  -1  -8-6.22541 28.2097   2
  -3   1   8 8.62348 14.3911   1
   3  -1  -8-10.8073 17.9647   1
   3  -1  -8-14.8863 10.6526   3
   3  -1  -7 61.2537 40.0909   2
  -3   1   7 25.0231 13.3655   1
   3  -1  -7 33.9719 18.1856   1
   3  -1  -7 18.9012 8.15164   3
   3  -1  -6 99.0409 50.0239   2
   3  -1  -6 88.7251 25.6000   1
   3  -1  -5 24.1890 11.0241   1
   3  -1  -5 55.1606 40.5948   2
   3  -1  -4 241.995 75.8259   2
   3  -1  -3 922.877 151.350   2
   3  -1  -2 184.532 65.8242   2
   3  -1  -1-23.5672 35.9356   2
  -3   1   0 59.3450 10.1214   3
   3  -1   0 87.2109 40.4177   2
  -3   1  -1 32.0366 35.4274   2
   3  -1   1 28.3482 20.4746   2
  -3   1  -1 29.1474 10.4600   3
  -3   1  -2-4.27393 2.86372   3
  -3   1  -2 17.9115 8.66020   2
   3  -1   2 4.94618 11.6389   2
  -3   1  -3 33.0640 20.8360   2
  -3   1  -3 15.9936 12.1339   3
   3  -1   3-4.86700 25.9577   2
  -3   1  -4-3.95688 8.27600   3
   3  -1   4 20.0520 9.72249   1
   3  -1   4 6.08758 16.1910   2
  -3   1  -4-8.78852 22.3445   2
  -3   1  -5 42.4873 22.8967   3
   3  -1   5 35.6716 25.1674   2
   3  -1   5 40.4868 16.9617   1
  -3   1  -5 46.2882 28.3165   2
  -3   1  -6 36.9003 23.1663   3
   3  -1   6 57.7402 39.4444   2
  -3   1  -6 56.1643 34.2965   2
  -3   1  -7-9.68774 18.4778   3
  -3   1  -7 21.0641 29.9091   2
  -3   1  -8 67.6745 31.2266   3
   3  -1   8 131.443 50.1501   2
   3  -1   8 50.5770 25.6522   1
  -3   1  -8-2.23456 26.6309   2
  -3   1  -9 18.1260 17.4526   3
   3  -1   9 1.44376 10.5152   1
  -3   1  -9-4.72425 30.9520   2
  -3   1 -10 1.29177 12.1621   3
  -3   1 -10-27.7930 27.1383   2
   3  -1  10-11.4553 14.0755   1
  -3   1 -11 0.13962 10.5347   3
  -3   1 -11 24.7880 26.6744   2
   3  -1  11-5.10644 10.2201   1
  -3   1 -12 87.9270 48.5846   3
  -3   1 -13 38.3972 38.1546   3
  -3   1 -14 204.909 73.2249   3
  -3   1 -15 78.2730 49.6394   3
  -3   1 -16 53.5995 45.3808   3
  -3   1 -17 69.1211 45.3474   3
   3   0 -20-28.5464 31.2910   1
   3   0 -19-24.9713 28.2835   1
   3   0 -18 153.852 68.1999   1
   3   0 -17 920.390 157.914   1
   3   0 -16 12.5960 23.8751   1
   3   0 -15 430.081 99.7416   1
   3   0 -14 169.460 58.6935   1
   3   0 -13 1.66980 14.5544   1
  -3   0  12 60.7735 35.4664   1
   3   0 -12 69.1804 34.4899   1
   3   0 -11 92.6733 54.5284   2
  -3   0  11 29.8519 27.0482   1
   3   0 -11 46.3246 22.4899   3
   3   0 -11 49.0669 30.8301   1
  -3   0  10 208.939 63.2916   1
   3   0 -10 217.820 78.1932   2
   3   0 -10 251.880 62.1069   1
   3   0 -10 233.570 49.7891   3
   3   0  -9 450.038 75.4025   1
   3   0  -9 465.858 111.977   2
   3   0  -9 375.346 57.3620   3
   3   0  -8 1280.54 121.054   1
   3   0  -8 1217.76 182.858   2
   3   0  -8 1204.73 93.6543   3
   3   0  -7 18.9252 22.3714   2
   3   0  -7 9.42909 12.5472   1
   3   0  -7 20.1303 11.4738   3
   3   0  -6 185.529 70.2095   2
   3   0  -6 137.224 34.0237   1
   3   0  -6 87.7574 20.2920   3
   3   0  -5 409.357 52.5992   1
   3   0  -5 424.536 100.267   2
   3   0  -5 289.943 31.9071   3
   3   0  -4 104.954 23.9448   1
   3   0  -4 63.9744 14.6041   3
   3   0  -4 188.999 64.1503   2
   3   0  -3 180.665 26.7723   1
   3   0  -3 223.973 70.8164   2
   3   0  -2 211.121 22.9781   1
   3   0  -2 432.727 95.2325   2
   3   0  -1 524.760 102.680   2
  -3   0   1 566.662 47.9271   3
   3   0   0 77.7755 37.7402   2
  -3   0   0 39.9374 13.7537   3
   3   0   1 402.000 38.3996   1
   3   0   1 586.526 98.9150   2
   3   0   1 599.948 44.6181   1
  -3   0  -1 584.200 59.0319   3
  -3   0  -2-4.87523 2.98076   3
  -3   0  -2-3.58027 9.80973   2
   3   0   2 1.28245 4.02278   1
   3   0   2-3.32058 20.6207   2
   3   0   3 285.292 41.9681   1
  -3   0  -3 313.565 78.9509   2
   3   0   3 245.262 56.4595   2
  -3   0  -3 302.991 49.5458   3
   3   0   4 586.449 92.0122   2
   3   0   4 728.264 75.2299   1
  -3   0  -4 654.997 110.921   2
  -3   0  -4 736.804 83.9700   3
   3   0   5 328.308 68.6562   2
   3   0   5 396.841 60.8147   1
  -3   0  -5 358.967 62.2143   3
  -3   0  -5 302.668 77.2150   2
  -3   0  -6 85.4265 34.5107   3
   3   0   6 41.1640 23.1575   1
   3   0   6 174.391 56.6538   2
  -3   0  -6 69.7209 37.3883   2
  -3   0  -7 217.903 56.4886   3
   3   0   7 212.231 50.8503   1
   3   0   7 195.673 51.3690   2
  -3   0  -7 183.717 59.7723   2
  -3   0  -8 53.4316 28.2314   3
   3   0   8 180.043 56.2957   2
   3   0   8 83.1295 38.1866   1
  -3   0  -8 135.097 52.5810   2
  -3   0  -9-25.3383 26.7799   3
   3   0   9 12.3459 25.5994   1
  -3   0  -9-33.0195 27.8109   2
  -3   0 -10-0.80774 12.3481   3
   3   0  10 17.8636 15.8283   1
  -3   0 -11-7.90729 9.45109   3
   3   0  11-1.55681 6.70075   1
  -3   0 -11-78.7793 42.9128   2
  -3   0 -12 39.1059 27.6044   3
  -3   0 -13 44.7234 26.6953   3
  -3   0 -14-0.09265 25.6905   3
  -3   0 -15 6.55798 8.82415   3
  -3   0 -16 4.67540 23.4135   3
  -3   0 -17 56.8827 43.4160   3
   3   1 -20-13.7326 21.4799   1
   3   1 -19 116.839 57.7401   1
   3   1 -18 141.722 58.1490   1
   3   1 -17 77.6430 37.1642   1
   3   1 -16 23.4410 26.2690   1
   3   1 -15 75.8770 39.5176   1
   3   1 -14 41.2360 24.7261   1
   3   1 -13 157.014 52.7283   1
   3   1 -12 17.7541 19.5007   1
  -3  -1  12-4.18748 10.6098   1
   3   1 -12-8.90782 12.0004   3
   3   1 -11 135.215 47.8499   1
  -3  -1  11 100.600 48.3480   1
   3   1 -11 117.119 39.9317   3
   3   1 -10 322.990 70.1136   1
   3   1 -10 286.504 59.2527   3
   3   1  -9 86.5171 35.7676   1
   3   1  -9 87.6519 30.6853   3
   3   1  -8 769.912 96.2882   1
   3   1  -8 743.689 134.761   2
   3   1  -8 679.041 79.2222   3
   3   1  -7-20.4851 16.3468   2
   3   1  -7-2.45929 11.7115   1
   3   1  -7 21.7565 12.7022   3
   3   1  -6-3.76102 9.28123   2
   3   1  -6 10.7291 11.1590   1
   3   1  -6 11.3679 9.23993   3
   3   1  -5 83.4630 23.4417   3
   3   1  -5 36.7622 34.0600   2
   3   1  -5 81.4710 24.8017   1
   3   1  -4 21.3939 26.9887   2
   3   1  -4 7.38867 8.06882   3
   3   1  -4 4.91052 3.13530   1
   3   1  -3 17.3104 13.0617   1
   3   1  -3 6.58513 5.49135   3
   3   1  -3 12.6308 11.1101   2
   3   1  -2 419.443 92.3193   2
   3   1  -2 381.299 47.1548   1
  -3  -1   2 416.442 50.6882   3
   3   1  -2 393.186 53.5557   3
   3   1  -1 2726.18 224.460   2
   3   1  -1 2438.64 128.272   1
  -3  -1   1 2586.27 132.617   3
   3   1   0 276.665 41.0825   1
  -3  -1   0 347.373 50.5491   3
   3   1   0 280.303 66.1182   2
   3   1   1 1376.21 95.3893   1
   3   1   1 1460.14 148.410   2
  -3  -1  -1 1416.51 107.126   3
   3   1   2 25.0931 19.6220   2
   3   1   2 41.4037 14.5780   1
  -3  -1  -2 15.2005 12.5816   3
  -3  -1  -3 175.563 41.4934   3
   3   1   3 95.7981 29.4147   2
   3   1   3 156.104 35.9290   1
   3   1   4 1171.72 105.920   1
   3   1   4 1218.28 125.241   2
  -3  -1  -4 1278.97 119.473   3
   3   1   5 1242.85 123.142   2
   3   1   5 1197.28 115.259   1
  -3  -1  -5 1363.29 130.600   3
   3   1   6 718.776 89.8168   2
   3   1   6 813.508 101.947   1
  -3  -1  -6 831.533 108.408   3
  -3  -1  -7 73.7091 34.8893   3
   3   1   7 64.1197 27.3510   1
   3   1   7 124.750 43.6903   2
   3   1   8 863.311 119.343   1
  -3  -1  -8 789.846 113.313   3
  -3  -1  -9-11.1237 25.1591   3
   3   1   9-42.3488 27.6127   1
  -3  -1 -10 234.594 67.9025   3
  -3  -1 -11 115.471 49.0775   3
  -3  -1 -12-12.4268 11.1606   3
  -3  -1 -13 23.6129 24.4645   3
  -3  -1 -14 20.2000 24.6900   3
  -3  -1 -15 5.37913 13.6577   3
  -3  -1 -16-4.22226 17.6852   3
   3   2 -20 63.2856 42.9233   1
   3   2 -19-1.81317 9.50856   1
   3   2 -18 68.7105 44.9184   1
   3   2 -17 298.654 87.4349   1
   3   2 -16 80.8474 43.2253   1
   3   2 -15-0.50558 10.8265   1
   3   2 -14 34.5908 28.3311   1
   3   2 -13 205.323 63.8432   1
   3   2 -12 370.738 81.0817   1
   3   2 -12 405.051 80.1859   3
   3   2 -11 335.498 74.5276   1
   3   2 -11 375.610 74.6066   3
   3   2 -10 157.145 49.2307   1
   3   2 -10 149.116 48.2809   3
   3   2  -9-2.75760 16.4368   1
   3   2  -9-12.7628 8.00255   3
   3   2  -8-22.0111 16.7678   1
   3   2  -8 5.64797 11.9963   3
   3   2  -7 62.6445 35.1550   2
   3   2  -7 62.1983 26.5481   1
   3   2  -7 71.2585 27.3805   3
   3   2  -6 19.1225 26.3603   2
   3   2  -6 36.3801 18.8738   1
   3   2  -6 35.6151 16.6030   3
   3   2  -5 65.4426 23.7882   3
   3   2  -5 64.6060 40.8443   2
   3   2  -5 57.5308 21.8511   1
   3   2  -4 18.5179 25.0809   2
   3   2  -4 16.8837 14.2702   3
   3   2  -4 15.0098 14.6803   1
   3   2  -3 20.1846 12.5711   3
   3   2  -3-0.47582 10.1204   1
  -3  -2   3 13.4255 12.7721   3
   3   2  -3 21.1894 26.8882   2
   3   2  -2 90.8052 30.1668   3
   3   2  -2 122.704 35.6614   1
  -3  -2   2 96.1393 27.8564   3
   3   2  -2 121.281 46.3888   2
   3   2  -1 626.028 102.433   2
  -3  -2   1 614.098 74.5535   3
   3   2  -1 613.379 80.0738   3
   3   2   0 59.3688 27.3120   3
   3   2   0 73.8762 29.9981   2
  -3  -2   0 44.3288 19.4900   3
   3   2   1 161.829 48.6586   2
  -3  -2  -1 113.213 33.7519   3
   3   2   2 20.1539 15.7117   1
   3   2   2 50.3958 22.4037   2
  -3  -2  -2 17.7719 13.9699   3
   3   2   3 734.184 91.0852   1
   3   2   3 701.246 86.6095   2
  -3  -2  -3 879.693 101.700   3
  -3  -2  -4 85.0958 32.9850   3
   3   2   4 102.822 34.4204   2
   3   2   4 90.1011 32.1673   1
   3   2   5 700.928 95.3164   1
   3   2   5 631.982 73.5659   2
  -3  -2  -5 730.301 104.430   3
   3   2   6 2310.69 132.508   2
   3   2   6 2665.51 196.853   1
  -3  -2  -6 2281.50 167.622   2
  -3  -2  -6 2523.11 202.132   3
   3   2   7 3282.58 228.530   1
  -3  -2  -7 3026.64 191.921   2
  -3  -2  -7 3703.72 246.904   3
   3   2   8 1657.81 170.597   1
  -3  -2  -8 1649.76 143.804   2
  -3  -2  -8 2023.33 188.837   3
  -3  -2  -9 196.598 60.8598   3
  -3  -2  -9 131.423 40.7534   2
  -3  -2 -10 151.688 54.7392   3
  -3  -2 -11 19.0617 10.9744   3
  -3  -2 -12 54.5660 41.0855   3
  -3  -2 -13-24.5386 16.2538   3
  -3  -2 -14 84.5145 52.4532   3
  -3  -2 -15 19.4625 16.6059   3
   3   3 -20 40.7292 35.9598   1
   3   3 -19-3.10987 11.6546   1
   3   3 -18 30.6485 36.5850   1
   3   3 -17-32.6366 30.2257   1
   3   3 -16 54.1594 38.4498   1
   3   3 -15 21.8171 23.8881   1
   3   3 -14 131.514 54.7384   1
   3   3 -13 18.6740 23.8865   1
   3   3 -12 109.360 44.9570   1
   3   3 -12 96.1735 44.6669   3
   3   3 -11 347.866 77.7064   1
   3   3 -11 326.242 74.0166   3
   3   3 -10 1306.81 147.109   1
   3   3 -10 1260.51 140.670   3
   3   3  -9 545.726 91.7439   1
   3   3  -9 543.740 88.9778   3
   3   3  -8 251.766 63.5158   1
   3   3  -8 297.455 65.8858   3
   3   3  -7 117.880 41.6608   1
   3   3  -7 113.395 38.6765   3
   3   3  -6 96.3331 33.9617   3
   3   3  -6 121.223 52.2632   2
   3   3  -6 85.6648 34.0588   1
   3   3  -5 162.602 47.1081   1
   3   3  -5 153.877 44.3874   3
   3   3  -5 154.833 59.4713   2
   3   3  -4 11.0071 26.8569   2
   3   3  -4-8.44116 11.4754   3
   3   3  -4-15.5166 13.2899   1
  -3  -3   4-5.24844 11.0406   3
   3   3  -3 26.3811 16.7736   3
  -3  -3   3 16.7239 16.9938   3
   3   3  -3 21.0505 18.6238   1
   3   3  -3 38.4025 36.5770   2
   3   3  -2 97.7073 33.6239   3
  -3  -3   2 89.2967 31.8463   3
   3   3  -2 114.958 47.9913   2
   3   3  -1 53.4601 26.8173   3
   3   3  -1 71.4207 33.6350   2
  -3  -3   1 52.7626 22.8723   3
   3   3   0 38.5564 22.2252   3
   3   3   0 77.2106 34.6567   2
  -3  -3   0 34.3786 20.6447   3
   3   3   1 45.4927 27.4846   3
   3   3   1 79.3073 30.7038   2
  -3  -3  -1 60.9727 29.1631   3
   3   3   2 52.1632 27.1421   1
   3   3   2 23.4435 12.1787   2
  -3  -3  -2 54.1950 24.1437   3
   3   3   3 41.9229 20.2665   2
   3   3   3 42.4733 25.9106   1
  -3  -3  -3 15.2365 12.2915   3
  -3  -3  -4 259.175 61.3402   3
   3   3   4 230.566 37.5022   2
   3   3   4 211.564 55.5000   1
  -3  -3  -5 34.2740 29.1897   3
   3   3   5 30.7295 21.6900   1
   3   3   6 1002.09 127.526   1
  -3  -3  -6 1230.86 145.016   3
  -3  -3  -7 8.09634 15.4788   3
  -3  -3  -8 192.558 64.4714   3
  -3  -3  -9 160.465 57.9738   3
  -3  -3 -10 70.9566 41.8479   3
  -3  -3 -11 117.626 53.3156   3
  -3  -3 -12-15.6786 16.6791   3
  -3  -3 -13 71.8264 40.4444   3
  -3  -3 -14 489.998 121.422   3
   3   4 -20 25.1256 29.4112   1
   3   4 -19 11.2830 20.2381   1
   3   4 -18 44.5574 37.0597   1
   3   4 -17 1.24778 9.02608   1
   3   4 -16 71.7936 47.8351   1
   3   4 -15 4.36835 9.42578   1
   3   4 -14 195.193 65.9752   1
   3   4 -13 549.449 109.428   1
   3   4 -12 464.204 97.4006   1
   3   4 -11 26.0468 23.2619   1
   3   4 -10 262.296 69.3322   1
   3   4 -10 200.795 58.9521   3
   3   4  -9 427.180 87.6933   1
   3   4  -9 464.041 91.0646   3
   3   4  -8 602.492 102.983   1
   3   4  -8 661.800 102.948   3
   3   4  -7 87.7787 38.7559   1
   3   4  -7 101.854 39.8078   3
   3   4  -6 16.8037 10.6488   3
   3   4  -6 26.2432 17.0349   1
   3   4  -5 766.040 126.965   2
   3   4  -5 818.153 115.939   1
  -3  -4   5 690.584 97.1936   3
   3   4  -5 701.004 102.744   3
   3   4  -4-27.7797 27.2083   1
   3   4  -4 4.70640 9.01681   3
   3   4  -4-20.7374 22.3045   2
  -3  -4   4-4.49767 11.9501   3
   3   4  -3 493.197 94.9087   2
  -3  -4   3 446.189 74.8697   3
   3   4  -3 483.102 83.6643   3
   3   4  -2 7.64536 14.4352   3
  -3  -4   2 20.3172 15.3601   3
   3   4  -2-2.44087 15.2434   2
   3   4  -1 102.619 39.5314   3
   3   4  -1 74.6824 25.4752   2
  -3  -4   1 71.5659 31.5845   3
   3   4   0 8.67444 10.1109   3
   3   4   0 6.81924 13.4480   2
  -3  -4   0 26.0711 18.5370   3
   3   4   1-14.6893 17.9205   3
   3   4   1 10.8920 12.7365   2
  -3  -4  -1 0.31687 6.02718   3
   3   4   2 2.09708 5.70292   2
  -3  -4  -2-3.71243 17.1867   3
   3   4   3 49.1124 13.3728   2
   3   4   3 0.75091 16.2875   1
  -3  -4  -3-4.90675 19.9264   3
   3   4   4 23.1278 25.7604   1
  -3  -4  -4 18.8754 19.5370   3
  -3  -4  -5 56.7300 31.2134   3
  -3  -4  -6 50.3890 32.3229   3
  -3  -4  -7 14.9786 20.3932   3
  -3  -4  -8 41.2182 29.3476   3
  -3  -4  -9 58.1068 40.3122   3
  -3  -4 -10-35.6266 29.6548   3
  -3  -4 -11 89.4607 46.7227   3
  -3  -4 -12-3.94492 6.73642   3
  -3  -4 -13 67.3022 34.7376   3
   3   5 -19 6.64736 16.5632   1
   3   5 -18-8.00347 17.3508   1
   3   5 -17-0.65467 8.79770   1
   3   5 -16 157.932 70.6229   1
   3   5 -15-6.53284 14.3699   1
   3   5 -14 47.5701 32.4313   1
   3   5 -13 16.2642 22.0887   1
   3   5 -12-27.0540 25.3686   1
   3   5 -11 214.886 69.4798   1
   3   5 -10 36.4434 29.7510   1
   3   5  -9 516.144 102.015   1
   3   5  -8 279.053 74.4913   1
   3   5  -7 4546.48 298.972   1
   3   5  -6 811.378 125.951   1
  -3  -5   6 856.865 118.153   3
   3   5  -6 740.511 113.676   3
   3   5  -5 1077.18 145.769   1
  -3  -5   5 1253.37 141.908   3
   3   5  -5 1051.04 136.345   3
   3   5  -4 82.8083 33.6934   3
   3   5  -4 180.103 62.4270   2
  -3  -5   4 133.184 46.4359   3
   3   5  -3 57.0953 31.8334   2
  -3  -5   3 40.8517 27.2993   3
   3   5  -2 296.117 63.4541   2
  -3  -5   2 316.249 69.3846   3
   3   5  -1 252.016 49.6679   2
  -3  -5   1 177.263 52.8746   3
   3   5   0 16.1604 10.4242   2
  -3  -5   0 12.3303 11.0375   3
  -3  -5  -1 42.8225 29.3384   3
  -3  -5  -2 128.710 48.0347   3
  -3  -5  -3 196.543 61.7446   3
  -3  -5  -4 92.1570 43.6108   3
  -3  -5  -5 49.0985 32.0928   3
  -3  -5  -6 21.8307 19.7516   3
  -3  -5  -7 3.98322 18.4097   3
  -3  -5  -8 50.5014 38.8234   3
  -3  -5  -9 18.1262 14.7820   3
  -3  -5 -10 23.1922 30.3085   3
  -3  -5 -11-1.63802 14.3388   3
   3   6 -18 66.1637 53.7014   1
   3   6 -17-37.6090 34.2548   1
   3   6 -16 49.5761 38.1982   1
   3   6 -15-10.9752 19.9712   1
   3   6 -14 14.0074 8.29517   1
   3   6 -13 15.9192 9.52531   1
   3   6 -12 75.4920 52.3037   1
   3   6 -11 26.2829 23.0056   1
   3   6 -10 144.113 57.9809   1
   3   6  -9 742.588 129.755   1
   3   6  -8 35.3615 26.8102   1
   3   6  -7 478.143 105.423   1
   3   6  -6-6.79987 26.2292   1
  -3  -6   6-19.6336 23.5073   3
   3   6  -5 36.3363 19.7063   1
  -3  -6   5-5.00465 23.4491   3
   3   6  -4 11.0518 9.57805   2
  -3  -6   4 16.5619 18.2910   3
   3   6  -3 272.518 66.9584   2
  -3  -6   3 256.800 66.1021   3
  -3  -6   2 67.4490 34.7014   3
   3   6  -2 56.7864 25.2591   2
   3   6  -1 99.3713 23.9958   2
  -3  -6   1 107.768 42.4772   3
  -3  -6   0 823.018 122.419   3
  -3  -6  -1 13.6992 16.6801   3
  -3  -6  -2 299.631 79.0005   3
  -3  -6  -3 65.0887 35.2477   3
  -3  -6  -4 125.687 56.1720   3
  -3  -6  -5 144.264 57.2401   3
  -3  -6  -6 153.751 57.9263   3
  -3  -6  -7 52.1741 33.3654   3
  -3  -6  -8 31.6053 32.7061   3
  -3  -6  -9 142.772 62.2174   3
  -3  -6 -10-9.54251 21.3718   3
   3   7 -17 112.648 60.6487   1
   3   7 -16-24.2673 28.2654   1
   3   7 -15-2.03651 10.3015   1
   3   7 -14-16.1906 22.6281   1
   3   7 -13 53.0486 41.2708   1
   3   7 -12 16.5009 47.6040   1
   3   7 -11 151.001 65.8322   1
   3   7 -10 202.924 72.2650   1
   3   7  -9 70.4677 42.4717   1
   3   7  -8 58.5105 43.1850   1
   3   7  -7-14.3259 22.8671   1
  -3  -7   7 36.1579 28.9531   3
   3   7  -6 195.597 69.2808   1
  -3  -7   6 180.857 61.8187   3
  -3  -7   5 67.5460 34.4655   3
   3   7  -4 31.3464 28.1683   2
  -3  -7   4 29.3031 32.2296   3
  -3  -7   3 62.1003 35.9725   3
  -3  -7   2-2.39363 14.4305   3
  -3  -7   1 19.8483 23.4934   3
  -3  -7   0 96.1013 44.9615   3
  -3  -7  -1 12.5818 15.5004   3
  -3  -7  -2-17.3349 24.6932   3
  -3  -7  -3 55.9947 17.7867   3
  -3  -7  -4 32.6213 25.5834   3
  -3  -7  -5 32.7624 28.2278   3
  -3  -7  -6 36.5024 37.0331   3
  -3  -7  -7 316.798 95.0192   3
  -3  -7  -8 81.2465 51.5057   3
   3   8 -16-73.4376 49.8680   1
   3   8 -15 87.1329 55.2373   1
   3   8 -14 78.4180 49.1652   1
   3   8 -13 73.5261 47.8633   1
   3   8 -12 81.1621 49.4387   1
   3   8 -11 13.2856 15.6065   1
   3   8 -10 131.795 63.2878   1
   3   8  -9 151.304 66.5638   1
   3   8  -8 37.3389 23.2841   1
  -3  -8   7 33.0431 35.0444   3
   3   8  -7-0.54688 15.9353   1
   3   8  -6 18.0308 24.1324   1
  -3  -8   6 6.19046 19.6022   3
  -3  -8   5 30.4053 25.8711   3
  -3  -8   4 172.584 62.9347   3
  -3  -8   3 71.2604 33.4665   3
  -3  -8   2 10.0966 14.4085   3
  -3  -8   1 34.9762 25.5510   3
  -3  -8   0 22.9477 23.6259   3
  -3  -8  -1-7.40958 15.1321   3
  -3  -8  -2 7.88753 12.2091   3
  -3  -8  -3 20.9488 25.4169   3
  -3  -8  -4-1.01251 11.5334   3
  -3  -8  -5 12.8079 29.0651   3
   3   9 -14 11.2673 14.6456   1
   3   9 -13 137.655 63.5251   1
   3   9 -12 114.614 61.2647   1
   3   9 -11 100.741 56.9156   1
   3   9 -10 10.4309 37.8531   1
   3   9  -9 27.6083 30.8745   1
   3   9  -8 0.37207 8.08820   1
   3   9  -7-28.5845 40.5035   1
  -3  -9   7 12.5727 21.1460   3
   3   9  -6 15.4248 24.2217   1
  -3  -9   6 48.0759 32.6427   3
  -3  -9   5 120.916 57.4419   3
  -3  -9   4 240.727 77.2068   3
  -3  -9   3 108.840 52.9221   3
  -3  -9   2 257.980 82.5735   3
  -3  -9   1 53.3918 35.7652   3
  -3  -9   0-8.44264 16.0436   3
  -3  -9  -1 71.6375 47.0150   3
  -3  -9  -2 1.45037 14.3820   3
   3  10 -10 24.3967 30.3743   1
   3  10  -9 57.7614 33.1618   1
   3  10  -8 69.2327 51.5911   1
   3  10  -7 6.39434 17.5227   1
  -3 -10   7-62.8915 42.0934   3
  -3 -10   6 178.108 76.3933   3
   3  10  -6 236.034 96.4176   1
  -3 -10   5 162.769 64.0619   3
  -3 -10   4 88.7708 40.9526   3
   4  -7  -3 69.4796 54.7783   2
   4  -7  -2-8.72646 20.4608   2
   4  -7  -1 43.7165 42.4039   2
   4  -7   0-41.0537 55.9223   2
   4  -7   1-124.448 67.2040   2
   4  -7   2-43.1152 40.5505   2
   4  -7   3-23.2202 32.2075   2
   4  -7   4 11.5318 30.9760   2
   4  -7   5 107.630 61.9868   2
   4  -7   6 63.9873 42.4979   2
   4  -7   7 76.2144 54.6296   2
   4  -7   8 118.812 70.5280   2
   4  -7   9-25.1242 25.0188   2
   4  -7  10 82.8136 54.5173   2
   4  -6  -6-5.05694 27.1962   2
   4  -6  -5 49.7759 44.2864   2
   4  -6  -4 18.7668 50.1376   2
   4  -6  -3 86.5652 61.4831   2
   4  -6  -2 4.19356 15.8926   2
   4  -6  -1 38.7517 41.0952   2
   4  -6   0 99.8389 65.0994   2
   4  -6   1 43.5111 23.4541   2
   4  -6   2 4.99396 40.1564   2
   4  -6   3-57.3238 51.8754   2
   4  -6   4-5.64277 11.0190   2
   4  -6   5-12.6936 9.18647   2
   4  -6   6 22.1914 28.4982   2
   4  -6   7 63.6456 49.6406   2
   4  -6   8 99.2748 63.3600   2
   4  -6   9-27.0759 20.6068   2
   4  -6  10 5.51177 33.9126   2
   4  -6  11 26.5692 40.0561   2
   4  -6  12 228.311 85.9442   2
   4  -5  -8 70.5209 55.3027   2
   4  -5  -7 79.7232 58.3415   2
   4  -5  -6-17.7942 34.1368   2
   4  -5  -5-5.28811 14.6203   2
   4  -5  -4 413.747 129.269   2
   4  -5  -3 4.00275 15.3272   2
   4  -5  -2 2494.84 302.849   2
   4  -5  -1 24.9681 29.7120   2
   4  -5   0-15.7691 24.4137   2
   4  -5   1 248.765 88.8556   2
   4  -5   2-124.683 62.4393   2
   4  -5   3-99.6801 54.7040   2
   4  -5   4 18.3718 17.1746   2
   4  -5   5-15.1618 32.0790   2
   4  -5   6 4.07575 39.6851   2
   4  -5   7 135.098 62.5115   2
   4  -5   8 155.257 70.2163   2
   4  -5   9 19.5036 37.5359   2
   4  -5  10 21.0872 22.6526   2
   4  -5  11 30.8741 52.4776   2
   4  -5  12 117.013 65.4936   2
   4  -4  -9-7.84626 52.3495   2
   4  -4  -8 105.196 73.9894   2
   4  -4  -7-33.4110 57.6204   2
   4  -4  -6 114.922 73.6293   2
   4  -4  -5-10.7112 38.1843   2
   4  -4  -4 242.277 95.0682   2
   4  -4  -3 551.699 146.048   2
   4  -4  -2 965.667 185.065   2
   4  -4  -1 266.162 98.2435   2
   4  -4   0 549.512 135.871   2
   4  -4   1 114.515 61.9930   2
   4  -4   2-42.4154 56.0289   2
   4  -4   3-105.247 54.5878   2
   4  -4   4 50.3866 35.4845   2
   4  -4   5 621.151 128.486   2
   4  -4   6 40.9382 38.1801   2
   4  -4   7 80.5329 46.7419   2
   4  -4   8 140.032 67.4760   2
   4  -4   9 4.52558 12.5955   2
   4  -4  10 16.6940 24.1107   2
   4  -4  11 93.7667 54.3761   2
   4  -4  12 184.841 81.1978   2
   4  -3 -11-101.155 67.5230   2
   4  -3 -10 2.11685 43.7699   2
   4  -3  -9-108.007 68.0199   2
   4  -3  -8-13.0492 47.6301   2
   4  -3  -7-26.9260 62.3584   2
   4  -3  -6-41.4416 38.8734   2
   4  -3  -5-33.3712 43.0374   2
   4  -3  -4 57.2227 32.6651   2
   4  -3  -3-3.43880 26.2951   2
   4  -3  -2 257.624 95.5527   2
   4  -3  -1 18.6704 31.8713   2
   4  -3   0 138.734 65.9272   2
   4  -3   1 26.0744 26.7328   2
   4  -3   2 9.94891 8.99309   2
   4  -3   3-47.1225 45.7460   2
   4  -3   4-5.89961 17.3957   2
   4  -3   5 199.913 70.6177   2
  -4   3  -6 11.1445 8.67212   3
   4  -3   6 22.1274 16.7888   2
  -4   3  -7 66.8773 29.2484   3
   4  -3   7 105.881 59.2946   2
  -4   3  -8 68.0087 29.5813   3
   4  -3   8 134.053 66.5066   2
  -4   3  -9-0.38922 14.9102   3
   4  -3   9-27.8893 26.6232   2
  -4   3 -10-0.06201 8.97691   3
   4  -3  10 74.0197 58.7648   2
  -4   3 -11 22.8662 20.1291   3
   4  -3  11 193.385 75.3722   2
  -4   3 -12 151.004 59.5201   3
  -4   3 -13 23.3151 23.1421   3
  -4   3 -14 226.604 74.5436   3
  -4   3 -15 78.1963 46.6471   3
  -4   3 -16 21.1779 27.6745   3
   4  -2 -12 19.0357 20.7968   2
   4  -2 -11-65.0368 52.2920   2
   4  -2 -10 132.429 70.7231   2
   4  -2  -9 22.6175 30.8576   2
   4  -2  -8 34.5980 35.1429   2
   4  -2  -7-6.84609 18.6507   2
   4  -2  -6-19.1792 59.1999   2
   4  -2  -5-26.2146 43.6478   2
   4  -2  -4 3.41071 22.1759   2
   4  -2  -3-101.331 58.9940   2
   4  -2  -2-8.20202 23.2235   2
   4  -2  -1 11.6080 26.2722   2
   4  -2   0 40.3269 31.7606   2
   4  -2   1-27.9562 28.1165   2
   4  -2   2 25.4696 26.4742   2
   4  -2   3-110.701 52.4402   2
  -4   2  -3 3.51259 3.80744   3
   4  -2   4 1.32512 14.1527   2
  -4   2  -4 16.7018 10.0541   3
  -4   2  -5 99.6471 26.9192   3
   4  -2   5 81.3576 43.8739   2
  -4   2  -6 81.2290 27.6939   3
   4  -2   6 119.480 56.0446   2
  -4   2  -7 41.6774 23.0439   3
   4  -2   7 82.0784 53.1741   2
  -4   2  -8 17.6894 11.8727   3
   4  -2   8 58.1624 40.6819   2
  -4   2  -9 5.46300 16.0507   3
   4  -2   9-18.8314 29.0525   2
  -4   2 -10-1.58785 8.15495   3
   4  -2  10 93.3735 61.5908   2
  -4   2 -11 6.51939 19.2756   3
   4  -2  11 125.908 61.9080   2
  -4   2 -12 45.1082 35.0846   3
  -4   2 -13 59.4790 39.6040   3
  -4   2 -14 53.1725 31.9030   3
  -4   2 -15 11.7626 10.5685   3
  -4   2 -16-36.6053 32.6490   3
   4  -1 -12 28.9420 35.8323   2
   4  -1 -11 26.3803 32.5973   2
   4  -1 -10 284.365 102.783   2
   4  -1  -9 211.143 80.5245   2
   4  -1  -8 303.390 104.067   2
   4  -1  -7 108.895 58.5468   2
   4  -1  -6 37.9691 19.7930   2
   4  -1  -5-113.770 63.4340   2
   4  -1  -4 29.0608 37.2162   2
   4  -1  -3 52.8222 44.2233   2
   4  -1  -2 57.4250 32.4004   2
   4  -1  -1 5.09748 9.85369   2
   4  -1   0 183.152 77.3303   2
   4  -1   1 10.2135 9.05285   2
   4  -1   2 106.908 49.8028   2
  -4   1  -2 115.045 22.4843   3
   4  -1   3-37.9517 38.7058   2
  -4   1  -3-8.39581 11.1568   3
   4  -1   4-33.0002 41.1154   2
  -4   1  -4-0.02922 6.24671   3
  -4   1  -5 31.5939 18.9126   3
   4  -1   5 46.8667 33.3881   2
  -4   1  -6-10.1951 16.3531   3
   4  -1   6 41.5045 38.5472   2
  -4   1  -7 149.310 45.3243   3
   4  -1   7 139.192 60.5302   2
  -4   1  -8 7.22110 13.6919   3
   4  -1   8 11.3066 10.2022   2
  -4   1  -9 44.1980 31.7357   3
   4  -1   9 66.5516 44.8617   2
  -4   1 -10-23.6115 14.9490   3
   4  -1  10 126.515 56.5319   2
  -4   1 -11-14.9459 26.9220   3
  -4   1 -12 7.69104 9.59766   3
  -4   1 -13-7.23027 15.4097   3
  -4   1 -14 5.95460 26.8794   3
  -4   1 -15-3.74735 33.2836   3
  -4   1 -16 42.3114 36.2503   3
   4   0 -13 16.3320 20.9974   2
   4   0 -12 51.5068 48.1353   2
   4   0 -11 167.781 79.8558   2
   4   0 -10 7.34548 28.2990   2
   4   0  -9 200.841 84.4957   2
   4   0  -8 39.7000 39.1052   2
   4   0  -7 12.1655 8.90550   2
   4   0  -6 30.7965 26.4861   2
   4   0  -5-20.2087 17.0526   2
   4   0  -4-37.2750 47.2768   2
   4   0  -3 211.999 79.4465   2
   4   0  -2 46.5757 46.0810   2
   4   0  -1 1273.31 189.853   2
   4   0   0 58.8905 41.6159   2
  -4   0   0 70.0491 18.3764   3
   4   0   1 2.99396 20.9726   2
  -4   0  -1 10.9490 9.41952   3
   4   0   2 73.7474 34.7764   2
  -4   0  -2 36.0690 17.6499   3
   4   0   3-19.5756 33.5139   2
  -4   0  -3 35.4825 17.5224   3
   4   0   4 30.0921 11.6578   2
  -4   0  -4 68.6177 27.3530   3
  -4   0  -5 116.142 36.8467   3
   4   0   5 88.1573 41.2273   2
  -4   0  -6 187.584 51.3843   3
   4   0   6 240.578 68.8537   2
  -4   0  -7 35.7300 28.0847   3
   4   0   7 32.2288 16.1499   2
   4   0   8 493.624 95.6640   2
  -4   0  -8 579.409 100.131   3
   4   0   9 377.128 82.2883   2
  -4   0  -9 397.891 89.7155   3
  -4   0 -10 26.3152 30.2003   3
  -4   0 -11-16.4175 21.5073   3
  -4   0 -12-23.6164 38.1103   3
  -4   0 -13-0.64602 13.3187   3
  -4   0 -14 5.01230 12.9474   3
  -4   0 -15 4.40454 12.2582   3
   4   1 -14 29.9371 32.2061   2
   4   1 -13 7.19953 17.4047   2
   4   1 -12-28.5064 39.3056   2
   4   1 -11 1.61045 10.9523   2
   4   1 -10-1.47069 9.92504   2
   4   1  -9 77.6267 56.7222   2
   4   1  -8-15.6212 29.3688   2
   4   1  -7 3.39702 25.8779   2
   4   1  -6 7.33330 14.3063   2
   4   1  -5-12.8829 20.0557   2
   4   1  -4-26.6984 47.4601   2
   4   1  -3-20.1199 43.8261   2
   4   1  -2 134.806 59.3313   2
   4   1  -1-1.91474 24.4150   2
  -4  -1   1 11.8974 7.51005   3
   4   1   0 148.533 60.5594   2
  -4  -1   0 138.695 33.2238   3
  -4  -1  -1 228.015 45.6688   3
   4   1   1 192.759 64.6552   2
   4   1   2-28.6778 39.2765   2
  -4  -1  -2 6.27883 6.41452   3
   4   1   3-30.9765 35.2284   2
  -4  -1  -3 5.11266 5.56777   3
   4   1   4 126.830 49.8735   2
  -4  -1  -4 92.4044 34.5894   3
   4   1   5 47.3525 37.8656   2
  -4  -1  -5 18.4414 22.1212   3
   4   1   6 2752.52 207.874   2
  -4  -1  -6 3191.35 228.706   3
  -4  -1  -7 33.0582 26.7688   3
   4   1   7 61.3825 37.5337   2
  -4  -1  -8 78.3621 41.0646   3
  -4  -1  -9 146.552 58.5719   3
  -4  -1 -10 0.85495 21.0151   3
  -4  -1 -11 26.0836 25.4864   3
  -4  -1 -12-26.6327 24.4354   3
  -4  -1 -13 45.7452 35.1075   3
  -4  -1 -14-12.1912 36.1304   3
   4   2 -14-8.53746 18.4328   2
   4   2 -13-61.5028 45.2134   2
   4   2 -12-0.85579 8.82490   2
   4   2 -11 72.0704 46.9616   2
   4   2 -10 81.0165 54.6373   2
   4   2  -9 119.395 61.4390   2
   4   2  -8 16.7862 49.9566   2
   4   2  -8 18.0353 15.5129   1
   4   2  -7-8.63656 13.5365   1
   4   2  -7 52.7649 41.9579   2
   4   2  -6 37.4123 18.4060   1
   4   2  -6-26.5006 47.0995   2
   4   2  -5 4.20709 6.96619   1
   4   2  -5 6.82381 23.2210   2
   4   2  -4 19.0619 13.3640   1
   4   2  -4-8.52448 28.3923   2
   4   2  -3 26.0878 15.4940   1
   4   2  -3-12.4381 49.8642   2
   4   2  -2 3.74256 6.45693   1
  -4  -2   2 30.7219 20.5036   3
   4   2  -2-8.36488 21.1990   2
   4   2  -1 102.967 32.2723   1
   4   2  -1 26.4979 34.0394   2
  -4  -2   1 71.4602 26.2993   3
   4   2   0 52.2487 33.6546   2
  -4  -2   0 49.2354 23.2465   3
   4   2   0 45.5636 22.1473   1
   4   2   1 36.7078 27.7174   2
  -4  -2  -1 27.0380 19.3326   3
   4   2   2-64.3191 33.0400   2
  -4  -2  -2 11.8724 4.64665   3
   4   2   3-8.22542 20.1348   2
  -4  -2  -3-7.39706 10.9167   3
   4   2   4 11.4071 23.5714   2
  -4  -2  -4-26.4766 28.5764   3
   4   2   5 193.587 52.9936   2
  -4  -2  -5 152.259 47.5596   3
  -4  -2  -6 90.0185 42.3475   3
  -4  -2  -7 308.640 81.6088   3
  -4  -2  -8 292.382 79.9917   3
  -4  -2  -9 255.817 77.0461   3
  -4  -2 -10 42.2154 32.7349   3
  -4  -2 -11-37.3855 31.7319   3
  -4  -2 -12-18.2238 23.1364   3
  -4  -2 -13 241.750 83.3843   3
   4   3 -14 43.0598 37.4261   2
   4   3 -13 82.3185 50.3037   2
   4   3 -12 37.2464 38.9509   2
   4   3 -11 34.3635 21.7312   2
   4   3 -10 113.241 61.2185   2
   4   3 -10 177.862 56.3755   1
   4   3  -9 625.972 101.849   1
   4   3  -9 741.773 152.683   2
   4   3  -8 109.942 59.1860   2
   4   3  -8 66.5838 27.5842   1
   4   3  -7 103.693 56.9199   2
   4   3  -7 73.3996 30.1770   1
   4   3  -6 508.239 123.905   2
   4   3  -6 583.434 91.1356   1
   4   3  -5 21.4191 12.2462   1
   4   3  -5 4.52285 38.2910   2
   4   3  -4 45.1434 29.3984   1
   4   3  -4 12.9487 17.9699   2
  -4  -3   3 37.1252 25.1557   3
   4   3  -3 47.6953 13.0599   2
   4   3  -3 37.6013 22.9095   1
   4   3  -2-4.37333 4.73188   1
  -4  -3   2-2.26732 8.78903   3
   4   3  -2-27.1945 32.3703   2
   4   3  -1-37.7223 23.9218   1
   4   3  -1-3.66490 11.1639   2
  -4  -3   1 5.64395 14.9300   3
   4   3   0 2.31374 6.48385   2
  -4  -3   0 5.68494 12.8705   3
   4   3   1-21.3204 26.3077   2
  -4  -3  -1-4.66591 9.76879   3
   4   3   2-13.9129 23.3250   2
  -4  -3  -2-12.2109 14.8243   3
  -4  -3  -3-13.9247 18.6523   3
  -4  -3  -4 22.4748 19.6377   3
  -4  -3  -5 9.34879 6.90137   3
  -4  -3  -6 229.402 71.9717   3
  -4  -3  -7 1.88061 12.9354   3
  -4  -3  -8 106.050 53.0325   3
  -4  -3  -9 48.7167 38.4478   3
  -4  -3 -10-21.0272 28.1420   3
  -4  -3 -11 11.8059 19.4387   3
  -4  -3 -12-35.2199 32.9423   3
   4   4 -13-25.1116 28.8441   2
   4   4 -12 30.7240 6.92523   2
   4   4 -11 29.5564 31.2287   2
   4   4 -11 16.7060 19.6211   1
   4   4 -10 11.9311 20.1490   2
   4   4 -10 9.62685 11.0123   1
   4   4  -9 383.465 107.789   2
   4   4  -9 539.413 103.651   1
   4   4  -8 1758.32 237.304   2
   4   4  -8 1785.94 187.146   1
   4   4  -7 1003.06 174.478   2
   4   4  -7 992.122 138.997   1
   4   4  -6 446.322 91.0474   1
   4   4  -6 400.874 111.614   2
   4   4  -5 44.8404 31.1817   1
   4   4  -5-21.5438 35.8710   2
   4   4  -4 57.0126 33.5081   1
  -4  -4   4 37.2565 20.0225   3
   4   4  -4 122.634 63.9693   2
   4   4  -3 27.7648 17.5994   1
  -4  -4   3 26.8518 15.7807   3
   4   4  -3 37.6759 15.6076   2
   4   4  -2 48.3318 25.0345   1
   4   4  -2 101.810 44.3277   2
  -4  -4   2 128.278 45.0430   3
   4   4  -1-10.7666 14.4071   2
  -4  -4   1 25.9098 24.6214   3
  -4  -4   0 134.819 47.2209   3
  -4  -4  -1 99.3156 41.1065   3
  -4  -4  -2 24.2452 20.4335   3
  -4  -4  -3 25.2677 22.7028   3
  -4  -4  -4-2.62494 22.5565   3
  -4  -4  -5 4.92319 13.5602   3
  -4  -4  -6-9.87951 15.6973   3
  -4  -4  -7 35.2415 30.3517   3
  -4  -4  -8 34.2624 33.5946   3
  -4  -4  -9-40.5341 34.1342   3
  -4  -4 -10 30.2549 30.1340   3
   4   5 -12-12.6338 10.3720   1
   4   5 -11 78.2653 50.5551   2
   4   5 -11 98.5990 45.9601   1
   4   5 -10 10.0591 10.9257   2
   4   5 -10 24.9454 27.6596   1
   4   5  -9-10.2942 42.4755   2
   4   5  -9-2.38562 9.91903   1
   4   5  -8 238.161 84.0398   2
   4   5  -8 258.540 74.5722   1
   4   5  -7-1.01126 9.31760   2
   4   5  -7 66.0977 46.9763   1
   4   5  -6 136.443 58.8367   1
   4   5  -6 81.2763 50.9297   2
   4   5  -5 205.080 63.9708   1
   4   5  -5 335.874 95.4251   2
   4   5  -4-20.9207 21.9747   1
   4   5  -4 2.46647 21.5799   2
   4   5  -3-45.5013 31.5490   1
  -4  -5   3-8.88375 17.9082   3
   4   5  -2 54.7441 34.3092   1
  -4  -5   2 18.1797 13.7979   3
  -4  -5   1 108.374 46.8084   3
  -4  -5   0 356.267 80.4219   3
  -4  -5  -1 53.3943 29.5373   3
  -4  -5  -2-17.8765 19.2883   3
  -4  -5  -3-63.8636 37.3022   3
  -4  -5  -4 14.9929 10.8800   3
  -4  -5  -5 4.89199 12.5558   3
  -4  -5  -6-17.9544 32.5403   3
  -4  -5  -7 50.3482 43.7633   3
  -4  -5  -8 31.2235 37.3661   3
   4   6 -12-33.1873 31.4015   1
   4   6 -11-11.3047 18.9830   1
   4   6 -11 49.1128 41.2912   2
   4   6 -10 32.0110 37.3036   2
   4   6 -10 158.374 65.7733   1
   4   6  -9-15.3121 23.7036   2
   4   6  -9 142.174 61.3439   1
   4   6  -8 138.177 65.8638   2
   4   6  -8 128.411 62.5481   1
   4   6  -7 73.7432 41.0128   1
   4   6  -6 64.4742 40.1119   1
   4   6  -5 16.3209 20.8073   1
  -4  -6   5-12.2711 16.1707   3
   4   6  -4-4.03258 18.9781   1
  -4  -6   4 13.9205 22.1701   3
   4   6  -3 79.2153 41.1968   1
  -4  -6   3 27.1060 24.1689   3
  -4  -6   2 17.7007 18.9437   3
  -4  -6   1 32.0631 32.3277   3
  -4  -6   0 26.4577 20.4654   3
  -4  -6  -1-9.22342 7.62173   3
  -4  -6  -2 41.6912 23.9785   3
  -4  -6  -3-11.8100 26.6336   3
  -4  -6  -4-36.7783 31.5714   3
  -4  -6  -5 7.17095 25.2378   3
  -4  -6  -6 62.7260 40.6374   3
   4   7 -13 27.1365 30.2104   1
   4   7 -12 168.958 73.3366   1
   4   7 -11 76.0814 48.2374   1
   4   7 -10 56.4814 41.0782   1
   4   7  -9 39.8738 34.2798   1
   4   7  -8 87.9791 45.9306   1
   4   7  -7-6.68820 14.6057   1
   4   7  -6 121.584 60.3540   1
   4   7  -5 12.0172 17.1233   1
  -4  -7   5 10.7664 17.4059   3
   4   7  -4-65.6465 42.9175   1
  -4  -7   4 42.1218 26.9823   3
   4   7  -3-10.6289 27.0896   1
  -4  -7   3-53.9719 34.5970   3
  -4  -7   2 65.2716 50.4055   3
  -4  -7   1 36.6368 33.2923   3
  -4  -7   0 45.5481 37.0668   3
  -4  -7  -1 23.8001 30.2290   3
  -4  -7  -2 31.3648 29.4000   3
  -4  -7  -3-5.34354 21.4904   3
  -4  -7  -4-95.2649 52.7555   3
   4   8 -11 107.910 59.2522   1
   4   8 -10 122.229 62.1904   1
   4   8  -9 77.4255 49.1032   1
   4   8  -8 112.564 58.7992   1
   4   8  -7-15.9300 23.2267   1
  -4  -8   6 42.0147 32.4767   3
   4   8  -6-11.2208 19.6804   1
   4   8  -5 79.8906 50.1835   1
  -4  -8   5 86.5725 51.9687   3
  -4  -8   4-21.0333 23.3644   3
   4   8  -4-39.9118 35.9803   1
  -4  -8   3-5.92964 16.4580   3
  -4  -8   2 28.5544 35.8351   3
  -4  -8   1 26.3112 34.1887   3
  -4  -8   0-38.6495 32.5382   3
   4   9  -7 193.615 82.0941   1
   4   9  -6 67.1946 49.1156   1
   4   9  -5 86.7523 56.2007   1
   4   9  -4-11.8032 22.1999   1
   5  -4   1-33.3379 42.3431   2
   5  -4   2-5.91961 48.9708   2
   5  -4   3 49.5893 42.0583   2
   5  -4   4 20.2204 30.7493   2
   5  -4   5 42.6309 39.2180   2
   5  -4   6 72.6066 53.4122   2
   5  -4   7 43.3915 53.3235   2
   5  -3  -3 40.3737 57.9379   2
   5  -3  -2 30.5143 29.4784   2
   5  -3  -1 65.8518 41.2090   2
   5  -3   0 46.3951 51.1231   2
   5  -3   1-28.4473 38.4110   2
   5  -3   2-44.7788 41.4023   2
   5  -3   3 30.3657 29.6311   2
   5  -3   4-29.4197 33.0578   2
   5  -3   5 9.38582 19.1449   2
   5  -3   6 33.6489 29.5622   2
   5  -3   7 72.7378 54.1570   2
   5  -3   8 20.1295 14.0319   2
   5  -3   9 12.9908 37.1218   2
   5  -2  -5-23.7969 34.2398   2
   5  -2  -4 67.1140 69.1095   2
   5  -2  -3-26.3043 33.2079   2
   5  -2  -2 77.5149 67.2442   2
   5  -2  -1 22.6647 37.7648   2
   5  -2   0 209.369 96.9432   2
   5  -2   1-141.063 72.3751   2
   5  -2   2-44.6124 52.6760   2
   5  -2   3-17.3896 40.4259   2
   5  -2   4 43.1606 40.4679   2
   5  -2   5 84.2771 50.1525   2
   5  -2   6 101.649 54.5837   2
   5  -2   7 115.951 60.3621   2
   5  -1  -6 23.8691 16.4263   2
   5  -1  -5 29.9589 37.7646   2
   5  -1  -4 50.7851 42.8578   2
   5  -1  -3 46.1738 45.0848   2
   5  -1  -2 236.559 98.6755   2
   5  -1  -1 45.0652 43.7588   2
   5  -1   0 127.993 70.9391   2
   5  -1   1-155.230 73.1899   2
   5  -1   2-32.0221 54.5249   2
   5  -1   3-54.3989 40.7245   2
   5  -1   4-1.57076 11.9633   2
   5  -1   5 44.6235 33.6913   2
   5   0  -7 91.3302 63.4665   2
   5   0  -6 10.6124 23.8898   2
   5   0  -5 51.9245 17.8415   2
   5   0  -4-38.5207 41.4552   2
   5   0  -3 72.9578 62.7487   2
   5   0  -2 21.8377 30.0359   2
   5   0  -1-22.6865 29.7231   2
   5   0   0 115.507 73.9666   2
   5   0   1 32.8485 23.2574   2
   5   0   2-79.8210 47.8064   2
   5   0   3-30.8909 37.2903   2
   5   1  -8-75.2335 57.6925   2
   5   1  -7 60.5116 48.4538   2
   5   1  -6-93.2686 63.9815   2
   5   1  -5-113.362 69.4915   2
   5   1  -4 16.2990 38.3507   2
   5   1  -3-47.2573 43.4383   2
   5   1  -2 12.3545 22.7093   2
   5   1  -1 31.5099 24.6197   2
   5   1   0 4.10687 17.0810   2
   5   2  -9 70.5398 55.3313   2
   5   2  -8 195.334 89.0431   2
   5   2  -7 68.5561 55.1530   2
   5   2  -6 157.846 82.8119   2
   5   2  -5 50.0655 31.9281   2
   5   2  -4 31.5117 35.8895   2
   5   2  -3 6.21163 17.1015   2
   5   3 -10 120.379 72.3736   2
   5   3  -9 31.3627 39.9121   2
   5   3  -8 752.355 180.345   2
   5   3  -7-86.8328 61.4707   2
   5   3  -6 91.9952 61.9626   2
   0   0   0    0.00    0.00   0
TITL HBpAzophenD in P-1
REM P-1 (#2 in standard setting)
CELL 0.71073   3.999497   9.925121  17.454185 106.2702  91.6717  92.3881
ZERR    1.00   0.000299   0.000884   0.001408   0.0074   0.0063   0.0066
LATT  1
SFAC C H N
UNIT 40.00 26.00 2.00
TREF
HKLF 4
END
;
_shelx_hkl_checksum              60849
_olex2_submission_special_instructions 'No special instructions were received'
loop_
_space_group_symop_operation_xyz
'x, y, z'
'-x, -y, -z'
loop_
_atom_site_label
_atom_site_type_symbol
_atom_site_fract_x
_atom_site_fract_y
_atom_site_fract_z
_atom_site_U_iso_or_equiv
_atom_site_adp_type
_atom_site_occupancy
_atom_site_site_symmetry_order
_atom_site_calc_flag
_atom_site_refinement_flags_posn
N1 N 0.5155(5) 0.93533(17) -0.01042(12) 0.0481(5) Uani 1 1 d .
C1 C 0.4417(5) 0.8670(2) 0.04915(14) 0.0421(6) Uani 1 1 d .
C2 C 0.2860(5) 0.9297(2) 0.11979(15) 0.0435(6) Uani 1 1 d .
H2 H 0.2157 1.0210 0.1299 0.052 Uiso 1 1 calc R
C3 C 0.2376(5) 0.8550(2) 0.17433(15) 0.0448(6) Uani 1 1 d .
H3 H 0.1364 0.8975 0.2217 0.054 Uiso 1 1 calc R
C4 C 0.3359(5) 0.7167(2) 0.16079(14) 0.0398(6) Uani 1 1 d .
C5 C 0.4809(5) 0.6558(2) 0.08848(14) 0.0454(6) Uani 1 1 d .
H5 H 0.5445 0.5635 0.0771 0.055 Uiso 1 1 calc R
C6 C 0.5319(6) 0.7299(2) 0.03340(15) 0.0479(6) Uani 1 1 d .
H6 H 0.6278 0.6870 -0.0147 0.057 Uiso 1 1 calc R
C11 C 0.2780(5) 0.6351(2) 0.21891(14) 0.0377(6) Uani 1 1 d .
C12 C 0.3881(5) 0.6884(2) 0.30257(14) 0.0378(6) Uani 1 1 d .
C13 C 0.5713(5) 0.8180(2) 0.33226(16) 0.0466(6) Uani 1 1 d .
H13 H 0.6232 0.8710 0.2975 0.056 Uiso 1 1 calc R
C14 C 0.6749(6) 0.8681(3) 0.41122(16) 0.0529(7) Uani 1 1 d .
H14 H 0.7957 0.9539 0.4295 0.064 Uiso 1 1 calc R
C15 C 0.5983(6) 0.7899(3) 0.46358(16) 0.0536(7) Uani 1 1 d .
H15 H 0.6648 0.8240 0.5173 0.064 Uiso 1 1 calc R
C16 C 0.4257(6) 0.6629(3) 0.43636(15) 0.0496(7) Uani 1 1 d .
H16 H 0.3791 0.6114 0.4722 0.059 Uiso 1 1 calc R
C17 C 0.3157(5) 0.6073(2) 0.35559(14) 0.0388(6) Uani 1 1 d .
C18 C 0.1388(5) 0.4711(2) 0.32668(15) 0.0398(6) Uani 1 1 d .
C19 C 0.0591(5) 0.3853(3) 0.37579(16) 0.0500(7) Uani 1 1 d .
H19 H 0.1200 0.4166 0.4299 0.060 Uiso 1 1 calc R
C20 C -0.1066(6) 0.2564(3) 0.34603(18) 0.0594(7) Uani 1 1 d .
H20 H -0.1560 0.2013 0.3799 0.071 Uiso 1 1 calc R
C21 C -0.2005(6) 0.2080(3) 0.26515(18) 0.0556(7) Uani 1 1 d .
H21 H -0.3126 0.1206 0.2449 0.067 Uiso 1 1 calc R
C22 C -0.1281(5) 0.2889(2) 0.21560(16) 0.0486(6) Uani 1 1 d .
H22 H -0.1933 0.2564 0.1617 0.058 Uiso 1 1 calc R
C23 C 0.0435(5) 0.4206(2) 0.24475(15) 0.0406(6) Uani 1 1 d .
C24 C 0.1180(5) 0.5056(2) 0.19352(14) 0.0408(6) Uani 1 1 d .
H24 H 0.0541 0.4708 0.1397 0.049 Uiso 1 1 calc R
loop_
_atom_site_aniso_label
_atom_site_aniso_U_11
_atom_site_aniso_U_22
_atom_site_aniso_U_33
_atom_site_aniso_U_23
_atom_site_aniso_U_13
_atom_site_aniso_U_12
N1 0.0671(12) 0.0375(11) 0.0390(13) 0.0107(10) 0.0005(10) -0.0016(10)
C1 0.0547(14) 0.0375(13) 0.0348(15) 0.0127(11) 0.0007(11) -0.0048(10)
C2 0.0526(13) 0.0353(13) 0.0432(16) 0.0115(12) 0.0037(11) 0.0039(10)
C3 0.0553(14) 0.0392(14) 0.0392(16) 0.0087(11) 0.0092(11) 0.0040(11)
C4 0.0444(13) 0.0408(13) 0.0338(15) 0.0102(11) -0.0011(10) 0.0006(10)
C5 0.0621(15) 0.0340(13) 0.0385(16) 0.0073(11) 0.0019(12) 0.0035(11)
C6 0.0703(16) 0.0372(14) 0.0329(15) 0.0042(11) 0.0087(12) -0.0002(12)
C11 0.0416(12) 0.0374(13) 0.0354(14) 0.0118(11) 0.0028(10) 0.0054(10)
C12 0.0408(12) 0.0366(12) 0.0351(15) 0.0078(11) 0.0042(10) 0.0044(10)
C13 0.0508(14) 0.0422(14) 0.0464(17) 0.0126(12) 0.0038(11) -0.0022(11)
C14 0.0599(16) 0.0449(15) 0.0481(18) 0.0050(13) -0.0026(13) -0.0061(12)
C15 0.0617(15) 0.0541(16) 0.0381(17) 0.0025(13) -0.0020(12) 0.0005(12)
C16 0.0586(15) 0.0538(16) 0.0366(16) 0.0134(12) 0.0008(12) 0.0025(12)
C17 0.0420(12) 0.0392(13) 0.0361(15) 0.0109(11) 0.0043(10) 0.0078(10)
C18 0.0398(12) 0.0389(13) 0.0429(16) 0.0143(11) 0.0037(10) 0.0041(10)
C19 0.0565(15) 0.0527(16) 0.0443(17) 0.0191(13) 0.0046(12) 0.0020(12)
C20 0.0622(16) 0.0587(18) 0.065(2) 0.0315(16) 0.0030(14) -0.0039(13)
C21 0.0594(15) 0.0418(15) 0.065(2) 0.0143(14) -0.0002(14) -0.0042(12)
C22 0.0553(14) 0.0385(14) 0.0507(17) 0.0110(13) -0.0009(12) -0.0007(11)
C23 0.0443(13) 0.0378(13) 0.0401(15) 0.0110(11) 0.0028(11) 0.0043(10)
C24 0.0517(13) 0.0374(13) 0.0330(14) 0.0091(11) 0.0017(10) 0.0047(10)
loop_
_atom_type_symbol
_atom_type_description
_atom_type_scat_dispersion_real
_atom_type_scat_dispersion_imag
_atom_type_scat_source
C C 0.0033 0.0016 'International Tables Vol C Tables 4.2.6.8 and 6.1.1.4'
H H 0.0000 0.0000 'International Tables Vol C Tables 4.2.6.8 and 6.1.1.4'
N N 0.0061 0.0033 'International Tables Vol C Tables 4.2.6.8 and 6.1.1.4'
loop_
_exptl_crystal_face_index_h
_exptl_crystal_face_index_k
_exptl_crystal_face_index_l
_exptl_crystal_face_perp_dist
_exptl_oxdiff_crystal_face_indexfrac_h
_exptl_oxdiff_crystal_face_indexfrac_k
_exptl_oxdiff_crystal_face_indexfrac_l
_exptl_oxdiff_crystal_face_x
_exptl_oxdiff_crystal_face_y
_exptl_oxdiff_crystal_face_z
0 5 -4 0.0522 0.0025 5.0043 -4.0122 0.3511 -0.0365 -0.0878
0 0 1 0.0271 0.0005 0.0011 0.9999 -0.0093 -0.0401 0.0102
0 0 -1 0.0091 -0.0005 -0.0011 -0.9999 0.0093 0.0401 -0.0102
4 -5 -1 0.1556 3.9985 -5.0344 -0.9875 -0.4661 0.0696 -0.6354
-5 4 3 0.1603 -4.9993 4.0411 2.9898 0.4251 -0.0686 0.8333
0 -5 4 0.0362 -0.0025 -5.0043 4.0122 -0.3511 0.0365 0.0878
loop_
_geom_angle_atom_site_label_1
_geom_angle_atom_site_label_2
_geom_angle_atom_site_label_3
_geom_angle
_geom_angle_site_symmetry_1
N1 N1 C1 114.7(3) 2_675
C2 C1 N1 124.3(2) .
C6 C1 N1 115.9(2) .
C6 C1 C2 119.9(2) .
C1 C2 H2 120.4 .
C3 C2 C1 119.1(2) .
C3 C2 H2 120.4 .
C2 C3 H3 119.0 .
C2 C3 C4 122.1(2) .
C4 C3 H3 119.0 .
C3 C4 C11 122.1(2) .
C5 C4 C3 117.2(2) .
C5 C4 C11 120.7(2) .
C4 C5 H5 119.4 .
C6 C5 C4 121.2(2) .
C6 C5 H5 119.4 .
C1 C6 C5 120.4(2) .
C1 C6 H6 119.8 .
C5 C6 H6 119.8 .
C12 C11 C4 122.23(19) .
C24 C11 C4 119.3(2) .
C24 C11 C12 118.5(2) .
C13 C12 C11 121.7(2) .
C13 C12 C17 118.8(2) .
C17 C12 C11 119.5(2) .
C12 C13 H13 119.2 .
C14 C13 C12 121.7(2) .
C14 C13 H13 119.2 .
C13 C14 H14 120.2 .
C13 C14 C15 119.6(2) .
C15 C14 H14 120.2 .
C14 C15 H15 119.9 .
C16 C15 C14 120.1(3) .
C16 C15 H15 119.9 .
C15 C16 H16 118.9 .
C15 C16 C17 122.1(2) .
C17 C16 H16 118.9 .
C12 C17 C18 120.4(2) .
C16 C17 C12 117.7(2) .
C16 C17 C18 121.9(2) .
C19 C18 C17 123.4(2) .
C19 C18 C23 117.8(2) .
C23 C18 C17 118.8(2) .
C18 C19 H19 119.2 .
C20 C19 C18 121.7(3) .
C20 C19 H19 119.2 .
C19 C20 H20 120.0 .
C19 C20 C21 120.0(3) .
C21 C20 H20 120.0 .
C20 C21 H21 120.0 .
C22 C21 C20 119.9(2) .
C22 C21 H21 120.0 .
C21 C22 H22 119.5 .
C21 C22 C23 121.0(3) .
C23 C22 H22 119.5 .
C18 C23 C24 119.2(2) .
C22 C23 C18 119.6(2) .
C22 C23 C24 121.2(2) .
C11 C24 C23 123.6(2) .
C11 C24 H24 118.2 .
C23 C24 H24 118.2 .
loop_
_geom_bond_atom_site_label_1
_geom_bond_atom_site_label_2
_geom_bond_distance
_geom_bond_site_symmetry_2
N1 N1 1.245(3) 2_675
N1 C1 1.423(3) .
C1 C2 1.394(3) .
C1 C6 1.376(3) .
C2 H2 0.9300 .
C2 C3 1.374(3) .
C3 H3 0.9300 .
C3 C4 1.401(3) .
C4 C5 1.392(3) .
C4 C11 1.482(3) .
C5 H5 0.9300 .
C5 C6 1.379(3) .
C6 H6 0.9300 .
C11 C12 1.455(3) .
C11 C24 1.362(3) .
C12 C13 1.409(3) .
C12 C17 1.415(3) .
C13 H13 0.9300 .
C13 C14 1.372(3) .
C14 H14 0.9300 .
C14 C15 1.388(3) .
C15 H15 0.9300 .
C15 C16 1.365(3) .
C16 H16 0.9300 .
C16 C17 1.412(3) .
C17 C18 1.449(3) .
C18 C19 1.401(3) .
C18 C23 1.411(3) .
C19 H19 0.9300 .
C19 C20 1.373(3) .
C20 H20 0.9300 .
C20 C21 1.392(4) .
C21 H21 0.9300 .
C21 C22 1.365(3) .
C22 H22 0.9300 .
C22 C23 1.403(3) .
C23 C24 1.420(3) .
C24 H24 0.9300 .
loop_
_geom_torsion_atom_site_label_1
_geom_torsion_atom_site_label_2
_geom_torsion_atom_site_label_3
_geom_torsion_atom_site_label_4
_geom_torsion
_geom_torsion_site_symmetry_1
N1 N1 C1 C2 12.0(4) 2_675
N1 N1 C1 C6 -168.5(3) 2_675
N1 C1 C2 C3 -177.8(2) .
N1 C1 C6 C5 177.9(2) .
C1 C2 C3 C4 -0.9(3) .
C2 C1 C6 C5 -2.5(4) .
C2 C3 C4 C5 -1.2(3) .
C2 C3 C4 C11 -178.8(2) .
C3 C4 C5 C6 1.4(3) .
C3 C4 C11 C12 -53.2(3) .
C3 C4 C11 C24 127.2(2) .
C4 C5 C6 C1 0.4(4) .
C4 C11 C12 C13 -3.2(3) .
C4 C11 C12 C17 177.99(18) .
C4 C11 C24 C23 -178.45(18) .
C5 C4 C11 C12 129.2(2) .
C5 C4 C11 C24 -50.4(3) .
C6 C1 C2 C3 2.7(3) .
C11 C4 C5 C6 179.1(2) .
C11 C12 C13 C14 179.99(19) .
C11 C12 C17 C16 -179.75(18) .
C11 C12 C17 C18 1.1(3) .
C12 C11 C24 C23 1.9(3) .
C12 C13 C14 C15 0.0(3) .
C12 C17 C18 C19 179.98(19) .
C12 C17 C18 C23 0.6(3) .
C13 C12 C17 C16 1.4(3) .
C13 C12 C17 C18 -177.71(18) .
C13 C14 C15 C16 1.0(4) .
C14 C15 C16 C17 -0.8(4) .
C15 C16 C17 C12 -0.4(3) .
C15 C16 C17 C18 178.7(2) .
C16 C17 C18 C19 0.9(3) .
C16 C17 C18 C23 -178.46(18) .
C17 C12 C13 C14 -1.2(3) .
C17 C18 C19 C20 -179.5(2) .
C17 C18 C23 C22 -179.99(18) .
C17 C18 C23 C24 -1.1(3) .
C18 C19 C20 C21 -0.2(3) .
C18 C23 C24 C11 -0.1(3) .
C19 C18 C23 C22 0.6(3) .
C19 C18 C23 C24 179.45(18) .
C19 C20 C21 C22 -0.1(4) .
C20 C21 C22 C23 0.6(3) .
C21 C22 C23 C18 -0.9(3) .
C21 C22 C23 C24 -179.7(2) .
C22 C23 C24 C11 178.7(2) .
C23 C18 C19 C20 -0.1(3) .
C24 C11 C12 C13 176.45(19) .
C24 C11 C12 C17 -2.4(3) .
