#------------------------------------------------------------------------------
#$Date: 2019-11-23 18:41:24 +0200 (Sat, 23 Nov 2019) $
#$Revision: 234480 $
#$URL: file:///home/coder/svn-repositories/cod/cif/7/12/50/7125061.cif $
#------------------------------------------------------------------------------
#
# This file is available in the Crystallography Open Database (COD),
# http://www.crystallography.net/
#
# All data on this site have been placed in the public domain by the
# contributors.
#
data_7125061
loop_
_publ_author_name
'Duncan, Andrew J. E.'
'Dudovitz, Roxanne L.'
'Dudovitz, Shawna J.'
'Stojakovi\'c, Jelena'
'Mariappan, S. V. Santhana'
'MacGillivray, Leonard R.'
_publ_section_title
;
 Quantitative and regiocontrolled cross-photocycloaddition of the
 anticancer drug 5-fluorouracil achieved in a cocrystal.
;
_journal_issue                   89
_journal_name_full
'Chemical communications (Cambridge, England)'
_journal_page_first              13109
_journal_page_last               13111
_journal_paper_doi               10.1039/c6cc06570h
_journal_volume                  52
_journal_year                    2016
_chemical_formula_moiety         'C12 H10 N2, 2(C4 H3 F N2 O2)'
_chemical_formula_sum            'C20 H16 F2 N6 O4'
_chemical_formula_weight         442.39
_chemical_name_common            '5-fluorouracil, 2,2'-bpe'
_chemical_name_systematic
;
5-fluoro-1H,3H-pyrimidine-2,4-dione, 1,2-bis(2-pyridyl)ethylene
;
_chemical_properties_physical    Photo-sensitive
_space_group_crystal_system      triclinic
_space_group_IT_number           2
_space_group_name_Hall           '-P 1'
_space_group_name_H-M_alt        'P -1'
_atom_sites_solution_hydrogens   mixed
_audit_creation_date             2016-05-26
_audit_creation_method
;
Olex2 1.2
(compiled 2016.02.16 svn.r3265 for OlexSys, GUI svn.r5155)
;
_audit_update_record
;
2016-05-26 deposited with the CCDC.
2016-10-05 downloaded from the CCDC.
;
_cell_angle_alpha                107.757(5)
_cell_angle_beta                 97.878(5)
_cell_angle_gamma                93.199(5)
_cell_formula_units_Z            1
_cell_length_a                   5.502(2)
_cell_length_b                   8.865(3)
_cell_length_c                   10.409(5)
_cell_measurement_reflns_used    1528
_cell_measurement_temperature    190(2)
_cell_measurement_theta_max      50.26
_cell_measurement_theta_min      7.517
_cell_volume                     476.4(3)
_computing_cell_refinement       'apexII (Bruker AXS, 2010)'
_computing_data_collection       'apexII (Bruker AXS, 2010)'
_computing_data_reduction        'apexII (Bruker AXS, 2010)'
_computing_molecular_graphics    'Olex2 (Dolomanov et al., 2009)'
_computing_publication_material  'Olex2 (Dolomanov et al., 2009)'
_computing_structure_refinement  'ShelXL (Sheldrick, 2015)'
_computing_structure_solution    'ShelXT (Sheldrick, 2015)'
_diffrn_ambient_temperature      190.15
_diffrn_measured_fraction_theta_full 0.998
_diffrn_measured_fraction_theta_max 0.993
_diffrn_measurement_device_type  'Bruker Nonius APEX II Kappa'
_diffrn_measurement_method       'CCD phi and omega scans'
_diffrn_radiation_type           MoK\a
_diffrn_radiation_wavelength     0.71073
_diffrn_reflns_av_R_equivalents  0.0345
_diffrn_reflns_av_unetI/netI     0.0411
_diffrn_reflns_Laue_measured_fraction_full 0.998
_diffrn_reflns_Laue_measured_fraction_max 0.993
_diffrn_reflns_limit_h_max       6
_diffrn_reflns_limit_h_min       -6
_diffrn_reflns_limit_k_max       10
_diffrn_reflns_limit_k_min       -10
_diffrn_reflns_limit_l_max       12
_diffrn_reflns_limit_l_min       -12
_diffrn_reflns_number            4836
_diffrn_reflns_point_group_measured_fraction_full 0.998
_diffrn_reflns_point_group_measured_fraction_max 0.993
_diffrn_reflns_theta_full        25.242
_diffrn_reflns_theta_max         25.341
_diffrn_reflns_theta_min         3.663
_exptl_absorpt_coefficient_mu    0.124
_exptl_absorpt_correction_type   multi-scan
_exptl_absorpt_process_details   'SADABS (Sheldrick, 2008)'
_exptl_crystal_colour            colorless
_exptl_crystal_density_diffrn    1.542
_exptl_crystal_description       plate-like
_exptl_crystal_F_000             228
_exptl_crystal_recrystallization_method 'Re-crystallisation from solvent'
_exptl_crystal_size_max          0.34
_exptl_crystal_size_mid          0.29
_exptl_crystal_size_min          0.07
_exptl_transmission_factor_max   0.955
_exptl_transmission_factor_min   0.777
_refine_diff_density_max         0.289
_refine_diff_density_min         -0.267
_refine_diff_density_rms         0.049
_refine_ls_extinction_method     none
_refine_ls_goodness_of_fit_ref   1.015
_refine_ls_hydrogen_treatment    mixed
_refine_ls_matrix_type           full
_refine_ls_number_parameters     153
_refine_ls_number_reflns         1732
_refine_ls_number_restraints     0
_refine_ls_restrained_S_all      1.015
_refine_ls_R_factor_all          0.0708
_refine_ls_R_factor_gt           0.0441
_refine_ls_shift/su_max          0.000
_refine_ls_shift/su_mean         0.000
_refine_ls_structure_factor_coef Fsqd
_refine_ls_weighting_details
'w=1/[\s^2^(Fo^2^)+(0.0481P)^2^+0.2265P] where P=(Fo^2^+2Fc^2^)/3'
_refine_ls_weighting_scheme      calc
_refine_ls_wR_factor_gt          0.0982
_refine_ls_wR_factor_ref         0.1109
_reflns_Friedel_coverage         0.000
_reflns_number_gt                1233
_reflns_number_total             1732
_reflns_threshold_expression     'I > 2\s(I)'
_cod_data_source_file            c6cc06570h2.cif
_cod_data_source_block           mcg1423
_cod_database_code               7125061
_shelxl_version_number           2014/6
_shelx_space_group_comment
;
The symmetry employed for this shelxl refinement is uniquely defined
by the following loop, which should always be used as a source of
symmetry information in preference to the above space-group names.
They are only intended as comments.
;
_shelx_estimated_absorpt_t_max   0.991
_shelx_estimated_absorpt_t_min   0.959
_olex2_refinement_description
;
1. Fixed Uiso
 At 1.2 times of:
  All C(H) groups
2.a Aromatic/amide H refined with riding coordinates:
 C1(H1), C2(H2A), C3(H3A), C4(H4), C6(H6), C7(H7)
;
_shelx_res_file
;
TITL
REM Old TITL mcg1423 in P-1 #2
CELL 0.71073 5.502 8.8648 10.409 107.757 97.878 93.199
ZERR 1 0.002 0.0034 0.005 0.005 0.005 0.005
LATT 1
SFAC C H F N O
UNIT 20 16 2 6 4
EQIV $1 1-X,1-Y,-Z
EQIV $2 1-X,1-Y,1-Z
EQIV $3 2-X,1-Y,-Z
EQIV $4 1+X,+Y,+Z
EQIV $5 2-X,1-Y,1-Z

L.S. 10 0 0
PLAN  -40
SIZE 0.07 0.29 0.34
TEMP -83
HTAB C7 N1_$3
HTAB C1 O1_$4
HTAB C2 O2_$5
HTAB N2 O1_$1
HTAB N3 O2_$2
BOND $H
conf
LIST 6
fmap 2 53
acta
OMIT 0 1 0
OMIT 0 0 1
REM <olex2.extras>
REM <HklSrc "%./mcg1423.hkl">
REM </olex2.extras>

WGHT    0.048100    0.226500
FVAR       0.21466
F1    3    1.089072    0.243486    0.333104    11.00000    0.03122    0.04568 =
         0.03218    0.01831    0.00701    0.02218
O1    5    0.367336    0.542620    0.145862    11.00000    0.02980    0.03816 =
         0.02555    0.01560    0.00929    0.01946
O2    5    0.749487    0.384182    0.493513    11.00000    0.03468    0.04216 =
         0.02150    0.01483    0.00988    0.01800
N1    4    0.813011    0.852314    0.111405    11.00000    0.03649    0.03424 =
         0.02885    0.01131    0.00886    0.00936
N2    4    0.704413    0.406455    0.110878    11.00000    0.02625    0.02793 =
         0.01521    0.00877    0.00578    0.01026
H2    2    0.688303    0.417707    0.025526    11.00000    0.02737
N3    4    0.562794    0.462625    0.318194    11.00000    0.02489    0.02991 =
         0.01853    0.01092    0.00719    0.01223
H3    2    0.448763    0.508332    0.370435    11.00000    0.03364
C1    1    0.945348    0.794742    0.200324    11.00000    0.03036    0.03355 =
         0.04370    0.01035    0.00899    0.01543
AFIX  43
H1    2    1.077893    0.736163    0.170761    11.00000   -1.20000
AFIX   0
C2    1    0.903167    0.814328    0.331727    11.00000    0.03568    0.03801 =
         0.03438    0.01618   -0.00388    0.00846
AFIX  43
H2A   2    1.003187    0.771143    0.390849    11.00000   -1.20000
AFIX   0
C3    1    0.711217    0.898569    0.373688    11.00000    0.04845    0.05145 =
         0.02452    0.01537    0.00845    0.01233
AFIX  43
H3A   2    0.674691    0.914456    0.463185    11.00000   -1.20000
AFIX   0
C4    1    0.571706    0.960008    0.284891    11.00000    0.03413    0.03773 =
         0.03396    0.01011    0.00967    0.01871
AFIX  43
H4    2    0.438748    1.019085    0.312901    11.00000   -1.20000
AFIX   0
C5    1    0.626506    0.935107    0.154942    11.00000    0.02658    0.02097 =
         0.02734    0.00748    0.00137    0.00509
C6    1    0.476783    1.002355    0.061197    11.00000    0.02822    0.03022 =
         0.03320    0.00856    0.00722    0.00901
AFIX  43
H6    2    0.337199    1.052572    0.090837    11.00000   -1.20000
AFIX   0

C7    1    0.889085    0.328451    0.157642    11.00000    0.02132    0.02525 =
         0.02489    0.00561    0.00756    0.00701
AFIX  43
H7    2    1.002029    0.280938    0.099856    11.00000   -1.20000
AFIX   0
C8    1    0.909024    0.319756    0.284480    11.00000    0.02247    0.02328 =
         0.02525    0.00920    0.00297    0.01027
C9    1    0.741595    0.389272    0.375908    11.00000    0.02336    0.02303 =
         0.02178    0.00830    0.00349    0.00614
C10   1    0.534982    0.474718    0.187895    11.00000    0.02427    0.01940 =
         0.02204    0.00742    0.00613    0.00609
HKLF 4

REM
REM R1 =  0.0441 for    1233 Fo > 4sig(Fo)  and  0.0708 for all    1732 data
REM    153 parameters refined using      0 restraints

END

WGHT      0.0481      0.2265

REM Highest difference peak  0.289,  deepest hole -0.267,  1-sigma level  0.049
Q1    1   0.6168  0.9654  0.0194  11.00000  0.05    0.29
Q2    1   0.2567  0.9947  0.0876  11.00000  0.05    0.19
Q3    1   0.7746  0.7443  0.1356  11.00000  0.05    0.18
Q4    1   0.1964  0.4035  0.0949  11.00000  0.05    0.17
Q5    1   0.9591  0.4013  0.2505  11.00000  0.05    0.17
Q6    1   0.5210  0.6778  0.1955  11.00000  0.05    0.17
Q7    1   0.6894  0.5986  0.3566  11.00000  0.05    0.16
Q8    1   0.8903  0.5194  0.5437  11.00000  0.05    0.16
Q9    1   1.2350  0.3772  0.3791  11.00000  0.05    0.16
Q10   1   1.1448  0.3385  0.2823  11.00000  0.05    0.15
Q11   1   0.9745  0.1177  0.3395  11.00000  0.05    0.15
Q12   1   0.5191  0.2989  0.0652  11.00000  0.05    0.15
Q13   1   0.9034  0.9325  0.0618  11.00000  0.05    0.15
Q14   1   0.7843  0.2201  0.1902  11.00000  0.05    0.15
Q15   1   0.9587  0.1099  0.3057  11.00000  0.05    0.15
Q16   1   0.8055  0.3313  0.3227  11.00000  0.05    0.15
Q17   1   0.5694  0.8582  0.3040  11.00000  0.05    0.15
Q18   1   1.1601  0.3619  0.3176  11.00000  0.05    0.14
Q19   1   0.6050  0.3070  0.4396  11.00000  0.05    0.14
Q20   1   0.8441  0.7988 -0.0035  11.00000  0.05    0.14
Q21   1   0.7606  0.2460  0.2734  11.00000  0.05    0.14
Q22   1   0.4147  0.6588  0.1401  11.00000  0.05    0.14
Q23   1   0.7714  0.2890  0.2979  11.00000  0.05    0.13
Q24   1   0.8373  0.5466  0.1520  11.00000  0.05    0.13
Q25   1   0.7008  0.6426  0.2644  11.00000  0.05    0.13
Q26   1   0.7221  1.0628  0.1359  11.00000  0.05    0.12
Q27   1   0.7257  0.7940  0.3477  11.00000  0.05    0.12
Q28   1   0.4349  0.3549  0.2855  11.00000  0.05    0.12
Q29   1   0.3768  1.1246  0.1120  11.00000  0.05    0.12
Q30   1   0.3299  0.9584  0.3042  11.00000  0.05    0.12
Q31   1   0.9156  0.3183  0.5629  11.00000  0.05    0.12
Q32   1   0.7638  0.3369  0.1337  11.00000  0.05    0.12
Q33   1   0.3466  0.3476  0.1349  11.00000  0.05    0.12
Q34   1   1.1214  0.1991  0.4617  11.00000  0.05    0.12
Q35   1   1.1208  0.9163  0.2395  11.00000  0.05    0.12
Q36   1   0.8952  1.0395  0.1756  11.00000  0.05    0.12
Q37   1   0.9281  0.8737  0.1676  11.00000  0.05    0.12
Q38   1   0.4280  0.3088  0.2949  11.00000  0.05    0.12
Q39   1   1.0189  0.5009  0.1927  11.00000  0.05    0.12
Q40   1   0.8360  0.6936  0.0399  11.00000  0.05    0.11
;
_shelx_res_checksum              1240
_shelx_hkl_file
;
  -1   0   0    5.02    0.18
   1   0   0    5.27    0.15
   1   0   0    5.27    0.14
  -2   0   0    1.07    0.14
   2   0   0    1.12    0.12
   2   0   0    1.19    0.11
  -3   0   0    0.06    0.12
   3   0   0    0.07    0.08
   3   0   0    0.12    0.07
   4   0   0    0.65    0.14
   4   0   0    0.51    0.12
   4   0   0    0.40    0.14
   5   0   0    5.11    0.36
   5   0   0    5.27    0.38
   5   0   0    4.96    0.33
   6   0   0    4.79    0.40
   6   0   0    5.09    0.42
   6   0   0    3.92    0.44
   6  -1   0    2.68    0.31
   6  -1   0    2.58    0.31
   6  -1   0    2.72    0.33
   5  -1   0    0.14    0.15
   5  -1   0    0.23    0.15
   5  -1   0   -0.04    0.17
   4  -1   0    0.08    0.10
   4  -1   0    0.02    0.11
   4  -1   0    0.16    0.10
   3  -1   0    4.19    0.20
   3  -1   0    4.04    0.20
   3  -1   0    4.40    0.22
   2  -1   0   32.47    0.71
   2  -1   0   33.15    0.70
   2  -1   0   33.00    0.72
   1  -1   0    1.28    0.07
   1  -1   0    1.40    0.08
   1  -1   0    1.31    0.09
  -1   1   0    1.44    0.08
   0  -1   0    0.01    0.03
   0  -1   0   -0.01    0.02
   0  -1   0   -0.02    0.01
   0   1   0   -0.04    0.02
  -1  -1   0    3.09    0.15
  -1  -1   0    3.08    0.12
   1   1   0    3.19    0.11
   1   1   0    3.12    0.13
   1   1   0    3.15    0.12
  -2  -1   0    0.81    0.13
   2   1   0    0.71    0.10
   2   1   0    0.78    0.10
  -3  -1   0   12.31    0.45
   3   1   0   12.89    0.38
   3   1   0   12.87    0.41
  -4  -1   0    1.38    0.23
   4   1   0    0.87    0.15
   4   1   0    0.75    0.17
  -5  -1   0    0.65    0.27
   5   1   0    0.96    0.24
   5   1   0    0.84    0.20
   5   1   0    0.72    0.20
   6   1   0    0.04    0.21
   6   1   0   -0.29    0.25
   6   1   0    0.41    0.23
   6  -2   0    0.16    0.22
   6  -2   0    0.28    0.18
   6  -2   0    0.38    0.19
   5  -2   0   10.23    0.46
   5  -2   0   10.42    0.45
   5  -2   0   10.05    0.44
   4  -2   0    7.67    0.32
   4  -2   0    7.71    0.32
   4  -2   0    8.01    0.33
   3  -2   0    1.41    0.14
   3  -2   0    1.43    0.14
   3  -2   0    1.43    0.15
   2  -2   0    0.78    0.10
   2  -2   0    0.64    0.08
   2  -2   0    0.85    0.10
  -2   2   0    0.71    0.08
   1  -2   0    2.50    0.13
   1  -2   0    2.34    0.11
   1  -2   0    2.75    0.16
  -1   2   0    2.98    0.13
   0  -2   0   20.53    0.52
   0  -2   0   19.65    0.43
   0  -2   0   19.69    0.39
   0   2   0   19.83    0.49
  -1  -2   0  922.10   21.60
  -1  -2   0  945.69   18.22
   1   2   0 1000.00   18.59
   1   2   0  983.85   17.74
   1   2   0  992.99   20.45
  -2  -2   0    0.05    0.08
  -2  -2   0    0.15    0.10
   2   2   0   -0.02    0.07
   2   2   0    0.09    0.07
   2   2   0    0.13    0.08
  -3  -2   0   -0.05    0.13
   3   2   0    0.04    0.07
   3   2   0    0.03    0.09
   3   2   0    0.03    0.10
  -4  -2   0   -0.06    0.16
   4   2   0    0.10    0.15
   4   2   0    0.13    0.13
  -5  -2   0   -0.24    0.22
   5   2   0   -0.04    0.17
   5   2   0   -0.02    0.20
  -6  -2   0    2.61    0.38
   6   2   0    1.52    0.27
   6   2   0    1.59    0.35
   6   2   0    1.19    0.26
   6  -3   0   -0.16    0.17
   6  -3   0    0.11    0.17
   5  -3   0    9.74    0.43
   5  -3   0    9.58    0.43
   5  -3   0    9.77    0.42
   4  -3   0    1.34    0.17
   4  -3   0    1.28    0.17
   4  -3   0    1.52    0.18
   3  -3   0    0.66    0.11
   3  -3   0    0.24    0.08
   3  -3   0    0.44    0.10
   3  -3   0    0.41    0.13
   2  -3   0    5.97    0.27
   2  -3   0    6.17    0.21
   2  -3   0    5.43    0.22
   2  -3   0    5.39    0.17
  -2   3   0    5.94    0.22
   1  -3   0   21.98    0.62
   1  -3   0   22.35    0.52
   1  -3   0   22.69    0.48
  -1   3   0   22.91    0.58
   0  -3   0    0.55    0.05
   0  -3   0    0.50    0.11
   0  -3   0    0.57    0.08
   0   3   0    0.52    0.09
  -1  -3   0   18.64    0.45
  -1  -3   0   18.75    0.56
   1   3   0   19.87    0.52
   1   3   0   19.04    0.46
  -2  -3   0    0.03    0.11
  -2  -3   0   -0.07    0.09
   2   3   0    0.03    0.07
   2   3   0   -0.01    0.07
   2   3   0    0.06    0.09
  -3  -3   0   -0.04    0.13
   3   3   0   -0.04    0.10
   3   3   0    0.09    0.09
   3   3   0    0.08    0.11
  -4  -3   0    2.32    0.30
   4   3   0    2.89    0.25
   4   3   0    2.29    0.26
  -5  -3   0    0.18    0.25
   5   3   0    0.22    0.19
   5   3   0    0.12    0.23
  -6  -3   0    2.31    0.38
   6   3   0    1.02    0.34
   6   3   0    1.02    0.25
   6  -4   0   -0.07    0.17
   6  -4   0   -0.06    0.22
   6  -4   0   -0.25    0.16
   5  -4   0   -0.32    0.12
   5  -4   0    0.00    0.18
   5  -4   0   -0.15    0.12
   4  -4   0   13.51    0.48
   4  -4   0   13.98    0.58
   4  -4   0   14.00    0.47
   3  -4   0    5.55    0.25
   3  -4   0    4.50    0.19
   3  -4   0    5.55    0.31
   3  -4   0    5.34    0.25
  -3   4   0    5.24    0.24
   2  -4   0    0.82    0.12
   2  -4   0    0.76    0.10
   2  -4   0    0.88    0.15
  -2   4   0    0.81    0.12
   1  -4   0    0.53    0.12
   1  -4   0    0.34    0.08
   1  -4   0    0.44    0.07
  -1   4   0    0.55    0.11
   0  -4   0    0.41    0.06
   0  -4   0    0.60    0.10
   0  -4   0    0.71    0.14
   0   4   0    0.47    0.11
  -1  -4   0   15.81    0.42
  -1  -4   0   15.37    0.51
   1   4   0   15.39    0.48
   1   4   0   15.45    0.40
  -2  -4   0  176.54    4.21
  -2  -4   0  178.37    3.54
   2   4   0  178.64    3.42
   2   4   0  183.89    3.99
   2   4   0  193.23    3.64
  -3  -4   0   -0.08    0.14
  -3  -4   0    0.13    0.12
   3   4   0   -0.17    0.10
   3   4   0    0.18    0.13
   3   4   0    0.04    0.11
  -4  -4   0    0.17    0.22
   4   4   0    0.18    0.19
   4   4   0   -0.01    0.14
  -5  -4   0    0.08    0.26
   5   4   0   -0.19    0.19
   5   4   0   -0.45    0.22
   6  -5   0    0.43    0.21
   5  -5   0    0.07    0.20
   5  -5   0   -0.09    0.14
   5  -5   0    0.13    0.13
   4  -5   0   17.92    0.57
   4  -5   0   16.84    0.68
   4  -5   0   17.76    0.54
   3  -5   0    2.28    0.21
   3  -5   0    2.35    0.19
   3  -5   0    2.36    0.26
  -3   5   0    2.37    0.20
   2  -5   0    0.77    0.11
   2  -5   0    1.08    0.17
   2  -5   0    0.74    0.12
  -2   5   0    1.01    0.14
   1  -5   0    2.15    0.18
   1  -5   0    1.93    0.21
   1  -5   0    2.13    0.13
  -1   5   0    1.85    0.19
   0  -5   0    4.28    0.26
   0  -5   0    4.72    0.23
   0  -5   0    3.90    0.14
   0   5   0    4.29    0.25
  -1  -5   0   -0.29    0.13
   1   5   0    0.14    0.08
   1   5   0    0.07    0.10
  -2  -5   0    7.32    0.39
  -2  -5   0    7.58    0.31
   2   5   0    6.82    0.25
   2   5   0    7.29    0.32
   2   5   0    6.93    0.34
  -3  -5   0    0.24    0.21
  -3  -5   0    0.29    0.14
   3   5   0    0.25    0.17
   3   5   0    0.14    0.14
  -4  -5   0   -0.16    0.22
   4   5   0   -0.26    0.19
  -5  -5   0    0.08    0.29
   5   5   0    0.18    0.25
   5  -6   0    0.30    0.17
   5  -6   0    0.24    0.23
   5  -6   0    0.09    0.16
   4  -6   0    0.45    0.17
   4  -6   0   -0.03    0.18
   4  -6   0    0.37    0.14
   3  -6   0    8.40    0.38
   3  -6   0    7.81    0.32
   3  -6   0    7.64    0.43
  -3   6   0    7.52    0.36
   2  -6   0    1.44    0.14
   2  -6   0    1.37    0.18
   2  -6   0    1.57    0.22
  -2   6   0    1.39    0.19
   1  -6   0    0.10    0.13
   1  -6   0    0.19    0.11
  -1   6   0   -0.03    0.11
   0  -6   0    0.01    0.12
   0  -6   0    0.16    0.11
   0   6   0    0.01    0.11
  -1  -6   0   -0.12    0.11
  -1  -6   0    0.06    0.15
   1   6   0   -0.12    0.11
  -2  -6   0    8.80    0.47
  -2  -6   0    8.42    0.37
   2   6   0    8.29    0.43
   2   6   0    8.83    0.37
  -3  -6   0   32.26    1.05
  -3  -6   0   32.82    0.85
   3   6   0   30.90    0.96
   3   6   0   34.05    0.90
  -4  -6   0    0.10    0.24
   4   6   0    0.05    0.22
   5  -7   0    0.97    0.23
   5  -7   0    1.04    0.30
   4  -7   0    0.18    0.17
   4  -7   0    0.12    0.20
   3  -7   0   15.51    0.56
   3  -7   0   15.52    0.65
  -3   7   0   14.58    0.57
   2  -7   0    1.35    0.24
   2  -7   0    1.71    0.23
  -2   7   0    1.17    0.21
   1  -7   0    0.37    0.17
   1  -7   0    0.31    0.14
  -1   7   0    0.20    0.15
   0  -7   0    0.26    0.16
   0  -7   0    0.31    0.14
   0   7   0    0.41    0.16
  -1  -7   0    0.39    0.24
  -1  -7   0    0.29    0.18
   1   7   0    0.33    0.18
  -2  -7   0   -0.45    0.24
  -2  -7   0   -0.18    0.16
   2   7   0    0.16    0.18
  -3  -7   0    1.90    0.26
  -3  -7   0    2.02    0.37
   3   7   0    1.48    0.26
  -4  -7   0    0.16    0.28
   4  -8   0   -0.28    0.23
   4  -8   0   -0.11    0.19
   3  -8   0    2.50    0.30
   3  -8   0    2.53    0.36
  -3   8   0    1.99    0.28
   2  -8   0    2.73    0.35
   2  -8   0    2.78    0.28
  -2   8   0    2.01    0.28
   1  -8   0    0.41    0.16
   1  -8   0    0.24    0.20
  -1   8   0   -0.04    0.16
   0  -8   0    0.12    0.21
   0  -8   0    0.04    0.16
   0   8   0    0.12    0.17
  -1  -8   0    0.22    0.26
  -1  -8   0    0.00    0.19
   1   8   0   -0.04    0.18
  -2  -8   0    0.07    0.29
  -2  -8   0    0.24    0.20
   2   8   0    0.31    0.20
  -3  -8   0    3.72    0.46
   3   8   0    3.67    0.43
   3  -9   0    1.11    0.27
   3  -9   0    0.51    0.29
  -3   9   0    0.84    0.24
   2  -9   0    8.13    0.53
   2  -9   0    8.69    0.45
  -2   9   0    7.76    0.50
   1  -9   0    0.38    0.20
   1  -9   0    0.67    0.24
  -1   9   0    0.26    0.20
   0  -9   0    0.08    0.22
   0  -9   0   -0.25    0.17
   0   9   0   -0.18    0.17
  -1  -9   0   -0.22    0.21
  -1  -9   0    0.10    0.29
   1   9   0    0.02    0.20
  -2  -9   0   -0.41    0.32
   2   9   0    0.06    0.21
   1 -10   0    0.58    0.27
   1 -10   0    0.45    0.22
  -1  10   0    0.28    0.23
   0 -10   0    0.06    0.22
   0 -10   0    0.06    0.27
   0  10   0    0.34    0.22
   1  10  -1    1.02    0.28
  -1 -10   1    0.37    0.36
   0  10  -1   -0.04    0.20
   0 -10   1    0.25    0.26
  -1  10  -1    0.82    0.25
   1 -10   1    1.12    0.29
   1 -10   1    0.38    0.21
   2 -10   1    1.84    0.26
   2 -10   1    2.09    0.35
   2   9  -1    0.32    0.21
  -2  -9   1   -0.58    0.31
   1   9  -1    0.25    0.20
  -1  -9   1   -0.30    0.26
   0   9  -1    1.12    0.25
   0  -9   1    2.14    0.33
   0  -9   1    1.60    0.23
  -1   9  -1    0.33    0.19
   1  -9   1    0.05    0.21
   1  -9   1    0.33    0.17
  -2   9  -1    5.00    0.42
   2  -9   1    6.11    0.39
   2  -9   1    5.73    0.49
   3  -9   1    1.65    0.34
   3  -9   1    2.07    0.30
   3   8  -1    5.42    0.43
  -3  -8   1    5.66    0.57
   2   8  -1    0.08    0.20
  -2  -8   1   -0.52    0.27
   1   8  -1   -0.13    0.16
  -1  -8   1   -0.14    0.23
  -1  -8   1   -0.17    0.16
   0   8  -1    2.24    0.28
   0  -8   1    2.48    0.31
   0  -8   1    2.45    0.25
  -1   8  -1   -0.14    0.15
   1  -8   1    0.25    0.15
   1  -8   1    0.05    0.18
  -2   8  -1    1.85    0.26
   2  -8   1    1.90    0.31
   2  -8   1    2.04    0.24
   3  -8   1    3.74    0.36
   3  -8   1    3.36    0.42
   4  -8   1    0.67    0.29
   4  -8   1    0.41    0.21
   4   7  -1    0.01    0.22
  -4  -7   1    0.34    0.30
   3   7  -1    0.92    0.23
  -3  -7   1    1.06    0.21
  -3  -7   1    0.52    0.30
   2   7  -1   -0.08    0.15
  -2  -7   1   -0.08    0.14
  -2  -7   1   -0.35    0.22
   1   7  -1   -0.27    0.14
  -1  -7   1   -0.37    0.12
  -1  -7   1   -0.22    0.18
   0   7  -1    0.29    0.15
   0  -7   1    0.63    0.18
   0  -7   1    0.31    0.13
  -1   7  -1    2.39    0.27
   1  -7   1    2.57    0.28
   1  -7   1    2.76    0.24
  -2   7  -1    1.05    0.19
   2  -7   1    1.38    0.20
   2  -7   1    1.50    0.24
   3  -7   1    6.13    0.37
   3  -7   1    6.31    0.43
   4  -7   1    2.73    0.30
   4  -7   1    2.71    0.36
   5  -7   1    1.99    0.29
   5  -7   1    2.02    0.36
   5   6  -1   -0.03    0.25
  -5  -6   1    0.69    0.33
   4   6  -1    0.49    0.22
  -4  -6   1    0.02    0.25
   3   6  -1    3.16    0.31
   3   6  -1    3.40    0.30
  -3  -6   1    4.02    0.42
  -3  -6   1    3.50    0.27
   2   6  -1   16.83    0.59
   2   6  -1   16.85    0.51
  -2  -6   1   16.28    0.63
  -2  -6   1   15.75    0.48
   1   6  -1    1.26    0.19
   1   6  -1    1.39    0.15
  -1  -6   1    1.26    0.15
  -1  -6   1    1.18    0.21
   0   6  -1    0.12    0.12
   0  -6   1    0.07    0.10
   0  -6   1    0.07    0.13
  -1   6  -1    8.55    0.38
   1  -6   1    9.66    0.34
   1  -6   1    8.75    0.40
  -2   6  -1    0.45    0.14
   2  -6   1    0.49    0.16
   2  -6   1    0.58    0.10
   2  -6   1    0.27    0.11
   3  -6   1    2.34    0.25
   3  -6   1    2.25    0.20
   3  -6   1    2.49    0.29
   4  -6   1    3.80    0.27
   4  -6   1    4.04    0.32
   4  -6   1    3.92    0.39
   5  -6   1    0.13    0.22
   5  -6   1    0.05    0.16
   5  -6   1    0.15    0.15
   5   5  -1    0.24    0.26
  -5  -5   1    0.03    0.28
   4   5  -1    0.10    0.20
  -4  -5   1   -0.14    0.22
   3   5  -1    0.79    0.19
   3   5  -1    0.70    0.16
  -3  -5   1    0.66    0.15
  -3  -5   1    0.62    0.21
   2   5  -1    3.19    0.23
   2   5  -1    2.97    0.24
  -2  -5   1    3.23    0.29
  -2  -5   1    2.68    0.20
   1   5  -1    1.45    0.18
   1   5  -1    1.45    0.14
  -1  -5   1    1.22    0.18
  -1  -5   1    1.30    0.14
   0   5  -1    0.24    0.10
   0  -5   1    0.21    0.09
   0  -5   1    0.03    0.11
  -1   5  -1    5.27    0.27
   1  -5   1    5.32    0.28
   1  -5   1    5.21    0.17
   1  -5   1    5.25    0.23
  -2   5  -1    1.84    0.18
   2  -5   1    1.83    0.21
   2  -5   1    1.31    0.13
   2  -5   1    1.69    0.17
   3  -5   1    5.25    0.25
   3  -5   1    5.26    0.34
   3  -5   1    4.67    0.26
   4  -5   1    4.57    0.29
   4  -5   1    4.58    0.31
   4  -5   1    4.64    0.38
   5  -5   1    1.76    0.22
   5  -5   1    1.76    0.32
   5  -5   1    1.95    0.27
   5   4  -1    0.08    0.23
   5   4  -1    0.49    0.19
  -5  -4   1    0.84    0.30
   4   4  -1    0.96    0.22
   4   4  -1    0.57    0.16
  -4  -4   1    1.05    0.25
   3   4  -1    1.86    0.21
   3   4  -1    1.81    0.18
   3   4  -1    2.01    0.19
  -3  -4   1    1.53    0.22
   2   4  -1    7.35    0.31
   2   4  -1    7.01    0.23
   2   4  -1    6.91    0.29
  -2  -4   1    7.34    0.35
  -2  -4   1    7.03    0.26
   1   4  -1   42.37    0.93
   1   4  -1   45.79    1.07
  -1  -4   1   43.79    1.12
  -1  -4   1   41.95    0.91
   0   4  -1    5.70    0.17
   0   4  -1    6.00    0.26
   0  -4   1    6.07    0.21
   0  -4   1    5.88    0.27
  -1   4  -1    0.03    0.09
   1  -4   1   -0.13    0.04
   1  -4   1    0.08    0.09
   1  -4   1    0.05    0.07
   2  -4   1   19.94    0.52
   2  -4   1   20.83    0.63
   2  -4   1   18.65    0.44
   2  -4   1   20.82    0.48
   3  -4   1    3.07    0.20
   3  -4   1    2.75    0.19
   3  -4   1    2.58    0.16
   3  -4   1    3.14    0.25
   4  -4   1    0.51    0.14
   4  -4   1    0.39    0.13
   4  -4   1    0.06    0.12
   4  -4   1    0.51    0.18
   5  -4   1    2.07    0.31
   5  -4   1    1.48    0.22
   5  -4   1    1.67    0.23
   6  -4   1   -0.15    0.17
   6  -4   1    0.18    0.19
   6  -4   1   -0.05    0.23
   6   3  -1    0.05    0.28
   6   3  -1   -0.17    0.21
   6   3  -1    0.09    0.22
  -6  -3   1    0.49    0.30
   5   3  -1    0.36    0.17
   5   3  -1    0.65    0.25
  -5  -3   1    0.66    0.27
   4   3  -1    0.61    0.15
   4   3  -1    0.90    0.19
  -4  -3   1    1.14    0.24
   3   3  -1    0.99    0.17
   3   3  -1    1.21    0.14
   3   3  -1    1.43    0.15
  -3  -3   1    1.20    0.19
   2   3  -1    0.63    0.10
   2   3  -1    0.71    0.12
   2   3  -1    0.53    0.08
  -2  -3   1    0.63    0.14
  -2  -3   1    0.47    0.09
   1   3  -1    8.77    0.21
   1   3  -1    9.22    0.31
   1   3  -1    9.01    0.26
  -1  -3   1    8.63    0.24
  -1  -3   1    9.22    0.33
   0   3  -1    7.34    0.26
   0   3  -1    6.77    0.18
   0  -3   1    6.80    0.26
   0  -3   1    6.61    0.20
  -1   3  -1    1.55    0.14
   1  -3   1    1.67    0.12
   1  -3   1    1.66    0.09
   1  -3   1    1.50    0.15
   2  -3   1   25.53    0.57
   2  -3   1   25.81    0.72
   2  -3   1   25.34    0.60
   2  -3   1   26.13    0.58
   3  -3   1    0.21    0.09
   3  -3   1    0.23    0.09
   3  -3   1    0.05    0.07
   4  -3   1    7.43    0.33
   4  -3   1    7.69    0.33
   4  -3   1    7.51    0.34
   5  -3   1    2.97    0.30
   5  -3   1    2.54    0.27
   5  -3   1    2.59    0.29
   6  -3   1    0.42    0.22
   6  -3   1    0.40    0.21
   6  -3   1    0.58    0.21
   6   2  -1    1.87    0.28
   6   2  -1    2.35    0.34
   6   2  -1    2.37    0.31
   5   2  -1    0.55    0.18
   5   2  -1    0.18    0.20
  -5  -2   1    0.71    0.26
   4   2  -1    0.83    0.17
   4   2  -1    0.93    0.16
  -4  -2   1    1.10    0.22
   3   2  -1    2.38    0.19
   3   2  -1    2.35    0.20
  -3  -2   1    2.52    0.23
   2   2  -1   22.51    0.50
   2   2  -1   21.72    0.55
   2   2  -1   23.39    0.55
  -2  -2   1   21.69    0.62
   1   2  -1    9.91    0.29
   1   2  -1    9.48    0.26
   1   2  -1    9.08    0.22
  -1  -2   1    9.43    0.31
  -1  -2   1    9.37    0.24
   0   2  -1   85.36    1.66
   0   2  -1   87.18    1.87
   0  -2   1   86.06    1.95
   0  -2   1   83.55    1.63
   1  -2   1   11.72    0.30
   1  -2   1   12.30    0.27
   1  -2   1   11.80    0.36
   1  -2   1   11.98    0.27
   2  -2   1    0.63    0.09
   2  -2   1    0.50    0.07
   2  -2   1    0.61    0.09
   3  -2   1   15.30    0.43
   3  -2   1   15.05    0.44
   3  -2   1   15.22    0.43
   4  -2   1    6.38    0.30
   4  -2   1    5.80    0.30
   4  -2   1    5.97    0.30
   5  -2   1   -0.01    0.13
   5  -2   1    0.15    0.17
   5  -2   1    0.16    0.15
   6  -2   1    0.38    0.20
   6  -2   1    0.43    0.21
   6  -2   1    0.57    0.24
   6   1  -1   12.94    0.63
   6   1  -1   13.00    0.57
   6   1  -1   13.03    0.57
   5   1  -1   -0.21    0.16
   5   1  -1    0.01    0.15
   5   1  -1    0.04    0.14
   4   1  -1    4.60    0.26
   4   1  -1    4.62    0.29
   4   1  -1    4.50    0.25
  -4  -1   1    4.38    0.32
   3   1  -1    1.61    0.16
   3   1  -1    1.28    0.15
  -3  -1   1    1.76    0.20
   2   1  -1    5.50    0.19
   2   1  -1    5.62    0.21
  -2  -1   1    5.44    0.24
   1   1  -1    0.61    0.06
   1   1  -1    0.66    0.07
  -1  -1   1    0.71    0.08
   1  -1   1    8.73    0.21
   1  -1   1    8.54    0.22
   1  -1   1    8.33    0.21
   2  -1   1    3.33    0.16
   2  -1   1    3.08    0.15
   2  -1   1    3.17    0.16
   2  -1   1    3.19    0.12
   3  -1   1   26.72    0.66
   3  -1   1   25.97    0.65
   3  -1   1   26.20    0.63
   4  -1   1    0.04    0.10
   4  -1   1    0.07    0.10
   4  -1   1    0.17    0.13
   5  -1   1    4.60    0.36
   5  -1   1    4.84    0.34
   5  -1   1    4.19    0.33
   6  -1   1    1.04    0.27
   6  -1   1    1.12    0.24
   6  -1   1    1.30    0.26
   6   0  -1    9.67    0.53
   6   0  -1    9.91    0.50
   6   0  -1    9.21    0.50
   5   0  -1    2.20    0.24
   5   0  -1    2.32    0.28
   5   0  -1    2.20    0.25
   4   0  -1    0.59    0.12
   4   0  -1    0.42    0.12
   4   0  -1    0.53    0.15
   3   0  -1    2.39    0.16
   3   0  -1    2.45    0.16
   3   0  -1    2.42    0.18
   2   0  -1    4.34    0.17
   2   0  -1    4.58    0.18
   2   0  -1    4.04    0.17
  -2   0   1    4.11    0.21
   1   0  -1  185.15    3.39
   1   0  -1  187.58    3.53
   1   0  -1  183.82    3.46
  -1   0   1  173.80    4.07
  -1   0   1  181.41    3.85
   0   0  -1   -0.10    0.01
   0   0  -1   -0.11    0.01
   0   0   1   -0.10    0.02
  -1   0  -1   32.34    0.80
   1   0   1   33.59    0.67
   1   0   1   33.01    0.70
   1   0   1   34.39    0.74
  -2   0  -1    4.27    0.22
   2   0   1    4.65    0.19
   2   0   1    4.58    0.20
  -3   0  -1    2.24    0.23
   3   0   1    2.28    0.18
   3   0   1    2.27    0.19
   4   0   1    3.54    0.24
   4   0   1    3.22    0.26
   5   0   1    5.13    0.37
   5   0   1    5.87    0.38
   5   0   1    5.12    0.39
   6   0   1    0.32    0.22
   6   0   1   -0.06    0.24
   6   0   1    0.19    0.21
   6  -1  -1    0.06    0.21
   6  -1  -1    0.54    0.20
   6  -1  -1    0.50    0.19
   5  -1  -1   22.15    0.69
   5  -1  -1   22.44    0.67
   5  -1  -1   22.09    0.67
   4  -1  -1    0.12    0.11
   4  -1  -1   -0.02    0.08
   4  -1  -1   -0.09    0.07
   3  -1  -1   20.75    0.53
   3  -1  -1   20.88    0.53
   3  -1  -1   21.56    0.54
   2  -1  -1    0.73    0.09
   2  -1  -1    0.85    0.10
   2  -1  -1    0.93    0.10
   1  -1  -1    9.69    0.23
   1  -1  -1    9.58    0.24
   1  -1  -1    8.95    0.28
   1  -1  -1    9.41    0.24
  -1   1   1    9.96    0.25
   0  -1  -1    0.54    0.05
   0  -1  -1    0.55    0.06
   0  -1  -1    0.52    0.06
   0   1   1    0.56    0.06
  -1  -1  -1    2.43    0.14
  -1  -1  -1    2.53    0.13
   1   1   1    2.44    0.12
   1   1   1    2.51    0.13
  -2  -1  -1    1.63    0.17
   2   1   1    1.66    0.15
   2   1   1    1.84    0.14
  -3  -1  -1    1.66    0.20
   3   1   1    1.65    0.17
   3   1   1    1.58    0.17
  -4  -1  -1   10.53    0.48
   4   1   1   10.96    0.44
   4   1   1   11.14    0.41
  -5  -1  -1    0.01    0.22
   5   1   1    0.08    0.20
   5   1   1    0.14    0.17
   6   1   1    1.91    0.35
   6   1   1    1.19    0.28
   6   1   1    1.78    0.29
   6  -2  -1    0.29    0.18
   6  -2  -1    0.16    0.19
   6  -2  -1    0.30    0.19
   5  -2  -1   24.80    0.73
   5  -2  -1   25.90    0.74
   5  -2  -1   24.04    0.72
   4  -2  -1    0.34    0.11
   4  -2  -1    0.25    0.11
   4  -2  -1    0.26    0.11
   3  -2  -1    1.10    0.12
   3  -2  -1    0.99    0.12
   3  -2  -1    1.08    0.13
   2  -2  -1   10.69    0.37
   2  -2  -1   10.95    0.30
   2  -2  -1   10.69    0.28
   2  -2  -1   10.53    0.32
  -2   2   1   10.97    0.30
   1  -2  -1    3.07    0.17
   1  -2  -1    3.18    0.15
   1  -2  -1    3.07    0.13
  -1   2   1    3.13    0.15
   0  -2  -1  232.35    4.26
   0  -2  -1  225.49    4.39
   0  -2  -1  226.71    5.18
   0   2   1  233.57    4.45
   0   2   1  240.76    4.94
  -1  -2  -1    1.54    0.12
  -1  -2  -1    1.57    0.15
   1   2   1    1.31    0.13
   1   2   1    1.17    0.11
  -2  -2  -1    2.05    0.19
  -2  -2  -1    1.72    0.16
   2   2   1    1.79    0.17
   2   2   1    2.02    0.15
   2   2   1    1.93    0.15
  -3  -2  -1    1.10    0.18
   3   2   1    1.03    0.14
   3   2   1    0.64    0.10
   3   2   1    1.09    0.16
  -4  -2  -1    2.50    0.31
   4   2   1    2.80    0.25
   4   2   1    2.54    0.28
  -5  -2  -1    0.46    0.25
   5   2   1   -0.10    0.18
   5   2   1    0.13    0.23
  -6  -2  -1    3.76    0.45
   6   2   1    2.10    0.36
   6   2   1    2.19    0.31
   6  -3  -1    0.09    0.18
   6  -3  -1   -0.16    0.17
   5  -3  -1    1.22    0.20
   5  -3  -1    1.22    0.20
   5  -3  -1    0.82    0.17
   4  -3  -1   26.00    0.83
   4  -3  -1   25.72    0.70
   4  -3  -1   26.18    0.69
   4  -3  -1   25.31    0.66
   3  -3  -1   -0.08    0.07
   3  -3  -1   -0.08    0.06
   3  -3  -1    0.01    0.06
   3  -3  -1   -0.06    0.08
  -3   3   1   -0.03    0.05
   2  -3  -1   36.02    0.77
   2  -3  -1   38.35    0.80
   2  -3  -1   38.28    0.99
   2  -3  -1   36.72    0.84
  -2   3   1   38.06    0.90
   1  -3  -1    0.04    0.08
   1  -3  -1    0.08    0.06
   1  -3  -1    0.08    0.06
  -1   3   1    0.09    0.07
   0  -3  -1    1.32    0.13
   0  -3  -1    1.29    0.10
   0  -3  -1    1.17    0.15
   0   3   1    1.20    0.08
   0   3   1    1.41    0.14
  -1  -3  -1    0.27    0.12
  -1  -3  -1    0.44    0.09
   1   3   1    0.44    0.10
   1   3   1    0.30    0.08
  -2  -3  -1    0.23    0.13
  -2  -3  -1    0.05    0.10
   2   3   1    0.15    0.10
   2   3   1   -0.02    0.08
   2   3   1    0.08    0.09
  -3  -3  -1   -0.03    0.14
   3   3   1   -0.04    0.10
   3   3   1   -0.09    0.12
   3   3   1   -0.06    0.08
  -4  -3  -1    0.11    0.21
   4   3   1    0.25    0.16
   4   3   1    0.30    0.19
  -5  -3  -1    2.87    0.37
   5   3   1    2.45    0.34
   5   3   1    2.13    0.26
   6  -4  -1   -0.19    0.17
   6  -4  -1    0.38    0.19
   6  -4  -1    0.14    0.23
   5  -4  -1    0.31    0.17
   5  -4  -1    0.63    0.22
   5  -4  -1    0.57    0.17
   4  -4  -1   42.35    1.05
   4  -4  -1   44.72    1.03
   4  -4  -1   43.93    1.26
   3  -4  -1    0.55    0.12
   3  -4  -1    0.45    0.11
   3  -4  -1    0.47    0.14
  -3   4   1    0.37    0.10
   2  -4  -1    1.27    0.13
   2  -4  -1    1.38    0.18
   2  -4  -1    1.33    0.14
  -2   4   1    1.33    0.15
   1  -4  -1   12.59    0.44
   1  -4  -1   12.30    0.32
   1  -4  -1   12.14    0.37
  -1   4   1   13.14    0.42
   0  -4  -1    1.09    0.13
   0  -4  -1    1.16    0.15
   0  -4  -1    0.83    0.09
   0   4   1    1.07    0.14
  -1  -4  -1   92.66    1.89
  -1  -4  -1   90.83    2.23
   1   4   1   95.54    1.90
   1   4   1   95.77    2.15
  -2  -4  -1    1.41    0.20
  -2  -4  -1    1.23    0.16
   2   4   1    1.34    0.14
   2   4   1    0.94    0.17
   2   4   1    1.00    0.16
  -3  -4  -1   -0.06    0.16
  -3  -4  -1    0.01    0.13
   3   4   1   -0.05    0.11
   3   4   1   -0.02    0.11
   3   4   1    0.06    0.14
  -4  -4  -1    0.29    0.23
   4   4   1    0.30    0.21
   4   4   1    0.30    0.17
  -5  -4  -1    1.09    0.31
   5   4   1    0.84    0.23
   5   4   1    1.47    0.32
   5  -5  -1    0.24    0.22
   5  -5  -1    0.31    0.16
   5  -5  -1    0.35    0.17
   4  -5  -1    4.43    0.29
   4  -5  -1    3.57    0.36
   4  -5  -1    4.27    0.30
   3  -5  -1   14.15    0.47
   3  -5  -1   13.98    0.55
   3  -5  -1   14.92    0.44
  -3   5   1   14.53    0.48
   2  -5  -1    0.05    0.11
   2  -5  -1   -0.07    0.07
   2  -5  -1   -0.04    0.08
  -2   5   1    0.04    0.10
   1  -5  -1   17.53    0.43
   1  -5  -1   18.40    0.59
   1  -5  -1   17.45    0.50
  -1   5   1   18.12    0.57
   0  -5  -1    0.23    0.11
   0  -5  -1    0.18    0.08
   0  -5  -1    0.30    0.13
   0   5   1    0.47    0.12
  -1  -5  -1   -0.13    0.13
  -1  -5  -1   -0.15    0.10
   1   5   1   -0.01    0.09
   1   5   1    0.17    0.09
  -2  -5  -1    0.40    0.14
  -2  -5  -1    0.44    0.19
   2   5   1    0.32    0.13
   2   5   1    0.41    0.11
   2   5   1    0.34    0.14
  -3  -5  -1   -0.12    0.15
  -3  -5  -1   -0.18    0.19
   3   5   1    0.02    0.16
   3   5   1   -0.29    0.14
  -4  -5  -1   -0.05    0.23
   4   5   1   -0.31    0.21
  -5  -5  -1    0.40    0.31
   5   5   1    0.13    0.28
   5  -6  -1   -0.02    0.14
   5  -6  -1   -0.10    0.21
   5  -6  -1    0.36    0.18
   4  -6  -1    0.58    0.16
   4  -6  -1    0.44    0.21
   4  -6  -1    0.51    0.18
   3  -6  -1   34.80    0.81
   3  -6  -1   32.64    0.87
   3  -6  -1   33.44    1.03
  -3   6   1   32.81    0.93
   2  -6  -1    0.98    0.16
   2  -6  -1    1.17    0.20
   2  -6  -1    0.93    0.13
  -2   6   1    0.89    0.17
   1  -6  -1    0.69    0.18
   1  -6  -1    0.49    0.10
   1  -6  -1    0.66    0.14
  -1   6   1    0.41    0.14
   0  -6  -1    7.52    0.38
   0  -6  -1    7.62    0.33
   0   6   1    7.27    0.37
  -1  -6  -1    0.27    0.15
  -1  -6  -1    0.50    0.19
   1   6   1    0.81    0.17
  -2  -6  -1   31.53    0.81
  -2  -6  -1   29.88    0.97
   2   6   1   30.17    0.79
   2   6   1   28.77    0.91
  -3  -6  -1    0.82    0.21
  -3  -6  -1    0.40    0.26
   3   6   1    0.14    0.20
   3   6   1   -0.01    0.20
  -4  -6  -1   -0.17    0.23
   4   6   1   -0.23    0.23
   5  -7  -1   -0.05    0.20
   5  -7  -1    0.24    0.24
   4  -7  -1    1.46    0.31
   4  -7  -1    1.03    0.24
   3  -7  -1    5.58    0.45
   3  -7  -1    5.72    0.38
  -3   7   1    4.75    0.36
   2  -7  -1    4.01    0.38
   2  -7  -1    4.10    0.32
  -2   7   1    4.13    0.33
   1  -7  -1   -0.03    0.16
   1  -7  -1   -0.05    0.14
  -1   7   1   -0.18    0.13
   0  -7  -1    3.81    0.35
   0  -7  -1    4.16    0.30
   0   7   1    3.83    0.33
  -1  -7  -1    0.26    0.24
  -1  -7  -1   -0.17    0.17
   1   7   1   -0.06    0.16
  -2  -7  -1    0.50    0.27
  -2  -7  -1    0.24    0.19
   2   7   1    0.30    0.21
  -3  -7  -1    0.13    0.28
  -3  -7  -1    0.40    0.21
   3   7   1    0.24    0.23
   4  -8  -1    0.24    0.26
   4  -8  -1    0.29    0.22
   3  -8  -1    0.65    0.22
   3  -8  -1    0.50    0.26
  -3   8   1    0.42    0.20
   2  -8  -1   15.89    0.68
   2  -8  -1   16.05    0.58
  -2   8   1   15.00    0.65
   1  -8  -1    0.63    0.22
   1  -8  -1    0.67    0.20
  -1   8   1    0.62    0.21
   0  -8  -1    0.15    0.21
   0  -8  -1    0.39    0.20
   0   8   1   -0.05    0.18
  -1  -8  -1    2.99    0.39
  -1  -8  -1    3.12    0.31
   1   8   1    3.14    0.36
  -2  -8  -1    0.15    0.30
  -2  -8  -1    0.43    0.21
   2   8   1    0.47    0.25
  -3  -8  -1    8.38    0.49
  -3  -8  -1    7.28    0.59
   3   8   1    7.76    0.58
   3  -9  -1    1.92    0.29
   3  -9  -1    1.03    0.34
  -3   9   1    1.53    0.30
   2  -9  -1    4.50    0.44
   2  -9  -1    4.69    0.40
  -2   9   1    3.32    0.39
   1  -9  -1    1.14    0.24
   1  -9  -1    1.22    0.27
  -1   9   1    0.77    0.25
   0  -9  -1    0.21    0.24
   0  -9  -1    0.06    0.21
   0   9   1    0.02    0.19
  -1  -9  -1    0.17    0.23
  -1  -9  -1    0.50    0.32
   1   9   1    0.27    0.24
  -1 -10   2    1.08    0.38
   0 -10   2    2.10    0.35
   1 -10   2    3.61    0.43
   2 -10   2    1.13    0.26
   2 -10   2    1.32    0.32
  -2  -9   2   -0.56    0.30
   1   9  -2    1.06    0.25
  -1  -9   2    0.78    0.32
   0   9  -2    3.81    0.39
   0  -9   2    5.07    0.44
   1  -9   2    3.92    0.40
   1  -9   2    3.40    0.29
   2  -9   2    6.47    0.40
   2  -9   2    5.90    0.48
   3  -9   2    0.41    0.27
   3  -9   2    0.65    0.24
  -3  -8   2    0.43    0.33
   2   8  -2    0.30    0.20
  -2  -8   2   -0.16    0.28
   1   8  -2   -0.18    0.17
  -1  -8   2    0.30    0.23
   0   8  -2    5.57    0.38
   0  -8   2    5.32    0.29
   0  -8   2    5.57    0.41
  -1   8  -2    2.39    0.28
   1  -8   2    2.62    0.31
   1  -8   2    2.75    0.25
   2  -8   2    7.52    0.48
   2  -8   2    8.49    0.41
   3  -8   2    3.08    0.30
   3  -8   2    3.44    0.42
   4  -8   2    0.56    0.22
   4  -8   2    0.22    0.25
   4   7  -2   -0.21    0.20
  -4  -7   2   -0.02    0.30
   3   7  -2    0.02    0.17
  -3  -7   2    0.16    0.28
   2   7  -2    0.39    0.18
  -2  -7   2    0.24    0.25
   1   7  -2    0.21    0.16
  -1  -7   2    0.15    0.12
  -1  -7   2   -0.06    0.17
   0   7  -2    1.98    0.23
   0  -7   2    2.32    0.26
   0  -7   2    1.81    0.19
  -1   7  -2   14.08    0.54
   1  -7   2   13.44    0.44
   1  -7   2   14.31    0.56
   2  -7   2    9.70    0.40
   2  -7   2    9.37    0.47
   3  -7   2   12.78    0.60
   3  -7   2   12.42    0.48
   4  -7   2    0.09    0.17
   4  -7   2    0.20    0.21
   5  -7   2    0.80    0.22
   5  -7   2    0.83    0.30
   5   6  -2    1.88    0.31
  -5  -6   2    2.38    0.42
   4   6  -2    0.17    0.20
  -4  -6   2   -0.01    0.24
   3   6  -2    3.44    0.30
  -3  -6   2    3.76    0.40
  -3  -6   2    3.72    0.28
   2   6  -2    0.23    0.15
   2   6  -2    0.04    0.13
  -2  -6   2    0.01    0.10
  -2  -6   2   -0.03    0.18
   1   6  -2    1.95    0.16
   1   6  -2    1.93    0.23
  -1  -6   2    1.78    0.17
  -1  -6   2    2.01    0.24
   0   6  -2    0.00    0.12
   0  -6   2   -0.01    0.08
   0  -6   2    0.08    0.12
   1  -6   2   20.26    0.66
   1  -6   2   20.65    0.54
   2  -6   2    1.34    0.13
   2  -6   2    1.74    0.22
   2  -6   2    1.46    0.17
   3  -6   2   12.27    0.40
   3  -6   2   12.89    0.46
   3  -6   2   13.21    0.56
   4  -6   2    5.29    0.31
   4  -6   2    5.44    0.46
   4  -6   2    5.94    0.37
   5  -6   2    0.52    0.21
   5  -6   2    0.40    0.25
   5  -6   2    0.32    0.17
   5   5  -2   -0.04    0.22
  -5  -5   2   -0.21    0.28
   4   5  -2    3.69    0.33
  -4  -5   2    3.82    0.39
   3   5  -2    0.17    0.14
  -3  -5   2   -0.09    0.17
   2   5  -2   -0.12    0.11
   2   5  -2   -0.10    0.10
  -2  -5   2    0.13    0.15
  -2  -5   2   -0.07    0.09
   1   5  -2    3.38    0.18
   1   5  -2    3.29    0.25
  -1  -5   2    3.28    0.17
  -1  -5   2    3.38    0.25
   0   5  -2   -0.05    0.05
   0   5  -2   -0.09    0.10
   0  -5   2    0.00    0.07
   0  -5   2    0.02    0.10
   1  -5   2    2.32    0.20
   1  -5   2    2.25    0.16
   1  -5   2    2.18    0.11
   2  -5   2   25.24    0.58
   2  -5   2   25.00    0.63
   2  -5   2   25.72    0.77
   3  -5   2   17.06    0.47
   3  -5   2   16.65    0.51
   3  -5   2   15.96    0.61
   4  -5   2   17.50    0.58
   4  -5   2   17.07    0.53
   4  -5   2   16.77    0.68
   5  -5   2    0.10    0.14
   5  -5   2    0.20    0.21
   5  -5   2   -0.11    0.15
   5   4  -2    0.05    0.17
   5   4  -2    0.58    0.23
  -5  -4   2    0.52    0.29
   4   4  -2   11.41    0.48
   4   4  -2   12.06    0.42
  -4  -4   2   11.08    0.55
   3   4  -2    0.08    0.12
   3   4  -2    0.03    0.09
  -3  -4   2    0.14    0.14
   2   4  -2   16.80    0.46
   2   4  -2   15.07    0.37
  -2  -4   2   16.30    0.54
   1   4  -2    0.40    0.12
   1   4  -2    0.23    0.08
  -1  -4   2    0.57    0.13
  -1  -4   2    0.36    0.07
   0   4  -2    4.65    0.16
   0  -4   2    4.53    0.23
   0  -4   2    4.49    0.17
   1  -4   2    0.52    0.09
   1  -4   2    0.57    0.12
   1  -4   2    0.55    0.06
   2  -4   2   41.92    0.92
   2  -4   2   45.06    0.92
   2  -4   2   44.01    0.97
   2  -4   2   45.67    1.16
   3  -4   2    0.04    0.08
   3  -4   2    0.12    0.09
   3  -4   2    0.20    0.08
   3  -4   2    0.14    0.12
   4  -4   2   11.61    0.42
   4  -4   2   11.24    0.52
   4  -4   2   10.80    0.40
   4  -4   2   11.25    0.43
   5  -4   2    4.26    0.40
   5  -4   2    3.44    0.31
   5  -4   2    4.12    0.33
   6  -4   2    0.18    0.20
   6  -4   2    0.33    0.20
   6  -4   2    0.03    0.24
   6   3  -2    0.25    0.25
   6   3  -2    0.09    0.19
  -6  -3   2    0.85    0.31
   5   3  -2    0.50    0.18
   5   3  -2    0.46    0.21
  -5  -3   2    0.75    0.28
   4   3  -2    0.53    0.16
   4   3  -2    0.58    0.14
  -4  -3   2    0.76    0.22
   3   3  -2   10.42    0.38
   3   3  -2   11.28    0.34
  -3  -3   2   10.07    0.42
   2   3  -2    1.33    0.11
   2   3  -2    1.39    0.15
  -2  -3   2    1.80    0.19
   1   3  -2    1.29    0.11
  -1  -3   2    1.36    0.16
  -1  -3   2    1.23    0.09
   0   3  -2   15.31    0.36
   0  -3   2   15.63    0.44
   0  -3   2   15.04    0.34
   1  -3   2    0.04    0.04
   1  -3   2   -0.11    0.04
   1  -3   2   -0.03    0.07
   2  -3   2    0.35    0.08
   2  -3   2    0.58    0.11
   2  -3   2    0.52    0.09
   2  -3   2    0.70    0.08
   3  -3   2   15.54    0.43
   3  -3   2   15.75    0.44
   3  -3   2   15.39    0.45
   3  -3   2   14.88    0.42
   4  -3   2   15.22    0.49
   4  -3   2   14.86    0.50
   4  -3   2   15.31    0.49
   5  -3   2   12.78    0.52
   5  -3   2   13.68    0.54
   5  -3   2   13.00    0.51
   6  -3   2   -0.01    0.21
   6  -3   2   -0.10    0.18
   6  -3   2   -0.13    0.19
   6   2  -2    1.20    0.23
   6   2  -2    0.79    0.23
   6   2  -2    1.17    0.28
   5   2  -2    1.30    0.19
   5   2  -2    1.13    0.23
   5   2  -2    1.23    0.20
  -5  -2   2    2.05    0.33
   4   2  -2    0.54    0.16
   4   2  -2    0.10    0.12
   4   2  -2    0.36    0.11
  -4  -2   2    0.47    0.18
   3   2  -2   50.81    1.07
   3   2  -2   49.34    1.14
  -3  -2   2   52.24    1.31
   2   2  -2    1.21    0.13
   2   2  -2    1.14    0.11
  -2  -2   2    1.23    0.15
   1   2  -2   51.31    1.01
   1   2  -2   54.68    1.10
  -1  -2   2   53.57    1.25
   0   2  -2    3.09    0.12
   0  -2   2    2.92    0.14
   0  -2   2    3.49    0.10
   1  -2   2    5.77    0.18
   1  -2   2    6.15    0.17
   1  -2   2    5.47    0.21
   1  -2   2    5.57    0.17
   2  -2   2    1.83    0.14
   2  -2   2    1.87    0.12
   2  -2   2    1.64    0.12
   2  -2   2    1.89    0.14
   3  -2   2   33.84    0.81
   3  -2   2   33.16    0.80
   3  -2   2   34.97    0.79
   3  -2   2   35.12    0.81
   4  -2   2   -0.05    0.10
   4  -2   2   -0.09    0.10
   4  -2   2   -0.02    0.12
   5  -2   2    5.85    0.38
   5  -2   2    5.22    0.37
   5  -2   2    5.59    0.37
   6  -2   2    1.64    0.27
   6  -2   2    1.03    0.27
   6  -2   2    1.14    0.25
   6   1  -2    0.47    0.25
   6   1  -2    0.50    0.20
   6   1  -2    0.09    0.18
   5   1  -2   -0.08    0.15
   5   1  -2   -0.07    0.14
   5   1  -2    0.24    0.14
   4   1  -2    3.46    0.22
   4   1  -2    3.66    0.26
   4   1  -2    3.73    0.23
  -4  -1   2    4.13    0.31
   3   1  -2    4.77    0.21
   3   1  -2    5.26    0.24
   3   1  -2    4.67    0.20
  -3  -1   2    4.87    0.27
   2   1  -2   22.12    0.53
   2   1  -2   21.93    0.49
   2   1  -2   21.96    0.50
  -2  -1   2   22.54    0.60
   1   1  -2    9.01    0.25
   1   1  -2    8.99    0.22
   1   1  -2    9.05    0.20
  -1  -1   2    9.16    0.26
  -1  -1   2    9.47    0.25
   0   1  -2    9.19    0.20
   0   1  -2    8.38    0.22
   0  -1   2    8.65    0.22
   0  -1   2    8.36    0.24
   1  -1   2   17.99    0.42
   1  -1   2   18.72    0.45
   2  -1   2    0.94    0.11
   2  -1   2    0.76    0.10
   2  -1   2    0.87    0.09
   3  -1   2    0.05    0.09
   3  -1   2    0.22    0.10
   3  -1   2    0.18    0.05
   4  -1   2    2.57    0.25
   4  -1   2    2.18    0.23
   4  -1   2    2.41    0.22
   5  -1   2    8.18    0.43
   5  -1   2    9.30    0.45
   5  -1   2    8.75    0.46
   6  -1   2    6.23    0.45
   6  -1   2    6.09    0.45
   6  -1   2    5.28    0.47
   6   0  -2    0.94    0.24
   6   0  -2    0.90    0.22
   6   0  -2    0.89    0.22
   5   0  -2    1.44    0.21
   5   0  -2    1.44    0.22
   5   0  -2    1.10    0.18
   4   0  -2    4.95    0.26
   4   0  -2    5.00    0.25
   4   0  -2    4.91    0.27
   3   0  -2    0.28    0.09
   3   0  -2    0.30    0.08
   3   0  -2    0.25    0.08
   2   0  -2  153.33    2.97
   2   0  -2  155.51    3.05
   2   0  -2  155.91    2.92
   1   0  -2    3.70    0.14
   1   0  -2    3.59    0.14
   1   0  -2    3.61    0.12
  -1   0   2    3.87    0.14
   0   0  -2   64.40    1.22
   0   0  -2   63.44    1.24
   0   0   2   64.79    1.41
  -1   0  -2    2.05    0.13
  -1   0  -2    2.22    0.13
   1   0   2    2.24    0.13
   1   0   2    2.21    0.12
  -2   0  -2    2.08    0.18
   2   0   2    1.89    0.13
   2   0   2    2.11    0.14
   2   0   2    2.54    0.17
  -3   0  -2    1.54    0.19
   3   0   2    1.19    0.15
   3   0   2    1.15    0.14
   4   0   2   10.62    0.41
   4   0   2   10.69    0.43
   5   0   2   -0.08    0.17
   5   0   2    0.21    0.20
   6   0   2    1.21    0.31
   6   0   2    1.19    0.27
   6   0   2    1.53    0.29
   6  -1  -2    4.52    0.37
   6  -1  -2    4.86    0.37
   6  -1  -2    3.94    0.37
   5  -1  -2    0.01    0.12
   5  -1  -2    0.07    0.14
   5  -1  -2    0.04    0.13
   4  -1  -2    0.46    0.12
   4  -1  -2    0.31    0.10
   4  -1  -2    0.52    0.12
   3  -1  -2   10.51    0.34
   3  -1  -2   11.34    0.34
   3  -1  -2   10.91    0.34
   2  -1  -2   24.67    0.57
   2  -1  -2   25.52    0.57
   2  -1  -2   25.82    0.58
  -2   1   2   25.20    0.60
   1  -1  -2   18.36    0.41
   1  -1  -2   18.22    0.41
   1  -1  -2   18.19    0.41
   1  -1  -2   17.66    0.47
  -1   1   2   18.49    0.46
   0  -1  -2   12.74    0.34
   0  -1  -2   13.39    0.31
   0  -1  -2   13.14    0.31
   0   1   2   14.11    0.37
  -1  -1  -2    8.73    0.26
  -1  -1  -2    8.93    0.29
   1   1   2    8.73    0.28
   1   1   2    8.64    0.26
  -2  -1  -2    5.20    0.26
  -2  -1  -2    5.06    0.22
   2   1   2    5.34    0.23
   2   1   2    5.28    0.22
   2   1   2    5.22    0.21
  -3  -1  -2    1.78    0.21
   3   1   2    1.29    0.17
   3   1   2    1.40    0.14
   3   1   2    1.41    0.16
  -4  -1  -2    0.22    0.19
   4   1   2   -0.01    0.14
   4   1   2    0.19    0.13
  -5  -1  -2    0.43    0.23
   5   1   2    0.30    0.19
   5   1   2    0.18    0.21
   6   1   2    2.89    0.34
   6   1   2    2.57    0.38
   6  -2  -2    0.39    0.18
   6  -2  -2    0.46    0.18
   6  -2  -2    0.48    0.19
   5  -2  -2    1.01    0.18
   5  -2  -2    0.98    0.19
   5  -2  -2    1.15    0.19
   4  -2  -2    0.75    0.14
   4  -2  -2    0.69    0.13
   4  -2  -2    0.59    0.13
   3  -2  -2    8.38    0.28
   3  -2  -2    9.11    0.30
   3  -2  -2    8.32    0.30
  -3   2   2    8.04    0.26
   2  -2  -2    0.12    0.09
   2  -2  -2    0.19    0.07
   2  -2  -2    0.09    0.07
   2  -2  -2    0.19    0.06
  -2   2   2    0.26    0.07
   1  -2  -2  141.42    3.18
   1  -2  -2  140.92    2.71
   1  -2  -2  140.54    2.64
   1  -2  -2  133.69    2.71
  -1   2   2  144.26    3.04
   0  -2  -2    1.97    0.12
   0  -2  -2    1.90    0.13
   0  -2  -2    1.75    0.13
   0   2   2    2.08    0.15
   0   2   2    1.91    0.11
  -1  -2  -2   10.71    0.32
  -1  -2  -2   11.09    0.37
   1   2   2   11.45    0.32
   1   2   2   11.16    0.36
  -2  -2  -2    0.06    0.11
  -2  -2  -2   -0.07    0.09
   2   2   2   -0.10    0.07
   2   2   2    0.00    0.09
  -3  -2  -2    0.68    0.17
   3   2   2    0.99    0.15
   3   2   2    0.66    0.12
   3   2   2    1.11    0.17
  -4  -2  -2    0.37    0.21
   4   2   2    0.26    0.17
   4   2   2    0.17    0.15
  -5  -2  -2    2.31    0.34
   5   2   2    1.73    0.30
   5   2   2    1.60    0.24
   6  -3  -2    0.22    0.24
   6  -3  -2    0.41    0.21
   6  -3  -2    0.30    0.20
   5  -3  -2   11.07    0.56
   5  -3  -2   11.00    0.46
   5  -3  -2   11.74    0.48
   4  -3  -2    0.17    0.10
   4  -3  -2    0.21    0.14
   4  -3  -2    0.24    0.12
   4  -3  -2    0.07    0.09
   3  -3  -2    0.27    0.07
   3  -3  -2    0.22    0.09
   3  -3  -2    0.35    0.10
   3  -3  -2    0.45    0.13
  -3   3   2    0.19    0.07
   2  -3  -2   10.72    0.40
   2  -3  -2   11.13    0.28
   2  -3  -2   10.97    0.34
   2  -3  -2   10.93    0.33
  -2   3   2   11.65    0.37
   1  -3  -2   30.36    0.80
   1  -3  -2   31.03    0.70
   1  -3  -2   29.99    0.66
  -1   3   2   30.68    0.78
   0  -3  -2    3.24    0.18
   0  -3  -2    3.60    0.16
   0  -3  -2    3.46    0.20
   0   3   2    3.41    0.14
   0   3   2    3.67    0.21
  -1  -3  -2    4.96    0.23
  -1  -3  -2    5.62    0.29
   1   3   2    5.58    0.22
   1   3   2    5.11    0.26
  -2  -3  -2    2.21    0.20
  -2  -3  -2    2.32    0.24
   2   3   2    1.76    0.19
   2   3   2    2.18    0.21
  -3  -3  -2    0.45    0.18
  -3  -3  -2    0.70    0.15
   3   3   2    0.60    0.16
   3   3   2    0.56    0.13
   3   3   2    0.53    0.14
  -4  -3  -2    1.62    0.28
   4   3   2    1.25    0.20
   4   3   2    1.58    0.26
  -5  -3  -2    0.09    0.25
   5   3   2    0.09    0.25
   5   3   2    0.20    0.21
   6  -4  -2    2.65    0.31
   6  -4  -2    2.44    0.38
   6  -4  -2    2.51    0.31
   5  -4  -2    2.92    0.34
   5  -4  -2    3.14    0.30
   5  -4  -2    3.26    0.29
   4  -4  -2    0.61    0.15
   4  -4  -2    0.64    0.19
   4  -4  -2    0.62    0.15
   3  -4  -2    0.00    0.09
   3  -4  -2    0.02    0.11
   3  -4  -2   -0.06    0.07
  -3   4   2   -0.09    0.07
   2  -4  -2    5.78    0.30
   2  -4  -2    5.92    0.26
   2  -4  -2    6.03    0.25
  -2   4   2    6.52    0.29
   1  -4  -2    1.03    0.11
   1  -4  -2    1.14    0.17
   1  -4  -2    1.19    0.14
  -1   4   2    1.15    0.15
   0  -4  -2   28.38    0.78
   0  -4  -2   28.57    0.63
   0  -4  -2   28.98    0.68
   0   4   2   29.02    0.78
   0   4   2   27.54    0.62
  -1  -4  -2    0.36    0.15
  -1  -4  -2    0.21    0.11
   1   4   2    0.18    0.09
   1   4   2    0.23    0.12
  -2  -4  -2    0.90    0.16
  -2  -4  -2    0.98    0.21
   2   4   2    1.07    0.17
   2   4   2    0.64    0.15
  -3  -4  -2    0.10    0.15
  -3  -4  -2   -0.01    0.18
   3   4   2   -0.23    0.11
   3   4   2    0.03    0.15
   3   4   2    0.07    0.13
  -4  -4  -2    0.68    0.25
   4   4   2    0.37    0.18
   4   4   2    0.81    0.23
  -5  -4  -2    0.28    0.27
   5   4   2   -0.11    0.26
   5   4   2    0.01    0.20
   5  -5  -2    0.48    0.17
   5  -5  -2    0.41    0.22
   5  -5  -2    0.40    0.17
   4  -5  -2   14.73    0.52
   4  -5  -2   13.93    0.61
   4  -5  -2   14.62    0.50
   3  -5  -2    0.21    0.15
   3  -5  -2    0.24    0.12
   3  -5  -2    0.03    0.10
  -3   5   2   -0.02    0.10
   2  -5  -2    0.06    0.09
   2  -5  -2    0.01    0.09
   2  -5  -2    0.00    0.12
  -2   5   2    0.05    0.10
   1  -5  -2    3.82    0.27
   1  -5  -2    3.52    0.19
   1  -5  -2    3.55    0.23
  -1   5   2    3.48    0.26
   0  -5  -2   14.00    0.50
   0  -5  -2   13.21    0.42
   0  -5  -2   13.73    0.37
   0   5   2   13.47    0.50
  -1  -5  -2    0.58    0.15
  -1  -5  -2    0.60    0.18
   1   5   2    0.56    0.12
   1   5   2    0.50    0.15
  -2  -5  -2    1.22    0.19
  -2  -5  -2    1.06    0.24
   2   5   2    0.90    0.19
   2   5   2    0.96    0.19
  -3  -5  -2    0.25    0.23
  -3  -5  -2    0.41    0.19
   3   5   2    0.13    0.20
   3   5   2    0.25    0.15
   3   5   2   -0.20    0.16
  -4  -5  -2    0.24    0.24
   4   5   2   -0.05    0.22
   5  -6  -2    3.25    0.34
   5  -6  -2    3.17    0.41
   5  -6  -2    3.04    0.33
   4  -6  -2    6.80    0.36
   4  -6  -2    6.70    0.41
   4  -6  -2    6.37    0.45
   3  -6  -2    0.00    0.17
   3  -6  -2    0.01    0.13
   3  -6  -2    0.05    0.12
  -3   6   2   -0.10    0.11
   2  -6  -2    0.00    0.13
   2  -6  -2    0.14    0.10
   2  -6  -2    0.11    0.15
  -2   6   2   -0.09    0.12
   1  -6  -2    3.31    0.20
   1  -6  -2    3.43    0.25
   1  -6  -2    2.76    0.29
  -1   6   2    3.02    0.27
   0  -6  -2    1.44    0.20
   0  -6  -2    1.49    0.22
   0   6   2    1.12    0.19
  -1  -6  -2    2.74    0.29
  -1  -6  -2    2.49    0.30
   1   6   2    2.28    0.27
  -2  -6  -2    0.18    0.18
  -2  -6  -2    0.10    0.23
   2   6   2    0.03    0.16
  -3  -6  -2    0.51    0.21
  -3  -6  -2    0.02    0.24
   3   6   2    0.08    0.21
   3   6   2    0.14    0.18
  -4  -6  -2   -0.08    0.24
   4   6   2    0.04    0.25
   4  -7  -2    0.27    0.25
   4  -7  -2    0.16    0.20
   3  -7  -2    9.16    0.53
   3  -7  -2    9.60    0.47
  -3   7   2    9.27    0.48
   2  -7  -2   -0.03    0.16
   2  -7  -2    0.09    0.19
  -2   7   2    0.17    0.16
   1  -7  -2    0.20    0.18
   1  -7  -2    0.28    0.17
  -1   7   2    0.15    0.17
   0  -7  -2    1.19    0.24
   0  -7  -2    0.87    0.21
   0   7   2    0.88    0.21
  -1  -7  -2    4.44    0.36
  -1  -7  -2    4.32    0.42
   1   7   2    3.91    0.35
  -2  -7  -2    0.08    0.21
  -2  -7  -2   -0.11    0.25
   2   7   2    0.23    0.19
  -3  -7  -2    0.37    0.23
  -3  -7  -2    0.13    0.28
   3   7   2    0.12    0.24
   4  -8  -2    2.63    0.34
   4  -8  -2    2.24    0.37
   3  -8  -2    6.53    0.43
   3  -8  -2    7.03    0.52
  -3   8   2    6.38    0.45
   2  -8  -2    0.35    0.22
   2  -8  -2    0.42    0.20
  -2   8   2    0.01    0.18
   1  -8  -2    0.06    0.19
   1  -8  -2    0.12    0.20
  -1   8   2    0.01    0.17
   0  -8  -2    1.70    0.26
   0  -8  -2    1.75    0.29
   0   8   2    1.27    0.26
  -1  -8  -2    0.52    0.29
  -1  -8  -2    0.58    0.25
   1   8   2    0.57    0.23
  -2  -8  -2   -0.21    0.28
  -2  -8  -2    0.19    0.24
   2   8   2    0.08    0.22
   2  -9  -2    4.07    0.43
   2  -9  -2    4.57    0.40
  -2   9   2    3.77    0.42
   1  -9  -2    0.44    0.23
   1  -9  -2    0.11    0.22
  -1   9   2   -0.33    0.19
   0  -9  -2    0.26    0.23
   0  -9  -2    0.18    0.25
   0   9   2   -0.06    0.21
  -1  -9  -2    0.11    0.32
  -1  -9  -2    0.14    0.26
   1   9   2    0.21    0.24
  -1 -10   3    2.16    0.41
   0 -10   3    0.75    0.27
   1 -10   3    1.10    0.29
   2 -10   3    2.17    0.36
  -3  -9   3    0.24    0.37
  -2  -9   3   -0.59    0.31
  -1  -9   3   -0.26    0.26
   0  -9   3    0.20    0.22
   1  -9   3    1.75    0.30
   2  -9   3    0.29    0.25
   2  -9   3    0.12    0.18
   3  -9   3    1.22    0.25
   3  -9   3    1.28    0.32
  -4  -8   3    0.24    0.35
  -3  -8   3    0.98    0.37
  -2  -8   3   -0.51    0.26
  -1  -8   3    2.36    0.33
   0  -8   3    5.89    0.42
   1  -8   3    0.96    0.23
   1  -8   3    0.86    0.16
   2  -8   3    0.07    0.15
   2  -8   3    0.35    0.21
   3  -8   3    2.69    0.37
   3  -8   3    2.95    0.32
   4  -8   3    0.00    0.18
   4  -8   3    0.28    0.26
   4   7  -3   -0.07    0.19
  -4  -7   3    0.12    0.29
   3   7  -3   -0.09    0.16
  -3  -7   3   -0.16    0.26
   2   7  -3    1.18    0.19
  -2  -7   3    0.84    0.28
  -1  -7   3    0.57    0.20
   0  -7   3    0.77    0.19
   0  -7   3    0.56    0.12
   1  -7   3    0.49    0.13
   1  -7   3    0.60    0.18
   2  -7   3    1.43    0.19
   2  -7   3    2.09    0.27
   3  -7   3    0.01    0.15
   3  -7   3   -0.04    0.18
   4  -7   3    0.16    0.17
   4  -7   3    0.29    0.24
   5  -7   3    0.31    0.20
   5  -7   3    0.54    0.29
   5   6  -3   -0.15    0.23
  -5  -6   3    0.10    0.31
   4   6  -3    1.68    0.26
  -4  -6   3    2.11    0.33
   3   6  -3    0.43    0.18
  -3  -6   3    0.79    0.25
   2   6  -3    5.25    0.28
  -2  -6   3    5.55    0.39
   1   6  -3    1.28    0.14
  -1  -6   3    0.84    0.11
  -1  -6   3    1.16    0.19
   0   6  -3   10.03    0.29
   0  -6   3   10.25    0.42
   0  -6   3   10.28    0.30
   1  -6   3   11.75    0.46
   1  -6   3   12.13    0.37
   2  -6   3    2.74    0.27
   2  -6   3    3.15    0.23
   3  -6   3    0.27    0.16
   3  -6   3    0.18    0.13
   4  -6   3    2.14    0.31
   4  -6   3    1.29    0.22
   4  -6   3    1.46    0.19
   5  -6   3    0.66    0.19
   5  -6   3    0.30    0.25
   5  -6   3    0.48    0.21
   5   5  -3   -0.08    0.22
  -5  -5   3    0.08    0.29
   4   5  -3    2.20    0.26
  -4  -5   3    2.66    0.33
   3   5  -3    1.45    0.20
  -3  -5   3    1.60    0.24
   2   5  -3    0.85    0.14
  -2  -5   3    0.47    0.09
  -2  -5   3    0.67    0.18
   1   5  -3    1.36    0.15
  -1  -5   3    1.87    0.21
  -1  -5   3    1.62    0.12
   0   5  -3    1.36    0.11
   0  -5   3    1.63    0.18
   0  -5   3    1.58    0.12
   1  -5   3    7.10    0.32
   1  -5   3    6.79    0.19
   1  -5   3    6.55    0.24
   2  -5   3    3.48    0.16
   2  -5   3    3.46    0.17
   2  -5   3    3.12    0.20
   2  -5   3    3.40    0.25
   3  -5   3    2.22    0.25
   3  -5   3    2.05    0.16
   3  -5   3    1.88    0.20
   3  -5   3    1.63    0.17
   4  -5   3   -0.09    0.12
   4  -5   3    0.32    0.19
   4  -5   3   -0.18    0.12
   5  -5   3   -0.05    0.15
   5  -5   3    0.09    0.22
   5  -5   3    0.11    0.16
   5   4  -3    0.32    0.23
  -5  -4   3    1.45    0.33
   4   4  -3    0.32    0.13
   4   4  -3    0.56    0.18
  -4  -4   3    0.34    0.21
   3   4  -3    4.31    0.26
   3   4  -3    4.26    0.21
  -3  -4   3    4.49    0.30
   2   4  -3    1.41    0.11
   2   4  -3    1.48    0.17
  -2  -4   3    1.68    0.19
   1   4  -3   22.59    0.55
  -1  -4   3   22.33    0.64
   0   4  -3   10.89    0.29
   0  -4   3   10.33    0.36
   0  -4   3   10.25    0.26
   1  -4   3   40.68    0.85
   1  -4   3   40.45    1.03
   1  -4   3   39.48    0.80
   2  -4   3   12.49    0.37
   2  -4   3   13.19    0.46
   2  -4   3   12.44    0.35
   2  -4   3   12.89    0.35
   3  -4   3    6.67    0.26
   3  -4   3    6.63    0.28
   3  -4   3    7.01    0.30
   3  -4   3    6.56    0.27
   3  -4   3    6.27    0.35
   4  -4   3    1.30    0.18
   4  -4   3    1.35    0.18
   4  -4   3    1.88    0.27
   4  -4   3    1.50    0.20
   5  -4   3    0.64    0.19
   5  -4   3    0.46    0.23
   5  -4   3    0.41    0.18
   5  -4   3    0.22    0.17
   6   3  -3   -0.27    0.23
   6   3  -3   -0.04    0.18
  -6  -3   3    0.77    0.31
   5   3  -3   -0.17    0.19
   5   3  -3   -0.07    0.15
  -5  -3   3    0.21    0.24
   4   3  -3    0.27    0.13
   4   3  -3    0.04    0.14
   4   3  -3    0.07    0.09
  -4  -3   3    0.39    0.19
   3   3  -3    7.16    0.27
   3   3  -3    7.03    0.31
  -3  -3   3    7.69    0.35
   2   3  -3   11.06    0.29
   2   3  -3   11.09    0.35
  -2  -3   3   11.55    0.39
   1   3  -3    5.93    0.22
   1   3  -3    5.64    0.16
  -1  -3   3    6.18    0.24
   0   3  -3    0.08    0.06
   0  -3   3    0.15    0.07
   0  -3   3    0.26    0.04
   1  -3   3    5.68    0.17
   1  -3   3    5.57    0.19
   1  -3   3    4.88    0.22
   2  -3   3   18.07    0.57
   2  -3   3   18.38    0.46
   2  -3   3   19.07    0.51
   2  -3   3   18.53    0.47
   2  -3   3   18.45    0.45
   3  -3   3    6.04    0.26
   3  -3   3    6.71    0.28
   3  -3   3    6.48    0.25
   3  -3   3    6.74    0.28
   4  -3   3    3.29    0.26
   4  -3   3    3.37    0.27
   4  -3   3    3.43    0.26
   5  -3   3    0.32    0.18
   5  -3   3   -0.07    0.16
   5  -3   3    0.07    0.17
   6  -3   3    0.24    0.22
   6  -3   3    0.16    0.21
   6  -3   3    0.22    0.21
   6   2  -3    0.07    0.24
   6   2  -3    0.22    0.20
   5   2  -3    0.36    0.19
   5   2  -3    0.22    0.13
   5   2  -3    0.31    0.16
  -5  -2   3    0.59    0.24
   4   2  -3    2.65    0.19
   4   2  -3    2.54    0.24
   4   2  -3    2.27    0.21
  -4  -2   3    2.68    0.30
   3   2  -3    1.10    0.12
   3   2  -3    1.22    0.15
   3   2  -3    0.91    0.13
  -3  -2   3    1.66    0.21
  -3  -2   3    1.07    0.11
   2   2  -3    5.80    0.20
   2   2  -3    5.73    0.17
   2   2  -3    5.91    0.23
  -2  -2   3    6.02    0.25
  -2  -2   3    5.81    0.21
   1   2  -3    2.16    0.11
   1   2  -3    2.08    0.13
  -1  -2   3    2.29    0.14
  -1  -2   3    2.20    0.13
   0   2  -3   47.87    0.91
   0   2  -3   47.16    0.98
   0  -2   3   46.45    1.08
   0  -2   3   46.51    1.09
   1  -2   3   25.56    0.64
   1  -2   3   24.15    0.62
   2  -2   3   60.55    1.38
   2  -2   3   61.47    1.23
   2  -2   3   60.20    1.28
   3  -2   3    3.86    0.20
   3  -2   3    3.96    0.23
   3  -2   3    3.97    0.23
   3  -2   3    4.15    0.23
   4  -2   3    6.51    0.33
   4  -2   3    6.60    0.34
   4  -2   3    6.60    0.34
   5  -2   3    2.33    0.28
   5  -2   3    1.87    0.25
   5  -2   3    2.05    0.25
   6  -2   3    0.00    0.23
   6  -2   3    0.22    0.21
   6  -2   3    0.53    0.24
   6   1  -3    0.06    0.16
   6   1  -3    0.04    0.20
   6   1  -3   -0.06    0.17
   5   1  -3    0.48    0.17
   5   1  -3    0.27    0.13
   5   1  -3    0.29    0.17
   4   1  -3    0.06    0.09
   4   1  -3    0.07    0.11
   4   1  -3    0.06    0.10
  -4  -1   3    0.14    0.15
   3   1  -3    0.47    0.10
   3   1  -3    0.53    0.11
   3   1  -3    0.37    0.08
  -3  -1   3    0.77    0.15
   2   1  -3   14.39    0.38
   2   1  -3   13.63    0.35
   2   1  -3   13.59    0.34
  -2  -1   3   14.02    0.38
  -2  -1   3   14.52    0.42
   1   1  -3   36.28    0.73
   1   1  -3   35.28    0.70
   1   1  -3   34.91    0.77
  -1  -1   3   37.26    0.84
  -1  -1   3   35.16    0.83
   0   1  -3   22.87    0.48
   0   1  -3   22.36    0.47
   0  -1   3   22.80    0.57
   1  -1   3    2.36    0.15
   1  -1   3    2.40    0.14
   2  -1   3    4.85    0.22
   2  -1   3    4.47    0.20
   2  -1   3    4.36    0.19
   3  -1   3   11.45    0.38
   3  -1   3   11.78    0.40
   3  -1   3   10.80    0.35
   4  -1   3    4.52    0.29
   4  -1   3    4.15    0.30
   5  -1   3    3.28    0.34
   5  -1   3    4.23    0.37
   5  -1   3    3.85    0.37
   6  -1   3   -0.02    0.21
   6  -1   3    0.19    0.21
   6  -1   3    0.25    0.25
   6   0  -3    1.60    0.25
   6   0  -3    1.33    0.21
   6   0  -3    1.32    0.25
   5   0  -3    0.18    0.15
   5   0  -3    0.25    0.15
   5   0  -3    0.08    0.12
   4   0  -3    0.86    0.14
   4   0  -3    0.69    0.12
   4   0  -3    0.94    0.15
   3   0  -3   11.90    0.36
   3   0  -3   11.85    0.35
   3   0  -3   12.20    0.37
   2   0  -3   10.41    0.31
   2   0  -3   10.23    0.28
   2   0  -3   10.19    0.29
  -2   0   3   10.21    0.29
   1   0  -3    3.10    0.14
   1   0  -3    3.23    0.14
   1   0  -3    3.11    0.13
  -1   0   3    3.13    0.15
   0   0  -3    1.67    0.11
   0   0  -3    1.65    0.10
   0   0   3    1.72    0.13
  -1   0  -3   24.90    0.56
  -1   0  -3   23.87    0.62
   1   0   3   25.37    0.63
   1   0   3   24.37    0.57
  -2   0  -3   13.45    0.44
   2   0   3   13.95    0.41
   2   0   3   13.35    0.40
  -3   0  -3   31.96    0.90
   3   0   3   32.75    0.77
   3   0   3   31.98    0.81
   3   0   3   33.23    0.82
   4   0   3    0.42    0.15
   4   0   3    0.59    0.17
   5   0   3    3.67    0.37
   5   0   3    2.51    0.29
   6   0   3    1.62    0.31
   6   0   3    0.76    0.27
   6   0   3    1.16    0.32
   6  -1  -3    2.01    0.26
   6  -1  -3    1.78    0.26
   6  -1  -3    1.92    0.27
   5  -1  -3   -0.10    0.12
   5  -1  -3    0.09    0.13
   5  -1  -3    0.11    0.12
   4  -1  -3    2.15    0.20
   4  -1  -3    2.28    0.20
   4  -1  -3    2.40    0.20
   3  -1  -3    0.30    0.09
   3  -1  -3    0.41    0.09
   3  -1  -3    0.40    0.10
  -3   1   3    0.28    0.06
   2  -1  -3    0.86    0.10
   2  -1  -3    0.82    0.11
   2  -1  -3    0.97    0.10
  -2   1   3    0.71    0.09
   1  -1  -3    6.56    0.21
   1  -1  -3    6.61    0.22
   1  -1  -3    6.48    0.21
   1  -1  -3    6.38    0.20
  -1   1   3    6.30    0.24
   0  -1  -3   22.21    0.50
   0  -1  -3   22.53    0.50
   0  -1  -3   21.87    0.55
   0   1   3   22.79    0.58
  -1  -1  -3   16.14    0.46
  -1  -1  -3   15.91    0.41
   1   1   3   16.80    0.47
   1   1   3   15.82    0.42
  -2  -1  -3    2.97    0.20
  -2  -1  -3    3.11    0.22
   2   1   3    3.31    0.20
   2   1   3    3.50    0.21
  -3  -1  -3    1.47    0.21
   3   1   3    1.37    0.18
   3   1   3    1.25    0.16
   3   1   3    1.06    0.14
  -4  -1  -3    2.46    0.32
   4   1   3    2.67    0.30
   4   1   3    2.90    0.27
  -5  -1  -3    2.17    0.32
   5   1   3    1.44    0.25
   5   1   3    1.97    0.31
   6  -2  -3    0.35    0.20
   6  -2  -3    0.55    0.19
   6  -2  -3    0.63    0.20
   5  -2  -3    2.53    0.26
   5  -2  -3    1.95    0.22
   5  -2  -3    2.00    0.24
   4  -2  -3    0.90    0.14
   4  -2  -3    1.02    0.16
   4  -2  -3    1.07    0.16
   3  -2  -3    1.43    0.15
   3  -2  -3    1.56    0.16
   3  -2  -3    1.37    0.17
   3  -2  -3    1.28    0.13
  -3   2   3    1.12    0.13
   2  -2  -3   28.95    0.78
   2  -2  -3   28.94    0.67
   2  -2  -3   29.55    0.66
   2  -2  -3   28.33    0.64
  -2   2   3   29.42    0.73
   1  -2  -3   16.17    0.42
   1  -2  -3   16.15    0.46
   1  -2  -3   16.03    0.40
  -1   2   3   16.55    0.47
   0  -2  -3    0.09    0.07
   0  -2  -3    0.04    0.07
   0  -2  -3    0.08    0.07
   0   2   3    0.06    0.07
  -1  -2  -3    0.90    0.12
  -1  -2  -3    0.96    0.13
   1   2   3    0.77    0.12
   1   2   3    0.82    0.11
  -2  -2  -3    4.18    0.23
  -2  -2  -3    4.72    0.27
   2   2   3    4.64    0.25
   2   2   3    4.04    0.26
  -3  -2  -3    3.04    0.29
   3   2   3    2.59    0.23
   3   2   3    3.02    0.26
   3   2   3    2.85    0.23
  -4  -2  -3   12.30    0.56
   4   2   3   12.14    0.48
   4   2   3   13.31    0.53
  -5  -2  -3    0.59    0.26
   5   2   3   -0.03    0.22
   5   2   3    0.18    0.21
   6  -3  -3    1.15    0.28
   6  -3  -3    1.60    0.26
   6  -3  -3    1.41    0.25
   5  -3  -3    2.28    0.29
   5  -3  -3    2.17    0.26
   5  -3  -3    2.35    0.26
   4  -3  -3    1.26    0.18
   4  -3  -3    1.38    0.21
   4  -3  -3    1.16    0.14
   4  -3  -3    1.40    0.19
   3  -3  -3    5.69    0.22
   3  -3  -3    5.52    0.30
   3  -3  -3    6.14    0.27
   3  -3  -3    5.67    0.26
  -3   3   3    5.80    0.26
   2  -3  -3    1.58    0.15
   2  -3  -3    1.29    0.17
   2  -3  -3    1.15    0.13
   2  -3  -3    1.26    0.10
  -2   3   3    1.35    0.16
   1  -3  -3    0.06    0.09
   1  -3  -3    0.11    0.08
   1  -3  -3    0.03    0.07
  -1   3   3    0.01    0.08
   0  -3  -3    0.08    0.08
   0  -3  -3    0.06    0.08
   0  -3  -3   -0.11    0.08
   0   3   3    0.03    0.08
   0   3   3    0.03    0.06
  -1  -3  -3    4.16    0.26
  -1  -3  -3    3.81    0.22
   1   3   3    3.03    0.25
   1   3   3    3.94    0.21
  -2  -3  -3    5.01    0.32
  -2  -3  -3    4.88    0.26
   2   3   3    5.03    0.30
   2   3   3    4.69    0.27
  -3  -3  -3    0.70    0.20
  -3  -3  -3    0.84    0.17
   3   3   3    0.87    0.19
   3   3   3    0.88    0.16
   3   3   3    0.53    0.15
  -4  -3  -3    0.25    0.21
   4   3   3    0.19    0.17
   4   3   3    0.19    0.19
  -5  -3  -3    0.51    0.27
   5   3   3    0.27    0.26
   5   3   3    0.02    0.21
   6  -4  -3    7.30    0.44
   6  -4  -3    7.58    0.47
   6  -4  -3    7.02    0.52
   5  -4  -3    0.18    0.16
   5  -4  -3    0.21    0.16
   5  -4  -3    0.04    0.17
   4  -4  -3    1.92    0.23
   4  -4  -3    1.73    0.22
   4  -4  -3    2.04    0.27
   3  -4  -3    0.52    0.16
   3  -4  -3    0.37    0.12
   3  -4  -3    0.51    0.13
  -3   4   3    0.41    0.12
   2  -4  -3    0.83    0.13
   2  -4  -3    0.56    0.12
   2  -4  -3    0.67    0.15
  -2   4   3    0.61    0.13
   1  -4  -3   21.48    0.64
   1  -4  -3   21.17    0.53
   1  -4  -3   20.74    0.55
  -1   4   3   21.64    0.65
   0  -4  -3    7.13    0.26
   0  -4  -3    7.11    0.29
   0  -4  -3    7.01    0.31
   0   4   3    7.08    0.34
   0   4   3    6.98    0.24
  -1  -4  -3    0.00    0.14
  -1  -4  -3    0.01    0.11
   1   4   3    0.13    0.11
   1   4   3    0.06    0.11
  -2  -4  -3    0.43    0.19
  -2  -4  -3    0.36    0.15
   2   4   3    0.53    0.16
   2   4   3    0.31    0.15
  -3  -4  -3    0.74    0.22
  -3  -4  -3    0.51    0.19
   3   4   3    0.54    0.18
   3   4   3    0.71    0.16
   3   4   3    0.67    0.20
  -4  -4  -3    0.27    0.24
   4   4   3    0.20    0.19
   4   4   3    0.76    0.25
   5  -5  -3    0.29    0.17
   5  -5  -3    0.40    0.19
   5  -5  -3    0.09    0.20
   4  -5  -3    1.63    0.23
   4  -5  -3    1.58    0.27
   4  -5  -3    1.72    0.23
   3  -5  -3    1.55    0.19
   3  -5  -3    1.52    0.20
   3  -5  -3    1.82    0.25
  -3   5   3    1.22    0.18
   2  -5  -3    4.44    0.27
   2  -5  -3    4.26    0.31
   2  -5  -3    4.28    0.24
  -2   5   3    4.35    0.30
   1  -5  -3    2.19    0.21
   1  -5  -3    2.18    0.18
   1  -5  -3    2.34    0.23
  -1   5   3    2.10    0.24
   0  -5  -3    0.20    0.12
   0  -5  -3    0.03    0.10
   0  -5  -3    0.09    0.13
   0   5   3    0.08    0.12
  -1  -5  -3    0.44    0.16
  -1  -5  -3    0.27    0.18
   1   5   3    0.35    0.15
   1   5   3    0.50    0.13
  -2  -5  -3    0.23    0.22
  -2  -5  -3    0.58    0.19
   2   5   3    0.35    0.17
   2   5   3    0.11    0.18
  -3  -5  -3    0.96    0.26
  -3  -5  -3    0.99    0.24
   3   5   3    0.36    0.17
   3   5   3    0.83    0.23
   3   5   3    0.45    0.21
  -4  -5  -3   -0.12    0.24
   4   5   3    0.16    0.24
   5  -6  -3    6.54    0.49
   5  -6  -3    6.60    0.45
   5  -6  -3    6.84    0.41
   4  -6  -3    0.26    0.18
   4  -6  -3    0.08    0.19
   4  -6  -3   -0.09    0.15
   3  -6  -3    0.81    0.22
   3  -6  -3    0.47    0.15
   3  -6  -3    0.72    0.19
  -3   6   3    0.49    0.16
   2  -6  -3    0.11    0.17
   2  -6  -3   -0.01    0.11
   2  -6  -3    0.12    0.14
  -2   6   3    0.04    0.14
   1  -6  -3    0.21    0.15
   1  -6  -3    0.13    0.16
   1  -6  -3    0.22    0.12
  -1   6   3    0.22    0.16
   0  -6  -3    8.11    0.39
   0  -6  -3    7.93    0.41
   0  -6  -3    7.65    0.31
   0   6   3    7.11    0.42
  -1  -6  -3    2.43    0.27
  -1  -6  -3    1.99    0.30
   1   6   3    2.06    0.28
  -2  -6  -3   -0.26    0.21
  -2  -6  -3   -0.21    0.19
   2   6   3   -0.17    0.17
  -3  -6  -3    0.15    0.22
  -3  -6  -3   -0.05    0.24
   3   6   3   -0.04    0.20
   4  -7  -3    0.19    0.24
   4  -7  -3    0.39    0.21
   3  -7  -3    0.91    0.23
   3  -7  -3    0.76    0.26
  -3   7   3    0.42    0.20
   2  -7  -3    0.85    0.22
   2  -7  -3    0.77    0.20
  -2   7   3    0.46    0.19
   1  -7  -3    1.67    0.25
   1  -7  -3    1.70    0.26
  -1   7   3    1.52    0.25
   0  -7  -3    3.04    0.34
   0  -7  -3    2.25    0.27
   0   7   3    2.12    0.29
  -1  -7  -3   -0.34    0.20
  -1  -7  -3   -0.15    0.24
   1   7   3   -0.21    0.18
  -2  -7  -3   -0.03    0.23
  -2  -7  -3    0.11    0.27
   2   7   3    0.08    0.21
  -3  -7  -3   -0.01    0.26
  -3  -7  -3    0.49    0.27
   3   7   3   -0.41    0.21
   3  -8  -3    0.29    0.25
   3  -8  -3    0.36    0.22
  -3   8   3   -0.25    0.17
   2  -8  -3    0.45    0.22
   2  -8  -3    0.32    0.21
  -2   8   3   -0.14    0.17
   1  -8  -3   -0.02    0.20
   1  -8  -3    0.32    0.20
  -1   8   3   -0.22    0.17
   0  -8  -3    0.19    0.23
   0  -8  -3    0.47    0.25
   0   8   3    0.22    0.20
  -1  -8  -3    1.28    0.35
  -1  -8  -3    2.15    0.33
   1   8   3    1.83    0.31
  -2  -8  -3   -0.01    0.30
  -2  -8  -3    0.67    0.29
   2   8   3    0.32    0.25
   1  -9  -3    0.48    0.23
   1  -9  -3    0.20    0.25
  -1   9   3    0.17    0.23
   0  -9  -3    0.65    0.29
  -1 -10   4   -0.24    0.31
   0 -10   4    0.88    0.28
   1 -10   4    2.07    0.33
   2 -10   4    2.55    0.38
  -3  -9   4   -0.27    0.34
  -2  -9   4    0.26    0.34
  -1  -9   4    0.61    0.29
   0  -9   4    0.56    0.24
   1  -9   4    0.58    0.24
   2  -9   4    3.81    0.44
   3  -9   4    0.49    0.27
  -4  -8   4    0.08    0.33
  -3  -8   4    1.29    0.36
  -2  -8   4    0.18    0.27
  -1  -8   4    0.27    0.23
   0  -8   4    1.25    0.25
   1  -8   4    2.32    0.30
   2  -8   4    3.18    0.36
   2  -8   4    3.55    0.29
   3  -8   4    3.23    0.39
   3  -8   4    3.04    0.33
   4  -8   4    1.01    0.32
   4  -8   4    0.53    0.22
   4   7  -4    0.29    0.20
  -4  -7   4    0.09    0.27
   3   7  -4   -0.04    0.16
  -3  -7   4   -0.23    0.23
   2   7  -4    0.32    0.15
  -2  -7   4    0.16    0.23
   1   7  -4    6.86    0.32
  -1  -7   4    6.78    0.41
   0  -7   4    2.47    0.27
   1  -7   4    0.35    0.17
   1  -7   4    0.16    0.11
   2  -7   4    0.08    0.16
   2  -7   4    0.05    0.12
   3  -7   4    5.80    0.35
   3  -7   4    5.77    0.44
   4  -7   4    0.19    0.24
   4  -7   4    0.09    0.18
   5   6  -4    0.63    0.26
  -5  -6   4    1.04    0.33
   4   6  -4    0.11    0.19
  -4  -6   4    0.32    0.25
   3   6  -4    1.44    0.21
  -3  -6   4    1.16    0.26
   2   6  -4    4.44    0.28
  -2  -6   4    4.36    0.36
   1   6  -4    0.21    0.10
  -1  -6   4    0.17    0.14
   0   6  -4    0.93    0.11
   0  -6   4    0.87    0.10
   0  -6   4    1.42    0.19
   1  -6   4    1.72    0.15
   1  -6   4    2.07    0.23
   2  -6   4    3.66    0.23
   2  -6   4    4.27    0.30
   3  -6   4    4.49    0.37
   3  -6   4    3.64    0.28
   3  -6   4    3.86    0.23
   4  -6   4    2.47    0.34
   4  -6   4    1.48    0.20
   4  -6   4    2.06    0.25
   5  -6   4    0.45    0.18
   5  -6   4    0.53    0.21
   5  -6   4    0.66    0.29
   5   5  -4    0.45    0.24
  -5  -5   4    1.89    0.37
   4   5  -4    0.09    0.17
  -4  -5   4    0.39    0.23
   3   5  -4    1.29    0.18
  -3  -5   4    1.02    0.21
   2   5  -4    1.44    0.17
  -2  -5   4    1.53    0.21
   1   5  -4    2.30    0.17
  -1  -5   4    2.22    0.22
   0   5  -4   22.04    0.53
   0  -5   4   21.60    0.63
   0  -5   4   20.77    0.47
   1  -5   4    4.50    0.19
   1  -5   4    4.23    0.16
   1  -5   4    4.39    0.25
   2  -5   4    1.93    0.14
   2  -5   4    1.70    0.16
   2  -5   4    1.83    0.21
   2  -5   4    2.00    0.15
   3  -5   4    0.17    0.09
   3  -5   4   -0.03    0.10
   3  -5   4    0.10    0.14
   3  -5   4    0.19    0.09
   3  -5   4   -0.07    0.09
   4  -5   4    5.92    0.35
   4  -5   4    5.79    0.43
   4  -5   4    5.34    0.32
   5  -5   4    0.13    0.17
   5  -5   4    0.05    0.17
   5  -5   4    0.32    0.24
   5   4  -4   -0.12    0.20
  -5  -4   4    0.20    0.25
   4   4  -4    5.16    0.33
   4   4  -4    4.59    0.26
  -4  -4   4    4.46    0.38
   3   4  -4    0.09    0.08
   3   4  -4    0.03    0.11
  -3  -4   4    0.16    0.13
   2   4  -4    8.46    0.32
   2   4  -4    7.82    0.24
  -2  -4   4    8.10    0.35
   1   4  -4    7.18    0.26
   1   4  -4    7.06    0.19
  -1  -4   4    7.63    0.30
   0   4  -4    0.02    0.07
   0  -4   4    0.22    0.05
   0  -4   4    0.03    0.09
   1  -4   4    4.97    0.19
   1  -4   4    4.50    0.17
   1  -4   4    4.35    0.23
   2  -4   4    1.46    0.19
   2  -4   4    1.57    0.14
   2  -4   4    2.07    0.15
   2  -4   4    1.65    0.16
   2  -4   4    2.03    0.14
   3  -4   4    3.33    0.21
   3  -4   4    3.09    0.20
   3  -4   4    2.89    0.22
   3  -4   4    2.99    0.27
   3  -4   4    3.42    0.21
   4  -4   4    2.54    0.27
   4  -4   4    2.13    0.22
   4  -4   4    1.84    0.21
   4  -4   4    2.33    0.29
   5  -4   4    0.59    0.20
   5  -4   4    0.90    0.26
   5  -4   4    0.71    0.20
   5  -4   4    0.68    0.21
   6   3  -4    0.20    0.19
   6   3  -4    0.49    0.27
  -6  -3   4    1.12    0.30
   5   3  -4   -0.03    0.19
   5   3  -4    0.05    0.15
  -5  -3   4    0.31    0.23
   4   3  -4    3.38    0.28
   4   3  -4    3.77    0.24
  -4  -3   4    4.29    0.34
   3   3  -4    0.15    0.11
   3   3  -4    0.24    0.09
   3   3  -4    0.26    0.07
  -3  -3   4    0.49    0.14
  -3  -3   4    0.14    0.07
   2   3  -4    4.81    0.23
   2   3  -4    5.07    0.19
  -2  -3   4    4.94    0.23
  -2  -3   4    5.12    0.25
   1   3  -4    8.77    0.29
   1   3  -4    9.17    0.24
  -1  -3   4    9.18    0.30
  -1  -3   4    9.14    0.32
   0   3  -4   10.94    0.31
   0  -3   4   10.02    0.32
   0  -3   4   10.97    0.35
   1  -3   4   30.57    0.65
   1  -3   4   29.36    0.77
   1  -3   4   30.23    0.77
   2  -3   4    3.69    0.19
   2  -3   4    3.76    0.19
   2  -3   4    3.49    0.18
   2  -3   4    3.69    0.19
   2  -3   4    3.69    0.22
   3  -3   4    2.39    0.20
   3  -3   4    2.84    0.19
   3  -3   4    2.52    0.20
   3  -3   4    2.62    0.21
   4  -3   4    0.20    0.14
   4  -3   4    0.25    0.14
   4  -3   4    0.20    0.14
   5  -3   4    3.28    0.34
   5  -3   4    3.73    0.35
   5  -3   4    3.10    0.35
   6   2  -4    0.49    0.20
   6   2  -4    0.59    0.25
   5   2  -4    1.01    0.19
   5   2  -4    1.29    0.24
  -5  -2   4    1.66    0.28
   4   2  -4    0.05    0.08
   4   2  -4   -0.09    0.12
   4   2  -4    0.14    0.11
  -4  -2   4    0.06    0.16
   3   2  -4   12.42    0.35
   3   2  -4   13.01    0.42
   3   2  -4   13.45    0.38
  -3  -2   4   14.00    0.46
   2   2  -4    0.06    0.08
   2   2  -4   -0.02    0.04
   2   2  -4    0.07    0.07
  -2  -2   4   -0.07    0.07
  -2  -2   4    0.00    0.06
   1   2  -4   41.03    0.91
   1   2  -4   41.02    0.84
  -1  -2   4   42.60    0.99
  -1  -2   4   41.36    0.98
   0   2  -4    5.38    0.18
   0  -2   4    5.57    0.23
   1  -2   4    0.14    0.08
   1  -2   4    0.24    0.07
   2  -2   4    6.71    0.27
   2  -2   4    6.57    0.25
   2  -2   4    6.70    0.26
   3  -2   4    0.16    0.11
   3  -2   4    0.07    0.07
   3  -2   4    0.00    0.09
   4  -2   4    0.48    0.17
   4  -2   4    0.21    0.14
   4  -2   4    0.33    0.15
   5  -2   4    0.38    0.20
   5  -2   4    0.61    0.22
   5  -2   4    0.62    0.21
   6   1  -4    0.24    0.19
   6   1  -4   -0.04    0.20
   5   1  -4    0.55    0.17
   5   1  -4    0.44    0.18
   5   1  -4    0.36    0.13
   4   1  -4    0.37    0.12
   4   1  -4    0.39    0.13
   4   1  -4    0.37    0.10
   3   1  -4   13.34    0.39
   3   1  -4   13.70    0.42
   3   1  -4   12.83    0.36
   2   1  -4    7.54    0.25
   2   1  -4    7.31    0.26
   2   1  -4    7.07    0.21
  -2  -1   4    7.49    0.26
  -2  -1   4    7.15    0.26
   1   1  -4   10.14    0.25
   1   1  -4   11.32    0.29
   1   1  -4   10.74    0.31
  -1  -1   4   11.24    0.34
   0   1  -4   18.34    0.42
   0   1  -4   18.00    0.40
   0  -1   4   18.60    0.51
   1  -1   4   18.04    0.51
   2  -1   4    9.29    0.32
   2  -1   4    8.73    0.32
   3  -1   4    0.87    0.14
   3  -1   4    0.82    0.12
   3  -1   4    0.86    0.16
   4  -1   4    0.99    0.20
   4  -1   4    1.07    0.19
   5  -1   4    0.32    0.20
   5  -1   4   -0.03    0.21
   6   0  -4    0.52    0.19
   6   0  -4    0.03    0.18
   6   0  -4    0.15    0.16
   5   0  -4    1.61    0.21
   5   0  -4    1.11    0.20
   5   0  -4    1.31    0.18
   4   0  -4    6.47    0.30
   4   0  -4    6.56    0.30
   4   0  -4    6.24    0.28
   3   0  -4    0.72    0.10
   3   0  -4    0.83    0.12
  -3   0   4    0.48    0.07
   2   0  -4   19.06    0.49
   2   0  -4   20.37    0.47
   2   0  -4   20.62    0.51
  -2   0   4   20.60    0.54
   1   0  -4    0.11    0.07
   1   0  -4    0.09    0.06
   1   0  -4    0.08    0.07
  -1   0   4    0.09    0.07
   0   0  -4   67.16    1.33
   0   0  -4   66.14    1.33
   0   0   4   68.51    1.54
  -1   0  -4    0.24    0.09
  -1   0  -4    0.30    0.08
   1   0   4    0.39    0.09
   1   0   4    0.30    0.09
  -2   0  -4   -0.15    0.10
   2   0   4    0.19    0.09
   2   0   4   -0.04    0.09
  -3   0  -4    3.15    0.26
   3   0   4    2.80    0.22
   3   0   4    2.76    0.23
   3   0   4    2.94    0.21
   4   0   4    0.01    0.14
   4   0   4    0.03    0.15
   5   0   4    0.05    0.18
   5   0   4   -0.04    0.22
   6  -1  -4    0.31    0.19
   6  -1  -4    0.17    0.18
   6  -1  -4    0.36    0.19
   5  -1  -4    0.06    0.13
   5  -1  -4    0.04    0.12
   5  -1  -4    0.06    0.15
   4  -1  -4    0.12    0.10
   4  -1  -4    0.25    0.10
   4  -1  -4   -0.01    0.09
   3  -1  -4    0.37    0.09
   3  -1  -4    0.41    0.10
   3  -1  -4    0.43    0.10
  -3   1   4    0.26    0.07
   2  -1  -4   26.16    0.69
   2  -1  -4   26.14    0.61
   2  -1  -4   26.00    0.61
   2  -1  -4   26.03    0.61
  -2   1   4   26.09    0.67
   1  -1  -4   18.61    0.49
   1  -1  -4   18.70    0.45
   1  -1  -4   19.67    0.47
   1  -1  -4   18.71    0.46
  -1   1   4   19.29    0.53
   0  -1  -4    4.37    0.18
   0  -1  -4    4.50    0.20
   0  -1  -4    4.54    0.19
   0   1   4    4.59    0.22
  -1  -1  -4    7.13    0.27
  -1  -1  -4    7.33    0.27
   1   1   4    6.88    0.27
   1   1   4    7.42    0.31
  -2  -1  -4    9.10    0.33
  -2  -1  -4    8.66    0.35
   2   1   4    8.86    0.36
   2   1   4    8.94    0.34
  -3  -1  -4    0.66    0.17
   3   1   4    0.78    0.14
   3   1   4    0.36    0.14
   3   1   4    0.68    0.17
  -4  -1  -4    0.38    0.20
   4   1   4   -0.04    0.15
   4   1   4    0.35    0.19
   5   1   4    0.16    0.25
   5   1   4    0.33    0.22
   6  -2  -4    0.56    0.19
   6  -2  -4    0.29    0.19
   5  -2  -4    0.44    0.16
   5  -2  -4    0.14    0.13
   5  -2  -4    0.30    0.13
   4  -2  -4    2.29    0.22
   4  -2  -4    2.08    0.21
   4  -2  -4    2.19    0.24
   4  -2  -4    2.35    0.19
   3  -2  -4   11.99    0.39
   3  -2  -4   12.55    0.45
   3  -2  -4   12.44    0.37
   3  -2  -4   12.70    0.39
  -3   2   4   12.44    0.41
   2  -2  -4    2.16    0.14
   2  -2  -4    2.41    0.18
   2  -2  -4    2.16    0.16
   2  -2  -4    2.17    0.16
  -2   2   4    2.41    0.17
   1  -2  -4    9.49    0.30
   1  -2  -4    9.70    0.32
   1  -2  -4    9.38    0.30
  -1   2   4    9.04    0.35
   0  -2  -4   -0.03    0.08
   0  -2  -4    0.18    0.09
   0  -2  -4    0.22    0.09
   0   2   4    0.18    0.09
  -1  -2  -4   32.31    0.77
  -1  -2  -4   33.77    0.87
   1   2   4   33.38    0.89
   1   2   4   32.60    0.78
  -2  -2  -4    0.07    0.12
  -2  -2  -4    0.06    0.11
   2   2   4   -0.17    0.10
   2   2   4    0.04    0.11
  -3  -2  -4    0.49    0.16
  -3  -2  -4    0.72    0.19
   3   2   4    0.73    0.16
   3   2   4    0.59    0.17
   3   2   4    0.75    0.16
  -4  -2  -4    0.79    0.24
   4   2   4    0.14    0.18
   4   2   4    0.60    0.22
  -5  -2  -4    0.92    0.28
   5   2   4    0.30    0.26
   5   2   4    0.46    0.23
   6  -3  -4    2.07    0.32
   6  -3  -4    2.48    0.29
   6  -3  -4    2.42    0.30
   5  -3  -4    0.59    0.18
   5  -3  -4    0.73    0.21
   5  -3  -4    0.70    0.18
   4  -3  -4    0.01    0.13
   4  -3  -4    0.12    0.11
   4  -3  -4    0.11    0.12
   3  -3  -4    0.13    0.07
   3  -3  -4    0.04    0.10
   3  -3  -4    0.07    0.11
   3  -3  -4    0.01    0.09
  -3   3   4    0.05    0.09
   2  -3  -4    0.02    0.08
   2  -3  -4    0.08    0.10
   2  -3  -4    0.04    0.06
   2  -3  -4   -0.14    0.08
  -2   3   4    0.08    0.09
   1  -3  -4   13.67    0.40
   1  -3  -4   13.44    0.44
   1  -3  -4   13.78    0.41
  -1   3   4   14.24    0.48
   0  -3  -4   10.06    0.33
   0  -3  -4   10.02    0.36
   0  -3  -4    9.69    0.34
   0   3   4    9.90    0.40
   0   3   4   10.72    0.32
  -1  -3  -4    0.23    0.11
  -1  -3  -4    0.21    0.13
   1   3   4    0.05    0.11
   1   3   4    0.36    0.13
  -2  -3  -4    0.98    0.18
  -2  -3  -4    1.05    0.17
   2   3   4    1.10    0.18
   2   3   4    0.70    0.16
  -3  -3  -4    2.89    0.29
  -3  -3  -4    2.90    0.32
   3   3   4    2.70    0.30
   3   3   4    2.46    0.29
   3   3   4    2.72    0.26
  -4  -3  -4    0.14    0.22
   4   3   4   -0.02    0.19
   4   3   4   -0.01    0.21
  -5  -3  -4    0.43    0.28
   5   3   4    0.30    0.26
   5   3   4    0.07    0.22
   5  -4  -4    1.31    0.23
   5  -4  -4    1.48    0.27
   5  -4  -4    1.38    0.24
   4  -4  -4    0.01    0.13
   4  -4  -4    0.06    0.16
   4  -4  -4    0.07    0.13
   3  -4  -4    1.51    0.19
   3  -4  -4    1.32    0.18
   3  -4  -4    1.59    0.21
  -3   4   4    1.35    0.18
   2  -4  -4    7.54    0.35
   2  -4  -4    7.27    0.32
   2  -4  -4    7.53    0.30
  -2   4   4    7.63    0.36
   1  -4  -4    2.17    0.21
   1  -4  -4    2.32    0.21
   1  -4  -4    2.01    0.19
  -1   4   4    1.87    0.23
   0  -4  -4    1.89    0.18
   0  -4  -4    1.86    0.21
   0  -4  -4    1.80    0.19
   0   4   4    1.72    0.16
   0   4   4    1.43    0.20
  -1  -4  -4   -0.02    0.15
  -1  -4  -4    0.04    0.13
   1   4   4    0.07    0.11
   1   4   4    0.02    0.13
  -2  -4  -4    9.26    0.47
  -2  -4  -4    9.58    0.42
   2   4   4   10.00    0.41
   2   4   4    9.54    0.47
  -3  -4  -4   -0.15    0.19
  -3  -4  -4    0.07    0.19
   3   4   4   -0.24    0.16
   3   4   4   -0.01    0.18
  -4  -4  -4    0.73    0.27
   4   4   4    0.67    0.22
   4   4   4    0.45    0.24
   5  -5  -4    2.68    0.31
   5  -5  -4    2.95    0.38
   5  -5  -4    3.35    0.36
   4  -5  -4    0.45    0.19
   4  -5  -4    0.24    0.16
   4  -5  -4    0.26    0.17
   3  -5  -4    0.08    0.16
   3  -5  -4   -0.06    0.13
   3  -5  -4    0.10    0.14
  -3   5   4    0.11    0.14
   2  -5  -4   -0.06    0.13
   2  -5  -4    0.01    0.11
   2  -5  -4    0.25    0.14
  -2   5   4    0.01    0.13
   1  -5  -4    0.12    0.13
   1  -5  -4   -0.13    0.12
   1  -5  -4   -0.10    0.11
  -1   5   4   -0.07    0.14
   0  -5  -4    3.21    0.27
   0  -5  -4    3.42    0.27
   0  -5  -4    3.21    0.23
   0   5   4    2.71    0.29
  -1  -5  -4    2.63    0.30
  -1  -5  -4    2.28    0.25
   1   5   4    2.72    0.31
  -2  -5  -4   -0.32    0.19
  -2  -5  -4    0.02    0.19
   2   5   4   -0.13    0.17
   2   5   4   -0.04    0.18
  -3  -5  -4    0.03    0.22
  -3  -5  -4    0.34    0.22
   3   5   4   -0.01    0.19
   3   5   4   -0.02    0.17
   3   5   4    0.10    0.21
  -4  -5  -4    0.34    0.27
   4   5   4    0.76    0.28
   4  -6  -4    1.33    0.23
   4  -6  -4    1.52    0.29
   4  -6  -4    1.64    0.27
   3  -6  -4   -0.03    0.14
   3  -6  -4   -0.11    0.16
   3  -6  -4    0.11    0.19
  -3   6   4   -0.08    0.15
   2  -6  -4    0.21    0.14
   2  -6  -4    0.42    0.19
   2  -6  -4    0.42    0.17
  -2   6   4    0.11    0.16
   1  -6  -4    1.95    0.24
   1  -6  -4    1.65    0.19
   1  -6  -4    1.81    0.24
  -1   6   4    1.63    0.26
   0  -6  -4    1.16    0.22
   0  -6  -4    1.31    0.18
   0  -6  -4    1.02    0.22
   0   6   4    1.03    0.22
  -1  -6  -4    0.16    0.20
  -1  -6  -4   -0.03    0.22
   1   6   4    0.48    0.20
  -2  -6  -4    0.24    0.22
  -2  -6  -4   -0.37    0.22
   2   6   4    0.10    0.19
  -3  -6  -4    1.55    0.32
  -3  -6  -4    2.73    0.34
   3   6   4    1.54    0.32
   4  -7  -4    1.48    0.27
   4  -7  -4    1.90    0.29
   4  -7  -4    2.11    0.35
   3  -7  -4    0.13    0.19
   3  -7  -4    0.37    0.23
  -3   7   4    0.00    0.17
   2  -7  -4    0.39    0.20
   2  -7  -4    0.18    0.19
  -2   7   4   -0.15    0.18
   1  -7  -4   -0.09    0.17
   1  -7  -4    0.42    0.18
  -1   7   4   -0.09    0.18
   0  -7  -4    0.06    0.21
   0  -7  -4    0.35    0.22
   0   7   4   -0.06    0.19
  -1  -7  -4    0.28    0.25
  -1  -7  -4    0.08    0.26
   1   7   4    0.22    0.23
  -2  -7  -4    0.00    0.28
  -2  -7  -4    0.46    0.27
   2   7   4    0.38    0.23
   3  -8  -4    1.04    0.24
  -3   8   4    0.57    0.24
   2  -8  -4   -0.04    0.21
   2  -8  -4    0.47    0.22
  -2   8   4   -0.08    0.20
   1  -8  -4    0.51    0.22
   1  -8  -4    0.04    0.22
  -1   8   4   -0.20    0.19
   0  -8  -4    0.14    0.25
   0  -8  -4    0.05    0.23
   0   8   4    0.30    0.23
  -1  -8  -4    0.31    0.32
  -1  -8  -4    0.37    0.27
   1   8   4    0.08    0.23
  -1 -10   5    0.33    0.32
   0 -10   5    0.23    0.24
   1 -10   5    1.25    0.28
   2 -10   5    1.17    0.31
  -3  -9   5    0.06    0.34
  -2  -9   5   -0.05    0.32
  -1  -9   5    0.16    0.26
   0  -9   5    0.59    0.22
   1  -9   5    0.40    0.21
   2  -9   5    7.12    0.51
   3  -9   5    0.48    0.27
  -4  -8   5    1.54    0.37
  -3  -8   5    0.99    0.34
  -2  -8   5    0.10    0.26
  -1  -8   5    0.22    0.21
   0  -8   5    0.26    0.19
   1  -8   5    0.07    0.17
   2  -8   5    5.58    0.43
   3  -8   5    0.84    0.28
   4  -8   5    0.91    0.24
   4  -8   5    1.37    0.32
   4   7  -5    1.35    0.26
  -4  -7   5    1.54    0.33
   3   7  -5   -0.09    0.16
  -3  -7   5   -0.33    0.23
   2   7  -5    0.46    0.16
  -2  -7   5    0.35    0.23
   1   7  -5    1.56    0.18
  -1  -7   5    1.66    0.24
   0  -7   5    0.13    0.16
   1  -7   5    0.21    0.16
   2  -7   5   -0.31    0.11
   2  -7   5   -0.05    0.15
   3  -7   5    7.37    0.48
   3  -7   5    6.80    0.36
   4  -7   5    0.43    0.20
   4  -7   5    0.86    0.27
   5   6  -5    0.03    0.22
  -5  -6   5   -0.06    0.29
   4   6  -5    0.04    0.17
  -4  -6   5   -0.18    0.22
   3   6  -5    4.20    0.32
  -3  -6   5    4.44    0.39
   2   6  -5    4.52    0.28
  -2  -6   5    4.39    0.34
   1   6  -5    0.14    0.10
  -1  -6   5    0.31    0.15
   0   6  -5    0.97    0.14
   0  -6   5    1.30    0.18
   1  -6   5   -0.12    0.07
   1  -6   5    0.06    0.12
   2  -6   5    0.30    0.15
   2  -6   5    0.35    0.10
   2  -6   5    0.08    0.11
   3  -6   5   11.09    0.53
   3  -6   5   11.14    0.44
   3  -6   5   10.79    0.41
   3  -6   5   10.56    0.38
   4  -6   5    0.24    0.14
   4  -6   5    0.73    0.20
   4  -6   5    0.59    0.23
   5  -6   5    0.49    0.21
   5  -6   5    0.44    0.20
   5  -6   5    0.56    0.28
   5   5  -5    2.60    0.32
  -5  -5   5    3.44    0.41
   4   5  -5    0.50    0.18
  -4  -5   5    0.52    0.23
   3   5  -5    2.99    0.27
  -3  -5   5    3.09    0.30
   2   5  -5    0.47    0.13
  -2  -5   5    0.44    0.16
   1   5  -5    0.09    0.09
  -1  -5   5   -0.09    0.11
   0   5  -5    5.57    0.24
   0  -5   5    5.82    0.27
   1  -5   5    0.00    0.09
   1  -5   5    0.14    0.06
   1  -5   5    0.16    0.08
   2  -5   5   -0.03    0.10
   2  -5   5    0.12    0.09
   2  -5   5   -0.01    0.07
   2  -5   5    0.05    0.08
   2  -5   5    0.13    0.09
   3  -5   5    0.84    0.15
   3  -5   5    1.05    0.21
   3  -5   5    0.96    0.15
   3  -5   5    1.00    0.14
   3  -5   5    1.18    0.15
   4  -5   5    5.18    0.43
   4  -5   5    4.34    0.33
   4  -5   5    4.66    0.30
   4  -5   5    4.33    0.29
   5  -5   5    0.19    0.18
   5  -5   5    0.55    0.26
   5  -5   5    0.43    0.21
   5   4  -5    0.72    0.23
  -5  -4   5    1.18    0.29
   4   4  -5    0.13    0.12
   4   4  -5    0.06    0.15
  -4  -4   5    0.10    0.19
   3   4  -5   -0.01    0.09
   3   4  -5    0.07    0.11
  -3  -4   5    0.19    0.14
  -3  -4   5   -0.03    0.08
   2   4  -5   18.36    0.53
   2   4  -5   18.92    0.45
  -2  -4   5   18.80    0.57
  -2  -4   5   19.15    0.57
   1   4  -5    7.97    0.22
   1   4  -5    8.57    0.30
  -1  -4   5    8.46    0.33
  -1  -4   5    8.21    0.31
   0   4  -5    0.42    0.10
   0  -4   5    0.43    0.10
   0  -4   5    0.21    0.09
   1  -4   5    4.27    0.22
   1  -4   5    4.87    0.25
   1  -4   5    4.64    0.19
   2  -4   5    1.62    0.15
   2  -4   5    1.32    0.17
   2  -4   5    1.64    0.14
   2  -4   5    1.48    0.15
   2  -4   5    1.52    0.16
   3  -4   5    0.01    0.10
   3  -4   5    0.09    0.10
   3  -4   5    0.15    0.10
   3  -4   5    0.21    0.10
   3  -4   5    0.21    0.14
   4  -4   5   11.38    0.45
   4  -4   5   11.52    0.47
   4  -4   5   10.48    0.44
   4  -4   5   11.20    0.54
   5  -4   5    0.20    0.23
   5  -4   5    0.43    0.20
   5  -4   5    0.20    0.18
   5  -4   5    0.41    0.20
   6   3  -5    0.79    0.26
   6   3  -5    0.73    0.21
   5   3  -5    0.04    0.14
   5   3  -5    0.08    0.19
  -5  -3   5    0.51    0.23
   4   3  -5    8.07    0.33
   4   3  -5    7.95    0.38
  -4  -3   5    8.32    0.42
   3   3  -5    2.30    0.18
   3   3  -5    2.47    0.21
  -3  -3   5    2.20    0.22
  -3  -3   5    2.33    0.17
   2   3  -5    3.40    0.21
   2   3  -5    3.76    0.18
  -2  -3   5    3.62    0.21
  -2  -3   5    3.67    0.20
   1   3  -5    0.67    0.11
   1   3  -5    0.56    0.08
  -1  -3   5    0.70    0.10
  -1  -3   5    0.55    0.10
   0   3  -5    0.73    0.09
   0  -3   5    0.73    0.11
   0  -3   5    0.41    0.08
   1  -3   5    9.77    0.32
   1  -3   5    9.46    0.35
   2  -3   5    0.54    0.10
   2  -3   5    0.48    0.11
   2  -3   5    0.66    0.12
   2  -3   5    0.36    0.10
   3  -3   5   -0.12    0.10
   3  -3   5   -0.10    0.11
   3  -3   5   -0.09    0.09
   3  -3   5    0.15    0.11
   4  -3   5    2.83    0.28
   4  -3   5    2.81    0.29
   4  -3   5    2.65    0.28
   5  -3   5    2.05    0.27
   5  -3   5    1.58    0.25
   5  -3   5    1.67    0.25
   6   2  -5    0.66    0.21
   6   2  -5    0.40    0.23
   5   2  -5    0.06    0.14
   5   2  -5    0.26    0.17
   4   2  -5    0.44    0.14
   4   2  -5    0.51    0.14
  -4  -2   5    0.66    0.17
   3   2  -5    0.36    0.07
   3   2  -5    0.35    0.10
   3   2  -5    0.33    0.11
  -3  -2   5    0.25    0.08
  -3  -2   5    0.49    0.13
   2   2  -5    0.17    0.05
   2   2  -5    0.13    0.08
   2   2  -5    0.11    0.08
  -2  -2   5    0.09    0.07
  -2  -2   5    0.17    0.08
   1   2  -5   48.23    1.06
   1   2  -5   48.46    0.98
  -1  -2   5   47.90    1.15
   0   2  -5    7.03    0.23
   0  -2   5    7.28    0.29
   1  -2   5    1.15    0.13
   1  -2   5    1.26    0.12
   2  -2   5    5.50    0.26
   2  -2   5    5.61    0.26
   3  -2   5    2.62    0.24
   3  -2   5    2.36    0.21
   3  -2   5    2.04    0.19
   4  -2   5   -0.15    0.14
   4  -2   5   -0.04    0.14
   5  -2   5    6.22    0.44
   5  -2   5    6.20    0.43
   5  -2   5    6.00    0.42
   6   1  -5    0.83    0.23
   6   1  -5    1.03    0.23
   5   1  -5    1.74    0.22
   5   1  -5    2.01    0.24
   4   1  -5    0.14    0.10
   4   1  -5    0.16    0.12
   4   1  -5    0.13    0.11
   3   1  -5   15.53    0.44
   3   1  -5   16.06    0.47
   3   1  -5   15.04    0.40
  -3  -1   5   14.55    0.44
   2   1  -5    8.55    0.25
   2   1  -5    8.76    0.29
   2   1  -5    8.78    0.31
  -2  -1   5    9.32    0.32
   1   1  -5    0.43    0.09
   1   1  -5    0.42    0.06
   1   1  -5    0.53    0.10
  -1  -1   5    0.34    0.09
   0   1  -5    0.38    0.07
   0   1  -5    0.39    0.09
   0  -1   5    0.31    0.08
  -1   1  -5    2.26    0.16
   1  -1   5    2.29    0.18
   2  -1   5    5.11    0.26
   2  -1   5    5.48    0.27
   3  -1   5    1.49    0.19
   3  -1   5    1.28    0.17
   3  -1   5    1.10    0.15
   4  -1   5    0.29    0.18
   4  -1   5    0.37    0.17
   5  -1   5    2.69    0.33
   5  -1   5    2.47    0.29
   6   0  -5    0.22    0.18
   6   0  -5    0.09    0.18
   5   0  -5    0.43    0.16
   5   0  -5    0.44    0.16
   5   0  -5    0.37    0.14
   4   0  -5    0.06    0.09
   4   0  -5    0.18    0.12
   4   0  -5   -0.01    0.11
   3   0  -5    0.07    0.08
   3   0  -5    0.21    0.08
   3   0  -5    0.09    0.09
  -3   0   5    0.12    0.06
   2   0  -5    0.94    0.12
   2   0  -5    0.83    0.12
   2   0  -5    0.74    0.09
  -2   0   5    0.78    0.11
   1   0  -5    3.36    0.18
   1   0  -5    3.48    0.16
   1   0  -5    3.39    0.18
  -1   0   5    3.64    0.21
   0   0  -5   36.23    0.80
   0   0  -5   36.39    0.79
   0   0   5   37.36    0.93
  -1   0  -5    1.82    0.14
  -1   0  -5    2.05    0.18
   1   0   5    1.92    0.18
   1   0   5    1.86    0.17
  -2   0  -5    1.32    0.17
  -2   0  -5    1.41    0.16
   2   0   5    1.23    0.16
   2   0   5    1.34    0.16
  -3   0  -5    2.06    0.22
   3   0   5    1.70    0.19
   3   0   5    2.00    0.22
   3   0   5    2.26    0.23
   4   0   5    1.29    0.23
   4   0   5    1.02    0.21
   5   0   5    0.07    0.24
   5   0   5    0.01    0.21
   6  -1  -5    0.05    0.17
   6  -1  -5   -0.01    0.17
   6  -1  -5    0.05    0.16
   5  -1  -5    3.11    0.28
   5  -1  -5    2.27    0.25
   5  -1  -5    2.93    0.28
   4  -1  -5    2.85    0.23
   4  -1  -5    3.00    0.23
   4  -1  -5    2.89    0.22
   3  -1  -5    1.44    0.17
   3  -1  -5    1.45    0.16
   3  -1  -5    1.62    0.16
   3  -1  -5    1.40    0.15
  -3   1   5    1.30    0.15
   2  -1  -5   14.80    0.44
   2  -1  -5   15.21    0.42
   2  -1  -5   15.06    0.41
   2  -1  -5   15.32    0.42
  -2   1   5   14.80    0.46
   1  -1  -5   13.78    0.39
   1  -1  -5   13.31    0.37
  -1   1   5   14.09    0.45
   0  -1  -5    1.40    0.14
   0  -1  -5    1.36    0.13
   0  -1  -5    1.35    0.14
   0   1   5    1.68    0.17
  -1  -1  -5    0.09    0.08
  -1  -1  -5    0.01    0.10
   1   1   5   -0.13    0.09
   1   1   5    0.08    0.10
  -2  -1  -5    1.19    0.16
  -2  -1  -5    1.14    0.17
   2   1   5    1.24    0.17
   2   1   5    1.14    0.16
  -3  -1  -5    1.20    0.21
   3   1   5    1.27    0.21
   3   1   5    0.78    0.17
  -4  -1  -5    1.96    0.28
   4   1   5    1.51    0.27
   4   1   5    0.89    0.21
   5   1   5    0.09    0.26
   5   1   5   -0.06    0.22
   6  -2  -5    0.27    0.18
   6  -2  -5    0.14    0.17
   6  -2  -5    0.10    0.20
   5  -2  -5    0.90    0.20
   5  -2  -5    1.09    0.19
   5  -2  -5    0.39    0.15
   5  -2  -5    0.47    0.18
   4  -2  -5    0.15    0.10
   4  -2  -5   -0.07    0.11
   4  -2  -5    0.05    0.10
   4  -2  -5   -0.07    0.11
   3  -2  -5    0.39    0.10
   3  -2  -5    0.54    0.12
   3  -2  -5    0.40    0.13
   3  -2  -5    0.51    0.12
  -3   2   5    0.36    0.11
   2  -2  -5    1.03    0.12
   2  -2  -5    1.10    0.13
   2  -2  -5    1.28    0.15
   2  -2  -5    1.17    0.15
  -2   2   5    0.95    0.14
   1  -2  -5    0.81    0.12
   1  -2  -5    0.77    0.10
   1  -2  -5    0.82    0.12
  -1   2   5    0.81    0.14
   0  -2  -5    7.25    0.28
   0  -2  -5    7.26    0.29
   0  -2  -5    7.61    0.29
   0   2   5    7.57    0.35
  -1  -2  -5    9.00    0.34
  -1  -2  -5    8.48    0.34
   1   2   5    8.62    0.39
   1   2   5    8.66    0.33
  -2  -2  -5    0.47    0.15
  -2  -2  -5    0.66    0.16
   2   2   5    0.50    0.16
   2   2   5    0.46    0.15
  -3  -2  -5    0.52    0.18
  -3  -2  -5    0.53    0.19
   3   2   5    0.96    0.21
   3   2   5    0.24    0.17
  -4  -2  -5    0.32    0.22
   4   2   5    0.28    0.22
   4   2   5    0.03    0.18
   5  -3  -5    0.14    0.17
   5  -3  -5    0.11    0.15
   5  -3  -5    0.21    0.17
   4  -3  -5    3.73    0.28
   4  -3  -5    3.64    0.31
   4  -3  -5    4.00    0.29
   3  -3  -5    4.14    0.28
   3  -3  -5    4.12    0.26
   3  -3  -5    4.11    0.26
  -3   3   5    4.25    0.28
   2  -3  -5    4.23    0.24
   2  -3  -5    4.71    0.26
   2  -3  -5    4.61    0.26
  -2   3   5    5.00    0.29
   1  -3  -5    4.12    0.23
   1  -3  -5    4.61    0.25
   1  -3  -5    4.61    0.24
  -1   3   5    4.20    0.28
   0  -3  -5    7.55    0.30
   0  -3  -5    7.35    0.32
   0  -3  -5    7.13    0.31
   0   3   5    7.60    0.37
   0   3   5    7.42    0.29
  -1  -3  -5    1.60    0.21
  -1  -3  -5    1.90    0.20
   1   3   5    2.00    0.20
   1   3   5    1.75    0.23
  -2  -3  -5    0.07    0.15
  -2  -3  -5   -0.29    0.14
   2   3   5    0.14    0.15
   2   3   5   -0.25    0.15
  -3  -3  -5    0.18    0.19
  -3  -3  -5    0.18    0.17
   3   3   5   -0.03    0.18
   3   3   5   -0.12    0.18
  -4  -3  -5    0.12    0.23
   4   3   5    0.22    0.20
   4   3   5    0.05    0.23
   5  -4  -5    0.06    0.17
   5  -4  -5   -0.10    0.18
   5  -4  -5    0.08    0.17
   4  -4  -5    2.08    0.25
   4  -4  -5    2.08    0.25
   4  -4  -5    1.70    0.26
   3  -4  -5    1.54    0.20
   3  -4  -5    1.70    0.22
   3  -4  -5    1.19    0.18
  -3   4   5    1.07    0.19
   2  -4  -5    0.12    0.12
   2  -4  -5    0.15    0.13
   2  -4  -5    0.40    0.13
  -2   4   5    0.26    0.14
   1  -4  -5    0.43    0.14
   1  -4  -5    0.53    0.14
   1  -4  -5    0.54    0.13
  -1   4   5    0.41    0.15
   0  -4  -5    0.55    0.16
   0  -4  -5    0.42    0.14
   0  -4  -5    0.55    0.15
   0   4   5    0.54    0.13
   0   4   5    0.13    0.14
  -1  -4  -5    6.59    0.36
  -1  -4  -5    5.79    0.37
   1   4   5    6.53    0.32
   1   4   5    6.74    0.41
  -2  -4  -5    1.22    0.23
  -2  -4  -5    0.88    0.22
   2   4   5    1.19    0.22
   2   4   5    0.94    0.24
  -3  -4  -5    0.27    0.20
  -3  -4  -5    0.36    0.22
   3   4   5   -0.13    0.18
   3   4   5    0.37    0.21
  -4  -4  -5    0.23    0.26
   4   4   5    0.18    0.24
   4   4   5    0.03    0.21
   5  -5  -5    0.15    0.20
   5  -5  -5    0.13    0.19
   5  -5  -5    0.24    0.19
   4  -5  -5    0.08    0.18
   4  -5  -5    0.08    0.17
   4  -5  -5    0.18    0.19
   3  -5  -5    3.31    0.31
   3  -5  -5    2.89    0.31
   3  -5  -5    2.55    0.26
  -3   5   5    2.58    0.30
   2  -5  -5    3.07    0.28
   2  -5  -5    2.68    0.28
   2  -5  -5    2.47    0.25
  -2   5   5    3.01    0.31
   1  -5  -5    4.72    0.30
   1  -5  -5    4.87    0.28
   1  -5  -5    4.65    0.32
  -1   5   5    5.14    0.37
   0  -5  -5    0.87    0.17
   0  -5  -5    0.77    0.19
   0  -5  -5    0.70    0.20
   0   5   5    0.69    0.20
  -1  -5  -5    1.74    0.25
  -1  -5  -5    1.15    0.24
   1   5   5    1.65    0.27
  -2  -5  -5    0.60    0.24
  -2  -5  -5    0.71    0.23
   2   5   5    1.13    0.25
  -3  -5  -5    0.21    0.24
  -3  -5  -5   -0.24    0.20
   3   5   5   -0.19    0.21
   3   5   5    0.24    0.24
   4  -6  -5   -0.09    0.18
   4  -6  -5    0.13    0.19
   4  -6  -5    0.35    0.23
   3  -6  -5    1.83    0.24
   3  -6  -5    1.70    0.25
   3  -6  -5    2.15    0.30
  -3   6   5    1.59    0.27
   2  -6  -5    1.78    0.25
   2  -6  -5    1.34    0.20
   2  -6  -5    1.85    0.25
  -2   6   5    1.35    0.25
   1  -6  -5   -0.12    0.15
   1  -6  -5    0.12    0.18
   1  -6  -5    0.19    0.16
  -1   6   5   -0.01    0.18
   0  -6  -5    0.07    0.20
   0  -6  -5   -0.07    0.14
   0  -6  -5    0.07    0.20
   0   6   5    0.14    0.20
  -1  -6  -5   -0.35    0.21
  -1  -6  -5    0.31    0.23
   1   6   5    0.27    0.21
  -2  -6  -5    2.26    0.35
  -2  -6  -5    3.06    0.36
   2   6   5    2.37    0.36
   3  -7  -5    0.43    0.21
  -3   7   5    0.18    0.21
   2  -7  -5    0.81    0.22
   2  -7  -5    1.21    0.25
  -2   7   5    1.04    0.27
   1  -7  -5    1.31    0.25
   1  -7  -5    1.30    0.25
  -1   7   5    0.79    0.26
   0  -7  -5    2.94    0.35
   0  -7  -5    1.86    0.32
   0   7   5    1.99    0.32
  -1  -7  -5   -0.29    0.26
  -1  -7  -5   -0.17    0.23
   1   7   5   -0.05    0.23
   1  -8  -5    0.90    0.27
  -1   8   5    0.36    0.25
  -1 -10   6   -0.20    0.28
   0 -10   6    4.61    0.44
   1 -10   6    1.08    0.28
  -3  -9   6   -0.30    0.33
  -2  -9   6   -0.67    0.28
  -1  -9   6    1.26    0.30
   0  -9   6    4.44    0.40
   1  -9   6    0.56    0.22
   2  -9   6    0.64    0.25
   3  -9   6    0.23    0.27
   3   8  -6    1.55    0.27
  -3  -8   6    1.35    0.33
  -2  -8   6   -0.32    0.24
  -1  -8   6    0.28    0.21
   0  -8   6    0.63    0.20
   1  -8   6    5.35    0.39
   2  -8   6    1.91    0.29
   3  -8   6    0.03    0.13
   3  -8   6    0.17    0.23
   4   7  -6   -0.13    0.19
  -4  -7   6    0.33    0.27
   3   7  -6    3.44    0.32
  -3  -7   6    3.42    0.40
   2   7  -6    0.14    0.15
  -2  -7   6    0.04    0.20
   1   7  -6    0.03    0.12
  -1  -7   6   -0.04    0.16
   0  -7   6    2.15    0.26
   1  -7   6   10.23    0.46
   2  -7   6    0.43    0.18
   2  -7   6    0.42    0.15
   3  -7   6    0.81    0.24
   3  -7   6    0.49    0.15
   4  -7   6    0.26    0.25
   4  -7   6   -0.28    0.16
   5   6  -6   -0.18    0.21
  -5  -6   6   -0.08    0.28
   4   6  -6   -0.20    0.18
  -4  -6   6   -0.08    0.22
   3   6  -6    2.92    0.29
  -3  -6   6    2.91    0.34
  -3  -6   6    2.57    0.27
   2   6  -6    2.44    0.24
  -2  -6   6    2.49    0.29
   1   6  -6    0.53    0.14
  -1  -6   6    0.49    0.16
   0  -6   6    0.84    0.15
   1  -6   6    0.32    0.13
   1  -6   6    0.40    0.13
   2  -6   6    3.89    0.25
   2  -6   6    2.88    0.27
   2  -6   6    2.90    0.27
   2  -6   6    3.64    0.23
   3  -6   6    2.64    0.30
   3  -6   6    2.35    0.25
   3  -6   6    2.09    0.22
   4  -6   6   -0.10    0.13
   4  -6   6   -0.12    0.20
   4  -6   6   -0.22    0.15
   5   5  -6    0.11    0.21
  -5  -5   6    0.14    0.26
   4   5  -6    3.24    0.33
  -4  -5   6    3.35    0.36
   3   5  -6   -0.04    0.14
  -3  -5   6   -0.03    0.11
  -3  -5   6    0.12    0.15
   2   5  -6   13.45    0.45
  -2  -5   6   12.84    0.47
  -2  -5   6   12.78    0.47
   1   5  -6    0.26    0.11
  -1  -5   6    0.23    0.12
  -1  -5   6    0.12    0.10
   0  -5   6    0.41    0.11
   0  -5   6    0.67    0.13
   1  -5   6    3.09    0.21
   1  -5   6    3.57    0.25
   2  -5   6   14.90    0.44
   2  -5   6   15.26    0.53
   2  -5   6   15.58    0.47
   2  -5   6   16.11    0.46
   2  -5   6   15.22    0.54
   3  -5   6    1.69    0.19
   3  -5   6    1.41    0.17
   3  -5   6    1.47    0.18
   3  -5   6    1.51    0.18
   3  -5   6    1.53    0.23
   4  -5   6    0.12    0.16
   4  -5   6   -0.05    0.13
   4  -5   6    0.18    0.14
   4  -5   6   -0.26    0.17
   5  -5   6   -0.14    0.22
   5  -5   6   -0.15    0.19
   5  -5   6    0.23    0.20
   5   4  -6    0.84    0.25
  -5  -4   6    0.97    0.28
   4   4  -6    0.06    0.13
   4   4  -6    0.13    0.16
  -4  -4   6    0.27    0.18
   3   4  -6   -0.07    0.09
   3   4  -6    0.17    0.12
  -3  -4   6    0.11    0.10
  -3  -4   6   -0.10    0.13
   2   4  -6   15.63    0.48
   2   4  -6   15.47    0.40
  -2  -4   6   15.95    0.51
  -2  -4   6   15.12    0.49
   1   4  -6    2.68    0.19
   1   4  -6    2.52    0.14
  -1  -4   6    2.47    0.20
  -1  -4   6    2.50    0.18
   0  -4   6    1.01    0.14
   0  -4   6    0.92    0.12
   1  -4   6    0.54    0.12
   1  -4   6    0.59    0.09
   1  -4   6    0.81    0.11
   2  -4   6    0.12    0.09
   2  -4   6    0.06    0.10
   2  -4   6    0.07    0.10
   2  -4   6   -0.01    0.09
   2  -4   6   -0.07    0.07
   3  -4   6    0.43    0.15
   3  -4   6    0.40    0.13
   3  -4   6    0.53    0.13
   3  -4   6    0.46    0.15
   3  -4   6    0.47    0.13
   4  -4   6    2.02    0.27
   4  -4   6    2.03    0.24
   4  -4   6    2.09    0.24
   4  -4   6    1.99    0.24
   5  -4   6    0.51    0.20
   5  -4   6    0.17    0.21
   5  -4   6   -0.09    0.22
   5  -4   6    0.41    0.19
   5   3  -6    6.19    0.41
   5   3  -6    6.26    0.35
  -5  -3   6    7.91    0.45
   4   3  -6    0.00    0.11
   4   3  -6   -0.14    0.14
  -4  -3   6    0.10    0.15
   3   3  -6    9.11    0.37
   3   3  -6    9.25    0.32
  -3  -3   6    8.47    0.36
  -3  -3   6    9.05    0.35
   2   3  -6    0.55    0.10
   2   3  -6    0.43    0.11
  -2  -3   6    0.40    0.10
  -2  -3   6    0.40    0.10
   1   3  -6   29.03    0.63
   1   3  -6   27.95    0.70
  -1  -3   6   27.02    0.69
  -1  -3   6   28.44    0.76
   0   3  -6    0.22    0.08
   0  -3   6    0.27    0.09
   1  -3   6    1.36    0.17
   1  -3   6    1.63    0.14
   2  -3   6    3.96    0.24
   2  -3   6    4.16    0.25
   2  -3   6    3.89    0.25
   3  -3   6   10.75    0.42
   3  -3   6   10.78    0.40
   3  -3   6   10.45    0.42
   4  -3   6    1.28    0.21
   4  -3   6    1.78    0.24
   4  -3   6    1.08    0.20
   5  -3   6    0.12    0.19
   5  -3   6   -0.07    0.19
   5  -3   6    0.09    0.20
   6   2  -6    0.18    0.22
   6   2  -6    0.39    0.19
   5   2  -6    4.41    0.31
   5   2  -6    4.22    0.34
   4   2  -6    1.28    0.18
   4   2  -6    1.54    0.22
   3   2  -6    1.10    0.14
   3   2  -6    0.96    0.15
  -3  -2   6    0.96    0.12
   2   2  -6    0.79    0.11
   2   2  -6    0.84    0.13
  -2  -2   6    0.86    0.11
  -2  -2   6    0.60    0.11
   1   2  -6   43.61    1.01
   1   2  -6   45.19    0.94
  -1  -2   6   44.58    1.11
   0   2  -6    1.47    0.14
   0   2  -6    1.19    0.11
   0  -2   6    1.11    0.14
   1  -2   6    0.57    0.09
   1  -2   6    0.57    0.12
   2  -2   6    0.02    0.10
   2  -2   6    0.03    0.10
   3  -2   6   -0.11    0.11
   3  -2   6    0.29    0.13
   3  -2   6    0.38    0.16
   4  -2   6   -0.31    0.16
   4  -2   6   -0.05    0.15
   5  -2   6    1.12    0.28
   5  -2   6    0.67    0.23
   5  -2   6    1.22    0.25
   6   1  -6    1.09    0.22
   6   1  -6    0.82    0.24
   5   1  -6    0.50    0.19
   5   1  -6    0.63    0.17
   4   1  -6   15.07    0.48
   4   1  -6   15.05    0.51
   3   1  -6    0.23    0.08
   3   1  -6    0.22    0.10
   3   1  -6    0.21    0.10
  -3  -1   6    0.20    0.08
   2   1  -6   16.33    0.41
   2   1  -6   18.14    0.47
   2   1  -6   17.42    0.50
  -2  -1   6   18.53    0.54
   1   1  -6    1.80    0.13
   1   1  -6    1.94    0.15
   1   1  -6    2.18    0.17
  -1  -1   6    2.36    0.19
   0   1  -6   24.24    0.59
   0   1  -6   24.75    0.56
   0  -1   6   24.75    0.70
  -1   1  -6    0.02    0.08
   1  -1   6    0.10    0.08
   2  -1   6    0.76    0.15
   2  -1   6    0.79    0.14
   3  -1   6    1.91    0.23
   3  -1   6    1.72    0.21
   3  -1   6    1.73    0.23
   4  -1   6    3.89    0.33
   4  -1   6    4.12    0.36
   5  -1   6    0.81    0.27
   5  -1   6    0.37    0.22
   6   0  -6    4.80    0.38
   6   0  -6    4.39    0.39
   5   0  -6    0.35    0.17
   5   0  -6    0.15    0.15
   4   0  -6    9.57    0.39
   4   0  -6    9.43    0.38
   4   0  -6    8.90    0.34
   3   0  -6    2.24    0.19
   3   0  -6    2.10    0.17
   3   0  -6    1.65    0.18
  -3   0   6    2.05    0.18
   2   0  -6    3.42    0.17
   2   0  -6    3.34    0.20
   2   0  -6    3.68    0.21
  -2   0   6    3.55    0.22
   1   0  -6    2.16    0.17
   1   0  -6    2.04    0.15
  -1   0   6    2.19    0.19
   0   0  -6   41.86    0.93
   0   0  -6   42.61    0.92
   0   0   6   42.72    1.09
  -1   0  -6    0.18    0.08
  -1   0  -6    0.00    0.10
   1   0   6    0.14    0.11
   1   0   6    0.17    0.11
  -2   0  -6   -0.09    0.10
  -2   0  -6    0.11    0.12
   2   0   6    0.06    0.12
   2   0   6    0.01    0.11
   3   0   6    0.79    0.20
   3   0   6    0.50    0.16
   4   0   6    0.49    0.22
   4   0   6   -0.05    0.17
   5   0   6    0.00    0.22
   5   0   6    0.09    0.24
   6  -1  -6   -0.02    0.18
   6  -1  -6    0.05    0.18
   5  -1  -6    2.58    0.25
   5  -1  -6    2.22    0.26
   5  -1  -6    1.78    0.23
   4  -1  -6    0.79    0.15
   4  -1  -6    0.64    0.17
   4  -1  -6    0.50    0.12
   4  -1  -6    0.66    0.16
   3  -1  -6   25.39    0.73
   3  -1  -6   24.16    0.65
   3  -1  -6   25.01    0.63
   3  -1  -6   24.73    0.65
  -3   1   6   24.38    0.70
   2  -1  -6    0.09    0.08
   2  -1  -6    0.01    0.08
   2  -1  -6    0.10    0.08
  -2   1   6    0.03    0.08
   1  -1  -6   13.64    0.39
   1  -1  -6   14.04    0.41
  -1   1   6   13.93    0.48
   0  -1  -6    3.65    0.22
   0  -1  -6    3.23    0.21
   0   1   6    3.51    0.25
  -1  -1  -6    7.62    0.32
   1   1   6    7.47    0.32
   1   1   6    7.00    0.36
  -2  -1  -6    0.14    0.14
  -2  -1  -6    0.00    0.11
   2   1   6    0.02    0.13
   2   1   6   -0.01    0.13
  -3  -1  -6    0.18    0.16
   3   1   6    0.05    0.15
   3   1   6    0.11    0.18
  -4  -1  -6    0.94    0.26
   4   1   6    0.38    0.20
   4   1   6    0.51    0.23
   5  -2  -6    8.80    0.42
   5  -2  -6    8.48    0.42
   4  -2  -6    0.48    0.13
   4  -2  -6    0.46    0.15
   4  -2  -6    0.34    0.14
   3  -2  -6    9.51    0.34
   3  -2  -6    9.47    0.37
   3  -2  -6    9.75    0.36
  -3   2   6    9.80    0.40
   2  -2  -6    1.83    0.18
   2  -2  -6    2.00    0.18
   2  -2  -6    1.50    0.15
  -2   2   6    1.73    0.20
   1  -2  -6    3.74    0.23
   1  -2  -6    3.43    0.22
  -1   2   6    3.75    0.27
   0  -2  -6    1.83    0.19
   0  -2  -6    1.71    0.18
   0   2   6    1.54    0.20
  -1  -2  -6   17.05    0.52
   1   2   6   17.07    0.52
   1   2   6   16.33    0.60
  -2  -2  -6   -0.03    0.15
   2   2   6   -0.02    0.15
   2   2   6   -0.15    0.15
  -3  -2  -6    0.08    0.18
   3   2   6   -0.35    0.15
   3   2   6    0.09    0.19
   4   2   6    0.74    0.22
   4   2   6    1.10    0.26
   5  -3  -6    1.10    0.23
   5  -3  -6    1.04    0.22
   4  -3  -6    2.34    0.25
   4  -3  -6    2.46    0.26
   3  -3  -6    0.88    0.16
   3  -3  -6    0.83    0.17
  -3   3   6    0.73    0.16
   2  -3  -6   18.52    0.54
   2  -3  -6   18.55    0.54
  -2   3   6   19.13    0.64
   1  -3  -6    0.52    0.14
   1  -3  -6    0.38    0.13
  -1   3   6    0.14    0.13
   0  -3  -6    5.24    0.29
   0  -3  -6    4.74    0.30
   0   3   6    4.69    0.26
   0   3   6    4.75    0.33
  -1  -3  -6    2.47    0.25
   1   3   6    1.93    0.25
   1   3   6    2.32    0.24
  -2  -3  -6    0.99    0.23
   2   3   6    1.18    0.23
   2   3   6    1.55    0.23
  -3  -3  -6    0.14    0.19
   3   3   6    0.04    0.20
   3   3   6   -0.18    0.18
   4   3   6    0.16    0.23
   4   3   6    0.35    0.21
   5  -4  -6   -0.06    0.17
   5  -4  -6   -0.18    0.16
   4  -4  -6    7.64    0.40
   4  -4  -6    8.10    0.41
   3  -4  -6    0.33    0.16
   3  -4  -6    0.30    0.15
  -3   4   6    0.07    0.15
   2  -4  -6    5.23    0.30
   2  -4  -6    5.08    0.31
  -2   4   6    5.15    0.37
   1  -4  -6    1.10    0.18
   1  -4  -6    0.84    0.18
  -1   4   6    0.52    0.18
   0  -4  -6    1.85    0.24
   0  -4  -6    1.41    0.20
   0   4   6    1.30    0.22
  -1  -4  -6    0.75    0.21
   1   4   6    0.26    0.16
   1   4   6    0.47    0.21
  -2  -4  -6    4.37    0.38
   2   4   6    4.54    0.41
   2   4   6    3.70    0.33
  -3  -4  -6    0.21    0.21
   3   4   6    0.22    0.22
   3   4   6   -0.08    0.21
   4  -5  -6    1.72    0.25
   4  -5  -6    1.86    0.26
   3  -5  -6    1.59    0.23
   3  -5  -6    1.17    0.22
  -3   5   6    0.90    0.23
   2  -5  -6    1.39    0.23
   2  -5  -6    1.50    0.21
  -2   5   6    1.51    0.25
   1  -5  -6    8.42    0.41
   1  -5  -6    8.08    0.37
  -1   5   6    8.15    0.48
   0  -5  -6    1.27    0.21
   0  -5  -6    1.09    0.24
   0   5   6    0.64    0.22
  -1  -5  -6    1.25    0.25
   1   5   6    0.57    0.24
  -2  -5  -6    0.67    0.25
   2   5   6    0.78    0.27
  -3  -5  -6   -0.01    0.22
   3  -6  -6    3.21    0.33
   3  -6  -6    3.49    0.35
  -3   6   6    3.18    0.39
   2  -6  -6    0.24    0.19
   2  -6  -6    0.16    0.17
  -2   6   6   -0.09    0.19
   1  -6  -6    2.51    0.27
   1  -6  -6    2.26    0.29
  -1   6   6    1.92    0.31
   0  -6  -6   -0.13    0.18
   0  -6  -6    0.30    0.22
   0   6   6    0.10    0.21
  -1  -6  -6    0.20    0.24
   1   6   6    0.09    0.23
  -2  -6  -6    0.11    0.26
   2   6   6   -0.13    0.25
   2  -7  -6    0.51    0.23
  -2   7   6    0.14    0.24
   1  -7  -6    1.18    0.27
  -1   7   6    1.12    0.28
   0  -7  -6    1.95    0.32
   0   7   6    1.78    0.33
  -1 -10   7    6.34    0.57
   0 -10   7    3.93    0.44
   1 -10   7    0.88    0.28
  -2  -9   7    0.58    0.33
  -1  -9   7    0.04    0.25
   0  -9   7    8.55    0.49
   1  -9   7    2.20    0.30
   2  -9   7    0.29    0.23
   2  -9   7    0.09    0.17
   3   8  -7   -0.15    0.19
   2   8  -7    0.27    0.18
  -2  -8   7   -0.10    0.24
  -1  -8   7    1.61    0.27
   0  -8   7   18.50    0.66
   1  -8   7    3.23    0.34
   1  -8   7    3.04    0.33
   2  -8   7    1.34    0.22
   2  -8   7    1.25    0.26
   3  -8   7    0.39    0.17
   3  -8   7    0.82    0.26
   4   7  -7    1.44    0.26
   3   7  -7    0.00    0.18
  -3  -7   7    0.05    0.14
   2   7  -7   -0.05    0.15
  -2  -7   7    0.03    0.14
  -2  -7   7   -0.21    0.20
   1   7  -7    2.42    0.25
  -1  -7   7    2.00    0.24
  -1  -7   7    2.37    0.30
   0  -7   7    1.07    0.19
   0  -7   7    1.11    0.20
   1  -7   7   11.81    0.49
   1  -7   7   11.97    0.52
   2  -7   7    0.94    0.19
   2  -7   7    1.11    0.21
   3  -7   7   -0.01    0.14
   3  -7   7   -0.23    0.19
   4   6  -7    2.37    0.30
   3   6  -7    0.03    0.16
  -3  -6   7    0.04    0.13
   2   6  -7   -0.12    0.13
  -2  -6   7   -0.07    0.11
   1   6  -7    0.55    0.15
  -1  -6   7    0.66    0.16
   0  -6   7    2.80    0.27
   1  -6   7   38.65    1.10
   1  -6   7   40.74    1.10
   2  -6   7    3.18    0.29
   2  -6   7    2.81    0.27
   2  -6   7    3.31    0.24
   3  -6   7    0.79    0.16
   3  -6   7    0.84    0.21
   3  -6   7    0.48    0.15
   4  -6   7    0.04    0.17
   5   5  -7   -0.11    0.22
   4   5  -7    0.46    0.19
   3   5  -7    1.19    0.21
  -3  -5   7    0.86    0.16
   2   5  -7    0.04    0.12
  -2  -5   7    0.04    0.11
   1   5  -7   -0.05    0.11
  -1  -5   7    0.01    0.10
   0  -5   7    4.58    0.29
   1  -5   7    7.27    0.37
   2  -5   7    9.42    0.43
   2  -5   7    9.06    0.34
   2  -5   7    9.48    0.37
   3  -5   7    0.21    0.13
   3  -5   7    0.19    0.13
   3  -5   7    0.07    0.14
   3  -5   7    0.17    0.12
   4  -5   7   -0.22    0.13
   4  -5   7    0.13    0.16
   4  -5   7   -0.22    0.15
   5   4  -7    0.01    0.21
   4   4  -7    2.13    0.27
   3   4  -7    3.71    0.23
   3   4  -7    4.16    0.29
  -3  -4   7    3.61    0.27
   2   4  -7    0.05    0.11
   2   4  -7    0.04    0.08
  -2  -4   7    0.21    0.10
   1   4  -7    1.15    0.13
   1   4  -7    0.86    0.16
  -1  -4   7    0.94    0.14
   0  -4   7    0.41    0.11
   1  -4   7    4.68    0.29
   2  -4   7   44.48    1.02
   2  -4   7   44.28    1.08
   2  -4   7   46.27    1.19
   3  -4   7    2.60    0.26
   3  -4   7    2.23    0.22
   3  -4   7    2.43    0.23
   3  -4   7    2.04    0.23
   4  -4   7   -0.22    0.14
   4  -4   7    0.14    0.17
   4  -4   7    0.03    0.16
   5   3  -7    0.03    0.19
   5   3  -7    0.04    0.14
   4   3  -7    0.49    0.14
   4   3  -7    0.61    0.18
   3   3  -7    0.46    0.14
   3   3  -7    0.49    0.13
  -3  -3   7    0.36    0.12
   2   3  -7    0.12    0.09
   2   3  -7    0.03    0.09
  -2  -3   7    0.06    0.09
   1   3  -7    0.58    0.13
   1   3  -7    0.58    0.11
  -1  -3   7    0.49    0.12
   0   3  -7   -0.04    0.08
   0  -3   7   -0.06    0.08
   1  -3   7    7.06    0.35
   2  -3   7   17.70    0.60
   2  -3   7   17.61    0.56
   3  -3   7    2.48    0.27
   3  -3   7    3.22    0.26
   3  -3   7    3.52    0.30
   4  -3   7    0.04    0.16
   4  -3   7   -0.18    0.17
   4  -3   7    0.22    0.18
   5   2  -7    2.96    0.32
   5   2  -7    2.94    0.28
   4   2  -7    0.74    0.16
   4   2  -7    1.07    0.19
   3   2  -7    3.82    0.26
   3   2  -7    3.94    0.24
  -3  -2   7    3.71    0.24
   2   2  -7    2.52    0.20
   2   2  -7    3.11    0.19
  -2  -2   7    2.78    0.21
   1   2  -7   -0.05    0.09
   1   2  -7   -0.04    0.08
  -1  -2   7    0.03    0.08
   0   2  -7    3.96    0.21
   0   2  -7    4.27    0.18
   0  -2   7    4.55    0.26
   1  -2   7    0.14    0.11
   2  -2   7    5.90    0.32
   2  -2   7    5.97    0.33
   3  -2   7   25.48    0.72
   3  -2   7   25.85    0.78
   3  -2   7   25.22    0.75
   4  -2   7    1.44    0.26
   4  -2   7    1.20    0.23
   5   1  -7    2.20    0.25
   5   1  -7    2.78    0.30
   4   1  -7    0.14    0.13
   4   1  -7   -0.10    0.11
   3   1  -7    3.32    0.23
   3   1  -7    3.03    0.23
  -3  -1   7    3.07    0.22
   2   1  -7    1.65    0.18
   2   1  -7    1.87    0.17
   2   1  -7    1.85    0.14
  -2  -1   7    1.77    0.18
   1   1  -7    0.84    0.10
   1   1  -7    1.05    0.14
  -1  -1   7    0.77    0.13
   0   1  -7    0.63    0.12
   0   1  -7    0.48    0.10
   0  -1   7    0.44    0.11
  -1   1  -7    0.19    0.10
   1  -1   7    0.18    0.10
   2  -1   7    5.66    0.32
   2  -1   7    5.80    0.34
   3  -1   7   15.79    0.59
   3  -1   7   15.75    0.57
   4  -1   7    0.38    0.19
   4  -1   7    0.20    0.22
   5   0  -7    0.47    0.17
   5   0  -7    0.29    0.16
   4   0  -7    4.47    0.28
   4   0  -7    4.05    0.28
   3   0  -7    2.06    0.20
   3   0  -7    2.41    0.22
   3   0  -7    2.28    0.18
  -3   0   7    2.29    0.21
   2   0  -7    3.47    0.19
   2   0  -7    3.36    0.21
   2   0  -7    3.50    0.22
  -2   0   7    3.44    0.24
   1   0  -7    0.26    0.10
   1   0  -7    0.15    0.09
  -1   0   7    0.11    0.10
   0   0  -7    0.04    0.09
   0   0  -7    0.21    0.11
   0   0   7    0.10    0.10
  -1   0  -7    4.94    0.27
   1   0   7    4.84    0.32
   1   0   7    4.80    0.29
  -2   0  -7   -0.01    0.13
   2   0   7   -0.13    0.13
   2   0   7    0.08    0.15
   3   0   7    6.09    0.39
   3   0   7    6.06    0.38
   4   0   7    9.62    0.48
   4   0   7    9.66    0.52
   5  -1  -7    3.75    0.32
   5  -1  -7    3.29    0.29
   4  -1  -7    4.04    0.29
   4  -1  -7    3.70    0.26
   4  -1  -7    3.82    0.26
   3  -1  -7    0.19    0.11
   3  -1  -7    0.29    0.14
   3  -1  -7    0.27    0.11
  -3   1   7    0.17    0.11
   2  -1  -7    7.58    0.29
   2  -1  -7    7.47    0.30
   2  -1  -7    7.31    0.31
  -2   1   7    7.35    0.36
   1  -1  -7    1.72    0.18
   1  -1  -7    2.15    0.19
  -1   1   7    2.14    0.23
   0  -1  -7    1.48    0.17
   0  -1  -7    1.44    0.17
   0   1   7    1.24    0.18
  -1  -1  -7    0.29    0.15
   1   1   7   -0.04    0.13
   1   1   7    0.46    0.15
  -2  -1  -7    0.35    0.17
   2   1   7    0.30    0.17
   2   1   7    0.51    0.19
   3   1   7    3.26    0.35
   3   1   7    2.12    0.27
   4   1   7    8.54    0.51
   4   1   7    8.54    0.47
   5  -2  -7    0.67    0.19
   5  -2  -7    0.53    0.18
   4  -2  -7    2.63    0.27
   4  -2  -7    2.30    0.23
   3  -2  -7    4.18    0.27
   3  -2  -7    4.02    0.27
   3  -2  -7    4.16    0.24
  -3   2   7    4.36    0.30
   2  -2  -7    4.29    0.26
   2  -2  -7    4.72    0.28
  -2   2   7    5.14    0.33
   1  -2  -7    0.88    0.15
   1  -2  -7    1.08    0.16
  -1   2   7    0.81    0.17
   0  -2  -7    0.18    0.13
   0  -2  -7    0.13    0.13
   0   2   7    0.07    0.13
  -1  -2  -7   -0.02    0.15
   1   2   7    0.22    0.15
   1   2   7    0.12    0.17
  -2  -2  -7    2.08    0.25
   2   2   7    2.18    0.26
   2   2   7    2.24    0.28
  -3  -2  -7    0.05    0.19
   3   2   7    0.10    0.19
   3   2   7    0.00    0.19
   4   2   7    4.75    0.41
   4   2   7    4.47    0.45
   5  -3  -7    1.20    0.25
   5  -3  -7    1.55    0.25
   4  -3  -7    3.14    0.30
   4  -3  -7    2.92    0.30
   3  -3  -7    4.91    0.30
   3  -3  -7    4.07    0.30
  -3   3   7    4.59    0.34
   2  -3  -7   -0.09    0.14
   2  -3  -7    0.02    0.14
  -2   3   7    0.03    0.14
   1  -3  -7    7.36    0.36
   1  -3  -7    7.54    0.35
  -1   3   7    7.20    0.42
   0  -3  -7    0.91    0.18
   0  -3  -7    1.03    0.19
   0   3   7    0.93    0.18
   0   3   7    0.84    0.20
  -1  -3  -7    0.56    0.20
   1   3   7    0.61    0.19
   1   3   7    0.57    0.21
  -2  -3  -7    0.00    0.19
   2   3   7    0.18    0.21
   2   3   7    0.25    0.19
  -3  -3  -7    0.16    0.20
   3   3   7    0.24    0.24
   3   3   7    0.43    0.23
   4  -4  -7    0.62    0.20
   4  -4  -7    0.73    0.20
   3  -4  -7    2.95    0.30
   3  -4  -7    3.60    0.29
  -3   4   7    3.17    0.36
   2  -4  -7    2.74    0.28
   2  -4  -7    2.96    0.27
  -2   4   7    2.84    0.34
   1  -4  -7    5.69    0.35
   1  -4  -7    5.42    0.34
  -1   4   7    5.26    0.41
   0  -4  -7   -0.21    0.16
   0  -4  -7   -0.13    0.17
   0   4   7    0.26    0.20
  -1  -4  -7    0.15    0.20
   1   4   7    0.39    0.22
   1   4   7    0.39    0.20
  -2  -4  -7   -0.28    0.20
   2   4   7   -0.31    0.22
   2   4   7    0.07    0.20
  -3  -4  -7    1.15    0.27
   4  -5  -7    1.14    0.24
   4  -5  -7    1.00    0.24
   3  -5  -7    2.10    0.26
   3  -5  -7    1.98    0.27
  -3   5   7    1.59    0.28
   2  -5  -7    2.83    0.30
   2  -5  -7    2.99    0.32
  -2   5   7    3.48    0.39
   1  -5  -7   -0.05    0.18
   1  -5  -7   -0.17    0.18
  -1   5   7   -0.12    0.20
   0  -5  -7    4.71    0.39
   0  -5  -7    4.18    0.35
   0   5   7    3.58    0.41
  -1  -5  -7    0.39    0.24
   1   5   7    0.12    0.23
  -2  -5  -7    0.07    0.24
   2   5   7   -0.60    0.21
   3  -6  -7    0.31    0.20
   3  -6  -7    0.55    0.22
  -3   6   7    0.38    0.24
   2  -6  -7    2.47    0.30
   2  -6  -7    2.14    0.27
  -2   6   7    1.83    0.32
   1  -6  -7    0.61    0.24
   1  -6  -7    0.77    0.25
  -1   6   7    0.82    0.27
   0  -6  -7    3.93    0.41
   0  -6  -7    3.60    0.35
   0   6   7    2.52    0.36
  -2  -9   8    1.68    0.26
  -1  -9   8    0.91    0.24
   0  -9   8    6.34    0.46
   1  -9   8    0.05    0.17
   2  -9   8    0.32    0.19
   3   8  -8    0.22    0.20
  -3  -8   8   -0.14    0.15
   2   8  -8    5.07    0.36
  -2  -8   8    4.50    0.38
  -1  -8   8    2.21    0.28
   0  -8   8    0.22    0.17
   1  -8   8    0.84    0.21
   2  -8   8    0.09    0.16
   3  -8   8    0.57    0.20
   4   7  -8    0.10    0.21
   3   7  -8    0.12    0.19
  -3  -7   8    0.12    0.15
   2   7  -8    0.09    0.16
  -2  -7   8    0.21    0.15
   1   7  -8    7.58    0.38
  -1  -7   8    7.13    0.42
   0  -7   8    2.83    0.30
   1  -7   8   13.33    0.57
   2  -7   8    0.20    0.16
   3  -7   8    0.60    0.18
   4   6  -8    2.34    0.31
   3   6  -8    0.16    0.18
  -3  -6   8    0.26    0.14
   2   6  -8    0.45    0.17
  -2  -6   8    0.04    0.12
   1   6  -8   12.34    0.47
  -1  -6   8   12.74    0.53
   0  -6   8    6.25    0.37
   1  -6   8    1.23    0.21
   2  -6   8    0.08    0.14
   2  -6   8    0.08    0.13
   3  -6   8   -0.27    0.14
   3  -6   8   -0.03    0.13
   5   5  -8    0.29    0.24
   4   5  -8   14.06    0.58
   3   5  -8    0.28    0.17
  -3  -5   8    0.29    0.13
   2   5  -8    0.02    0.14
  -2  -5   8    0.14    0.11
   1   5  -8    0.30    0.15
  -1  -5   8    0.40    0.13
   0  -5   8   11.48    0.47
   1  -5   8    5.13    0.34
   2  -5   8   14.41    0.46
   2  -5   8   14.61    0.57
   2  -5   8   14.39    0.51
   3  -5   8    0.47    0.15
   3  -5   8    0.41    0.17
   3  -5   8    0.46    0.19
   4  -5   8    0.62    0.21
   4  -5   8    0.18    0.18
   4  -5   8    0.25    0.19
   5   4  -8   -0.14    0.20
   4   4  -8   15.09    0.59
   3   4  -8    2.79    0.22
   3   4  -8    2.69    0.28
  -3  -4   8    2.41    0.25
   2   4  -8   -0.03    0.09
   2   4  -8    0.23    0.14
  -2  -4   8    0.09    0.11
   1   4  -8    1.45    0.19
   1   4  -8    1.09    0.14
  -1  -4   8    0.92    0.16
   0  -4   8   18.67    0.62
   1  -4   8   11.89    0.49
   2  -4   8    2.33    0.25
   2  -4   8    2.01    0.23
   3  -4   8   -0.18    0.11
   3  -4   8    0.07    0.12
   3  -4   8   -0.03    0.15
   3  -4   8    0.14    0.16
   4  -4   8   -0.20    0.15
   4  -4   8    0.16    0.17
   4  -4   8    0.40    0.20
   5   3  -8    0.14    0.15
   5   3  -8    0.28    0.21
   4   3  -8    1.23    0.18
   4   3  -8    1.59    0.24
   3   3  -8   23.78    0.69
   3   3  -8   23.81    0.63
  -3  -3   8   23.16    0.72
   2   3  -8    0.65    0.13
   2   3  -8    0.62    0.15
  -2  -3   8    0.40    0.14
   1   3  -8    0.88    0.16
   1   3  -8    0.74    0.13
  -1  -3   8    0.73    0.14
   0   3  -8    0.81    0.14
   0  -3   8    0.78    0.15
   1  -3   8    9.33    0.42
   2  -3   8    3.55    0.31
   2  -3   8    4.30    0.32
   3  -3   8    8.62    0.44
   3  -3   8    9.04    0.44
   3  -3   8    8.82    0.41
   4  -3   8    0.40    0.19
   4  -3   8    0.51    0.23
   5   2  -8    0.12    0.15
   5   2  -8    0.15    0.19
   4   2  -8    0.02    0.15
   4   2  -8    0.05    0.13
   3   2  -8   33.14    0.80
   3   2  -8   32.29    0.86
  -3  -2   8   31.42    0.90
   2   2  -8    1.97    0.19
   2   2  -8    2.08    0.21
  -2  -2   8    1.77    0.21
   1   2  -8   -0.11    0.09
  -1  -2   8   -0.01    0.10
   0   2  -8    0.80    0.14
   0  -2   8    0.77    0.14
   1  -2   8   16.99    0.59
   2  -2   8   12.48    0.49
   2  -2   8   12.70    0.52
   3  -2   8    1.56    0.25
   3  -2   8    1.51    0.23
   4  -2   8    0.18    0.21
   4  -2   8   -0.07    0.18
   5   1  -8    0.72    0.19
   5   1  -8    0.96    0.22
   4   1  -8    0.49    0.16
   4   1  -8    0.16    0.15
   3   1  -8    5.71    0.30
   3   1  -8    5.84    0.32
  -3  -1   8    4.88    0.30
   2   1  -8   24.69    0.68
   2   1  -8   25.10    0.65
  -2  -1   8   23.70    0.74
   1   1  -8    0.95    0.15
  -1  -1   8    0.63    0.14
   0   1  -8    0.87    0.13
   0   1  -8    1.15    0.16
   0  -1   8    0.66    0.13
  -1   1  -8    1.11    0.16
   1  -1   8    1.13    0.19
   2  -1   8    2.68    0.29
   2  -1   8    2.75    0.30
   3  -1   8    1.63    0.27
   3  -1   8    1.14    0.22
   4  -1   8    2.36    0.28
   4  -1   8    2.99    0.35
   5   0  -8    0.11    0.16
   5   0  -8   -0.07    0.15
   4   0  -8    0.30    0.16
   4   0  -8    0.31    0.15
   3   0  -8    0.04    0.12
   3   0  -8   -0.09    0.10
  -3   0   8    0.10    0.10
   2   0  -8   43.05    0.97
   2   0  -8   41.09    0.98
   2   0  -8   41.41    1.01
  -2   0   8   42.38    1.13
   1   0  -8    0.43    0.13
   1   0  -8    0.50    0.12
  -1   0   8    0.41    0.14
   0   0  -8   -0.24    0.11
   0   0  -8    0.28    0.12
   0   0   8    0.12    0.12
  -1   0  -8   -0.12    0.13
   1   0   8    0.20    0.15
   1   0   8   -0.15    0.14
  -2   0  -8   10.73    0.44
   2   0   8   10.66    0.48
   2   0   8   10.32    0.50
   3   0   8    7.99    0.46
   3   0   8    7.65    0.46
   4   0   8    0.68    0.24
   4   0   8    0.59    0.26
   5  -1  -8   -0.12    0.14
   5  -1  -8   -0.06    0.17
   4  -1  -8    1.38    0.20
   4  -1  -8    1.29    0.21
   3  -1  -8    0.19    0.11
   3  -1  -8    0.09    0.12
   3  -1  -8    0.29    0.15
  -3   1   8    0.18    0.13
   2  -1  -8   10.63    0.40
   2  -1  -8   10.11    0.37
  -2   1   8    9.95    0.46
   1  -1  -8   12.39    0.42
   1  -1  -8   11.65    0.42
  -1   1   8   12.69    0.52
   0  -1  -8    0.59    0.15
   0  -1  -8    0.42    0.16
   0   1   8    0.52    0.17
  -1  -1  -8   -0.41    0.15
   1   1   8    0.18    0.17
   1   1   8   -0.04    0.16
  -2  -1  -8    1.48    0.23
   2   1   8    1.42    0.25
   2   1   8    1.05    0.24
   3   1   8    0.27    0.21
   3   1   8    0.58    0.23
   5  -2  -8    0.33    0.21
   4  -2  -8    0.05    0.15
   3  -2  -8    0.26    0.13
   3  -2  -8    0.36    0.16
   3  -2  -8    0.29    0.13
  -3   2   8    0.38    0.16
   2  -2  -8   -0.03    0.12
   2  -2  -8    0.02    0.14
  -2   2   8   -0.09    0.14
   1  -2  -8   27.07    0.72
   1  -2  -8   26.19    0.72
  -1   2   8   27.20    0.87
   0  -2  -8   -0.15    0.14
   0  -2  -8   -0.08    0.15
   0   2   8    0.01    0.16
  -1  -2  -8    0.26    0.19
   1   2   8    0.28    0.19
   1   2   8    0.40    0.20
  -2  -2  -8    0.14    0.19
   2   2   8    0.18    0.20
   2   2   8    0.45    0.20
  -3  -2  -8    5.91    0.42
   3   2   8    5.24    0.47
   3   2   8    5.50    0.43
   4  -3  -8    0.21    0.15
   4  -3  -8    0.23    0.18
   3  -3  -8    0.81    0.19
   3  -3  -8    0.81    0.19
  -3   3   8    0.77    0.22
   2  -3  -8   -0.06    0.14
   2  -3  -8   -0.16    0.13
  -2   3   8    0.12    0.17
   1  -3  -8   10.39    0.44
   1  -3  -8    9.76    0.44
  -1   3   8   10.11    0.52
   0  -3  -8    4.23    0.32
   0  -3  -8    4.01    0.35
   0   3   8    4.01    0.31
   0   3   8    4.30    0.39
  -1  -3  -8    0.34    0.21
   1   3   8    0.46    0.23
   1   3   8    0.63    0.20
  -2  -3  -8   -0.10    0.21
   2   3   8   -0.34    0.21
   2   3   8    0.13    0.21
   4  -4  -8    0.44    0.17
   4  -4  -8    0.10    0.19
   3  -4  -8    0.19    0.18
   3  -4  -8    0.07    0.17
  -3   4   8   -0.03    0.20
   2  -4  -8    0.16    0.18
   2  -4  -8    0.26    0.18
  -2   4   8    0.15    0.19
   1  -4  -8   -0.07    0.19
   1  -4  -8    0.28    0.20
  -1   4   8    0.16    0.20
   0  -4  -8   10.95    0.51
   0  -4  -8    9.86    0.47
   0   4   8    9.38    0.55
  -1  -4  -8   -0.05    0.21
   1   4   8    0.00    0.22
  -2  -4  -8    0.03    0.24
   2   4   8    0.46    0.26
   3  -5  -8    0.07    0.19
   3  -5  -8    0.21    0.19
  -3   5   8   -0.17    0.21
   2  -5  -8    0.16    0.19
   2  -5  -8    0.16    0.19
  -2   5   8    0.04    0.23
   1  -5  -8   -0.12    0.20
   1  -5  -8    0.26    0.22
  -1   5   8   -0.06    0.23
   0  -5  -8    6.27    0.41
   0  -5  -8    6.67    0.46
   0   5   8    5.36    0.50
  -1  -5  -8    0.56    0.28
   1   5   8    0.39    0.28
  -1  -9   9    0.14    0.18
   0  -9   9    0.60    0.21
   1  -9   9    0.17    0.19
   2   8  -9    0.37    0.20
  -2  -8   9    0.38    0.19
  -1  -8   9    1.59    0.25
   0  -8   9    2.04    0.27
   1  -8   9    0.15    0.17
   2  -8   9   -0.02    0.16
   3   7  -9    0.00    0.20
  -3  -7   9    0.15    0.15
   2   7  -9    4.88    0.35
  -2  -7   9    4.14    0.36
   1   7  -9    1.78    0.25
  -1  -7   9    1.28    0.22
   0  -7   9    0.37    0.18
   1  -7   9    0.49    0.18
   2  -7   9    0.24    0.17
   3  -7   9    0.80    0.23
   4   6  -9    0.08    0.22
   3   6  -9    1.16    0.24
  -3  -6   9    0.52    0.16
   2   6  -9    2.87    0.29
  -2  -6   9    3.05    0.29
   1   6  -9    0.63    0.19
  -1  -6   9    0.81    0.19
   0  -6   9    3.25    0.31
   1  -6   9    2.82    0.31
   2  -6   9   -0.05    0.13
   2  -6   9   -0.03    0.16
   3  -6   9    0.02    0.16
   3  -6   9   -0.24    0.17
   4   5  -9    1.06    0.26
   3   5  -9    0.62    0.20
  -3  -5   9    0.43    0.15
   2   5  -9    0.30    0.16
  -2  -5   9    0.09    0.13
   1   5  -9   12.57    0.48
  -1  -5   9   11.25    0.50
   0  -5   9    0.98    0.20
   1  -5   9    2.26    0.27
   2  -5   9    0.02    0.15
   2  -5   9   -0.09    0.15
   3  -5   9    0.10    0.13
   3  -5   9    0.18    0.18
   3  -5   9    0.38    0.20
   4   4  -9    1.05    0.25
   3   4  -9   -0.01    0.17
  -3  -4   9   -0.02    0.12
   2   4  -9    1.51    0.22
   2   4  -9    1.65    0.19
  -2  -4   9    1.52    0.20
   1   4  -9    5.82    0.28
  -1  -4   9    5.46    0.35
   0  -4   9    1.57    0.22
   1  -4   9    3.93    0.33
   2  -4   9    1.54    0.24
   2  -4   9    1.14    0.21
   3  -4   9    0.21    0.16
   3  -4   9    0.24    0.19
   3  -4   9    0.28    0.18
   5   3  -9    0.21    0.22
   5   3  -9   -0.09    0.16
   4   3  -9    5.36    0.38
   4   3  -9    4.93    0.31
   3   3  -9    3.06    0.24
   3   3  -9    2.81    0.28
  -3  -3   9    2.99    0.27
   2   3  -9   -0.01    0.14
   2   3  -9   -0.06    0.12
  -2  -3   9    0.16    0.12
   1   3  -9   -0.10    0.12
  -1  -3   9    0.06    0.12
   0   3  -9   22.09    0.61
   0  -3   9   22.15    0.73
   1  -3   9    0.27    0.15
   2  -3   9    3.05    0.32
   2  -3   9    3.56    0.33
   3  -3   9    0.10    0.17
   3  -3   9    0.21    0.20
   3  -3   9   -0.02    0.16
   5   2  -9    0.59    0.20
   5   2  -9    0.75    0.22
   4   2  -9    1.37    0.23
   4   2  -9    0.95    0.19
   3   2  -9    1.08    0.19
   3   2  -9    0.60    0.16
  -3  -2   9    0.66    0.15
   2   2  -9    0.21    0.14
   2   2  -9    0.44    0.15
  -2  -2   9    0.20    0.13
   1   2  -9    1.41    0.20
  -1  -2   9    1.31    0.19
   0   2  -9    5.97    0.31
   0  -2   9    6.81    0.37
   1  -2   9    1.27    0.21
   2  -2   9    3.75    0.33
   2  -2   9    3.15    0.33
   3  -2   9    0.22    0.21
   3  -2   9    0.24    0.19
   5   1  -9    0.08    0.16
   5   1  -9    0.10    0.17
   4   1  -9    0.22    0.15
   4   1  -9   -0.08    0.14
   3   1  -9    9.49    0.39
   3   1  -9    9.76    0.42
  -3  -1   9    9.06    0.43
   2   1  -9    4.57    0.28
   2   1  -9    4.37    0.30
  -2  -1   9    4.10    0.31
   1   1  -9   -0.02    0.12
  -1  -1   9   -0.04    0.13
   0   1  -9    0.06    0.13
   0  -1   9   -0.03    0.13
  -1   1  -9   23.54    0.64
   1  -1   9   23.52    0.79
   2  -1   9   -0.05    0.19
   2  -1   9   -0.09    0.17
   3  -1   9    2.46    0.32
   3  -1   9    1.97    0.27
   5   0  -9    0.30    0.18
   5   0  -9    0.03    0.17
   4   0  -9    1.91    0.24
   4   0  -9    1.72    0.24
   3   0  -9    3.83    0.28
   3   0  -9    4.13    0.29
  -3   0   9    3.77    0.30
   2   0  -9    0.41    0.15
  -2   0   9    0.16    0.13
   1   0  -9    1.12    0.19
  -1   0   9    0.94    0.20
   0   0  -9    1.00    0.18
   0   0  -9    1.04    0.18
   0   0   9    0.86    0.20
  -1   0  -9    3.27    0.30
   1   0   9    4.02    0.36
   1   0   9    3.49    0.33
   2   0   9    0.16    0.18
   2   0   9    0.37    0.22
   3   0   9    2.02    0.31
   3   0   9    2.06    0.30
   4  -1  -9    0.43    0.16
   4  -1  -9    0.27    0.17
   3  -1  -9    0.13    0.14
   3  -1  -9    0.15    0.15
  -3   1   9    0.16    0.14
   2  -1  -9   10.28    0.42
  -2   1   9   10.32    0.49
   1  -1  -9    3.54    0.29
   1  -1  -9    3.38    0.27
  -1   1   9    3.68    0.34
   0  -1  -9    0.01    0.14
   0  -1  -9   -0.17    0.15
   0   1   9    0.09    0.17
  -1  -1  -9   -0.20    0.17
   1   1   9    0.05    0.18
   1   1   9    0.04    0.19
  -2  -1  -9   13.93    0.55
   2   1   9   12.88    0.63
   2   1   9   13.90    0.57
   3   1   9    0.20    0.24
   3   1   9    0.07    0.24
   4  -2  -9    0.73    0.21
   3  -2  -9    1.54    0.23
  -3   2   9    1.44    0.24
   2  -2  -9    6.06    0.33
   2  -2  -9    6.40    0.36
  -2   2   9    6.20    0.43
   1  -2  -9   -0.01    0.16
   1  -2  -9   -0.03    0.15
  -1   2   9   -0.21    0.17
   0  -2  -9    1.29    0.24
   0  -2  -9    1.14    0.23
   0   2   9    1.27    0.27
   0   2   9    1.74    0.25
  -1  -2  -9    0.78    0.24
   1   2   9    0.62    0.22
   1   2   9    0.90    0.26
  -2  -2  -9    1.00    0.25
   2   2   9    1.00    0.25
   2   2   9    1.13    0.27
   3  -3  -9    0.51    0.18
   3  -3  -9    0.40    0.19
  -3   3   9    0.18    0.20
   2  -3  -9    0.57    0.18
   2  -3  -9    0.80    0.21
  -2   3   9    0.72    0.23
   1  -3  -9    5.66    0.38
   1  -3  -9    6.27    0.40
  -1   3   9    6.17    0.46
   0  -3  -9    2.33    0.30
   0  -3  -9    1.96    0.27
   0   3   9    2.41    0.30
   0   3   9    1.93    0.30
  -1  -3  -9    0.01    0.22
   1   3   9    0.13    0.23
   1   3   9    0.10    0.20
   3  -4  -9    0.90    0.23
   3  -4  -9    1.01    0.22
  -3   4   9    0.52    0.26
   2  -4  -9    0.45    0.21
   2  -4  -9    0.74    0.21
  -2   4   9    0.22    0.22
   1  -4  -9    5.24    0.41
   1  -4  -9    5.09    0.38
  -1   4   9    4.39    0.45
   0  -4  -9   -0.32    0.22
   0  -4  -9   -0.09    0.19
   0   4   9   -0.17    0.22
   2   8 -10    0.15    0.20
  -2  -8  10    0.24    0.18
  -1  -8  10    0.11    0.18
   0  -8  10    0.16    0.18
   1  -8  10    3.11    0.36
   3   7 -10    0.39    0.22
  -3  -7  10    0.22    0.16
   2   7 -10    0.39    0.20
  -2  -7  10    0.27    0.16
  -1  -7  10    8.01    0.47
   0  -7  10    0.63    0.19
   1  -7  10    1.26    0.24
   2  -7  10    1.95    0.25
   2  -7  10    1.83    0.28
   3   6 -10    1.08    0.25
  -3  -6  10    0.50    0.17
   2   6 -10    0.00    0.18
  -2  -6  10    0.16    0.16
  -1  -6  10    0.26    0.17
   0  -6  10   -0.16    0.15
   1  -6  10    0.16    0.17
   2  -6  10    3.04    0.36
   2  -6  10    2.75    0.30
   4   5 -10    1.78    0.30
   3   5 -10    0.03    0.20
  -3  -5  10    0.15    0.15
   2   5 -10    0.43    0.19
  -2  -5  10    0.24    0.15
  -1  -5  10    0.34    0.16
   0  -5  10    9.86    0.51
   1  -5  10    1.43    0.25
   2  -5  10    2.05    0.27
   2  -5  10    2.18    0.29
   3  -5  10    0.47    0.17
   3  -5  10    0.80    0.23
   3  -5  10    0.85    0.24
   4   4 -10    0.07    0.21
   3   4 -10    1.32    0.25
  -3  -4  10    0.77    0.16
   2   4 -10    0.86    0.22
   2   4 -10    1.43    0.21
  -2  -4  10    0.98    0.19
   1   4 -10    0.56    0.16
  -1  -4  10    0.29    0.16
   0  -4  10    1.13    0.20
   1  -4  10    0.12    0.17
   2  -4  10    0.45    0.21
   2  -4  10    0.16    0.18
   3  -4  10    1.53    0.27
   3  -4  10    1.67    0.27
   3  -4  10    0.95    0.22
   4   3 -10   -0.07    0.18
   4   3 -10   -0.12    0.15
   3   3 -10    1.81    0.22
   3   3 -10    1.77    0.26
  -3  -3  10    1.19    0.19
   2   3 -10    0.51    0.16
   2   3 -10    0.31    0.18
  -2  -3  10    0.20    0.14
   1   3 -10    0.67    0.17
  -1  -3  10    0.43    0.16
   0  -3  10    0.11    0.14
   1  -3  10    6.37    0.41
   2  -3  10    0.84    0.22
   2  -3  10    1.16    0.26
   3  -3  10    1.47    0.26
   3  -3  10    1.90    0.30
   4   2 -10    0.24    0.18
   4   2 -10    0.01    0.15
   3   2 -10   -0.08    0.14
   3   2 -10    0.10    0.17
  -3  -2  10    0.12    0.13
   2   2 -10    1.65    0.21
   2   2 -10    1.86    0.24
  -2  -2  10    1.24    0.20
   1   2 -10    0.81    0.18
  -1  -2  10    0.96    0.19
   0   2 -10    1.01    0.19
   0  -2  10    0.89    0.19
   1  -2  10    1.04    0.21
   2  -2  10    0.09    0.19
   2  -2  10    0.09    0.21
   3  -2  10    0.52    0.25
   3  -2  10    0.28    0.23
   4   1 -10    0.48    0.18
   4   1 -10    0.57    0.19
   3   1 -10    0.46    0.17
   3   1 -10    0.36    0.18
  -3  -1  10    0.39    0.16
   2   1 -10    1.08    0.19
  -2  -1  10    0.72    0.18
   1   1 -10    0.37    0.17
  -1  -1  10    0.50    0.18
   0   1 -10    1.52    0.22
   0  -1  10    1.64    0.25
   1  -1  10   -0.20    0.17
   1  -1  10    0.13    0.21
   2  -1  10    1.79    0.30
   2  -1  10    1.78    0.28
   4   0 -10    8.24    0.43
   4   0 -10    8.26    0.42
   3   0 -10   -0.12    0.15
   3   0 -10   -0.09    0.15
  -3   0  10    0.03    0.14
   2   0 -10    0.07    0.15
  -2   0  10   -0.18    0.14
   1   0 -10    1.14    0.21
  -1   0  10    0.82    0.22
   0   0 -10    0.50    0.18
   0   0  10    0.35    0.20
  -1   0 -10    1.07    0.23
   1   0  10    0.67    0.23
   1   0  10    1.09    0.25
   2   0  10    0.30    0.21
   2   0  10    0.40    0.24
   4  -1 -10    2.29    0.30
   4  -1 -10    2.86    0.31
   3  -1 -10    0.24    0.18
  -3   1  10   -0.07    0.15
   2  -1 -10    0.85    0.20
  -2   1  10    0.88    0.21
   1  -1 -10    0.31    0.18
  -1   1  10    0.14    0.18
   0  -1 -10    0.05    0.19
   0  -1 -10    0.65    0.20
   0   1  10   -0.06    0.18
  -1  -1 -10    2.74    0.31
   1   1  10    2.94    0.33
   1   1  10    2.58    0.33
  -2  -1 -10    0.50    0.22
   2   1  10   -0.04    0.23
   2   1  10    0.06    0.21
   3  -2 -10    6.26    0.39
  -3   2  10    6.64    0.47
   2  -2 -10    0.16    0.16
  -2   2  10    0.16    0.19
   1  -2 -10    0.34    0.21
   1  -2 -10    0.42    0.21
  -1   2  10    0.75    0.24
   0  -2 -10    0.54    0.21
   0  -2 -10    0.41    0.22
   0   2  10    0.22    0.21
   0   2  10    0.56    0.22
  -1  -2 -10    0.35    0.24
   1   2  10    0.41    0.23
   1   2  10    0.03    0.23
   2  -3 -10   -0.07    0.18
   2  -3 -10    0.08    0.20
  -2   3  10   -0.14    0.21
   1  -3 -10    0.42    0.24
   1  -3 -10    0.59    0.23
  -1   3  10    0.67    0.26
   0  -3 -10    0.42    0.22
   0  -3 -10   -0.17    0.23
   0   3  10    0.20    0.24
   2   7 -11    1.44    0.27
  -2  -7  11    1.03    0.22
  -1  -7  11    0.24    0.18
   0  -7  11   -0.09    0.17
   1  -7  11    3.27    0.39
   2   6 -11    1.34    0.28
  -2  -6  11    0.81    0.22
  -1  -6  11    2.23    0.29
   0  -6  11    0.43    0.20
   1  -6  11    0.56    0.22
   3   5 -11    0.01    0.20
  -3  -5  11    0.00    0.14
   2   5 -11   -0.08    0.19
  -2  -5  11    0.35    0.17
  -1  -5  11    3.02    0.35
   0  -5  11    0.21    0.18
   1  -5  11    0.08    0.17
   2  -5  11    3.66    0.37
   2  -5  11    3.71    0.39
   3   4 -11    3.57    0.37
  -3  -4  11    2.69    0.31
   2   4 -11   -0.11    0.18
  -2  -4  11    0.13    0.15
   1   4 -11    2.75    0.27
  -1  -4  11    2.29    0.27
   0  -4  11    2.21    0.27
   1  -4  11    0.15    0.19
   2  -4  11    0.99    0.24
   2  -4  11    1.42    0.29
   3   3 -11    1.07    0.24
   3   3 -11    0.88    0.20
  -3  -3  11    0.90    0.19
   2   3 -11    0.11    0.16
  -2  -3  11    0.02    0.14
   1   3 -11    0.36    0.16
  -1  -3  11    0.33    0.17
   0  -3  11    3.89    0.36
   1  -3  11    0.84    0.22
   2  -3  11    0.15    0.19
   2  -3  11    0.22    0.23
   3   2 -11    0.26    0.18
   3   2 -11    0.19    0.16
  -3  -2  11    0.19    0.15
   2   2 -11    4.83    0.33
  -2  -2  11    3.90    0.35
   1   2 -11    0.22    0.17
  -1  -2  11    0.27    0.17
   0  -2  11    3.72    0.36
   1  -2  11    0.80    0.23
   1  -2  11    0.77    0.26
   2  -2  11    0.06    0.23
   2  -2  11    0.30    0.23
   3   1 -11    1.91    0.27
   3   1 -11    1.56    0.24
  -3  -1  11    1.40    0.24
   2   1 -11    1.61    0.24
  -2  -1  11    1.07    0.22
   1   1 -11    0.49    0.19
  -1  -1  11    0.51    0.20
   0   1 -11    0.35    0.18
   0  -1  11    0.36    0.20
   1  -1  11    3.22    0.39
   1  -1  11    2.86    0.35
   3   0 -11   -0.10    0.16
  -3   0  11    0.16    0.17
   2   0 -11   -0.02    0.17
  -2   0  11    0.10    0.17
   1   0 -11    2.88    0.30
  -1   0  11    2.50    0.31
   0   0 -11    0.39    0.19
   0   0  11    0.03    0.18
   1   0  11    2.48    0.34
   1   0  11    3.48    0.39
   2  -1 -11    1.57    0.26
  -2   1  11    1.42    0.27
   1  -1 -11    1.15    0.24
  -1   1  11    1.20    0.27
   0  -1 -11    0.19    0.20
   0   1  11    0.41    0.24
   0   1  11    0.46    0.24
  -2  -5  12    0.77    0.22
  -1  -5  12    0.39    0.19
   0  -5  12    1.73    0.29
  -2  -4  12    0.04    0.15
  -1  -4  12    0.88    0.22
   0  -4  12    0.43    0.20
   2   3 -12   -0.13    0.17
  -2  -3  12   -0.09    0.14
   1   3 -12    1.19    0.22
  -1  -3  12    0.92    0.22
   0  -3  12    0.33    0.19
   2   2 -12    0.19    0.19
  -2  -2  12    0.54    0.19
   1   2 -12   -0.06    0.17
  -1  -2  12    0.02    0.18
   0  -2  12    0.75    0.23
   2   1 -12    1.41    0.25
  -2  -1  12    1.32    0.26
   1   1 -12    0.15    0.19
  -1  -1  12   -0.06    0.19
   0  -1  12    0.49    0.23
   0   0   0    0.00    0.00
;
_shelx_hkl_checksum              64517
_olex2_submission_special_instructions 'No special instructions were received'
_solvent_exptl_crystal_recrystallization_method methanol
loop_
_space_group_symop_operation_xyz
'x, y, z'
'-x, -y, -z'
loop_
_atom_site_label
_atom_site_type_symbol
_atom_site_fract_x
_atom_site_fract_y
_atom_site_fract_z
_atom_site_U_iso_or_equiv
_atom_site_adp_type
_atom_site_occupancy
_atom_site_site_symmetry_order
_atom_site_calc_flag
_atom_site_refinement_flags_posn
F1 F 1.0891(2) 0.24349(16) 0.33310(13) 0.0341(4) Uani 1 1 d .
O1 O 0.3673(3) 0.54262(18) 0.14586(15) 0.0288(4) Uani 1 1 d .
O2 O 0.7495(3) 0.38418(19) 0.49351(14) 0.0306(4) Uani 1 1 d .
N1 N 0.8130(4) 0.8523(2) 0.11141(19) 0.0323(5) Uani 1 1 d .
N2 N 0.7044(3) 0.4065(2) 0.11088(18) 0.0221(4) Uani 1 1 d .
H2 H 0.688(4) 0.418(3) 0.026(2) 0.027(6) Uiso 1 1 d .
N3 N 0.5628(3) 0.4626(2) 0.31819(17) 0.0230(4) Uani 1 1 d .
H3 H 0.449(4) 0.508(3) 0.370(2) 0.034(7) Uiso 1 1 d .
C1 C 0.9453(4) 0.7947(3) 0.2003(3) 0.0355(6) Uani 1 1 d .
H1 H 1.0779 0.7362 0.1708 0.043 Uiso 1 1 calc R
C2 C 0.9032(4) 0.8143(3) 0.3317(2) 0.0357(6) Uani 1 1 d .
H2A H 1.0032 0.7711 0.3908 0.043 Uiso 1 1 calc R
C3 C 0.7112(5) 0.8986(3) 0.3737(2) 0.0402(7) Uani 1 1 d .
H3A H 0.6747 0.9145 0.4632 0.048 Uiso 1 1 calc R
C4 C 0.5717(4) 0.9600(3) 0.2849(2) 0.0345(6) Uani 1 1 d .
H4 H 0.4387 1.0191 0.3129 0.041 Uiso 1 1 calc R
C5 C 0.6265(4) 0.9351(3) 0.1549(2) 0.0252(5) Uani 1 1 d .
C6 C 0.4768(4) 1.0024(3) 0.0612(2) 0.0304(6) Uani 1 1 d .
H6 H 0.3372 1.0526 0.0908 0.037 Uiso 1 1 calc R
C7 C 0.8891(4) 0.3285(3) 0.1576(2) 0.0238(5) Uani 1 1 d .
H7 H 1.0020 0.2809 0.0999 0.029 Uiso 1 1 calc R
C8 C 0.9090(4) 0.3198(2) 0.2845(2) 0.0231(5) Uani 1 1 d .
C9 C 0.7416(4) 0.3893(3) 0.3759(2) 0.0223(5) Uani 1 1 d .
C10 C 0.5350(4) 0.4747(2) 0.1879(2) 0.0213(5) Uani 1 1 d .
loop_
_atom_site_aniso_label
_atom_site_aniso_U_11
_atom_site_aniso_U_22
_atom_site_aniso_U_33
_atom_site_aniso_U_23
_atom_site_aniso_U_13
_atom_site_aniso_U_12
F1 0.0312(7) 0.0457(9) 0.0322(7) 0.0183(6) 0.0070(6) 0.0222(6)
O1 0.0298(9) 0.0382(10) 0.0256(8) 0.0156(7) 0.0093(7) 0.0195(8)
O2 0.0347(9) 0.0422(10) 0.0215(9) 0.0148(7) 0.0099(7) 0.0180(8)
N1 0.0365(11) 0.0342(12) 0.0289(11) 0.0113(9) 0.0089(9) 0.0094(10)
N2 0.0263(10) 0.0279(11) 0.0152(10) 0.0088(8) 0.0058(7) 0.0103(8)
N3 0.0249(10) 0.0299(11) 0.0185(9) 0.0109(8) 0.0072(8) 0.0122(9)
C1 0.0304(13) 0.0335(14) 0.0437(15) 0.0104(12) 0.0090(11) 0.0154(11)
C2 0.0357(14) 0.0380(16) 0.0344(14) 0.0162(12) -0.0039(11) 0.0085(12)
C3 0.0484(16) 0.0515(17) 0.0245(13) 0.0154(12) 0.0085(11) 0.0123(13)
C4 0.0341(13) 0.0377(15) 0.0340(14) 0.0101(11) 0.0097(11) 0.0187(12)
C5 0.0266(12) 0.0210(12) 0.0273(12) 0.0075(9) 0.0014(10) 0.0051(10)
C6 0.0282(12) 0.0302(13) 0.0332(13) 0.0086(11) 0.0072(10) 0.0090(10)
C7 0.0213(11) 0.0253(13) 0.0249(12) 0.0056(9) 0.0076(9) 0.0070(10)
C8 0.0225(11) 0.0233(12) 0.0253(12) 0.0092(9) 0.0030(9) 0.0103(10)
C9 0.0234(11) 0.0230(12) 0.0218(12) 0.0083(9) 0.0035(9) 0.0061(10)
C10 0.0243(11) 0.0194(12) 0.0220(11) 0.0074(9) 0.0061(9) 0.0061(10)
loop_
_atom_type_symbol
_atom_type_description
_atom_type_scat_dispersion_real
_atom_type_scat_dispersion_imag
_atom_type_scat_source
C C 0.0033 0.0016 'International Tables Vol C Tables 4.2.6.8 and 6.1.1.4'
H H 0.0000 0.0000 'International Tables Vol C Tables 4.2.6.8 and 6.1.1.4'
F F 0.0171 0.0103 'International Tables Vol C Tables 4.2.6.8 and 6.1.1.4'
N N 0.0061 0.0033 'International Tables Vol C Tables 4.2.6.8 and 6.1.1.4'
O O 0.0106 0.0060 'International Tables Vol C Tables 4.2.6.8 and 6.1.1.4'
loop_
_geom_angle_atom_site_label_1
_geom_angle_atom_site_label_2
_geom_angle_atom_site_label_3
_geom_angle
_geom_angle_site_symmetry_1
C1 N1 C5 116.87(19) .
C7 N2 H2 122.2(13) .
C10 N2 H2 114.9(13) .
C10 N2 C7 122.86(18) .
C9 N3 H3 117.7(14) .
C9 N3 C10 126.77(17) .
C10 N3 H3 115.5(14) .
N1 C1 H1 117.6 .
N1 C1 C2 124.7(2) .
C2 C1 H1 117.6 .
C1 C2 H2A 121.3 .
C3 C2 C1 117.4(2) .
C3 C2 H2A 121.3 .
C2 C3 H3A 120.3 .
C2 C3 C4 119.4(2) .
C4 C3 H3A 120.3 .
C3 C4 H4 120.2 .
C3 C4 C5 119.5(2) .
C5 C4 H4 120.2 .
N1 C5 C4 122.1(2) .
N1 C5 C6 118.92(19) .
C4 C5 C6 119.01(19) .
C5 C6 H6 117.7 .
C6 C6 C5 124.6(3) 2_675
C6 C6 H6 117.7 2_675
N2 C7 H7 120.1 .
C8 C7 N2 119.83(18) .
C8 C7 H7 120.1 .
F1 C8 C9 116.75(18) .
C7 C8 F1 121.05(18) .
C7 C8 C9 122.21(19) .
O2 C9 N3 121.72(18) .
O2 C9 C8 125.19(19) .
N3 C9 C8 113.08(18) .
O1 C10 N2 123.11(19) .
O1 C10 N3 121.64(18) .
N2 C10 N3 115.25(18) .
loop_
_geom_bond_atom_site_label_1
_geom_bond_atom_site_label_2
_geom_bond_distance
_geom_bond_site_symmetry_2
F1 C8 1.357(2) .
O1 C10 1.231(2) .
O2 C9 1.234(2) .
N1 C1 1.339(3) .
N1 C5 1.344(3) .
N2 H2 0.92(2) .
N2 C7 1.377(3) .
N2 C10 1.360(3) .
N3 H3 0.92(2) .
N3 C9 1.378(3) .
N3 C10 1.381(3) .
C1 H1 0.9500 .
C1 C2 1.379(3) .
C2 H2A 0.9500 .
C2 C3 1.371(3) .
C3 H3A 0.9500 .
C3 C4 1.378(3) .
C4 H4 0.9500 .
C4 C5 1.381(3) .
C5 C6 1.475(3) .
C6 C6 1.322(5) 2_675
C6 H6 0.9500 .
C7 H7 0.9500 .
C7 C8 1.336(3) .
C8 C9 1.442(3) .
loop_
_geom_hbond_atom_site_label_D
_geom_hbond_atom_site_label_H
_geom_hbond_atom_site_label_A
_geom_hbond_distance_DH
_geom_hbond_distance_HA
_geom_hbond_distance_DA
_geom_hbond_angle_DHA
_geom_hbond_site_symmetry_A
N2 H2 O1 0.92(2) 1.91(2) 2.823(3) 174(2) 2_665
N3 H3 O2 0.92(2) 1.95(2) 2.863(2) 171(2) 2_666
C1 H1 O1 0.95 2.39 3.298(3) 160.7 1_655
C2 H2A O2 0.95 2.44 3.381(3) 169.4 2_766
C7 H7 N1 0.95 2.54 3.451(3) 161.9 2_765
loop_
_geom_torsion_atom_site_label_1
_geom_torsion_atom_site_label_2
_geom_torsion_atom_site_label_3
_geom_torsion_atom_site_label_4
_geom_torsion
_geom_torsion_site_symmetry_4
F1 C8 C9 O2 -0.2(3) .
F1 C8 C9 N3 -179.25(18) .
N1 C1 C2 C3 0.2(4) .
N1 C5 C6 C6 -5.3(4) 2_675
N2 C7 C8 F1 179.93(19) .
N2 C7 C8 C9 0.3(3) .
C1 N1 C5 C4 -0.2(3) .
C1 N1 C5 C6 179.4(2) .
C1 C2 C3 C4 -0.4(4) .
C2 C3 C4 C5 0.3(4) .
C3 C4 C5 N1 0.0(4) .
C3 C4 C5 C6 -179.6(2) .
C4 C5 C6 C6 174.3(3) 2_675
C5 N1 C1 C2 0.1(4) .
C7 N2 C10 O1 -178.9(2) .
C7 N2 C10 N3 0.9(3) .
C7 C8 C9 O2 179.4(2) .
C7 C8 C9 N3 0.4(3) .
C9 N3 C10 O1 179.7(2) .
C9 N3 C10 N2 -0.2(3) .
C10 N2 C7 C8 -1.0(3) .
C10 N3 C9 O2 -179.6(2) .
C10 N3 C9 C8 -0.5(3) .
