#------------------------------------------------------------------------------
#$Date: 2020-03-05 01:40:03 +0200 (Thu, 05 Mar 2020) $
#$Revision: 248841 $
#$URL: file:///home/coder/svn-repositories/cod/cif/7/12/57/7125782.cif $
#------------------------------------------------------------------------------
#
# This file is available in the Crystallography Open Database (COD),
# http://www.crystallography.net/
#
# All data on this site have been placed in the public domain by the
# contributors.
#
data_7125782
loop_
_publ_author_name
'Hill, Anthony F.'
'Watson, Lachlan J.'
_publ_section_title
;
 A heterobimetallic cumulenic \m-carbido complex.
;
_journal_issue                   15
_journal_name_full
'Chemical communications (Cambridge, England)'
_journal_page_first              2356
_journal_page_last               2359
_journal_paper_doi               10.1039/c9cc08172k
_journal_volume                  56
_journal_year                    2020
_chemical_formula_moiety         'C14 H10 O4 Re2 Se'
_chemical_formula_sum            'C14 H10 O4 Re2 Se'
_chemical_formula_weight         693.58
_chemical_properties_physical
Air-sensitive,Heat-sensitive,Oxygen-sensitive,Light-sensitive
_space_group_crystal_system      triclinic
_space_group_IT_number           2
_space_group_name_Hall           '-P 1'
_space_group_name_H-M_alt        'P -1'
_atom_sites_solution_hydrogens   geom
_audit_creation_date             2019-10-13
_audit_creation_method
;
Olex2 1.2
(compiled 2018.05.29 svn.r3508 for OlexSys, GUI svn.r5506)
;
_audit_update_record
;
2019-10-13 deposited with the CCDC.	2020-01-13 downloaded from the CCDC.
;
_cell_angle_alpha                103.629(6)
_cell_angle_beta                 95.575(6)
_cell_angle_gamma                104.678(6)
_cell_formula_units_Z            2
_cell_length_a                   7.4306(5)
_cell_length_b                   7.9327(6)
_cell_length_c                   13.4641(11)
_cell_measurement_reflns_used    2850
_cell_measurement_temperature    150.00(10)
_cell_measurement_theta_max      28.3760
_cell_measurement_theta_min      4.3550
_cell_volume                     735.66(10)
_computing_cell_refinement       'CrysAlisPro 1.171.40.36a (Rigaku OD, 2018)'
_computing_data_collection       'CrysAlisPro 1.171.40.36a (Rigaku OD, 2018)'
_computing_data_reduction        'CrysAlisPro 1.171.40.36a (Rigaku OD, 2018)'
_computing_molecular_graphics    'Olex2 (Dolomanov et al., 2009)'
_computing_publication_material  'Olex2 (Dolomanov et al., 2009)'
_computing_structure_refinement  'ShelXL (Sheldrick, 2015)'
_computing_structure_solution    'SHELXT 2014/5 (Sheldrick, 2014)'
_diffrn_ambient_environment      N~2~
_diffrn_ambient_temperature      150.00(10)
_diffrn_detector                 'CCD plate'
_diffrn_detector_area_resol_mean 5.1872
_diffrn_detector_type            Atlas
_diffrn_measured_fraction_theta_full 0.997
_diffrn_measured_fraction_theta_max 0.957
_diffrn_measurement_details
;
List of Runs (angles in degrees, time in seconds):

  # Type    Start    End  Width  t~exp~   \w     \q     \k     \f   Frames
#--------------------------------------------------------------------------
  1  \w    -13.00  32.00   1.00  225.00    --   -8.38 -99.00-120.00   45
  2  \w    -46.00  37.00   1.00  225.00    --    8.77 -57.00  90.00   83
  3  \w    -32.00  83.00   1.00  225.00    --    8.77  19.00  90.00  115
  4  \w      2.00  48.00   1.00  225.00    --    8.77 -99.00-120.00   46
;
_diffrn_measurement_device       'four-circle diffractometer'
_diffrn_measurement_device_type  'New Xcalibur, Atlas'
_diffrn_measurement_method       '\w scans'
_diffrn_orient_matrix_type
'CrysAlisPro convention (1999,Acta A55,543-557)'
_diffrn_orient_matrix_UB_11      0.0266794000
_diffrn_orient_matrix_UB_12      0.0448693000
_diffrn_orient_matrix_UB_13      -0.0383358000
_diffrn_orient_matrix_UB_21      0.0510349000
_diffrn_orient_matrix_UB_22      0.0792110000
_diffrn_orient_matrix_UB_23      0.0393978000
_diffrn_orient_matrix_UB_31      0.0818518000
_diffrn_orient_matrix_UB_32      -0.0304844000
_diffrn_orient_matrix_UB_33      -0.0008539000
_diffrn_radiation_monochromator  graphite
_diffrn_radiation_probe          x-ray
_diffrn_radiation_type           MoK\a
_diffrn_radiation_wavelength     0.71073
_diffrn_reflns_av_R_equivalents  0.0378
_diffrn_reflns_av_unetI/netI     0.0554
_diffrn_reflns_Laue_measured_fraction_full 0.997
_diffrn_reflns_Laue_measured_fraction_max 0.957
_diffrn_reflns_limit_h_max       9
_diffrn_reflns_limit_h_min       -9
_diffrn_reflns_limit_k_max       8
_diffrn_reflns_limit_k_min       -9
_diffrn_reflns_limit_l_max       16
_diffrn_reflns_limit_l_min       -14
_diffrn_reflns_number            5879
_diffrn_reflns_point_group_measured_fraction_full 0.997
_diffrn_reflns_point_group_measured_fraction_max 0.957
_diffrn_reflns_theta_full        25.242
_diffrn_reflns_theta_max         26.370
_diffrn_reflns_theta_min         3.367
_diffrn_source                   'fine-focus sealed X-ray tube'
_diffrn_source_type              'Enhance (Mo) X-ray Source'
_exptl_absorpt_coefficient_mu    18.924
_exptl_absorpt_correction_T_max  1.00000
_exptl_absorpt_correction_T_min  0.86674
_exptl_absorpt_correction_type   multi-scan
_exptl_absorpt_process_details
;
CrysAlisPro 1.171.40.36a (Rigaku Oxford Diffraction, 2018)
Empirical absorption correction using spherical harmonics,
 implemented in SCALE3 ABSPACK scaling algorithm.
;
_exptl_crystal_colour            'clear light green'
_exptl_crystal_colour_lustre     clear
_exptl_crystal_colour_modifier   light
_exptl_crystal_colour_primary    green
_exptl_crystal_density_diffrn    3.131
_exptl_crystal_description       block
_exptl_crystal_F_000             620
_exptl_crystal_recrystallization_method
'Re-crystallisation from solvent: dichloromethane'
_exptl_crystal_size_max          0.072
_exptl_crystal_size_mid          0.056
_exptl_crystal_size_min          0.029
_refine_diff_density_max         1.990
_refine_diff_density_min         -1.554
_refine_diff_density_rms         0.241
_refine_ls_extinction_method     none
_refine_ls_goodness_of_fit_ref   1.017
_refine_ls_hydrogen_treatment    constr
_refine_ls_matrix_type           full
_refine_ls_number_parameters     190
_refine_ls_number_reflns         2872
_refine_ls_number_restraints     0
_refine_ls_restrained_S_all      1.017
_refine_ls_R_factor_all          0.0447
_refine_ls_R_factor_gt           0.0310
_refine_ls_shift/su_max          0.001
_refine_ls_shift/su_mean         0.000
_refine_ls_structure_factor_coef Fsqd
_refine_ls_weighting_details
'w=1/[\s^2^(Fo^2^)+(0.0082P)^2^] where P=(Fo^2^+2Fc^2^)/3'
_refine_ls_weighting_scheme      calc
_refine_ls_wR_factor_gt          0.0466
_refine_ls_wR_factor_ref         0.0504
_reflns_Friedel_coverage         0.000
_reflns_number_gt                2329
_reflns_number_total             2872
_reflns_threshold_expression     'I > 2\s(I)'
_cod_data_source_file            c9cc08172k3.cif
_cod_data_source_block           Compound_6
_cod_depositor_comments
'Adding full bibliography for 7125781--7125782.cif.'
_cod_database_code               7125782
_shelx_shelxl_version_number     2016/6
_chemical_oxdiff_formula         'C14 H10 O4 Re2 Se'
_chemical_oxdiff_usercomment     'benx/hex liq diff -20'
_shelx_space_group_comment
;
The symmetry employed for this shelxl refinement is uniquely defined
by the following loop, which should always be used as a source of
symmetry information in preference to the above space-group names.
They are only intended as comments.
;
_reflns_odcompleteness_completeness 99.77
_reflns_odcompleteness_iscentric 1
_reflns_odcompleteness_theta     24.97
_olex2_refinement_description
;
1. Fixed Uiso
 At 1.2 times of:
  All C(H) groups
2.a Aromatic/amide H refined with riding coordinates:
 C14(H14), C13(H13), C5(H5), C8(H8), C9(H9), C6(H6), C10(H10), C11(H11),
 C12(H12), C7(H7)
;
_shelx_res_file
;
TITL ljw-223-green-3_scale_a.res in P-1
    ljw-223-green-3_scale.res
    created by SHELXL-2016/6 at 12:11:08 on 13-Oct-2019
REM Old TITL
REM SHELXT solution in P-1
REM R1 0.057, Rweak 0.004, Alpha 0.040, Orientation as input
REM Formula found by SHELXT: C14 O4 Se Re2
CELL 0.71073 7.4306 7.9327 13.4641 103.629 95.575 104.678
ZERR 2 0.0005 0.0006 0.0011 0.006 0.006 0.006
LATT 1
SFAC C H O Re Se
UNIT 28 20 8 4 2

L.S. 10
PLAN  20
BOND $H
list 4
fmap 2
ACTA
SHEL 100 0.8
OMIT 0 3 0
REM <olex2.extras>
REM <HklSrc "%.\\LJW-223-green-3_scale.hkl">
REM </olex2.extras>

WGHT    0.008200
FVAR       0.33730
RE0A  4    0.510351    0.179940    0.275722    11.00000    0.01589    0.01306 =
         0.01614    0.00551    0.00466    0.00481
RE1   4    0.807494    0.475343    0.235797    11.00000    0.01250    0.01672 =
         0.01389    0.00632    0.00259    0.00379
SE1   5    0.486346    0.485792    0.271395    11.00000    0.01567    0.01472 =
         0.02666    0.00759    0.00598    0.00668
O004  3    1.040115    0.312817    0.366448    11.00000    0.01977    0.05523 =
         0.04457    0.03399    0.01033    0.01894
O2    3    0.673487   -0.035977    0.106828    11.00000    0.04411    0.02134 =
         0.03475   -0.00112    0.01690    0.01424
O1    3    0.162198    0.059151    0.107659    11.00000    0.02841    0.02902 =
         0.03646    0.00386   -0.00766    0.00272
O3    3    0.933103    0.800843    0.426002    11.00000    0.03279    0.01996 =
         0.02371   -0.00060    0.00526    0.00001
C2    1    0.617537    0.055359    0.170294    11.00000    0.02081    0.01764 =
         0.04022    0.01958    0.00988    0.00934
C1    1    0.296832    0.109363    0.169916    11.00000    0.02799    0.01838 =
         0.02078    0.01068    0.00860    0.00720
C14   1    0.725983    0.361057    0.057928    11.00000    0.02883    0.01839 =
         0.01237    0.00276    0.00249   -0.00194
AFIX  43
H14   2    0.621235    0.262549    0.027096    11.00000   -1.20000
AFIX   0
C13   1    0.732071    0.545053    0.081765    11.00000    0.02085    0.03697 =
         0.01756    0.01426    0.00634    0.01464
AFIX  43
H13   2    0.631284    0.590124    0.067646    11.00000   -1.20000
AFIX   0
C4    1    0.947246    0.371957    0.318729    11.00000    0.01435    0.02604 =
         0.02354    0.00319    0.01027    0.00322
C5    1    0.336315    0.071518    0.388884    11.00000    0.01882    0.02201 =
         0.02604    0.00998    0.00720    0.00437
AFIX  43
H5    2    0.205253    0.033601    0.373407    11.00000   -1.20000
AFIX   0
C3    1    0.883085    0.673861    0.355000    11.00000    0.02318    0.03431 =
         0.01816    0.02104    0.00732    0.00890
C8    1    0.639000    0.250733    0.450583    11.00000    0.01896    0.02994 =
         0.00757    0.00323   -0.00197    0.00115
AFIX  43
H8    2    0.742491    0.349623    0.482987    11.00000   -1.20000
AFIX   0
C9    1    0.448021    0.247508    0.444971    11.00000    0.02848    0.03139 =
         0.01801    0.01038    0.01041    0.01313
AFIX  43
H9    2    0.402964    0.344380    0.473258    11.00000   -1.20000
AFIX   0
C6    1    0.456966   -0.036936    0.360330    11.00000    0.04322    0.02301 =
         0.01997    0.00851    0.00869    0.00533
AFIX  43
H6    2    0.420644   -0.158704    0.323973    11.00000   -1.20000
AFIX   0
C10   1    0.910893    0.355671    0.090186    11.00000    0.03726    0.03817 =
         0.02523    0.02439    0.02292    0.03045
AFIX  43
H10   2    0.949505    0.251339    0.083127    11.00000   -1.20000
AFIX   0
C11   1    1.024988    0.530572    0.133910    11.00000    0.01829    0.06302 =
         0.02673    0.02117    0.00869    0.00757
AFIX  43
H11   2    1.152762    0.563796    0.161066    11.00000   -1.20000
AFIX   0
C12   1    0.914672    0.648927    0.130182    11.00000    0.02442    0.02424 =
         0.01958    0.01097    0.00319   -0.00612
AFIX  43
H12   2    0.955609    0.774332    0.155428    11.00000   -1.20000
AFIX   0
C7    1    0.644570    0.075955    0.397887    11.00000    0.03306    0.04290 =
         0.02852    0.02590    0.01662    0.02500
AFIX  43
H7    2    0.753459    0.040599    0.389211    11.00000   -1.20000
AFIX   0
HKLF 4




REM  ljw-223-green-3_scale_a.res in P-1
REM R1 =  0.0310 for    2329 Fo > 4sig(Fo)  and  0.0447 for all    2872 data
REM    190 parameters refined using      0 restraints

END

WGHT      0.0082      0.0000

REM Highest difference peak  1.990,  deepest hole -1.554,  1-sigma level  0.241
Q1    1   0.6226  0.2858  0.2727  11.00000  0.05    1.99
Q2    1   0.7122  0.3677  0.2399  11.00000  0.05    1.95
Q3    1   0.4133  0.0762  0.2850  11.00000  0.05    1.78
Q4    1   0.8860  0.4222  0.1996  11.00000  0.05    1.47
Q5    1   0.5841  0.1310  0.2396  11.00000  0.05    1.46
Q6    1   0.8994  0.5760  0.2292  11.00000  0.05    1.39
Q7    1   0.7163  0.5211  0.2682  11.00000  0.05    1.20
Q8    1   0.4352  0.1227  0.2042  11.00000  0.05    1.10
Q9    1   0.4259  0.2365  0.3118  11.00000  0.05    0.99
Q10   1   0.6115  0.6007  0.2766  11.00000  0.05    0.95
Q11   1   0.8666  0.5263  0.3029  11.00000  0.05    0.90
Q12   1   0.8732  0.6167  0.3864  11.00000  0.05    0.88
Q13   1   0.5584  0.4112  0.2386  11.00000  0.05    0.87
Q14   1   0.7836  0.0932  0.1025  11.00000  0.05    0.84
Q15   1   0.7223  0.4197  0.1733  11.00000  0.05    0.83
Q16   1   1.0945  0.9108  0.2241  11.00000  0.05    0.83
Q17   1   0.9704  0.1848  0.3256  11.00000  0.05    0.78
Q18   1   0.5673  0.3633  0.5046  11.00000  0.05    0.76
Q19   1   1.2983  0.8250  0.1621  11.00000  0.05    0.73
Q20   1   0.7655  0.2725  0.4438  11.00000  0.05    0.73
;
_shelx_res_checksum              69667
_ins_header
;
TITL LJW-223-green-3_scale in P1 
REM P1 (#1 in standard setting)
CELL 0.71073   7.430555   7.932695  13.464079 103.6285  95.5750 104.6780
ZERR    2.00   0.000455   0.000552   0.001082   0.0064   0.0059   0.0057
LATT -1
SFAC C H O Se Re
UNIT 28.00 20.00 8.00 2.00 4.00
TREF
HKLF 4
END
;
_olex2_submission_special_instructions 'No special instructions were received'
_oxdiff_exptl_absorpt_empirical_details
;
Empirical correction (ABSPACK) includes:
- Absorption correction using spherical harmonics
- Frame scaling
;
_oxdiff_exptl_absorpt_empirical_full_max 1.380
_oxdiff_exptl_absorpt_empirical_full_min 0.865
loop_
_space_group_symop_operation_xyz
'x, y, z'
'-x, -y, -z'
loop_
_atom_site_label
_atom_site_type_symbol
_atom_site_fract_x
_atom_site_fract_y
_atom_site_fract_z
_atom_site_U_iso_or_equiv
_atom_site_adp_type
_atom_site_occupancy
_atom_site_site_symmetry_order
_atom_site_calc_flag
_atom_site_refinement_flags_posn
Re0A Re 0.51035(4) 0.17994(4) 0.27572(2) 0.01449(9) Uani 1 1 d .
Re1 Re 0.80749(4) 0.47534(4) 0.23580(2) 0.01403(9) Uani 1 1 d .
Se1 Se 0.48635(10) 0.48579(11) 0.27139(6) 0.01805(18) Uani 1 1 d .
O004 O 1.0401(8) 0.3128(9) 0.3664(5) 0.0343(16) Uani 1 1 d .
O2 O 0.6735(8) -0.0360(8) 0.1068(4) 0.0333(15) Uani 1 1 d .
O1 O 0.1622(8) 0.0592(8) 0.1077(5) 0.0341(15) Uani 1 1 d .
O3 O 0.9331(8) 0.8008(8) 0.4260(4) 0.0280(14) Uani 1 1 d .
C2 C 0.6175(11) 0.0554(12) 0.1703(7) 0.0231(19) Uani 1 1 d .
C1 C 0.2968(11) 0.1094(11) 0.1699(6) 0.0210(18) Uani 1 1 d .
C14 C 0.7260(11) 0.3611(11) 0.0579(6) 0.0218(19) Uani 1 1 d .
H14 H 0.621235 0.262549 0.027096 0.026 Uiso 1 1 calc R
C13 C 0.7321(11) 0.5451(12) 0.0818(6) 0.022(2) Uani 1 1 d .
H13 H 0.631284 0.590124 0.067646 0.027 Uiso 1 1 calc R
C4 C 0.9472(10) 0.3720(12) 0.3187(6) 0.0219(19) Uani 1 1 d .
C5 C 0.3363(11) 0.0715(11) 0.3889(6) 0.0217(19) Uani 1 1 d .
H5 H 0.205253 0.033601 0.373407 0.026 Uiso 1 1 calc R
C3 C 0.8831(11) 0.6739(13) 0.3550(6) 0.022(2) Uani 1 1 d .
C8 C 0.6390(10) 0.2507(12) 0.4506(5) 0.0206(19) Uani 1 1 d .
H8 H 0.742491 0.349623 0.482987 0.025 Uiso 1 1 calc R
C9 C 0.4480(11) 0.2475(12) 0.4450(6) 0.024(2) Uani 1 1 d .
H9 H 0.402964 0.344380 0.473258 0.029 Uiso 1 1 calc R
C6 C 0.4570(12) -0.0369(13) 0.3603(6) 0.029(2) Uani 1 1 d .
H6 H 0.420644 -0.158704 0.323973 0.035 Uiso 1 1 calc R
C10 C 0.9109(12) 0.3557(13) 0.0902(6) 0.026(2) Uani 1 1 d .
H10 H 0.949505 0.251339 0.083127 0.031 Uiso 1 1 calc R
C11 C 1.0250(12) 0.5306(15) 0.1339(7) 0.035(2) Uani 1 1 d .
H11 H 1.152762 0.563796 0.161066 0.042 Uiso 1 1 calc R
C12 C 0.9147(11) 0.6489(12) 0.1302(6) 0.0244(19) Uani 1 1 d .
H12 H 0.955609 0.774332 0.155428 0.029 Uiso 1 1 calc R
C7 C 0.6446(12) 0.0760(13) 0.3979(6) 0.028(2) Uani 1 1 d .
H7 H 0.753459 0.040599 0.389211 0.034 Uiso 1 1 calc R
loop_
_atom_site_aniso_label
_atom_site_aniso_U_11
_atom_site_aniso_U_22
_atom_site_aniso_U_33
_atom_site_aniso_U_23
_atom_site_aniso_U_13
_atom_site_aniso_U_12
Re0A 0.01589(17) 0.01306(19) 0.01614(17) 0.00551(14) 0.00466(14) 0.00481(14)
Re1 0.01250(15) 0.01672(19) 0.01389(16) 0.00632(14) 0.00259(13) 0.00379(14)
Se1 0.0157(4) 0.0147(4) 0.0267(4) 0.0076(4) 0.0060(3) 0.0067(3)
O004 0.020(3) 0.055(5) 0.045(4) 0.034(4) 0.010(3) 0.019(3)
O2 0.044(4) 0.021(4) 0.035(3) -0.001(3) 0.017(3) 0.014(3)
O1 0.028(3) 0.029(4) 0.036(4) 0.004(3) -0.008(3) 0.003(3)
O3 0.033(3) 0.020(4) 0.024(3) -0.001(3) 0.005(3) 0.000(3)
C2 0.021(4) 0.018(5) 0.040(5) 0.020(4) 0.010(4) 0.009(4)
C1 0.028(5) 0.018(5) 0.021(4) 0.011(4) 0.009(4) 0.007(4)
C14 0.029(4) 0.018(5) 0.012(4) 0.003(4) 0.002(4) -0.002(4)
C13 0.021(4) 0.037(6) 0.018(4) 0.014(4) 0.006(4) 0.015(4)
C4 0.014(4) 0.026(5) 0.024(4) 0.003(4) 0.010(4) 0.003(4)
C5 0.019(4) 0.022(5) 0.026(5) 0.010(4) 0.007(4) 0.004(4)
C3 0.023(4) 0.034(6) 0.018(4) 0.021(4) 0.007(4) 0.009(4)
C8 0.019(4) 0.030(5) 0.008(4) 0.003(4) -0.002(3) 0.001(4)
C9 0.028(4) 0.031(6) 0.018(4) 0.010(4) 0.010(4) 0.013(5)
C6 0.043(5) 0.023(5) 0.020(4) 0.009(4) 0.009(4) 0.005(5)
C10 0.037(5) 0.038(6) 0.025(5) 0.024(4) 0.023(4) 0.030(5)
C11 0.018(4) 0.063(8) 0.027(5) 0.021(5) 0.009(4) 0.008(5)
C12 0.024(4) 0.024(5) 0.020(4) 0.011(4) 0.003(4) -0.006(4)
C7 0.033(5) 0.043(6) 0.029(5) 0.026(5) 0.017(4) 0.025(5)
loop_
_atom_type_symbol
_atom_type_description
_atom_type_scat_dispersion_real
_atom_type_scat_dispersion_imag
_atom_type_scat_source
C C 0.0033 0.0016 'International Tables Vol C Tables 4.2.6.8 and 6.1.1.4'
H H 0.0000 0.0000 'International Tables Vol C Tables 4.2.6.8 and 6.1.1.4'
O O 0.0106 0.0060 'International Tables Vol C Tables 4.2.6.8 and 6.1.1.4'
Re Re -1.0185 7.2310 'International Tables Vol C Tables 4.2.6.8 and 6.1.1.4'
Se Se -0.0929 2.2259 'International Tables Vol C Tables 4.2.6.8 and 6.1.1.4'
loop_
_exptl_crystal_face_index_h
_exptl_crystal_face_index_k
_exptl_crystal_face_index_l
_exptl_crystal_face_perp_dist
9 -8 -1 0.0162
-3 -8 -5 0.0141
-3 10 5 0.0103
10 -1 3 0.0215
-1 5 -18 0.0273
-8 -1 14 0.0500
-10 6 1 0.0317
4 7 -13 0.0142
4 -2 17 0.0206
loop_
_geom_angle_atom_site_label_1
_geom_angle_atom_site_label_2
_geom_angle_atom_site_label_3
_geom_angle
Se1 Re0A Re1 53.46(2)
C2 Re0A Re1 76.8(3)
C2 Re0A Se1 118.0(2)
C2 Re0A C1 83.6(3)
C2 Re0A C5 129.2(3)
C2 Re0A C8 121.8(3)
C2 Re0A C9 151.6(3)
C2 Re0A C6 95.9(3)
C2 Re0A C7 92.6(3)
C1 Re0A Re1 109.2(2)
C1 Re0A Se1 81.1(2)
C1 Re0A C5 92.6(3)
C1 Re0A C8 150.0(3)
C1 Re0A C9 115.3(3)
C1 Re0A C6 104.7(3)
C1 Re0A C7 140.8(4)
C5 Re0A Re1 148.7(2)
C5 Re0A Se1 111.24(19)
C5 Re0A C8 59.5(3)
C5 Re0A C9 35.7(3)
C8 Re0A Re1 93.3(2)
C8 Re0A Se1 97.9(2)
C8 Re0A C9 35.1(2)
C9 Re0A Re1 113.0(2)
C9 Re0A Se1 87.0(2)
C6 Re0A Re1 144.1(2)
C6 Re0A Se1 146.1(2)
C6 Re0A C5 36.3(3)
C6 Re0A C8 60.4(3)
C6 Re0A C9 60.0(3)
C6 Re0A C7 36.7(3)
C7 Re0A Re1 107.8(2)
C7 Re0A Se1 133.0(3)
C7 Re0A C5 60.1(3)
C7 Re0A C8 35.8(3)
C7 Re0A C9 59.3(3)
Se1 Re1 Re0A 53.28(2)
C14 Re1 Re0A 93.2(2)
C14 Re1 Se1 96.88(19)
C14 Re1 C13 35.3(3)
C13 Re1 Re0A 114.1(2)
C13 Re1 Se1 87.44(18)
C4 Re1 Re0A 76.8(3)
C4 Re1 Se1 118.2(2)
C4 Re1 C14 122.4(3)
C4 Re1 C13 151.5(3)
C4 Re1 C10 92.9(3)
C4 Re1 C11 95.5(3)
C4 Re1 C12 128.1(3)
C3 Re1 Re0A 109.3(2)
C3 Re1 Se1 82.2(2)
C3 Re1 C14 150.3(3)
C3 Re1 C13 115.2(3)
C3 Re1 C4 82.7(3)
C3 Re1 C10 140.8(4)
C3 Re1 C11 105.7(4)
C3 Re1 C12 92.9(3)
C10 Re1 Re0A 107.5(3)
C10 Re1 Se1 132.1(2)
C10 Re1 C14 36.0(3)
C10 Re1 C13 59.0(3)
C10 Re1 C12 59.7(3)
C11 Re1 Re0A 142.8(3)
C11 Re1 Se1 146.3(2)
C11 Re1 C14 60.0(3)
C11 Re1 C13 59.3(3)
C11 Re1 C10 35.7(3)
C11 Re1 C12 36.1(3)
C12 Re1 Re0A 149.5(2)
C12 Re1 Se1 112.28(18)
C12 Re1 C14 59.7(3)
C12 Re1 C13 35.4(3)
Re0A Se1 Re1 73.26(2)
O2 C2 Re0A 173.7(7)
O1 C1 Re0A 176.4(7)
Re1 C14 H14 122.0
C13 C14 Re1 72.8(4)
C13 C14 H14 126.8
C13 C14 C10 106.3(8)
C10 C14 Re1 70.1(4)
C10 C14 H14 126.8
Re1 C13 H13 123.9
C14 C13 Re1 71.9(4)
C14 C13 H13 125.6
C12 C13 Re1 70.1(4)
C12 C13 C14 108.7(6)
C12 C13 H13 125.6
O004 C4 Re1 176.3(7)
Re0A C5 H5 120.5
C9 C5 Re0A 74.5(5)
C9 C5 H5 125.7
C6 C5 Re0A 71.1(5)
C6 C5 H5 125.7
C6 C5 C9 108.6(7)
O3 C3 Re1 177.1(7)
Re0A C8 H8 123.4
C9 C8 Re0A 72.5(4)
C9 C8 H8 126.3
C9 C8 C7 107.4(8)
C7 C8 Re0A 69.4(4)
C7 C8 H8 126.3
Re0A C9 H9 123.6
C5 C9 Re0A 69.8(4)
C5 C9 H9 125.9
C8 C9 Re0A 72.4(4)
C8 C9 C5 108.3(7)
C8 C9 H9 125.9
Re0A C6 H6 120.6
C5 C6 Re0A 72.6(5)
C5 C6 H6 126.6
C5 C6 C7 106.7(8)
C7 C6 Re0A 72.0(5)
C7 C6 H6 126.6
Re1 C10 H10 120.9
C14 C10 Re1 73.9(4)
C14 C10 H10 125.5
C11 C10 Re1 71.4(5)
C11 C10 C14 109.0(7)
C11 C10 H10 125.5
Re1 C11 H11 120.2
C10 C11 Re1 72.8(5)
C10 C11 H11 125.9
C10 C11 C12 108.1(7)
C12 C11 Re1 72.8(5)
C12 C11 H11 125.9
Re1 C12 H12 120.2
C13 C12 Re1 74.4(5)
C13 C12 C11 107.8(8)
C13 C12 H12 126.1
C11 C12 Re1 71.1(5)
C11 C12 H12 126.1
Re0A C7 H7 120.1
C8 C7 Re0A 74.8(4)
C8 C7 C6 109.0(7)
C8 C7 H7 125.5
C6 C7 Re0A 71.3(4)
C6 C7 H7 125.5
loop_
_geom_bond_atom_site_label_1
_geom_bond_atom_site_label_2
_geom_bond_distance
Re0A Re1 2.9761(5)
Re0A Se1 2.4911(9)
Re0A C2 1.893(8)
Re0A C1 1.896(8)
Re0A C5 2.274(8)
Re0A C8 2.332(7)
Re0A C9 2.335(7)
Re0A C6 2.254(8)
Re0A C7 2.262(7)
Re1 Se1 2.4970(8)
Re1 C14 2.311(7)
Re1 C13 2.322(7)
Re1 C4 1.907(8)
Re1 C3 1.886(9)
Re1 C10 2.263(7)
Re1 C11 2.245(8)
Re1 C12 2.267(8)
O004 C4 1.153(8)
O2 C2 1.165(9)
O1 C1 1.158(9)
O3 C3 1.164(10)
C14 H14 0.9300
C14 C13 1.407(11)
C14 C10 1.415(10)
C13 H13 0.9300
C13 C12 1.398(11)
C5 H5 0.9300
C5 C9 1.415(12)
C5 C6 1.412(10)
C8 H8 0.9300
C8 C9 1.407(10)
C8 C7 1.414(12)
C9 H9 0.9300
C6 H6 0.9300
C6 C7 1.421(13)
C10 H10 0.9300
C10 C11 1.383(13)
C11 H11 0.9300
C11 C12 1.400(11)
C12 H12 0.9300
C7 H7 0.9300
loop_
_exptl_oxdiff_crystal_face_indexfrac_h
_exptl_oxdiff_crystal_face_indexfrac_k
_exptl_oxdiff_crystal_face_indexfrac_l
_exptl_oxdiff_crystal_face_x
_exptl_oxdiff_crystal_face_y
_exptl_oxdiff_crystal_face_z
9.0702 -7.6909 -1.4260 -0.0484 -0.2025 0.9781
-2.8761 -7.8718 -5.1282 -0.2333 -0.9724 0.0089
-2.6431 9.9035 4.5627 0.1989 0.8293 -0.5221
9.7848 -0.5071 2.6777 0.1356 0.5647 0.8141
-1.4596 4.7556 -18.2535 0.8742 -0.4169 -0.2489
-7.8720 -0.5196 13.7803 -0.7616 0.1000 -0.6403
-10.0309 5.8078 0.9739 -0.0444 -0.0135 -0.9989
4.2390 7.3860 -13.1927 0.9503 0.2816 0.1331
3.8172 -1.6975 16.5436 -0.6085 0.7121 0.3501
loop_
_hkl_oxdiff_h
_hkl_oxdiff_k
_hkl_oxdiff_l
_hkl_oxdiff_f2
_hkl_oxdiff_sig
_hkl_oxdiff_ba
-9 -2 1 16.1773 12.9361 3
-9 -2 2 107.034 26.0026 3
-9 -2 3 44.4480 17.4673 3
-9 -2 4 18.6877 16.4196 3
-9 -1 1 1054.48 70.5117 3
-9 -1 2 30.5293 14.6328 3
-9 -1 3 894.138 66.2244 3
-9 -1 4 20.1773 15.5908 3
-9 -1 5 577.919 55.5396 3
-9 -1 6 4.01485 13.6785 3
-9 -1 7 521.686 52.8768 3
-9 -1 8 38.2498 17.9096 3
-9 0 4 472.720 46.6413 3
-9 0 5 443.771 46.4456 3
-9 0 6 327.110 39.4428 3
-9 0 7 525.482 49.1360 3
-9 0 8 304.448 38.0949 3
-9 0 9 460.644 46.8162 3
-9 1 -1 134.038 22.5695 1
-9 1 0 -3.15196 9.65607 1
-9 2 -2 84.7488 18.6637 1
-9 2 -1 875.376 58.1478 1
-9 2 0 101.651 20.8252 1
-9 2 1 823.938 57.6087 1
-9 2 2 85.4979 19.1257 1
-9 3 -3 22.2777 11.8994 1
-9 3 -2 485.458 43.2678 1
-9 3 -1 58.0720 18.1766 1
-9 3 0 681.502 52.8679 1
-9 3 1 161.373 26.3767 1
-9 3 2 734.353 56.2485 1
-9 3 3 285.199 35.6852 1
-9 4 -4 20.7038 14.3164 1
-9 4 -3 59.2092 18.1628 1
-9 4 -2 -6.98381 13.6632 1
-9 4 -1 57.5863 17.1116 1
-9 4 0 10.7720 11.9859 1
-9 4 1 17.4113 15.6127 1
-9 4 2 107.187 23.5211 1
-9 5 -4 219.120 31.0011 1
-9 5 -3 578.477 51.4330 1
-9 5 -2 281.283 36.7020 1
-9 5 -1 611.546 52.3395 1
-9 5 0 109.269 24.3968 1
-9 6 -5 -9.86909 8.64017 1
-8 -3 1 130.061 28.9615 3
-8 -3 2 37.1901 20.7946 3
-8 -3 3 -11.7886 15.3821 3
-8 -3 4 -8.21310 17.5524 3
-8 -3 5 10.6811 21.1301 3
-8 -2 -2 343.147 40.8448 3
-8 -2 -1 100.943 24.5091 3
-8 -2 0 558.507 51.9136 3
-8 -2 1 139.516 27.2532 3
-8 -2 2 545.591 52.1703 3
-8 -2 3 102.399 25.1218 3
-8 -2 4 481.989 50.8425 3
-8 -2 5 120.128 27.1071 3
-8 -2 6 315.744 40.7452 3
-8 -2 7 79.5024 23.9583 3
-8 -2 8 235.142 36.5059 3
-8 -2 9 35.7834 19.5238 3
-8 -1 -2 46.6742 17.1530 3
-8 -1 -1 71.5155 17.9228 3
-8 -1 0 46.8886 16.2058 3
-8 -1 1 176.257 27.9344 3
-8 -1 2 240.537 33.4581 3
-8 -1 3 321.938 38.8298 3
-8 -1 4 545.501 50.3474 3
-8 -1 5 457.064 46.4161 3
-8 -1 6 798.711 61.0016 3
-8 -1 7 223.819 31.9308 3
-8 -1 8 798.507 60.3403 3
-8 -1 9 120.317 24.8697 3
-8 -1 10 884.070 64.2782 3
-8 0 -1 166.653 24.6409 3
-8 0 0 17.2156 12.6376 3
-8 0 1 44.0494 15.1328 3
-8 0 2 16.7522 12.2271 3
-8 0 3 75.8040 19.6939 3
-8 0 4 4.02600 11.8897 3
-8 0 5 273.699 33.1489 3
-8 0 6 -13.5811 12.7241 3
-8 0 7 308.942 35.0970 3
-8 0 8 39.1757 16.3166 3
-8 0 9 555.622 47.6377 3
-8 0 10 70.7262 19.3209 3
-8 0 11 612.826 52.5012 3
-8 1 -3 28.9680 10.9496 1
-8 1 -2 614.561 43.1380 1
-8 1 -1 47.0419 13.1821 3
-8 1 0 675.847 42.9094 3
-8 1 1 14.8093 8.99630 3
-8 1 2 548.538 41.8671 3
-8 1 3 47.5126 16.5370 3
-8 1 4 522.780 42.3866 3
-8 1 5 21.0010 11.3947 3
-8 1 6 143.723 22.3860 3
-8 1 7 32.6559 13.1121 3
-8 1 8 75.0208 18.2796 3
-8 1 9 5.72883 9.23938 3
-8 1 10 25.4497 17.1523 3
-8 1 11 32.9793 15.5237 3
-8 1 12 -4.14494 10.7375 3
-8 2 -4 -1.68311 8.03135 1
-8 2 -3 146.476 21.9491 1
-8 2 -2 25.9166 12.2598 1
-8 2 -1 412.352 36.3774 1
-8 2 0 186.044 26.0941 1
-8 2 0 200.766 19.9365 3
-8 2 1 565.552 35.0546 3
-8 2 1 512.970 42.8318 1
-8 2 2 522.069 35.4085 3
-8 2 3 531.391 38.3605 3
-8 2 4 671.728 43.4192 3
-8 2 5 471.493 36.0547 3
-8 2 6 659.843 43.6138 3
-8 2 7 454.748 36.9085 3
-8 2 8 660.786 46.1049 3
-8 2 9 211.352 27.0106 3
-8 2 10 472.912 41.1493 3
-8 2 11 88.3047 19.6692 3
-8 2 12 185.901 27.2631 3
-8 3 -5 353.412 33.3791 1
-8 3 -4 19.9082 11.8216 1
-8 3 -3 199.568 26.3620 1
-8 3 -2 3.34597 12.3686 1
-8 3 -1 51.1407 17.1196 1
-8 3 0 31.7842 9.99553 2
-8 3 0 32.3521 13.4400 1
-8 3 1 64.8757 20.8696 1
-8 3 2 26.9141 12.6082 1
-8 3 3 264.472 32.8826 1
-8 3 4 19.3981 11.7748 1
-8 3 5 679.025 53.7451 1
-8 3 6 -12.8223 14.4594 1
-8 3 7 824.908 61.0144 1
-8 4 -6 608.539 45.2341 1
-8 4 -5 16.9566 12.9902 1
-8 4 -4 705.564 49.6443 1
-8 4 -3 30.5327 14.3487 1
-8 4 -2 607.512 47.3942 1
-8 4 -1 54.8938 17.5119 1
-8 4 0 340.306 36.8175 1
-8 4 1 19.8293 10.8038 1
-8 4 2 134.559 24.6716 1
-8 4 3 -15.4562 12.1602 1
-8 4 4 106.486 23.2910 1
-8 4 5 -16.5123 15.3844 1
-8 4 6 2.15742 10.8286 1
-8 5 -6 19.2953 13.7730 1
-8 5 -5 217.262 28.7382 1
-8 5 -4 83.8173 21.0485 1
-8 5 -3 361.459 38.1276 1
-8 5 -2 154.596 25.9623 1
-8 5 -1 433.316 42.8532 1
-8 5 0 223.282 30.9479 1
-8 5 1 569.963 48.4655 1
-8 5 2 292.498 35.3754 1
-8 5 3 609.551 51.8783 1
-8 5 4 440.527 44.8782 1
-8 6 -5 108.782 22.5258 1
-8 6 -4 -15.2607 12.2735 1
-8 6 -3 38.3388 18.8031 1
-8 6 -2 15.4063 11.9703 1
-8 6 -1 54.2252 18.3299 1
-8 6 0 32.1271 15.2954 1
-8 6 1 204.780 29.8251 1
-8 6 2 136.791 26.7643 1
-8 7 -4 268.566 36.2827 1
-7 -4 1 151.095 30.2225 3
-7 -4 2 285.082 40.8873 3
-7 -4 3 111.003 27.1448 3
-7 -4 4 4.70640 13.0447 3
-7 -4 5 60.9331 21.7404 3
-7 -4 6 16.5997 18.6071 3
-7 -3 -2 646.877 56.1896 3
-7 -3 -1 263.388 36.6893 3
-7 -3 0 832.567 63.7848 3
-7 -3 1 91.2541 23.6981 3
-7 -3 2 881.270 67.2536 3
-7 -3 3 29.6515 16.7006 3
-7 -3 4 846.870 68.6986 3
-7 -3 5 35.8205 19.8223 3
-7 -3 6 498.407 50.9955 3
-7 -3 7 13.6656 14.9393 3
-7 -3 8 182.086 31.8971 3
-7 -3 9 6.27337 14.9441 3
-7 -2 -2 32.7342 13.5329 3
-7 -2 -1 66.7286 18.4934 3
-7 -2 0 7.55139 12.0612 3
-7 -2 1 184.350 30.1313 3
-7 -2 2 9.08315 14.2929 3
-7 -2 3 473.710 47.7516 3
-7 -2 4 7.25170 14.2019 3
-7 -2 5 720.431 57.5902 3
-7 -2 6 5.44050 14.7589 3
-7 -2 7 717.547 56.1591 3
-7 -2 8 53.3466 19.4650 3
-7 -2 9 753.928 58.1195 3
-7 -2 10 8.50992 11.8612 3
-7 -2 11 533.396 50.5262 3
-7 -1 -2 714.342 43.0763 4
-7 -1 -2 756.317 52.6763 3
-7 -1 -1 81.8036 20.4688 3
-7 -1 0 305.930 34.0081 3
-7 -1 1 61.7785 18.3271 3
-7 -1 2 131.993 24.5321 3
-7 -1 3 22.8048 12.9281 3
-7 -1 4 42.8913 17.6844 3
-7 -1 5 13.9412 11.8620 3
-7 -1 6 150.278 25.5886 3
-7 -1 7 13.1815 10.8739 3
-7 -1 8 161.983 25.5609 3
-7 -1 9 126.072 22.0841 3
-7 -1 10 382.534 40.1706 3
-7 -1 11 243.424 33.0341 3
-7 -1 12 430.263 44.0304 3
-7 0 -4 661.228 38.0357 1
-7 0 -3 651.687 39.6585 4
-7 0 -2 1042.87 56.9081 3
-7 0 -2 903.025 48.7295 4
-7 0 -1 404.549 32.9761 4
-7 0 -1 442.636 36.7571 3
-7 0 0 1268.33 64.3138 3
-7 0 1 155.242 23.8095 3
-7 0 2 1136.34 63.7560 3
-7 0 3 214.180 27.9692 3
-7 0 4 764.294 49.9726 3
-7 0 5 42.7588 13.6421 3
-7 0 6 495.342 40.0992 3
-7 0 7 34.7915 15.3361 3
-7 0 8 128.888 22.8261 3
-7 0 9 5.05978 9.57411 3
-7 0 10 60.2320 17.9800 3
-7 0 11 31.9137 16.1341 3
-7 0 12 99.8073 22.3479 3
-7 1 -5 77.9115 14.0788 1
-7 1 -4 16.4865 8.65610 1
-7 1 -4 18.0119 9.66609 4
-7 1 -3 299.000 27.0818 1
-7 1 -3 295.695 26.8132 4
-7 1 -2 -3.20155 9.07300 1
-7 1 -2 -5.61096 7.02729 4
-7 1 -1 525.611 38.1281 4
-7 1 -1 572.995 37.0403 3
-7 1 0 -23.8943 10.2283 3
-7 1 1 895.656 49.3438 3
-7 1 2 29.2992 13.0109 3
-7 1 3 1290.55 61.6497 3
-7 1 4 7.87306 8.82435 3
-7 1 5 930.933 51.2563 3
-7 1 6 6.22739 9.21451 3
-7 1 7 689.523 45.6812 3
-7 1 8 -4.68784 9.40336 3
-7 1 9 616.510 44.7603 3
-7 1 10 32.5370 13.4909 3
-7 1 11 239.662 29.6802 3
-7 1 12 22.3672 13.2099 3
-7 1 13 147.191 25.9763 3
-7 2 -6 694.829 40.1232 1
-7 2 -5 11.1444 9.82760 1
-7 2 -5 -9.41818 7.31760 4
-7 2 -4 630.656 39.8697 1
-7 2 -4 586.019 38.4554 4
-7 2 -3 -5.71505 8.00572 4
-7 2 -3 -0.03048 8.36331 1
-7 2 -2 283.161 27.8450 2
-7 2 -2 266.130 26.7906 1
-7 2 -2 324.327 29.4057 4
-7 2 -1 1.28119 5.89303 3
-7 2 -1 -4.57723 6.94971 2
-7 2 -1 9.37115 9.98982 1
-7 2 0 39.9784 13.1244 1
-7 2 0 35.4421 11.1928 2
-7 2 0 28.4460 9.32253 3
-7 2 1 -3.97562 6.87767 3
-7 2 1 22.9272 10.1800 2
-7 2 2 1.45155 7.50847 3
-7 2 2 32.6670 10.4732 2
-7 2 3 15.8737 9.79780 3
-7 2 4 99.0773 15.5530 3
-7 2 5 32.9714 12.2592 3
-7 2 6 307.000 27.4089 3
-7 2 7 56.6767 14.0635 3
-7 2 8 609.036 41.5745 3
-7 2 9 48.4104 14.7200 3
-7 2 10 657.468 46.6864 3
-7 2 11 162.106 24.5136 3
-7 2 12 385.505 39.1843 3
-7 2 13 162.329 27.0648 3
-7 3 -7 905.910 49.3191 1
-7 3 -6 628.153 40.7910 1
-7 3 -5 833.708 47.6078 1
-7 3 -5 798.870 46.7560 4
-7 3 -4 673.743 43.8635 4
-7 3 -4 725.642 45.0459 1
-7 3 -3 703.738 45.2709 1
-7 3 -3 690.055 44.2536 4
-7 3 -2 642.788 43.9372 1
-7 3 -2 693.579 43.5851 2
-7 3 -1 620.856 39.1176 2
-7 3 -1 665.995 45.8925 1
-7 3 0 770.064 50.1684 1
-7 3 0 783.921 42.4691 2
-7 3 1 402.920 36.5563 1
-7 3 1 336.718 25.5893 2
-7 3 1 350.778 19.7455 3
-7 3 2 862.614 37.1488 3
-7 3 2 747.133 36.8519 2
-7 3 2 800.780 52.0276 1
-7 3 3 45.4851 9.33214 3
-7 3 3 55.4312 8.77624 2
-7 3 3 54.9529 16.6792 1
-7 3 4 345.753 24.9879 3
-7 3 4 308.997 33.1872 1
-7 3 4 322.644 18.8079 2
-7 3 5 -10.0514 7.73636 3
-7 3 5 -13.3116 12.1555 1
-7 3 6 84.0650 15.1734 3
-7 3 7 8.66731 7.48977 3
-7 3 8 7.13909 8.16679 3
-7 3 9 81.1883 15.9344 3
-7 3 10 40.5505 13.8935 3
-7 3 11 62.5674 15.9554 3
-7 3 12 226.510 29.7317 3
-7 4 -6 4.38069 9.62718 1
-7 4 -5 347.133 33.9662 1
-7 4 -4 -7.58542 10.3386 1
-7 4 -3 738.366 49.0664 1
-7 4 -2 25.9137 14.5461 1
-7 4 -1 1036.30 51.4989 2
-7 4 -1 1026.94 59.5683 1
-7 4 0 70.1688 13.7512 2
-7 4 0 60.4901 15.1618 1
-7 4 1 961.934 57.8072 1
-7 4 1 879.789 42.8851 2
-7 4 2 26.3204 13.1876 1
-7 4 2 48.5022 5.38980 3
-7 4 2 47.7309 10.2472 2
-7 4 3 1017.81 36.4041 3
-7 4 3 903.795 39.5363 2
-7 4 3 976.980 60.8696 1
-7 4 4 13.5796 6.25667 3
-7 4 4 35.2267 15.9605 1
-7 4 5 789.650 54.6445 1
-7 4 5 907.152 40.5383 3
-7 4 6 1.22939 11.1664 1
-7 4 6 1.48321 5.69457 3
-7 4 7 531.672 47.1063 1
-7 4 7 478.825 32.9724 3
-7 4 8 2.95412 6.56923 3
-7 4 8 15.3949 13.0131 1
-7 4 9 213.110 31.7024 1
-7 4 9 223.055 25.4764 3
-7 4 10 10.9028 8.69835 3
-7 4 11 57.8829 16.4732 3
-7 5 -6 345.096 36.0040 1
-7 5 -5 25.4779 12.6768 1
-7 5 -4 160.967 24.4312 1
-7 5 -3 8.16021 12.0584 1
-7 5 -2 47.7528 16.0111 1
-7 5 -1 37.8837 16.9725 1
-7 5 -1 4.50671 6.33330 2
-7 5 0 54.0094 15.4938 1
-7 5 0 22.9748 8.20022 2
-7 5 1 -10.8911 12.9814 1
-7 5 1 8.14194 6.06692 2
-7 5 2 159.253 25.7642 1
-7 5 2 166.222 18.0030 2
-7 5 3 14.3112 14.8590 1
-7 5 4 405.048 40.3232 1
-7 5 5 42.5487 16.7541 1
-7 5 6 575.822 49.6074 1
-7 5 7 29.9343 16.0547 1
-7 5 8 474.947 46.1861 1
-7 6 -5 1046.81 67.2983 1
-7 6 -4 435.232 42.7999 1
-7 6 -3 690.542 53.5810 1
-7 6 -2 596.379 50.0673 1
-7 6 -1 410.821 40.7592 1
-7 6 0 290.345 35.3285 1
-7 6 1 5.64443 5.29191 2
-7 6 1 82.7461 20.0643 1
-7 6 2 309.367 37.9780 1
-7 6 3 10.5408 12.7004 1
-7 6 4 89.5047 21.1684 1
-7 6 5 19.7580 16.0131 1
-7 6 6 -19.9201 17.1750 1
-7 7 -4 100.679 22.1022 1
-7 7 -3 945.371 66.9679 1
-7 7 -2 43.9441 16.6176 1
-7 7 -1 1034.55 69.6672 1
-7 7 0 -10.0309 15.3983 1
-7 7 1 745.160 59.7111 1
-7 7 2 31.1361 17.8844 1
-6 -5 1 292.567 40.8486 3
-6 -5 2 116.007 28.0328 3
-6 -5 3 160.611 32.3910 3
-6 -5 4 43.8288 18.7494 3
-6 -5 5 42.6095 19.8131 3
-6 -5 6 24.5110 19.7909 3
-6 -5 7 8.87989 15.6220 3
-6 -4 -3 761.770 63.3990 3
-6 -4 -2 89.8230 23.3422 3
-6 -4 -1 1244.92 80.9269 3
-6 -4 0 93.6600 23.3357 3
-6 -4 1 1389.72 85.2145 3
-6 -4 2 0.99098 15.6940 3
-6 -4 3 1522.42 91.7753 3
-6 -4 4 19.8405 18.8828 3
-6 -4 5 1820.10 100.203 3
-6 -4 6 54.8301 21.8869 3
-6 -4 7 947.358 69.9688 3
-6 -4 8 17.3873 13.3763 3
-6 -4 9 449.799 46.9585 3
-6 -4 10 77.7181 23.2021 3
-6 -3 -3 -7.21208 15.1269 3
-6 -3 -2 218.229 32.1827 3
-6 -3 -1 98.7164 23.1776 3
-6 -3 0 458.199 46.2608 3
-6 -3 1 291.941 37.2441 3
-6 -3 2 601.639 53.1845 3
-6 -3 3 429.725 45.9868 3
-6 -3 4 1006.40 68.4309 3
-6 -3 5 770.256 60.1438 3
-6 -3 6 965.526 65.4648 3
-6 -3 7 977.339 65.2759 3
-6 -3 8 714.489 55.7357 3
-6 -3 9 774.079 58.3397 3
-6 -3 10 470.077 46.3103 3
-6 -3 11 603.680 52.3822 3
-6 -3 12 191.525 31.9870 3
-6 -2 -3 553.353 46.3157 3
-6 -2 -2 101.707 21.0809 3
-6 -2 -1 336.161 36.9326 3
-6 -2 0 13.0080 15.3198 3
-6 -2 1 137.902 24.9259 3
-6 -2 2 -2.19858 13.5328 3
-6 -2 3 109.282 23.2387 3
-6 -2 4 -13.9322 15.7277 3
-6 -2 5 29.4524 15.3915 3
-6 -2 6 278.551 32.2827 3
-6 -2 7 12.2755 13.5003 3
-6 -2 8 412.292 39.4846 3
-6 -2 9 37.1540 16.0671 3
-6 -2 10 448.586 43.1695 3
-6 -2 11 32.4716 16.4356 3
-6 -2 12 464.331 45.3113 3
-6 -2 13 9.24017 13.7780 3
-6 -1 -5 1002.48 39.4165 1
-6 -1 -4 367.607 25.1966 4
-6 -1 -3 1318.96 68.4834 3
-6 -1 -3 1365.65 54.1507 4
-6 -1 -2 370.409 35.1628 3
-6 -1 -1 1708.42 77.4644 3
-6 -1 0 139.540 23.8275 3
-6 -1 1 1945.17 85.3879 3
-6 -1 2 109.934 21.0184 3
-6 -1 3 1978.68 86.2117 3
-6 -1 4 66.5759 16.9576 3
-6 -1 5 1101.58 60.0263 3
-6 -1 6 -9.59300 12.7890 3
-6 -1 7 619.965 45.4132 3
-6 -1 8 2.68205 10.2558 3
-6 -1 9 256.314 30.8515 3
-6 -1 10 2.97741 11.6085 3
-6 -1 11 -17.1725 15.8604 3
-6 -1 12 -20.1907 12.0555 3
-6 -1 13 34.0144 16.2082 3
-6 0 -6 137.304 12.7268 1
-6 0 -5 -0.40591 4.60236 4
-6 0 -5 -10.7163 7.43787 1
-6 0 -4 287.668 22.1683 4
-6 0 -4 303.609 22.7227 1
-6 0 -3 33.6841 9.36194 4
-6 0 -2 1066.30 54.2231 3
-6 0 -2 1089.41 49.3853 4
-6 0 -1 160.066 21.6473 3
-6 0 -1 159.571 18.8375 4
-6 0 0 1622.05 69.7677 3
-6 0 1 381.430 32.8991 3
-6 0 2 1954.05 80.0131 3
-6 0 3 554.251 39.3884 3
-6 0 4 2177.81 82.0815 3
-6 0 5 816.961 47.6329 3
-6 0 6 1350.47 63.1380 3
-6 0 7 659.825 43.7987 3
-6 0 8 989.319 55.5252 3
-6 0 9 632.246 44.9504 3
-6 0 10 480.148 40.7685 3
-6 0 11 462.101 41.1171 3
-6 0 12 139.371 23.8389 3
-6 0 13 274.028 33.4497 3
-6 1 -7 326.251 19.9669 1
-6 1 -6 75.4537 10.6257 4
-6 1 -6 86.2277 11.7597 1
-6 1 -5 444.013 27.3649 4
-6 1 -5 434.962 27.3623 1
-6 1 -4 4.81641 6.31519 4
-6 1 -4 11.0783 7.40902 1
-6 1 -3 351.922 26.5931 4
-6 1 -3 343.259 26.8614 1
-6 1 -3 402.361 32.6776 2
-6 1 -2 33.2713 10.3579 4
-6 1 -2 23.5968 11.3641 2
-6 1 -2 30.3960 10.3074 3
-6 1 -1 7.51384 7.35248 4
-6 1 -1 18.7241 8.48646 2
-6 1 -1 6.40317 9.26209 3
-6 1 0 26.9084 9.91623 4
-6 1 0 18.4451 8.65521 2
-6 1 0 49.0325 12.5280 3
-6 1 1 4.60476 7.82069 4
-6 1 1 1.99625 8.28808 3
-6 1 2 298.383 26.3050 3
-6 1 2 285.973 27.0713 4
-6 1 3 8.25674 8.63499 3
-6 1 3 21.3693 10.3826 4
-6 1 4 493.535 33.3631 3
-6 1 5 24.8424 9.35502 3
-6 1 6 473.211 34.1379 3
-6 1 7 31.6826 12.1883 3
-6 1 8 738.485 45.5296 3
-6 1 9 111.978 19.1969 3
-6 1 10 1090.36 60.4212 3
-6 1 11 51.0574 14.5369 3
-6 1 12 740.401 52.5835 3
-6 1 13 20.6356 14.7704 3
-6 2 -7 576.989 32.2223 1
-6 2 -6 460.067 29.7528 1
-6 2 -5 751.092 39.6094 4
-6 2 -5 786.634 40.4188 1
-6 2 -4 582.207 35.3031 4
-6 2 -4 602.652 36.4122 1
-6 2 -3 1243.03 55.4655 1
-6 2 -3 1474.65 63.0143 2
-6 2 -3 1294.35 56.3544 4
-6 2 -2 674.348 39.8326 4
-6 2 -2 617.961 38.6274 1
-6 2 -2 683.913 39.7065 2
-6 2 -1 1664.75 62.9005 2
-6 2 -1 1586.44 52.1119 3
-6 2 -1 1621.58 66.2818 1
-6 2 -1 1585.70 65.3939 4
-6 2 0 509.999 27.8340 3
-6 2 0 542.162 36.5469 4
-6 2 0 522.906 31.8018 2
-6 2 1 1589.95 57.0179 2
-6 2 1 1690.85 70.0380 4
-6 2 1 1715.19 58.7571 3
-6 2 2 148.410 14.1952 2
-6 2 2 142.930 15.4966 3
-6 2 2 161.196 20.5888 4
-6 2 3 994.114 42.5680 3
-6 2 3 915.016 35.0023 2
-6 2 4 43.3041 10.5920 3
-6 2 5 470.731 30.5126 3
-6 2 6 101.559 16.2980 3
-6 2 7 196.850 21.8516 3
-6 2 8 -9.48330 7.98332 3
-6 2 9 -16.0995 10.9650 3
-6 2 10 18.3881 8.29664 3
-6 2 11 91.4488 19.5415 3
-6 2 12 11.1229 11.7246 3
-6 2 13 108.982 22.3648 3
-6 3 -6 396.186 30.5725 1
-6 3 -5 4.51393 8.96354 1
-6 3 -4 1061.95 52.2691 1
-6 3 -4 1059.38 51.7939 4
-6 3 -3 8.30098 9.15305 1
-6 3 -3 3.53840 7.12103 4
-6 3 -3 21.3118 9.82322 2
-6 3 -2 2345.80 84.6258 4
-6 3 -2 2417.14 81.7793 2
-6 3 -2 2242.13 84.0851 1
-6 3 -1 97.3130 16.6352 4
-6 3 -1 100.096 14.7452 2
-6 3 -1 118.977 19.1239 1
-6 3 0 2820.72 84.9118 2
-6 3 0 2791.69 96.8503 4
-6 3 0 2717.12 96.5994 1
-6 3 0 2861.08 62.0292 3
-6 3 1 117.917 13.6740 2
-6 3 1 139.106 12.1385 3
-6 3 1 131.484 21.1711 1
-6 3 1 135.004 19.6372 4
-6 3 2 2694.27 97.9121 1
-6 3 2 2829.78 73.1613 3
-6 3 2 2774.04 77.1747 2
-6 3 3 289.504 29.6674 1
-6 3 3 283.900 19.8242 3
-6 3 3 284.703 18.4130 2
-6 3 4 1956.09 52.8501 2
-6 3 4 1866.05 80.7659 1
-6 3 4 1970.13 62.5277 3
-6 3 5 487.862 17.2276 2
-6 3 5 475.239 28.9029 3
-6 3 5 489.183 40.1897 1
-6 3 6 1245.50 52.0974 3
-6 3 7 434.218 31.6130 3
-6 3 8 771.991 44.1314 3
-6 3 9 455.758 35.2488 3
-6 3 10 215.330 29.6189 1
-6 3 10 252.066 27.7730 3
-6 3 11 175.480 25.3583 3
-6 3 11 216.161 30.7546 1
-6 3 12 65.4841 17.8059 3
-6 3 12 69.1527 19.6484 1
-6 3 13 57.0137 18.2440 3
-6 4 -6 -2.05513 8.67734 1
-6 4 -5 47.9092 14.5352 1
-6 4 -4 6.77557 10.7136 1
-6 4 -3 20.9677 10.3966 2
-6 4 -3 7.78544 9.35521 4
-6 4 -3 8.32514 9.91389 1
-6 4 -2 156.357 21.4025 4
-6 4 -2 157.557 19.6991 2
-6 4 -2 156.723 22.7649 1
-6 4 -1 21.9574 10.4539 1
-6 4 -1 19.9072 8.54265 2
-6 4 0 348.440 32.8583 1
-6 4 0 343.159 25.5663 2
-6 4 1 159.373 22.0029 1
-6 4 1 176.139 17.5312 2
-6 4 2 425.783 25.8947 2
-6 4 2 447.630 18.7044 3
-6 4 2 451.157 37.7450 1
-6 4 3 214.997 17.4638 2
-6 4 3 222.607 27.3376 1
-6 4 3 270.084 17.2052 3
-6 4 4 764.200 50.7562 1
-6 4 4 818.267 34.4958 3
-6 4 4 792.925 32.3885 2
-6 4 5 138.373 24.3532 1
-6 4 5 142.132 15.5172 3
-6 4 5 121.237 10.8920 2
-6 4 6 1013.64 45.1844 3
-6 4 6 978.193 60.2183 1
-6 4 6 995.530 29.7414 2
-6 4 7 257.791 24.1366 3
-6 4 7 258.514 31.8054 1
-6 4 8 878.038 58.2378 1
-6 4 8 963.738 49.7196 3
-6 4 9 111.409 22.5991 1
-6 4 9 103.979 18.0130 3
-6 4 10 639.991 44.4666 3
-6 4 10 633.388 50.9069 1
-6 4 11 113.299 23.5822 1
-6 4 11 56.1889 14.9506 3
-6 4 12 419.565 39.4454 3
-6 4 12 351.243 39.1748 1
-6 5 -5 631.721 46.1636 1
-6 5 -4 476.363 40.2088 1
-6 5 -3 978.574 57.8686 1
-6 5 -2 337.909 34.1226 1
-6 5 -2 290.365 26.8240 2
-6 5 -1 517.925 41.3104 1
-6 5 -1 539.049 35.2659 2
-6 5 0 461.860 31.2287 2
-6 5 0 486.019 40.2747 1
-6 5 1 326.458 33.9007 1
-6 5 1 301.077 23.7471 2
-6 5 2 148.240 16.4157 2
-6 5 2 167.155 8.36970 3
-6 5 2 152.373 8.99301 3
-6 5 2 156.374 24.7532 1
-6 5 3 151.567 13.3994 3
-6 5 3 161.368 12.4697 3
-6 5 3 174.869 24.4931 1
-6 5 3 152.107 16.1130 2
-6 5 4 78.1907 10.9757 2
-6 5 4 58.9649 10.8353 3
-6 5 4 84.6988 10.8896 3
-6 5 4 24.4462 12.8319 1
-6 5 5 -2.35885 11.2621 1
-6 5 5 13.9386 7.41535 3
-6 5 5 17.6515 6.49275 2
-6 5 6 26.4719 9.55305 3
-6 5 6 28.5394 15.0028 1
-6 5 7 26.3002 15.3510 1
-6 5 7 10.0843 7.55498 3
-6 5 8 -19.0935 12.7125 1
-6 5 8 19.7340 10.4761 3
-6 5 9 53.2343 13.3900 3
-6 5 9 96.2452 21.9079 1
-6 5 10 -14.9683 14.2517 1
-6 5 10 28.0660 13.8928 3
-6 5 11 151.465 23.3827 3
-6 5 12 5.32350 8.88396 3
-6 6 -4 1563.34 80.5630 1
-6 6 -3 -6.32734 12.6126 1
-6 6 -2 2101.30 94.0885 1
-6 6 -1 15.6921 13.0261 1
-6 6 0 1766.01 70.8275 2
-6 6 0 1984.53 90.2531 1
-6 6 1 2.79993 3.97860 2
-6 6 1 14.0960 13.8278 1
-6 6 2 1794.12 85.5264 1
-6 6 2 1574.93 62.9348 2
-6 6 3 101.293 21.7142 1
-6 6 3 108.366 15.3139 2
-6 6 3 128.702 11.1784 3
-6 6 4 1374.05 48.2099 3
-6 6 4 1364.32 76.3642 1
-6 6 5 138.621 26.7275 1
-6 6 5 138.295 15.6919 3
-6 6 6 660.191 37.0808 3
-6 6 6 771.604 56.6367 1
-6 6 7 118.548 24.8385 1
-6 6 7 129.845 18.4932 3
-6 6 8 252.244 34.5478 1
-6 6 8 223.035 24.2324 3
-6 7 -3 200.790 30.0997 1
-6 7 -2 224.927 33.5148 1
-6 7 -1 277.428 35.7440 1
-6 7 0 264.909 34.9742 1
-6 7 1 525.579 48.2075 1
-6 7 2 548.469 49.5845 1
-6 7 3 426.688 44.1947 1
-6 7 4 689.896 56.1923 1
-6 7 5 419.838 44.2299 1
-6 7 6 624.993 54.2542 1
-6 8 -1 47.0602 18.2264 1
-6 8 0 59.4866 22.8448 1
-6 8 1 36.8392 19.4421 1
-6 8 2 18.6778 14.0960 1
-5 -6 1 118.390 28.6346 3
-5 -6 2 37.7671 21.9586 3
-5 -6 3 85.9283 27.1149 3
-5 -6 4 -8.37997 15.2619 3
-5 -6 5 -2.78947 18.6805 3
-5 -6 6 43.2366 23.2194 3
-5 -6 7 211.050 36.8294 3
-5 -5 -3 28.8850 17.0985 3
-5 -5 -2 421.094 46.6331 3
-5 -5 -1 44.4486 21.3143 3
-5 -5 0 772.780 64.3255 3
-5 -5 1 130.959 30.8066 3
-5 -5 2 920.944 70.4464 3
-5 -5 3 101.615 26.8113 3
-5 -5 4 924.694 71.0139 3
-5 -5 5 185.847 33.9812 3
-5 -5 6 655.213 59.3583 3
-5 -5 7 114.960 27.1998 3
-5 -5 8 288.323 38.7095 3
-5 -5 9 6.11310 12.9186 3
-5 -5 10 146.009 29.5178 3
-5 -4 -3 -5.10397 14.6292 3
-5 -4 -2 6.04485 14.2219 3
-5 -4 -1 206.154 33.0540 3
-5 -4 0 229.233 33.5347 3
-5 -4 1 548.975 50.3087 3
-5 -4 2 318.176 39.6942 3
-5 -4 3 573.084 53.9270 3
-5 -4 4 803.575 61.6514 3
-5 -4 5 425.704 44.0147 3
-5 -4 6 1492.86 82.4323 3
-5 -4 7 433.154 43.2405 3
-5 -4 8 1315.20 76.6683 3
-5 -4 9 451.242 44.3188 3
-5 -4 10 1160.15 72.5132 3
-5 -4 11 156.913 28.9207 3
-5 -4 12 1066.63 72.0398 3
-5 -3 -3 450.500 43.8635 3
-5 -3 -2 -1.82249 11.5805 3
-5 -3 -1 303.539 35.7373 3
-5 -3 0 26.1275 16.0626 3
-5 -3 1 -8.50571 16.0621 3
-5 -3 2 11.2083 12.7453 3
-5 -3 3 42.5508 17.9909 3
-5 -3 4 -12.1902 15.2797 3
-5 -3 5 360.625 38.1932 3
-5 -3 6 4.75703 13.1027 3
-5 -3 7 668.267 50.3661 3
-5 -3 8 50.6163 16.7132 3
-5 -3 9 1003.60 62.3769 3
-5 -3 10 32.1527 14.9664 3
-5 -3 11 1209.40 72.2506 3
-5 -3 12 105.494 24.5108 3
-5 -3 13 903.965 64.4766 3
-5 -2 -5 19.4187 5.93545 4
-5 -2 -3 95.9542 21.1505 3
-5 -2 -2 1244.98 66.8831 3
-5 -2 -1 68.4701 17.6580 3
-5 -2 0 1234.31 66.9093 3
-5 -2 1 24.0968 15.3314 3
-5 -2 2 1005.63 60.3187 3
-5 -2 3 34.2642 15.9392 3
-5 -2 4 698.618 47.2702 3
-5 -2 5 20.8461 11.7153 3
-5 -2 6 405.960 35.8523 3
-5 -2 7 6.71564 13.3518 3
-5 -2 8 280.824 30.8424 3
-5 -2 9 21.2178 14.5523 3
-5 -2 10 7.00090 10.3621 3
-5 -2 11 41.7159 16.3341 3
-5 -2 12 0.83529 12.3210 3
-5 -2 13 103.065 22.0630 3
-5 -2 14 34.3816 16.1547 3
-5 -1 -6 8.29203 3.19108 4
-5 -1 -6 16.3955 3.93518 1
-5 -1 -5 26.4289 6.79318 4
-5 -1 -4 16.5558 6.88664 4
-5 -1 -3 242.804 27.0040 3
-5 -1 -2 91.0304 18.4389 3
-5 -1 -1 823.550 49.2487 3
-5 -1 0 396.915 34.7263 3
-5 -1 1 832.608 50.7914 3
-5 -1 2 704.351 45.0011 3
-5 -1 3 1654.24 70.5455 3
-5 -1 4 1185.20 56.9922 3
-5 -1 5 1667.04 69.6104 3
-5 -1 6 1457.59 65.4233 3
-5 -1 7 821.064 48.4405 3
-5 -1 8 1396.72 66.1564 3
-5 -1 9 614.135 43.5247 3
-5 -1 10 1126.18 61.7700 3
-5 -1 11 231.520 28.6106 3
-5 -1 12 568.074 46.4540 3
-5 -1 13 87.1024 20.6437 3
-5 -1 14 354.571 39.6784 3
-5 0 -6 51.5844 7.10008 1
-5 0 -6 45.4525 6.43239 4
-5 0 -5 710.327 29.9177 4
-5 0 -5 747.045 30.2107 1
-5 0 -4 21.0831 6.28208 4
-5 0 -4 66.0314 14.8701 2
-5 0 -3 343.282 28.8912 2
-5 0 -3 300.769 21.1418 4
-5 0 -2 35.5834 9.32044 4
-5 0 -2 30.9797 11.2815 3
-5 0 -1 21.1264 11.0244 3
-5 0 0 121.114 18.9578 3
-5 0 1 99.9452 17.5396 3
-5 0 2 48.6433 13.5604 3
-5 0 3 625.545 36.4366 3
-5 0 4 77.7316 15.7437 3
-5 0 5 1217.22 53.9949 3
-5 0 6 50.5880 13.5073 3
-5 0 7 1646.70 67.5370 3
-5 0 8 0.02983 9.30486 3
-5 0 9 2302.20 87.6558 3
-5 0 10 60.0567 16.1770 3
-5 0 11 1688.22 78.4464 3
-5 0 12 84.9427 19.7324 3
-5 0 13 1217.35 70.7160 3
-5 0 14 68.4061 20.1830 3
-5 1 -6 937.091 35.8095 1
-5 1 -5 17.6165 8.76503 2
-5 1 -5 13.9328 6.31103 4
-5 1 -5 23.1972 6.92210 1
-5 1 -4 1523.65 53.1572 1
-5 1 -4 1536.37 53.4824 4
-5 1 -4 1652.65 67.1936 2
-5 1 -3 13.4671 7.99563 2
-5 1 -3 40.1941 9.75280 1
-5 1 -3 33.0560 8.59927 4
-5 1 -2 1353.06 55.1824 2
-5 1 -2 1261.32 49.1878 3
-5 1 -2 1256.99 50.4880 4
-5 1 -1 42.0373 9.68885 2
-5 1 -1 85.6124 13.7075 4
-5 1 -1 57.6675 11.6864 3
-5 1 0 846.854 38.8969 2
-5 1 0 864.035 41.9770 4
-5 1 0 877.430 40.5238 3
-5 1 1 2.65834 8.50605 3
-5 1 1 2.19449 5.93503 2
-5 1 1 -11.0972 7.37084 4
-5 1 2 925.096 45.6317 4
-5 1 2 937.773 41.0429 3
-5 1 2 901.427 35.8528 2
-5 1 3 8.23160 7.33131 3
-5 1 4 152.997 17.1802 3
-5 1 5 1.46582 7.30140 3
-5 1 6 12.7460 9.32505 3
-5 1 7 77.8019 14.8481 3
-5 1 8 2.49162 8.55617 3
-5 1 9 170.971 22.0849 3
-5 1 10 124.230 20.0216 3
-5 1 11 274.793 30.1937 3
-5 1 12 139.492 23.8599 3
-5 1 13 228.765 29.7857 3
-5 1 14 135.651 24.2877 3
-5 2 -6 11.2840 7.39959 1
-5 2 -5 216.684 23.5622 2
-5 2 -5 221.753 19.5634 4
-5 2 -5 211.918 19.5841 1
-5 2 -4 101.208 14.0468 1
-5 2 -4 117.219 17.7009 2
-5 2 -4 95.2456 13.6889 4
-5 2 -3 901.486 42.7064 1
-5 2 -3 1066.61 48.4809 2
-5 2 -3 869.182 41.9982 4
-5 2 -2 198.945 20.4305 1
-5 2 -2 237.842 21.7967 4
-5 2 -2 251.368 22.1118 2
-5 2 -1 1400.34 56.8251 1
-5 2 -1 1425.96 43.3670 3
-5 2 -1 1492.34 54.7361 2
-5 2 -1 1511.96 58.1600 4
-5 2 0 467.156 23.7180 3
-5 2 0 561.533 29.6467 2
-5 2 0 501.049 33.0008 1
-5 2 0 534.836 33.6985 4
-5 2 1 1686.77 54.1164 2
-5 2 1 1737.81 52.6567 3
-5 2 1 1772.90 66.3722 4
-5 2 2 741.195 31.6295 3
-5 2 2 713.604 40.6104 4
-5 2 2 714.398 29.9643 2
-5 2 3 1967.48 73.9008 4
-5 2 3 1988.45 52.8901 2
-5 2 3 2039.69 60.6338 3
-5 2 4 846.526 25.6447 2
-5 2 4 826.156 46.0454 4
-5 2 4 868.311 37.3596 3
-5 2 5 1187.04 57.2078 4
-5 2 5 1143.67 46.6015 3
-5 2 6 707.651 44.2174 4
-5 2 6 699.466 37.3265 3
-5 2 7 729.348 39.9040 3
-5 2 8 612.907 38.9308 3
-5 2 9 470.110 35.0109 3
-5 2 10 400.254 34.6172 3
-5 2 11 276.830 30.3359 3
-5 2 12 192.851 26.6626 3
-5 2 13 55.9698 16.9325 3
-5 2 14 43.3995 16.1592 3
-5 3 -6 9.30440 8.97441 1
-5 3 -5 157.621 19.7516 2
-5 3 -5 149.563 18.6994 1
-5 3 -4 61.1267 11.6992 4
-5 3 -4 95.9258 16.0233 1
-5 3 -4 64.4276 13.5016 2
-5 3 -3 -2.47504 6.54240 2
-5 3 -3 21.0349 12.0951 1
-5 3 -3 -6.43574 8.64363 4
-5 3 -2 88.1547 13.9064 2
-5 3 -2 94.8051 15.1355 4
-5 3 -2 80.2520 15.8425 1
-5 3 -1 78.5755 14.8823 4
-5 3 -1 60.7976 11.3585 2
-5 3 -1 71.6449 14.7752 1
-5 3 0 96.1525 15.3800 4
-5 3 0 70.5694 10.2415 2
-5 3 0 64.2711 13.4731 1
-5 3 1 473.660 34.3863 1
-5 3 1 502.744 34.5924 4
-5 3 1 495.567 26.1707 2
-5 3 1 492.494 19.4546 3
-5 3 2 599.038 27.5569 2
-5 3 2 592.711 39.0467 1
-5 3 2 616.784 24.4333 3
-5 3 2 612.634 38.9985 4
-5 3 3 1371.41 43.9222 3
-5 3 3 1403.86 62.1582 4
-5 3 3 1331.39 42.4623 2
-5 3 3 1380.14 62.3778 1
-5 3 4 279.967 19.9159 3
-5 3 4 323.714 29.6865 1
-5 3 4 314.253 16.3744 2
-5 3 4 297.084 28.0439 4
-5 3 5 1575.25 54.8934 3
-5 3 5 1564.55 69.3304 4
-5 3 5 1570.68 69.4373 1
-5 3 5 1576.61 40.1080 2
-5 3 6 67.7815 17.6472 1
-5 3 6 60.4367 4.47673 2
-5 3 6 78.8735 13.9125 3
-5 3 7 2028.98 72.4989 3
-5 3 7 2074.98 83.9549 1
-5 3 8 21.6475 9.76703 1
-5 3 8 28.5603 11.2417 3
-5 3 9 2211.53 89.2884 1
-5 3 9 2144.40 82.4928 3
-5 3 10 -1.32083 9.13862 3
-5 3 10 17.5209 14.9165 1
-5 3 11 1236.66 67.4748 1
-5 3 11 1300.53 66.8109 3
-5 3 12 -2.31641 9.24998 3
-5 3 12 18.4958 12.1073 1
-5 3 13 928.049 61.2011 3
-5 3 13 969.234 60.7000 1
-5 3 14 11.4722 10.7783 1
-5 3 15 20.4263 6.97818 1
-5 4 -5 -16.7047 11.6722 1
-5 4 -5 -1.06728 7.92052 2
-5 4 -4 1165.52 53.9999 2
-5 4 -4 967.946 52.2780 1
-5 4 -3 29.9537 10.3463 2
-5 4 -3 29.4753 13.1060 1
-5 4 -2 727.280 43.4315 4
-5 4 -2 706.114 43.6260 1
-5 4 -2 760.514 39.8414 2
-5 4 -1 5.80365 8.89134 4
-5 4 -1 34.0068 9.88469 2
-5 4 -1 49.7131 15.6728 1
-5 4 0 346.331 23.8255 2
-5 4 0 327.490 29.6816 1
-5 4 0 302.813 27.3593 4
-5 4 1 -0.09292 8.31671 4
-5 4 1 -1.01380 5.25075 2
-5 4 1 9.52086 10.6821 1
-5 4 2 79.2982 7.92976 3
-5 4 2 87.3713 11.4767 2
-5 4 2 101.579 17.1722 4
-5 4 2 102.208 18.9512 1
-5 4 3 1.31354 4.51650 2
-5 4 3 13.2652 9.21417 4
-5 4 3 11.8309 5.69145 3
-5 4 3 -9.77519 11.8908 1
-5 4 4 7.37243 5.42297 2
-5 4 4 5.44321 10.7937 1
-5 4 4 2.65108 5.49640 3
-5 4 5 115.213 20.4191 1
-5 4 5 100.392 10.5651 2
-5 4 5 115.613 14.4603 3
-5 4 6 150.703 23.0453 1
-5 4 6 158.484 12.3901 2
-5 4 6 151.796 17.1892 3
-5 4 7 56.5370 17.0261 1
-5 4 7 43.6896 11.5736 3
-5 4 7 48.2956 6.76717 2
-5 4 8 268.486 26.3098 3
-5 4 8 309.803 32.3617 1
-5 4 8 287.171 14.9371 2
-5 4 8 279.770 15.5587 2
-5 4 9 99.8299 17.3412 3
-5 4 9 99.0648 21.1196 1
-5 4 10 292.074 32.5630 1
-5 4 10 278.403 29.1599 3
-5 4 11 307.360 33.5968 1
-5 4 11 263.711 29.9564 3
-5 4 12 392.218 39.1484 1
-5 4 12 348.082 35.9517 3
-5 4 13 228.766 31.0244 3
-5 4 13 301.573 34.3526 1
-5 4 14 192.003 27.6184 1
-5 5 -5 778.045 48.8354 1
-5 5 -4 46.9005 12.3015 2
-5 5 -4 32.5007 12.6057 1
-5 5 -3 936.823 48.2479 2
-5 5 -3 891.002 53.1767 1
-5 5 -2 159.587 22.2736 1
-5 5 -2 188.469 20.8401 2
-5 5 -1 1460.64 68.9457 1
-5 5 -1 1504.11 68.9893 4
-5 5 -1 1483.39 59.4734 2
-5 5 0 250.059 21.8222 2
-5 5 0 163.085 22.2307 1
-5 5 1 1724.93 76.4497 1
-5 5 1 1718.34 38.6394 3
-5 5 1 1606.43 60.2001 2
-5 5 1 1746.43 40.9292 3
-5 5 2 324.978 32.2680 1
-5 5 2 276.933 15.3390 3
-5 5 2 288.550 18.3076 3
-5 5 2 252.687 21.0531 2
-5 5 3 915.188 40.9912 2
-5 5 3 992.805 35.8693 3
-5 5 3 971.175 56.4362 1
-5 5 3 943.076 39.4434 3
-5 5 4 218.082 20.3017 3
-5 5 4 221.736 18.6799 2
-5 5 4 247.882 28.7133 1
-5 5 4 201.175 16.5977 3
-5 5 5 762.646 50.6967 1
-5 5 5 724.309 39.5344 3
-5 5 5 714.138 34.0240 2
-5 5 6 245.572 19.1542 2
-5 5 6 243.567 29.5389 1
-5 5 7 372.406 36.3293 1
-5 5 8 179.986 25.8156 1
-5 5 8 190.813 17.7271 2
-5 5 9 97.4282 18.1710 1
-5 5 10 20.4337 12.2757 1
-5 5 11 66.6514 17.0154 1
-5 5 11 67.1514 16.2348 3
-5 5 12 -11.0196 11.9568 3
-5 5 12 -0.68880 9.28481 1
-5 5 13 -7.08821 7.04445 1
-5 6 -3 -7.18352 12.5449 1
-5 6 -2 309.911 28.3801 2
-5 6 -2 324.179 34.7911 1
-5 6 -1 285.827 31.8383 1
-5 6 -1 295.465 26.9054 2
-5 6 0 664.048 39.5141 2
-5 6 0 744.019 51.4773 1
-5 6 1 543.726 22.9474 3
-5 6 1 544.719 34.6989 2
-5 6 1 555.192 44.7729 1
-5 6 2 515.459 43.2000 1
-5 6 2 407.028 25.9602 3
-5 6 2 431.246 30.6351 2
-5 6 3 1280.84 70.2366 1
-5 6 3 1315.17 53.4328 3
-5 6 3 1157.00 52.8657 2
-5 6 4 181.058 20.4515 3
-5 6 4 163.019 25.6796 1
-5 6 4 170.325 18.3465 2
-5 6 5 1650.51 79.9959 1
-5 6 5 1519.76 65.8319 3
-5 6 6 325.435 30.7275 3
-5 6 6 316.405 35.4375 1
-5 6 7 1312.41 73.5941 1
-5 6 8 152.187 25.1911 1
-5 6 9 1084.95 67.7417 1
-5 6 10 14.4189 13.7948 1
-5 6 11 632.865 52.6127 1
-5 7 -2 148.183 26.3355 1
-5 7 -1 -7.60491 12.3458 1
-5 7 0 0.62841 14.0788 1
-5 7 1 -1.94218 12.6031 1
-5 7 2 66.3719 20.5767 1
-5 7 3 -3.55385 12.0709 1
-5 7 4 352.067 39.3269 1
-5 7 5 -6.14904 14.9873 1
-5 7 6 459.408 44.8648 1
-5 7 7 39.2354 14.6257 1
-5 7 8 399.993 42.4054 1
-5 8 1 394.311 45.6735 1
-5 8 2 87.8560 26.6317 1
-5 8 3 210.430 36.0334 1
-5 8 4 52.0604 17.4850 1
-5 8 5 243.330 37.1308 1
-4 -7 2 190.916 34.7116 3
-4 -7 3 113.690 29.6963 3
-4 -7 4 25.1878 15.0686 3
-4 -7 5 87.9107 26.6040 3
-4 -7 6 -2.16389 19.4762 3
-4 -7 7 9.58220 16.3966 3
-4 -6 -2 712.322 61.8717 3
-4 -6 -1 227.339 36.7976 3
-4 -6 0 1046.22 74.8191 3
-4 -6 1 187.861 32.8429 3
-4 -6 2 1207.39 79.7196 3
-4 -6 3 81.3274 23.7104 3
-4 -6 4 996.937 74.7360 3
-4 -6 5 122.432 27.7955 3
-4 -6 6 786.638 65.2863 3
-4 -6 7 22.7755 16.1475 3
-4 -6 8 296.988 39.5719 3
-4 -6 9 -35.9094 20.9868 3
-4 -6 10 71.2308 22.6998 3
-4 -6 11 -16.8734 13.9427 3
-4 -5 -3 -10.8008 15.1548 3
-4 -5 -2 -8.36185 16.6686 3
-4 -5 -1 201.503 33.6756 3
-4 -5 0 49.4816 21.0339 3
-4 -5 1 581.816 52.8898 3
-4 -5 2 6.35299 15.6633 3
-4 -5 3 314.513 40.7901 3
-4 -5 4 -3.72564 15.0927 3
-4 -5 5 707.102 56.4526 3
-4 -5 6 -15.0791 16.8648 3
-4 -5 7 980.577 66.4545 3
-4 -5 8 5.98819 14.9294 3
-4 -5 9 929.732 64.4422 3
-4 -5 10 43.0493 19.4361 3
-4 -5 11 672.779 55.0809 3
-4 -5 12 87.4412 22.1216 3
-4 -4 -3 63.2816 20.2130 3
-4 -4 -2 897.839 61.1763 3
-4 -4 -1 129.508 24.2558 3
-4 -4 0 488.785 44.3600 3
-4 -4 1 142.471 27.6023 3
-4 -4 2 84.1684 21.3098 3
-4 -4 3 43.7401 19.5707 3
-4 -4 4 65.2721 21.5957 3
-4 -4 5 19.1998 13.6756 3
-4 -4 6 78.7833 20.6545 3
-4 -4 7 36.5133 15.0773 3
-4 -4 8 543.334 45.9358 3
-4 -4 9 166.571 26.9600 3
-4 -4 10 778.936 55.9796 3
-4 -4 11 256.615 32.5322 3
-4 -4 12 666.375 53.7030 3
-4 -4 13 294.078 36.9640 3
-4 -3 -6 429.738 17.2637 4
-4 -3 -5 647.370 28.6833 1
-4 -3 -3 589.467 45.7811 3
-4 -3 -2 1683.52 80.0479 3
-4 -3 -1 807.792 54.0591 3
-4 -3 0 1930.10 86.0838 3
-4 -3 1 836.097 56.0398 3
-4 -3 2 1458.53 73.6499 3
-4 -3 3 269.907 31.1589 3
-4 -3 4 1217.13 63.8008 3
-4 -3 5 30.4205 12.7744 3
-4 -3 6 635.603 44.7508 3
-4 -3 7 5.81556 12.6785 3
-4 -3 8 138.081 22.6357 3
-4 -3 9 9.35651 10.1022 3
-4 -3 10 -2.40968 11.2742 3
-4 -3 11 108.301 21.5390 3
-4 -3 12 120.781 23.5771 3
-4 -3 13 28.2785 15.1076 3
-4 -3 14 323.408 37.9049 3
-4 -2 -3 346.903 33.3534 3
-4 -2 -2 -18.5062 13.3338 3
-4 -2 -1 608.624 42.8793 3
-4 -2 0 19.6534 14.5353 3
-4 -2 1 1235.06 63.2997 3
-4 -2 2 32.4473 17.0784 3
-4 -2 3 1884.68 76.4328 3
-4 -2 4 38.7481 14.2293 3
-4 -2 5 2049.11 78.2046 3
-4 -2 6 20.9002 12.9093 3
-4 -2 7 1299.81 61.6308 3
-4 -2 8 10.1517 10.2437 3
-4 -2 9 1052.06 56.7662 3
-4 -2 10 8.67457 10.7524 3
-4 -2 11 640.617 47.4097 3
-4 -2 12 19.8238 14.2458 3
-4 -2 13 283.528 34.6508 3
-4 -2 14 56.3678 19.4890 3
-4 -2 15 30.5968 16.0791 3
-4 -1 -5 4.09334 3.63525 4
-4 -1 -3 13.3648 9.69155 3
-4 -1 -2 674.007 41.0806 3
-4 -1 -1 47.1062 14.9671 3
-4 -1 0 396.626 32.6693 3
-4 -1 1 12.8134 11.4431 3
-4 -1 2 2.16675 11.2858 3
-4 -1 3 4.60561 9.63413 3
-4 -1 4 628.206 36.5068 3
-4 -1 5 30.8399 11.7184 3
-4 -1 6 525.271 34.4765 3
-4 -1 7 129.915 18.3731 3
-4 -1 8 1014.52 52.2387 3
-4 -1 9 96.7732 18.0469 3
-4 -1 10 1394.26 66.8072 3
-4 -1 11 222.623 28.7808 3
-4 -1 12 912.439 57.0367 3
-4 -1 13 285.678 32.9648 3
-4 -1 14 799.050 57.0756 3
-4 -1 15 334.336 38.6010 3
-4 0 -6 1146.42 57.8807 2
-4 0 -5 1683.30 45.6067 4
-4 0 -5 1755.28 46.2694 1
-4 0 -5 1934.15 73.5396 2
-4 0 -4 1680.25 65.8819 2
-4 0 -4 1645.11 47.3853 1
-4 0 -4 1608.39 47.2458 4
-4 0 -3 2897.17 88.1774 2
-4 0 -3 2585.95 69.9693 4
-4 0 -2 1768.71 62.8470 2
-4 0 -2 1549.60 58.9655 3
-4 0 -1 950.751 43.6586 3
-4 0 -1 1036.81 43.6343 2
-4 0 0 1508.43 58.2626 3
-4 0 1 574.935 32.9529 3
-4 0 2 1590.42 56.3500 3
-4 0 3 423.275 27.0211 3
-4 0 4 707.074 35.7682 3
-4 0 5 -1.06145 7.88294 3
-4 0 6 59.1994 12.7968 3
-4 0 7 35.2947 11.0509 3
-4 0 8 8.98759 10.0750 3
-4 0 9 85.5855 16.2627 3
-4 0 10 58.6174 14.2879 3
-4 0 11 178.820 25.4837 3
-4 0 12 467.222 40.4562 3
-4 0 13 153.857 25.1683 3
-4 0 14 678.075 51.6918 3
-4 0 15 101.787 22.5164 3
-4 1 -7 476.087 35.4230 2
-4 1 -6 1.86093 4.60419 1
-4 1 -6 2.08918 7.44086 2
-4 1 -5 949.893 47.3708 2
-4 1 -5 809.659 31.5420 4
-4 1 -5 848.615 32.1261 1
-4 1 -4 86.4475 14.5584 2
-4 1 -4 61.5082 9.11515 4
-4 1 -4 59.1444 9.43778 1
-4 1 -3 1256.28 43.6497 1
-4 1 -3 1238.71 43.5739 4
-4 1 -3 1266.79 51.7679 2
-4 1 -2 147.562 14.2867 3
-4 1 -2 168.857 15.3241 4
-4 1 -2 136.620 15.4744 2
-4 1 -1 1889.30 56.9037 3
-4 1 -1 1948.52 61.3103 2
-4 1 -1 1943.36 60.9889 4
-4 1 0 14.4596 7.52001 4
-4 1 0 15.6198 7.39198 2
-4 1 0 10.5193 7.84887 3
-4 1 1 3127.96 77.5358 2
-4 1 1 2993.48 86.8970 4
-4 1 1 3153.74 80.1109 3
-4 1 2 53.1490 9.87053 3
-4 1 2 49.1582 6.81003 2
-4 1 3 2170.57 52.3957 2
-4 1 3 2357.40 65.1554 3
-4 1 4 1.50087 6.80980 3
-4 1 5 1270.11 48.2688 3
-4 1 6 10.9798 8.73845 3
-4 1 7 1243.89 53.2246 3
-4 1 8 20.9896 10.8994 3
-4 1 9 633.423 40.0937 3
-4 1 10 28.3865 14.3732 3
-4 1 11 156.509 22.5596 3
-4 1 12 3.96777 11.1502 3
-4 1 13 2.80386 11.7994 3
-4 1 14 10.3681 13.3855 3
-4 2 -7 77.1528 14.8246 2
-4 2 -6 936.176 48.5006 2
-4 2 -5 62.4848 12.8156 2
-4 2 -5 71.9030 11.5180 1
-4 2 -4 596.802 30.6533 4
-4 2 -4 607.373 30.5593 1
-4 2 -4 702.782 36.7417 2
-4 2 -3 13.7774 7.54066 4
-4 2 -3 -5.05744 7.73363 1
-4 2 -3 2.53821 6.30411 2
-4 2 -2 4.64385 7.99335 1
-4 2 -2 10.2440 7.51434 4
-4 2 -2 15.6401 7.68502 2
-4 2 -1 18.9814 9.60614 1
-4 2 -1 17.9102 4.53077 3
-4 2 -1 20.2687 8.61232 4
-4 2 -1 16.9713 7.21230 2
-4 2 0 -0.64449 5.32086 2
-4 2 0 5.25925 4.62105 3
-4 2 0 -4.34610 7.30325 4
-4 2 0 24.8280 10.6263 1
-4 2 1 12.2434 5.33707 3
-4 2 1 6.45482 4.65827 2
-4 2 1 14.9120 8.18020 4
-4 2 2 244.187 14.9326 3
-4 2 2 221.470 20.4132 4
-4 2 2 218.081 13.9601 2
-4 2 3 0.96523 3.76448 2
-4 2 3 4.04743 9.04993 4
-4 2 3 4.24021 5.58398 3
-4 2 4 1141.09 41.7934 3
-4 2 4 1172.64 51.8563 4
-4 2 4 1163.88 29.4395 2
-4 2 5 20.3067 8.56371 3
-4 2 5 12.1403 8.20664 4
-4 2 6 1308.06 51.8334 3
-4 2 6 1429.72 59.4984 4
-4 2 7 41.9537 11.6754 4
-4 2 7 28.5282 11.1016 3
-4 2 8 1345.98 57.8175 3
-4 2 8 1354.65 61.0509 4
-4 2 9 151.639 20.8479 4
-4 2 9 162.012 21.4347 3
-4 2 10 1118.81 57.5710 3
-4 2 11 172.448 24.0318 3
-4 2 12 834.724 53.5547 3
-4 2 13 79.0741 19.5884 3
-4 2 14 569.900 49.3191 3
-4 2 15 126.828 22.1182 1
-4 3 -7 2504.33 88.9659 2
-4 3 -6 522.067 35.4695 2
-4 3 -5 2643.65 83.8504 1
-4 3 -5 2971.14 91.8936 2
-4 3 -4 660.942 36.4038 2
-4 3 -4 615.456 34.6044 1
-4 3 -3 1925.30 66.7587 1
-4 3 -3 2044.04 67.8443 2
-4 3 -3 1977.05 67.8813 4
-4 3 -2 1526.26 57.6386 4
-4 3 -2 1570.02 55.7120 2
-4 3 -2 1541.27 57.5130 1
-4 3 -1 856.514 41.6585 4
-4 3 -1 906.710 38.0584 2
-4 3 -1 851.206 42.0108 1
-4 3 0 1123.85 49.2375 4
-4 3 0 1143.93 49.7968 1
-4 3 0 1151.12 42.1359 2
-4 3 1 481.514 16.7944 3
-4 3 1 485.222 31.6497 4
-4 3 1 451.364 23.6045 2
-4 3 1 478.445 31.5233 1
-4 3 2 319.723 26.5955 4
-4 3 2 330.086 27.7196 1
-4 3 2 350.465 19.2122 2
-4 3 2 362.367 16.9298 3
-4 3 3 44.3199 13.5854 1
-4 3 3 37.1557 7.51376 3
-4 3 3 53.2011 13.0413 4
-4 3 3 37.7731 6.85449 2
-4 3 4 199.505 16.7661 3
-4 3 4 213.979 23.1782 1
-4 3 4 193.515 21.4814 4
-4 3 4 197.466 13.0304 2
-4 3 5 98.7583 13.1355 3
-4 3 5 101.543 16.9191 4
-4 3 5 96.9777 8.91359 2
-4 3 5 127.223 19.4845 1
-4 3 6 39.5268 11.8162 4
-4 3 6 46.3293 14.3278 1
-4 3 7 304.973 29.1528 1
-4 3 7 326.031 28.5002 4
-4 3 7 298.890 16.0034 2
-4 3 8 138.746 20.4341 4
-4 3 8 82.1427 16.6994 1
-4 3 8 108.982 9.54975 2
-4 3 9 267.730 27.8596 1
-4 3 9 295.960 15.9061 2
-4 3 10 395.489 19.0905 2
-4 3 10 400.528 34.6505 1
-4 3 11 352.025 33.5024 1
-4 3 11 342.055 33.8493 3
-4 3 12 454.996 39.7585 3
-4 3 12 408.070 36.9155 1
-4 3 13 257.717 31.4959 3
-4 3 13 249.601 28.3047 1
-4 3 14 540.780 43.0153 1
-4 4 -6 336.011 29.2527 2
-4 4 -5 1556.38 63.4791 2
-4 4 -4 531.563 33.3712 2
-4 4 -4 517.835 35.6849 1
-4 4 -3 2402.54 77.1509 2
-4 4 -3 2248.61 80.7337 1
-4 4 -2 208.450 22.8885 1
-4 4 -2 155.463 17.4651 2
-4 4 -1 2283.33 80.3660 1
-4 4 -1 2311.22 72.0704 2
-4 4 -1 2398.36 81.6059 4
-4 4 0 150.800 19.0533 4
-4 4 0 131.977 14.1242 2
-4 4 0 120.667 18.4698 1
-4 4 1 1977.60 74.2043 1
-4 4 1 2029.62 62.5152 2
-4 4 1 2008.85 51.4025 3
-4 4 1 1981.14 47.1932 3
-4 4 1 2087.16 75.3300 4
-4 4 2 46.5299 12.9144 1
-4 4 2 68.9088 10.0414 2
-4 4 2 66.6093 8.95523 3
-4 4 2 34.9599 11.2743 4
-4 4 3 1545.22 65.8502 1
-4 4 3 1719.00 67.8011 4
-4 4 3 1548.36 51.4358 2
-4 4 4 73.3217 14.9234 4
-4 4 4 87.2039 17.7456 1
-4 4 5 859.575 48.9834 1
-4 4 5 970.650 50.5878 4
-4 4 6 17.9178 10.1688 4
-4 4 6 22.3015 12.1369 1
-4 4 7 401.409 34.1032 1
-4 4 8 36.7064 8.56424 2
-4 4 8 31.8022 12.6146 1
-4 4 9 48.7424 8.58282 2
-4 4 9 68.4162 16.8254 1
-4 4 10 11.5041 7.25874 2
-4 4 10 15.8985 12.0029 1
-4 4 11 32.2613 13.0155 1
-4 4 12 4.39406 10.8203 1
-4 4 13 31.4450 13.8162 1
-4 5 -5 40.9702 12.2945 2
-4 5 -4 6.41390 7.03090 2
-4 5 -3 -10.6282 12.1454 1
-4 5 -3 -3.24945 7.55950 2
-4 5 -2 141.239 17.0201 2
-4 5 -2 143.361 22.5163 1
-4 5 -1 7.02854 11.3715 1
-4 5 -1 -2.37917 6.78787 2
-4 5 0 430.513 35.3385 1
-4 5 0 450.988 29.2815 2
-4 5 0 424.983 18.2921 3
-4 5 1 5.85413 5.64958 2
-4 5 1 -2.42596 5.23613 3
-4 5 1 -0.31679 11.4203 1
-4 5 1 24.8983 12.8806 4
-4 5 2 669.615 33.2825 3
-4 5 2 757.181 46.5261 1
-4 5 2 712.632 44.4254 4
-4 5 3 20.3253 7.44247 3
-4 5 3 33.9230 12.4782 4
-4 5 3 12.3502 11.2565 1
-4 5 4 1055.17 48.1474 3
-4 5 4 981.525 55.1358 1
-4 5 5 10.7116 8.28592 3
-4 5 5 34.4373 14.6032 1
-4 5 6 1078.10 54.4167 3
-4 5 6 1018.93 57.7248 1
-4 5 7 7.20367 11.2249 1
-4 5 7 11.9592 7.99392 3
-4 5 8 828.589 43.1884 2
-4 5 8 881.575 54.2010 1
-4 5 9 38.9559 14.5227 1
-4 5 9 25.7509 9.41706 2
-4 5 10 650.917 47.5776 1
-4 5 11 16.5400 12.3163 1
-4 5 12 351.529 35.6781 1
-4 6 -3 822.583 46.4602 2
-4 6 -2 210.998 11.0787 3
-4 6 -2 233.191 24.0899 2
-4 6 -2 192.149 29.6040 1
-4 6 -1 384.020 36.3975 1
-4 6 -1 421.101 19.1830 3
-4 6 -1 384.835 30.5976 2
-4 6 0 264.103 18.0420 3
-4 6 0 296.853 25.7846 2
-4 6 0 297.436 33.1857 1
-4 6 1 13.9730 6.95106 3
-4 6 1 -0.91808 13.9668 1
-4 6 2 129.464 17.1586 3
-4 6 2 132.606 21.8519 1
-4 6 3 34.7888 10.1886 3
-4 6 3 6.64673 13.5235 1
-4 6 4 9.37725 9.22015 3
-4 6 4 -12.6350 14.5888 1
-4 6 5 185.580 26.8459 1
-4 6 5 211.332 25.8642 3
-4 6 6 9.23537 12.0539 1
-4 6 6 21.6457 10.9416 3
-4 6 7 460.625 40.6825 1
-4 6 8 82.8684 19.1797 1
-4 6 9 389.193 32.2687 2
-4 6 9 368.008 37.6273 1
-4 6 10 243.725 31.2217 1
-4 6 11 295.915 35.1252 1
-4 7 -4 261.994 15.0718 3
-4 7 -3 1385.09 41.8677 3
-4 7 -2 335.835 19.3036 3
-4 7 -1 936.974 37.3611 3
-4 7 0 290.007 21.6190 3
-4 7 1 1098.49 65.6326 1
-4 7 1 897.986 44.0361 3
-4 7 2 11.4111 6.52601 3
-4 7 2 -6.74766 11.9276 1
-4 7 3 629.352 43.7785 3
-4 7 3 624.031 50.4650 1
-4 7 4 0.94331 11.4194 1
-4 7 4 2.37461 8.21107 3
-4 7 5 8.38951 6.64258 3
-4 7 5 192.161 28.3866 1
-4 7 6 -10.2274 13.2980 1
-4 7 7 55.6620 17.7466 1
-4 7 8 63.7377 17.5689 1
-4 7 9 10.4452 12.5912 1
-4 7 10 12.4893 12.4704 1
-3 -7 -2 33.4768 19.2904 3
-3 -7 -1 1250.09 82.1824 3
-3 -7 0 59.4929 20.1383 3
-3 -7 1 1339.49 85.0970 3
-3 -7 2 55.2411 22.1112 3
-3 -7 3 1601.56 94.7779 3
-3 -7 4 17.9949 19.4300 3
-3 -7 5 1776.07 101.143 3
-3 -7 6 34.0188 19.7160 3
-3 -7 7 982.230 73.8290 3
-3 -7 8 4.55081 14.9020 3
-3 -7 9 386.576 46.0847 3
-3 -7 10 50.9078 22.3079 3
-3 -7 11 218.002 33.4825 3
-3 -6 -4 30.3739 10.4810 4
-3 -6 -2 194.991 24.1583 1
-3 -6 -2 237.809 34.4281 3
-3 -6 -1 70.1518 22.5271 3
-3 -6 0 601.392 53.8226 3
-3 -6 1 162.028 28.4745 3
-3 -6 2 672.978 56.4158 3
-3 -6 3 395.528 44.1228 3
-3 -6 4 996.280 71.2786 3
-3 -6 5 613.839 54.9484 3
-3 -6 6 1265.68 78.1978 3
-3 -6 7 916.067 65.1975 3
-3 -6 8 648.070 53.6084 3
-3 -6 9 1026.90 67.8295 3
-3 -6 10 500.918 47.8611 3
-3 -6 11 689.272 56.4217 3
-3 -6 12 350.148 41.1788 3
-3 -5 -5 443.224 28.9126 4
-3 -5 -4 108.722 15.3519 1
-3 -5 -3 378.302 29.5107 1
-3 -5 -3 437.016 43.9903 3
-3 -5 -2 143.148 27.0056 3
-3 -5 -1 438.942 43.1307 3
-3 -5 0 28.0360 15.0969 3
-3 -5 1 219.596 31.8790 3
-3 -5 2 2.86118 13.0858 3
-3 -5 3 45.8833 17.8653 3
-3 -5 4 1.37530 13.0292 3
-3 -5 5 35.8482 18.0457 3
-3 -5 6 134.712 25.5761 3
-3 -5 7 -9.45774 12.6375 3
-3 -5 8 453.999 42.2818 3
-3 -5 9 38.4638 15.9354 3
-3 -5 10 817.343 56.9531 3
-3 -5 11 39.3492 16.6767 3
-3 -5 12 672.517 54.2044 3
-3 -5 13 21.2461 14.0997 3
-3 -5 14 525.685 49.1775 3
-3 -4 -6 247.207 16.7369 4
-3 -4 -5 689.949 32.5421 4
-3 -4 -5 667.298 31.9449 1
-3 -4 -4 415.759 26.1907 1
-3 -4 -3 1341.33 71.7720 3
-3 -4 -2 605.381 47.1388 3
-3 -4 -1 2581.42 103.383 3
-3 -4 0 391.748 38.1771 3
-3 -4 1 3220.19 118.149 3
-3 -4 2 93.4015 21.2965 3
-3 -4 3 2518.45 100.670 3
-3 -4 4 70.1558 20.9112 3
-3 -4 5 1345.86 67.5155 3
-3 -4 6 14.5045 10.5542 3
-3 -4 7 760.074 49.6755 3
-3 -4 8 -0.11045 12.9712 3
-3 -4 9 397.676 37.1285 3
-3 -4 10 17.0574 13.6654 3
-3 -4 11 33.5221 15.3593 3
-3 -4 12 18.2217 12.5144 3
-3 -4 13 18.0853 14.9515 3
-3 -4 14 19.5883 15.8710 3
-3 -3 -6 214.405 11.7319 1
-3 -3 -6 223.866 12.2632 4
-3 -3 -5 -2.04338 4.88899 1
-3 -3 -3 40.5707 17.5479 3
-3 -3 -2 989.307 55.8112 3
-3 -3 -1 108.925 20.8187 3
-3 -3 0 2612.68 97.8832 3
-3 -3 1 500.319 40.5031 3
-3 -3 2 4041.85 126.627 3
-3 -3 3 753.690 46.4941 3
-3 -3 4 2212.33 82.3897 3
-3 -3 5 913.472 49.7516 3
-3 -3 6 1779.60 72.9656 3
-3 -3 7 1183.96 58.3690 3
-3 -3 8 1805.97 75.7086 3
-3 -3 9 1053.64 56.7500 3
-3 -3 10 864.381 52.4965 3
-3 -3 11 725.667 49.1151 3
-3 -3 12 298.728 33.7437 3
-3 -3 13 317.172 35.1257 3
-3 -3 14 111.528 23.8274 3
-3 -3 15 96.3312 23.4689 3
-3 -2 -5 448.305 17.5901 1
-3 -2 -3 209.633 24.8537 3
-3 -2 -2 40.5140 15.6084 3
-3 -2 -1 80.7099 16.4660 3
-3 -2 0 59.3436 17.0563 3
-3 -2 1 75.0312 16.8921 3
-3 -2 2 297.065 26.6767 3
-3 -2 3 -0.02362 10.0977 3
-3 -2 4 1180.08 51.3531 3
-3 -2 5 24.9494 10.9866 3
-3 -2 6 1359.31 57.0698 3
-3 -2 7 87.1574 16.8273 3
-3 -2 8 972.154 50.6804 3
-3 -2 9 257.004 26.9011 3
-3 -2 10 1180.77 60.1843 3
-3 -2 11 41.1802 15.1421 3
-3 -2 12 1308.52 67.6909 3
-3 -2 13 45.0979 18.0460 3
-3 -2 14 828.673 57.7073 3
-3 -2 15 86.1929 21.2047 3
-3 -1 -3 2207.61 75.0639 3
-3 -1 -2 899.073 43.7456 3
-3 -1 -1 2500.00 79.7331 3
-3 -1 0 710.169 38.8844 3
-3 -1 1 2245.11 72.7238 3
-3 -1 2 1132.44 46.1793 3
-3 -1 3 1738.83 59.4093 3
-3 -1 4 358.933 24.9841 3
-3 -1 5 1149.42 47.4215 3
-3 -1 6 13.8191 9.73132 3
-3 -1 7 317.673 26.5881 3
-3 -1 8 13.1464 10.4663 3
-3 -1 9 -4.21290 10.6960 3
-3 -1 10 30.7071 12.7692 3
-3 -1 11 35.1693 14.8022 3
-3 -1 12 10.7141 10.0746 3
-3 -1 13 340.535 35.3445 3
-3 -1 14 17.1097 15.0957 3
-3 -1 15 484.315 45.1360 3
-3 0 -8 246.346 27.0674 2
-3 0 -7 29.6674 11.1311 2
-3 0 -6 945.101 47.8138 2
-3 0 -5 26.9256 10.2336 2
-3 0 -5 28.4526 3.77811 1
-3 0 -4 3359.16 93.1060 2
-3 0 -4 3083.51 68.4536 4
-3 0 -4 3043.91 67.9509 1
-3 0 -3 9.85915 5.32715 4
-3 0 -3 -1.04164 7.68315 2
-3 0 -2 4380.88 107.602 2
-3 0 -2 4152.14 104.796 3
-3 0 -1 30.5923 10.8627 3
-3 0 -1 43.8253 10.3376 2
-3 0 0 4023.44 95.9730 2
-3 0 0 4052.85 100.728 3
-3 0 1 172.024 15.8267 3
-3 0 2 6083.64 134.744 3
-3 0 3 722.002 31.4568 3
-3 0 4 4808.76 114.506 3
-3 0 5 1109.09 43.6409 3
-3 0 6 3193.75 89.7847 3
-3 0 7 722.760 38.3935 3
-3 0 8 1680.99 65.0214 3
-3 0 9 557.288 36.9921 3
-3 0 10 530.562 37.6477 3
-3 0 11 347.039 32.7888 3
-3 0 12 94.6299 19.3656 3
-3 0 13 127.998 22.6286 3
-3 0 14 8.65961 14.0127 3
-3 0 15 -12.9748 13.6324 3
-3 1 -8 28.9612 12.9056 2
-3 1 -7 270.303 24.8613 2
-3 1 -6 20.2332 10.6164 2
-3 1 -5 268.552 15.5455 1
-3 1 -5 321.993 24.9578 2
-3 1 -4 -3.15723 5.37896 1
-3 1 -4 1.15725 4.54362 4
-3 1 -4 -0.48354 6.21098 2
-3 1 -3 -0.62739 5.57382 1
-3 1 -3 -1.09512 7.35034 2
-3 1 -3 6.79897 5.73886 4
-3 1 -2 264.330 18.8808 2
-3 1 -2 255.010 16.4376 1
-3 1 -2 249.370 16.3735 4
-3 1 -1 131.029 12.6455 4
-3 1 -1 134.971 13.2700 2
-3 1 -1 125.841 10.9926 3
-3 1 0 959.571 36.7907 4
-3 1 0 980.020 32.6003 3
-3 1 0 969.795 33.3780 2
-3 1 1 34.2426 7.17962 3
-3 1 1 35.9663 8.84172 4
-3 1 1 24.3619 4.78616 2
-3 1 2 950.784 26.7179 2
-3 1 2 943.026 31.7609 3
-3 1 3 707.709 28.5542 3
-3 1 3 712.375 18.3164 2
-3 1 4 1786.28 53.9765 3
-3 1 5 978.109 40.0173 3
-3 1 6 2472.87 74.9559 3
-3 1 7 492.758 30.7627 3
-3 1 8 1616.50 37.4002 2
-3 1 8 1459.01 60.7208 3
-3 1 9 255.783 25.3232 3
-3 1 9 259.277 13.0720 2
-3 1 10 1092.35 56.1836 3
-3 1 10 1187.30 35.8851 2
-3 1 10 1170.09 54.1733 4
-3 1 11 157.128 22.3243 3
-3 1 11 156.945 19.5653 4
-3 1 11 151.648 12.2723 2
-3 1 12 1014.34 36.9422 2
-3 1 12 937.474 50.6393 4
-3 1 12 1058.83 60.4641 3
-3 1 13 58.4198 9.79721 2
-3 1 13 49.0048 14.7268 3
-3 1 14 535.568 46.5072 3
-3 1 15 41.2915 18.0953 3
-3 2 -8 1275.74 58.6930 2
-3 2 -7 1384.80 58.5377 2
-3 2 -6 1705.45 63.8098 2
-3 2 -5 1695.32 61.4090 2
-3 2 -4 2224.41 69.0343 2
-3 2 -4 2046.32 61.0072 1
-3 2 -3 1050.31 39.6134 4
-3 2 -3 1073.10 39.8966 1
-3 2 -3 1141.29 43.7946 2
-3 2 -2 1357.18 45.9353 1
-3 2 -2 1295.65 45.8952 2
-3 2 -2 1313.52 45.4465 4
-3 2 -1 1496.61 50.0258 1
-3 2 -1 1449.03 50.1325 4
-3 2 -1 1522.16 46.9023 2
-3 2 0 1058.04 41.7006 1
-3 2 0 1057.25 35.4235 2
-3 2 0 1116.43 42.3244 4
-3 2 1 1408.99 49.5013 1
-3 2 1 1395.22 34.5990 3
-3 2 1 1393.11 49.3510 4
-3 2 1 1314.54 38.9870 2
-3 2 2 541.147 20.4991 2
-3 2 2 578.259 30.7874 4
-3 2 2 538.207 21.1224 3
-3 2 3 310.937 17.4213 3
-3 2 3 284.626 13.3307 2
-3 2 3 288.920 21.9514 4
-3 2 4 36.8540 10.9871 4
-3 2 5 30.5939 10.2917 4
-3 2 6 1.66435 6.37319 4
-3 2 6 3.85130 3.60249 2
-3 2 7 25.5311 8.24438 4
-3 2 7 27.5783 6.13470 2
-3 2 8 39.3672 6.33442 2
-3 2 8 53.4920 11.7809 4
-3 2 9 153.669 18.7947 4
-3 2 9 129.797 11.7457 2
-3 2 10 26.2124 10.5305 4
-3 2 10 18.5849 6.07647 2
-3 2 11 372.045 21.6724 2
-3 2 11 312.797 27.8834 4
-3 2 12 5.54006 7.14922 4
-3 2 12 33.1879 8.29872 2
-3 2 13 503.503 43.4977 3
-3 2 13 497.812 37.0795 1
-3 2 14 2.86889 8.46532 1
-3 2 14 12.6490 14.3070 3
-3 3 -8 1198.95 56.7831 2
-3 3 -7 225.376 21.9944 2
-3 3 -6 2193.51 75.0910 2
-3 3 -5 372.170 26.3838 2
-3 3 -4 4167.82 110.205 1
-3 3 -4 4340.39 111.434 2
-3 3 -3 93.8269 15.0336 1
-3 3 -3 80.4936 12.4387 2
-3 3 -2 4995.93 125.519 1
-3 3 -2 5020.72 125.393 4
-3 3 -2 5246.52 121.628 2
-3 3 -1 -8.12021 9.06255 4
-3 3 -1 35.3312 11.9612 1
-3 3 -1 -8.05748 6.99356 2
-3 3 0 4590.35 115.204 4
-3 3 0 4562.95 105.575 2
-3 3 0 4692.47 115.740 1
-3 3 0 4356.79 88.4846 3
-3 3 1 43.0902 6.11344 3
-3 3 1 55.2964 8.53813 2
-3 3 1 45.8407 13.2690 1
-3 3 1 48.3128 11.3474 4
-3 3 2 4531.02 117.886 4
-3 3 2 4537.65 117.309 1
-3 3 3 255.975 22.3903 1
-3 3 3 280.798 23.1202 4
-3 3 4 3916.15 107.392 1
-3 3 4 3850.00 107.417 4
-3 3 5 197.551 21.5351 1
-3 3 5 194.294 20.0443 4
-3 3 6 1984.20 71.2011 1
-3 3 6 1970.07 70.9102 4
-3 3 7 205.251 21.8814 1
-3 3 7 183.096 15.7875 2
-3 3 7 212.242 22.3765 4
-3 3 8 632.255 38.0675 1
-3 3 8 654.120 38.9002 4
-3 3 8 571.070 28.9063 2
-3 3 9 183.743 22.3644 1
-3 3 9 178.499 20.8033 4
-3 3 9 163.864 16.0908 2
-3 3 10 89.8820 16.9043 1
-3 3 10 97.4288 16.3394 4
-3 3 10 113.504 13.7701 2
-3 3 11 59.7424 10.4309 2
-3 3 11 61.2263 13.2564 4
-3 3 11 99.9662 17.0015 1
-3 3 12 -7.84009 6.50368 2
-3 3 12 3.78018 9.59665 1
-3 3 13 34.1840 11.2317 1
-3 4 -8 54.2543 13.6041 2
-3 4 -7 6.04293 8.33088 2
-3 4 -6 131.085 18.4011 2
-3 4 -5 27.5999 10.3212 2
-3 4 -4 312.507 24.6268 2
-3 4 -3 324.494 26.2147 1
-3 4 -3 446.587 28.2586 2
-3 4 -2 199.873 8.53848 3
-3 4 -2 203.969 18.6897 2
-3 4 -2 245.484 23.7556 1
-3 4 -1 1006.98 42.6339 2
-3 4 -1 1024.27 27.5431 3
-3 4 -1 990.412 48.2898 1
-3 4 0 784.873 29.1682 3
-3 4 0 896.750 44.5142 1
-3 4 1 959.654 46.7552 1
-3 4 1 979.860 46.3159 4
-3 4 1 882.209 35.2989 3
-3 4 2 1869.78 69.8467 1
-3 4 2 1990.00 70.8845 4
-3 4 2 1871.37 58.6593 3
-3 4 3 1161.46 52.9180 1
-3 4 3 1189.94 52.8871 4
-3 4 3 1166.24 46.2830 3
-3 4 4 1394.30 54.1738 3
-3 4 4 1324.07 58.0000 1
-3 4 4 1402.96 58.7255 4
-3 4 5 1227.67 55.9346 1
-3 4 5 1233.54 54.9490 4
-3 4 6 1044.67 51.8401 1
-3 4 6 1069.66 51.9444 4
-3 4 7 497.053 34.2323 4
-3 4 7 465.848 34.3550 1
-3 4 8 1045.86 47.4092 2
-3 4 8 1167.43 56.5844 1
-3 4 8 1187.71 56.1806 4
-3 4 9 319.849 29.5477 1
-3 4 9 287.846 27.3925 4
-3 4 9 290.435 23.7939 2
-3 4 10 855.463 43.6076 2
-3 4 10 901.001 50.3009 1
-3 4 11 155.577 18.9302 2
-3 4 11 175.966 22.7369 1
-3 4 12 433.523 35.5194 1
-3 4 13 17.5995 9.92439 1
-3 5 -7 384.334 31.5948 2
-3 5 -6 1175.69 55.5678 2
-3 5 -5 402.223 30.9575 2
-3 5 -4 1012.21 48.8805 2
-3 5 -4 999.628 31.6015 3
-3 5 -3 377.104 17.4345 3
-3 5 -3 421.523 29.7168 2
-3 5 -2 932.806 45.0268 2
-3 5 -2 927.586 50.7160 1
-3 5 -2 932.276 30.8394 3
-3 5 -1 138.707 20.3196 1
-3 5 -1 175.565 13.5199 3
-3 5 0 165.085 14.9492 3
-3 5 0 181.426 22.9688 1
-3 5 1 39.7193 15.2204 1
-3 5 1 17.3415 8.13942 3
-3 5 2 27.2563 10.0750 3
-3 5 2 7.34156 11.1270 1
-3 5 3 19.6038 9.73494 3
-3 5 3 5.14341 9.76350 1
-3 5 4 83.8483 17.6362 1
-3 5 4 90.8960 15.4915 3
-3 5 5 45.1847 13.2875 3
-3 5 5 23.9889 11.9602 1
-3 5 5 15.4505 9.40376 4
-3 5 6 9.73629 10.0791 4
-3 5 6 9.88438 9.48611 1
-3 5 6 13.9032 9.34235 3
-3 5 7 240.348 27.1859 1
-3 5 7 247.216 27.3704 3
-3 5 8 25.0135 10.8979 1
-3 5 8 42.1403 13.2445 2
-3 5 9 455.691 34.3777 2
-3 5 9 602.630 42.1050 1
-3 5 10 28.4613 11.7439 1
-3 5 10 17.3309 12.3611 2
-3 5 11 437.918 35.1145 2
-3 5 11 489.756 39.1853 1
-3 5 12 13.1307 9.93500 1
-3 6 -5 271.825 17.9718 3
-3 6 -4 2608.59 68.7969 3
-3 6 -4 2576.35 91.0548 2
-3 6 -3 282.349 18.5850 3
-3 6 -3 312.565 27.8959 2
-3 6 -2 2970.54 79.0648 3
-3 6 -1 107.022 13.3510 3
-3 6 0 2809.23 103.413 1
-3 6 0 2786.03 83.5610 3
-3 6 1 2.31177 7.47985 3
-3 6 1 -1.69115 10.3480 1
-3 6 2 2342.57 93.0172 1
-3 6 2 2355.59 85.7476 3
-3 6 3 32.0215 11.3589 3
-3 6 3 8.95047 10.7576 1
-3 6 4 1101.78 59.1746 3
-3 6 4 1139.84 61.9205 1
-3 6 5 26.6676 11.8200 3
-3 6 5 29.0068 14.0717 1
-3 6 6 362.927 36.7568 1
-3 6 7 36.5209 14.7831 1
-3 6 8 108.346 21.0813 1
-3 6 8 139.199 21.3129 2
-3 6 9 58.5930 15.8464 2
-3 6 9 92.2147 18.9984 1
-3 6 10 4.48018 8.77101 1
-3 6 10 14.8249 10.1194 2
-3 7 -6 0.23322 5.01060 3
-3 7 -5 510.481 27.9521 3
-3 7 -4 108.315 13.1387 3
-3 7 -3 755.324 35.9630 3
-3 7 -2 380.011 25.8720 3
-3 7 -1 1378.84 55.3846 3
-3 7 0 415.600 30.2947 3
-3 7 1 1331.79 61.4699 3
-3 7 2 496.098 38.7213 3
-3 7 3 895.831 55.8219 3
-3 7 4 677.133 50.4729 3
-3 7 9 111.157 21.0486 2
-3 8 -5 92.4749 13.3676 3
-3 8 -4 125.002 16.2230 3
-3 8 -3 11.6237 7.60713 3
-3 8 -2 84.2149 14.1309 3
-3 8 -1 18.7499 9.58335 3
-3 8 0 12.9336 8.41771 3
-3 8 1 5.24199 7.33679 3
-3 8 8 2.89343 10.1315 2
-2 -9 -1 156.871 25.8924 4
-2 -8 -2 450.517 40.0715 4
-2 -8 -1 47.5482 19.2155 3
-2 -8 0 580.458 56.3368 3
-2 -8 1 67.1184 22.8922 3
-2 -8 2 743.903 63.1221 3
-2 -8 3 108.924 27.1287 3
-2 -8 4 710.883 62.3596 3
-2 -8 5 110.103 28.0401 3
-2 -8 6 444.284 50.7790 3
-2 -8 7 74.9252 22.9688 3
-2 -8 8 327.396 44.7267 3
-2 -8 9 83.0939 23.6746 3
-2 -8 10 220.343 36.1431 3
-2 -7 -4 16.7758 7.36186 4
-2 -7 -3 11.2914 8.79477 4
-2 -7 -2 -8.41178 12.6520 3
-2 -7 -1 128.043 26.9199 3
-2 -7 0 38.3998 17.9183 3
-2 -7 1 486.971 47.6836 3
-2 -7 2 235.504 33.5824 3
-2 -7 3 508.046 50.0161 3
-2 -7 4 822.676 63.6725 3
-2 -7 5 560.107 53.0553 3
-2 -7 6 1117.45 74.7588 3
-2 -7 7 597.835 54.0521 3
-2 -7 8 1333.86 80.7031 3
-2 -7 9 263.123 36.0377 3
-2 -7 10 1271.87 77.5293 3
-2 -7 11 254.519 35.1620 3
-2 -7 12 907.120 66.6493 3
-2 -6 -5 556.600 35.6348 4
-2 -6 -4 15.9553 8.35699 1
-2 -6 -4 13.5339 7.29339 4
-2 -6 -3 618.710 39.8265 1
-2 -6 -2 17.0290 17.3760 3
-2 -6 -2 1.51579 7.44676 1
-2 -6 -1 238.755 26.0912 1
-2 -6 -1 217.132 32.2356 3
-2 -6 0 25.6040 17.7682 3
-2 -6 1 11.9543 15.8834 3
-2 -6 2 34.3425 18.2406 3
-2 -6 3 45.7923 21.3777 3
-2 -6 4 -15.9586 16.8076 3
-2 -6 5 410.030 41.5721 3
-2 -6 6 18.9457 13.3315 3
-2 -6 7 681.051 52.0976 3
-2 -6 8 11.8850 13.9281 3
-2 -6 9 1062.97 65.5260 3
-2 -6 10 84.1650 20.6655 3
-2 -6 11 1338.42 75.0137 3
-2 -6 12 134.274 25.1225 3
-2 -6 13 977.278 66.3719 3
-2 -6 14 167.976 30.0335 3
-2 -5 -6 532.273 30.4181 4
-2 -5 -5 8.77448 7.71020 4
-2 -5 -5 25.7181 7.74976 1
-2 -5 -4 749.631 39.1226 4
-2 -5 -4 707.041 37.6557 1
-2 -5 -3 12.0530 15.7865 3
-2 -5 -3 19.0036 8.34219 1
-2 -5 -2 1244.89 55.7407 1
-2 -5 -2 1366.03 72.3742 3
-2 -5 -1 54.3627 18.9912 3
-2 -5 0 1239.63 69.1322 3
-2 -5 1 115.591 23.9757 3
-2 -5 2 947.275 59.6407 3
-2 -5 3 33.6155 15.7186 3
-2 -5 4 814.821 54.0062 3
-2 -5 5 15.1712 14.4112 3
-2 -5 6 484.221 39.7555 3
-2 -5 7 20.7052 12.5796 3
-2 -5 8 201.454 26.6521 3
-2 -5 9 47.5334 16.7108 3
-2 -5 10 51.2956 16.3240 3
-2 -5 11 101.798 19.1902 3
-2 -5 12 10.7919 11.4518 3
-2 -5 13 92.8495 19.7668 3
-2 -5 14 29.8582 15.8730 3
-2 -5 15 155.103 27.3724 3
-2 -4 -7 15.6975 5.72106 4
-2 -4 -6 15.1139 5.47033 1
-2 -4 -6 13.9064 5.45571 4
-2 -4 -5 75.4533 10.7883 1
-2 -4 -5 90.5816 12.0103 4
-2 -4 -4 -0.26820 6.41972 1
-2 -4 -3 391.431 26.6330 1
-2 -4 -3 398.638 36.6399 3
-2 -4 -2 87.6416 19.5916 3
-2 -4 -1 599.759 44.3356 3
-2 -4 0 349.409 34.3861 3
-2 -4 1 1322.72 66.8215 3
-2 -4 2 1121.59 61.3016 3
-2 -4 3 1851.06 77.4960 3
-2 -4 4 1230.44 60.3378 3
-2 -4 5 1691.94 71.2961 3
-2 -4 6 1183.79 58.6570 3
-2 -4 7 1483.17 66.3539 3
-2 -4 8 1958.60 79.2764 3
-2 -4 9 773.964 48.2377 3
-2 -4 10 1365.71 67.3337 3
-2 -4 11 368.453 34.6973 3
-2 -4 12 770.766 52.5047 3
-2 -4 13 151.490 25.9263 3
-2 -4 14 467.795 43.4267 3
-2 -4 15 41.5570 17.4030 3
-2 -3 -6 32.7995 6.07253 4
-2 -3 -6 32.5521 5.41446 1
-2 -3 -5 583.431 24.4149 1
-2 -3 -5 580.961 24.5103 4
-2 -3 -4 1.21851 4.59735 1
-2 -3 -3 219.867 24.8882 3
-2 -3 -2 20.9953 12.0478 3
-2 -3 -1 16.6646 12.7408 3
-2 -3 0 53.6204 16.8539 3
-2 -3 1 25.2516 14.7143 3
-2 -3 2 160.571 22.2502 3
-2 -3 3 618.666 38.3725 3
-2 -3 4 179.995 20.8718 3
-2 -3 5 2121.36 74.7535 3
-2 -3 6 75.0200 15.3417 3
-2 -3 7 2669.68 88.0805 3
-2 -3 8 -8.35917 12.0351 3
-2 -3 9 2233.47 83.4137 3
-2 -3 10 0.79648 10.5123 3
-2 -3 11 1992.57 82.6825 3
-2 -3 12 88.7785 19.2224 3
-2 -3 13 2139.75 91.7137 3
-2 -3 14 85.4686 20.1753 3
-2 -3 15 1214.76 71.8363 3
-2 -2 -5 12.6824 3.54864 1
-2 -2 -5 3.17405 2.82997 4
-2 -2 -4 1598.85 42.7620 1
-2 -2 -3 1.83978 9.07093 3
-2 -2 -2 949.051 45.9816 3
-2 -2 -1 18.5040 11.5159 3
-2 -2 0 2364.18 78.6277 3
-2 -2 1 44.6915 15.0707 3
-2 -2 2 1633.06 57.7711 3
-2 -2 3 13.2801 12.2793 3
-2 -2 4 285.124 22.6230 3
-2 -2 5 11.6771 11.2132 3
-2 -2 6 84.5102 14.1294 3
-2 -2 7 35.1125 12.7172 3
-2 -2 8 44.9804 13.2165 3
-2 -2 9 251.915 25.4928 3
-2 -2 10 81.7541 16.8870 3
-2 -2 11 225.840 25.9412 3
-2 -2 12 111.172 20.8165 3
-2 -2 13 467.056 39.8482 3
-2 -2 14 258.585 30.5935 3
-2 -2 15 457.525 43.1750 3
-2 -2 16 238.850 33.0638 3
-2 -1 -2 327.171 23.6613 3
-2 -1 -1 2366.63 70.1819 3
-2 -1 0 174.783 17.9952 3
-2 -1 1 4426.82 106.556 3
-2 -1 2 915.015 36.2406 3
-2 -1 3 2994.51 78.1040 3
-2 -1 4 2774.10 75.6491 3
-2 -1 5 2322.08 69.1020 3
-2 -1 6 1886.22 62.2170 3
-2 -1 7 2360.35 74.8938 3
-2 -1 8 484.543 32.2896 3
-2 -1 9 748.761 42.5379 3
-2 -1 10 567.306 38.7188 3
-2 -1 11 318.411 30.2280 3
-2 -1 12 416.238 36.5438 3
-2 -1 13 213.774 28.3604 3
-2 -1 14 65.9016 19.5501 3
-2 -1 15 42.5568 15.3776 3
-2 0 -9 851.430 47.5127 2
-2 0 -8 232.365 23.5466 2
-2 0 -7 1110.67 50.6189 2
-2 0 -6 147.387 17.2536 2
-2 0 -5 415.026 27.2558 2
-2 0 -4 7.94133 8.50366 2
-2 0 -3 68.5745 5.62231 1
-2 0 -3 76.6446 6.11566 4
-2 0 -3 76.9797 11.5043 2
-2 0 -2 729.249 29.7525 3
-2 0 -2 740.500 30.8502 2
-2 0 -1 11.0211 8.86936 3
-2 0 -1 35.4621 9.21741 2
-2 0 0 813.143 27.3459 2
-2 0 0 805.724 30.2499 3
-2 0 1 1972.13 51.2621 3
-2 0 2 476.160 21.2684 3
-2 0 3 3175.19 76.1446 3
-2 0 4 515.019 25.0739 3
-2 0 5 3333.72 86.0694 3
-2 0 6 237.236 20.1989 3
-2 0 6 247.698 11.2998 2
-2 0 7 3864.26 104.395 3
-2 0 7 3921.38 84.2763 2
-2 0 8 137.565 11.3310 2
-2 0 8 131.093 17.3773 3
-2 0 9 2869.53 93.8368 3
-2 0 9 3017.85 74.3260 2
-2 0 10 53.5203 15.6823 3
-2 0 10 54.4632 8.80833 2
-2 0 11 2697.44 97.0754 3
-2 0 11 2712.13 75.9163 2
-2 0 12 11.9184 11.5218 3
-2 0 12 16.4424 7.30622 2
-2 0 13 1575.28 76.2486 3
-2 0 13 1597.93 57.9184 2
-2 0 14 54.6724 11.4517 2
-2 0 14 70.9014 20.1611 3
-2 0 15 805.921 57.9143 3
-2 0 15 744.944 40.7448 2
-2 1 -10 1882.72 76.1249 2
-2 1 -9 2.63030 7.42517 2
-2 1 -8 1888.59 69.8982 2
-2 1 -7 8.23259 7.10150 2
-2 1 -6 2156.80 69.7684 2
-2 1 -5 30.3800 9.72259 2
-2 1 -4 2357.36 68.4610 2
-2 1 -3 12.0302 5.60372 4
-2 1 -3 2.09020 5.34981 1
-2 1 -3 -1.34357 7.54014 2
-2 1 -2 2159.91 57.2255 2
-2 1 -2 2161.02 52.4574 1
-2 1 -2 2098.64 52.3654 4
-2 1 -1 99.0095 7.33940 3
-2 1 -1 105.718 10.8873 1
-2 1 -1 88.3487 9.70461 2
-2 1 -1 92.6850 10.2630 4
-2 1 0 832.362 28.9287 4
-2 1 0 814.013 21.2772 3
-2 1 0 725.513 24.2695 2
-2 1 1 4.37431 4.74359 3
-2 1 1 2.46801 5.66203 4
-2 1 1 1.47570 4.08925 2
-2 1 2 16.2344 3.43660 2
-2 1 2 21.1976 6.30100 3
-2 1 2 2.55965 8.36860 4
-2 1 3 33.2365 8.59287 3
-2 1 3 35.8311 8.76397 4
-2 1 4 2.78777 2.94737 2
-2 1 5 144.328 8.70556 2
-2 1 6 89.6361 8.14234 2
-2 1 7 321.152 16.6026 2
-2 1 8 567.971 24.7552 2
-2 1 9 234.450 20.5079 4
-2 1 9 278.842 18.2647 2
-2 1 10 543.706 32.1444 4
-2 1 10 498.515 26.8552 2
-2 1 11 357.165 26.8653 4
-2 1 11 358.084 23.5742 2
-2 1 12 624.712 33.3734 2
-2 1 12 629.275 37.2232 4
-2 1 13 417.171 28.1110 2
-2 1 13 435.756 30.9564 4
-2 1 14 617.069 48.9476 3
-2 1 14 559.323 34.5139 2
-2 1 15 394.118 41.9072 3
-2 2 -10 10.6444 9.40413 2
-2 2 -9 257.965 24.5468 2
-2 2 -8 24.2362 10.1789 2
-2 2 -7 412.991 28.0937 2
-2 2 -6 116.023 14.8556 2
-2 2 -5 1950.20 62.5658 2
-2 2 -4 30.7457 9.12919 2
-2 2 -3 3745.60 90.3431 1
-2 2 -3 3799.31 92.3039 2
-2 2 -2 179.040 15.5202 1
-2 2 -2 183.525 15.2969 2
-2 2 -1 2357.03 63.8670 4
-2 2 -1 2440.97 64.6487 1
-2 2 -1 2377.81 61.0536 2
-2 2 0 801.844 27.8505 2
-2 2 0 830.116 32.0730 1
-2 2 0 782.684 31.0964 4
-2 2 1 2266.47 63.2361 1
-2 2 1 2260.67 62.9774 4
-2 2 2 587.469 28.7066 1
-2 2 2 546.924 27.1502 4
-2 2 3 3665.67 93.0170 1
-2 2 3 3755.13 93.6647 4
-2 2 4 392.867 24.1966 1
-2 2 4 419.791 24.5533 4
-2 2 5 2239.22 67.6923 4
-2 2 6 415.306 21.5087 2
-2 2 6 388.353 25.0085 4
-2 2 7 858.480 38.9131 4
-2 2 7 795.742 33.0743 2
-2 2 8 275.423 21.7821 4
-2 2 8 284.627 19.7745 2
-2 2 9 575.146 33.6093 1
-2 2 9 590.930 33.5695 4
-2 2 9 561.949 29.8602 2
-2 2 10 96.1382 13.8672 2
-2 2 10 100.904 15.0737 1
-2 2 10 97.4721 14.7377 4
-2 2 11 81.5816 14.2577 1
-2 2 11 78.3258 13.0989 4
-2 2 11 75.4460 12.6093 2
-2 2 12 -7.30304 6.78590 1
-2 2 12 3.14881 5.51847 4
-2 2 12 15.0042 7.98965 2
-2 2 13 10.5005 7.75368 1
-2 2 13 5.13050 7.85502 2
-2 2 14 5.84805 7.31472 1
-2 2 14 13.1299 8.57266 2
-2 3 -10 352.423 30.3504 2
-2 3 -9 429.569 31.8321 2
-2 3 -8 87.4162 15.0391 2
-2 3 -7 404.395 28.7156 2
-2 3 -6 9.88605 7.43978 2
-2 3 -5 95.1599 14.5757 2
-2 3 -4 181.244 17.0913 2
-2 3 -3 19.2386 7.83904 2
-2 3 -2 579.522 28.7601 2
-2 3 -2 576.293 30.4391 1
-2 3 -2 585.895 18.3039 3
-2 3 -1 707.279 22.5871 3
-2 3 -1 795.687 36.2806 1
-2 3 0 1294.70 47.4087 4
-2 3 0 1217.28 38.0651 3
-2 3 0 1338.84 48.8643 1
-2 3 1 1839.23 52.3278 3
-2 3 1 1913.88 61.3599 4
-2 3 1 1885.00 60.6403 1
-2 3 2 983.086 41.8546 1
-2 3 2 1006.44 41.6591 4
-2 3 2 1024.41 37.7125 3
-2 3 3 2084.78 65.6412 4
-2 3 3 2078.15 65.8683 1
-2 3 4 1359.85 51.5252 1
-2 3 4 1410.24 51.6541 4
-2 3 5 3238.93 89.8133 4
-2 3 5 3046.38 88.8158 1
-2 3 6 741.943 38.2537 1
-2 3 6 806.896 39.0179 4
-2 3 7 2866.64 86.1399 2
-2 3 7 3138.09 90.9278 1
-2 3 7 3228.28 91.6227 4
-2 3 8 170.399 18.0943 1
-2 3 8 162.355 17.3371 4
-2 3 8 125.955 15.3891 2
-2 3 9 2123.41 72.6654 2
-2 3 9 2223.33 74.6968 1
-2 3 9 2154.32 73.5661 4
-2 3 10 73.1162 14.2954 1
-2 3 10 67.8502 13.5300 2
-2 3 10 62.2055 12.2208 4
-2 3 11 1371.73 57.8246 1
-2 3 11 1249.92 55.5778 4
-2 3 11 1385.60 58.3730 2
-2 3 12 20.2940 9.27720 2
-2 3 12 11.8821 8.48605 1
-2 3 13 767.014 42.8792 1
-2 3 13 762.983 44.5920 2
-2 4 -9 33.2227 11.0790 2
-2 4 -8 1543.30 63.8006 2
-2 4 -7 76.3213 14.4588 2
-2 4 -6 2092.06 72.3273 2
-2 4 -5 55.6588 11.8599 2
-2 4 -4 1359.91 41.6681 3
-2 4 -4 1455.00 54.6163 2
-2 4 -3 7.16503 5.01753 3
-2 4 -3 6.45285 8.24622 2
-2 4 -2 160.263 12.3555 3
-2 4 -1 42.3006 8.26440 3
-2 4 -1 28.8086 11.7044 1
-2 4 0 0.76926 11.3719 1
-2 4 0 14.8000 8.03308 3
-2 4 1 34.4665 10.2031 3
-2 4 1 32.3132 11.4625 1
-2 4 2 50.0023 14.1338 1
-2 4 2 56.5859 11.6855 3
-2 4 3 27.0914 10.8136 1
-2 4 3 14.9553 7.97894 3
-2 4 4 462.575 31.4437 1
-2 4 4 490.971 31.5210 4
-2 4 4 544.256 34.4182 3
-2 4 5 25.7654 10.1633 3
-2 4 5 49.0739 11.3069 4
-2 4 5 22.6028 11.1331 1
-2 4 6 780.318 41.2623 4
-2 4 6 789.184 45.4352 3
-2 4 6 731.654 40.1628 1
-2 4 7 87.8442 17.8564 3
-2 4 7 88.4241 15.2566 1
-2 4 7 107.198 16.4202 4
-2 4 7 84.8374 15.0795 2
-2 4 8 814.377 44.9102 2
-2 4 8 978.122 47.8918 4
-2 4 8 909.977 46.3179 1
-2 4 9 254.558 24.3567 1
-2 4 9 198.381 22.2286 2
-2 4 9 237.633 22.9541 4
-2 4 10 1150.95 56.4796 2
-2 4 10 1173.44 54.7764 4
-2 4 10 1281.50 56.7515 1
-2 4 11 245.822 26.6873 2
-2 4 11 300.149 27.1934 1
-2 4 12 607.502 41.8919 2
-2 4 12 708.541 42.3254 1
-2 4 13 208.870 25.8699 2
-2 5 -8 15.6890 11.0021 2
-2 5 -7 1240.09 57.5392 2
-2 5 -6 53.7710 11.7867 2
-2 5 -6 48.9612 9.34347 3
-2 5 -5 1239.24 44.0012 3
-2 5 -5 1261.00 55.7291 2
-2 5 -4 57.7254 9.20012 3
-2 5 -4 87.1227 15.4125 2
-2 5 -3 2007.39 58.9919 3
-2 5 -2 96.5976 11.7658 3
-2 5 -1 1881.93 61.0376 3
-2 5 0 170.860 18.3914 3
-2 5 1 1483.38 63.8170 1
-2 5 1 1376.28 58.4830 3
-2 5 2 156.927 20.0046 3
-2 5 2 127.305 19.8664 1
-2 5 3 1239.08 58.3035 1
-2 5 3 1227.79 57.9039 3
-2 5 4 82.0658 16.0111 1
-2 5 4 101.917 17.6018 3
-2 5 5 397.932 34.3467 3
-2 5 5 394.018 32.3064 1
-2 5 6 6.42755 10.7651 3
-2 5 6 9.87982 9.78943 1
-2 5 7 169.556 21.9321 1
-2 5 8 14.5800 11.3383 2
-2 5 8 19.0533 12.3973 1
-2 5 9 55.7285 17.1406 2
-2 5 9 70.7157 15.6821 1
-2 5 10 14.8231 10.6032 2
-2 5 10 -10.4926 9.10385 1
-2 5 11 1.72346 8.78530 1
-2 5 11 7.26934 9.89777 2
-2 5 12 28.3031 12.7039 2
-2 6 -7 69.2095 11.3800 3
-2 6 -6 231.506 20.0282 3
-2 6 -5 10.8294 10.0678 2
-2 6 -5 18.6401 7.48444 3
-2 6 -4 343.670 23.3355 3
-2 6 -3 272.021 21.1638 3
-2 6 -2 784.110 38.6583 3
-2 6 -1 588.225 34.5325 3
-2 6 0 1282.41 56.7904 3
-2 6 1 1098.46 55.2432 3
-2 6 2 1275.03 63.5797 3
-2 6 3 1326.40 67.5025 3
-2 6 4 653.650 47.9330 3
-2 6 8 182.605 25.7740 2
-2 6 9 782.498 53.0859 2
-2 6 10 89.7457 19.6569 2
-2 6 11 372.097 37.9165 2
-2 7 -8 837.529 43.5096 3
-2 7 -7 2.76168 5.34236 3
-2 7 -6 343.679 26.1439 3
-2 7 -5 8.90186 7.55720 3
-2 7 -4 109.768 15.5397 3
-2 7 -3 30.7086 9.33079 3
-2 7 -2 1.50082 7.34129 3
-2 7 -1 50.6277 12.9547 3
-2 7 0 68.3311 15.6868 3
-2 7 1 44.0985 15.9872 3
-2 7 2 272.307 31.1848 3
-2 7 8 751.754 56.3057 2
-2 7 9 18.5657 12.0285 2
-2 7 10 603.690 50.8595 2
-2 8 -8 6.78932 7.53239 3
-2 8 -7 797.686 45.5481 3
-2 8 -6 -0.37255 6.69592 3
-2 8 -5 678.876 41.1164 3
-2 8 -4 18.7019 8.71982 3
-2 8 -3 679.548 42.4256 3
-2 8 -2 49.5023 13.2681 3
-2 8 -1 647.340 43.8553 3
-1 -9 -2 296.893 34.7867 4
-1 -9 -1 229.543 31.5768 4
-1 -9 0 630.875 51.8084 4
-1 -9 1 116.038 27.3193 3
-1 -9 2 779.155 64.8278 3
-1 -9 3 114.867 25.9248 3
-1 -9 4 556.395 53.4516 3
-1 -9 5 44.4295 20.4877 3
-1 -9 6 409.191 48.5491 3
-1 -9 7 -10.6697 13.5581 3
-1 -9 8 311.106 43.8366 3
-1 -9 9 -12.0175 16.3507 3
-1 -8 -4 47.9525 14.5398 4
-1 -8 -3 6.71242 9.51323 4
-1 -8 -2 -13.0203 11.2661 4
-1 -8 -1 22.8587 15.3218 3
-1 -8 -1 42.2377 13.7694 4
-1 -8 0 7.47983 13.2496 3
-1 -8 1 173.559 30.0067 3
-1 -8 2 30.8653 19.3443 3
-1 -8 3 427.964 45.2069 3
-1 -8 4 -3.71521 12.9216 3
-1 -8 5 646.250 56.8820 3
-1 -8 6 30.0146 15.7211 3
-1 -8 7 840.191 65.3140 3
-1 -8 8 -8.58383 14.7920 3
-1 -8 9 755.594 60.2216 3
-1 -8 10 50.4633 18.8891 3
-1 -8 11 563.339 51.9470 3
-1 -8 12 -0.05927 14.7034 3
-1 -7 -5 16.0056 9.45567 4
-1 -7 -4 851.307 50.3217 4
-1 -7 -3 56.7390 14.5846 4
-1 -7 -2 754.321 48.5280 4
-1 -7 -1 131.954 26.3091 3
-1 -7 0 301.409 36.4584 3
-1 -7 1 107.431 24.1225 3
-1 -7 2 178.079 29.4581 3
-1 -7 3 143.179 28.1938 3
-1 -7 4 2.17352 15.1246 3
-1 -7 5 -8.59369 14.8054 3
-1 -7 6 228.498 32.5908 3
-1 -7 7 13.1818 13.2622 3
-1 -7 8 377.319 38.6512 3
-1 -7 9 1.03871 12.6969 3
-1 -7 10 508.665 45.8550 3
-1 -7 11 189.400 27.8473 3
-1 -7 12 601.466 50.8415 3
-1 -7 13 310.039 37.7837 3
-1 -7 14 547.114 50.8212 3
-1 -6 -6 471.513 33.5011 4
-1 -6 -5 677.684 40.2151 1
-1 -6 -5 752.887 42.3713 4
-1 -6 -4 761.917 43.1958 1
-1 -6 -4 795.024 44.5489 4
-1 -6 -3 566.754 37.9655 1
-1 -6 -3 642.582 40.7330 4
-1 -6 -2 1014.78 52.6623 1
-1 -6 -2 1138.12 65.3007 3
-1 -6 -1 646.973 49.1159 3
-1 -6 -1 654.086 41.9936 1
-1 -6 0 1094.19 56.6453 1
-1 -6 0 1016.25 61.3657 3
-1 -6 1 575.634 40.6176 1
-1 -6 1 540.995 44.5053 3
-1 -6 2 1365.88 72.3648 3
-1 -6 3 210.915 30.0731 3
-1 -6 4 940.714 59.4882 3
-1 -6 5 50.6029 18.0610 3
-1 -6 6 555.794 43.7478 3
-1 -6 7 -4.69496 10.0385 3
-1 -6 8 291.630 31.7094 3
-1 -6 9 11.5474 12.1718 3
-1 -6 10 20.7860 13.5269 3
-1 -6 11 2.14144 11.3386 3
-1 -6 12 96.7557 20.8331 3
-1 -6 13 94.0073 21.7275 3
-1 -6 14 213.633 29.6153 3
-1 -6 15 44.8195 17.0228 3
-1 -5 -8 36.3753 9.90306 4
-1 -5 -7 21.9043 7.97671 4
-1 -5 -6 15.6452 7.64487 1
-1 -5 -6 8.43519 6.72333 4
-1 -5 -5 7.89365 7.68179 4
-1 -5 -5 25.0166 7.90935 1
-1 -5 -4 3.97469 5.73947 1
-1 -5 -4 -7.71886 7.54954 4
-1 -5 -3 292.011 24.1451 1
-1 -5 -3 267.484 24.2393 4
-1 -5 -2 14.3684 14.9615 3
-1 -5 -2 4.28338 7.73741 1
-1 -5 -1 773.121 42.4346 1
-1 -5 -1 771.318 50.1310 3
-1 -5 0 22.4550 13.9652 3
-1 -5 1 718.895 48.4198 3
-1 -5 2 -10.1427 12.0023 3
-1 -5 3 1952.04 81.6374 3
-1 -5 4 -3.10114 10.6184 3
-1 -5 5 2047.34 80.9649 3
-1 -5 6 20.1663 10.3675 3
-1 -5 7 1197.96 59.8205 3
-1 -5 8 24.5326 11.4160 3
-1 -5 9 1125.44 58.8999 3
-1 -5 10 -14.8019 13.4983 3
-1 -5 11 703.170 48.6903 3
-1 -5 12 18.8155 11.8548 3
-1 -5 13 190.282 27.9000 3
-1 -5 14 -10.0775 12.0856 3
-1 -5 15 49.1445 17.7533 3
-1 -4 -7 26.7724 7.48444 4
-1 -4 -6 1227.49 45.2309 1
-1 -4 -6 1301.56 46.8158 4
-1 -4 -5 8.26151 6.45948 4
-1 -4 -5 8.28909 5.41121 1
-1 -4 -4 1045.10 42.5620 4
-1 -4 -4 986.024 40.7136 1
-1 -4 -3 4.49221 5.67630 1
-1 -4 -2 768.083 37.1993 1
-1 -4 -2 710.559 44.0194 3
-1 -4 -1 39.7010 14.2707 3
-1 -4 0 358.686 31.0452 3
-1 -4 1 44.6485 16.1098 3
-1 -4 2 -2.43959 13.0766 3
-1 -4 3 2.37374 12.5848 3
-1 -4 4 679.271 40.0321 3
-1 -4 5 30.0393 12.7105 3
-1 -4 6 886.123 45.9071 3
-1 -4 7 19.4923 9.97254 3
-1 -4 8 898.729 48.2945 3
-1 -4 9 242.084 25.6767 3
-1 -4 10 1200.47 59.3652 3
-1 -4 11 199.604 26.0374 3
-1 -4 12 1434.52 70.4140 3
-1 -4 13 410.442 37.7188 3
-1 -4 14 860.231 56.6844 3
-1 -4 15 363.566 39.0980 3
-1 -4 16 506.912 47.2296 3
-1 -3 -6 541.066 24.0323 4
-1 -3 -5 2374.95 62.6657 1
-1 -3 -5 2389.47 63.3952 4
-1 -3 -4 1405.31 44.6037 4
-1 -3 -4 1354.60 43.4605 1
-1 -3 -3 2224.69 62.4457 1
-1 -3 -2 1591.08 51.2047 1
-1 -3 -2 1490.00 61.1183 3
-1 -3 -1 1598.75 61.9575 3
-1 -3 0 1792.04 66.2089 3
-1 -3 1 664.836 39.1129 3
-1 -3 2 2692.12 82.8542 3
-1 -3 3 68.6793 14.0682 3
-1 -3 4 995.460 43.3165 3
-1 -3 5 135.657 16.9741 3
-1 -3 6 267.527 23.1463 3
-1 -3 7 0.04380 10.8963 3
-1 -3 8 17.1116 10.2424 3
-1 -3 9 239.588 24.4032 3
-1 -3 10 118.092 18.5138 3
-1 -3 11 197.918 25.1744 3
-1 -3 12 342.136 33.5131 3
-1 -3 13 208.449 27.7957 3
-1 -3 14 933.893 59.2008 3
-1 -3 15 147.385 25.6137 3
-1 -3 16 727.023 56.5700 3
-1 -2 -5 893.044 27.1011 4
-1 -2 -4 197.781 11.8157 1
-1 -2 -4 182.083 11.5058 4
-1 -2 -3 1785.47 47.1117 1
-1 -2 -2 162.440 17.8862 3
-1 -2 -1 2462.70 73.6280 3
-1 -2 0 3.28939 13.7007 3
-1 -2 1 4041.35 101.552 3
-1 -2 2 49.7264 11.8065 3
-1 -2 3 2992.59 78.7391 3
-1 -2 4 232.399 19.2539 3
-1 -2 5 2910.28 79.8538 3
-1 -2 6 46.9982 12.8849 3
-1 -2 7 1942.40 64.8006 3
-1 -2 8 6.69763 10.2550 3
-1 -2 9 385.243 29.5423 3
-1 -2 10 17.8085 10.5992 3
-1 -2 11 216.433 24.8622 3
-1 -2 12 -10.0887 10.5494 3
-1 -2 13 71.8799 18.7229 3
-1 -2 14 49.2372 16.2228 3
-1 -2 15 -2.82603 10.7751 3
-1 -2 16 3.20629 10.8272 3
-1 -1 -3 16.2733 3.29379 1
-1 -1 -3 20.5092 3.66107 4
-1 -1 -2 147.503 16.1658 3
-1 -1 -1 5.65722 10.9573 3
-1 -1 0 546.383 26.4731 3
-1 -1 1 14.6551 8.35773 3
-1 -1 2 1269.22 38.2872 3
-1 -1 3 -2.47058 8.76576 3
-1 -1 4 38.9683 9.92854 3
-1 -1 5 6.21955 8.57572 3
-1 -1 6 2156.24 65.8456 3
-1 -1 6 2195.26 56.7765 2
-1 -1 7 92.1897 10.9677 2
-1 -1 7 101.670 14.9979 3
-1 -1 8 3283.75 94.0748 3
-1 -1 8 3169.70 81.8317 2
-1 -1 9 109.184 12.8766 2
-1 -1 9 122.785 18.4812 3
-1 -1 10 1523.31 64.1416 3
-1 -1 10 1589.32 54.7783 2
-1 -1 11 213.697 25.3339 3
-1 -1 11 173.025 17.9495 2
-1 -1 12 1403.57 67.6020 3
-1 -1 12 1463.02 57.6612 2
-1 -1 13 227.607 28.3925 3
-1 -1 13 208.700 21.9205 2
-1 -1 14 824.499 55.6694 3
-1 -1 14 838.823 45.5356 2
-1 -1 15 136.261 19.2234 2
-1 -1 15 127.891 24.6133 3
-1 -1 16 450.185 44.0094 3
-1 -1 16 390.925 33.8088 2
-1 0 -11 2245.04 84.8251 2
-1 0 -10 156.568 19.5568 2
-1 0 -9 3154.33 97.2297 2
-1 0 -8 389.392 27.8292 2
-1 0 -7 3930.44 105.803 2
-1 0 -6 821.893 37.4028 2
-1 0 -5 3905.08 97.9763 2
-1 0 -4 1747.28 52.8303 2
-1 0 -3 2459.00 63.3839 2
-1 0 -2 2073.72 52.8439 2
-1 0 -1 3200.34 69.6600 2
-1 0 2 760.250 24.2477 3
-1 0 3 1.80106 7.48752 3
-1 0 3 5.65158 3.26394 2
-1 0 4 1081.50 27.9296 2
-1 0 5 12.3186 5.56137 2
-1 0 6 15.8325 6.13889 2
-1 0 7 373.203 19.9463 2
-1 0 8 251.764 17.6112 2
-1 0 9 845.311 36.3468 2
-1 0 10 449.995 27.0257 2
-1 0 11 613.650 34.1307 2
-1 0 12 752.847 39.7283 2
-1 0 13 397.314 26.9839 4
-1 0 13 394.564 29.6580 2
-1 0 14 691.124 51.1780 3
-1 0 14 712.276 42.3512 2
-1 0 15 300.988 35.3964 3
-1 0 15 281.302 27.5551 2
-1 0 16 719.242 45.9721 2
-1 1 -11 269.301 25.4864 2
-1 1 -10 110.564 16.3518 2
-1 1 -9 501.335 32.4442 2
-1 1 -8 320.100 24.5092 2
-1 1 -7 1225.34 47.9010 2
-1 1 -6 460.796 25.8349 2
-1 1 -5 3139.77 81.1520 2
-1 1 -4 195.854 15.1687 2
-1 1 -3 2648.79 64.9711 2
-1 1 -2 625.981 21.8600 1
-1 1 -2 676.782 23.6727 2
-1 1 -1 5478.64 110.585 4
-1 1 -1 5539.72 110.132 2
-1 1 -1 5500.07 110.311 1
-1 1 0 1186.49 32.3150 1
-1 1 0 1183.84 32.4542 4
-1 1 0 1196.04 29.6927 2
-1 1 1 5151.36 105.553 1
-1 1 1 5099.80 105.562 4
-1 1 2 313.004 16.0379 4
-1 1 3 2435.67 60.0038 4
-1 1 4 119.471 11.0645 4
-1 1 4 108.879 10.4458 2
-1 1 5 2162.07 56.1001 2
-1 1 5 2133.72 57.9198 4
-1 1 6 10.5662 7.66498 2
-1 1 6 6.62669 5.91612 4
-1 1 7 500.518 24.9867 4
-1 1 7 493.328 25.5813 2
-1 1 8 2.58382 6.28290 2
-1 1 8 5.26642 5.64266 4
-1 1 9 168.197 15.5537 4
-1 1 9 180.390 17.9540 2
-1 1 10 9.13019 7.56571 2
-1 1 10 -1.69226 5.01493 4
-1 1 11 10.7341 6.12807 4
-1 1 11 -2.49917 7.61977 2
-1 1 12 -0.72554 7.01669 2
-1 1 12 -9.23379 5.62122 4
-1 1 13 162.349 16.5376 1
-1 1 13 103.612 17.0033 2
-1 1 13 129.219 14.8873 4
-1 1 14 30.2518 12.1509 2
-1 1 15 109.904 18.0200 2
-1 2 -11 473.916 34.1910 2
-1 2 -10 666.104 39.3615 2
-1 2 -9 523.814 32.6755 2
-1 2 -8 834.757 40.4468 2
-1 2 -7 127.790 15.1541 2
-1 2 -6 100.089 13.4970 2
-1 2 -5 -1.25637 6.08842 2
-1 2 -4 64.8218 10.5600 2
-1 2 -3 255.553 16.9711 2
-1 2 -3 274.058 14.0067 3
-1 2 -2 10.8386 6.54810 2
-1 2 -2 7.03340 4.60366 3
-1 2 -1 45.7271 12.8667 1
-1 2 -1 19.8304 5.25839 3
-1 2 0 752.634 30.1330 1
-1 2 0 701.484 24.8376 3
-1 2 1 133.280 12.2729 3
-1 2 1 175.049 15.2140 1
-1 2 1 181.329 14.2214 4
-1 2 2 2075.93 56.4585 4
-1 2 2 2090.72 56.5907 1
-1 2 3 22.7998 7.55085 4
-1 2 3 18.7394 8.12361 1
-1 2 4 2349.52 62.7788 1
-1 2 4 2327.62 63.1363 4
-1 2 5 28.6349 7.88246 1
-1 2 5 26.0714 7.55774 4
-1 2 5 28.2142 8.87361 2
-1 2 6 2012.82 62.5208 2
-1 2 6 2064.81 60.1267 1
-1 2 6 2051.21 60.0201 4
-1 2 7 78.5328 10.9186 1
-1 2 7 106.120 12.7107 4
-1 2 7 84.7043 12.8942 2
-1 2 8 1650.41 59.9612 2
-1 2 8 1697.70 54.8001 1
-1 2 8 1740.28 55.5734 4
-1 2 9 42.0990 10.9113 2
-1 2 9 50.5508 10.3471 1
-1 2 9 33.6325 8.10952 4
-1 2 10 1252.31 47.5713 1
-1 2 10 1298.06 48.3635 4
-1 2 10 1239.13 54.5037 2
-1 2 11 19.6404 6.79468 4
-1 2 11 18.8913 6.24716 1
-1 2 11 23.6198 10.3666 2
-1 2 12 688.386 34.4895 1
-1 2 12 646.897 33.5948 4
-1 2 12 688.850 42.3514 2
-1 2 13 25.6161 10.2986 2
-1 2 13 23.0793 7.84952 1
-1 2 14 341.481 31.8001 2
-1 2 15 23.1905 10.4780 2
-1 3 -11 2895.78 96.7937 2
-1 3 -10 16.6984 9.17301 2
-1 3 -9 3481.07 103.054 2
-1 3 -8 127.885 16.5658 2
-1 3 -7 3612.95 99.4075 2
-1 3 -6 589.242 31.7392 2
-1 3 -5 3640.26 87.7121 3
-1 3 -5 3637.31 95.5166 2
-1 3 -4 514.339 23.5753 3
-1 3 -4 563.991 28.4845 2
-1 3 -3 2721.32 66.9448 3
-1 3 -2 665.576 25.5125 3
-1 3 -1 322.833 18.5302 3
-1 3 0 846.263 36.8494 1
-1 3 0 720.400 32.5950 3
-1 3 1 87.9882 12.9891 3
-1 3 1 97.6878 16.1661 1
-1 3 2 327.443 22.9972 3
-1 3 2 281.756 22.5280 1
-1 3 3 21.9392 9.57995 3
-1 3 3 25.7738 10.1914 1
-1 3 4 12.6719 10.0472 3
-1 3 4 2.66428 8.53171 1
-1 3 4 4.10189 6.98587 4
-1 3 5 788.950 35.9751 1
-1 3 5 805.960 35.6076 4
-1 3 6 102.742 15.3025 2
-1 3 6 124.921 14.7543 1
-1 3 6 100.516 12.5106 4
-1 3 7 464.159 31.9342 2
-1 3 7 547.224 29.6313 4
-1 3 7 587.220 30.2973 1
-1 3 8 99.8847 13.0209 1
-1 3 8 112.372 13.8576 4
-1 3 8 95.1872 16.0332 2
-1 3 9 662.537 40.7012 2
-1 3 9 737.048 35.8024 1
-1 3 9 647.682 33.5682 4
-1 3 10 420.023 33.0466 2
-1 3 10 433.095 27.2221 4
-1 3 10 482.381 28.9892 1
-1 3 11 880.413 40.8289 1
-1 3 11 807.829 48.1074 2
-1 3 12 643.358 43.5428 2
-1 3 12 686.947 35.3471 1
-1 3 13 403.724 36.2352 2
-1 3 14 421.216 37.5302 2
-1 4 -10 572.284 37.5801 2
-1 4 -9 843.485 45.0653 2
-1 4 -8 1170.30 51.9535 2
-1 4 -7 1838.67 66.8354 2
-1 4 -6 1189.14 44.9472 3
-1 4 -6 1199.56 50.4628 2
-1 4 -5 2418.17 69.2335 3
-1 4 -5 2446.31 77.1145 2
-1 4 -4 764.469 32.8881 3
-1 4 -3 2632.31 71.5148 3
-1 4 -2 861.977 35.8825 3
-1 4 -1 3026.46 83.0591 3
-1 4 0 264.479 22.7948 3
-1 4 1 2132.59 73.6413 3
-1 4 2 220.048 22.9416 3
-1 4 3 918.570 43.6463 1
-1 4 3 922.655 46.7949 3
-1 4 4 28.5892 11.2829 3
-1 4 4 22.9916 11.3589 1
-1 4 5 421.258 29.5786 1
-1 4 5 493.706 36.2421 3
-1 4 6 20.4548 11.9347 3
-1 4 6 8.95554 8.74261 1
-1 4 7 85.8127 15.5518 2
-1 4 7 127.622 20.8236 3
-1 4 7 87.9353 15.1322 1
-1 4 8 -1.79423 9.17934 2
-1 4 8 6.18828 7.86592 1
-1 4 9 17.4060 9.40549 1
-1 4 9 2.12511 9.81131 2
-1 4 10 13.9813 7.64468 1
-1 4 10 20.0210 11.5402 2
-1 4 11 122.402 16.5691 1
-1 4 11 113.515 20.5428 2
-1 4 12 52.8313 14.7442 2
-1 4 13 171.145 25.4002 2
-1 4 14 2.09045 8.81420 2
-1 5 -9 94.5729 16.2580 2
-1 5 -8 15.8875 8.06665 2
-1 5 -8 16.5232 7.97396 3
-1 5 -7 28.3064 8.78182 2
-1 5 -7 44.9224 10.2954 3
-1 5 -6 -2.85601 8.34992 2
-1 5 -6 8.98387 6.65074 3
-1 5 -5 82.2548 11.8294 3
-1 5 -4 259.836 21.0431 3
-1 5 -3 -7.94356 7.13008 3
-1 5 -2 1127.70 47.2249 3
-1 5 -1 33.8325 10.1599 3
-1 5 0 971.207 47.8152 3
-1 5 1 8.58951 8.72825 3
-1 5 2 1404.03 65.5536 3
-1 5 3 7.76459 11.0783 3
-1 5 4 1708.43 76.4817 3
-1 5 5 0.11724 9.02910 3
-1 5 7 20.2444 12.0671 2
-1 5 8 712.349 48.8284 2
-1 5 9 19.1790 13.2414 2
-1 5 10 441.101 39.2867 2
-1 5 11 19.6016 13.5588 2
-1 5 12 175.364 27.0622 2
-1 5 13 15.3629 11.3784 2
-1 6 -9 2283.56 80.9255 3
-1 6 -8 10.5786 8.02382 3
-1 6 -7 1623.70 63.2768 3
-1 6 -6 10.5372 7.62504 3
-1 6 -5 926.942 44.8044 3
-1 6 -4 94.7956 15.0024 3
-1 6 -3 434.986 30.8038 3
-1 6 -2 229.421 22.8166 3
-1 6 -1 40.8237 11.1541 3
-1 6 0 42.4384 14.4434 3
-1 6 1 8.10161 9.13705 3
-1 6 2 4.91795 10.2950 3
-1 6 3 370.191 36.6838 3
-1 6 7 512.228 43.9200 2
-1 6 8 186.236 28.2666 2
-1 6 9 675.945 51.7491 2
-1 6 10 202.722 29.1641 2
-1 6 11 409.316 41.7925 2
-1 7 -8 1206.05 58.0842 3
-1 7 -7 686.005 41.7068 3
-1 7 -6 916.074 48.6170 3
-1 7 -5 1095.61 53.2135 3
-1 7 -4 787.775 45.0459 3
-1 7 -3 1284.78 59.8861 3
-1 7 -2 449.589 35.2250 3
-1 7 -1 1021.94 55.9512 3
-1 7 0 155.866 22.6226 3
-1 7 8 90.1274 22.1243 2
-1 7 9 102.644 22.7377 2
0 -10 3 800.181 65.2290 3
0 -10 4 -0.25020 14.2329 3
0 -10 5 660.856 58.9902 3
0 -10 6 6.11365 11.7528 3
0 -10 7 669.465 60.6792 3
0 -10 8 11.8810 13.4398 3
0 -9 -3 -2.32269 10.5470 4
0 -9 -2 165.844 27.3400 4
0 -9 -1 5.14315 11.1456 4
0 -9 0 340.153 40.0705 3
0 -9 0 318.032 36.4059 4
0 -9 1 112.016 24.5447 3
0 -9 1 79.0262 18.8847 4
0 -9 2 508.486 48.2884 3
0 -9 3 252.415 35.0136 3
0 -9 4 644.679 55.0620 3
0 -9 5 510.294 49.8065 3
0 -9 6 622.771 55.7554 3
0 -9 7 492.035 51.0874 3
0 -9 8 635.239 57.3507 3
0 -9 9 511.270 51.6618 3
0 -9 10 309.730 40.0745 3
0 -9 11 583.469 54.6674 3
0 -9 12 134.035 27.8557 3
0 -8 -5 258.871 29.9159 4
0 -8 -4 33.8547 11.7682 4
0 -8 -3 251.499 30.0112 4
0 -8 -2 76.8826 17.8536 4
0 -8 -1 195.746 26.4899 4
0 -8 0 59.2853 17.1554 3
0 -8 0 43.3497 15.4923 4
0 -8 1 105.138 23.4057 3
0 -8 2 18.3217 15.4096 3
0 -8 3 26.0058 15.3600 3
0 -8 4 17.6940 14.6820 3
0 -8 5 33.0349 15.8599 3
0 -8 6 112.019 25.2497 3
0 -8 7 -1.81935 14.4239 3
0 -8 8 127.946 24.9846 3
0 -8 9 18.4956 15.1320 3
0 -8 10 286.227 35.4624 3
0 -8 11 47.9775 18.1130 3
0 -8 12 470.945 45.6466 3
0 -8 13 18.6663 13.0337 3
0 -8 14 516.711 50.1311 3
0 -7 -6 295.415 29.7710 4
0 -7 -5 583.352 41.6328 4
0 -7 -4 297.854 30.1773 4
0 -7 -3 1266.53 62.9526 4
0 -7 -2 300.676 30.6180 4
0 -7 -1 1284.21 65.3988 4
0 -7 -1 1257.84 69.7262 3
0 -7 0 425.372 39.6925 3
0 -7 1 1611.33 78.7987 3
0 -7 2 146.788 24.6693 3
0 -7 3 1979.68 89.7798 3
0 -7 4 17.1866 14.6449 3
0 -7 5 1272.40 70.7484 3
0 -7 6 19.9897 13.6287 3
0 -7 7 797.790 53.6126 3
0 -7 8 20.7924 14.0465 3
0 -7 9 228.364 29.5571 3
0 -7 10 53.3626 17.1349 3
0 -7 11 4.89666 12.0312 3
0 -7 12 -12.1827 13.5961 3
0 -7 13 11.7536 12.5592 3
0 -7 14 -14.2582 13.5329 3
0 -7 15 126.758 24.8440 3
0 -6 -8 3.18689 7.71380 4
0 -6 -7 2.06141 7.06087 4
0 -6 -6 83.6580 15.3401 1
0 -6 -6 85.7348 15.8813 4
0 -6 -5 16.2488 8.44365 1
0 -6 -5 18.9887 10.2839 4
0 -6 -4 311.671 27.7002 1
0 -6 -4 289.033 27.0988 4
0 -6 -3 10.5495 10.0235 4
0 -6 -3 16.9291 9.63771 1
0 -6 -2 1090.22 54.3104 4
0 -6 -2 1126.55 54.0526 1
0 -6 -1 62.7353 16.5507 3
0 -6 -1 93.1951 15.5707 1
0 -6 0 1500.21 71.2077 3
0 -6 0 1662.94 69.6370 1
0 -6 1 177.845 24.8068 3
0 -6 1 170.159 22.7163 1
0 -6 2 2248.77 85.3790 1
0 -6 2 2034.51 86.0773 3
0 -6 3 571.432 41.2359 1
0 -6 3 609.506 45.0419 3
0 -6 4 2470.15 95.6579 3
0 -6 5 754.361 48.5054 3
0 -6 6 1871.00 78.5631 3
0 -6 7 696.139 45.6452 3
0 -6 8 1440.50 67.4491 3
0 -6 9 861.480 51.5863 3
0 -6 10 809.034 51.0895 3
0 -6 11 486.507 40.5485 3
0 -6 12 206.601 27.6312 3
0 -6 13 281.892 33.1294 3
0 -6 14 33.0419 13.6908 3
0 -6 15 104.958 21.9597 3
0 -5 -7 520.915 32.3982 4
0 -5 -6 48.0065 12.3404 4
0 -5 -5 420.178 29.1426 1
0 -5 -5 492.814 31.6159 4
0 -5 -4 98.6036 15.7854 4
0 -5 -4 91.1953 14.1889 1
0 -5 -3 244.691 22.6485 4
0 -5 -3 242.694 22.0823 1
0 -5 -2 8.94352 9.87400 3
0 -5 -2 25.1397 11.2096 4
0 -5 -2 -1.47920 8.28532 1
0 -5 -1 75.4309 17.1088 3
0 -5 -1 102.689 15.7449 1
0 -5 0 61.9249 15.9649 3
0 -5 0 60.2253 13.2274 1
0 -5 1 20.2003 9.02851 1
0 -5 1 5.42930 11.7953 3
0 -5 2 199.589 25.3709 3
0 -5 3 20.3852 13.1727 3
0 -5 4 674.467 40.2903 3
0 -5 5 95.0597 17.6780 3
0 -5 6 604.330 37.9828 3
0 -5 7 205.222 22.5491 3
0 -5 8 1063.15 52.8772 3
0 -5 9 84.9936 17.2780 3
0 -5 10 1177.40 58.6072 3
0 -5 11 132.080 21.3217 3
0 -5 12 806.430 50.8779 3
0 -5 13 103.414 20.2281 3
0 -5 14 790.044 54.3454 3
0 -5 15 13.6446 11.0529 3
0 -5 16 383.683 40.4681 3
0 -4 -7 554.380 30.0343 4
0 -4 -6 1107.70 45.2203 4
0 -4 -5 1217.94 46.7530 1
0 -4 -5 1247.98 48.3023 4
0 -4 -4 1228.27 47.1892 1
0 -4 -4 1254.09 48.5152 4
0 -4 -3 2419.26 74.2229 4
0 -4 -3 2507.59 74.3542 1
0 -4 -2 921.650 41.3938 4
0 -4 -2 941.592 47.3636 3
0 -4 -2 895.835 40.3156 1
0 -4 -1 1570.17 62.2882 3
0 -4 -1 1603.55 57.3053 1
0 -4 0 866.873 40.6079 1
0 -4 0 804.375 42.2082 3
0 -4 1 2017.14 72.0742 3
0 -4 2 412.635 30.3978 3
0 -4 3 2370.75 76.4739 3
0 -4 4 122.473 16.2857 3
0 -4 5 915.806 42.3289 3
0 -4 6 65.9838 13.0643 3
0 -4 7 271.076 23.4427 3
0 -4 8 16.1675 8.66451 3
0 -4 9 4.18672 10.0214 3
0 -4 10 8.61809 9.99758 3
0 -4 11 44.6323 14.0762 3
0 -4 12 12.4979 11.5498 3
0 -4 13 316.141 32.2547 3
0 -4 14 9.97832 12.2905 3
0 -4 15 452.586 41.8824 3
0 -4 16 -8.33563 11.3857 3
0 -3 -6 818.710 33.7816 4
0 -3 -5 32.4512 7.83946 4
0 -3 -4 2592.57 70.0484 1
0 -3 -4 2633.25 71.0745 4
0 -3 -3 2.99679 5.68284 1
0 -3 -3 12.6018 7.74249 4
0 -3 -2 3753.20 93.6166 1
0 -3 -2 3902.48 94.5908 4
0 -3 -2 3959.09 104.114 3
0 -3 -1 44.6106 13.1724 3
0 -3 -1 34.8189 9.64158 1
0 -3 0 3715.81 94.3455 1
0 -3 0 3667.27 97.6895 3
0 -3 1 442.766 28.1465 3
0 -3 2 6035.16 138.630 3
0 -3 3 342.268 22.0917 3
0 -3 4 6800.91 150.758 3
0 -3 5 499.000 27.2548 3
0 -3 6 4077.89 104.148 3
0 -3 7 1294.26 50.4443 3
0 -3 8 1108.67 48.3219 3
0 -3 9 447.547 31.7341 3
0 -3 10 683.268 40.9094 3
0 -3 11 253.936 26.4706 3
0 -3 12 293.899 29.7105 3
0 -3 13 253.356 29.2493 3
0 -3 14 6.60929 12.0498 3
0 -3 15 32.6454 16.6443 3
0 -3 16 46.6048 15.3067 3
0 -2 -5 193.819 13.7114 4
0 -2 -4 16.8962 6.35816 4
0 -2 -3 7.21396 5.28967 1
0 -2 -3 24.5457 7.20086 4
0 -2 -2 669.233 25.2778 4
0 -2 -2 666.445 25.2475 1
0 -2 -1 -0.98532 9.73859 3
0 -2 -1 -3.74130 6.92194 1
0 -2 0 889.885 34.6532 3
0 -2 1 1288.41 41.1905 3
0 -2 2 1404.79 41.3806 3
0 -2 3 791.995 29.5472 3
0 -2 4 837.600 31.5609 3
0 -2 5 294.193 19.8934 3
0 -2 6 2290.16 67.0515 3
0 -2 7 908.894 39.9328 3
0 -2 7 909.469 38.0972 2
0 -2 8 2837.15 85.3225 3
0 -2 8 2865.99 81.6863 2
0 -2 9 433.649 30.0740 3
0 -2 9 438.813 27.8280 2
0 -2 10 1334.29 59.2569 3
0 -2 10 1313.42 53.6756 2
0 -2 11 268.903 27.5620 3
0 -2 11 269.542 24.6460 2
0 -2 12 1128.17 58.9184 3
0 -2 12 1093.28 52.6422 2
0 -2 13 149.552 20.0768 2
0 -2 13 190.205 26.0688 3
0 -2 14 771.753 53.3866 3
0 -2 14 730.472 45.9740 2
0 -2 15 44.3632 15.0109 2
0 -2 15 49.8173 16.6396 3
0 -2 16 303.452 31.1522 2
0 -2 16 250.519 34.0652 3
0 -2 17 16.6065 11.0491 2
0 -1 -3 1441.36 35.4519 4
0 -1 -2 2386.94 51.7376 1
0 -1 -2 2403.31 52.1045 4
0 -1 -1 3457.08 75.9942 3
0 -1 2 640.444 20.9571 3
0 -1 3 595.169 22.3734 3
0 -1 3 587.094 21.7528 2
0 -1 4 542.931 23.5588 3
0 -1 4 530.513 22.0583 2
0 -1 5 486.700 22.7818 2
0 -1 6 46.6192 9.57360 2
0 -1 7 66.3898 11.1116 2
0 -1 8 2.15873 6.60468 2
0 -1 9 224.396 20.1042 2
0 -1 10 8.69589 8.19051 2
0 -1 11 593.415 35.7761 2
0 -1 12 -12.1457 9.45378 2
0 -1 13 633.892 40.6662 2
0 -1 14 28.9963 12.9571 2
0 -1 14 1.14136 12.0480 3
0 -1 15 459.255 43.0317 3
0 -1 15 418.772 36.1540 2
0 -1 16 -1.14364 7.70646 2
0 -1 16 29.7398 16.0698 3
0 -1 17 540.367 44.0124 2
0 0 -12 11.3131 9.00889 2
0 0 -11 193.654 22.0987 2
0 0 -10 297.304 24.7390 2
0 0 -9 183.175 18.4630 2
0 0 -8 1151.46 45.7325 2
0 0 -7 303.003 20.8182 2
0 0 -6 3367.78 85.3096 2
0 0 -5 432.305 22.1423 2
0 0 -4 2315.59 58.1804 2
0 0 -3 114.018 9.62965 2
0 0 3 144.262 10.7675 2
0 0 4 2368.39 58.6300 2
0 0 5 494.799 23.1130 2
0 0 6 3470.98 86.6898 2
0 0 7 308.115 21.1983 2
0 0 8 1179.78 47.0090 2
0 0 9 165.985 18.2111 2
0 0 10 287.343 24.7128 2
0 0 11 171.854 19.9748 2
0 0 11 182.217 14.9647 4
0 0 12 11.8910 10.1861 2
0 0 12 7.50836 4.88442 4
0 0 13 21.2055 11.0411 2
0 0 13 8.44156 4.67316 4
0 0 14 18.4480 11.7052 2
0 0 15 19.4348 10.8311 2
0 0 16 86.1993 18.1130 2
0 0 17 25.8208 11.9449 2
0 1 -13 639.551 41.7973 2
0 1 -12 -8.87455 8.81169 2
0 1 -11 576.919 35.4724 2
0 1 -10 -7.30716 8.35085 2
0 1 -9 286.046 22.5514 2
0 1 -8 -1.41933 5.92555 2
0 1 -7 86.0136 11.3081 2
0 1 -6 51.9967 9.77988 2
0 1 -5 482.343 22.3001 2
0 1 -4 547.598 22.4014 2
0 1 -3 579.979 21.0221 2
0 1 -2 608.820 20.4379 3
0 1 -2 623.607 20.4051 2
0 1 1 3343.09 74.4625 3
0 1 2 2363.67 52.0098 4
0 1 2 2377.31 51.7368 1
0 1 3 1420.81 42.8430 2
0 1 3 1409.68 35.1469 4
0 1 3 1447.56 35.3624 1
0 1 4 3146.74 78.6655 2
0 1 4 3243.56 68.6714 1
0 1 4 3153.57 68.7098 4
0 1 5 1484.48 48.6835 2
0 1 5 1535.75 38.5808 1
0 1 5 1423.27 38.3195 4
0 1 6 2009.80 62.6139 2
0 1 6 2078.76 50.8790 1
0 1 6 2048.75 50.9703 4
0 1 7 1037.39 32.3668 1
0 1 7 1037.16 32.7186 4
0 1 7 1010.31 43.2401 2
0 1 8 1518.85 42.6072 1
0 1 8 1383.50 41.6039 4
0 1 8 1437.12 55.4406 2
0 1 9 639.720 25.2108 1
0 1 9 600.708 35.3029 2
0 1 9 602.026 24.9534 4
0 1 10 1602.82 46.8777 1
0 1 10 1585.64 46.9592 4
0 1 10 1506.58 62.8304 2
0 1 11 333.410 18.6322 1
0 1 11 328.045 18.8984 4
0 1 11 332.348 28.7965 2
0 1 12 597.706 25.9885 1
0 1 12 616.866 26.4959 4
0 1 12 527.444 38.5343 2
0 1 13 115.095 19.8602 2
0 1 14 137.122 21.6554 2
0 1 15 35.6939 13.9202 2
0 1 16 122.678 21.9540 2
0 2 -13 149.663 19.7557 2
0 2 -12 1107.54 53.1337 2
0 2 -11 286.581 24.7365 2
0 2 -10 1330.28 54.2370 2
0 2 -9 437.444 27.5560 2
0 2 -8 2897.93 82.3355 2
0 2 -7 889.761 37.0308 2
0 2 -6 2201.40 62.8378 2
0 2 -5 274.964 18.2083 3
0 2 -5 288.091 18.0718 2
0 2 -4 890.116 31.9456 3
0 2 -4 795.635 31.4309 2
0 2 -3 785.159 28.5635 3
0 2 -2 1359.00 39.5590 3
0 2 -1 1196.53 38.0953 3
0 2 0 954.313 35.6078 3
0 2 1 4.88640 10.2548 3
0 2 2 713.100 33.3480 3
0 2 3 27.2704 9.29983 3
0 2 3 25.1442 7.57499 1
0 2 4 41.1966 12.3241 2
0 2 4 24.6008 7.58562 1
0 2 4 11.8375 10.5256 3
0 2 5 177.308 17.8079 2
0 2 5 174.894 13.4431 1
0 2 6 4.67864 5.19254 1
0 2 6 -8.37590 9.27868 2
0 2 7 431.623 29.4960 2
0 2 7 426.337 20.9951 4
0 2 7 445.065 21.0360 1
0 2 8 6.97671 4.43397 1
0 2 8 10.4977 5.19378 4
0 2 8 -2.46739 8.74892 2
0 2 9 477.730 23.1346 1
0 2 9 471.515 33.7206 2
0 2 10 77.0745 14.8562 2
0 2 10 85.8047 10.1163 1
0 2 11 852.032 32.2155 1
0 2 11 781.127 48.2472 2
0 2 12 22.2225 5.89726 1
0 2 12 13.5693 11.4489 2
0 2 13 626.886 45.4551 2
0 2 14 -13.7932 11.2081 2
0 2 15 468.651 41.6822 2
0 2 16 25.0021 11.4879 2
0 3 -12 293.054 26.6115 2
0 3 -11 256.986 24.1512 2
0 3 -10 681.582 38.2069 2
0 3 -9 459.306 29.6216 2
0 3 -8 1085.58 45.8115 2
0 3 -7 1323.52 50.0998 2
0 3 -6 4161.98 104.862 3
0 3 -6 4134.73 105.132 2
0 3 -5 423.587 24.6953 3
0 3 -5 430.644 25.8532 2
0 3 -4 6706.10 148.009 3
0 3 -3 324.098 20.8796 3
0 3 -2 5676.87 128.700 3
0 3 -1 376.971 23.5548 3
0 3 0 3645.22 98.1349 3
0 3 1 45.6312 12.9945 3
0 3 2 4232.10 114.846 3
0 3 3 9.10282 9.79006 3
0 3 4 3145.75 97.9448 3
0 3 5 17.6590 10.7865 3
0 3 5 15.6841 11.1035 2
0 3 6 746.403 42.2855 2
0 3 6 948.098 51.2668 3
0 3 7 127.102 18.9843 3
0 3 7 121.113 18.3114 2
0 3 8 218.274 24.3147 2
0 3 9 95.3726 17.8284 2
0 3 10 0.83901 9.90232 2
0 3 11 29.3829 13.9211 2
0 3 12 61.3717 17.9160 2
0 3 13 22.7710 12.9438 2
0 3 14 118.894 22.2530 2
0 3 15 19.4462 14.1113 2
0 4 -11 31.6982 9.84271 2
0 4 -10 9.91724 8.25829 2
0 4 -9 10.1452 8.47354 2
0 4 -8 31.2833 9.57486 2
0 4 -8 27.3733 8.49731 3
0 4 -7 321.849 24.7507 3
0 4 -7 315.716 24.8242 2
0 4 -6 70.6809 12.2877 3
0 4 -5 880.501 39.9822 3
0 4 -4 113.973 14.0988 3
0 4 -3 2175.52 68.5626 3
0 4 -2 385.018 25.9755 3
0 4 -1 1974.64 67.2858 3
0 4 0 832.804 43.3948 3
0 4 1 1825.67 71.1219 3
0 4 2 1132.54 56.0324 3
0 4 3 2776.07 97.1641 3
0 4 4 1545.36 69.6025 3
0 4 5 1450.34 69.3530 3
0 4 6 1112.06 58.2105 2
0 4 6 1377.43 68.6366 3
0 4 7 648.245 44.4549 2
0 4 8 642.873 45.1174 2
0 4 9 606.963 44.9133 2
0 4 10 360.194 35.4607 2
0 4 11 94.3287 20.4513 2
0 4 12 140.787 24.5924 2
0 4 13 7.30167 11.8300 2
0 4 14 56.9666 16.7624 2
0 5 -10 1228.50 58.9211 2
0 5 -9 53.6258 12.6831 2
0 5 -9 60.2476 12.4072 3
0 5 -8 1138.42 52.7687 3
0 5 -8 1148.24 54.6935 2
0 5 -7 194.240 21.2148 2
0 5 -7 166.377 19.1931 3
0 5 -6 669.762 37.7241 3
0 5 -5 125.062 15.9858 3
0 5 -4 699.818 37.8104 3
0 5 -3 33.3135 11.0326 3
0 5 -2 184.776 21.4058 3
0 5 -1 18.1821 10.8944 3
0 5 0 68.3237 14.4684 3
0 5 1 104.513 19.3098 3
0 5 2 -0.98267 10.5548 3
0 5 3 315.703 33.0677 3
0 5 4 126.082 22.2283 3
0 5 7 608.153 45.8731 2
0 5 8 12.8036 11.7635 2
0 5 9 578.334 47.2048 2
0 5 10 38.7189 12.3767 2
0 5 11 337.949 35.9432 2
0 5 12 17.8156 13.9850 2
0 6 -8 1496.71 65.1981 3
0 6 -7 672.097 41.3590 3
0 6 -6 1769.82 71.0406 3
0 6 -5 725.021 42.1179 3
0 6 -4 2265.57 82.0880 3
0 6 -3 587.458 38.4684 3
0 6 -2 1945.06 77.5406 3
0 6 -1 156.894 22.3968 3
0 6 0 1718.55 75.9889 3
0 6 1 46.8220 15.0269 3
0 6 7 -19.4222 15.5691 2
0 6 8 23.1480 14.3770 2
0 6 9 9.31628 11.8527 2
0 6 10 68.5777 21.2704 2
0 7 -4 -0.27959 8.81919 3
0 7 7 313.661 38.2901 2
1 -10 2 132.309 25.8521 3
1 -10 3 263.175 35.1732 3
1 -10 4 282.720 36.0152 3
1 -10 5 363.971 41.0986 3
1 -10 6 495.295 48.3737 3
1 -10 7 415.766 45.0967 3
1 -10 8 610.871 55.1376 3
1 -10 9 269.088 37.4089 3
1 -9 -5 324.946 36.7537 4
1 -9 -4 34.5150 14.6879 4
1 -9 -3 166.328 26.4082 4
1 -9 -2 30.1223 15.9527 4
1 -9 -1 122.243 24.4530 4
1 -9 0 6.28546 10.9261 4
1 -9 1 23.8305 14.4913 3
1 -9 1 29.2467 15.4133 4
1 -9 2 21.6051 11.4062 3
1 -9 2 34.8090 14.3735 4
1 -9 3 19.4164 12.6474 3
1 -9 3 32.1763 15.7679 4
1 -9 4 28.5506 15.8162 3
1 -9 5 106.954 21.9283 3
1 -9 6 -8.28592 11.8043 3
1 -9 7 367.656 40.2349 3
1 -9 8 0.05480 12.1875 3
1 -9 9 674.595 55.4749 3
1 -9 10 39.0151 17.7868 3
1 -9 11 725.505 57.5039 3
1 -9 12 35.9260 14.5582 3
1 -9 13 492.385 47.6875 3
1 -8 -6 223.521 29.0247 4
1 -8 -5 2.76562 9.85920 4
1 -8 -4 420.636 39.0589 4
1 -8 -3 14.9765 10.8404 4
1 -8 -2 609.504 47.1425 4
1 -8 -1 23.5778 13.2650 4
1 -8 0 620.978 47.7731 4
1 -8 0 659.700 48.9501 3
1 -8 1 11.2153 12.6578 3
1 -8 1 0.21831 10.3680 4
1 -8 2 629.414 48.5693 4
1 -8 2 737.920 50.8457 3
1 -8 3 70.6713 18.0930 3
1 -8 4 556.326 45.3007 3
1 -8 5 19.9037 14.3887 3
1 -8 6 406.411 40.8346 3
1 -8 7 8.02088 13.1276 3
1 -8 8 166.065 26.4244 3
1 -8 9 20.6914 13.7798 3
1 -8 10 20.4527 14.3373 3
1 -8 11 54.0601 17.7977 3
1 -8 12 0.28549 10.8048 3
1 -8 13 60.6538 18.3636 3
1 -8 14 23.4040 13.4485 3
1 -7 -7 23.6526 11.6557 4
1 -7 -6 33.9362 12.7464 4
1 -7 -5 20.8281 12.2389 4
1 -7 -4 1.06274 9.62539 4
1 -7 -3 186.444 25.0575 4
1 -7 -2 38.7770 15.6212 4
1 -7 -1 515.802 40.3622 4
1 -7 0 125.581 21.5106 3
1 -7 0 145.881 23.4776 4
1 -7 1 915.869 54.9948 4
1 -7 1 938.349 54.4625 3
1 -7 2 381.669 34.3756 3
1 -7 3 1226.10 64.2797 3
1 -7 4 748.289 49.5658 3
1 -7 5 1063.09 60.4523 3
1 -7 6 875.711 53.6628 3
1 -7 7 709.600 46.7865 3
1 -7 8 1199.87 62.1941 3
1 -7 9 504.679 39.3034 3
1 -7 10 837.618 52.1994 3
1 -7 11 405.333 37.9849 3
1 -7 12 570.749 45.3899 3
1 -7 13 131.642 22.8786 3
1 -7 14 373.059 39.1812 3
1 -7 15 9.65218 10.7508 3
1 -6 -8 192.065 23.1543 4
1 -6 -7 474.121 35.8182 4
1 -6 -6 64.7649 14.2900 4
1 -6 -5 517.671 37.6077 1
1 -6 -5 567.132 39.4412 4
1 -6 -4 31.4134 10.7452 1
1 -6 -4 25.5070 11.5675 4
1 -6 -3 356.299 29.6551 1
1 -6 -3 274.923 27.5249 4
1 -6 -2 -3.59935 10.7767 4
1 -6 -2 23.4347 9.98963 1
1 -6 -1 -12.4665 13.9455 3
1 -6 -1 -2.50156 6.65086 1
1 -6 -1 15.1503 9.52985 4
1 -6 0 20.3465 10.8818 3
1 -6 0 24.2933 9.33276 1
1 -6 0 14.7549 9.40962 4
1 -6 1 56.7438 14.4947 3
1 -6 1 46.4073 13.5193 1
1 -6 2 214.538 24.6047 3
1 -6 2 231.437 25.0581 1
1 -6 3 449.869 34.9114 3
1 -6 3 483.493 36.0047 1
1 -6 4 94.2776 18.0441 3
1 -6 4 101.821 18.5972 1
1 -6 5 956.500 53.7257 1
1 -6 5 979.559 50.8799 3
1 -6 6 19.5064 9.05423 3
1 -6 6 35.8512 14.5670 1
1 -6 7 1524.46 64.9624 3
1 -6 8 -1.62579 9.38063 3
1 -6 9 2281.61 85.0575 3
1 -6 10 5.71635 10.5759 3
1 -6 11 1730.52 75.6328 3
1 -6 12 12.4538 10.7804 3
1 -6 13 1332.52 69.0193 3
1 -6 14 68.5067 17.6075 3
1 -6 15 916.525 60.9859 3
1 -6 16 85.8738 20.8034 3
1 -5 -7 -11.9132 8.32263 4
1 -5 -6 745.806 41.5834 4
1 -5 -5 1.74670 8.12571 1
1 -5 -5 -0.45799 8.47852 4
1 -5 -4 1261.87 54.5443 1
1 -5 -4 1277.13 55.7731 4
1 -5 -3 -12.5711 10.2719 4
1 -5 -3 1.97569 7.94799 1
1 -5 -2 1233.20 53.2904 1
1 -5 -2 1179.08 53.0546 4
1 -5 -1 -0.95171 9.09229 3
1 -5 -1 -5.06479 6.98924 1
1 -5 -1 0.09793 9.58890 4
1 -5 0 920.674 46.2031 4
1 -5 0 893.018 44.8102 3
1 -5 0 954.737 46.5063 1
1 -5 1 34.0385 11.2412 3
1 -5 1 32.1514 10.9906 1
1 -5 2 1138.85 51.7153 3
1 -5 2 1209.90 53.0541 1
1 -5 3 5.06980 11.4727 3
1 -5 3 -16.3791 10.1305 1
1 -5 4 231.154 24.2963 1
1 -5 4 243.801 23.3540 3
1 -5 5 56.2099 12.7622 3
1 -5 5 79.2185 15.1871 1
1 -5 6 -4.72422 8.43570 3
1 -5 7 35.8444 12.5428 3
1 -5 8 6.87014 8.21308 3
1 -5 9 98.1603 16.4006 3
1 -5 10 21.1284 10.1463 3
1 -5 11 168.242 22.1733 3
1 -5 12 247.172 27.1761 3
1 -5 13 257.502 29.3171 3
1 -5 14 343.385 35.2620 3
1 -5 15 381.776 38.2536 3
1 -5 16 96.8965 21.7257 3
1 -4 -6 19.2773 8.01961 4
1 -4 -5 394.940 26.8881 4
1 -4 -4 20.0193 8.13470 1
1 -4 -4 25.1504 8.99533 4
1 -4 -3 816.502 38.0360 1
1 -4 -3 837.428 39.5945 4
1 -4 -2 198.953 18.5165 1
1 -4 -2 175.691 17.5865 4
1 -4 -1 1937.34 65.1895 4
1 -4 -1 1921.74 64.0158 1
1 -4 -1 1944.23 64.6445 3
1 -4 0 253.002 22.7381 4
1 -4 0 238.304 20.5373 3
1 -4 0 285.203 22.4529 1
1 -4 1 3105.24 86.0007 3
1 -4 1 3077.62 88.7999 1
1 -4 2 839.715 38.8954 3
1 -4 2 912.325 42.1153 1
1 -4 3 2536.83 79.4303 1
1 -4 3 2478.70 72.3089 3
1 -4 4 769.114 33.4964 3
1 -4 5 2386.88 69.6591 3
1 -4 6 1159.62 45.3294 3
1 -4 7 1725.23 59.8677 3
1 -4 8 1099.84 47.7189 3
1 -4 9 776.321 41.4330 3
1 -4 10 498.307 33.6880 3
1 -4 11 454.424 34.4025 3
1 -4 12 320.627 30.3342 3
1 -4 13 71.3992 15.8230 3
1 -4 14 20.5389 10.5553 3
1 -4 15 11.6029 12.3537 3
1 -4 16 25.5907 13.5485 3
1 -3 -5 733.875 34.6171 4
1 -3 -4 9.09782 8.47616 4
1 -3 -3 12.7859 7.56106 1
1 -3 -3 14.5028 7.60377 4
1 -3 -2 313.302 20.9062 1
1 -3 -2 286.352 20.4106 4
1 -3 -1 88.5351 12.2618 1
1 -3 -1 78.3793 12.6497 4
1 -3 0 842.115 35.7006 4
1 -3 0 812.700 34.8576 1
1 -3 0 746.239 31.5247 3
1 -3 1 349.772 21.0707 3
1 -3 1 350.390 22.7216 1
1 -3 2 604.292 30.4355 1
1 -3 2 624.486 26.7975 3
1 -3 3 2552.21 75.1404 1
1 -3 3 2774.66 67.7512 3
1 -3 4 529.572 24.0075 3
1 -3 5 3722.94 90.4654 3
1 -3 6 591.215 28.7683 3
1 -3 7 3521.36 93.6155 3
1 -3 8 110.834 15.8121 2
1 -3 8 130.491 16.5072 3
1 -3 9 3125.95 95.3415 2
1 -3 9 3046.46 93.0749 3
1 -3 10 12.8227 10.7542 2
1 -3 10 5.44262 9.29736 3
1 -3 11 2642.94 92.5523 3
1 -3 11 2749.83 94.1299 2
1 -3 12 -2.37824 8.53047 2
1 -3 12 0.45852 9.86003 3
1 -3 13 1666.31 74.9753 3
1 -3 13 1541.99 71.6785 2
1 -3 14 7.89523 9.21962 2
1 -3 14 8.02428 10.1040 3
1 -3 15 848.456 54.5193 2
1 -3 15 779.568 55.0981 3
1 -3 16 34.2486 15.4557 2
1 -3 16 56.9724 18.1627 3
1 -3 17 421.778 40.8147 2
1 -2 -4 2236.27 61.9555 4
1 -2 -3 18.5229 7.63701 4
1 -2 -2 1941.42 54.7273 1
1 -2 -2 2091.77 55.5848 4
1 -2 -1 135.054 13.3145 4
1 -2 -1 121.075 11.7602 1
1 -2 0 770.256 28.8673 4
1 -2 0 717.847 27.5375 1
1 -2 0 744.508 24.4532 3
1 -2 1 29.4118 7.58297 3
1 -2 1 20.4310 7.67174 1
1 -2 2 9.75507 5.32053 3
1 -2 2 12.4133 7.75570 1
1 -2 3 251.358 16.7883 1
1 -2 3 272.725 13.7853 3
1 -2 4 80.9707 9.87785 3
1 -2 4 63.7290 11.6467 2
1 -2 5 -5.00653 7.32123 3
1 -2 5 8.16259 10.0257 2
1 -2 6 96.5529 14.5279 2
1 -2 6 95.0664 12.0416 3
1 -2 7 174.517 16.5538 3
1 -2 7 132.507 16.0218 2
1 -2 8 705.361 36.2587 3
1 -2 8 699.170 37.0376 2
1 -2 9 489.300 31.3736 3
1 -2 9 496.478 32.4138 2
1 -2 10 641.125 38.3582 3
1 -2 10 702.836 40.7724 2
1 -2 11 426.586 33.4425 3
1 -2 11 417.586 32.8300 2
1 -2 12 737.885 46.9336 3
1 -2 12 731.265 45.3379 2
1 -2 13 455.112 38.0578 3
1 -2 13 405.454 34.6331 2
1 -2 14 413.257 38.4810 3
1 -2 14 366.410 34.8029 2
1 -2 15 362.315 37.0154 3
1 -2 15 317.651 33.0998 2
1 -2 16 367.548 40.3224 3
1 -2 16 364.358 36.5794 2
1 -2 17 282.932 34.0171 2
1 -1 -2 322.322 16.5676 4
1 -1 -1 4971.53 103.241 4
1 -1 1 5516.65 111.822 1
1 -1 1 5575.76 112.352 2
1 -1 1 5771.02 112.133 4
1 -1 2 681.056 24.3882 2
1 -1 2 658.993 20.8668 1
1 -1 3 2492.04 57.2980 1
1 -1 3 2673.41 63.7098 2
1 -1 4 197.224 15.8494 2
1 -1 5 2979.75 78.3589 2
1 -1 6 438.163 25.5112 2
1 -1 7 1264.51 48.8256 2
1 -1 8 310.758 24.9290 2
1 -1 9 528.916 33.8451 2
1 -1 10 121.715 18.2574 2
1 -1 11 247.410 25.5130 2
1 -1 12 3.99569 10.0520 2
1 -1 13 1.11083 10.0062 2
1 -1 14 11.1234 10.0075 2
1 -1 15 -18.4350 12.3061 2
1 -1 16 40.4103 14.3355 2
1 -1 17 -2.65426 9.41301 2
1 0 -13 408.377 31.3067 2
1 0 -12 715.811 39.5521 2
1 0 -11 636.265 35.5503 2
1 0 -10 384.623 25.6109 2
1 0 -9 818.460 36.2884 2
1 0 -8 244.647 17.3601 2
1 0 -7 321.416 18.6655 2
1 0 -6 15.4160 5.78870 2
1 0 -5 13.1683 5.44918 2
1 0 -4 982.049 27.0650 2
1 0 -3 5.70430 3.38354 2
1 0 -2 745.754 23.4177 3
1 0 1 3363.54 72.5097 2
1 0 2 2073.93 52.8907 2
1 0 3 2516.63 63.7822 2
1 0 4 1781.64 53.7035 2
1 0 5 4242.88 103.686 2
1 0 6 874.354 38.5445 2
1 0 7 3793.85 74.7772 4
1 0 7 3531.69 100.890 2
1 0 8 371.422 13.1623 4
1 0 8 350.456 27.1643 2
1 0 9 3061.61 64.4294 4
1 0 9 2958.51 94.3082 2
1 0 10 164.446 8.86123 4
1 0 10 104.449 17.1600 2
1 0 11 2329.01 50.5724 1
1 0 11 2266.24 50.4283 4
1 0 11 2124.58 82.9264 2
1 0 12 28.6721 14.0317 2
1 0 12 27.0296 3.02770 4
1 0 12 23.6254 2.81360 1
1 0 13 925.925 54.5837 2
1 0 14 -15.0444 12.0195 2
1 0 15 376.482 36.9342 2
1 0 16 6.15632 10.0459 2
1 1 -14 747.079 43.3252 2
1 1 -13 211.306 22.2745 2
1 1 -12 1364.89 55.7536 2
1 1 -11 150.582 16.4980 2
1 1 -10 1572.56 55.6773 2
1 1 -9 105.465 13.2074 2
1 1 -8 3283.62 83.5159 2
1 1 -7 88.5866 10.3442 2
1 1 -6 2102.78 55.2202 2
1 1 -5 13.7763 6.36989 2
1 1 -4 36.8276 6.82978 2
1 1 -4 47.7420 10.1464 3
1 1 -3 -1.25859 6.43797 3
1 1 -2 1281.56 37.5453 3
1 1 -1 14.8793 7.16429 3
1 1 0 467.334 23.1791 3
1 1 1 3.51625 9.59075 3
1 1 2 136.027 14.6405 2
1 1 2 131.775 15.4381 3
1 1 3 37.7771 11.2961 3
1 1 3 14.8481 8.55749 2
1 1 4 599.488 30.9872 2
1 1 4 663.091 33.1526 3
1 1 5 32.5173 11.9377 2
1 1 6 1786.36 63.2604 2
1 1 7 190.367 20.9556 2
1 1 8 1332.79 57.7841 2
1 1 9 208.731 23.4181 2
1 1 10 1054.28 55.0622 2
1 1 11 256.491 28.5171 2
1 1 12 1025.42 58.0824 2
1 1 13 326.840 33.8866 2
1 1 14 700.585 50.7779 2
1 1 15 245.796 32.1782 2
1 1 16 327.103 37.7067 2
1 2 -14 18.1919 8.70800 2
1 2 -13 77.2634 14.7261 2
1 2 -12 5.71462 6.05133 2
1 2 -11 235.370 20.5047 2
1 2 -10 10.7532 7.29270 2
1 2 -9 356.539 23.0945 2
1 2 -8 5.50180 5.99657 2
1 2 -7 1777.73 54.1014 2
1 2 -6 31.9783 8.76069 3
1 2 -6 28.6507 7.41773 2
1 2 -5 2929.66 80.0895 3
1 2 -4 212.427 17.1212 3
1 2 -3 2830.60 74.5659 3
1 2 -2 58.3151 11.3328 3
1 2 -1 3527.25 89.3503 3
1 2 0 -2.38020 10.3755 3
1 2 1 2759.57 81.9063 3
1 2 2 153.483 18.8280 3
1 2 3 2023.43 66.4939 2
1 2 3 2084.19 69.9279 3
1 2 4 206.831 20.6670 2
1 2 4 268.835 24.6954 3
1 2 5 852.753 43.4069 2
1 2 5 1077.04 50.7374 3
1 2 6 -1.48382 8.21572 3
1 2 6 -7.19036 10.5678 2
1 2 7 260.712 25.9745 2
1 2 7 281.119 27.7253 3
1 2 8 2.73475 8.37917 3
1 2 8 -10.3288 10.7899 2
1 2 9 36.1859 12.2979 2
1 2 10 1.57178 9.40467 2
1 2 11 1.29522 10.4971 2
1 2 12 104.690 20.8511 2
1 2 13 11.0456 11.8578 2
1 2 14 188.798 29.9325 2
1 2 15 32.9575 14.8747 2
1 3 -14 752.671 44.4409 2
1 3 -13 224.132 23.1363 2
1 3 -12 311.882 26.0619 2
1 3 -11 176.782 18.7925 2
1 3 -10 159.545 17.5473 2
1 3 -9 236.739 20.2356 2
1 3 -8 13.0176 7.31350 2
1 3 -8 17.5242 9.47763 3
1 3 -7 7.80822 6.39909 2
1 3 -7 11.9692 9.36925 3
1 3 -6 252.965 21.5475 3
1 3 -5 113.376 14.3862 3
1 3 -4 906.660 39.9121 3
1 3 -3 59.3225 12.2197 3
1 3 -2 2336.52 72.3572 3
1 3 -1 537.650 31.5854 3
1 3 0 1693.19 62.9523 3
1 3 1 1830.01 69.3899 3
1 3 2 1756.73 69.9937 3
1 3 3 2767.73 93.6390 3
1 3 4 1738.85 71.2627 3
1 3 5 2584.50 90.3575 2
1 3 5 2875.55 99.7377 3
1 3 6 573.047 39.5099 2
1 3 6 706.340 46.2071 3
1 3 7 1696.80 73.1585 2
1 3 8 550.449 41.0407 2
1 3 9 1177.61 63.4122 2
1 3 10 163.764 24.7917 2
1 3 11 589.660 46.9040 2
1 3 12 31.1429 14.4657 2
1 3 13 281.105 34.3502 2
1 3 14 -9.79346 11.5266 2
1 4 -13 360.110 30.7265 2
1 4 -12 1468.40 62.6487 2
1 4 -11 163.356 19.7527 2
1 4 -10 1247.39 54.0151 2
1 4 -9 288.163 26.3498 3
1 4 -9 267.687 23.7859 2
1 4 -8 912.928 47.3953 3
1 4 -8 936.770 44.3796 2
1 4 -7 18.2225 10.5575 3
1 4 -6 888.693 43.6354 3
1 4 -5 10.8806 8.49794 3
1 4 -4 589.653 34.4774 3
1 4 -3 2.94035 7.74751 3
1 4 -2 7.58141 8.15807 3
1 4 -1 39.3660 10.6790 3
1 4 0 354.575 30.0897 3
1 4 1 64.4084 16.2923 3
1 4 2 865.279 51.9715 3
1 4 3 13.3147 13.0027 3
1 4 4 1270.64 67.1865 3
1 4 5 16.3686 13.9639 2
1 4 5 49.1656 17.7694 3
1 4 6 1474.22 70.8346 2
1 4 7 5.66298 12.4334 2
1 4 8 1428.75 73.0160 2
1 4 9 29.1325 14.0051 2
1 4 10 982.260 63.4284 2
1 4 11 119.889 23.6099 2
1 4 12 627.038 52.5778 2
1 5 -10 -7.77483 8.81583 2
1 5 -9 1156.49 55.0311 2
1 5 -8 26.0174 10.8243 3
1 5 -7 1271.43 58.3171 3
1 5 -6 31.1284 11.0043 3
1 5 -5 2039.30 75.8434 3
1 5 -4 11.3320 7.74812 3
1 5 -3 1742.64 70.1792 3
1 5 -2 20.4032 11.8597 3
1 5 -1 631.093 41.7601 3
1 5 0 17.3086 12.1346 3
1 5 1 787.220 51.3464 3
1 5 2 8.10592 11.5784 3
1 5 6 10.1043 10.9402 2
1 5 7 64.1585 19.5473 2
1 5 8 65.5869 20.1691 2
1 5 9 -1.91916 13.1507 2
1 5 10 80.9225 21.0410 2
1 6 -6 497.752 37.4894 3
1 6 -5 33.9294 11.6451 3
1 6 -4 861.953 50.2536 3
1 6 -3 170.258 23.6799 3
1 6 -2 1266.95 64.3915 3
1 6 6 543.463 47.8727 2
1 6 7 555.938 50.0508 2
1 6 8 250.586 34.5295 2
1 7 6 832.802 63.9576 2
2 -10 3 107.930 21.2207 3
2 -9 -6 5.15221 8.53305 4
2 -9 -5 336.268 38.3814 4
2 -9 -4 244.803 32.7982 4
2 -9 -3 423.822 42.7946 4
2 -9 -2 440.174 43.2236 4
2 -9 -1 255.626 33.6648 4
2 -9 0 650.110 52.3196 4
2 -9 1 265.871 34.1182 4
2 -9 2 691.234 54.4491 4
2 -9 2 670.283 47.7380 3
2 -9 3 147.767 23.2456 3
2 -9 3 182.028 30.0191 4
2 -9 4 521.312 47.5794 4
2 -9 4 522.692 41.5944 3
2 -9 5 48.4582 15.3721 3
2 -9 5 41.2795 16.9716 4
2 -9 6 195.897 26.8732 3
2 -9 6 203.285 32.1700 4
2 -9 7 4.96332 11.8531 3
2 -9 7 15.3901 12.3804 4
2 -9 8 55.0853 17.0981 3
2 -9 9 9.65173 13.1315 3
2 -9 10 2.79664 9.46387 3
2 -8 -7 8.87767 10.0503 4
2 -8 -6 28.5067 14.5683 4
2 -8 -5 15.0612 12.2306 4
2 -8 -4 22.5243 13.6319 4
2 -8 -3 119.411 22.3983 4
2 -8 -2 10.0191 14.6706 4
2 -8 -1 374.807 36.9491 4
2 -8 0 13.8311 12.3620 4
2 -8 1 639.502 48.4976 4
2 -8 1 635.904 44.2965 3
2 -8 2 69.4560 15.8817 3
2 -8 2 67.7488 18.4681 4
2 -8 3 696.879 51.5033 4
2 -8 3 686.732 45.0684 3
2 -8 4 30.1741 12.2872 3
2 -8 4 16.1748 13.0448 4
2 -8 5 747.877 54.1356 4
2 -8 5 654.357 45.9747 3
2 -8 6 -0.99119 9.11481 3
2 -8 7 893.616 55.2800 3
2 -8 8 7.71800 10.0944 3
2 -8 9 619.172 45.0743 3
2 -8 10 22.6516 11.6418 3
2 -8 11 361.782 35.4130 3
2 -8 12 10.7996 8.62630 3
2 -8 13 261.776 31.7499 3
2 -7 -7 20.5795 11.0449 4
2 -7 -6 750.987 50.2630 4
2 -7 -5 5.26679 9.84428 4
2 -7 -4 655.390 46.8411 4
2 -7 -3 21.9174 11.6921 4
2 -7 -2 265.621 29.6808 4
2 -7 -1 37.3007 15.4867 4
2 -7 0 70.7533 16.9984 4
2 -7 1 19.2197 10.1254 3
2 -7 1 16.9423 14.5222 4
2 -7 2 1.75232 7.83440 3
2 -7 2 -5.80296 14.0592 4
2 -7 3 13.2912 8.42881 3
2 -7 3 2.89048 10.5078 4
2 -7 4 96.6254 17.2887 3
2 -7 4 89.3162 19.2183 4
2 -7 5 1.80042 9.49482 3
2 -7 6 326.128 29.7237 3
2 -7 7 7.40784 8.40042 3
2 -7 8 896.061 49.3460 3
2 -7 9 117.493 18.5508 3
2 -7 10 1228.54 60.5651 3
2 -7 11 162.775 22.9031 3
2 -7 12 799.347 50.7281 3
2 -7 13 161.102 23.5339 3
2 -7 14 536.732 44.9548 3
2 -7 15 187.611 27.8013 3
2 -6 -7 944.134 53.4248 4
2 -6 -6 252.489 27.9738 4
2 -6 -5 976.164 53.7440 4
2 -6 -4 557.749 38.7183 1
2 -6 -4 524.958 39.0037 4
2 -6 -3 1127.52 56.9166 1
2 -6 -3 1079.53 56.5753 4
2 -6 -2 1168.75 56.4831 1
2 -6 -2 1134.36 57.4018 4
2 -6 -1 1058.54 53.4173 1
2 -6 -1 1022.65 54.0668 4
2 -6 0 1233.97 59.5262 4
2 -6 0 1361.56 61.4531 1
2 -6 1 620.821 41.5160 4
2 -6 1 616.581 40.3294 1
2 -6 1 591.947 35.6248 3
2 -6 2 758.232 46.5436 4
2 -6 2 816.454 47.0475 1
2 -6 2 816.271 41.0592 3
2 -6 3 238.842 27.1163 4
2 -6 3 260.505 26.1838 1
2 -6 3 236.528 22.8470 3
2 -6 4 349.325 27.6188 3
2 -6 4 330.055 29.5950 1
2 -6 5 18.4031 10.5222 1
2 -6 5 12.1074 7.89665 3
2 -6 6 227.347 22.2490 3
2 -6 6 255.493 26.9994 1
2 -6 7 45.5739 10.4764 3
2 -6 7 62.5395 15.9902 1
2 -6 8 6.28729 9.07797 3
2 -6 9 158.316 19.6882 3
2 -6 10 135.348 18.1447 3
2 -6 11 157.250 21.1971 3
2 -6 12 262.821 27.8499 3
2 -6 13 109.573 19.0383 3
2 -6 14 528.400 42.2210 3
2 -6 15 107.119 21.7796 3
2 -6 16 529.740 46.1609 3
2 -5 -7 141.368 19.6049 4
2 -5 -6 27.1899 12.5848 4
2 -5 -5 400.723 31.7927 4
2 -5 -4 85.6578 16.5802 4
2 -5 -3 1075.81 51.1390 1
2 -5 -3 1087.90 52.8157 4
2 -5 -2 127.875 17.6358 1
2 -5 -2 138.505 19.3549 4
2 -5 -1 1328.19 56.9995 1
2 -5 -1 1362.66 58.7202 4
2 -5 0 142.343 18.7841 4
2 -5 0 172.283 17.3996 3
2 -5 0 165.378 18.8014 1
2 -5 1 1842.17 70.0116 4
2 -5 1 2008.60 71.0228 1
2 -5 1 1818.29 60.5598 3
2 -5 2 57.4062 11.0015 3
2 -5 2 67.6353 14.3084 1
2 -5 2 91.6792 16.8248 4
2 -5 3 1862.91 70.6598 4
2 -5 3 1942.47 70.8931 1
2 -5 3 1830.24 62.0579 3
2 -5 4 73.7729 11.5913 3
2 -5 4 56.9496 13.0971 1
2 -5 5 1176.59 45.3973 3
2 -5 5 1203.18 54.5588 1
2 -5 6 44.7273 12.2638 1
2 -5 6 52.5117 11.0559 3
2 -5 7 1176.94 48.1268 3
2 -5 7 1392.75 59.7355 1
2 -5 8 -18.2672 11.4009 1
2 -5 8 3.15955 7.51375 3
2 -5 9 699.751 43.1280 1
2 -5 9 692.664 37.9127 3
2 -5 10 -0.15848 8.27127 1
2 -5 10 3.73326 8.21987 3
2 -5 11 174.931 21.8825 1
2 -5 11 199.190 23.1800 3
2 -5 12 32.9298 11.3907 1
2 -5 12 46.3409 14.5835 3
2 -5 13 44.1193 13.3331 3
2 -5 13 -5.82746 4.74520 1
2 -5 14 40.4384 14.1193 3
2 -5 15 8.61845 10.3327 3
2 -5 16 5.76675 10.6510 3
2 -4 -6 681.702 39.1238 4
2 -4 -5 19.6844 9.87956 4
2 -4 -4 433.844 29.5558 4
2 -4 -3 11.5430 10.1629 4
2 -4 -3 23.2855 10.1699 1
2 -4 -2 57.3169 12.0173 1
2 -4 -2 44.2962 12.3363 4
2 -4 -1 63.7858 13.2109 1
2 -4 -1 33.4562 11.9521 4
2 -4 0 6.39792 8.17107 4
2 -4 0 6.52409 7.58600 1
2 -4 1 35.3078 10.5376 1
2 -4 1 31.5864 7.93958 3
2 -4 1 37.8853 11.5620 4
2 -4 2 176.458 18.3215 1
2 -4 2 164.319 18.5925 4
2 -4 2 165.196 14.1915 3
2 -4 3 0.16267 6.82338 3
2 -4 3 -1.85618 7.75656 1
2 -4 3 5.14274 10.0530 4
2 -4 4 1318.04 52.8322 1
2 -4 4 1375.98 43.3181 3
2 -4 5 30.4142 10.0817 1
2 -4 5 34.8163 7.63680 3
2 -4 6 1890.63 57.7944 3
2 -4 6 1885.18 67.0100 1
2 -4 7 46.1074 10.2309 3
2 -4 7 37.3652 10.8658 1
2 -4 8 1466.84 57.8853 1
2 -4 8 1432.08 53.5679 3
2 -4 9 46.3118 11.9796 3
2 -4 9 41.0273 11.1211 1
2 -4 10 1363.00 57.6598 3
2 -4 10 1416.16 58.4299 1
2 -4 11 85.7882 16.5275 3
2 -4 11 101.831 15.7334 1
2 -4 12 1214.86 59.3388 3
2 -4 12 1267.88 65.7090 2
2 -4 12 1258.80 56.3095 1
2 -4 13 76.7319 17.7815 2
2 -4 13 111.394 19.9362 3
2 -4 13 59.1339 11.2993 1
2 -4 14 754.994 50.4432 3
2 -4 15 90.0578 19.3622 3
2 -4 16 408.756 40.4872 3
2 -3 -5 2857.27 84.9131 4
2 -3 -4 1301.49 50.2639 4
2 -3 -3 1980.77 63.9687 4
2 -3 -2 980.933 40.3553 1
2 -3 -2 949.848 40.6709 4
2 -3 -1 1768.15 57.4735 1
2 -3 -1 1783.76 58.2532 4
2 -3 0 1316.73 47.3383 1
2 -3 0 1282.59 47.8879 4
2 -3 1 721.460 33.6737 1
2 -3 1 734.628 22.9226 3
2 -3 1 708.710 33.9695 4
2 -3 2 559.942 29.4512 4
2 -3 2 536.455 28.3363 1
2 -3 2 577.798 19.9207 3
2 -3 3 36.6675 8.95092 1
2 -3 3 37.2160 5.84206 3
2 -3 3 47.2675 11.3248 4
2 -3 4 189.142 18.0588 4
2 -3 4 180.438 17.2422 1
2 -3 4 167.745 11.7653 3
2 -3 5 67.2050 12.6668 2
2 -3 5 77.2215 9.51048 3
2 -3 5 65.8409 11.1310 1
2 -3 6 35.7526 8.97779 1
2 -3 6 18.8399 10.5723 2
2 -3 6 10.4209 5.60536 3
2 -3 7 385.846 23.6624 3
2 -3 7 391.990 28.4968 2
2 -3 7 389.341 24.9994 1
2 -3 8 63.8260 13.7712 2
2 -3 8 63.4352 11.7627 3
2 -3 8 74.0924 10.8758 1
2 -3 9 429.627 28.7978 3
2 -3 9 428.753 32.9808 2
2 -3 9 428.882 26.2843 1
2 -3 10 322.954 26.8923 3
2 -3 10 321.369 29.6366 2
2 -3 10 360.764 24.2048 1
2 -3 11 486.837 34.7690 3
2 -3 11 500.959 38.2475 2
2 -3 11 524.054 29.9222 1
2 -3 12 602.179 41.4600 3
2 -3 12 617.053 43.9950 2
2 -3 12 678.648 34.6936 1
2 -3 13 480.070 38.9398 3
2 -3 13 449.549 39.1919 2
2 -3 14 706.190 49.4681 3
2 -3 14 788.101 53.2332 2
2 -3 15 263.897 32.2417 2
2 -3 15 243.201 31.2607 3
2 -3 16 780.606 56.4188 3
2 -3 16 752.026 55.9211 2
2 -2 -3 3524.84 90.3203 4
2 -2 -2 558.223 27.6462 4
2 -2 -1 2184.48 61.4202 4
2 -2 0 733.945 30.2847 1
2 -2 0 756.046 31.2871 4
2 -2 1 2376.01 63.1522 1
2 -2 1 2496.84 64.5705 4
2 -2 2 154.781 14.3927 2
2 -2 2 162.161 13.5496 1
2 -2 2 164.534 14.4557 4
2 -2 2 179.699 7.12543 3
2 -2 3 3684.28 75.7500 3
2 -2 3 3571.69 85.2712 1
2 -2 3 3593.62 85.9207 4
2 -2 3 3592.32 89.9740 2
2 -2 4 40.5240 8.20399 1
2 -2 4 35.0687 9.94639 2
2 -2 4 33.0204 8.27045 4
2 -2 5 1733.86 49.9963 4
2 -2 5 1726.55 49.5111 1
2 -2 5 1757.43 58.2290 2
2 -2 6 103.452 15.1233 2
2 -2 6 112.190 10.9797 1
2 -2 7 414.355 29.0330 2
2 -2 7 384.680 20.7018 1
2 -2 8 14.2635 10.2411 2
2 -2 8 14.6763 5.56608 1
2 -2 9 212.402 23.4473 2
2 -2 9 246.331 16.6614 1
2 -2 10 14.0129 10.0390 2
2 -2 10 7.17909 5.31285 1
2 -2 11 16.5343 11.6125 2
2 -2 11 7.97938 4.54330 1
2 -2 12 -2.63875 9.86454 2
2 -2 12 12.1477 4.73718 1
2 -2 13 101.190 19.6130 2
2 -2 13 117.888 10.6511 4
2 -2 14 -11.8904 11.4235 2
2 -2 15 164.262 25.5130 2
2 -2 15 129.777 23.0551 3
2 -2 16 35.5314 17.4960 2
2 -2 16 23.5341 14.6485 3
2 -1 -1 4.56775 4.63424 2
2 -1 0 821.775 25.4674 2
2 -1 0 783.534 20.1087 3
2 -1 1 82.3572 7.63957 3
2 -1 1 96.4760 10.6399 2
2 -1 1 94.2365 10.8228 4
2 -1 2 2156.59 51.6812 3
2 -1 2 2208.46 52.9891 4
2 -1 2 2137.77 57.6552 2
2 -1 3 19.1479 10.4803 2
2 -1 3 1.60510 5.26855 4
2 -1 4 2452.56 56.3506 1
2 -1 4 2542.37 56.7376 4
2 -1 4 2450.48 70.6191 2
2 -1 5 17.3897 4.14111 1
2 -1 5 27.8014 11.2074 2
2 -1 5 23.9659 4.93292 4
2 -1 6 2073.05 47.5912 1
2 -1 6 2094.75 47.9765 4
2 -1 6 2016.17 68.0241 2
2 -1 7 12.9019 9.70489 2
2 -1 7 11.1209 3.51527 1
2 -1 7 7.87931 3.13528 4
2 -1 8 1783.07 41.3441 1
2 -1 8 1796.80 41.4345 4
2 -1 8 1686.60 67.1111 2
2 -1 9 17.6711 3.18435 1
2 -1 9 13.7318 3.27199 4
2 -1 9 6.98300 10.7563 2
2 -1 10 1937.00 40.8096 1
2 -1 10 1932.07 40.9707 4
2 -1 10 1843.80 76.0840 2
2 -1 11 16.7811 11.4302 2
2 -1 12 797.300 50.7916 2
2 -1 13 9.90787 11.8796 2
2 -1 14 281.677 32.9848 2
2 -1 15 14.1837 10.9963 2
2 -1 16 220.105 31.4905 2
2 0 -11 2530.30 73.9722 2
2 0 -10 57.7635 9.11822 2
2 0 -9 2932.01 74.9596 2
2 0 -8 138.267 11.1796 2
2 0 -7 3722.34 81.7022 2
2 0 -6 232.020 11.4736 2
2 0 -5 3216.47 64.4552 2
2 0 -3 3029.03 73.4358 3
2 0 -2 453.030 14.0803 2
2 0 -2 435.305 20.0739 3
2 0 -1 1976.23 46.0531 2
2 0 -1 1926.93 49.0936 3
2 0 0 799.501 26.9609 2
2 0 0 791.323 27.7971 3
2 0 1 15.0645 8.17087 3
2 0 1 21.1212 9.38188 2
2 0 2 751.851 31.1347 3
2 0 2 773.755 31.6330 2
2 0 3 87.8251 12.6170 3
2 0 3 69.4606 12.0272 2
2 0 4 -4.10235 7.99393 3
2 0 4 11.2372 9.91400 2
2 0 5 427.481 27.8065 2
2 0 6 155.806 19.1808 2
2 0 7 1068.02 49.8008 2
2 0 8 209.763 23.4557 2
2 0 9 753.200 44.8067 2
2 0 10 427.194 35.6692 2
2 0 11 682.054 46.5418 2
2 0 12 662.430 47.4409 2
2 0 13 628.003 48.2332 2
2 0 14 664.429 51.2218 2
2 0 15 396.897 40.7420 2
2 1 -14 27.1101 8.40622 2
2 1 -13 231.931 20.7499 2
2 1 -12 392.000 25.3824 2
2 1 -11 270.757 19.7496 2
2 1 -10 568.411 27.3401 2
2 1 -9 669.495 28.0725 2
2 1 -8 475.420 21.7463 2
2 1 -7 2368.73 58.3830 2
2 1 -6 1823.57 45.9512 2
2 1 -5 2230.48 66.7092 3
2 1 -5 2247.92 52.7080 2
2 1 -4 2779.15 74.8265 3
2 1 -3 2917.05 75.7808 3
2 1 -2 789.566 32.2237 3
2 1 -1 4286.04 101.410 3
2 1 0 171.621 15.8607 2
2 1 0 158.197 16.1961 3
2 1 1 2774.01 72.6908 2
2 1 1 2521.45 75.8274 3
2 1 2 373.483 24.8431 2
2 1 2 350.806 25.0389 3
2 1 3 1501.46 53.9608 2
2 1 3 1598.59 58.2459 3
2 1 4 122.593 16.6381 3
2 1 4 134.613 18.3728 2
2 1 5 473.576 31.5697 2
2 1 5 576.493 35.3610 3
2 1 6 10.4419 7.95700 3
2 1 6 1.81578 9.96989 2
2 1 7 74.7794 17.0532 3
2 1 7 53.1674 14.5542 2
2 1 8 1.65458 9.35478 3
2 1 8 11.5579 11.7277 2
2 1 9 11.3609 10.4857 2
2 1 10 0.47026 10.5086 2
2 1 11 145.412 23.5493 2
2 1 12 21.0841 14.2529 2
2 1 13 284.360 34.1048 2
2 1 14 -28.9669 15.3679 2
2 2 -14 260.944 23.3570 2
2 2 -13 418.028 28.6296 2
2 2 -12 100.488 13.4469 2
2 2 -11 214.855 18.2736 2
2 2 -10 92.1098 11.6440 2
2 2 -9 258.859 18.0285 2
2 2 -8 44.1844 8.15404 2
2 2 -7 21.4798 6.25703 2
2 2 -7 22.2816 8.93081 3
2 2 -6 88.7285 14.8488 3
2 2 -5 -4.96317 6.79691 3
2 2 -4 305.154 22.6164 3
2 2 -3 0.82852 8.04790 3
2 2 -2 1500.96 53.0750 3
2 2 -1 25.0443 10.5998 3
2 2 0 2183.51 71.7605 3
2 2 1 12.7036 11.1027 3
2 2 2 1002.01 45.5682 2
2 2 2 1071.06 51.7464 3
2 2 3 1.18214 11.1608 2
2 2 3 14.7050 11.6825 3
2 2 4 1790.09 68.4349 2
2 2 4 2028.88 76.1577 3
2 2 5 8.98381 8.99712 3
2 2 5 1.44364 9.65491 2
2 2 6 2238.06 84.0937 2
2 2 6 2491.31 91.3186 3
2 2 7 13.3919 12.0040 3
2 2 7 3.23808 12.2854 2
2 2 8 888.514 52.2209 2
2 2 9 -4.77778 10.0844 2
2 2 10 381.300 37.4181 2
2 2 11 -3.20639 10.5115 2
2 2 12 348.369 38.0082 2
2 2 13 -3.73199 9.80087 2
2 3 -14 110.074 15.9916 2
2 3 -13 1992.57 71.2817 2
2 3 -12 93.2385 13.9464 2
2 3 -11 2128.02 69.8179 2
2 3 -10 17.3615 7.91756 2
2 3 -9 2392.59 83.9032 3
2 3 -9 2302.31 70.8216 2
2 3 -8 -2.40141 5.44321 2
2 3 -8 13.0383 10.0054 3
2 3 -7 2980.21 93.2779 3
2 3 -6 73.7895 13.1015 3
2 3 -5 2042.56 70.0339 3
2 3 -4 178.999 19.5365 3
2 3 -3 543.472 32.6296 3
2 3 -2 146.403 18.1337 3
2 3 -1 37.0294 12.8577 3
2 3 0 56.1591 14.1709 3
2 3 1 37.6243 12.8636 3
2 3 2 4.85870 10.6516 3
2 3 3 274.084 26.9366 2
2 3 3 323.112 31.5895 3
2 3 4 15.6005 12.9444 2
2 3 4 6.07468 12.1147 3
2 3 5 676.504 44.0967 2
2 3 5 736.728 50.6766 3
2 3 6 27.9195 13.8302 2
2 3 7 1043.70 59.1280 2
2 3 8 171.354 25.6018 2
2 3 9 1103.06 65.2976 2
2 3 10 357.056 37.9705 2
2 3 11 607.432 50.1796 2
2 3 12 276.967 36.0709 2
2 4 -14 -0.15125 1.39076 2
2 4 -13 131.757 17.9871 2
2 4 -12 682.980 39.7283 2
2 4 -11 331.296 26.5748 2
2 4 -10 1311.45 55.0907 2
2 4 -9 797.839 40.7717 2
2 4 -8 1976.60 76.9851 3
2 4 -7 1467.18 63.0628 3
2 4 -6 1220.28 56.5120 3
2 4 -5 1695.88 67.4248 3
2 4 -4 1060.54 51.4235 3
2 4 -3 1559.73 64.3605 3
2 4 -2 869.840 47.2627 3
2 4 -1 1273.46 59.8008 3
2 4 0 299.483 29.5674 3
2 4 1 677.685 45.7513 3
2 4 2 89.8952 18.9737 3
2 4 3 475.862 42.5647 3
2 4 4 18.5663 14.6239 2
2 4 5 111.972 21.2790 2
2 4 6 2.42068 11.2329 2
2 4 7 16.7515 13.5479 2
2 4 8 15.1518 13.1163 2
2 4 9 130.757 25.2049 2
2 4 10 103.318 23.3776 2
2 4 11 240.564 34.0188 2
2 5 -11 79.4552 14.2059 2
2 5 -10 59.1164 15.0463 2
2 5 -6 471.760 35.8881 3
2 5 -5 8.92373 10.6706 3
2 5 -4 783.058 47.0654 3
2 5 -3 57.1130 15.7252 3
2 5 -2 792.527 49.0830 3
2 5 -1 106.078 20.2405 3
2 5 0 1308.55 68.3420 3
2 5 4 816.840 55.8858 2
2 5 5 30.0234 16.2790 2
2 5 6 636.638 50.7600 2
2 5 7 0.79997 12.1889 2
2 5 8 294.529 35.7135 2
2 5 9 32.8166 18.1326 2
2 6 5 666.232 54.7159 2
2 6 6 74.8861 22.1368 2
2 6 7 687.411 57.5824 2
2 7 4 75.6384 22.7301 2
3 -9 -4 205.454 30.7383 4
3 -9 -3 6.84322 14.7353 4
3 -9 -2 419.943 43.3821 4
3 -9 -1 40.6782 18.1923 4
3 -9 0 644.870 52.9849 4
3 -9 1 103.733 22.8739 4
3 -9 2 970.320 65.5068 4
3 -9 3 162.013 27.9670 4
3 -9 4 1181.73 72.8164 4
3 -9 4 1063.97 55.2800 3
3 -9 5 263.796 33.9823 4
3 -9 5 259.634 26.2907 3
3 -9 6 925.546 64.4363 4
3 -9 7 478.814 47.2641 4
3 -9 8 597.321 52.0021 4
3 -9 9 331.058 39.3522 4
3 -8 -7 237.793 31.4117 4
3 -8 -6 23.0631 12.7515 4
3 -8 -5 239.168 31.6013 4
3 -8 -4 14.8565 11.6881 4
3 -8 -3 129.950 23.0799 4
3 -8 -2 -4.97916 12.8791 4
3 -8 -1 20.9686 14.6960 4
3 -8 0 16.2679 12.8462 4
3 -8 1 25.1332 15.6282 4
3 -8 2 79.8204 19.8159 4
3 -8 3 6.30475 8.57786 3
3 -8 3 -4.08543 9.97266 4
3 -8 4 140.459 17.9825 3
3 -8 4 111.698 22.3722 4
3 -8 5 69.3526 12.8166 3
3 -8 5 112.491 24.5441 4
3 -8 6 337.942 35.9128 4
3 -8 6 343.698 29.5601 3
3 -8 7 77.0351 16.1221 3
3 -8 7 60.1528 18.7247 4
3 -8 8 604.663 49.1590 4
3 -8 8 644.042 42.4951 3
3 -8 9 63.6907 13.7460 3
3 -8 9 60.7394 16.9281 4
3 -8 10 522.577 45.9983 4
3 -8 10 583.835 40.9236 3
3 -8 11 125.779 23.5057 4
3 -8 12 448.665 43.9828 4
3 -8 13 76.8944 20.6703 4
3 -8 14 362.890 40.8061 4
3 -7 -7 326.259 34.5660 4
3 -7 -6 603.102 46.5725 4
3 -7 -5 566.051 44.6420 4
3 -7 -4 627.401 47.1007 4
3 -7 -3 733.498 50.2812 4
3 -7 -2 481.669 40.6594 4
3 -7 -1 1218.96 65.7260 4
3 -7 0 411.003 37.2774 4
3 -7 1 1126.84 62.2511 4
3 -7 2 388.907 34.9895 4
3 -7 2 355.446 25.5217 3
3 -7 3 744.091 48.8863 4
3 -7 3 740.456 37.8216 3
3 -7 4 117.671 15.6358 3
3 -7 4 116.937 20.8605 4
3 -7 5 553.935 43.1158 4
3 -7 5 580.871 34.3706 3
3 -7 6 -7.78786 7.28550 3
3 -7 6 -0.46761 9.76461 4
3 -7 7 180.761 25.3695 4
3 -7 7 210.041 21.9753 3
3 -7 8 8.60865 7.77888 3
3 -7 8 1.69221 10.5195 4
3 -7 9 15.8768 9.28660 3
3 -7 9 10.1937 12.2649 4
3 -7 10 -0.74198 6.82898 3
3 -7 10 8.77482 13.9198 4
3 -7 11 40.0159 12.3719 3
3 -7 11 47.6152 17.3710 4
3 -7 12 -7.48584 8.59085 3
3 -7 12 8.84237 11.1008 4
3 -7 13 66.9029 16.3471 4
3 -7 14 -4.57877 8.83250 4
3 -6 -6 332.703 33.4578 4
3 -6 -5 14.3000 11.1801 4
3 -6 -4 985.279 55.7355 4
3 -6 -3 24.4740 13.3297 4
3 -6 -2 2211.83 86.4831 4
3 -6 -1 -2.27934 7.06657 1
3 -6 -1 10.2946 12.1174 4
3 -6 0 2751.32 96.1838 1
3 -6 0 2650.42 96.3363 4
3 -6 1 98.7645 19.0793 4
3 -6 1 130.848 20.5252 1
3 -6 2 2792.10 98.7161 4
3 -6 2 2836.38 78.4042 3
3 -6 2 2953.95 99.8151 1
3 -6 3 313.073 28.5454 1
3 -6 3 293.569 28.8558 4
3 -6 3 280.839 19.5433 3
3 -6 4 2264.66 87.2650 4
3 -6 4 2413.46 88.2821 1
3 -6 4 2406.38 70.8619 3
3 -6 5 280.218 27.5674 1
3 -6 5 252.919 27.4275 4
3 -6 5 298.916 22.1786 3
3 -6 6 1578.02 70.7561 4
3 -6 6 1648.39 70.8332 1
3 -6 6 1670.47 57.7365 3
3 -6 7 278.336 28.8796 4
3 -6 7 363.831 24.6789 3
3 -6 8 1055.27 56.8553 4
3 -6 8 1200.46 49.1129 3
3 -6 9 329.417 31.3248 4
3 -6 9 391.366 27.6345 3
3 -6 10 446.142 36.6706 4
3 -6 10 503.328 32.4970 3
3 -6 11 257.267 28.0597 4
3 -6 11 286.912 26.1866 3
3 -6 12 156.188 20.3074 3
3 -6 12 161.921 23.2538 4
3 -6 13 66.2331 15.6162 3
3 -6 13 63.2431 15.8680 4
3 -6 14 26.0115 11.7331 3
3 -6 14 17.9141 10.9039 4
3 -6 15 4.51921 8.69005 3
3 -5 -6 24.9218 11.9813 4
3 -5 -5 29.6149 13.3151 4
3 -5 -4 80.8484 16.9615 4
3 -5 -3 20.2126 13.7761 4
3 -5 -2 26.0787 10.6038 1
3 -5 -2 21.6452 12.0985 4
3 -5 -1 31.9862 10.6350 1
3 -5 -1 26.8761 13.0303 4
3 -5 0 152.025 18.7848 1
3 -5 0 178.724 21.3561 4
3 -5 1 143.556 18.4437 1
3 -5 1 188.389 22.0340 4
3 -5 2 891.099 46.8888 4
3 -5 2 845.861 30.4805 3
3 -5 2 971.387 47.7027 1
3 -5 3 393.941 29.5180 1
3 -5 3 379.666 30.0951 4
3 -5 3 355.099 18.7630 3
3 -5 4 945.186 48.7503 4
3 -5 4 1003.89 48.9181 1
3 -5 4 983.099 35.9963 3
3 -5 5 314.587 27.9937 4
3 -5 5 357.675 28.5955 1
3 -5 5 379.981 20.9634 3
3 -5 6 1174.99 54.7686 4
3 -5 6 1219.07 54.3490 1
3 -5 6 1160.58 41.5379 3
3 -5 7 318.929 28.8569 4
3 -5 7 310.812 27.1334 1
3 -5 7 358.606 22.4165 3
3 -5 8 1057.88 53.0470 4
3 -5 8 1155.10 54.0529 1
3 -5 8 1142.22 45.1444 3
3 -5 9 469.835 34.3825 4
3 -5 9 452.614 33.0347 1
3 -5 9 470.498 29.2725 3
3 -5 10 929.738 48.8668 4
3 -5 10 861.885 46.5910 1
3 -5 10 907.683 44.3708 3
3 -5 11 228.688 24.1960 4
3 -5 11 236.394 24.3157 1
3 -5 11 236.364 23.4471 3
3 -5 12 835.323 46.6255 4
3 -5 12 730.735 43.6374 1
3 -5 12 772.723 45.1657 3
3 -5 13 111.842 18.9455 3
3 -5 13 129.507 18.8112 4
3 -5 14 434.851 36.7844 3
3 -5 15 38.9197 13.0614 3
3 -5 16 235.105 30.1294 3
3 -4 -5 1115.57 53.5356 4
3 -4 -4 1207.35 54.8830 4
3 -4 -3 1083.72 50.6691 4
3 -4 -2 1756.55 65.9600 4
3 -4 -1 939.956 44.7154 1
3 -4 -1 858.847 43.5258 4
3 -4 0 830.255 41.5418 1
3 -4 0 835.398 42.0889 4
3 -4 1 967.673 44.6114 1
3 -4 1 947.067 45.4725 4
3 -4 2 211.203 21.3868 1
3 -4 2 189.548 20.7842 4
3 -4 3 432.096 27.9339 1
3 -4 3 432.466 28.9453 4
3 -4 3 359.177 15.2807 3
3 -4 4 266.954 22.2756 1
3 -4 4 272.873 23.0903 4
3 -4 4 293.013 14.3228 3
3 -4 5 27.7903 5.99359 3
3 -4 5 31.1441 10.4769 4
3 -4 5 10.6212 7.43715 1
3 -4 6 139.307 16.5751 1
3 -4 6 112.633 15.5662 4
3 -4 6 132.327 12.1012 3
3 -4 7 8.12319 6.82206 1
3 -4 7 -9.86003 11.6249 2
3 -4 7 3.70387 5.61732 3
3 -4 7 2.00383 7.89352 4
3 -4 8 41.8106 13.1979 2
3 -4 8 29.3171 8.88773 1
3 -4 8 31.8738 7.94360 3
3 -4 8 42.0076 10.6865 4
3 -4 9 66.6737 16.0132 2
3 -4 9 63.0467 11.6891 1
3 -4 9 77.9454 12.7390 3
3 -4 9 48.9605 11.4893 4
3 -4 10 29.4436 13.7801 2
3 -4 10 32.1410 8.65918 1
3 -4 10 36.5647 11.2485 3
3 -4 10 13.6386 7.56101 4
3 -4 11 329.435 28.7079 3
3 -4 11 334.171 25.6533 4
3 -4 11 298.836 24.1935 1
3 -4 11 323.185 33.1812 2
3 -4 12 -3.46556 4.56597 1
3 -4 12 10.4005 12.1571 2
3 -4 12 -4.41302 7.59967 3
3 -4 12 21.4569 8.65084 4
3 -4 13 477.303 37.7611 3
3 -4 13 557.854 32.7905 4
3 -4 13 622.443 48.5971 2
3 -4 14 12.2367 12.3363 2
3 -4 14 6.96519 8.91041 3
3 -4 15 534.237 43.8889 3
3 -4 15 531.557 48.4940 2
3 -4 16 6.26592 10.5362 3
3 -3 -3 255.092 22.2511 4
3 -3 -2 4483.45 116.701 4
3 -3 -1 42.6155 12.9624 4
3 -3 0 4576.20 116.294 4
3 -3 1 18.9934 7.96903 1
3 -3 1 15.0581 11.2453 4
3 -3 2 5087.06 123.231 1
3 -3 2 5123.16 124.008 4
3 -3 3 68.2887 12.5895 2
3 -3 3 74.1651 11.6426 1
3 -3 3 100.008 13.9888 4
3 -3 3 81.4486 5.03727 3
3 -3 4 4094.03 85.1781 3
3 -3 4 4054.97 102.438 1
3 -3 4 3972.89 102.865 4
3 -3 4 3953.87 107.149 2
3 -3 5 299.323 16.4680 3
3 -3 5 328.420 21.7119 1
3 -3 5 317.734 21.5679 4
3 -3 5 309.384 24.6580 2
3 -3 6 2055.52 57.0434 3
3 -3 6 2007.12 62.6159 1
3 -3 6 1998.37 62.7390 4
3 -3 6 2042.36 72.4612 2
3 -3 7 224.110 17.5183 3
3 -3 7 172.388 20.8025 2
3 -3 7 200.861 17.1204 1
3 -3 7 204.056 18.0725 4
3 -3 8 1095.94 44.1839 3
3 -3 8 1098.00 42.2631 1
3 -3 8 1124.61 42.9087 4
3 -3 8 1016.64 53.0825 2
3 -3 9 237.628 21.0505 3
3 -3 9 203.901 24.3636 2
3 -3 9 203.664 16.4556 1
3 -3 9 219.508 17.7367 4
3 -3 10 234.632 22.9579 3
3 -3 10 221.473 17.7815 1
3 -3 10 227.593 17.9569 4
3 -3 10 259.493 27.8638 2
3 -3 11 57.6117 17.0644 2
3 -3 11 58.4305 13.4952 3
3 -3 11 34.8082 7.18543 4
3 -3 11 26.8329 5.90001 1
3 -3 12 12.6877 11.0502 2
3 -3 12 21.3503 12.1358 3
3 -3 12 4.41547 5.43766 4
3 -3 13 7.01925 11.2425 2
3 -3 13 -0.39301 8.89442 3
3 -3 14 32.4839 14.2740 2
3 -3 14 10.6775 9.81556 3
3 -3 15 11.0949 11.6102 2
3 -3 15 29.4910 14.3659 3
3 -3 16 66.3884 18.7676 3
3 -2 -1 1361.00 49.4543 4
3 -2 0 1082.42 42.2657 4
3 -2 0 1087.62 36.5799 2
3 -2 1 1415.77 48.4098 4
3 -2 1 1473.16 46.1974 2
3 -2 2 1348.29 45.2010 4
3 -2 2 1362.91 45.7092 2
3 -2 2 1246.96 31.0200 3
3 -2 3 1123.14 39.5102 4
3 -2 3 1093.35 32.6342 3
3 -2 3 1116.66 42.8142 2
3 -2 4 2119.00 60.5046 4
3 -2 4 2248.95 57.9990 3
3 -2 4 2220.45 69.4051 2
3 -2 5 1643.01 48.5664 1
3 -2 5 1640.04 49.0816 4
3 -2 5 1570.42 59.0645 2
3 -2 6 1547.37 46.8644 1
3 -2 6 1597.71 47.7974 4
3 -2 6 1564.12 60.6480 2
3 -2 7 1291.53 40.0516 1
3 -2 7 1247.83 39.7678 4
3 -2 7 1210.84 55.5910 2
3 -2 8 1236.55 38.5303 1
3 -2 8 1232.13 38.5153 4
3 -2 8 1210.03 57.3041 2
3 -2 9 545.456 22.4382 1
3 -2 9 563.670 22.9108 4
3 -2 9 537.085 39.1405 2
3 -2 10 1015.77 31.9101 4
3 -2 10 1070.81 57.1479 2
3 -2 11 284.073 13.0915 4
3 -2 11 268.598 30.3276 2
3 -2 12 504.780 41.8604 2
3 -2 13 80.8359 20.3209 2
3 -2 14 210.146 29.3822 2
3 -2 15 36.2926 14.6832 2
3 -1 -2 909.687 30.1324 3
3 -1 -2 923.632 25.6105 2
3 -1 -1 38.9655 6.98330 2
3 -1 -1 34.4860 6.14805 3
3 -1 0 950.935 32.2298 2
3 -1 0 910.254 27.8808 3
3 -1 1 114.687 10.2147 3
3 -1 1 131.090 13.3717 2
3 -1 2 241.683 16.7874 3
3 -1 2 245.547 18.7362 2
3 -1 3 3.92394 6.47224 3
3 -1 3 1.47387 9.44022 2
3 -1 4 4.35093 7.17781 3
3 -1 4 17.6846 10.2347 2
3 -1 5 281.027 21.0083 3
3 -1 5 273.477 23.6372 2
3 -1 6 16.1708 7.90045 3
3 -1 6 10.0542 9.75849 2
3 -1 7 243.030 24.3280 2
3 -1 8 -7.34765 11.0896 2
3 -1 9 499.528 37.8939 2
3 -1 10 -10.6888 11.5828 2
3 -1 11 834.231 53.8809 2
3 -1 12 66.9110 16.8129 2
3 -1 13 613.817 48.6885 2
3 -1 14 15.7286 11.9178 2
3 0 -4 4462.15 107.364 3
3 0 -3 643.596 28.5448 3
3 0 -3 703.937 20.7176 2
3 0 -2 5774.98 117.743 2
3 0 -2 5742.16 126.576 3
3 0 -1 182.939 13.2494 2
3 0 -1 178.444 14.1851 3
3 0 0 3840.75 92.4271 3
3 0 0 3848.35 91.1110 2
3 0 1 29.3244 9.16317 3
3 0 1 35.5183 9.90696 2
3 0 2 4128.74 108.151 3
3 0 2 4400.28 106.869 2
3 0 3 1.46920 8.32377 3
3 0 3 5.63773 10.2391 2
3 0 4 3233.43 92.7570 3
3 0 4 3124.16 92.1078 2
3 0 5 40.0228 11.3503 3
3 0 5 9.32891 9.06627 2
3 0 6 937.764 46.9631 3
3 0 6 815.545 45.2813 2
3 0 7 11.6990 7.99740 3
3 0 7 24.0789 13.2804 2
3 0 8 240.287 26.7023 2
3 0 8 241.817 25.6006 3
3 0 9 35.5562 12.0320 3
3 0 9 5.14293 11.1841 2
3 0 10 11.7771 11.9736 2
3 0 11 9.74610 11.2969 2
3 0 12 63.3458 17.5111 2
3 0 13 14.4658 12.0385 2
3 0 14 182.947 29.2353 2
3 1 -13 313.684 20.6890 2
3 1 -12 13.8862 5.68389 2
3 1 -11 36.5658 6.41138 2
3 1 -10 24.9467 5.72941 2
3 1 -9 6.22186 3.70070 2
3 1 -8 7.59078 3.22720 2
3 1 -7 290.804 24.2659 3
3 1 -7 299.133 13.5609 2
3 1 -6 10.4594 3.86985 2
3 1 -6 16.6296 8.91541 3
3 1 -5 1180.36 46.7238 3
3 1 -4 348.436 23.4042 3
3 1 -3 1613.81 54.8618 3
3 1 -2 1078.51 37.8766 2
3 1 -2 1075.87 42.4843 3
3 1 -1 2091.87 60.3883 2
3 1 -1 1984.57 63.4732 3
3 1 0 708.739 33.1925 2
3 1 0 648.851 32.9165 3
3 1 1 2797.13 78.6108 2
3 1 1 2505.27 80.3465 3
3 1 2 918.782 42.7061 2
3 1 2 995.130 47.6849 3
3 1 3 2415.37 80.1134 2
3 1 3 2654.10 86.9182 3
3 1 4 1202.33 54.5048 2
3 1 4 1346.79 59.8871 3
3 1 5 1988.85 75.1643 2
3 1 5 2139.83 79.9660 3
3 1 6 1284.94 61.3252 3
3 1 6 1153.56 56.7672 2
3 1 7 1148.76 59.0445 3
3 1 7 951.621 53.7579 2
3 1 8 808.669 51.1077 2
3 1 9 290.925 31.8485 2
3 1 10 363.686 36.8420 2
3 1 11 199.545 28.5137 2
3 1 12 269.449 33.8129 2
3 1 13 102.004 23.4343 2
3 2 -13 61.2383 10.1178 2
3 2 -12 1225.99 44.7143 2
3 2 -11 80.0655 10.5675 2
3 2 -10 1163.22 40.5445 2
3 2 -9 244.129 16.4139 2
3 2 -8 960.587 48.3356 3
3 2 -8 928.040 33.8145 2
3 2 -7 93.0803 14.4914 3
3 2 -6 1322.57 55.0508 3
3 2 -5 27.1448 8.34446 3
3 2 -4 1068.82 46.6277 3
3 2 -3 4.98847 8.09759 3
3 2 -2 255.949 22.2744 3
3 2 -1 54.5251 13.6712 3
3 2 0 22.0962 11.6693 2
3 2 0 33.3859 11.0891 3
3 2 1 105.226 16.2916 2
3 2 1 113.087 16.7417 3
3 2 2 -9.21705 10.9316 2
3 2 2 5.13905 10.5151 3
3 2 3 251.343 27.9294 3
3 2 3 202.525 23.0324 2
3 2 4 19.9169 12.9750 3
3 2 4 15.9760 12.7815 2
3 2 5 460.473 36.6122 2
3 2 5 523.204 41.4700 3
3 2 6 46.3464 15.5410 3
3 2 6 42.4683 14.6782 2
3 2 7 699.862 48.3335 2
3 2 8 96.0950 21.0054 2
3 2 9 826.567 55.3059 2
3 2 10 108.558 24.0907 2
3 2 11 605.335 50.1069 2
3 2 12 20.1152 13.7235 2
3 3 -13 272.630 22.3089 2
3 3 -12 302.132 22.5316 2
3 3 -11 661.435 33.4353 2
3 3 -10 844.778 37.7236 2
3 3 -9 1048.07 42.2681 2
3 3 -8 1901.38 75.6180 3
3 3 -7 1387.46 61.3029 3
3 3 -6 1735.15 68.7130 3
3 3 -5 866.864 45.9745 3
3 3 -4 2091.49 75.2864 3
3 3 -3 678.422 39.7225 3
3 3 -2 3492.57 106.946 3
3 3 -1 437.595 33.4530 3
3 3 0 2654.68 92.6772 3
3 3 1 125.611 19.2600 3
3 3 2 1055.56 54.5312 2
3 3 2 1124.91 61.0840 3
3 3 3 25.7047 12.2637 2
3 3 3 32.8607 13.8107 3
3 3 4 718.831 46.9059 2
3 3 4 811.835 55.5828 3
3 3 5 7.02099 10.5550 2
3 3 6 229.292 28.5082 2
3 3 7 0.38486 12.5887 2
3 3 8 12.7750 13.5127 2
3 3 9 -5.05565 13.0469 2
3 3 10 89.7844 21.6847 2
3 3 11 21.2824 16.7800 2
3 4 -12 7.81482 6.30992 2
3 4 -11 26.8097 8.16680 2
3 4 -10 29.4356 9.08010 2
3 4 -6 -7.40606 8.98489 3
3 4 -5 1272.76 60.3788 3
3 4 -4 34.3051 12.5936 3
3 4 -3 2252.78 85.7137 3
3 4 -2 101.126 18.2680 3
3 4 -1 2790.17 100.619 3
3 4 0 320.836 31.8740 3
3 4 1 2880.86 108.070 3
3 4 2 632.220 45.9576 2
3 4 3 1414.96 71.1723 2
3 4 4 481.593 41.9987 2
3 4 5 819.870 55.9289 2
3 4 6 313.508 36.2804 2
3 4 7 560.440 48.5030 2
3 4 8 342.157 39.1416 2
3 4 9 178.638 29.3824 2
3 5 -12 25.4894 7.91093 2
3 5 -11 3.09018 7.19902 2
3 5 -10 782.619 45.0800 2
3 5 3 390.420 39.3604 2
3 5 4 156.932 26.3975 2
3 5 5 525.098 47.8066 2
3 5 6 81.5146 21.6789 2
3 5 7 619.225 54.3531 2
3 6 3 33.5002 17.1146 2
3 6 4 47.5143 19.6064 2
3 6 5 14.5194 14.7639 2
4 -9 -1 22.1454 16.1349 4
4 -9 0 24.7074 12.1528 4
4 -9 1 15.5214 14.2245 4
4 -9 2 54.4200 21.0902 4
4 -9 3 210.945 32.0947 4
4 -9 4 68.3532 18.7293 4
4 -9 5 427.546 43.3305 4
4 -9 6 71.1701 20.5547 4
4 -9 7 773.637 59.2040 4
4 -9 8 -5.74040 11.9883 4
4 -8 -6 423.231 42.6508 4
4 -8 -5 11.1837 12.3346 4
4 -8 -4 646.345 52.1598 4
4 -8 -3 22.9821 14.9670 4
4 -8 -2 576.359 48.5754 4
4 -8 -1 21.4048 14.5804 4
4 -8 0 411.372 41.1926 4
4 -8 1 23.6576 14.6782 4
4 -8 2 240.469 31.8929 4
4 -8 3 29.3433 14.7525 4
4 -8 4 150.198 24.7058 4
4 -8 5 14.7244 12.7584 4
4 -8 6 33.3168 15.8711 4
4 -8 7 4.08636 10.8972 4
4 -8 8 11.7186 14.4637 4
4 -8 9 58.6358 17.1683 4
4 -8 10 23.9331 14.1515 4
4 -8 11 125.678 23.8770 4
4 -8 12 34.3757 13.5410 4
4 -8 13 140.725 25.1927 4
4 -7 -6 15.1833 13.8508 4
4 -7 -5 186.117 27.5827 4
4 -7 -4 7.42914 11.2864 4
4 -7 -3 544.080 44.9317 4
4 -7 -2 -10.5902 13.2353 4
4 -7 -1 871.052 56.3733 4
4 -7 0 260.259 31.2120 4
4 -7 1 874.774 55.4606 4
4 -7 2 286.992 31.5747 4
4 -7 3 1291.46 68.5393 4
4 -7 4 195.358 26.6025 4
4 -7 5 1063.97 60.5961 4
4 -7 5 1110.76 38.4830 3
4 -7 6 443.149 39.1377 4
4 -7 6 474.949 25.7114 3
4 -7 7 872.878 54.7606 4
4 -7 7 875.391 39.2900 3
4 -7 8 409.366 37.2918 4
4 -7 8 455.615 27.8313 3
4 -7 9 575.576 44.6499 4
4 -7 9 597.154 33.4310 3
4 -7 10 271.931 30.9673 4
4 -7 11 148.178 22.7801 4
4 -7 12 112.796 22.1127 4
4 -7 13 69.9350 16.3938 4
4 -6 -5 146.641 22.8188 4
4 -6 -4 11.8798 11.9070 4
4 -6 -3 19.3473 14.2972 4
4 -6 -2 133.013 21.2885 4
4 -6 -1 8.32330 9.90204 4
4 -6 0 289.302 29.9394 4
4 -6 1 370.109 33.8332 4
4 -6 2 193.461 24.6392 4
4 -6 3 740.148 46.9863 4
4 -6 4 355.899 32.3045 4
4 -6 5 1161.39 60.0087 4
4 -6 5 1188.09 35.7389 3
4 -6 6 279.879 28.9701 4
4 -6 6 256.761 17.0063 3
4 -6 7 1861.10 78.8805 4
4 -6 7 2042.71 59.2424 3
4 -6 8 108.436 18.7157 4
4 -6 8 128.984 13.7680 3
4 -6 9 1814.44 77.5577 4
4 -6 9 1976.20 63.8390 3
4 -6 10 12.3510 6.86444 3
4 -6 10 32.3652 12.7312 4
4 -6 11 1333.38 64.4768 4
4 -6 11 1397.43 57.6644 3
4 -6 12 8.90426 5.98006 3
4 -6 12 5.51454 7.79056 4
4 -5 -4 916.704 52.5973 4
4 -5 -3 7.90056 10.7356 4
4 -5 -2 618.288 41.8342 4
4 -5 -1 -20.2024 11.7397 4
4 -5 0 398.375 32.8197 4
4 -5 1 -7.26766 8.55348 1
4 -5 1 -9.84964 11.7489 4
4 -5 2 123.842 17.8976 1
4 -5 2 119.650 18.1074 4
4 -5 3 -10.7880 7.33296 1
4 -5 3 11.9798 10.4246 4
4 -5 4 5.13268 7.78641 1
4 -5 4 -4.16452 8.11089 4
4 -5 5 46.5660 5.95026 3
4 -5 5 37.7105 11.1509 1
4 -5 5 62.1117 15.3590 4
4 -5 6 79.0804 8.36424 3
4 -5 6 100.080 16.7444 1
4 -5 6 82.4910 16.1626 4
4 -5 7 128.336 18.8718 4
4 -5 7 146.865 19.2981 1
4 -5 7 162.860 13.1747 3
4 -5 8 265.908 24.7546 1
4 -5 8 261.320 25.0955 4
4 -5 8 286.847 19.6361 3
4 -5 9 123.830 14.3075 3
4 -5 9 109.350 17.4590 4
4 -5 9 110.159 16.6393 1
4 -5 10 467.289 33.1510 1
4 -5 10 505.094 34.5411 4
4 -5 10 448.785 29.4215 3
4 -5 11 252.084 24.2687 1
4 -5 11 252.919 24.2223 4
4 -5 11 234.758 22.4926 3
4 -5 12 338.541 28.5294 4
4 -5 12 336.926 28.4446 3
4 -5 13 292.379 28.4633 3
4 -4 -3 1447.36 63.6200 4
4 -4 -2 53.8640 13.6317 4
4 -4 -1 1866.13 71.1929 4
4 -4 0 123.450 17.7527 4
4 -4 1 2252.66 78.0292 4
4 -4 2 177.119 19.6249 1
4 -4 2 151.163 19.6286 4
4 -4 3 2272.02 75.6618 1
4 -4 3 2208.84 76.3701 4
4 -4 4 530.100 32.4249 1
4 -4 4 504.287 32.3292 4
4 -4 5 1436.30 56.4061 1
4 -4 5 1398.83 57.2926 4
4 -4 5 1405.93 61.7003 2
4 -4 5 1440.25 36.9373 3
4 -4 6 316.108 25.0362 1
4 -4 6 332.289 26.3569 4
4 -4 6 324.062 29.1757 2
4 -4 6 332.170 17.1018 3
4 -4 7 797.328 32.0954 3
4 -4 7 808.831 40.2750 1
4 -4 7 835.888 41.8982 4
4 -4 7 767.748 46.4220 2
4 -4 8 86.5046 17.9436 2
4 -4 8 74.8101 12.2197 1
4 -4 8 109.546 13.0798 3
4 -4 8 102.737 14.3216 4
4 -4 9 413.492 26.5764 3
4 -4 9 373.832 26.2991 1
4 -4 9 370.189 26.7245 4
4 -4 9 373.623 35.2093 2
4 -4 10 23.4275 12.2450 2
4 -4 10 26.2042 8.38159 1
4 -4 10 30.4241 9.45229 3
4 -4 10 21.4525 7.00063 4
4 -4 11 112.231 22.3974 2
4 -4 11 133.747 18.0923 3
4 -4 11 114.949 14.6811 4
4 -4 12 -7.88749 13.9575 2
4 -4 12 12.4315 9.87919 3
4 -4 12 -2.51844 5.58119 4
4 -4 13 18.1658 13.0105 2
4 -4 13 82.7495 16.2660 3
4 -4 14 0.46454 7.59640 3
4 -4 15 32.5692 14.0404 3
4 -3 -1 496.518 32.1532 4
4 -3 0 1132.64 49.8448 4
4 -3 1 914.946 42.8625 4
4 -3 2 1493.31 56.0711 4
4 -3 2 1515.76 54.8570 2
4 -3 3 1862.03 63.4984 4
4 -3 3 1919.60 66.0090 2
4 -3 4 697.580 21.2187 3
4 -3 4 636.174 33.4944 4
4 -3 4 616.325 35.6018 2
4 -3 4 603.710 22.7166 3
4 -3 5 2811.71 82.1018 4
4 -3 5 2885.65 71.7358 3
4 -3 5 2856.66 90.6837 2
4 -3 6 545.101 29.8795 4
4 -3 6 528.157 26.5540 3
4 -3 6 476.130 34.7292 2
4 -3 7 2316.86 69.3134 4
4 -3 7 2218.65 83.7693 2
4 -3 8 422.869 25.2255 4
4 -3 8 464.733 36.7574 2
4 -3 9 2034.50 62.2878 4
4 -3 9 2034.29 84.1391 2
4 -3 10 156.994 24.1312 2
4 -3 10 124.439 12.6780 4
4 -3 11 1388.48 44.9733 4
4 -3 11 1397.74 72.6019 2
4 -3 12 65.9506 17.4640 2
4 -3 13 755.311 48.5408 3
4 -3 13 807.856 57.7685 2
4 -3 14 23.6407 10.0976 3
4 -3 15 387.936 38.3198 3
4 -2 -1 1.08656 5.85144 2
4 -2 0 6.89420 6.77144 2
4 -2 0 5.69276 3.15745 3
4 -2 1 8.39569 6.78715 2
4 -2 1 22.5150 4.25022 3
4 -2 2 10.8525 3.77471 3
4 -2 2 9.92791 7.03507 2
4 -2 3 -7.44032 6.05111 3
4 -2 3 10.0514 9.72792 2
4 -2 4 685.508 30.6219 3
4 -2 4 708.586 37.5160 2
4 -2 5 90.7622 12.3330 3
4 -2 5 61.3447 13.7562 2
4 -2 6 883.266 39.7745 3
4 -2 6 759.465 44.2063 2
4 -2 7 65.8972 12.2407 3
4 -2 7 72.9332 15.6780 2
4 -2 8 740.217 41.1753 3
4 -2 8 703.093 45.7001 2
4 -2 9 186.651 26.0562 2
4 -2 9 217.635 23.3819 3
4 -2 10 1209.34 60.1544 3
4 -2 10 1238.83 66.6118 2
4 -2 11 292.867 33.1390 2
4 -2 12 945.589 63.9301 2
4 -2 13 224.282 30.7791 2
4 -1 -3 2194.43 62.5430 3
4 -1 -3 2307.30 52.1009 2
4 -1 -2 47.3829 7.09917 2
4 -1 -2 52.1323 8.31232 3
4 -1 -1 3036.07 74.8252 2
4 -1 -1 3020.77 73.8697 3
4 -1 0 19.8244 6.05624 3
4 -1 0 15.2319 7.48036 2
4 -1 1 2028.99 61.9293 2
4 -1 1 1968.96 55.6197 3
4 -1 2 140.631 13.4818 3
4 -1 2 143.603 17.1474 2
4 -1 3 1268.33 48.2721 3
4 -1 3 1229.91 50.7101 2
4 -1 4 87.3743 13.5033 3
4 -1 4 79.9808 14.1831 2
4 -1 5 911.004 43.8947 3
4 -1 5 930.196 46.9015 2
4 -1 6 9.29661 7.71352 3
4 -1 6 -8.11445 9.49347 2
4 -1 7 467.942 33.1673 3
4 -1 7 459.206 36.0444 2
4 -1 8 10.1265 8.16129 3
4 -1 8 -12.7444 13.2162 2
4 -1 9 135.592 21.2868 3
4 -1 9 141.210 22.8384 2
4 -1 10 26.8837 14.2750 2
4 -1 11 -9.42317 11.8122 2
4 -1 12 29.8583 13.7422 2
4 -1 13 46.7796 18.2701 2
4 0 -5 3.30128 6.08835 3
4 0 -4 668.498 33.1757 3
4 0 -4 712.143 22.1103 2
4 0 -3 395.897 18.4890 2
4 0 -3 405.771 24.2872 3
4 0 -2 1543.74 51.6355 3
4 0 -2 1534.51 45.7555 2
4 0 -1 514.977 26.8914 3
4 0 -1 560.347 26.6255 2
4 0 0 1444.32 50.7332 3
4 0 0 1548.48 51.2975 2
4 0 1 886.366 39.4301 3
4 0 1 931.652 40.5994 2
4 0 2 1603.17 59.0673 3
4 0 2 1595.93 59.0615 2
4 0 3 2665.19 87.0509 3
4 0 3 2729.00 85.4015 2
4 0 4 1768.13 69.7130 3
4 0 4 1629.39 65.4108 2
4 0 5 1800.69 72.6618 3
4 0 5 1818.55 72.1997 2
4 0 6 1167.99 57.6455 3
4 0 6 1111.53 57.1723 2
4 0 7 1649.93 72.6104 3
4 0 7 1626.87 73.5585 2
4 0 8 357.195 33.5016 3
4 0 8 343.441 33.6344 2
4 0 9 1410.51 72.3777 2
4 0 10 150.020 26.2074 2
4 0 11 713.220 54.1447 2
4 0 12 96.6916 22.4605 2
4 1 -10 1233.83 28.3980 2
4 1 -9 98.0290 5.68487 2
4 1 -8 1042.12 26.2951 2
4 1 -7 130.744 17.5140 3
4 1 -7 109.206 7.41943 2
4 1 -6 546.628 33.6510 3
4 1 -5 27.2291 6.48910 2
4 1 -5 38.1925 10.6733 3
4 1 -4 524.715 24.0895 2
4 1 -4 558.904 32.3026 3
4 1 -3 20.6749 9.18398 3
4 1 -3 10.3833 6.33563 2
4 1 -2 10.8548 7.66394 3
4 1 -2 12.0713 6.93020 2
4 1 -1 7.50807 7.20416 3
4 1 -1 7.19661 8.19151 2
4 1 0 363.071 25.4402 2
4 1 0 374.445 27.6139 3
4 1 1 20.6241 9.53405 3
4 1 1 25.3446 11.5836 2
4 1 2 682.619 39.1687 2
4 1 2 681.829 40.7156 3
4 1 3 11.6485 10.4556 3
4 1 3 21.0275 10.6299 2
4 1 4 1058.29 57.2560 3
4 1 4 995.251 52.9148 2
4 1 5 -9.13726 11.9227 3
4 1 5 4.15089 10.1937 2
4 1 6 1444.84 71.8044 3
4 1 6 1357.16 67.1240 2
4 1 7 42.3937 14.6555 2
4 1 8 1757.00 82.2158 2
4 1 9 96.1779 21.8047 2
4 1 10 1203.26 71.5888 2
4 1 11 59.1526 18.4299 2
4 2 -11 611.624 25.3427 2
4 2 -10 3.40224 3.73858 2
4 2 -9 990.928 34.0020 2
4 2 -8 30.8517 6.23585 2
4 2 -8 30.4190 11.1094 3
4 2 -7 1347.98 60.3369 3
4 2 -6 2.63290 7.28566 3
4 2 -5 1997.97 72.9399 3
4 2 -4 19.4824 8.48475 3
4 2 -3 1771.70 67.3449 3
4 2 -2 1.40982 7.58158 2
4 2 -2 1.89204 7.83057 3
4 2 -1 1009.56 46.5824 2
4 2 -1 1044.59 50.9111 3
4 2 0 14.2962 10.5108 2
4 2 0 9.06583 8.87651 3
4 2 1 678.944 40.0787 2
4 2 1 646.362 41.2950 3
4 2 2 -7.02988 10.3161 3
4 2 2 13.2649 12.5012 2
4 2 3 434.234 34.2603 2
4 2 3 451.858 38.7390 3
4 2 4 42.6162 15.5995 3
4 2 4 48.1320 14.4061 2
4 2 5 216.263 27.3413 2
4 2 6 30.6314 15.6280 2
4 2 7 17.0327 14.6814 2
4 2 8 82.6987 20.5451 2
4 2 9 27.1195 13.5942 2
4 2 10 169.399 29.2124 2
4 3 -11 107.101 12.6230 2
4 3 -10 7.60231 5.90626 2
4 3 -9 -0.15915 6.04964 2
4 3 -6 553.975 38.6196 3
4 3 -5 12.3912 8.10713 3
4 3 -4 1038.79 53.5802 3
4 3 -3 228.163 24.6406 3
4 3 -2 1134.09 57.8043 3
4 3 -1 743.470 43.9667 2
4 3 -1 710.795 45.2675 3
4 3 0 1867.84 74.6536 2
4 3 0 1688.78 75.5366 3
4 3 1 915.270 51.6655 2
4 3 1 845.948 53.1073 3
4 3 2 1773.97 76.2385 2
4 3 3 633.166 44.7044 2
4 3 4 836.715 54.0274 2
4 3 5 669.368 48.8685 2
4 3 6 550.793 46.8380 2
4 3 7 679.629 53.5079 2
4 3 8 356.908 39.5428 2
4 3 9 312.980 38.2502 2
4 4 -11 227.565 20.7891 2
4 4 -10 758.891 40.1769 2
4 4 0 481.375 40.0893 2
4 4 1 121.763 22.3454 2
4 4 2 959.106 58.4703 2
4 4 3 78.2461 20.0655 2
4 4 4 1007.22 63.8561 2
4 4 5 38.6634 16.9559 2
4 4 6 1504.99 82.8533 2
4 4 7 0.05511 12.5784 2
4 5 1 185.282 28.1391 2
4 5 2 43.1008 16.7384 2
4 5 3 -10.5149 12.9550 2
4 5 4 38.5190 17.6440 2
4 5 5 32.8467 16.6429 2
4 6 1 204.022 31.9024 2
4 6 2 769.383 59.9774 2
4 6 3 233.061 35.8930 2
5 -8 -5 221.185 33.4431 4
5 -8 -4 78.8690 22.8485 4
5 -8 -3 297.071 37.1230 4
5 -8 -2 63.1780 17.8105 4
5 -8 -1 388.377 40.8475 4
5 -8 0 45.3500 17.8548 4
5 -8 1 704.265 53.7990 4
5 -8 2 46.0569 16.6165 4
5 -8 3 678.521 52.7720 4
5 -8 4 85.5590 21.3054 4
5 -8 5 700.958 53.4898 4
5 -8 6 5.07502 10.5519 4
5 -8 7 497.583 45.0252 4
5 -8 8 33.3901 15.5838 4
5 -8 9 187.293 27.5665 4
5 -8 10 33.9323 14.2017 4
5 -8 11 114.613 23.6276 4
5 -8 12 -4.80015 10.8590 4
5 -7 -5 24.5407 16.6392 4
5 -7 -4 219.823 30.7771 4
5 -7 -3 -3.49493 12.2237 4
5 -7 -2 60.3125 17.4882 4
5 -7 -1 -20.0140 14.5517 4
5 -7 0 -2.10558 11.8863 4
5 -7 1 15.7850 14.2668 4
5 -7 2 165.066 26.3809 4
5 -7 3 5.98758 10.8816 4
5 -7 4 413.392 38.2506 4
5 -7 5 17.2541 11.9616 4
5 -7 6 598.786 46.7427 4
5 -7 7 11.5360 11.3324 4
5 -7 8 755.191 52.0165 4
5 -7 9 9.28486 12.3593 4
5 -7 10 711.404 49.8752 4
5 -7 11 73.2791 17.7615 4
5 -7 12 541.443 43.4451 4
5 -6 -4 177.360 26.3923 4
5 -6 -3 1179.71 64.9855 4
5 -6 -2 419.670 38.1989 4
5 -6 -1 472.944 40.4465 4
5 -6 0 629.739 46.1709 4
5 -6 1 276.227 29.9323 4
5 -6 2 372.923 34.8352 4
5 -6 3 13.0167 11.0819 4
5 -6 4 156.742 23.6639 4
5 -6 5 56.3275 15.1320 4
5 -6 6 -14.9312 12.6097 4
5 -6 7 62.4439 16.4778 4
5 -6 8 53.6321 14.3105 4
5 -6 9 194.871 24.6791 4
5 -6 10 141.207 20.5671 4
5 -6 11 374.217 32.9416 4
5 -5 -3 848.589 52.5101 4
5 -5 -2 243.803 28.3466 4
5 -5 -1 1639.12 73.3109 4
5 -5 0 255.623 28.4627 4
5 -5 1 1384.22 64.3415 4
5 -5 2 172.394 23.2252 4
5 -5 3 913.974 50.8109 4
5 -5 4 30.8433 13.0119 4
5 -5 5 751.302 45.1741 4
5 -5 6 53.7640 12.5196 1
5 -5 6 53.2352 13.7587 4
5 -5 7 296.611 26.8990 1
5 -5 7 309.404 28.8972 4
5 -5 7 322.901 16.2489 3
5 -5 7 309.699 14.9940 3
5 -5 8 74.8583 10.3984 3
5 -5 8 63.2429 13.4897 1
5 -5 8 62.8822 8.86077 3
5 -5 8 50.3857 13.3009 4
5 -5 9 36.4210 11.7682 1
5 -5 9 32.3568 15.0277 2
5 -5 9 37.8497 7.81535 3
5 -5 9 58.1950 13.7751 4
5 -5 10 14.6049 13.0891 2
5 -5 10 -2.65265 5.15990 3
5 -5 10 -5.18853 6.63419 4
5 -5 11 24.8896 15.1436 2
5 -5 11 -5.95888 5.82077 4
5 -5 12 -2.84300 11.7896 2
5 -4 0 308.782 28.5523 4
5 -4 1 19.5628 12.5482 4
5 -4 2 694.440 41.7487 4
5 -4 3 17.9840 10.3880 4
5 -4 4 1062.15 50.4008 4
5 -4 4 997.211 50.9176 2
5 -4 5 7.35354 10.8154 2
5 -4 5 1.05143 8.55399 4
5 -4 6 959.194 46.8057 4
5 -4 6 938.106 53.0072 2
5 -4 6 921.536 32.7693 3
5 -4 6 981.255 29.7919 3
5 -4 7 2.31032 4.12749 3
5 -4 7 -7.41279 11.6728 2
5 -4 7 5.09944 4.16360 3
5 -4 7 6.82708 8.27429 4
5 -4 8 1219.45 44.2780 3
5 -4 8 1245.46 52.6598 4
5 -4 8 1191.79 64.4691 2
5 -4 8 1247.37 48.3160 3
5 -4 9 5.80733 6.52198 3
5 -4 9 46.8663 18.6814 2
5 -4 9 13.1306 6.88522 3
5 -4 9 7.13327 5.56638 4
5 -4 10 1032.09 46.7481 3
5 -4 10 1067.18 46.4252 4
5 -4 10 1028.52 62.8108 2
5 -4 11 26.5658 14.3812 2
5 -4 11 15.5163 7.61437 3
5 -4 12 561.363 37.8236 3
5 -4 12 535.445 48.4638 2
5 -3 1 45.5603 10.6818 2
5 -3 2 57.5024 11.9059 2
5 -3 3 16.1510 10.5059 2
5 -3 3 3.64167 1.69942 3
5 -3 4 75.2856 7.53043 3
5 -3 4 75.3809 14.9735 2
5 -3 5 120.296 19.0289 2
5 -3 5 177.263 14.7058 3
5 -3 6 9.05846 6.57766 3
5 -3 6 -6.53204 11.1860 2
5 -3 7 504.842 30.3866 3
5 -3 7 491.822 39.0545 2
5 -3 8 185.382 25.8021 2
5 -3 8 177.704 19.2236 3
5 -3 9 929.555 48.0420 3
5 -3 9 882.052 56.6148 2
5 -3 10 457.265 34.7658 3
5 -3 10 394.076 39.5245 2
5 -3 11 729.624 54.2496 2
5 -3 12 402.491 41.9045 2
5 -2 -2 721.942 29.4561 2
5 -2 -1 1695.35 46.3963 3
5 -2 -1 1639.30 52.7870 2
5 -2 0 484.343 20.1874 3
5 -2 0 497.092 27.6244 2
5 -2 1 1375.03 52.9236 2
5 -2 1 1470.20 40.6013 3
5 -2 2 230.255 21.4606 2
5 -2 2 241.066 14.5231 3
5 -2 3 940.245 45.4847 2
5 -2 3 930.392 35.2852 3
5 -2 4 122.526 13.6251 3
5 -2 4 98.7050 16.1747 2
5 -2 5 198.216 23.5877 2
5 -2 5 209.424 19.6579 3
5 -2 6 -5.00962 6.32589 3
5 -2 6 17.9014 11.7515 2
5 -2 7 85.8907 14.8402 3
5 -2 7 89.2011 18.7614 2
5 -2 8 31.0792 10.9672 3
5 -2 8 48.7243 14.8948 2
5 -2 9 6.28757 8.03414 3
5 -2 9 14.8011 13.9652 2
5 -2 10 -15.5938 8.89540 3
5 -2 10 -15.2476 13.1135 2
5 -2 11 170.424 26.6683 2
5 -2 12 10.9168 15.0363 2
5 -1 -4 161.324 15.9839 3
5 -1 -4 151.548 9.46767 2
5 -1 -3 14.9897 4.79025 2
5 -1 -3 11.3103 6.21224 3
5 -1 -2 880.795 35.4196 3
5 -1 -2 836.448 32.3404 2
5 -1 -1 -4.30590 5.85129 2
5 -1 -1 -3.00171 5.37122 3
5 -1 0 823.602 36.6875 2
5 -1 0 781.084 32.9753 3
5 -1 1 66.3001 10.9123 3
5 -1 1 66.6881 13.0409 2
5 -1 2 1230.95 52.3853 2
5 -1 2 1177.82 45.9047 3
5 -1 3 37.5034 9.45433 3
5 -1 3 35.2360 10.0984 2
5 -1 4 1596.18 62.0188 3
5 -1 4 1576.87 66.1230 2
5 -1 5 17.9320 9.69989 3
5 -1 5 3.90357 9.57854 2
5 -1 6 1040.76 54.1917 3
5 -1 6 983.973 55.2358 2
5 -1 7 5.67566 10.2832 3
5 -1 7 9.34885 10.9983 2
5 -1 8 936.845 55.2513 3
5 -1 8 1000.00 59.5081 2
5 -1 9 -15.2196 12.6897 2
5 -1 10 537.746 47.3231 2
5 -1 11 31.9693 16.4048 2
5 0 -6 52.3140 10.6957 3
5 0 -5 1207.82 50.9964 3
5 0 -5 1233.70 32.5256 2
5 0 -4 93.5602 13.2286 3
5 0 -4 86.2699 9.12450 2
5 0 -3 548.242 25.5106 2
5 0 -3 562.276 31.6676 3
5 0 -2 31.1014 8.66027 3
5 0 -2 39.5695 8.67664 2
5 0 -1 92.0655 13.1959 3
5 0 -1 100.079 13.7621 2
5 0 0 110.386 14.5869 3
5 0 0 146.980 16.5151 2
5 0 1 24.1926 8.65541 3
5 0 1 10.4592 8.03288 2
5 0 2 44.7375 10.9799 3
5 0 2 64.0803 14.1224 2
5 0 3 287.072 26.4944 3
5 0 3 295.508 27.5603 2
5 0 4 37.6871 12.2840 3
5 0 4 37.6304 14.7943 2
5 0 5 766.529 49.0492 3
5 0 5 701.952 45.6553 2
5 0 6 49.1692 14.7979 3
5 0 6 43.3501 15.0965 2
5 0 7 907.180 57.2409 3
5 0 7 845.201 54.3700 2
5 0 8 137.884 22.9196 2
5 0 9 737.671 54.5424 2
5 0 10 209.985 30.5964 2
5 0 11 805.597 60.4327 2
5 1 -7 792.866 45.0864 3
5 1 -7 767.657 23.9770 2
5 1 -6 1478.72 62.0915 3
5 1 -6 1422.49 41.6515 2
5 1 -5 1424.49 59.3531 3
5 1 -5 1463.23 45.8027 2
5 1 -4 1061.27 40.0438 2
5 1 -4 1067.49 49.5921 3
5 1 -3 1519.78 52.7687 2
5 1 -3 1488.58 59.7461 3
5 1 -2 568.827 32.1922 2
5 1 -2 551.229 34.3415 3
5 1 -1 702.801 37.3734 2
5 1 -1 684.630 38.9249 3
5 1 0 405.284 29.5245 2
5 1 0 332.635 27.9957 3
5 1 1 801.770 43.6648 2
5 1 1 745.936 42.9705 3
5 1 2 88.3154 15.5702 3
5 1 2 85.5704 17.1947 2
5 1 3 249.277 27.0538 2
5 1 3 267.868 27.8461 3
5 1 4 -3.69204 12.5378 3
5 1 4 5.81484 10.1262 2
5 1 5 21.3081 11.9881 3
5 1 5 6.51271 10.2893 2
5 1 6 0.64283 9.63445 2
5 1 7 -4.39003 11.0450 2
5 1 8 49.1858 19.3788 2
5 1 9 133.701 24.2828 2
5 1 10 60.4959 20.4913 2
5 2 -10 17.8528 4.14538 2
5 2 -9 -0.59025 2.96395 2
5 2 -7 -1.87035 4.54492 2
5 2 -6 430.495 33.7541 3
5 2 -6 391.475 24.1690 2
5 2 -5 15.0974 7.13947 2
5 2 -5 18.5070 9.15640 3
5 2 -4 604.290 33.3122 2
5 2 -4 614.819 39.6146 3
5 2 -3 12.7542 9.69087 3
5 2 -3 28.1392 10.0695 2
5 2 -2 834.566 43.5607 2
5 2 -2 838.121 46.9142 3
5 2 -1 27.2462 10.7990 3
5 2 -1 51.1685 13.4459 2
5 2 0 1091.99 54.4733 2
5 2 0 1155.57 58.7843 3
5 2 1 84.6476 16.3190 3
5 2 1 91.8585 17.5027 2
5 2 2 1271.54 62.9624 2
5 2 2 1162.82 63.0443 3
5 2 3 56.6047 15.3203 2
5 2 4 705.811 49.5172 2
5 2 5 40.2803 17.5855 2
5 2 6 650.439 50.6404 2
5 2 7 48.6626 20.6472 2
5 2 8 389.874 42.1565 2
5 2 9 39.7728 20.1575 2
5 3 -4 12.8717 8.67524 2
5 3 -3 33.7947 12.0274 2
5 3 -2 13.5375 10.8704 2
5 3 -1 10.9466 12.0585 2
5 3 0 53.1902 14.3307 2
5 3 1 312.470 32.0066 2
5 3 2 15.1955 14.1113 2
5 3 3 505.076 42.7665 2
5 3 4 9.38562 13.8562 2
5 3 5 673.675 52.9599 2
5 3 6 27.0515 15.1976 2
5 3 7 961.095 66.6138 2
5 4 -2 271.815 30.1864 2
5 4 -1 515.481 41.6921 2
5 4 0 159.926 24.9335 2
5 4 1 189.294 27.1885 2
5 4 2 7.69465 12.4187 2
5 4 3 25.3567 14.6391 2
5 4 4 21.1073 14.7157 2
5 4 5 -7.94913 13.3747 2
5 5 -2 741.864 52.0972 2
5 5 -1 81.4389 19.5187 2
5 5 0 703.509 53.2692 2
5 5 1 40.8965 18.0681 2
5 5 2 365.156 40.4741 2
5 5 3 19.3346 14.3479 2
5 6 -1 154.351 28.1310 2
5 6 0 -14.0760 14.9164 2
6 -8 -2 17.1797 14.4822 4
6 -8 -1 17.8041 15.2158 4
6 -8 0 113.102 24.4509 4
6 -8 1 44.2252 19.8275 4
6 -8 2 221.902 33.5283 4
6 -8 3 158.708 27.1377 4
6 -8 4 332.514 37.0657 4
6 -8 5 245.124 32.8572 4
6 -8 6 410.379 41.4895 4
6 -8 7 175.213 28.2533 4
6 -8 8 341.320 38.0076 4
6 -8 9 184.194 29.5865 4
6 -8 10 437.815 42.1244 4
6 -7 -3 420.964 43.0656 4
6 -7 -2 560.496 48.2614 4
6 -7 -1 417.292 40.9451 4
6 -7 0 255.770 33.3461 4
6 -7 1 209.835 30.0748 4
6 -7 2 187.592 27.3570 4
6 -7 3 222.115 30.0783 4
6 -7 4 46.1010 15.4072 4
6 -7 5 42.2721 14.6668 4
6 -7 6 30.9566 14.1640 4
6 -7 7 13.5464 9.69129 4
6 -7 8 10.4650 9.88232 4
6 -7 9 46.0687 15.2221 4
6 -7 10 10.4788 8.42819 4
6 -6 -1 -6.57404 10.7433 4
6 -6 0 1754.89 82.5938 4
6 -6 1 26.5291 14.8981 4
6 -6 2 2015.50 87.6198 4
6 -6 3 14.9568 13.1817 4
6 -6 4 1470.00 72.0670 4
6 -6 5 68.4578 17.5946 4
6 -6 6 910.494 55.2811 4
6 -6 7 55.9145 16.0359 4
6 -6 8 397.725 35.2026 4
6 -6 9 81.8246 17.8419 4
6 -6 10 114.055 19.0799 4
6 -5 1 464.517 39.0877 4
6 -5 2 276.381 29.9696 4
6 -5 3 858.784 51.7528 4
6 -5 4 482.447 38.9175 4
6 -5 5 677.758 44.2788 4
6 -5 6 852.135 49.8451 4
6 -5 7 398.490 33.9450 4
6 -5 7 357.408 35.6600 2
6 -5 8 665.605 42.2016 4
6 -5 8 723.912 52.2423 2
6 -5 9 328.966 29.0990 4
6 -5 9 357.873 38.8245 2
6 -5 10 459.248 44.2304 2
6 -4 3 11.5647 9.57910 2
6 -4 4 -7.93290 9.07776 2
6 -4 5 7.23932 10.2580 2
6 -4 6 9.09432 11.5759 2
6 -4 6 1.29927 2.73280 3
6 -4 6 3.83569 2.78077 3
6 -4 7 248.531 15.2781 3
6 -4 7 240.669 28.9244 2
6 -4 8 22.2079 13.2458 2
6 -4 8 2.09056 4.42045 3
6 -4 9 419.828 40.8165 2
6 -4 10 17.8000 12.8030 2
6 -3 0 2728.66 82.8971 2
6 -3 1 84.5707 14.2290 2
6 -3 2 2335.12 47.9395 3
6 -3 2 2258.27 79.3290 2
6 -3 3 14.4856 10.2517 2
6 -3 3 6.38358 2.93007 3
6 -3 4 1067.51 55.5155 2
6 -3 4 1138.92 34.6970 3
6 -3 5 8.31600 5.00904 3
6 -3 5 1.62776 9.96484 2
6 -3 6 423.366 36.7011 2
6 -3 6 432.040 26.6184 3
6 -3 7 35.3760 10.0270 3
6 -3 7 38.2441 13.7989 2
6 -3 8 170.141 25.8758 2
6 -3 9 32.4721 13.6005 2
6 -3 10 9.32201 11.7769 2
6 -2 -2 126.585 13.3068 2
6 -2 -1 1594.76 48.6658 3
6 -2 -1 1563.44 54.8062 2
6 -2 0 495.867 23.1958 3
6 -2 0 478.059 29.5900 2
6 -2 1 1581.89 60.4534 2
6 -2 1 1578.24 47.7582 3
6 -2 2 632.414 38.1903 2
6 -2 2 641.556 28.0361 3
6 -2 3 1284.95 58.3557 2
6 -2 3 1216.00 43.9868 3
6 -2 4 602.137 40.2249 2
6 -2 4 637.890 32.3904 3
6 -2 5 789.871 49.0503 2
6 -2 5 814.235 40.3215 3
6 -2 6 451.050 38.0230 2
6 -2 6 490.189 33.6915 3
6 -2 7 655.381 47.5625 2
6 -2 7 703.054 44.0163 3
6 -2 8 516.460 39.7661 3
6 -2 8 539.996 44.4979 2
6 -2 9 470.507 43.4678 2
6 -2 10 302.430 35.8252 2
6 -1 -4 456.335 28.3171 3
6 -1 -4 451.466 20.4046 2
6 -1 -3 0.83619 4.08829 2
6 -1 -3 -4.10066 7.07361 3
6 -1 -2 273.117 20.7269 3
6 -1 -2 254.943 19.1742 2
6 -1 -1 2.33663 5.89414 2
6 -1 -1 -6.37233 6.28340 3
6 -1 0 39.8268 9.26140 3
6 -1 0 25.9535 9.21221 2
6 -1 1 11.0801 6.11472 3
6 -1 1 1.26729 7.55902 2
6 -1 2 10.4050 7.03170 3
6 -1 2 13.5145 10.3283 2
6 -1 3 337.892 29.9357 2
6 -1 3 356.078 26.5314 3
6 -1 4 8.28963 7.48370 3
6 -1 4 1.48187 9.72991 2
6 -1 5 418.211 32.9124 3
6 -1 5 469.362 38.5668 2
6 -1 6 70.3133 15.4928 3
6 -1 6 74.8137 18.3750 2
6 -1 7 355.212 34.4470 3
6 -1 7 352.823 35.2569 2
6 -1 8 141.293 25.2141 2
6 -1 9 492.351 45.7509 2
6 -1 10 76.3618 21.1071 2
6 0 -6 1331.44 58.0387 3
6 0 -6 1335.69 31.1868 2
6 0 -5 765.443 42.1103 3
6 0 -5 749.498 27.1503 2
6 0 -4 2073.97 73.3694 3
6 0 -4 2086.05 59.3931 2
6 0 -3 551.552 28.6293 2
6 0 -3 538.054 33.3905 3
6 0 -2 1774.55 60.5807 2
6 0 -2 1783.90 65.2496 3
6 0 -1 377.454 26.8285 2
6 0 -1 333.962 26.0160 3
6 0 0 1499.61 59.9222 2
6 0 0 1409.81 57.7019 3
6 0 1 145.733 17.9002 3
6 0 1 164.978 20.6529 2
6 0 2 1053.41 51.1790 3
6 0 2 1079.34 54.4766 2
6 0 3 44.8576 12.3368 3
6 0 3 42.0431 12.9611 2
6 0 4 307.267 29.3730 3
6 0 4 347.107 33.3355 2
6 0 5 10.8548 10.5006 3
6 0 5 35.0925 15.4880 2
6 0 6 158.396 24.0249 2
6 0 7 14.4469 13.8334 2
6 0 8 18.5164 13.3763 2
6 0 9 -14.8993 14.3977 2
6 1 -7 644.519 22.8665 2
6 1 -6 8.57645 4.97211 2
6 1 -5 1155.35 55.3878 3
6 1 -5 1054.66 40.7112 2
6 1 -4 69.8213 14.1671 3
6 1 -4 90.9310 12.5483 2
6 1 -3 1809.14 71.9173 3
6 1 -3 1911.09 64.8823 2
6 1 -2 75.0605 14.4370 3
6 1 -2 90.1647 15.2951 2
6 1 -1 1659.72 69.3476 3
6 1 -1 1750.08 67.2293 2
6 1 0 90.2498 16.7709 3
6 1 0 99.9315 17.0907 2
6 1 1 1522.30 67.7566 3
6 1 1 1536.66 67.0646 2
6 1 2 394.171 33.9600 3
6 1 2 422.631 35.3627 2
6 1 3 1298.41 66.4928 3
6 1 3 1456.79 69.6936 2
6 1 4 409.963 37.6644 2
6 1 5 1015.32 61.9846 2
6 1 6 330.345 37.0623 2
6 1 7 528.107 47.0638 2
6 1 8 220.826 32.6276 2
6 2 -8 357.197 20.4254 2
6 2 -7 14.6666 7.01343 2
6 2 -6 283.927 22.0247 2
6 2 -5 -16.4415 8.33425 2
6 2 -4 21.4068 9.63039 2
6 2 -3 76.1339 14.3255 2
6 2 -2 16.2748 10.6320 2
6 2 -1 115.385 19.4255 2
6 2 0 8.17495 11.4537 2
6 2 1 258.505 28.1277 2
6 2 2 153.819 24.0541 2
6 2 3 552.039 44.3292 2
6 2 4 126.106 23.6854 2
6 2 5 371.068 38.7803 2
6 2 6 204.470 31.5868 2
6 2 7 412.877 44.4439 2
6 3 -8 553.997 31.9144 2
6 3 -7 789.386 41.0464 2
6 3 -6 851.906 44.0207 2
6 3 -5 696.548 41.1690 2
6 3 -4 895.690 48.7191 2
6 3 -3 391.932 32.3739 2
6 3 -2 538.826 39.8249 2
6 3 -1 279.830 30.6905 2
6 3 0 436.852 37.9607 2
6 3 1 73.3537 18.8608 2
6 3 2 192.598 27.9487 2
6 3 3 -4.11829 11.7339 2
6 3 4 62.5660 19.1566 2
6 3 5 44.9515 18.3263 2
6 4 -7 831.913 47.6812 2
6 4 -6 24.5800 10.8626 2
6 4 -5 1550.81 70.5001 2
6 4 -4 18.3251 12.6611 2
6 4 -3 1258.54 65.8409 2
6 4 -2 15.6664 12.1431 2
6 4 -1 1262.50 69.5432 2
6 4 0 58.2794 16.8950 2
6 4 1 1117.08 68.4122 2
6 4 2 132.267 25.7655 2
6 4 3 819.604 60.9729 2
6 5 -6 15.6074 10.7886 2
6 5 -5 77.9642 19.0936 2
6 5 -4 86.2936 20.6366 2
6 5 -3 133.916 24.3218 2
6 5 -2 113.242 22.7175 2
6 5 -1 270.412 34.4718 2
6 5 0 178.694 28.8032 2
6 5 1 249.163 34.5541 2
6 6 -5 302.087 35.9970 2
6 6 -4 163.121 26.9664 2
6 6 -3 217.179 32.3414 2
7 -7 0 42.5008 16.3968 4
7 -7 1 910.239 61.8563 4
7 -7 2 70.8965 18.8984 4
7 -7 3 875.733 60.6562 4
7 -7 4 144.562 24.9949 4
7 -7 5 579.633 48.0054 4
7 -7 6 55.0852 15.5952 4
7 -7 7 349.637 36.8931 4
7 -7 8 92.9631 21.0748 4
7 -7 9 182.792 26.0758 4
7 -6 3 646.129 48.8832 4
7 -6 4 502.730 42.3353 4
7 -6 5 1071.72 62.0808 4
7 -6 6 199.023 28.0871 4
7 -6 7 1003.10 58.7374 4
7 -6 8 155.844 23.3689 4
7 -5 7 30.4739 13.8070 2
7 -5 8 433.593 42.2994 2
7 -4 3 687.689 44.9594 2
7 -4 4 4.74211 10.8538 2
7 -4 5 348.798 34.2439 2
7 -4 6 7.02349 11.2217 2
7 -4 7 218.913 29.0760 2
7 -4 8 22.9739 13.3670 2
7 -4 9 66.9490 18.6797 2
7 -3 0 805.079 42.0742 2
7 -3 1 622.491 38.5693 2
7 -3 2 692.418 21.5458 3
7 -3 2 617.957 40.2263 2
7 -3 3 741.970 46.2869 2
7 -3 3 723.389 24.2132 3
7 -3 4 722.672 46.8661 2
7 -3 5 810.404 51.9421 2
7 -3 6 625.471 47.7749 2
7 -3 7 955.774 60.7378 2
7 -3 8 348.912 38.5798 2
7 -3 9 755.205 57.2796 2
7 -2 -2 2.10303 5.74184 2
7 -2 -2 4.52181 4.95997 3
7 -2 -1 3.14272 6.71832 2
7 -2 -1 15.6754 5.43630 3
7 -2 0 25.3383 9.54866 2
7 -2 0 37.4780 7.91320 3
7 -2 1 -13.8257 9.03305 2
7 -2 1 -1.45559 3.86499 3
7 -2 2 284.378 27.0390 2
7 -2 2 295.384 20.1612 3
7 -2 3 -3.27928 4.79934 3
7 -2 3 14.2277 10.1805 2
7 -2 4 677.503 46.2248 2
7 -2 4 620.039 33.4568 3
7 -2 5 -6.78278 10.8784 2
7 -2 6 781.906 53.3755 2
7 -2 7 13.6060 11.2620 2
7 -2 8 935.851 62.8806 2
7 -1 -4 4.46516 4.76443 2
7 -1 -4 -3.82703 7.05529 3
7 -1 -3 1096.13 48.2369 3
7 -1 -3 1122.74 42.9676 2
7 -1 -2 12.9596 6.67985 2
7 -1 -2 30.8146 9.55711 3
7 -1 -1 807.498 40.8723 2
7 -1 -1 785.209 39.1128 3
7 -1 0 -9.96883 8.73654 2
7 -1 0 4.66201 5.53851 3
7 -1 1 506.140 35.9699 2
7 -1 1 515.519 31.2672 3
7 -1 2 -6.18804 6.87751 3
7 -1 2 -3.67866 9.37164 2
7 -1 3 301.926 30.5279 2
7 -1 3 272.117 24.5499 3
7 -1 4 12.0632 7.32731 3
7 -1 4 9.05721 10.6055 2
7 -1 5 78.8080 15.3875 3
7 -1 5 86.9229 18.9546 2
7 -1 6 12.5796 10.4520 2
7 -1 7 32.7440 15.2413 2
7 -1 8 46.2302 16.8378 2
7 0 -6 403.022 16.5827 2
7 0 -5 80.1256 10.0385 2
7 0 -5 83.9682 15.1300 3
7 0 -4 623.542 39.3200 3
7 0 -4 630.323 31.2913 2
7 0 -3 209.108 19.3216 2
7 0 -3 221.499 22.6469 3
7 0 -2 982.755 45.8313 2
7 0 -2 924.028 47.7862 3
7 0 -1 145.425 19.1823 3
7 0 -1 140.180 18.4156 2
7 0 0 1177.54 55.4413 2
7 0 0 998.533 51.0887 3
7 0 1 446.606 34.5587 2
7 0 1 392.833 31.3006 3
7 0 2 887.587 52.2395 2
7 0 2 869.119 48.9019 3
7 0 3 647.888 43.5150 3
7 0 3 740.393 49.0639 2
7 0 4 696.859 49.8753 2
7 0 5 534.614 45.0686 2
7 0 6 445.639 42.5241 2
7 0 7 463.886 44.7568 2
7 1 -6 163.232 14.0969 2
7 1 -5 16.0269 7.12649 2
7 1 -4 1.60600 5.42718 2
7 1 -3 21.3182 8.48342 2
7 1 -2 146.474 18.8578 2
7 1 -1 24.7767 10.2514 2
7 1 0 281.972 28.8381 2
7 1 1 84.1450 16.6655 2
7 1 2 704.374 48.9637 2
7 1 3 33.4555 13.7018 2
7 1 4 924.394 60.0795 2
7 1 5 23.2035 15.4835 2
7 1 6 893.758 63.5497 2
7 2 -6 8.53945 5.65729 2
7 2 -5 706.454 38.7144 2
7 2 -4 -0.97967 7.20956 2
7 2 -3 419.043 33.0013 2
7 2 -2 21.2174 10.5755 2
7 2 -1 226.448 26.4653 2
7 2 0 4.74099 9.49926 2
7 2 1 59.1414 16.6790 2
7 2 2 28.2381 13.0509 2
7 2 3 28.0345 14.1092 2
7 2 4 67.9780 19.5735 2
7 3 -6 466.878 33.3092 2
7 3 -5 10.3307 8.33717 2
7 3 -4 883.746 51.1060 2
7 3 -3 65.3494 15.3174 2
7 3 -2 736.088 49.5117 2
7 3 -1 120.022 22.3770 2
7 3 0 730.383 52.5267 2
7 3 1 241.337 32.0051 2
7 3 2 612.126 51.2978 2
7 3 3 245.747 33.4583 2
7 4 -5 54.5691 14.7710 2
7 4 -4 34.4488 14.0244 2
7 4 -3 113.259 21.3278 2
7 4 -2 222.705 29.6026 2
7 4 -1 175.334 27.7255 2
7 4 0 429.651 43.1119 2
7 4 1 147.962 27.4386 2
7 5 -5 217.065 29.7651 2
7 5 -4 14.2882 10.3664 2
7 5 -3 69.6707 19.0855 2
7 5 -2 -3.50986 13.2412 2
8 -4 2 590.535 41.8603 2
8 -4 3 31.0699 13.2514 2
8 -4 4 655.643 47.4376 2
8 -4 5 39.4366 15.5249 2
8 -4 6 654.295 50.5261 2
8 -4 7 1.31217 11.7881 2
8 -3 0 20.8687 9.45298 2
8 -3 1 9.18487 8.27868 2
8 -3 2 10.1084 9.11891 2
8 -3 3 157.084 23.8148 2
8 -3 4 12.9243 10.1378 2
8 -3 5 331.063 34.9844 2
8 -3 6 52.3261 15.6267 2
8 -3 7 335.401 38.2065 2
8 -2 -3 477.912 27.8074 2
8 -2 -2 503.858 30.9030 2
8 -2 -1 515.580 33.6387 2
8 -2 0 172.545 21.1019 2
8 -2 1 371.739 31.5810 2
8 -2 2 29.8452 12.7882 2
8 -2 3 116.152 20.5173 2
8 -2 4 0.70089 8.74331 2
8 -2 5 1.74637 10.3149 2
8 -2 6 30.9899 15.0321 2
8 -1 -3 34.1328 8.99912 2
8 -1 -2 513.448 32.3779 2
8 -1 -1 54.7475 12.3750 2
8 -1 0 595.762 39.1785 2
8 -1 1 49.9196 14.1145 2
8 -1 2 674.573 45.6133 2
8 -1 3 34.3857 12.9687 2
8 -1 4 462.242 40.9091 2
8 -1 5 30.3746 13.4044 2
8 -1 6 389.783 40.2796 2
8 0 -3 51.0195 10.7152 2
8 0 -2 3.04548 7.36850 2
8 0 -1 35.5115 11.5674 2
8 0 0 -2.63354 8.19083 2
8 0 1 159.600 23.7766 2
8 0 2 -4.32792 10.9727 2
8 0 3 275.563 31.7557 2
8 0 4 21.1711 14.5752 2
8 0 5 395.934 41.5075 2
8 1 -3 279.403 25.7797 2
8 1 -2 243.271 25.3401 2
8 1 -1 157.898 21.5260 2
8 1 0 67.9451 18.8750 2
8 1 1 98.6680 19.5409 2
8 1 2 29.7301 13.9774 2
8 1 3 -14.7466 13.4544 2
8 1 4 -13.2732 13.7626 2
8 2 -3 86.4925 16.1756 2
8 2 -2 580.153 42.2863 2
8 2 -1 85.3913 18.2844 2
8 2 0 474.226 41.5361 2
8 2 1 102.339 20.6494 2
8 2 2 334.853 38.1822 2
8 3 -2 5.85403 9.21785 2
8 3 -1 146.477 25.0429 2
8 3 0 20.6841 14.6980 2
8 4 -2 9.73773 6.94900 2
9 -4 3 75.2866 17.2670 2
9 -4 4 12.0723 10.8742 2
9 -4 5 116.249 23.6788 2
9 -3 1 49.3444 13.7058 2
9 -3 2 378.357 35.0719 2
9 -3 3 56.8292 16.7830 2
9 -3 4 218.566 28.9307 2
9 -3 5 35.7570 14.8251 2
9 -2 1 856.626 52.2587 2
9 -2 2 84.5543 18.6967 2
9 -2 3 697.537 50.5084 2
9 -2 4 129.687 23.5289 2
9 -1 0 9.56600 9.92201 2
9 -1 1 114.241 19.5818 2
9 -1 2 68.8142 18.1118 2
9 -1 3 133.208 24.3850 2
9 0 0 262.461 29.1924 2
9 0 1 82.4106 17.8134 2
9 0 2 120.479 22.7584 2
9 0 3 5.96245 12.3972 2
9 1 1 693.095 52.0158 2
