#------------------------------------------------------------------------------
#$Date: 2019-11-23 18:54:38 +0200 (Sat, 23 Nov 2019) $
#$Revision: 234530 $
#$URL: file:///home/coder/svn-repositories/cod/cif/7/12/51/7125116.cif $
#------------------------------------------------------------------------------
#
# This file is available in the Crystallography Open Database (COD),
# http://www.crystallography.net/
#
# All data on this site have been placed in the public domain by the
# contributors.
#
data_7125116
loop_
_publ_author_name
'Tsao, Fu An'
'Waked, Alexander E.'
'Cao, Levy'
'Hofmann, Jordan'
'Liu, Lei'
'Grimme, Stefan'
'Stephan, Douglas W.'
_publ_section_title
;
 S(vi) Lewis acids: fluorosulfoxonium cations.
;
_journal_issue                   84
_journal_name_full
'Chemical communications (Cambridge, England)'
_journal_page_first              12418
_journal_page_last               12421
_journal_paper_doi               10.1039/c6cc06929k
_journal_volume                  52
_journal_year                    2016
_chemical_formula_moiety         'C12 H8 F2 O S'
_chemical_formula_sum            'C12 H8 F2 O S'
_chemical_formula_weight         238.26
_space_group_crystal_system      triclinic
_space_group_IT_number           2
_space_group_name_Hall           '-P 1'
_space_group_name_H-M_alt        'P -1'
_symmetry_Int_Tables_number      2
_audit_creation_date             2016-08-16
_audit_creation_method
;
Olex2 1.2
(compiled 2016.02.19 svn.r3266 for OlexSys, GUI svn.r5155)
;
_audit_update_record
;
2016-08-20 deposited with the CCDC.
2016-09-09 downloaded from the CCDC.
;
_cell_angle_alpha                108.778(18)
_cell_angle_beta                 94.634(17)
_cell_angle_gamma                90.550(16)
_cell_formula_units_Z            2
_cell_length_a                   6.924(5)
_cell_length_b                   8.665(6)
_cell_length_c                   8.772(7)
_cell_measurement_reflns_used    1031
_cell_measurement_temperature    150(2)
_cell_measurement_theta_max      18.16
_cell_measurement_theta_min      2.46
_cell_volume                     496.3(6)
_computing_cell_refinement       'SAINT v8.34A (Bruker, 2013)'
_computing_data_reduction        'SAINT v8.34A (Bruker, 2013)'
_computing_molecular_graphics    'Olex2 (Dolomanov et al., 2009)'
_computing_publication_material  'Olex2 (Dolomanov et al., 2009)'
_computing_structure_refinement  'olex2.refine (Bourhis et al., 2015)'
_computing_structure_solution    'SHELXS-97 (Sheldrick, 2008)'
_diffrn_ambient_temperature      149.98
_diffrn_measured_fraction_theta_full 0.9965
_diffrn_measured_fraction_theta_max 0.9965
_diffrn_measurement_device_type  'Bruker APEX-II CCD'
_diffrn_measurement_method       '\f and \w scans'
_diffrn_radiation_type           'Mo K\a'
_diffrn_radiation_wavelength     0.71073
_diffrn_reflns_av_R_equivalents  0.2129
_diffrn_reflns_av_unetI/netI     0.1846
_diffrn_reflns_limit_h_max       9
_diffrn_reflns_limit_h_min       -8
_diffrn_reflns_limit_k_max       11
_diffrn_reflns_limit_k_min       -11
_diffrn_reflns_limit_l_max       11
_diffrn_reflns_limit_l_min       -11
_diffrn_reflns_number            19328
_diffrn_reflns_theta_full        26.0000
_diffrn_reflns_theta_max         23.25
_diffrn_reflns_theta_min         2.46
_diffrn_standards_number         0
_exptl_absorpt_coefficient_mu    0.327
_exptl_absorpt_correction_T_max  0.7456
_exptl_absorpt_correction_T_min  0.6113
_exptl_absorpt_correction_type   multi-scan
_exptl_absorpt_process_details
;
SADABS-2014/5 (Bruker,2014/5) was used for absorption correction.
wR2(int) was 0.1035 before and 0.0883 after correction.
The Ratio of minimum to maximum transmission is 0.8199.
The \l/2 correction factor is 0.00150.
;
_exptl_crystal_colour            colourless
_exptl_crystal_colour_primary    colourless
_exptl_crystal_density_diffrn    1.5941
_exptl_crystal_density_method    'not measured'
_exptl_crystal_description       plate
_exptl_crystal_F_000             244.4025
_exptl_crystal_size_max          0.1
_exptl_crystal_size_mid          0.1
_exptl_crystal_size_min          0.05
_refine_diff_density_max         1.2148
_refine_diff_density_min         -0.7871
_refine_diff_density_rms         0.2070
_refine_ls_d_res_high            0.9003
_refine_ls_d_res_low             8.2728
_refine_ls_extinction_expression Fc^*^=kFc[1+0.001xFc^2^\l^3^/sin(2\q)]^-1/4^
_refine_ls_goodness_of_fit_ref   1.1245
_refine_ls_hydrogen_treatment    mixed
_refine_ls_matrix_type           full
_refine_ls_number_constraints    16
_refine_ls_number_parameters     145
_refine_ls_number_reflns         1426
_refine_ls_number_restraints     0
_refine_ls_restrained_S_all      1.1245
_refine_ls_R_factor_all          0.1709
_refine_ls_R_factor_gt           0.1174
_refine_ls_shift/su_max          0.0004
_refine_ls_shift/su_mean         0.0000
_refine_ls_structure_factor_coef Fsqd
_refine_ls_weighting_details
'w=1/[\s^2^(Fo^2^)+(0.1098P)^2^+5.6200P] where P=(Fo^2^+2Fc^2^)/3'
_refine_ls_weighting_scheme      calc
_refine_ls_wR_factor_gt          0.2783
_refine_ls_wR_factor_ref         0.3149
_reflns_Friedel_coverage         0.0
_reflns_limit_h_max              7
_reflns_limit_h_min              -7
_reflns_limit_k_max              9
_reflns_limit_k_min              -9
_reflns_limit_l_max              9
_reflns_limit_l_min              0
_reflns_number_gt                903
_reflns_number_total             1426
_reflns_threshold_expression     I>=2u(I)
_iucr_refine_instructions_details
;
TITL AW010_0ma in P-1
CELL 0.71073 6.9244 8.6648 8.7724 108.778 94.634 90.55
ZERR 2 0.0048 0.0064 0.0068 0.018 0.017 0.016
LATT 1
SFAC C H O F S
UNIT 24 16 2 4 2

L.S. 10
PLAN  5
SIZE 0.05 0.1 0.1
TEMP -123.17
FMAP 2
HTAB 
CONF 
MORE -1
BOND $H
ACTA 52
EXTI 0.059(19)
SHEL 999 0.9
OMIT 0 3 2
OMIT 1 -2 3
OMIT 1 -5 6
OMIT 0 1 2
OMIT 2 -1 4
WGHT 0.109761 5.619981
FVAR 0.421251
REM <olex2.extras>
REM <HklSrc "%.\\AW010_0ma.hkl">
REM </olex2.extras>

S1    5     0.24452  0.20636  0.27464  11.00000  0.05878  0.02368  0.02825 =
 0.00486 -0.00458  0.00854 
O1    3     0.23803  0.28919  0.16092  11.00000  0.12298  0.05232  0.04955 =
 0.01858 -0.01417  0.01599 
F1    4     0.48049  0.18432  0.26323  11.00000  0.08617  0.05440  0.04689 =
 -0.00474  0.01988 -0.01687 
F2    4     0.00359  0.22685  0.28693  11.00000  0.08208  0.06422  0.05044 =
 0.00587 -0.00504  0.03456 
C1    1     0.21317 -0.00295  0.24831  11.00000  0.04134  0.02591  0.02727 =
 0.00513 -0.00696  0.01117 
C2    1     0.17202 -0.12740  0.10781  11.00000  0.04675  0.04031  0.02801 =
 0.00512 -0.00487  0.00215 
AFIX 43
H2    2     0.15873 -0.10969  0.00614  11.00000 -1.20000 
AFIX 0
C3    1     0.15014 -0.28413  0.12123  11.00000  0.03448  0.02549  0.06151 =
 -0.00243  0.00376  0.00113 
AFIX 43
H3    2     0.12239 -0.37528  0.02625  11.00000 -1.20000 
AFIX 0
C4    1     0.16812 -0.30736  0.26828  11.00000  0.04737  0.02191  0.06000 =
 0.01266  0.00743  0.01570 
AFIX 43
H4    2     0.15151 -0.41427  0.27395  11.00000 -1.20000 
AFIX 0
C5    1     0.21042 -0.17698  0.41034  11.00000  0.03897  0.03946  0.04988 =
 0.02375  0.00928  0.02265 
AFIX 43
H5    2     0.22283 -0.19408  0.51230  11.00000 -1.20000 
AFIX 0
C6    1     0.23400 -0.02181  0.39965  11.00000  0.03501  0.02848  0.03189 =
 0.00604  0.00043  0.00751 
C7    1     0.27426  0.13380  0.53587  11.00000  0.04177  0.03735  0.02710 =
 0.00002  0.00449  0.00283 
C8    1     0.30497  0.15825  0.69996  11.00000  0.04184  0.05842  0.03655 =
 0.01787  0.00487  0.00654 
AFIX 43
H8    2     0.30304  0.06868  0.74004  11.00000 -1.20000 
AFIX 0
C9    1     0.33943  0.32013  0.80711  11.00000  0.04392  0.08964  0.02247 =
 -0.00028  0.00385 -0.00987 
AFIX 43
H9    2     0.36037  0.33774  0.91990  11.00000 -1.20000 
AFIX 0
C10   1     0.34344  0.45179  0.75289  11.00000  0.05431  0.05293  0.04694 =
 -0.01274  0.01817 -0.01007 
AFIX 43
H10   2     0.36487  0.55864  0.82806  11.00000 -1.20000 
AFIX 0
C11   1     0.31608  0.42941  0.58728  11.00000  0.05539  0.03560  0.03969 =
 0.00532  0.00745 -0.00002 
AFIX 43
H11   2     0.31988  0.51888  0.54715  11.00000 -1.20000 
AFIX 0
C12   1     0.28350  0.27209  0.48554  11.00000  0.04103  0.03105  0.01827 =
 -0.00218 -0.00519  0.00347 
Q1    1     0.10000  0.28000  0.24000  11.00000  0.06000  1.210
Q2    1     0.40000  0.24000  0.20000  11.00000  0.06000  1.030
Q3    1     0.20000 -0.16000  0.56000  11.00000  0.06000  0.680
Q4    1     0.15000  0.16000  0.80000  11.00000  0.06000  0.650
Q5    1     0.65000  0.28000  0.28000  11.00000  0.06000  0.630
Q6    1     0.30000 -0.12000 -0.08000  11.00000  0.06000  0.620
Q7    1     0.10000  0.20000  0.32000  11.00000  0.06000  0.600
Q8    1     0.00000 -0.36000  0.12000  11.00000  0.06000  0.590

Q9    1     0.40000  0.76000  1.00000  11.00000  0.06000  0.590

Q10   1     0.45000  0.28000  0.44000  11.00000  0.06000  0.590
Q11   1     0.35000  0.00000  0.20000  11.00000  0.06000  0.570
Q12   1     0.25000  0.04000  0.44000  11.00000  0.06000  0.560
Q13   1     0.30000 -0.16000  0.36000  11.00000  0.06000  0.550
Q14   1     0.50000  0.52000  0.60000  11.00000  0.06000  0.540
Q15   1     0.25000  0.64000  0.76000  11.00000  0.06000  0.540
Q16   1     0.25000 -0.28000  0.04000  11.00000  0.06000  0.540
Q17   1     0.20000  0.00000  0.84000  11.00000  0.06000  0.540
Q18   1     0.05000 -0.04000  0.28000  11.00000  0.06000  0.530
Q19   1    -0.05000 -0.16000  0.32000  11.00000  0.06000  0.530
Q20   1     0.20000  0.20000  0.48000  11.00000  0.06000  0.530
HKLF 4

END

  REM The information below was added by Olex2.
  REM
  REM R1 = 0.1174 for 903 Fo > 4sig(Fo) and 0.1709 for all 1426 data
  REM 145 parameters refined using 0 restraints
  REM Highest difference peak 1.2148, deepest hole -0.7871
  REM Mean Shift 0.0000, Max Shift 0.0004.
  
  REM +++ Tabular Listing of Refinement Information +++
  REM R1_all = 0.1709
  REM R1_gt = 0.1174
  REM wR_ref = 0.3149
  REM GOOF = 1.1245
  REM Shift_max = 0.0004
  REM Shift_mean = 0.0000
  REM Reflections_all = 1426
  REM Reflections_gt = 903
  REM Parameters = 145
  REM Hole = -0.7871
  REM Peak = 1.2148
  REM Flack = n/a
  
  
;
_cod_data_source_file            c6cc06929k2.cif
_cod_data_source_block           AW010_0ma
_cod_database_code               7125116
_olex2_refinement_description
;
1. Fixed Uiso
 At 1.2 times of:
  All C(H) groups
2.a Aromatic/amide H refined with riding coordinates:
 C2(H2), C3(H3), C4(H4), C5(H5), C8(H8), C9(H9), C10(H10), C11(H11)
;
_olex2_submission_special_instructions 'No special instructions were received'
loop_
_space_group_symop_id
_space_group_symop_operation_xyz
1 x,y,z
2 -x,-y,-z
loop_
_atom_site_label
_atom_site_type_symbol
_atom_site_fract_x
_atom_site_fract_y
_atom_site_fract_z
_atom_site_U_iso_or_equiv
_atom_site_adp_type
_atom_site_occupancy
_atom_site_refinement_flags_posn
S1 S 0.2445(5) 0.2064(3) 0.2746(3) 0.0382(11) Uani 1.000000 .
O1 O 0.2380(16) 0.2892(11) 0.1609(11) 0.076(3) Uani 1.000000 .
F1 F 0.4805(11) 0.1843(9) 0.2632(8) 0.067(2) Uani 1.000000 .
F2 F 0.0036(11) 0.2269(9) 0.2869(9) 0.069(2) Uani 1.000000 .
C1 C 0.2132(15) -0.0029(12) 0.2483(12) 0.033(3) Uani 1.000000 .
C2 C 0.1720(16) -0.1274(13) 0.1078(13) 0.040(3) Uani 1.000000 .
H2 H 0.1587(16) -0.1097(13) 0.0061(13) 0.048(4) Uiso 1.000000 R
C3 C 0.1501(16) -0.2841(13) 0.1212(16) 0.044(3) Uani 1.000000 .
H3 H 0.1224(16) -0.3753(13) 0.0263(16) 0.053(4) Uiso 1.000000 R
C4 C 0.1681(16) -0.3074(13) 0.2683(15) 0.043(3) Uani 1.000000 .
H4 H 0.1515(16) -0.4143(13) 0.2740(15) 0.052(4) Uiso 1.000000 R
C5 C 0.2104(15) -0.1770(13) 0.4103(14) 0.040(3) Uani 1.000000 .
H5 H 0.2228(15) -0.1941(13) 0.5123(14) 0.048(4) Uiso 1.000000 R
C6 C 0.2340(15) -0.0218(12) 0.3997(12) 0.033(3) Uani 1.000000 .
C7 C 0.2743(16) 0.1338(13) 0.5359(13) 0.038(3) Uani 1.000000 .
C8 C 0.3050(16) 0.1583(15) 0.7000(14) 0.045(3) Uani 1.000000 .
H8 H 0.3030(16) 0.0687(15) 0.7400(14) 0.054(4) Uiso 1.000000 R
C9 C 0.3394(17) 0.3201(18) 0.8071(14) 0.056(4) Uani 1.000000 .
H9 H 0.3604(17) 0.3377(18) 0.9199(14) 0.068(5) Uiso 1.000000 R
C10 C 0.3434(18) 0.4518(16) 0.7529(16) 0.058(4) Uani 1.000000 .
H10 H 0.3649(18) 0.5586(16) 0.8281(16) 0.069(5) Uiso 1.000000 R
C11 C 0.3161(17) 0.4294(14) 0.5873(14) 0.045(3) Uani 1.000000 .
H11 H 0.3199(17) 0.5189(14) 0.5471(14) 0.054(4) Uiso 1.000000 R
C12 C 0.2835(15) 0.2721(12) 0.4855(12) 0.033(3) Uani 1.000000 .
loop_
_atom_site_aniso_label
_atom_site_aniso_U_11
_atom_site_aniso_U_22
_atom_site_aniso_U_33
_atom_site_aniso_U_12
_atom_site_aniso_U_13
_atom_site_aniso_U_23
S1 0.059(2) 0.0237(16) 0.0282(16) 0.0085(12) -0.0046(13) 0.0049(12)
O1 0.123(9) 0.052(6) 0.050(6) 0.016(5) -0.014(5) 0.019(5)
F1 0.086(6) 0.054(5) 0.047(5) -0.017(4) 0.020(4) -0.005(3)
F2 0.082(6) 0.064(5) 0.050(5) 0.035(4) -0.005(4) 0.006(4)
C1 0.041(7) 0.026(6) 0.027(6) 0.011(5) -0.007(5) 0.005(5)
C2 0.047(8) 0.040(7) 0.028(6) 0.002(5) -0.005(5) 0.005(5)
C3 0.034(7) 0.025(6) 0.062(9) 0.001(5) 0.004(6) -0.002(5)
C4 0.047(8) 0.022(6) 0.060(8) 0.016(5) 0.007(6) 0.013(6)
C5 0.039(7) 0.039(7) 0.050(7) 0.023(5) 0.009(5) 0.024(6)
C6 0.035(7) 0.028(6) 0.032(6) 0.008(5) 0.000(5) 0.006(5)
C7 0.042(7) 0.037(6) 0.027(6) 0.003(5) 0.004(5) 0.000(5)
C8 0.042(7) 0.058(8) 0.037(7) 0.007(6) 0.005(5) 0.018(6)
C9 0.044(8) 0.090(11) 0.022(7) -0.010(7) 0.004(5) -0.000(7)
C10 0.054(9) 0.053(9) 0.047(8) -0.010(7) 0.018(6) -0.013(7)
C11 0.055(8) 0.036(7) 0.040(7) -0.000(5) 0.007(6) 0.005(5)
C12 0.041(7) 0.031(6) 0.018(6) 0.003(5) -0.005(5) -0.002(5)
loop_
_atom_type_symbol
_atom_type_scat_dispersion_real
_atom_type_scat_dispersion_imag
_atom_type_scat_Cromer_Mann_a1
_atom_type_scat_Cromer_Mann_a2
_atom_type_scat_Cromer_Mann_a3
_atom_type_scat_Cromer_Mann_a4
_atom_type_scat_Cromer_Mann_b1
_atom_type_scat_Cromer_Mann_b2
_atom_type_scat_Cromer_Mann_b3
_atom_type_scat_Cromer_Mann_b4
_atom_type_scat_Cromer_Mann_c
_atom_type_scat_source
_atom_type_scat_dispersion_source
H 0.00000 0.00000 0.49300 0.32291 0.14019 0.04081 10.51090 26.12570 3.14236
57.79970 0.0030380000826
'International Tables Volume C Table 6.1.1.4 (pp. 500-502)'
'Henke, Gullikson and Davis, At. Data and Nucl. Data Tables, 1993, 54, 2'
C 0.00347 0.00161 2.31000 1.02000 1.58860 0.86500 20.84390 10.20750 0.56870
51.65120 0.215599998832
'International Tables Volume C Table 6.1.1.4 (pp. 500-502)'
'Henke, Gullikson and Davis, At. Data and Nucl. Data Tables, 1993, 54, 2'
S 0.12424 0.12443 6.90530 5.20340 1.43790 1.58630 1.46790 22.21510 0.25360
56.17200 0.866900026798
'International Tables Volume C Table 6.1.1.4 (pp. 500-502)'
'Henke, Gullikson and Davis, At. Data and Nucl. Data Tables, 1993, 54, 2'
O 0.01158 0.00611 3.04850 2.28680 1.54630 0.86700 13.27710 5.70110 0.32390
32.90890 0.250800013542
'International Tables Volume C Table 6.1.1.4 (pp. 500-502)'
'Henke, Gullikson and Davis, At. Data and Nucl. Data Tables, 1993, 54, 2'
F 0.01794 0.01033 3.53920 2.64120 1.51700 1.02430 10.28250 4.29440 0.26150
26.14760 0.277599990368
'International Tables Volume C Table 6.1.1.4 (pp. 500-502)'
'Henke, Gullikson and Davis, At. Data and Nucl. Data Tables, 1993, 54, 2'
loop_
_geom_angle_atom_site_label_1
_geom_angle_atom_site_label_2
_geom_angle_atom_site_label_3
_geom_angle
F1 S1 O1 90.7(5)
F2 S1 O1 89.9(5)
F2 S1 F1 179.3(4)
C1 S1 O1 130.6(5)
C1 S1 F1 90.0(4)
C1 S1 F2 89.4(4)
C12 S1 O1 132.8(5)
C12 S1 F1 89.4(4)
C12 S1 F2 90.4(4)
C12 S1 C1 96.6(5)
C2 C1 S1 127.8(9)
C6 C1 S1 107.9(7)
C6 C1 C2 124.3(10)
H2 C2 C1 121.9(7)
C3 C2 C1 116.3(10)
C3 C2 H2 121.9(7)
H3 C3 C2 119.4(7)
C4 C3 C2 121.1(10)
C4 C3 H3 119.4(6)
H4 C4 C3 119.4(6)
C5 C4 C3 121.2(10)
C5 C4 H4 119.4(7)
H5 C5 C4 120.7(7)
C6 C5 C4 118.6(10)
C6 C5 H5 120.7(7)
C5 C6 C1 118.6(10)
C7 C6 C1 114.2(9)
C7 C6 C5 127.2(10)
C8 C7 C6 129.1(11)
C12 C7 C6 113.5(9)
C12 C7 C8 117.4(10)
H8 C8 C7 120.7(7)
C9 C8 C7 118.6(11)
C9 C8 H8 120.7(8)
H9 C9 C8 119.0(8)
C10 C9 C8 122.1(11)
C10 C9 H9 119.0(7)
H10 C10 C9 119.9(7)
C11 C10 C9 120.3(11)
C11 C10 H10 119.9(7)
H11 C11 C10 121.6(7)
C12 C11 C10 116.9(11)
C12 C11 H11 121.6(7)
C7 C12 S1 107.8(7)
C11 C12 S1 127.3(9)
C11 C12 C7 124.8(10)
loop_
_geom_bond_atom_site_label_1
_geom_bond_atom_site_label_2
_geom_bond_distance
S1 O1 1.402(9)
S1 F1 1.654(8)
S1 F2 1.688(8)
S1 C1 1.762(10)
S1 C12 1.749(10)
C1 C2 1.358(14)
C1 C6 1.385(14)
C2 H2 0.9500
C2 C3 1.408(16)
C3 H3 0.9500
C3 C4 1.364(16)
C4 H4 0.9500
C4 C5 1.394(16)
C5 H5 0.9500
C5 C6 1.387(15)
C6 C7 1.492(14)
C7 C8 1.384(15)
C7 C12 1.407(15)
C8 H8 0.9500
C8 C9 1.420(17)
C9 H9 0.9500
C9 C10 1.371(19)
C10 H10 0.9500
C10 C11 1.399(17)
C11 H11 0.9500
C11 C12 1.373(14)
loop_
_refln_index_h
_refln_index_k
_refln_index_l
_refln_F_squared_meas
_refln_F_squared_sigma
-1 0 0 -0.25 1.07
-1 0 0 -0.04 1.16
-1 0 0 -0.49 1.1
-1 0 0 -1.37 0.39
-1 0 0 -3.29 1.78
-1 0 0 1.26 2.57
-1 0 0 1.36 1.74
1 0 0 -0.2 0.91
1 0 0 1 1.23
1 0 0 -0.23 1.16
1 0 0 2.25 2.44
1 0 0 -1.69 2.38
1 0 0 -1.66 1.61
1 0 0 -0.57 1.14
1 0 0 0.5 0.99
1 0 0 0.16 1.15
-2 0 0 1000 70.09
-2 0 0 827.99 69.9
-2 0 0 811.68 69.45
-2 0 0 976.77 69.51
-2 0 0 825.4 69.9
-2 0 0 911.45 69.42
2 0 0 769.91 69.49
2 0 0 955.33 69.57
2 0 0 980.93 70.11
2 0 0 974.23 69.44
2 0 0 871.7 69.93
2 0 0 794.61 69.86
2 0 0 819.72 69.5
2 0 0 814.3 69.52
2 0 0 834.28 69.76
2 0 0 908.26 69.44
-3 0 0 1.93 1.72
-3 0 0 1.55 2.2
-3 0 0 -0.35 1.55
-3 0 0 -0.7 1.95
-3 0 0 10.04 5.29
-3 0 0 6.78 4.67
3 0 0 4.96 3.22
3 0 0 -0.66 2.64
3 0 0 2.25 4.86
3 0 0 1.76 4.75
3 0 0 0.94 2.16
3 0 0 4.7 2.8
3 0 0 2.77 2.88
3 0 0 -0.36 5.32
3 0 0 1.69 2.13
3 0 0 3.98 3.62
-4 0 0 136.86 12.36
-4 0 0 145.76 12.76
4 0 0 160.06 13.09
4 0 0 146.62 12.83
4 0 0 148.04 13.01
4 0 0 147.28 12.84
4 0 0 156.44 14.13
4 0 0 159.66 13.08
4 0 0 139.27 14.55
4 0 0 150.31 14.2
4 0 0 167.35 13.8
4 0 0 169.04 13.07
-5 0 0 -1.96 1.63
5 0 0 0.24 4.77
5 0 0 1.33 2.85
5 0 0 -0.1 3.22
5 0 0 -0.61 5.95
5 0 0 1.1 3.15
5 0 0 -2.78 6.27
5 0 0 4.43 3.46
5 0 0 -1.51 3.47
6 0 0 1.67 7.31
6 0 0 4.87 4.27
6 0 0 6.7 4.2
6 0 0 0.49 3.75
6 0 0 3.54 4.99
6 0 0 -0.48 7.54
6 0 0 -6.68 5.49
7 0 0 7.89 8.29
7 0 0 6.28 8.97
7 0 0 -0.42 5.08
7 0 0 4.32 4.26
7 0 0 -3.58 4.53
8 0 0 11.06 5.16
8 0 0 3.18 8.52
8 0 0 9.29 9.94
9 0 0 0.7 9.26
9 0 0 1.5 8.96
9 -1 0 1.94 10.21
8 -1 0 2.97 9.17
8 -1 0 -5.07 5.49
8 -1 0 3.46 10.27
8 -1 0 -1.37 5.32
7 -1 0 14.38 5.65
7 -1 0 17.09 9.14
7 -1 0 9.12 6.25
7 -1 0 9.56 5.62
7 -1 0 11.73 6.92
6 -1 0 31.18 9.01
6 -1 0 28.79 6.28
6 -1 0 20.18 6.63
6 -1 0 7.79 7.67
6 -1 0 27.1 5.52
6 -1 0 19.6 5.52
-6 1 0 13.21 5.3
5 -1 0 112.43 10.3
5 -1 0 71.7 10.21
5 -1 0 108.61 10.44
5 -1 0 100.09 12.85
5 -1 0 113.76 10.59
5 -1 0 77.28 10.68
5 -1 0 109.29 12.29
5 -1 0 107.21 9.94
5 -1 0 111.13 10.69
-5 1 0 115.41 9.41
-5 1 0 110.7 10.12
4 -1 0 217.11 22.16
4 -1 0 266.54 22.15
4 -1 0 230.79 22
4 -1 0 260.62 21.98
4 -1 0 282.52 23.38
4 -1 0 252.31 22.63
4 -1 0 293.33 22.47
4 -1 0 271.02 22.01
4 -1 0 302.26 22.39
4 -1 0 278.61 23.58
-4 1 0 271.98 22.49
-4 1 0 279.29 21.46
-4 1 0 248.63 21.95
-4 1 0 308.19 22.23
3 -1 0 289.45 24.42
3 -1 0 260.09 23.52
3 -1 0 298.35 23.86
3 -1 0 280.38 24.61
3 -1 0 271.14 23.71
3 -1 0 318.26 24.4
3 -1 0 277.53 23.81
3 -1 0 286.64 24.02
3 -1 0 302.68 23.97
3 -1 0 296.48 23.78
3 -1 0 298.78 23.69
-3 1 0 308.03 23.83
-3 1 0 265.63 24.33
-3 1 0 300.13 23.38
-3 1 0 292.2 23.44
-3 1 0 294.69 23.6
-3 1 0 299.73 23.75
-3 1 0 284.43 23.68
-3 1 0 295.72 23.89
2 -1 0 803.78 58.72
2 -1 0 761.96 58.59
2 -1 0 625.18 58.62
2 -1 0 765.47 59.08
2 -1 0 682.96 58.53
2 -1 0 634.51 58.8
2 -1 0 797.16 58.62
-2 1 0 729.99 58.88
-2 1 0 724.95 58.61
-2 1 0 732.02 58.6
-2 1 0 809.23 58.65
-2 1 0 743.85 58.65
-2 1 0 816.79 58.66
-2 1 0 755.75 58.48
-2 1 0 690.15 58.51
1 -1 0 535.15 41.58
1 -1 0 529.02 41.63
1 -1 0 477.5 41.73
1 -1 0 571.33 41.8
1 -1 0 451.46 41.56
1 -1 0 550.24 41.58
1 -1 0 535.64 41.61
1 -1 0 537.38 41.56
1 -1 0 519.53 41.65
-1 1 0 530.91 41.57
-1 1 0 525.24 41.55
-1 1 0 505.41 41.81
-1 1 0 475.22 41.51
-1 1 0 520.54 41.68
-1 1 0 553.43 41.63
-1 1 0 522.43 41.64
-1 1 0 569.69 41.66
-1 1 0 519.8 41.6
-1 1 0 524.63 41.61
0 -1 0 135.87 11.36
0 -1 0 138.59 11.54
0 -1 0 146.5 11.15
0 -1 0 122.98 10.91
0 -1 0 139.03 11.03
0 -1 0 130.42 10.94
0 -1 0 133.8 11.09
0 -1 0 136.03 11.02
0 -1 0 117.2 11
0 -1 0 139.32 11.11
0 1 0 139.78 11.05
0 1 0 144.02 10.93
0 1 0 139.5 11.03
0 1 0 131.99 10.95
0 1 0 138.62 11.11
0 1 0 128.2 11.34
0 1 0 134.18 11.1
0 1 0 145.83 11.15
0 1 0 135.33 11.54
0 1 0 134.24 11.09
-1 -1 0 135.71 10.87
-1 -1 0 133.41 9.97
-1 -1 0 120.35 9.97
1 1 0 116.59 9.94
1 1 0 118.93 9.99
1 1 0 138.31 10.74
-2 -1 0 107.88 10.72
-2 -1 0 134.24 11.21
2 1 0 128.77 10.94
2 1 0 118.14 10.82
-3 -1 0 6.04 5.09
-3 -1 0 6.5 0.98
3 1 0 2.93 1.72
3 1 0 6.06 1.81
3 1 0 8.81 1.42
3 1 0 6.77 5.17
3 1 0 -8.18 4.62
3 1 0 -1.06 4.4
3 1 0 5.48 1.57
3 1 0 7.16 3.64
-4 -1 0 -0.32 5.33
-4 -1 0 1.32 1.11
-4 -1 0 0.1 1.14
4 1 0 -0.26 1.66
4 1 0 0.37 5.11
4 1 0 -7.18 5.01
4 1 0 -3.26 2.28
4 1 0 0.41 1.66
4 1 0 1.84 4.11
4 1 0 0.5 1.78
4 1 0 0.12 1.95
-5 -1 0 15.71 2.04
5 1 0 14.8 6.04
5 1 0 10.28 6.34
5 1 0 18.16 3.14
5 1 0 35.88 4.07
5 1 0 22.14 3.13
5 1 0 26.69 2.98
5 1 0 28.55 6.39
5 1 0 24.76 3.71
5 1 0 16.02 3.07
6 1 0 0.75 7.02
6 1 0 -1.19 3.55
6 1 0 7 6.09
6 1 0 -1.93 3.4
6 1 0 2.92 2.2
6 1 0 3.04 2.53
6 1 0 -2.1 5.39
6 1 0 -0.62 3.28
6 1 0 -2.2 5.79
7 1 0 -15.71 6.4
7 1 0 1.16 3.8
7 1 0 3.27 7.76
7 1 0 2.94 4.07
7 1 0 16.9 9.24
8 1 0 1.82 4.47
8 1 0 6.35 9.95
8 1 0 27.91 9.9
8 -2 0 0.43 9.71
8 -2 0 0.18 7.07
8 -2 0 -7.23 5.8
8 -2 0 0.29 6.83
7 -2 0 9.93 9.41
7 -2 0 8.64 9.12
7 -2 0 15.69 6.51
7 -2 0 19.22 7.07
7 -2 0 13.11 6.5
6 -2 0 4.85 8.37
6 -2 0 15.82 4.54
6 -2 0 7.48 4.91
6 -2 0 5.65 5.23
6 -2 0 -2.21 5.91
6 -2 0 18.8 8.38
-6 2 0 2.37 2.57
-6 2 0 -0.22 5.14
5 -2 0 9.01 4.73
5 -2 0 0.74 5.03
5 -2 0 6.38 7.17
5 -2 0 4.2 3.08
5 -2 0 9.05 5.44
5 -2 0 14.5 5.18
5 -2 0 9.29 4.78
5 -2 0 10.48 4.18
-5 2 0 11.26 4.17
-5 2 0 8.17 4.61
-5 2 0 7.32 3.66
-5 2 0 3.46 4.77
-5 2 0 1.67 2.99
4 -2 0 59.14 9.42
4 -2 0 61.23 7.07
4 -2 0 53.38 7.57
4 -2 0 51.04 8.36
4 -2 0 53.23 6.26
4 -2 0 63.56 7.7
4 -2 0 59.77 7.35
4 -2 0 76.36 7.97
4 -2 0 58.75 7.44
-4 2 0 58.25 7.23
-4 2 0 59.14 6.41
-4 2 0 60.29 7.3
-4 2 0 60.3 6.92
-4 2 0 64.29 7.05
3 -2 0 -4.72 3.73
3 -2 0 11.27 4.59
3 -2 0 2.22 2.82
3 -2 0 3.54 5.31
3 -2 0 7.39 6.05
3 -2 0 6.15 2.98
3 -2 0 3.31 4.23
3 -2 0 9.93 3.89
3 -2 0 1.11 3.7
3 -2 0 6.73 3.47
3 -2 0 8.22 3.99
-3 2 0 6.08 3.55
-3 2 0 1.51 2.86
-3 2 0 2.6 3.79
-3 2 0 4.99 3.2
-3 2 0 2.45 3.21
-3 2 0 6.17 3.44
-3 2 0 4.16 3.46
2 -2 0 17.06 3.82
2 -2 0 15.48 3.6
2 -2 0 16.99 4
2 -2 0 19.49 4.22
2 -2 0 22.33 5.04
2 -2 0 20.71 3.85
2 -2 0 14.84 5.12
2 -2 0 15.89 4.57
2 -2 0 21.59 4.07
2 -2 0 15.19 3.93
-2 2 0 16.3 4.31
-2 2 0 23.06 4.38
-2 2 0 15.91 4.07
-2 2 0 19.8 3.95
-2 2 0 18.01 3.95
-2 2 0 21.53 3.82
-2 2 0 23.84 3.92
-2 2 0 9.74 3.71
-2 2 0 12.84 5.38
-2 2 0 22.29 4.52
1 -2 0 28.83 6.31
1 -2 0 25.31 4.49
1 -2 0 31.07 4.57
1 -2 0 35.29 4.14
1 -2 0 24.77 5.24
1 -2 0 26.54 4.59
1 -2 0 24.53 4.97
1 -2 0 34.37 4.95
1 -2 0 29.34 4.39
-1 2 0 39.37 4.66
-1 2 0 35.94 4.36
-1 2 0 36.63 5.13
-1 2 0 33.39 4.6
-1 2 0 32.16 4.54
-1 2 0 27.31 5.01
-1 2 0 39.48 5.15
-1 2 0 26.69 4.59
-1 2 0 23.7 4.8
-1 2 0 32.22 5.06
0 -2 0 699.6 56.69
0 -2 0 777.43 57.02
0 -2 0 720.54 57.6
0 -2 0 732.6 56.83
0 -2 0 708.23 56.93
0 -2 0 696.58 56.87
0 -2 0 747.72 56.67
0 -2 0 697.13 57.15
0 -2 0 706.99 56.79
0 -2 0 756.21 56.92
0 2 0 694.9 56.91
0 2 0 726.43 57.65
0 2 0 697.33 56.7
0 2 0 748.55 56.94
0 2 0 615.42 57.04
0 2 0 737.34 56.94
0 2 0 712.33 56.85
0 2 0 718.29 56.65
0 2 0 693.87 56.88
0 2 0 743.57 56.93
-1 -2 0 13.38 1.82
-1 -2 0 21.39 4.55
-1 -2 0 18.5 3.59
-1 -2 0 11.83 2.63
-1 -2 0 19.32 2.66
-1 -2 0 20.3 2.61
-1 -2 0 10.62 2.52
1 2 0 14.86 4.12
1 2 0 11.09 2.64
1 2 0 18.74 2.65
1 2 0 12.45 3.47
1 2 0 13.61 2.77
1 2 0 12.81 2.95
1 2 0 13.16 5.89
1 2 0 14.05 2.51
1 2 0 14.11 2.83
1 2 0 18.1 3.53
-2 -2 0 2.04 3.69
-2 -2 0 -5.13 4.51
-2 -2 0 3.81 1.17
-2 -2 0 2.57 1.15
2 2 0 1.3 1.48
2 2 0 3.39 1.17
2 2 0 1.08 1.43
2 2 0 7.79 3.3
2 2 0 0.24 3.63
2 2 0 1.73 1.4
2 2 0 -11.23 3.27
2 2 0 -5.64 5.28
-3 -2 0 18.16 4.39
-3 -2 0 6.84 3.88
3 2 0 6.78 0.82
3 2 0 7.47 3.67
3 2 0 -10.89 5.12
3 2 0 3.13 0.93
-4 -2 0 34.68 6.94
4 2 0 35.79 2.99
4 2 0 21.79 6.82
4 2 0 35.66 7.77
4 2 0 42.69 7.69
4 2 0 30.24 3.14
-5 -2 0 13.45 6.71
5 2 0 18.6 6.96
5 2 0 12.01 2.07
5 2 0 8.98 6.84
5 2 0 12.36 6.3
5 2 0 15.47 1.93
5 2 0 9.65 2.34
5 2 0 3.2 6.42
5 2 0 9.4 1.75
6 2 0 5.21 2.24
6 2 0 4.53 2.58
6 2 0 14.79 7.68
6 2 0 9.92 7.55
6 2 0 5.16 6.11
6 2 0 5.96 7.27
7 2 0 -0.89 7.25
7 2 0 1.75 2.33
7 2 0 -1.28 2.67
7 2 0 10.85 6.91
7 2 0 -1.45 8.09
7 2 0 0.69 7.78
8 2 0 9.39 9.02
8 2 0 3.61 2.66
8 2 0 6.94 2.26
8 2 0 14.11 10.2
8 -3 0 5.03 7.74
8 -3 0 6.12 10.14
8 -3 0 0.02 6.38
8 -3 0 13.62 7.92
8 -3 0 10.72 10.58
7 -3 0 2.63 7.29
7 -3 0 12.79 7.64
7 -3 0 9.19 6.4
7 -3 0 1.46 10.18
7 -3 0 9.56 9.16
6 -3 0 4.71 5.85
6 -3 0 3.99 3.92
6 -3 0 0.65 5.62
6 -3 0 5.76 6.82
6 -3 0 -3.26 7.65
6 -3 0 -1.42 8.91
-6 3 0 -4.28 4.49
-6 3 0 5.56 6.12
5 -3 0 22.63 8.35
5 -3 0 2.61 6.05
5 -3 0 7.01 5.68
5 -3 0 18.76 5.51
5 -3 0 11.02 3.02
5 -3 0 4.58 5.48
5 -3 0 6.29 7.28
5 -3 0 9.91 4.02
-5 3 0 20.55 5.44
-5 3 0 11.34 4.59
-5 3 0 8.75 5.33
-5 3 0 10.11 4.84
4 -3 0 9.2 6.38
4 -3 0 20.25 5.35
4 -3 0 18.13 3.75
4 -3 0 13.14 4.03
4 -3 0 30.03 5.17
4 -3 0 18.54 5.14
4 -3 0 11.01 5.49
4 -3 0 23.69 5.92
4 -3 0 5.15 6.87
-4 3 0 16.44 4.72
-4 3 0 14.08 5.14
-4 3 0 8.42 5.04
3 -3 0 5.69 3.77
3 -3 0 12.02 4.5
3 -3 0 9.54 5.09
3 -3 0 7.19 3.95
3 -3 0 7.73 4.26
3 -3 0 14.93 5.16
3 -3 0 11.64 4.54
3 -3 0 4.04 5.3
3 -3 0 12.35 3.7
-3 3 0 11.13 4.75
-3 3 0 9.29 3.66
-3 3 0 10.83 4.22
-3 3 0 8.66 4.75
-3 3 0 10.6 4.57
-3 3 0 6.99 4.3
2 -3 0 8.89 4.13
2 -3 0 13.38 5.32
2 -3 0 5.21 4.74
2 -3 0 9 4.91
2 -3 0 16.45 4.3
2 -3 0 10.98 3.92
2 -3 0 11.25 4.45
2 -3 0 8.92 4.02
2 -3 0 6.47 4.01
-2 3 0 11.4 3.92
-2 3 0 4.68 4.35
-2 3 0 11.06 4.83
-2 3 0 8.76 4.37
-2 3 0 9.76 4.4
-2 3 0 9.06 3.66
-2 3 0 16.52 4.74
-2 3 0 12.95 3.65
-2 3 0 7.98 4.07
-2 3 0 5.38 4.14
1 -3 0 0.56 3.41
1 -3 0 3.57 3.09
1 -3 0 1.11 3.65
1 -3 0 2.26 3.74
1 -3 0 -2.01 3.89
1 -3 0 2.75 3.54
1 -3 0 5.43 3.51
1 -3 0 1.75 3.16
1 -3 0 5.38 4.79
1 -3 0 1.29 3.44
1 -3 0 -0.75 5.78
-1 3 0 5.71 4.37
-1 3 0 1.15 3.66
-1 3 0 3.46 3.12
-1 3 0 6.03 2.87
-1 3 0 6.88 4.17
-1 3 0 2.24 3.95
-1 3 0 0.8 4.65
-1 3 0 4.51 3.03
-1 3 0 4.9 3.29
0 -3 0 63.92 7.37
0 -3 0 70.84 6.85
0 -3 0 76.44 8.71
0 -3 0 64.46 6.33
0 -3 0 79.78 7.58
0 -3 0 61.05 7.81
0 -3 0 53.76 6.44
0 -3 0 66.8 6.59
0 -3 0 74.41 7.23
0 -3 0 63.14 7.01
0 3 0 82.64 8.71
0 3 0 66.72 6.53
0 3 0 64.1 6.78
0 3 0 63.73 6.32
0 3 0 77.38 7.52
0 3 0 76.71 7.38
0 3 0 59.73 7.98
0 3 0 71.51 7.26
0 3 0 71.4 7.38
0 3 0 62.85 7.04
0 3 0 67.18 7.01
-1 -3 0 108.79 8.56
-1 -3 0 93.79 10.26
-1 -3 0 99 8.68
-1 -3 0 101.32 8.59
-1 -3 0 72.52 8.57
-1 -3 0 107.91 8.9
-1 -3 0 104.83 9.26
-1 -3 0 103.61 8.96
1 3 0 107.74 8.87
1 3 0 93.42 11.77
1 3 0 83.94 9.1
1 3 0 87.33 8.81
1 3 0 85.37 8.78
1 3 0 116.19 9.21
1 3 0 108.33 8.98
1 3 0 106.22 9.33
1 3 0 103.88 8.84
1 3 0 94.48 8.51
-2 -3 0 0.96 4.15
-2 -3 0 3.26 1.52
-2 -3 0 1.4 1.26
-2 -3 0 2.92 4.77
-2 -3 0 -0.24 1.56
2 3 0 -3.85 2.66
2 3 0 2.8 3.9
2 3 0 4.72 2.15
2 3 0 2.36 2.2
2 3 0 -1.64 2.36
2 3 0 6.9 3.36
2 3 0 1.12 2.54
2 3 0 2.92 6.42
2 3 0 2.47 2.11
-3 -3 0 29.91 5.87
-3 -3 0 36.99 6.82
3 3 0 32.25 7.87
3 3 0 34.2 3.56
3 3 0 17.21 5.56
3 3 0 28.41 2.94
3 3 0 34.8 2.85
3 3 0 33.64 3.39
3 3 0 22.78 2.89
-4 -3 0 50.92 7.53
-4 -3 0 63.18 7.66
4 3 0 35.87 8.03
4 3 0 58.39 9.56
4 3 0 37.29 3.54
4 3 0 38.05 3.48
-5 -3 0 35.21 8.07
5 3 0 16.03 7.67
5 3 0 33.95 8.55
5 3 0 44.45 9.19
5 3 0 25.74 8.61
6 3 0 -3.11 7.02
6 3 0 6.04 7.37
6 3 0 -12.55 6.2
6 3 0 -7.77 8.02
6 3 0 11.06 7.64
7 3 0 -1.92 8.36
7 3 0 -0.79 9.63
7 3 0 -6.29 8.11
7 3 0 -6.08 8.4
7 3 0 18.84 8.76
8 3 0 7.05 9.91
8 3 0 3.71 8
8 3 0 -5.19 11.82
8 -4 0 -1.94 8.91
8 -4 0 1.64 10.89
8 -4 0 7.19 8.51
8 -4 0 11.66 10
8 -4 0 -0.83 6.93
7 -4 0 -1.17 6.88
7 -4 0 -2.8 7.34
7 -4 0 7.94 6.88
7 -4 0 -4.56 9.91
7 -4 0 -10.94 8.43
6 -4 0 -10.78 5.6
6 -4 0 5.25 6.74
6 -4 0 1.75 6.03
6 -4 0 -12.69 6.15
6 -4 0 5.74 9.29
-6 4 0 4.91 6.11
-6 4 0 -3.05 6.34
5 -4 0 2.88 6.09
5 -4 0 -1.6 4.36
5 -4 0 1.98 5.93
5 -4 0 2.71 8.15
5 -4 0 -0.71 5.13
-5 4 0 -2.52 5.65
-5 4 0 2.76 3.94
-5 4 0 2.05 5.72
4 -4 0 33.5 5.97
4 -4 0 28.1 6.91
4 -4 0 22.94 6.52
4 -4 0 34.27 5.07
4 -4 0 27.18 6.72
4 -4 0 25.42 7.02
4 -4 0 22.56 5.73
-4 4 0 12.23 5.9
-4 4 0 30.17 6.45
-4 4 0 35.66 6.43
-4 4 0 19.27 5.73
-4 4 0 21.11 6.3
3 -4 0 8.98 5.56
3 -4 0 15.05 5.53
3 -4 0 5.06 4.66
3 -4 0 13.49 4.69
3 -4 0 10.18 4.94
3 -4 0 -0.91 6.86
3 -4 0 13.28 5.22
3 -4 0 17.59 4.46
-3 4 0 7.69 5.48
-3 4 0 22.48 4.99
-3 4 0 12.7 4.82
-3 4 0 14.64 5.52
-3 4 0 9.44 5.15
2 -4 0 7.88 4.36
2 -4 0 11.02 6.73
2 -4 0 3.21 5
2 -4 0 12.68 4.14
2 -4 0 7.99 5.51
2 -4 0 10.33 4.22
2 -4 0 10.75 4.63
2 -4 0 11.03 3.81
2 -4 0 9.88 4.29
-2 4 0 13.65 4.49
-2 4 0 10.25 5.15
-2 4 0 8.56 5.2
-2 4 0 16.3 4.43
-2 4 0 6.22 4.7
-2 4 0 4.14 4.68
-2 4 0 14.44 4.44
1 -4 0 40.91 5.56
1 -4 0 28.31 5.87
1 -4 0 21.66 5.32
1 -4 0 27.71 6.57
1 -4 0 31.58 6.58
1 -4 0 30.9 6.28
1 -4 0 34.2 5.05
1 -4 0 27.21 5.4
1 -4 0 38.55 6.4
1 -4 0 40.68 5.77
-1 4 0 35.79 5.41
-1 4 0 32.6 5.44
-1 4 0 37.97 7.26
-1 4 0 27.79 5.12
-1 4 0 36.06 5.02
-1 4 0 37.66 5.55
-1 4 0 46.02 5.26
0 -4 0 107.58 10.22
0 -4 0 108.97 9.5
0 -4 0 102.08 9.39
0 -4 0 101.66 9.11
0 -4 0 96.75 10.06
0 -4 0 103.78 8.94
0 -4 0 92.55 11.36
0 -4 0 98.78 9.61
0 4 0 85.28 9.43
0 4 0 96.13 9.01
0 4 0 73.88 9.5
0 4 0 89.66 11.86
0 4 0 100.99 9.82
0 4 0 95.44 9.81
0 4 0 99.4 9.6
0 4 0 96.95 9.78
0 4 0 104.37 8.77
0 4 0 111.15 12.11
0 4 0 96.29 9.57
-1 -4 0 99.45 11.5
-1 -4 0 123.63 10.91
-1 -4 0 132.56 10.75
-1 -4 0 122.88 10.31
-1 -4 0 109.29 10.11
-1 -4 0 124.41 10.37
-1 -4 0 128.05 10.36
1 4 0 136.47 10.72
1 4 0 104.45 10.43
1 4 0 88.46 10.46
1 4 0 124.01 10.72
1 4 0 110.55 10.9
1 4 0 120.08 10.28
1 4 0 111.54 13.59
1 4 0 125.39 10.79
1 4 0 108.81 10.1
-2 -4 0 8.14 3.18
-2 -4 0 7.91 2.56
-2 -4 0 5.44 5.44
-2 -4 0 2.68 4.27
2 4 0 10.39 3.22
2 4 0 6.54 4.2
2 4 0 15.15 3.64
2 4 0 9.9 7.32
2 4 0 4.78 3.55
2 4 0 12.66 3.96
2 4 0 5.68 2.86
2 4 0 10.94 3.16
2 4 0 12.55 3.02
-3 -4 0 7.67 2.36
-3 -4 0 6.32 4.76
-3 -4 0 6.02 2.07
-3 -4 0 0.03 4.23
3 4 0 5.47 2.65
3 4 0 -0.84 5.08
3 4 0 4.85 3.28
3 4 0 6.05 2.84
3 4 0 5.83 2.5
3 4 0 7.46 2.93
3 4 0 10.25 2.33
3 4 0 9.31 5.16
-4 -4 0 9.64 6.95
-4 -4 0 6.47 5.91
4 4 0 2.88 2.36
4 4 0 4.55 2.51
4 4 0 8.99 2.09
4 4 0 16.01 6.55
4 4 0 11.1 2.22
4 4 0 7.9 5.79
-5 -4 0 14.3 7.45
-5 -4 0 13.31 7.52
5 4 0 6.73 8.35
5 4 0 7 7.97
5 4 0 4.34 8.18
-6 -4 0 5 7.78
6 4 0 -1.23 7.63
6 4 0 -4.4 7.9
6 4 0 -9.41 7.25
6 4 0 -2.22 6.71
6 4 0 -2.32 7.43
7 4 0 -16.57 7
7 4 0 3.32 7.96
7 4 0 -22.56 8.12
7 4 0 1.83 7.82
7 4 0 13.01 8.11
8 4 0 -28.08 11.02
8 4 0 1.46 9.09
8 4 0 -13.15 7.89
8 4 0 -26.58 8.36
8 -5 0 11.12 9.39
8 -5 0 10.84 8.58
8 -5 0 11.51 8.5
8 -5 0 4.95 12.31
8 -5 0 4.98 9.2
7 -5 0 15.37 9.06
7 -5 0 -5.45 7.22
7 -5 0 10.3 7.67
7 -5 0 24.33 12.2
7 -5 0 17.91 8.85
-7 5 0 -2.43 6.5
6 -5 0 -2.66 7.18
6 -5 0 6.64 7.69
6 -5 0 6.13 7.07
6 -5 0 -4.06 7.08
6 -5 0 7.04 8.26
-6 5 0 7.76 6.28
-6 5 0 -5.6 6.91
5 -5 0 6.69 6.87
5 -5 0 9.95 7.3
5 -5 0 -1.85 5.48
5 -5 0 11.37 6.82
5 -5 0 0.85 4.76
-5 5 0 6.01 4.76
-5 5 0 10.69 5.96
-5 5 0 -0.82 6.27
4 -5 0 48.49 7.99
4 -5 0 64.09 9.39
4 -5 0 42.88 8.19
4 -5 0 37.24 10.13
4 -5 0 72.66 7.71
4 -5 0 36.49 8.56
4 -5 0 71.13 9.56
-4 5 0 59.61 8.87
-4 5 0 54.74 8
-4 5 0 39.23 8.72
-4 5 0 52.01 8.82
3 -5 0 1.28 4.26
3 -5 0 9 6.16
3 -5 0 9.33 7.51
3 -5 0 6.48 4.63
3 -5 0 2.34 5.71
3 -5 0 0.06 4.53
3 -5 0 9.63 4.12
3 -5 0 9.94 4.65
-3 5 0 1.33 4.66
-3 5 0 -1.62 4.04
-3 5 0 5.43 6.2
-3 5 0 3.77 4.99
2 -5 0 11.28 5.12
2 -5 0 5.37 5.66
2 -5 0 6.08 5.51
2 -5 0 21.06 5.75
2 -5 0 8.98 5.56
2 -5 0 11.97 4.44
2 -5 0 5.84 4.55
2 -5 0 16.01 4.98
-2 5 0 3.74 5.76
-2 5 0 17.42 5.9
-2 5 0 15.05 5.29
-2 5 0 18.72 5.46
-2 5 0 20.67 4.53
-2 5 0 11.25 4.79
1 -5 0 -11.97 4.72
1 -5 0 0.22 3.66
1 -5 0 9.88 5.56
1 -5 0 0.55 3.91
1 -5 0 -2.62 5.07
1 -5 0 -0.65 4.31
1 -5 0 1.39 4.07
-1 5 0 2.52 6.25
-1 5 0 0.45 4.59
-1 5 0 6.49 5.2
-1 5 0 7.45 3.64
-1 5 0 5.88 4.4
-1 5 0 -1.09 3.33
0 -5 0 48.28 6.34
0 -5 0 47.21 6.98
0 -5 0 51.73 5.92
0 -5 0 56.08 7.65
0 -5 0 51.68 5.96
0 -5 0 47.26 6.61
0 -5 0 53.4 6.54
0 5 0 55.69 7.52
0 5 0 52.16 7.27
0 5 0 56.33 6.93
0 5 0 55.71 9.78
0 5 0 51.05 6.64
0 5 0 56.33 7.12
0 5 0 52.5 5.61
-1 -5 0 33.1 5.59
-1 -5 0 27.19 6.5
-1 -5 0 23.19 4.09
-1 -5 0 31.86 4.63
-1 -5 0 42.58 5.09
-1 -5 0 15.81 3.9
-1 -5 0 23.66 4.45
1 5 0 28.69 4.55
1 5 0 25.23 5.59
1 5 0 24.53 6.74
1 5 0 28.09 5.49
1 5 0 28.89 4.91
1 5 0 21.14 4.46
1 5 0 30.5 5.66
-2 -5 0 3.04 2.98
-2 -5 0 7.72 5.73
-2 -5 0 3.32 4.43
-2 -5 0 5.63 3.67
2 5 0 3.51 4.18
2 5 0 -2.49 3.08
2 5 0 5.17 7.34
2 5 0 -9.31 2.76
2 5 0 2.87 4.08
2 5 0 0.25 3.53
2 5 0 -1.63 3.14
-3 -5 0 -5.42 5.89
-3 -5 0 -2.65 2.93
-3 -5 0 -2.29 4.77
3 5 0 2.72 3.84
3 5 0 -0.02 5.67
3 5 0 -2.01 3.98
3 5 0 -10.78 5.03
3 5 0 3.51 3.03
3 5 0 4.15 3.28
3 5 0 -2.99 3.29
3 5 0 -1.17 2.69
-4 -5 0 53.23 8.57
-4 -5 0 68.83 10.34
4 5 0 38.58 8.34
4 5 0 46.63 5.87
4 5 0 47.38 5.66
4 5 0 44.34 9.85
4 5 0 45.83 5.7
4 5 0 53.58 5.02
-5 -5 0 11.65 7.46
-5 -5 0 -1.53 7.57
5 5 0 -0.62 8.4
5 5 0 3.55 2.68
5 5 0 4.79 2.32
5 5 0 9.89 7.97
5 5 0 8.12 9.43
-6 -5 0 -0.11 8.08
6 5 0 11.79 9.63
6 5 0 12.55 9.88
6 5 0 -1.42 7.66
6 5 0 -11.46 7.3
6 5 0 22.62 8.56
7 5 0 10.32 9.44
7 5 0 -6.61 6.72
7 5 0 -10.09 7.55
7 5 0 2.56 10.19
7 5 0 -2.27 10.31
7 -6 0 -1.49 7.62
7 -6 0 -6.05 8.23
7 -6 0 4 9.07
7 -6 0 8.57 9.94
7 -6 0 -0.55 11.91
-7 6 0 4.33 7.49
6 -6 0 -7.42 7.64
6 -6 0 10.32 7.41
6 -6 0 3.02 8.1
6 -6 0 1.92 7.32
6 -6 0 -12.55 7.37
-6 6 0 -6.38 8.07
-6 6 0 -6.6 6.3
5 -6 0 -13.88 6.91
5 -6 0 1.44 6.12
5 -6 0 0.63 7.69
5 -6 0 4.42 6.49
5 -6 0 -7.02 6.74
-5 6 0 -4.94 7.1
-5 6 0 10.88 7.43
4 -6 0 -7.57 6.89
4 -6 0 3.53 6.68
4 -6 0 17.39 5.39
4 -6 0 -6.8 5.45
4 -6 0 2.46 5.68
4 -6 0 -11.71 6.54
-4 6 0 -7.89 7.47
-4 6 0 3.74 6.27
-4 6 0 -0.82 6.74
-4 6 0 4.85 6.33
3 -6 0 23.49 7.63
3 -6 0 18.9 6.77
3 -6 0 14.02 5.87
3 -6 0 20.14 6.41
3 -6 0 27.41 5.66
3 -6 0 17.94 9.24
-3 6 0 23.28 6.88
-3 6 0 15.19 5.95
-3 6 0 16.62 7.1
-3 6 0 25.73 7.67
2 -6 0 1.33 4.56
2 -6 0 1.81 4.8
2 -6 0 -1.36 4.6
2 -6 0 6.61 4.84
2 -6 0 7.44 8.05
2 -6 0 1.91 4.87
-2 6 0 5.53 5.73
-2 6 0 -0.47 3.65
-2 6 0 3.78 5.32
-2 6 0 -3.5 6.53
-2 6 0 -3.24 5.71
1 -6 0 11.77 6.41
1 -6 0 2.74 5.61
1 -6 0 9.24 5.4
1 -6 0 22.45 6.71
1 -6 0 3.57 4.16
1 -6 0 7.36 4.76
1 -6 0 3.08 4.74
-1 6 0 16.52 5.01
-1 6 0 4.68 4.01
-1 6 0 6.66 5.19
-1 6 0 1.67 6.73
-1 6 0 21.6 4.44
-1 6 0 16.8 6.17
0 -6 0 22.3 5.07
0 -6 0 20.27 4.3
0 -6 0 26.59 6.79
0 -6 0 32.06 4.9
0 -6 0 31.74 6.89
0 -6 0 34 6.22
0 6 0 30.08 6.3
0 6 0 37.37 5.91
0 6 0 30.57 5.95
0 6 0 38.49 6.58
0 6 0 24.92 7.36
0 6 0 27.37 4.36
-1 -6 0 14.84 5.85
-1 -6 0 14.86 6.37
-1 -6 0 15.44 4.46
-1 -6 0 10.92 4.05
-1 -6 0 16.04 4.76
-1 -6 0 8.79 3.48
-1 -6 0 8.87 4
1 6 0 10.26 3.42
1 6 0 20.34 5.91
1 6 0 16.96 5.19
1 6 0 14.86 8.22
1 6 0 7.48 4.59
1 6 0 17.05 4.41
1 6 0 21.49 5.48
1 6 0 17.86 4.55
-2 -6 0 46.08 6.33
-2 -6 0 32.46 7.92
-2 -6 0 29.61 6.15
-2 -6 0 30.34 4.96
-2 -6 0 27.42 3.25
2 6 0 43.32 6.2
2 6 0 49.35 6.85
2 6 0 25.07 5.61
2 6 0 31.57 9.74
2 6 0 23.87 4.61
2 6 0 38.1 6.72
2 6 0 45.5 6.24
2 6 0 36.04 5.49
-3 -6 0 8.5 7.23
-3 -6 0 5.78 6.09
-3 -6 0 3.27 5.91
3 6 0 -1.88 3.79
3 6 0 11.38 4.47
3 6 0 14.6 5.1
3 6 0 10.04 9.19
3 6 0 4.03 4.87
3 6 0 -8.39 5.32
-4 -6 0 28.35 9.01
-4 -6 0 40.41 8.2
4 6 0 31.99 5.53
4 6 0 21.56 4.61
4 6 0 34.37 5.24
4 6 0 17.43 10.18
4 6 0 16.79 7.67
-5 -6 0 -3.73 6.12
-5 -6 0 10.02 7.52
5 6 0 0.59 7.22
5 6 0 6.99 7.99
5 6 0 0.19 3.24
5 6 0 -3.01 3.51
6 6 0 3.39 9.81
6 6 0 -1.36 9.61
6 6 0 5.56 6.62
7 6 0 -0.75 9.65
7 6 0 -13.24 7.7
7 6 0 6.79 9.79
7 -7 0 -3.12 9.26
7 -7 0 -7.7 8.68
7 -7 0 5.95 8.83
7 -7 0 7.68 8.36
-7 7 0 -10.3 7.85
6 -7 0 7.45 11.98
6 -7 0 -7.07 8.42
6 -7 0 -5.15 8.72
6 -7 0 1.2 7.56
6 -7 0 -6.35 6.89
-6 7 0 5.75 8.9
-6 7 0 4.06 8.35
5 -7 0 13.47 8.9
5 -7 0 6.32 6.74
5 -7 0 0.12 6.21
5 -7 0 -6.9 6.13
5 -7 0 -5.62 7.12
-5 7 0 7.51 6.96
-5 7 0 -9.29 7.46
4 -7 0 -2.35 7.54
4 -7 0 5.07 5.92
4 -7 0 11.13 6.65
4 -7 0 21.99 6.87
4 -7 0 2.42 9.76
4 -7 0 8.17 5.8
-4 7 0 22.16 7.68
-4 7 0 -2.07 8.85
-4 7 0 15.37 6.58
3 -7 0 8.57 7.69
3 -7 0 1.32 6.69
3 -7 0 -2.73 5.64
3 -7 0 1.21 5.5
3 -7 0 6.28 6.2
3 -7 0 -2.86 6.05
-3 7 0 -3.01 7.03
-3 7 0 -1.78 6.36
-3 7 0 6.93 5.82
-3 7 0 2.39 7.31
2 -7 0 37.33 8.3
2 -7 0 40.76 8.55
2 -7 0 24.07 10.07
2 -7 0 35.36 8.89
2 -7 0 35.18 7.39
2 -7 0 37.89 6.93
-2 7 0 33.4 7.41
-2 7 0 47.21 10.27
-2 7 0 42.5 7.37
-2 7 0 39.84 8.78
1 -7 0 7.53 4.81
1 -7 0 4.91 6.09
1 -7 0 -8.62 6.06
1 -7 0 4.98 4.75
1 -7 0 1.13 5.8
1 -7 0 8.33 6.16
-1 7 0 1.29 5.79
-1 7 0 -1.95 5.02
-1 7 0 2.14 7.68
-1 7 0 4.34 6.32
0 -7 0 3.58 5.02
0 -7 0 15.53 6.21
0 -7 0 15.21 6.83
0 -7 0 15.63 6.76
0 -7 0 11.81 4.41
0 7 0 14.2 9.14
0 7 0 21.41 6.91
0 7 0 8.11 5.58
0 7 0 16.19 6.35
-1 -7 0 20.8 7.27
-1 -7 0 13.82 4.58
-1 -7 0 16.89 6.29
-1 -7 0 5.54 4.76
1 7 0 11.76 9.27
1 7 0 11.74 5.58
1 7 0 16.51 6.63
1 7 0 14.99 5.62
-2 -7 0 6.96 5.44
-2 -7 0 6.57 5.17
-2 -7 0 -1.87 5.15
2 7 0 6.82 7.05
2 7 0 5.29 6.31
2 7 0 5.74 6.27
2 7 0 2.09 4.53
2 7 0 0.43 5.37
-3 -7 0 -7.71 5.62
-3 -7 0 1.21 7.58
3 7 0 1.5 9.43
3 7 0 5.86 5.53
3 7 0 1.5 4.83
3 7 0 0.3 5.31
-4 -7 0 -11.3 7.58
-4 -7 0 16.46 7.67
4 7 0 6.1 4.86
4 7 0 5.27 4.76
4 7 0 10.14 10.35
-5 -7 0 2.26 8.8
-5 -7 0 15.55 7.71
5 7 0 0.91 4.41
5 7 0 -4.01 10.34
6 7 0 9.64 11.29
6 7 0 19.36 11.22
6 7 0 -5.59 3.12
6 -8 0 -6.67 9.81
6 -8 0 -8.51 12.13
6 -8 0 12.45 8.19
6 -8 0 -5.77 7.08
-6 8 0 30.15 10.5
-6 8 0 14.97 8.71
5 -8 0 -0.86 8.82
5 -8 0 -5.05 11.21
5 -8 0 15.93 7.55
5 -8 0 1.88 6.94
-5 8 0 1.79 7.9
-5 8 0 0.79 8.35
4 -8 0 -18.36 9.81
4 -8 0 -4.94 5.82
4 -8 0 -10.1 6.27
4 -8 0 24.02 8.97
-4 8 0 -3.38 7.69
-4 8 0 6.24 6.78
-4 8 0 -17.3 9.12
3 -8 0 11.06 6.5
3 -8 0 13.24 8.79
3 -8 0 13.9 6.93
3 -8 0 3.61 10.29
3 -8 0 10.61 7.34
-3 8 0 12.67 8.77
-3 8 0 21.72 8.86
-3 8 0 15.52 7
-3 8 0 20.66 7.95
2 -8 0 -12.48 5.53
2 -8 0 15.95 8.21
2 -8 0 -9.34 8.73
2 -8 0 -1.04 6.12
2 -8 0 -0.06 6.33
-2 8 0 10.17 7.29
-2 8 0 -2.11 5.96
-2 8 0 3.07 8.84
-2 8 0 -2.18 7.35
1 -8 0 4.98 7.08
1 -8 0 24.2 7.98
1 -8 0 10.24 8.33
-1 8 0 3.5 9.5
-1 8 0 7.2 6.3
-1 8 0 12.67 7.45
-1 8 0 0.95 7.02
0 -8 0 27.35 7.2
0 -8 0 14.58 7.9
0 -8 0 19.86 8.12
0 8 0 13.69 7.84
0 8 0 18.73 10.42
0 8 0 16.85 6.72
0 8 0 4.33 6.55
-1 -8 0 12.18 7.26
-1 -8 0 11.26 8.03
-1 -8 0 15.77 5.44
1 8 0 21.63 8.55
1 8 0 37.44 7.64
1 8 0 33.51 7.35
1 8 0 19.91 8.64
-2 -8 0 10.5 8.04
2 8 0 9.34 6.67
2 8 0 10.65 7.37
2 8 0 13.4 10.7
2 8 0 -1.72 6.03
-3 -8 0 5.83 8.47
3 8 0 6.27 6.72
3 8 0 -2.95 7.18
3 8 0 -0.47 5.49
3 8 0 3.72 5.88
-4 -8 0 10.72 9.58
4 8 0 13.65 5.83
4 8 0 5.84 5.71
4 8 0 18.91 9.46
-5 -8 0 -2.48 6.95
5 8 0 5.48 8.68
5 8 0 -1.46 5.03
5 -9 0 -8.78 8.49
5 -9 0 4.27 9.21
-5 9 0 -5.21 8.84
-5 9 0 -2.69 7.57
4 -9 0 11.22 10.22
4 -9 0 16.86 11.78
4 -9 0 0.41 7.47
-4 9 0 -5.51 6.69
-4 9 0 7.78 8.99
3 -9 0 5.26 8.37
3 -9 0 27.75 10.28
3 -9 0 9.95 7.58
-3 9 0 2.76 7.05
-3 9 0 4.45 9.81
-3 9 0 17.86 7.24
2 -9 0 9.24 7.28
2 -9 0 2.58 9.75
2 -9 0 10.12 7.69
2 -9 0 14.53 9.77
-2 9 0 12.23 7
-2 9 0 4.92 6.41
-2 9 0 15.16 10.22
-2 9 0 1.07 8.28
1 -9 0 6.93 9.09
1 -9 0 8.4 7.47
1 -9 0 7.56 8.03
-1 9 0 5.29 10.6
-1 9 0 -2.38 7.77
-1 9 0 3.76 6.84
-1 9 0 -7.75 7.82
0 -9 0 3.76 8.03
0 -9 0 2 8.14
0 -9 0 -3.24 6.29
0 9 0 0.11 7.45
0 9 0 9.57 8.95
0 9 0 18.38 11.16
0 9 0 -0.79 6.46
-1 -9 0 19.7 9.08
1 9 0 15.86 11.48
1 9 0 12.25 7.16
1 9 0 10.88 8.66
1 9 0 6.24 6.88
-2 -9 0 14.26 9.33
2 9 0 21.59 8.42
2 9 0 -7.37 10.37
2 9 0 -4.19 6.89
2 9 0 7.72 6.45
-3 -9 0 14.98 9.85
3 9 0 3.18 6.48
3 9 0 7.52 7.03
3 9 0 16.4 11.86
-4 -9 0 -8.22 6.94
4 9 0 -1.84 5.66
4 9 0 -1.03 11.72
4 9 0 6.53 6.25
3 -10 0 14.28 10.83
3 -10 0 1.44 9.04
3 -10 0 21.21 11.88
-3 10 0 24.32 10.66
-3 10 0 14.8 13.74
-3 10 0 17.78 8.18
2 -10 0 22.9 9.93
2 -10 0 18.58 10.3
2 -10 0 14.09 8.3
-2 10 0 12.83 10.08
-2 10 0 -0.68 7.27
-2 10 0 21.9 10.01
-2 10 0 13.34 11.01
1 -10 0 0.67 6.84
1 -10 0 -4.73 9.15
-1 10 0 8.54 8.56
-1 10 0 -6.81 9.39
-1 10 0 -2.21 11.13
-1 10 0 5.66 6.99
0 -10 0 -0.02 9.06
0 -10 0 19.44 7.56
0 10 0 4 7.77
0 10 0 25.94 12.8
0 10 0 9.56 8.43
0 10 0 24.19 10.51
-1 -10 0 10.9 9.76
1 10 0 5.33 9.34
1 10 0 4.97 7.56
1 10 0 8.52 8.77
1 10 0 6.67 8.76
-2 -10 0 8.17 10.09
2 10 0 8 8.46
2 10 0 6.62 8.99
2 10 0 15.25 7.54
2 10 0 -7.84 7.67
0 11 -1 -4.62 7.82
-1 11 -1 6.09 8.32
1 -11 1 -14.81 7.37
3 10 -1 14.82 12.35
3 10 -1 3.48 7.61
3 10 -1 10.71 7.25
-3 -10 1 -3.31 6.99
2 10 -1 15.65 9.4
2 10 -1 -0.45 7.34
2 10 -1 -5.83 7.11
2 10 -1 11.99 8.14
-2 -10 1 6.14 7.13
1 10 -1 43.97 9.76
1 10 -1 35.14 9
1 10 -1 35.2 13.31
1 10 -1 23.85 9.27
-1 -10 1 20.38 9.77
0 10 -1 -5.14 7.53
0 10 -1 6.8 7.69
0 10 -1 -1.73 10.78
0 10 -1 -13.22 8.89
0 -10 1 -6.82 6.57
0 -10 1 -4.64 8.16
-1 10 -1 11.94 8.89
-1 10 -1 9.82 9.18
-1 10 -1 17.5 11.07
-1 10 -1 14.11 7.83
1 -10 1 21.83 8.41
1 -10 1 27.03 9.59
1 -10 1 15.33 9.7
-2 10 -1 -2.26 8.34
-2 10 -1 -5.39 6.77
-2 10 -1 0.82 6.55
-2 10 -1 -3.45 9.31
2 -10 1 -0.68 7.14
2 -10 1 -3.95 9.29
2 -10 1 -3.66 10.04
2 -10 1 16.38 10.22
-3 10 -1 22.92 10.03
-3 10 -1 35.27 8.67
3 -10 1 35.7 11.46
3 -10 1 -4.85 10.6
3 -10 1 18.98 8.22
-4 10 -1 -10.96 8.54
4 -10 1 -8.45 8.17
4 -10 1 0.61 7.9
5 9 -1 3.09 12.62
4 9 -1 9.91 5.96
4 9 -1 3.72 6.19
4 9 -1 15.37 12.39
-4 -9 1 7.47 9.83
3 9 -1 9.57 6.98
3 9 -1 -0.88 10.72
3 9 -1 -2.13 5.81
-3 -9 1 -2.47 6.24
2 9 -1 -7.92 6.25
2 9 -1 3.25 6.8
2 9 -1 12.06 11
2 9 -1 8.13 6.49
-2 -9 1 4.62 8.37
1 9 -1 2.42 7.34
1 9 -1 5.84 6.4
1 9 -1 9.02 7.52
1 9 -1 13.76 10.93
-1 -9 1 24.61 9.02
-1 -9 1 0.91 5.25
0 9 -1 3.43 6.64
0 9 -1 0.53 7.32
0 9 -1 12.44 8.4
0 9 -1 15.64 7.62
0 -9 1 8.98 7.89
0 -9 1 2.62 7.88
0 -9 1 5.94 6.57
-1 9 -1 0.36 5.69
-1 9 -1 17.62 10.19
-1 9 -1 7.57 8.07
-1 9 -1 -1.42 6.14
1 -9 1 -1.54 8.4
1 -9 1 -0.09 5.93
1 -9 1 1.11 7.57
-2 9 -1 6.71 8.21
-2 9 -1 -1.78 6.49
-2 9 -1 12.98 8.5
-2 9 -1 6.27 9.24
2 -9 1 -2.94 6.26
2 -9 1 11.34 7.65
2 -9 1 -0.31 10.04
2 -9 1 6.14 8.49
-3 9 -1 -4.89 6.52
-3 9 -1 10.15 8.39
-3 9 -1 4.38 8.17
3 -9 1 8.74 6.94
3 -9 1 -0.1 8.01
3 -9 1 1.85 10.3
3 -9 1 3.56 7.25
-4 9 -1 5.55 7.09
-4 9 -1 12.07 8.91
4 -9 1 3.3 10.81
4 -9 1 -0.8 9.32
4 -9 1 3.65 7.25
-5 9 -1 2.91 9.3
-5 9 -1 10.28 7.87
5 -9 1 6.37 9.17
5 -9 1 6.85 9.85
5 -9 1 -4.29 7.62
6 8 -1 8.17 12.32
6 8 -1 -2.08 4.13
5 8 -1 14.9 5.55
5 8 -1 14.66 9.31
-5 -8 1 9.71 10.04
4 8 -1 2.79 5.09
4 8 -1 3.4 10.76
4 8 -1 -6.35 5.3
-4 -8 1 -8.66 8.08
3 8 -1 -0.05 5.05
3 8 -1 -0.22 5.58
3 8 -1 0.89 6.2
3 8 -1 12.02 10.24
-3 -8 1 0.17 7.69
2 8 -1 3.87 9.57
2 8 -1 6.4 6.48
2 8 -1 6.47 6.26
2 8 -1 7.1 5.75
-2 -8 1 -11.05 6.81
1 8 -1 20.21 6.18
1 8 -1 10.42 6.45
1 8 -1 8.05 6.62
1 8 -1 5.65 9.62
1 8 -1 3.78 5.81
-1 -8 1 8.79 7.39
-1 -8 1 5.65 4.79
-1 -8 1 9.57 7.23
0 8 -1 17.55 7.09
0 8 -1 19.62 9.79
0 8 -1 24.02 7.2
0 8 -1 16.94 6.33
0 -8 1 12.6 7.54
0 -8 1 20.45 7.87
0 -8 1 12.8 6.36
-1 8 -1 18.22 7.47
-1 8 -1 9.75 6.26
-1 8 -1 4.65 6.69
-1 8 -1 9.08 8.74
1 -8 1 2.87 8.27
1 -8 1 8.06 5.92
1 -8 1 20.39 7.17
1 -8 1 4.7 7.67
-2 8 -1 35.97 8.29
-2 8 -1 25.74 9.52
-2 8 -1 14.11 6.73
-2 8 -1 30.94 7.28
2 -8 1 16.19 7.36
2 -8 1 20.41 8.27
2 -8 1 14.98 5.99
2 -8 1 26.74 7.02
2 -8 1 27.74 8.52
-3 8 -1 11.91 6.47
-3 8 -1 30.07 9.72
-3 8 -1 4.82 6.92
-3 8 -1 15.69 6.79
3 -8 1 16.82 6.67
3 -8 1 12.19 8.41
3 -8 1 31.58 10.96
3 -8 1 13.21 7.72
3 -8 1 14.6 6.02
-4 8 -1 21.02 7.53
-4 8 -1 27.81 7.61
4 -8 1 39.83 8.56
4 -8 1 37.17 9.69
4 -8 1 29.36 7.08
4 -8 1 13.27 11.15
4 -8 1 30.59 7.66
4 -8 1 31.52 9.61
-5 8 -1 9.78 7.18
-5 8 -1 -1.36 7.89
5 -8 1 -3.75 8.71
5 -8 1 16.84 15.06
5 -8 1 3.66 6.4
5 -8 1 -9.27 10.35
5 -8 1 12.94 7.02
-6 8 -1 4.83 8.67
-6 8 -1 14.52 9.74
6 -8 1 -0.4 11.43
6 -8 1 2.25 8.29
6 -8 1 4.36 7.65
6 -8 1 11.2 8.86
6 -8 1 9.46 9.32
6 7 -1 -2.06 2.7
6 7 -1 3.03 10.84
6 7 -1 3.01 1.87
-6 -7 1 7.15 9.43
5 7 -1 4.85 8.2
5 7 -1 3.3 3.82
5 7 -1 -3.37 4.11
-5 -7 1 -12.25 7.97
4 7 -1 -3.91 4.43
4 7 -1 3.82 4.42
4 7 -1 6.64 4.63
4 7 -1 -25.71 6.78
4 7 -1 -1.07 9.48
-4 -7 1 7.89 8.22
3 7 -1 3.34 9.02
3 7 -1 13.38 7.26
3 7 -1 7.28 5.05
3 7 -1 6.18 5.67
3 7 -1 5.28 4.53
3 7 -1 -1.94 4.85
-3 -7 1 5.38 7.28
-3 -7 1 -1.75 4.93
2 7 -1 27.36 5.61
2 7 -1 26.11 6.87
2 7 -1 18.52 5.99
2 7 -1 26 6.1
2 7 -1 20.62 9.89
2 7 -1 22.34 5.96
-2 -7 1 16.13 3.06
-2 -7 1 18.91 4.92
-2 -7 1 12.33 7.29
-2 -7 1 21.26 6.02
1 7 -1 30.15 6.74
1 7 -1 28.26 9.94
1 7 -1 20.76 6.49
1 7 -1 22.19 5.72
1 7 -1 32.72 5.76
1 7 -1 25.79 6.7
1 7 -1 28.96 6.4
-1 -7 1 17.92 5.31
-1 -7 1 21.2 6.07
-1 -7 1 27.51 7.75
-1 -7 1 32.99 5.55
-1 -7 1 19.34 4.8
-1 -7 1 28.58 3.72
-1 -7 1 30.46 7.07
0 7 -1 13.45 6
0 7 -1 -1.05 5.63
0 7 -1 5.14 5.43
0 7 -1 4.76 5.83
0 7 -1 12.61 5.37
0 7 -1 1.65 7.85
0 -7 1 7.86 5.51
0 -7 1 13.66 6.68
0 -7 1 7.2 1.72
0 -7 1 0.95 2.91
0 -7 1 15.34 6.5
0 -7 1 11.32 5.34
-1 7 -1 8.84 6.69
-1 7 -1 25.54 7.15
-1 7 -1 26.08 7.45
-1 7 -1 26.14 6.43
-1 7 -1 41.03 9.62
1 -7 1 27.35 9.12
1 -7 1 28.15 6.12
1 -7 1 37.12 3.7
1 -7 1 32.22 7.43
1 -7 1 37.02 8.16
1 -7 1 19.5 4.77
1 -7 1 19.04 7.11
-2 7 -1 21.02 8.76
-2 7 -1 18.48 5.83
-2 7 -1 14.18 7.1
-2 7 -1 15.36 6.28
2 -7 1 26.9 6.9
2 -7 1 14.47 5.84
2 -7 1 24.5 7.58
2 -7 1 15.5 7.34
2 -7 1 8.76 4.65
2 -7 1 3.26 8.63
-3 7 -1 66.35 10.09
-3 7 -1 70.94 10.38
-3 7 -1 73.75 10.61
-3 7 -1 45.16 8.77
3 -7 1 69.41 10.71
3 -7 1 64.48 8.78
3 -7 1 57.71 9.13
3 -7 1 64.97 12.3
3 -7 1 55.17 9.11
3 -7 1 64.92 9.17
-4 7 -1 3.59 6.01
-4 7 -1 1.53 6.97
-4 7 -1 -1.08 7.03
4 -7 1 0.75 5.78
4 -7 1 -0.21 6.23
4 -7 1 2.22 7.34
4 -7 1 10.84 6.61
4 -7 1 1.84 6.99
4 -7 1 -1.38 5.85
-5 7 -1 4.96 6.77
-5 7 -1 12.88 6.53
5 -7 1 2.58 8.09
5 -7 1 8.21 6.72
5 -7 1 -6.33 9.91
5 -7 1 4.47 6.88
5 -7 1 16.57 9.11
-6 7 -1 -0.06 8.27
-6 7 -1 -7.19 7.91
6 -7 1 0.37 11.33
6 -7 1 -1.83 7.32
6 -7 1 -1.99 8.67
6 -7 1 10.98 7.73
6 -7 1 -2.83 8.96
-7 7 -1 -6.14 7.99
7 -7 1 2.89 8.91
7 -7 1 3.13 8.43
7 -7 1 10.65 11.31
7 -7 1 -1.93 8.28
7 -7 1 11.04 12.52
7 6 -1 -6.04 8.17
7 6 -1 24.73 11.98
7 6 -1 -14.42 8.04
6 6 -1 -3.04 8.96
6 6 -1 27.05 8.38
6 6 -1 -14.86 9.55
6 6 -1 31.31 11.81
-6 -6 1 16.73 9.51
5 6 -1 1.1 6.02
5 6 -1 2.34 3.44
5 6 -1 -1.7 2.83
5 6 -1 -23.81 6.65
5 6 -1 1.6 7.19
-5 -6 1 -3.3 7.98
4 6 -1 5.57 5.06
4 6 -1 10.9 4
4 6 -1 9.54 4.02
4 6 -1 -18.36 6.9
4 6 -1 0.87 3.71
4 6 -1 4.97 9.41
4 6 -1 4.96 3.92
-4 -6 1 3.63 7.28
3 6 -1 -0.05 3.9
3 6 -1 3.38 3.88
3 6 -1 3.19 8.57
3 6 -1 -9.38 6.16
3 6 -1 4.8 3.63
3 6 -1 4.74 3.68
3 6 -1 -3.36 4.16
3 6 -1 1 4.61
-3 -6 1 -5.31 4.49
-3 -6 1 3.02 2.7
-3 -6 1 -0.97 4.95
2 6 -1 17.06 5.14
2 6 -1 13.39 5.24
2 6 -1 16.14 5.75
2 6 -1 4.96 3.87
2 6 -1 4.57 6.12
2 6 -1 1.75 3.24
2 6 -1 14.39 4.38
-2 -6 1 10.09 4.66
-2 -6 1 2.39 1.86
-2 -6 1 5.41 3.52
-2 -6 1 12.12 4.03
-2 -6 1 7.78 6.35
-2 -6 1 11.51 4.13
1 6 -1 1.44 1.36
1 6 -1 -2.55 4.23
1 6 -1 5.81 5.27
1 6 -1 1.12 4.83
1 6 -1 2.21 4.44
1 6 -1 -2.22 3.36
1 6 -1 0.52 5.48
1 6 -1 1.46 3.96
-1 -6 1 -9.3 4.41
-1 -6 1 4.01 3.61
-1 -6 1 0.8 3.81
-1 -6 1 1.4 4.34
-1 -6 1 3.95 4.03
-1 -6 1 4.22 4.05
-1 -6 1 3.06 2.72
0 6 -1 86.5 9.19
0 6 -1 80.56 12
0 6 -1 83.84 9.25
0 6 -1 64.82 8.77
0 6 -1 94.18 10.01
0 6 -1 89.69 9.88
0 6 -1 90.41 9.95
0 -6 1 72.8 6.74
0 -6 1 92.3 10.3
0 -6 1 76.56 8.77
0 -6 1 75.11 8.92
0 -6 1 74.84 10.83
0 -6 1 100.7 10.23
-1 6 -1 1.9 5.59
-1 6 -1 -0.99 4.28
-1 6 -1 6.5 5.26
-1 6 -1 23.07 5.49
-1 6 -1 1.66 6.39
1 -6 1 -0.41 3.13
1 -6 1 3.15 5.25
1 -6 1 4.28 5.34
1 -6 1 -11.16 5.58
1 -6 1 5.2 4.15
1 -6 1 4.66 4.46
1 -6 1 -2.84 5.57
-2 6 -1 8.2 6.88
-2 6 -1 9.2 4.5
-2 6 -1 12.38 5.39
-2 6 -1 3.13 4.82
-2 6 -1 2.9 5.92
2 -6 1 12.12 4.98
2 -6 1 -1.02 5.71
2 -6 1 10.94 4.96
2 -6 1 11.09 4.39
2 -6 1 22.6 8.18
2 -6 1 8.91 3.24
2 -6 1 11.5 5.4
-3 6 -1 3.67 4.95
-3 6 -1 12.13 5.2
-3 6 -1 6.93 6.68
-3 6 -1 8.77 6.19
3 -6 1 10.8 6.78
3 -6 1 5.29 5.62
3 -6 1 9.37 6.69
3 -6 1 3.9 3.83
3 -6 1 7.02 4.79
3 -6 1 6.78 5.37
3 -6 1 11.05 8.28
-4 6 -1 27.29 7.64
-4 6 -1 22.98 6.59
-4 6 -1 8.92 6.77
-4 6 -1 31.25 7.75
4 -6 1 17.29 7.34
4 -6 1 9.21 5.94
4 -6 1 23.43 6.28
4 -6 1 18.03 6.75
4 -6 1 29.72 7.81
-5 6 -1 3.98 7.07
-5 6 -1 -2.14 5.87
5 -6 1 2.63 6.26
5 -6 1 11.44 7.53
5 -6 1 4.88 7.19
5 -6 1 6.49 6.21
5 -6 1 4.99 9.79
-6 6 -1 11.16 8
-6 6 -1 -10.19 6.12
6 -6 1 3.46 7.48
6 -6 1 -5.06 5.7
6 -6 1 1.37 6.61
6 -6 1 0 10.26
6 -6 1 -12.28 7.99
-7 6 -1 8.19 7.49
7 -6 1 3 8.93
7 -6 1 27.76 10.46
7 -6 1 6.6 8.01
7 -6 1 -11.28 7.89
7 -6 1 5.16 6.51
7 5 -1 -21.29 9.98
7 5 -1 -4.85 8.45
7 5 -1 -12.45 7.93
7 5 -1 -13.17 7.77
6 5 -1 -7.03 6.69
6 5 -1 -1.19 6.78
6 5 -1 12.57 9.98
6 5 -1 -24.98 7.49
-6 -5 1 7.84 8.3
5 5 -1 9.58 2.61
5 5 -1 -6.31 8.44
5 5 -1 6.32 2
5 5 -1 6.37 7.1
5 5 -1 13.34 5.93
-5 -5 1 14.5 7.9
4 5 -1 8.57 5.05
4 5 -1 -12.59 5.73
4 5 -1 1.83 2.55
4 5 -1 2.71 2.85
4 5 -1 -1.45 2.34
4 5 -1 0.02 2.69
4 5 -1 2.03 2.99
4 5 -1 3.7 1.88
4 5 -1 -0.9 8.37
-4 -5 1 3.25 6.83
3 5 -1 1.07 2.63
3 5 -1 4.17 3.1
3 5 -1 4.27 2.9
3 5 -1 -12.16 5.52
3 5 -1 5.81 6.15
3 5 -1 5.02 3.56
3 5 -1 1.32 3.56
3 5 -1 2.9 3.2
-3 -5 1 6.59 5.86
-3 -5 1 12.93 5.35
-3 -5 1 5.23 2.66
2 5 -1 -0.08 3.48
2 5 -1 2.23 3.12
2 5 -1 2.94 3.22
2 5 -1 -1.69 4.02
2 5 -1 2.93 3.4
2 5 -1 5.58 7.53
2 5 -1 -0.23 3.34
2 5 -1 7.06 2.37
2 5 -1 3.01 5.24
2 5 -1 3.61 3.58
-2 -5 1 -1.18 5.12
-2 -5 1 0.23 3.76
-2 -5 1 6.68 3.73
-2 -5 1 8.1 3.08
-2 -5 1 9.57 4.15
1 5 -1 35.65 3.78
1 5 -1 30.41 5.6
1 5 -1 46.3 6.43
1 5 -1 52.99 6.79
1 5 -1 53.01 6.25
1 5 -1 45.35 9.19
1 5 -1 39.1 5.5
1 5 -1 35.22 6.13
-1 -5 1 44.08 5.41
-1 -5 1 33.43 5.73
-1 -5 1 40.75 4.6
-1 -5 1 41.96 6.08
-1 -5 1 43.38 7.23
-1 -5 1 55.48 6.67
-1 -5 1 47.64 5.24
0 5 -1 6.1 5
0 5 -1 11.78 4.65
0 5 -1 4.65 3.5
0 5 -1 4.06 4.41
0 5 -1 10.23 4.49
0 5 -1 12.31 4.97
0 5 -1 7.14 3.79
0 -5 1 2.77 3.57
0 -5 1 4.41 4.2
0 -5 1 14.81 5.13
0 -5 1 0.7 2.66
0 -5 1 9.66 4.28
0 -5 1 9.6 4.21
0 -5 1 8.38 2.02
0 -5 1 5.27 5.9
0 -5 1 6.71 1.69
-1 5 -1 20 6.57
-1 5 -1 22.08 6.07
-1 5 -1 25.61 5.1
-1 5 -1 23.22 5.51
-1 5 -1 12.08 5.2
1 -5 1 14.63 4.65
1 -5 1 20.11 5.6
1 -5 1 18.72 5.73
1 -5 1 9.68 5.45
1 -5 1 22.11 3.99
1 -5 1 21.6 5.77
1 -5 1 29.49 6.17
-2 5 -1 16.59 4.88
-2 5 -1 25.52 5.48
-2 5 -1 15.46 5.81
-2 5 -1 36.92 5.87
-2 5 -1 17.19 4.62
2 -5 1 29.43 5.14
2 -5 1 26.99 6.62
2 -5 1 24.93 6.17
2 -5 1 23.42 5.91
2 -5 1 26.96 6
2 -5 1 34.99 6.96
2 -5 1 32.59 4.89
2 -5 1 31.2 4.34
-3 5 -1 103.18 11.33
-3 5 -1 102.21 10.28
-3 5 -1 103.71 10.69
-3 5 -1 78.54 10.73
3 -5 1 78.66 10.36
3 -5 1 95.52 9.98
3 -5 1 96.75 9.53
3 -5 1 105.18 13.01
3 -5 1 101.35 10.48
3 -5 1 96 10.28
3 -5 1 90.44 11.33
-4 5 -1 3.22 5.08
-4 5 -1 -6.68 4.11
-4 5 -1 -0.97 5.81
-4 5 -1 -6.28 5.03
4 -5 1 -2.51 5.86
4 -5 1 0.33 5.75
4 -5 1 -9.39 4.01
4 -5 1 6.09 5.74
4 -5 1 -1.23 5.21
4 -5 1 8.48 8.18
-5 5 -1 25.36 7.33
-5 5 -1 24.38 7.02
5 -5 1 27.99 6.71
5 -5 1 22.35 7.75
5 -5 1 27.59 7.57
5 -5 1 19.03 7.38
5 -5 1 21.05 6.31
-6 5 -1 6.99 6.58
-6 5 -1 3.99 6.4
6 -5 1 6.72 6.51
6 -5 1 -3.25 5.7
6 -5 1 -0.86 7.1
6 -5 1 -3.1 7.39
6 -5 1 5.69 9.79
-7 5 -1 3.82 6.89
7 -5 1 4.36 8.08
7 -5 1 20.42 8.64
7 -5 1 0.26 7.51
7 -5 1 17.08 7.81
7 -5 1 21.52 9.84
8 -5 1 12.54 10.42
8 -5 1 0.34 8.67
8 -5 1 14.98 9.57
8 -5 1 14.66 8.41
8 -5 1 5.05 12.35
8 4 -1 -0.52 8.95
8 4 -1 3.29 11.4
8 4 -1 -13.26 8
7 4 -1 9.14 8.48
7 4 -1 10.07 10.33
7 4 -1 10.55 8.42
7 4 -1 7.27 8.07
6 4 -1 -14.29 7.55
6 4 -1 8.26 10.38
6 4 -1 -4.25 6.65
6 4 -1 -8.78 6.05
6 4 -1 -16.93 6.91
5 4 -1 -7.24 6.95
5 4 -1 -7.79 7.41
5 4 -1 -13.75 4.78
5 4 -1 -8 5.43
-5 -4 1 -0.68 6.47
4 4 -1 28.82 7.71
4 4 -1 43.71 4.07
4 4 -1 45.01 6.93
4 4 -1 43.09 4.34
-4 -4 1 39.59 6.99
3 4 -1 1.35 2.52
3 4 -1 4.02 4.04
3 4 -1 4 2.28
3 4 -1 1.91 2.07
3 4 -1 4.49 2.71
3 4 -1 3.93 2.07
3 4 -1 -11.46 5.15
3 4 -1 -0.36 3.48
3 4 -1 -2.97 2.36
-3 -4 1 0.64 4.23
-3 -4 1 -1.01 3.91
-3 -4 1 2.6 1.95
-3 -4 1 -2.46 1.68
2 4 -1 9.47 3.03
2 4 -1 2.34 2.52
2 4 -1 11.66 5.2
2 4 -1 5.46 3.33
2 4 -1 12.54 2.86
2 4 -1 7.62 3.02
2 4 -1 13.11 3.47
2 4 -1 19.62 3.58
-2 -4 1 15.65 3.34
-2 -4 1 16.49 4.03
-2 -4 1 7.08 2.52
-2 -4 1 9.6 5.12
-2 -4 1 11.59 3.81
1 4 -1 32.94 4.76
1 4 -1 37.62 5
1 4 -1 36.82 4.8
1 4 -1 36.65 5.16
1 4 -1 46.38 8.29
1 4 -1 30.13 6.05
1 4 -1 41.53 5.2
1 4 -1 26.46 5.1
-1 -4 1 37.43 4.84
-1 -4 1 31.48 4.46
-1 -4 1 58.59 5.96
-1 -4 1 51.73 5.53
-1 -4 1 38.52 4.62
-1 -4 1 31.28 5.66
-1 -4 1 40.7 4.34
-1 -4 1 43.74 5.39
0 4 -1 131.17 12.5
0 4 -1 144.12 12.71
0 4 -1 146.35 12.68
0 4 -1 135.26 13.8
0 4 -1 144.73 13.59
0 4 -1 117.55 12.41
0 4 -1 151.69 12.77
0 4 -1 154.2 13.02
0 4 -1 162.27 13.02
0 -4 1 140.98 12.7
0 -4 1 153.83 12.76
0 -4 1 154.95 11.62
0 -4 1 146.89 14.13
0 -4 1 161.5 12.7
0 -4 1 158.12 12.84
0 -4 1 150.74 13.18
0 -4 1 158.66 13.49
0 -4 1 125.01 11.41
0 -4 1 118.32 12.29
-1 4 -1 100.26 11.22
-1 4 -1 114.62 10.91
-1 4 -1 123.14 10.88
-1 4 -1 118.35 11.25
-1 4 -1 105.71 11.91
-1 4 -1 126.46 12.12
-1 4 -1 104.17 10.88
-1 4 -1 116.08 11.1
-1 4 -1 108.47 10.6
1 -4 1 120.35 11.54
1 -4 1 122.29 11.63
1 -4 1 123.6 9.8
1 -4 1 106.96 10.59
1 -4 1 120.74 10.96
1 -4 1 119.47 12.67
1 -4 1 114.39 10.9
1 -4 1 128.62 11.15
1 -4 1 112.2 10.3
1 -4 1 113.78 11.04
-2 4 -1 36.48 6.17
-2 4 -1 34.46 6.47
-2 4 -1 28.89 5.36
-2 4 -1 30.52 5.94
-2 4 -1 38.9 5.93
-2 4 -1 27.84 5.08
2 -4 1 35.65 6.37
2 -4 1 31.8 4.62
2 -4 1 24.63 5.3
2 -4 1 28.47 6.22
2 -4 1 29.89 6.55
2 -4 1 33.85 5.91
2 -4 1 31.95 6.6
-3 4 -1 64.82 8.44
-3 4 -1 50.66 7.63
-3 4 -1 73.21 8.58
-3 4 -1 66.29 7.58
-3 4 -1 71.89 8.69
3 -4 1 55.05 8.22
3 -4 1 86.61 8.99
3 -4 1 64.83 7.96
3 -4 1 56 7.83
3 -4 1 63.16 10
3 -4 1 64.02 7.1
3 -4 1 66.51 8.5
-4 4 -1 9.8 2.73
-4 4 -1 8.07 4.04
-4 4 -1 -2.87 6.7
-4 4 -1 13.68 5.72
-4 4 -1 14.01 4.83
4 -4 1 11.93 5.69
4 -4 1 20.08 5.02
4 -4 1 9.97 6.24
4 -4 1 9.66 4.75
4 -4 1 10.72 7.26
4 -4 1 14.62 4.87
-5 4 -1 25.77 6.35
-5 4 -1 29.82 6.61
5 -4 1 13.9 6.74
5 -4 1 14.22 5.67
5 -4 1 29.02 8.24
5 -4 1 22.75 9.13
5 -4 1 35 7.73
5 -4 1 22.4 5.84
-6 4 -1 -5.74 5.77
-6 4 -1 -0.59 5.41
6 -4 1 2.41 5.79
6 -4 1 -2.09 7.86
6 -4 1 8.5 6.8
6 -4 1 7.11 4.99
6 -4 1 -3.72 5.86
6 -4 1 -7.28 6.66
7 -4 1 3.53 6.72
7 -4 1 9.09 8.1
7 -4 1 5.36 7.81
7 -4 1 -10.67 7.04
7 -4 1 -2.13 8.59
8 -4 1 2.76 10.01
8 -4 1 4.17 7.53
8 -4 1 15.19 8.52
8 -4 1 2.91 7.34
8 -4 1 7.1 12.02
8 3 -1 -4.54 9.15
8 3 -1 9.32 8.09
8 3 -1 -2.2 11.47
7 3 -1 11.69 10.03
7 3 -1 23.85 8.85
7 3 -1 -7.1 6.41
7 3 -1 15.07 8.54
7 3 -1 11.28 6.94
6 3 -1 -22.14 6.27
6 3 -1 0.87 7
6 3 -1 2.52 6.44
6 3 -1 -0.56 8.81
6 3 -1 7.07 7.73
5 3 -1 8.01 5.69
5 3 -1 7.54 6.28
5 3 -1 6.31 7.6
5 3 -1 32.6 8.19
-5 -3 1 28.21 7.08
4 3 -1 -0.63 5.91
4 3 -1 10.91 1.57
4 3 -1 9.29 1.6
4 3 -1 -1.69 4.76
-4 -3 1 17.05 6
3 3 -1 11.44 3.93
3 3 -1 3.61 4.32
3 3 -1 4.44 1.12
3 3 -1 3.76 1.86
3 3 -1 4.83 1.32
3 3 -1 0.86 4.84
3 3 -1 2.64 1.66
3 3 -1 6.5 1.98
-3 -3 1 6.51 4.89
-3 -3 1 4.27 4.57
2 3 -1 7.75 2.72
2 3 -1 6.09 2.46
2 3 -1 9.43 2.6
2 3 -1 2.8 3.08
2 3 -1 5.79 2.22
2 3 -1 4.13 2.13
2 3 -1 13.36 2.14
2 3 -1 3.58 4.34
2 3 -1 6.96 3.41
2 3 -1 5.24 3.65
-2 -3 1 0.5 1.25
-2 -3 1 11.37 4.11
-2 -3 1 8.78 4.81
-2 -3 1 6.45 2.11
-2 -3 1 5.82 1.62
-2 -3 1 5.51 1.54
1 3 -1 13.43 3.46
1 3 -1 22.47 3.59
1 3 -1 17.47 3.12
1 3 -1 12.86 3.88
1 3 -1 21.28 3.6
1 3 -1 8.65 4.03
1 3 -1 26.18 3.1
1 3 -1 18.77 3.53
1 3 -1 33.97 4.9
1 3 -1 21.01 3.43
-1 -3 1 21.74 4.71
-1 -3 1 15.2 3.02
-1 -3 1 18.76 3.29
-1 -3 1 19.52 3.42
-1 -3 1 20.34 3.62
-1 -3 1 20.87 3.73
-1 -3 1 24.14 5.22
-1 -3 1 23.62 3.33
-1 -3 1 17.85 2.93
0 3 -1 171.17 13.55
0 3 -1 154.01 13.66
0 3 -1 159.39 13.28
0 3 -1 162.52 14.01
0 3 -1 164.83 13.36
0 3 -1 155.06 13.52
0 3 -1 167.32 13.45
0 -3 1 167.71 12.45
0 -3 1 148.9 13.22
0 -3 1 167.44 13.44
0 -3 1 143.9 13.34
0 -3 1 120.53 13.13
0 -3 1 141.89 13.38
0 -3 1 154.89 13.69
0 -3 1 166.3 14.36
0 -3 1 131.55 13.33
0 -3 1 160.01 13.52
-1 3 -1 48.81 5.81
-1 3 -1 43.87 6.54
-1 3 -1 45.45 7.24
-1 3 -1 48.39 6.41
-1 3 -1 45.58 6.35
-1 3 -1 39.64 5.32
-1 3 -1 46.3 6.15
-1 3 -1 47.21 6.99
-1 3 -1 39.3 5.93
-1 3 -1 39.97 5.55
1 -3 1 42 5.66
1 -3 1 47.37 6.28
1 -3 1 48.29 6.35
1 -3 1 59.37 6.96
1 -3 1 47.26 6.53
1 -3 1 49.52 5.87
1 -3 1 42.79 7.34
1 -3 1 40.89 4.69
1 -3 1 43.47 5.47
1 -3 1 55.19 5.59
-2 3 -1 10.17 3.85
-2 3 -1 9.29 5.19
-2 3 -1 4.93 4.18
-2 3 -1 -0.96 3.76
-2 3 -1 3.08 3.47
-2 3 -1 2.49 3.18
-2 3 -1 0.73 4.06
-2 3 -1 3.61 4.05
-2 3 -1 5.85 4.32
2 -3 1 3 3.91
2 -3 1 4.56 4.67
2 -3 1 -6.35 3.43
2 -3 1 0.85 3.97
2 -3 1 -2.83 3.14
2 -3 1 -5.5 4.52
2 -3 1 -0.9 2.6
2 -3 1 -3.64 4.83
2 -3 1 -4.24 5.62
-3 3 -1 13.83 4.06
-3 3 -1 12.31 4.59
-3 3 -1 19.96 4.19
-3 3 -1 10.12 3.75
-3 3 -1 9.47 2.7
-3 3 -1 8.48 4.65
3 -3 1 11.27 3.95
3 -3 1 16.63 4.46
3 -3 1 14.79 6.51
3 -3 1 19.72 4.35
3 -3 1 7.29 3.92
3 -3 1 10.66 5.39
3 -3 1 14.05 4.58
3 -3 1 12.58 4.01
-4 3 -1 47.71 6.61
-4 3 -1 43.89 5.87
-4 3 -1 38.13 6.73
-4 3 -1 50.36 6.61
-4 3 -1 39.16 6.51
4 -3 1 42.02 6.57
4 -3 1 38.6 6.88
4 -3 1 45.38 6.82
4 -3 1 41.17 6.66
4 -3 1 38.55 7.02
4 -3 1 45.67 7.1
4 -3 1 43.18 8.68
-5 3 -1 -2.91 4.25
-5 3 -1 4.19 5.09
-5 3 -1 2.03 4.77
-5 3 -1 7.63 3.89
5 -3 1 5.5 5.35
5 -3 1 1.28 4.94
5 -3 1 6.54 7.82
5 -3 1 5.83 5.21
5 -3 1 5.7 6.02
5 -3 1 9.05 5.71
5 -3 1 -0.33 5.23
5 -3 1 4.17 4.61
-6 3 -1 0.53 5.25
6 -3 1 5.17 5.9
6 -3 1 5.9 4.87
6 -3 1 13.05 5.47
6 -3 1 -1.73 5.56
6 -3 1 2.06 6.42
6 -3 1 -0.43 8.85
7 -3 1 1.07 9.89
7 -3 1 -0.61 8.54
7 -3 1 1.94 5.92
7 -3 1 24.21 7.95
7 -3 1 0.96 6.89
8 -3 1 6.54 11.64
8 -3 1 11.95 10.55
8 -3 1 19.89 8.42
8 -3 1 5 6.67
8 2 -1 4.28 3.35
8 2 -1 13.4 11.29
8 2 -1 3.88 8.39
8 2 -1 5.67 9.57
8 2 -1 5.27 3.07
7 2 -1 5.61 7.7
7 2 -1 -0.63 3.05
7 2 -1 -0.91 3.08
7 2 -1 1.98 8.25
7 2 -1 8.72 6.81
7 2 -1 10.29 7.21
7 2 -1 0.3 9.42
6 2 -1 1.57 5.56
6 2 -1 4.34 2.8
6 2 -1 8.62 6.45
6 2 -1 -0.72 5.82
5 2 -1 3.92 6.38
5 2 -1 2.31 1.87
5 2 -1 8.61 2.49
5 2 -1 6 1.88
5 2 -1 4.12 2.26
5 2 -1 -17.96 4.59
5 2 -1 2.67 5.13
4 2 -1 6.71 5.53
4 2 -1 24.55 2.05
4 2 -1 18.02 6.05
4 2 -1 28.9 3.17
4 2 -1 30.7 6.69
4 2 -1 17.21 2.75
-4 -2 1 38.11 6.34
3 2 -1 5.04 1.21
3 2 -1 7.96 1.72
3 2 -1 7.33 1.65
3 2 -1 -5.83 4.08
3 2 -1 3.75 5.59
3 2 -1 10.48 3.89
3 2 -1 7.54 1.3
3 2 -1 10.98 3.13
-3 -2 1 12.72 4.64
2 2 -1 6.42 1.89
2 2 -1 7.6 1.1
2 2 -1 1.51 3.73
2 2 -1 6.41 4.8
2 2 -1 8.45 1.73
2 2 -1 15.24 3.79
2 2 -1 7.72 1.9
2 2 -1 8.37 1.9
2 2 -1 8.22 2.77
2 2 -1 10.91 1.23
-2 -2 1 6.92 1.68
-2 -2 1 3.03 1.56
-2 -2 1 7.78 4.23
1 2 -1 162.89 13.57
1 2 -1 153.44 13.58
1 2 -1 168.27 13.58
1 2 -1 161.73 13.56
1 2 -1 190.03 14.28
1 2 -1 190.21 14.32
1 2 -1 149.61 13.46
1 2 -1 167.56 13.47
1 2 -1 153.58 13.64
-1 -2 1 158.81 13.53
-1 -2 1 173.38 13.34
-1 -2 1 169.79 13.56
-1 -2 1 168.09 13.43
-1 -2 1 149.18 14.24
-1 -2 1 176.75 14.12
-1 -2 1 162.96 13.52
-1 -2 1 161.26 13.33
0 2 -1 65.44 6.6
0 2 -1 73.75 6.89
0 2 -1 62.21 6.44
0 2 -1 70.17 6.74
0 2 -1 62.95 6.93
0 2 -1 63.65 6.58
0 2 -1 71.94 6.35
0 2 -1 71.06 6.58
0 2 -1 77.63 7.7
0 -2 1 73.18 6.86
0 -2 1 58.48 6.04
0 -2 1 60.81 7.18
0 -2 1 65.59 6.64
0 -2 1 64.85 6.34
0 -2 1 63.11 6.54
0 -2 1 57.97 6.25
0 -2 1 59.14 6.57
-1 2 -1 59.49 6.39
-1 2 -1 53.55 7.08
-1 2 -1 62.66 6.9
-1 2 -1 65.22 6.58
-1 2 -1 60.48 6.13
-1 2 -1 56.55 5.83
-1 2 -1 59.88 6.26
-1 2 -1 75.45 7.66
-1 2 -1 55.6 6.24
1 -2 1 66.99 6.43
1 -2 1 61.47 7.66
1 -2 1 50.6 5.94
1 -2 1 63.72 6.53
1 -2 1 64.47 6.79
1 -2 1 56.29 6.84
1 -2 1 64.18 6.56
1 -2 1 49.02 5.6
1 -2 1 60.67 7
1 -2 1 62.64 6.36
-2 2 -1 39.04 5.28
-2 2 -1 35.92 3.96
-2 2 -1 47.02 5.8
-2 2 -1 46.12 6.77
-2 2 -1 40.2 5.54
-2 2 -1 45.13 5.34
-2 2 -1 43.21 4.97
-2 2 -1 41.58 4.86
-2 2 -1 37.87 5.73
-2 2 -1 32.74 5.45
2 -2 1 43.35 5.47
2 -2 1 39.36 5.85
2 -2 1 36.26 6.01
2 -2 1 46.38 5.95
2 -2 1 41.18 5.49
2 -2 1 49.92 5.85
2 -2 1 42.4 5.61
2 -2 1 38.78 5.27
2 -2 1 46.72 5.2
2 -2 1 46.89 6.99
-3 2 -1 9.02 3.99
-3 2 -1 5.42 3.16
-3 2 -1 9.89 4.91
-3 2 -1 9.3 3.78
-3 2 -1 7.03 3.73
-3 2 -1 8.91 3.71
3 -2 1 8.38 4.15
3 -2 1 -1.51 3.76
3 -2 1 11.5 4.58
3 -2 1 4.11 3.72
3 -2 1 -0.02 5.28
3 -2 1 2.46 4.07
3 -2 1 4.77 4.52
3 -2 1 -2 3.37
3 -2 1 10.74 4.39
3 -2 1 4.05 3.64
-4 2 -1 1.15 3.73
-4 2 -1 0.16 3.43
-4 2 -1 4.19 3.08
-4 2 -1 5.02 3.57
-4 2 -1 11.08 4.21
4 -2 1 1.35 3.78
4 -2 1 3.01 4.7
4 -2 1 1.46 4.29
4 -2 1 3.29 4.72
4 -2 1 2.37 3.83
4 -2 1 10.33 4.88
4 -2 1 4.83 4.25
4 -2 1 1.36 6.35
-5 2 -1 -0.55 3.23
-5 2 -1 -1.99 2.66
-5 2 -1 -1.37 4.46
-5 2 -1 2.74 5.5
-5 2 -1 7.81 4.17
5 -2 1 -0.97 6.44
5 -2 1 -0.1 4.54
5 -2 1 2.48 5.48
5 -2 1 2.62 5.12
5 -2 1 1.68 5.35
5 -2 1 13.25 5.57
5 -2 1 -2.48 4.26
5 -2 1 0.87 3.98
-6 2 -1 -0.95 4.82
6 -2 1 7.66 6.32
6 -2 1 -5.76 5.48
6 -2 1 -0.23 4.87
6 -2 1 -1.82 6.05
6 -2 1 -3.51 7.96
6 -2 1 7.53 5.73
6 -2 1 1.68 5.99
7 -2 1 10.48 6.05
7 -2 1 -8.52 5.39
7 -2 1 14.2 9.23
7 -2 1 -2.53 9.13
7 -2 1 -3.18 6.4
8 -2 1 8.69 6.99
8 -2 1 11.57 11.04
8 -2 1 7.57 6.56
8 -2 1 -0.66 7.22
9 1 -1 21.5 10.31
9 1 -1 0.66 12.26
9 1 -1 6.3 8.5
8 1 -1 8.66 10.28
8 1 -1 21.36 9.31
8 1 -1 1.29 4.39
7 1 -1 -3.75 6.42
7 1 -1 10.45 8.24
7 1 -1 -1.97 2.8
7 1 -1 6.81 8.67
7 1 -1 4.15 4.02
6 1 -1 11.55 3.99
6 1 -1 6.5 3.78
6 1 -1 7.37 3.18
6 1 -1 15.89 4.59
6 1 -1 13.2 6.58
6 1 -1 17.56 4.23
6 1 -1 12.2 6.26
6 1 -1 10.58 5.9
5 1 -1 3.13 2.7
5 1 -1 4.82 3.03
5 1 -1 1.18 4.83
5 1 -1 4.79 4.51
5 1 -1 3.94 2.6
5 1 -1 6.42 3.53
5 1 -1 1.43 5.27
5 1 -1 -0.97 2.81
-5 -1 1 1.2 2.22
-5 -1 1 2.49 1.94
4 1 -1 94.81 8.8
4 1 -1 97.91 10.18
4 1 -1 106.99 8.32
4 1 -1 86.2 8.3
4 1 -1 73.28 9.78
4 1 -1 89.57 8.53
4 1 -1 115 11.02
4 1 -1 91.39 8.34
4 1 -1 106.58 9.63
4 1 -1 93.22 8.19
-4 -1 1 89.91 7.98
-4 -1 1 95.69 8.19
3 1 -1 21.39 4.26
3 1 -1 17.24 2.25
3 1 -1 19.96 5.2
3 1 -1 18.69 2.25
3 1 -1 11.32 2.63
3 1 -1 12.76 2.52
3 1 -1 14.94 2.75
3 1 -1 5.6 4.56
3 1 -1 16.29 3.07
3 1 -1 20.53 4.7
-3 -1 1 16.83 4.8
-3 -1 1 18.59 2.56
-3 -1 1 11.24 2.32
2 1 -1 35.92 5.09
2 1 -1 59.7 4.26
2 1 -1 15.79 5.33
2 1 -1 32.67 3.69
2 1 -1 43.79 4.93
2 1 -1 44.28 4.16
2 1 -1 48.57 6.16
2 1 -1 45.94 4.27
2 1 -1 63.68 5.7
2 1 -1 33.1 3.94
-2 -1 1 40.62 4.06
-2 -1 1 36.13 3.57
-2 -1 1 45.98 5.11
-2 -1 1 38.87 3.8
1 1 -1 345.57 26.51
1 1 -1 348.89 26.51
1 1 -1 352.29 26.53
1 1 -1 329.57 26.42
1 1 -1 343.43 27.03
1 1 -1 346.3 26.49
1 1 -1 340.19 26.47
-1 -1 1 342.87 26.44
-1 -1 1 330.09 26.36
-1 -1 1 275.47 26.65
-1 -1 1 270.91 26.68
-1 -1 1 364.79 27.02
-1 -1 1 311.23 26.47
-1 -1 1 348.99 26.5
-1 -1 1 346.03 26.48
0 1 -1 11.52 2.14
0 1 -1 9.97 2.25
0 1 -1 11.58 1.95
0 1 -1 7.57 2.2
0 1 -1 12.75 2.23
0 1 -1 13.85 2.1
0 1 -1 13.62 3.15
0 1 -1 14.32 1.99
0 1 -1 15.15 2.32
0 -1 1 12.15 2.32
0 -1 1 11.23 2.09
0 -1 1 12.25 2.22
0 -1 1 10.02 1.84
0 -1 1 13.59 1.92
0 -1 1 13.69 2.29
0 -1 1 15.92 2.21
0 -1 1 23.32 3.3
0 -1 1 9.36 2.72
0 -1 1 11.92 1.97
-1 1 -1 382.16 30.38
-1 1 -1 346.36 30.48
-1 1 -1 376.11 30.62
-1 1 -1 381.83 30.31
-1 1 -1 378.33 30.35
-1 1 -1 388.11 30.38
-1 1 -1 380.46 30.16
-1 1 -1 387.83 30.46
-1 1 -1 367.54 30.37
-1 1 -1 403.13 30.79
1 -1 1 370.72 30.33
1 -1 1 377.71 30.38
1 -1 1 388.42 30.77
1 -1 1 366.64 30.7
1 -1 1 390.46 30.35
1 -1 1 404.51 30.77
1 -1 1 377.43 30.42
1 -1 1 382.6 30.33
1 -1 1 368.75 30.33
1 -1 1 381.61 30.43
-2 1 -1 149.94 11.94
-2 1 -1 143.71 12.98
-2 1 -1 151.18 12.71
-2 1 -1 141.83 12.06
-2 1 -1 135.35 12.06
-2 1 -1 147.07 11.99
-2 1 -1 125.06 12.48
-2 1 -1 123.52 11.88
2 -1 1 138.97 12.09
2 -1 1 127.93 12.68
2 -1 1 160.16 12.23
2 -1 1 145.16 12.25
2 -1 1 143.57 12.12
2 -1 1 141.27 12.16
2 -1 1 148.93 12.13
2 -1 1 162.65 12.99
2 -1 1 134.52 12.13
-3 1 -1 32.98 4.19
-3 1 -1 23.34 3.53
-3 1 -1 32.83 4.47
-3 1 -1 32.06 4.44
-3 1 -1 34.13 6.24
-3 1 -1 30.05 5.95
-3 1 -1 28.47 4.95
-3 1 -1 22 3.5
-3 1 -1 33.19 3.87
3 -1 1 30.7 4.26
3 -1 1 23.72 4.29
3 -1 1 24.25 3.15
3 -1 1 22.58 4.06
3 -1 1 29.89 3.99
3 -1 1 23.99 4.32
3 -1 1 33.48 5.68
3 -1 1 25.1 4.15
3 -1 1 31.43 5.84
3 -1 1 25.73 5.38
-4 1 -1 56.44 6.18
-4 1 -1 74.54 7.11
-4 1 -1 72.37 7.66
-4 1 -1 65.03 6.29
-4 1 -1 54.73 8.15
-4 1 -1 73.83 8.53
4 -1 1 74.03 7.29
4 -1 1 79.74 7.21
4 -1 1 69.93 6.68
4 -1 1 71.88 7.67
4 -1 1 72.71 7.43
4 -1 1 98.86 8.42
4 -1 1 70.65 9.09
4 -1 1 72.95 7.41
4 -1 1 57.96 8.62
-5 1 -1 -2.77 4.45
-5 1 -1 1.08 3.15
-5 1 -1 -0.02 3.69
5 -1 1 3.79 2.59
5 -1 1 -0.02 4.77
5 -1 1 -4.13 4.13
5 -1 1 6.22 2.76
5 -1 1 5.18 3.81
5 -1 1 -1.83 6.38
5 -1 1 -5.5 5.73
5 -1 1 8.51 4.87
5 -1 1 4.5 3.88
5 -1 1 0.72 4.23
6 -1 1 8.54 4.75
6 -1 1 0.47 5.56
6 -1 1 2.01 7.66
6 -1 1 11.97 5.67
6 -1 1 -0.79 5.09
6 -1 1 -3.64 5.8
6 -1 1 3.02 4.81
7 -1 1 -16.86 7.53
7 -1 1 -3.53 5.14
7 -1 1 -1.29 8.38
7 -1 1 -4.01 5.17
7 -1 1 3.5 6.63
7 -1 1 6.95 5.94
8 -1 1 6.84 6.04
8 -1 1 10.35 9.97
8 -1 1 8.15 6.32
8 -1 1 15.5 10.47
9 0 -1 0.28 9.03
9 0 -1 14.19 11.35
8 0 -1 17.29 9.82
8 0 -1 0.1 5.03
8 0 -1 -2.44 4.24
8 0 -1 21.67 10.65
7 0 -1 9.35 8.95
7 0 -1 3.92 4.64
7 0 -1 1.69 4.57
7 0 -1 12.78 7.82
6 0 -1 23.98 6.37
6 0 -1 18.93 5.3
6 0 -1 26.04 7.7
6 0 -1 24.9 5.09
6 0 -1 34.9 6.24
6 0 -1 38.56 9.31
6 0 -1 34.82 5.67
5 0 -1 75.59 7.88
5 0 -1 75.76 11.1
5 0 -1 108.42 9.17
5 0 -1 76.16 9.6
5 0 -1 87.08 8.2
5 0 -1 66.64 9.01
5 0 -1 77.53 8.84
5 0 -1 71.28 9.63
5 0 -1 82.41 8.34
5 0 -1 59.24 7.81
5 0 -1 86.2 8.64
-5 0 1 80.47 7.95
4 0 -1 409.05 33.17
4 0 -1 360.16 32.3
4 0 -1 366.02 33.18
4 0 -1 413.38 32.52
4 0 -1 411.17 32.65
4 0 -1 462.08 33.89
4 0 -1 373.94 32.37
4 0 -1 394.77 32.27
4 0 -1 391.75 32.35
4 0 -1 374.58 32.2
4 0 -1 396.62 32.4
-4 0 1 394.39 32.03
-4 0 1 451.4 32.5
-4 0 1 427.84 32.33
3 0 -1 207.64 16.23
3 0 -1 184.43 16.07
3 0 -1 192.41 16.01
3 0 -1 189.21 15.95
3 0 -1 228.86 17.2
3 0 -1 179.71 16.03
3 0 -1 189.54 15.89
3 0 -1 194.42 16.08
3 0 -1 188.22 16.25
3 0 -1 197.21 16.69
3 0 -1 182.7 16.75
3 0 -1 189.79 17.36
-3 0 1 205.88 15.89
-3 0 1 200.26 15.42
-3 0 1 184.61 15.99
-3 0 1 198.32 16.63
-3 0 1 178.3 15.42
-3 0 1 179.88 15.97
-3 0 1 202.15 15.86
2 0 -1 659.34 54.96
2 0 -1 829.68 55.23
2 0 -1 680.57 55.04
2 0 -1 636.53 54.98
2 0 -1 690.25 55.17
2 0 -1 697.88 55.17
2 0 -1 633.1 55.51
2 0 -1 673.69 55.16
2 0 -1 663.24 55.05
-2 0 1 717.87 55.09
-2 0 1 695.98 55.04
-2 0 1 640.77 55.08
-2 0 1 826.68 54.96
-2 0 1 705.91 55.16
-2 0 1 669.58 55.08
1 0 -1 442.27 38.05
1 0 -1 504.21 37.79
1 0 -1 553.11 38.3
1 0 -1 495.81 38.3
1 0 -1 432.59 37.97
1 0 -1 509.45 37.97
1 0 -1 437.72 38.01
1 0 -1 522.62 38.05
-1 0 1 511.32 38.07
-1 0 1 397.56 37.76
-1 0 1 443.1 37.95
-1 0 1 496.89 38.01
-1 0 1 439.92 37.91
-1 0 1 487.39 38.49
-1 0 1 539.4 38.28
-1 0 1 482.96 37.79
-1 0 1 459.69 38
0 0 -1 179.93 14.37
0 0 -1 145.31 14.26
0 0 -1 189.23 14.65
0 0 -1 173.34 14.42
0 0 -1 176.15 14.25
0 0 -1 183.83 14.2
0 0 -1 161.55 14.28
0 0 -1 183.35 14.24
0 0 -1 183.7 14.31
0 0 1 178.89 14.21
0 0 1 173.8 14.4
0 0 1 185.08 14.26
0 0 1 171.91 14.28
0 0 1 160.42 14.26
0 0 1 181.2 14.31
0 0 1 176.77 14.29
0 0 1 180.77 14.28
0 0 1 183.09 14.67
-1 0 -1 245.7 18.88
-1 0 -1 233.64 18.79
-1 0 -1 233.52 18.8
-1 0 -1 246.08 19.6
-1 0 -1 229.85 19.05
-1 0 -1 212.76 19.23
-1 0 -1 234.59 18.86
-1 0 -1 243.55 18.91
-1 0 -1 233.65 18.76
1 0 1 232.91 18.87
1 0 1 243.4 18.82
1 0 1 233.9 18.87
1 0 1 244.19 18.87
1 0 1 242.84 18.9
1 0 1 231.76 18.86
1 0 1 231.55 19.18
1 0 1 221.59 19.02
-2 0 -1 103.88 9.5
-2 0 -1 92.75 8.28
-2 0 -1 66.48 9.45
-2 0 -1 98 8.14
-2 0 -1 101.27 8.31
2 0 1 95.85 8.27
2 0 1 98.16 8.32
2 0 1 94.66 10.22
2 0 1 94.98 8.15
2 0 1 93.77 9.17
2 0 1 104.31 9.85
2 0 1 96.5 8.22
2 0 1 100.22 8.42
2 0 1 90.06 8.26
-3 0 -1 14.27 2.53
-3 0 -1 2.19 2.45
-3 0 -1 10.43 5.21
-3 0 -1 11.41 4.21
-3 0 -1 13.54 2.5
-3 0 -1 8.49 2.26
3 0 1 14.5 4
3 0 1 12.9 4.63
3 0 1 15.58 4.62
3 0 1 16.93 3.23
3 0 1 17.34 4.93
3 0 1 10.89 2.98
3 0 1 9.13 2.89
3 0 1 10.87 2.64
3 0 1 11.14 2.86
3 0 1 10.16 2.57
-4 0 -1 16.08 6.23
-4 0 -1 27.25 3.02
-4 0 -1 19.1 3.24
4 0 1 18.96 3.43
4 0 1 14.93 5.96
4 0 1 25.98 3.94
4 0 1 24.99 3.77
4 0 1 24.35 4.27
4 0 1 25.19 3.76
4 0 1 15.77 6.81
4 0 1 16.38 3.92
4 0 1 28.98 5.14
-5 0 -1 25.47 5.95
5 0 1 27.1 5.06
5 0 1 20.72 4.04
5 0 1 25.44 4.64
5 0 1 22.76 3.91
5 0 1 14.64 6.88
5 0 1 34.67 4.95
5 0 1 19.33 4.46
5 0 1 19.87 7.51
5 0 1 26.46 4.14
6 0 1 -12.98 6.19
6 0 1 -1.72 5.55
6 0 1 0.23 4.18
6 0 1 -1.74 4.31
6 0 1 2.9 7.9
6 0 1 7.2 4.58
6 0 1 4.25 4.2
6 0 1 2.12 3.86
7 0 1 8.37 8.94
7 0 1 9.78 5.06
7 0 1 4.14 6.79
7 0 1 -8.41 8.18
7 0 1 6.76 4.88
7 0 1 5.99 4.68
8 0 1 -1.05 5.01
8 0 1 -4.42 9.63
8 0 1 1.05 7.19
9 -1 -1 20.2 10.51
8 -1 -1 46.39 8.52
8 -1 -1 81.76 9.33
8 -1 -1 56.07 12.69
7 -1 -1 -8.4 5.73
7 -1 -1 -2.42 5.73
7 -1 -1 18.15 8.55
7 -1 -1 0.96 8.93
7 -1 -1 -0.75 4.39
6 -1 -1 149.13 14.07
6 -1 -1 113.58 15.7
6 -1 -1 164.26 13.54
6 -1 -1 119.9 12.49
6 -1 -1 137.67 15.24
6 -1 -1 109.94 12.52
6 -1 -1 142.65 13.31
-6 1 1 156.38 13.23
5 -1 -1 -2.69 3.02
5 -1 -1 -1.81 4.17
5 -1 -1 -5.09 4.03
5 -1 -1 4.66 3.11
5 -1 -1 -0.21 4.31
5 -1 -1 12.07 4.72
5 -1 -1 -0.52 6.61
5 -1 -1 -3.67 5.01
5 -1 -1 3.77 4.73
5 -1 -1 4.53 4.32
-5 1 1 0.41 2.16
-5 1 1 6.59 4.55
-5 1 1 1.54 3.27
-5 1 1 1.6 2.01
4 -1 -1 427.89 29.7
4 -1 -1 368.98 29.42
4 -1 -1 419.34 29.48
4 -1 -1 395.83 30.36
4 -1 -1 316.06 29.96
4 -1 -1 309.62 28.81
4 -1 -1 369.32 29.51
4 -1 -1 316.4 28.89
4 -1 -1 413.65 30.79
4 -1 -1 317.03 29.4
-4 1 1 363.28 29.49
-4 1 1 336.4 28.79
-4 1 1 338.85 28.74
-4 1 1 402.05 29.31
3 -1 -1 8.53 3.8
3 -1 -1 -0.91 2.18
3 -1 -1 -2.1 5.53
3 -1 -1 1.72 1.66
3 -1 -1 -0.54 3.74
3 -1 -1 0.23 3.26
3 -1 -1 -1.53 3.55
3 -1 -1 7.68 5.29
3 -1 -1 3.62 3.64
3 -1 -1 3.62 3.54
3 -1 -1 3.56 3.01
-3 1 1 4.94 3.07
-3 1 1 -1.88 3.61
-3 1 1 1.62 2.59
-3 1 1 1 3
-3 1 1 0.2 3.25
-3 1 1 1.87 4.79
-3 1 1 6.17 3.17
-3 1 1 -1.98 4.35
2 -1 -1 33.81 5.37
2 -1 -1 28.13 5.27
2 -1 -1 43.09 5.3
2 -1 -1 41.97 5
2 -1 -1 35.22 4.93
2 -1 -1 41.63 4.78
2 -1 -1 31.05 4.95
2 -1 -1 32.58 5.23
2 -1 -1 39.28 5.38
-2 1 1 37.89 4.68
-2 1 1 40.78 5.05
-2 1 1 32.83 4.83
-2 1 1 39.73 5.03
-2 1 1 47.17 4.64
-2 1 1 35.89 5.27
-2 1 1 39.46 5.34
-2 1 1 37.21 5.07
-2 1 1 32.41 3.38
1 -1 -1 17.5 4
1 -1 -1 13.07 4.41
1 -1 -1 15.4 3.84
1 -1 -1 22.45 4.62
1 -1 -1 19 4.33
1 -1 -1 18.31 4.86
1 -1 -1 18.32 4.16
1 -1 -1 21.05 3.8
1 -1 -1 20.89 2.3
1 -1 -1 22.87 3.24
-1 1 1 30.85 4.91
-1 1 1 17.44 4.12
-1 1 1 23.12 3.61
-1 1 1 20.5 3.84
-1 1 1 24.9 4.17
-1 1 1 20.94 2.23
-1 1 1 17.28 3.72
-1 1 1 19.86 4.01
-1 1 1 32.52 5.14
-1 1 1 19.74 4.19
0 -1 -1 117.5 11.15
0 -1 -1 110.01 9.98
0 -1 -1 120.28 9.91
0 -1 -1 119.94 10.06
0 -1 -1 110.4 9.83
0 -1 -1 113.11 10.07
0 -1 -1 118.99 9.83
0 -1 -1 109.17 10.1
0 -1 -1 109.52 9.33
0 1 1 116.69 11.27
0 1 1 121.72 9.83
0 1 1 113.13 9.96
0 1 1 110.02 9.87
0 1 1 120.11 10.04
0 1 1 110.23 9.97
0 1 1 123.13 9.99
0 1 1 118.67 10.05
0 1 1 111.98 9.73
-1 -1 -1 29.69 3.32
-1 -1 -1 21.59 5.58
-1 -1 -1 27.18 2.98
-1 -1 -1 33.75 4.16
-1 -1 -1 22.44 3.46
-1 -1 -1 27.04 3.44
-1 -1 -1 24.01 2.96
-1 -1 -1 26.96 3.45
1 1 1 27.85 3.23
1 1 1 25.36 3.21
1 1 1 31.45 4.4
1 1 1 32.26 3.71
1 1 1 29.66 5.1
1 1 1 24.58 5.42
1 1 1 28.73 3.52
1 1 1 26.51 3.46
1 1 1 28.56 3.41
1 1 1 28.62 4.78
-2 -1 -1 2.22 1.91
-2 -1 -1 -1.46 1.25
-2 -1 -1 3.63 1.43
-2 -1 -1 1.64 1.35
-2 -1 -1 0.38 3.36
2 1 1 -0.77 1.59
2 1 1 -5.69 3.48
2 1 1 2.77 3.72
2 1 1 3.38 2.02
2 1 1 2.07 3.93
2 1 1 0.89 2.16
2 1 1 2.38 2.06
2 1 1 4.06 3.88
2 1 1 2.89 2
2 1 1 1.85 1.52
-3 -1 -1 8.58 5.13
-3 -1 -1 6.47 1.95
3 1 1 4.83 3.66
3 1 1 7.73 2.17
3 1 1 0.05 5.11
3 1 1 5.58 1.86
3 1 1 3.51 4.3
3 1 1 -0.2 4.92
3 1 1 3.05 2.21
3 1 1 5.29 1.69
3 1 1 7.77 2.16
3 1 1 5.56 2.17
-4 -1 -1 67.93 10.73
-4 -1 -1 93.41 8.45
4 1 1 111.41 12.04
4 1 1 86.33 10.57
4 1 1 104.28 8.75
4 1 1 113.5 11.39
4 1 1 101.5 8.68
4 1 1 110.61 8.92
4 1 1 106.64 8.75
-5 -1 -1 6.34 1.63
-5 -1 -1 6.27 1.63
-5 -1 -1 11.56 6.69
5 1 1 19.22 5.76
5 1 1 10.59 2.91
5 1 1 7.59 2.46
5 1 1 5.99 7.07
5 1 1 7.68 2.59
5 1 1 4.99 5.76
5 1 1 7.93 3.02
5 1 1 14.97 3.32
5 1 1 7.12 2.76
-6 -1 -1 1.67 7.21
6 1 1 -4 6.05
6 1 1 11.15 7.82
6 1 1 0.98 3.42
6 1 1 4.73 3.67
6 1 1 5.22 2.78
6 1 1 -2.11 3
6 1 1 0.61 5.27
6 1 1 9.65 7.96
7 1 1 3.59 4.25
7 1 1 6.42 8.97
7 1 1 -0.19 8.6
7 1 1 -24.94 7.23
7 1 1 -0.21 3.75
8 1 1 -7.59 4.5
8 1 1 17.53 10.38
8 1 1 -0.5 9.46
8 -2 -1 7.38 9.5
8 -2 -1 3.57 7.31
8 -2 -1 9.33 6.72
8 -2 -1 -1.34 9.53
7 -2 -1 1.31 6.24
7 -2 -1 -0.24 6.36
7 -2 -1 5.88 5.47
7 -2 -1 15.64 9.4
7 -2 -1 13.48 6.1
6 -2 -1 -5.89 5.45
6 -2 -1 2.23 5.99
6 -2 -1 15.33 8.3
6 -2 -1 8.7 8.18
6 -2 -1 4.51 5.76
-6 2 1 4.93 3.33
-6 2 1 -3.11 5.69
5 -2 -1 1.12 3.07
5 -2 -1 8.28 4.77
5 -2 -1 7.99 4.79
5 -2 -1 -6.52 3.92
5 -2 -1 0.25 4.29
5 -2 -1 11.49 7.26
5 -2 -1 7.05 5.25
5 -2 -1 8.88 7.17
5 -2 -1 3.11 5.08
-5 2 1 5.13 3.96
-5 2 1 3.86 3.26
-5 2 1 4 4.67
-5 2 1 5.1 3.82
4 -2 -1 -1.78 4.58
4 -2 -1 0.73 3.96
4 -2 -1 2.96 4.15
4 -2 -1 11.44 4.69
4 -2 -1 -1.31 6.07
4 -2 -1 10.46 4.63
4 -2 -1 4.38 4.78
4 -2 -1 10.14 4.13
-4 2 1 1.73 3.76
-4 2 1 4.62 4.35
-4 2 1 7.22 2.65
-4 2 1 5.27 3.19
-4 2 1 6.14 4.15
3 -2 -1 32.59 5.33
3 -2 -1 28.35 5.56
3 -2 -1 26.31 5.53
3 -2 -1 33.01 7.2
3 -2 -1 35.1 5.81
3 -2 -1 36.63 5.21
3 -2 -1 27.84 5.58
3 -2 -1 31.98 5.42
-3 2 1 28.1 6.44
-3 2 1 35.07 5.58
-3 2 1 29.32 3.94
-3 2 1 27.17 5.8
-3 2 1 34.55 4.61
-3 2 1 31.37 5
2 -2 -1 10.3 3.63
2 -2 -1 9.32 5.68
2 -2 -1 12.92 3.9
2 -2 -1 11.44 4.25
2 -2 -1 12.71 4.69
2 -2 -1 9.55 2.31
2 -2 -1 9.08 4.17
2 -2 -1 3.58 4.65
2 -2 -1 8.79 4.43
2 -2 -1 9.95 4.82
-2 2 1 14.25 4.66
-2 2 1 14.31 3.06
-2 2 1 12.8 4.34
-2 2 1 21.05 4.58
-2 2 1 12.87 3.83
-2 2 1 9.53 5.28
-2 2 1 8.59 4.71
-2 2 1 9.82 3.48
-2 2 1 7.49 3.09
-2 2 1 15.39 4
1 -2 -1 132.98 12.13
1 -2 -1 133.27 11.54
1 -2 -1 131.57 11.8
1 -2 -1 136.9 11.75
1 -2 -1 135.15 11.9
1 -2 -1 132.5 11.92
1 -2 -1 130.77 10.98
1 -2 -1 119.47 11.63
1 -2 -1 135.91 12.7
1 -2 -1 140.33 12.01
-1 2 1 98.83 11.32
-1 2 1 135 11.66
-1 2 1 129.34 11.82
-1 2 1 129.27 11.86
-1 2 1 122.94 11.53
-1 2 1 126.99 11.43
-1 2 1 134.86 11.52
-1 2 1 132.5 10.93
-1 2 1 137.67 12.95
-1 2 1 130.92 11.85
0 -2 -1 88.18 9
0 -2 -1 114.56 9.21
0 -2 -1 109.44 11.11
0 -2 -1 96.1 9.14
0 -2 -1 94.02 9.04
0 -2 -1 94.89 9.27
0 -2 -1 90.72 9.31
0 -2 -1 97.47 7.91
0 -2 -1 92.47 9.16
0 2 1 102.34 8.95
0 2 1 105.96 8.98
0 2 1 95.45 9.22
0 2 1 99.39 9.28
0 2 1 96.84 10.18
0 2 1 100.64 8.96
0 2 1 95.31 9.02
0 2 1 92.68 9.18
0 2 1 96.85 9.16
0 2 1 93.6 10.09
-1 -2 -1 353.26 28.11
-1 -2 -1 343.89 28.04
-1 -2 -1 348.04 27.89
-1 -2 -1 368.53 28.25
-1 -2 -1 372.17 29.75
-1 -2 -1 328.98 28.3
-1 -2 -1 355.26 28.05
1 2 1 345.9 28.22
1 2 1 326.62 28.1
1 2 1 375.15 28.61
1 2 1 356.86 28.19
1 2 1 340.49 27.99
1 2 1 322.36 28.12
1 2 1 353.15 28.16
1 2 1 354.76 28.04
-2 -2 -1 -0.85 5.02
-2 -2 -1 0.78 1.66
-2 -2 -1 -0.78 1.51
-2 -2 -1 1.27 2.1
-2 -2 -1 0.83 3.91
-2 -2 -1 0.14 1.01
-2 -2 -1 2.97 4.23
2 2 1 4.4 3.45
2 2 1 -0.53 2.29
2 2 1 -1.31 3.79
2 2 1 -1.55 2.41
2 2 1 -3.44 2.18
2 2 1 0.68 4.04
2 2 1 -2.34 2.41
2 2 1 0.28 1.99
-3 -2 -1 6.62 1.49
-3 -2 -1 4.11 1.51
-3 -2 -1 5.16 4.94
3 2 1 4.96 1.64
3 2 1 -9.56 4.33
3 2 1 6.49 2.28
3 2 1 -2.54 5.76
3 2 1 4.7 1.81
3 2 1 6.92 2.22
3 2 1 2.45 1.89
3 2 1 -1.05 1.42
-4 -2 -1 -5.11 5.16
4 2 1 1.56 1.32
4 2 1 1.82 2.28
4 2 1 -1.28 5.11
4 2 1 3.68 6.23
4 2 1 1.87 1.59
4 2 1 3.26 1.9
4 2 1 1.37 1.72
4 2 1 3.35 1.14
-5 -2 -1 5.06 5.2
5 2 1 -4.54 6.11
5 2 1 0.09 2.14
5 2 1 3.97 2.12
5 2 1 1.05 2.3
5 2 1 5.74 6.51
5 2 1 3.47 2.46
5 2 1 2.5 7.21
-6 -2 -1 6.56 7.61
6 2 1 6.05 3.03
6 2 1 3.13 2.7
6 2 1 -6.91 6.51
6 2 1 6.33 8.05
6 2 1 10.53 6.46
7 2 1 8.5 8.63
7 2 1 -9.39 7.19
7 2 1 -0.18 2.54
7 2 1 12.69 10.25
7 2 1 3.32 3.33
7 2 1 -6.43 7.96
8 2 1 9.22 9.61
8 2 1 3.19 2.78
8 2 1 4.64 9.45
8 2 1 -7.41 8.05
8 2 1 -1.17 2.22
8 -3 -1 1.57 9.37
8 -3 -1 5.62 6.52
8 -3 -1 -7.13 9.82
8 -3 -1 18.01 8.47
8 -3 -1 -0.18 7.84
7 -3 -1 10.04 8.83
7 -3 -1 -6.66 6.21
7 -3 -1 -3.76 5.81
7 -3 -1 0.92 7.18
7 -3 -1 -6.25 9.11
6 -3 -1 4.51 5.72
6 -3 -1 3.85 7.6
6 -3 -1 -0.47 8.64
6 -3 -1 -1.72 5.61
6 -3 -1 -1.42 6.48
-6 3 1 6.01 4.74
-6 3 1 18.82 7.63
5 -3 -1 -1.46 7.66
5 -3 -1 -2.47 5.61
5 -3 -1 1.38 4.37
5 -3 -1 6.71 5.31
5 -3 -1 6.52 5.07
5 -3 -1 5.07 4.4
5 -3 -1 4.19 5.99
-5 3 1 3.99 5.2
-5 3 1 8.08 5.15
-5 3 1 2.26 5.39
-5 3 1 4.21 3.16
4 -3 -1 69.16 10.25
4 -3 -1 69.12 8.24
4 -3 -1 60.85 8.61
4 -3 -1 61.3 8.61
4 -3 -1 76.06 9.38
4 -3 -1 58.31 8.57
4 -3 -1 68.75 8.46
-4 3 1 68.14 8.77
-4 3 1 76.13 8.22
-4 3 1 60.01 7
-4 3 1 88.48 8.98
-4 3 1 51.21 8.25
3 -3 -1 26.04 6.07
3 -3 -1 22.68 4.85
3 -3 -1 25.98 3.79
3 -3 -1 25.07 6.19
3 -3 -1 20.61 4.92
3 -3 -1 40.81 6.72
3 -3 -1 33.6 6.1
3 -3 -1 24.44 6.16
3 -3 -1 28.17 5.57
-3 3 1 31.3 4.46
-3 3 1 26.44 6.8
-3 3 1 34.47 6.26
-3 3 1 22.36 5.17
-3 3 1 42.96 6.26
2 -3 -1 14.01 4.58
2 -3 -1 14.35 5.28
2 -3 -1 18.89 4.71
2 -3 -1 14.05 6.85
2 -3 -1 5.57 5.04
2 -3 -1 14.89 5.06
2 -3 -1 18.21 3.3
2 -3 -1 13.48 4.24
2 -3 -1 22.6 5.24
-2 3 1 13.55 4.88
-2 3 1 18.71 4.97
-2 3 1 15.29 4.29
-2 3 1 13.9 5.89
-2 3 1 18.38 4.7
-2 3 1 15.53 4.95
1 -3 -1 8.47 3.23
1 -3 -1 9.31 4.49
1 -3 -1 1.13 6.03
1 -3 -1 3.79 5.15
1 -3 -1 10.5 4.74
1 -3 -1 8.97 3.88
1 -3 -1 6.14 3.48
1 -3 -1 6.06 4.47
1 -3 -1 1.91 3.12
1 -3 -1 -4.31 3.84
-1 3 1 5.43 4.11
-1 3 1 7.29 3.4
-1 3 1 9.36 3.69
-1 3 1 4.78 3.18
-1 3 1 7.15 3.47
-1 3 1 12.02 5.68
-1 3 1 1.99 4.21
-1 3 1 1.2 4.65
-1 3 1 6.32 3.92
-1 3 1 8.32 4.03
0 -3 -1 528.84 42.04
0 -3 -1 507.98 41.85
0 -3 -1 528.97 42.14
0 -3 -1 467.63 43
0 -3 -1 537.59 42.11
0 -3 -1 515.31 41.89
0 -3 -1 502.67 41.29
0 -3 -1 544.97 41.96
0 -3 -1 571.15 42.13
0 3 1 504.05 42.09
0 3 1 530.17 43.58
0 3 1 519.17 41.94
0 3 1 512.7 42.64
0 3 1 535.81 42.04
0 3 1 508.06 41.81
0 3 1 519.56 42.12
0 3 1 520.27 42.1
0 3 1 544.58 41.95
0 3 1 527.87 42.09
-1 -3 -1 -0.32 2.71
-1 -3 -1 -11.12 5.44
-1 -3 -1 -9.39 4.71
-1 -3 -1 2.16 2.83
-1 -3 -1 -2.01 3.15
-1 -3 -1 5.66 4.35
-1 -3 -1 3.68 3.77
-1 -3 -1 2.85 2.8
-1 -3 -1 3.36 2.87
1 3 1 -2.73 1.78
1 3 1 5.51 4.05
1 3 1 4.94 3.32
1 3 1 3.22 4.64
1 3 1 -2.54 3.15
1 3 1 3.54 3.4
1 3 1 2.98 3.38
1 3 1 2.71 3.1
1 3 1 3.36 3.22
1 3 1 -1.18 2.74
-2 -3 -1 115.28 8.82
-2 -3 -1 78.09 8.37
-2 -3 -1 120.4 10.73
-2 -3 -1 95.77 9.43
-2 -3 -1 97.39 8.19
2 3 1 95.43 8.68
2 3 1 99.86 8.46
2 3 1 95.74 8.56
2 3 1 101.25 8.67
2 3 1 66.42 8.68
2 3 1 91.23 8.75
2 3 1 88.16 11.95
2 3 1 88.34 8.68
-3 -3 -1 12.59 2.43
-3 -3 -1 15.67 2.47
-3 -3 -1 25.87 6.75
-3 -3 -1 8.1 5.31
3 3 1 19.32 2.87
3 3 1 14.11 2.82
3 3 1 17.5 2.66
3 3 1 15.73 3.26
3 3 1 11.14 2.94
3 3 1 18.36 7.41
3 3 1 14.18 3.47
3 3 1 17.62 7.36
-4 -3 -1 25.13 6.7
4 3 1 26.72 3.5
4 3 1 22.98 3.17
4 3 1 22.94 2.64
4 3 1 49.61 9.09
4 3 1 32.77 3.76
4 3 1 34.63 3.46
4 3 1 37.51 8.3
-5 -3 -1 -0.83 6.81
5 3 1 0.87 5.62
5 3 1 8.41 7.71
5 3 1 2.19 2.2
5 3 1 2.6 1.98
5 3 1 -13.62 5.58
5 3 1 3.84 2.06
-6 -3 -1 3.57 7.61
6 3 1 -7.87 7.16
6 3 1 1.33 1.16
6 3 1 6.27 8.41
6 3 1 -0.11 6.59
6 3 1 -2.46 1.73
-7 -3 -1 -2.8 8.8
7 3 1 -8.3 8.57
7 3 1 2.72 8.11
7 3 1 6.18 8.56
7 3 1 14.94 8.03
8 3 1 -29.89 9.02
8 3 1 -9.93 8.32
8 3 1 -2.58 9
8 3 1 3.09 9.76
8 -4 -1 6.4 9.19
8 -4 -1 0.62 7.06
8 -4 -1 -2.01 10.91
8 -4 -1 3.92 8.6
8 -4 -1 -11.16 7.95
7 -4 -1 20.43 9.24
7 -4 -1 8.65 7.38
7 -4 -1 -4.58 10.07
7 -4 -1 -2.56 6.72
7 -4 -1 16.95 9.05
-7 4 1 -2.42 5.88
6 -4 -1 -2.68 7.33
6 -4 -1 -6.8 6.48
6 -4 -1 -2.66 6.57
6 -4 -1 -4.61 7.3
6 -4 -1 -4.09 6.7
-6 4 1 -2.48 6.44
-6 4 1 -0.98 5.59
5 -4 -1 17.13 7.07
5 -4 -1 16.79 6.93
5 -4 -1 19.47 7.27
5 -4 -1 16.62 7.37
5 -4 -1 15.27 6.15
-5 4 1 19.12 6.06
-5 4 1 17.04 6.93
-5 4 1 5.7 5.47
4 -4 -1 27.58 6.08
4 -4 -1 28.51 6.03
4 -4 -1 22.63 6.74
4 -4 -1 19.48 6.66
4 -4 -1 21.04 6.1
4 -4 -1 21.16 7
4 -4 -1 28.95 7.14
4 -4 -1 21.64 4.23
-4 4 1 32.66 6.07
-4 4 1 14.57 6.31
-4 4 1 23.11 7.5
-4 4 1 35.51 7.04
-4 4 1 19.93 5.24
3 -4 -1 91.14 11.48
3 -4 -1 82.09 10.56
3 -4 -1 87.94 10.29
3 -4 -1 82.71 10.3
3 -4 -1 92.28 11.09
3 -4 -1 96.96 8.76
3 -4 -1 83.78 10.84
3 -4 -1 110.48 11.32
-3 4 1 95.26 10.61
-3 4 1 110.01 11.2
-3 4 1 81.8 11.33
-3 4 1 101.15 9.68
-3 4 1 80.83 9.88
2 -4 -1 7.31 5.48
2 -4 -1 17.84 6.06
2 -4 -1 8.63 5.15
2 -4 -1 8.03 3.84
2 -4 -1 6.93 4.26
2 -4 -1 13.04 4.92
2 -4 -1 3.41 4.61
2 -4 -1 15.69 5.78
-2 4 1 21.46 4.45
-2 4 1 15.99 5.49
-2 4 1 10.27 5.54
-2 4 1 9.92 4.5
-2 4 1 5.42 6.17
-2 4 1 12.37 5.07
1 -4 -1 90.88 12.06
1 -4 -1 88.99 9.81
1 -4 -1 93.22 10
1 -4 -1 103.16 10.67
1 -4 -1 90.33 9.56
1 -4 -1 93.84 9.04
1 -4 -1 103.55 9.72
1 -4 -1 96.7 10.59
-1 4 1 106.79 9.29
-1 4 1 96.97 9.63
-1 4 1 109.24 10.84
-1 4 1 98.63 9.98
-1 4 1 104.85 12.55
-1 4 1 93.44 10.26
-1 4 1 99.9 10.19
-1 4 1 96.31 10.28
0 -4 -1 70.81 8.03
0 -4 -1 67.75 7.63
0 -4 -1 75.75 7.55
0 -4 -1 59.63 7.07
0 -4 -1 50.07 5.73
0 -4 -1 67.63 7.96
0 4 1 60.63 10.12
0 4 1 73.29 7.73
0 4 1 65.01 7.11
0 4 1 84.12 8.28
0 4 1 54.94 7.58
0 4 1 73.04 7.9
0 4 1 61.73 7.54
0 4 1 72.91 7.59
-1 -4 -1 129.19 11.86
-1 -4 -1 125.66 11.43
-1 -4 -1 114.01 12.71
-1 -4 -1 134.6 12.59
-1 -4 -1 130.54 11.48
-1 -4 -1 130.84 11.92
1 4 1 126.61 11.79
1 4 1 139.31 11.83
1 4 1 147.97 12.26
1 4 1 132.82 12.31
1 4 1 128.14 12.21
1 4 1 125.5 10.56
1 4 1 147.76 15.14
1 4 1 146.72 12.25
-2 -4 -1 9.98 4.01
-2 -4 -1 5.51 5.94
-2 -4 -1 0.71 2.77
-2 -4 -1 9.14 4.65
2 4 1 8.57 3.35
2 4 1 11.29 4.35
2 4 1 6.05 3.26
2 4 1 5.35 3.82
2 4 1 1.88 3.46
2 4 1 9.17 3.55
2 4 1 11.56 3.87
2 4 1 2.76 3.13
2 4 1 5.24 7.41
-3 -4 -1 7.53 2.85
-3 -4 -1 7.2 5.47
-3 -4 -1 6.59 4.89
3 4 1 4.15 3.8
3 4 1 6.29 2.97
3 4 1 -0.22 7.08
3 4 1 0.9 3.22
3 4 1 4.74 3
3 4 1 8.23 3.49
3 4 1 8.29 4.77
3 4 1 4.1 3.02
-4 -4 -1 5.76 6.73
-4 -4 -1 11.6 6.63
4 4 1 9.7 2.81
4 4 1 5.13 8.23
4 4 1 12 3.59
4 4 1 0.55 2.41
4 4 1 7.65 3.24
4 4 1 7.41 2.14
4 4 1 7.67 7.77
4 4 1 6.77 3.07
4 4 1 0.54 6.08
-5 -4 -1 -7.06 6.74
5 4 1 0.83 2.46
5 4 1 1.9 2.67
5 4 1 2.63 7.71
5 4 1 11.59 8.04
5 4 1 -4.08 8.38
-6 -4 -1 2.85 8.4
6 4 1 -9.1 8.35
6 4 1 0.9 7.83
6 4 1 -3.84 8.4
6 4 1 -3.55 8.62
-7 -4 -1 1.58 9.63
7 4 1 10.76 10.21
7 4 1 9.75 8.38
7 4 1 3.86 9.06
7 4 1 -5.78 8.21
7 4 1 -16.04 8.25
8 4 1 13.45 10.32
8 4 1 13.38 10.04
8 -5 -1 -9.82 6.13
8 -5 -1 -0.79 8.94
8 -5 -1 8.01 11.93
8 -5 -1 15.23 8.97
7 -5 -1 7.96 8.41
7 -5 -1 4.95 8.55
7 -5 -1 13.54 11.66
7 -5 -1 13.07 8.02
7 -5 -1 -6.2 8.64
-7 5 1 -8.77 6.93
6 -5 -1 3.43 7.2
6 -5 -1 4.22 7.58
6 -5 -1 2.06 7.6
6 -5 -1 12.88 7.78
6 -5 -1 -12.36 6.32
-6 5 1 -4.19 6.06
-6 5 1 11.05 7.35
5 -5 -1 7.14 6.26
5 -5 -1 1.28 7.15
5 -5 -1 -7.39 6.53
5 -5 -1 -0.49 6.32
5 -5 -1 2.96 8.93
-5 5 1 9.11 7.12
-5 5 1 -4.08 6.25
-5 5 1 6.32 6.8
4 -5 -1 9.75 6.76
4 -5 -1 12.95 5.62
4 -5 -1 18.78 6.75
4 -5 -1 19.26 4.37
4 -5 -1 0.45 6.52
4 -5 -1 5.29 4.67
-4 5 1 20.15 7.42
-4 5 1 7.91 8.53
-4 5 1 13.6 6.93
-4 5 1 15.97 6.6
-4 5 1 18.93 6.93
3 -5 -1 21.18 7.35
3 -5 -1 16.58 6.9
3 -5 -1 34.86 7.74
3 -5 -1 19.56 6.22
3 -5 -1 31.71 5.07
3 -5 -1 23.97 6.13
3 -5 -1 31.28 7.29
-3 5 1 25.47 8.07
-3 5 1 33.59 6.45
-3 5 1 20.39 6.43
-3 5 1 30.96 6.52
-3 5 1 31.11 7.34
2 -5 -1 13.33 6.17
2 -5 -1 13.87 5.2
2 -5 -1 14.86 5.59
2 -5 -1 13.21 6.15
2 -5 -1 3.33 4.36
2 -5 -1 12.4 4.77
2 -5 -1 1.78 7.47
-2 5 1 5.22 4.97
-2 5 1 10.81 5.5
-2 5 1 10.87 6.03
-2 5 1 9.19 6.95
-2 5 1 17.3 5.96
1 -5 -1 0.15 4.93
1 -5 -1 0.32 4.72
1 -5 -1 4.96 5.6
1 -5 -1 6.28 6.65
1 -5 -1 -0.7 3.41
1 -5 -1 0.31 5.06
1 -5 -1 5.82 4.96
-1 5 1 6.25 3.85
-1 5 1 4.07 4.11
-1 5 1 -0.72 4.98
-1 5 1 -6.24 4.75
-1 5 1 6.21 4.09
-1 5 1 -3.42 4.26
0 -5 -1 64.7 6.56
0 -5 -1 91.82 9.43
0 -5 -1 77.94 8.41
0 -5 -1 70.99 9.07
0 -5 -1 68.02 7.95
0 5 1 69.7 11.42
0 5 1 73.47 8.98
0 5 1 84.32 9.34
0 5 1 71.28 8.54
0 5 1 80.8 9.05
0 5 1 90.2 8.95
0 5 1 68.93 7.68
-1 -5 -1 71.67 9.45
-1 -5 -1 74.57 7.52
-1 -5 -1 85.76 8.89
-1 -5 -1 58.46 7.69
-1 -5 -1 67.85 8.32
-1 -5 -1 72.66 7.59
1 5 1 59.59 7.6
1 5 1 65.25 8.61
1 5 1 61.73 10.3
1 5 1 81.73 8.55
1 5 1 74.69 8.32
1 5 1 68.34 8.54
1 5 1 89.67 8.99
-2 -5 -1 30.66 7.3
-2 -5 -1 16.24 2.43
-2 -5 -1 17.85 3.79
-2 -5 -1 16.54 2.24
-2 -5 -1 19.28 5.86
-2 -5 -1 19.49 4.82
2 5 1 36.06 6.21
2 5 1 25.18 4.6
2 5 1 36.06 5.21
2 5 1 10.17 4.23
2 5 1 1.27 3.28
2 5 1 24.91 4.86
2 5 1 16.26 5.28
2 5 1 28.97 8.96
-3 -5 -1 27.4 6.58
-3 -5 -1 17.52 7.71
3 5 1 30.2 5.4
3 5 1 24.09 5.49
3 5 1 26.53 5.03
3 5 1 20.1 5.6
3 5 1 21.92 9.21
3 5 1 40.01 4.79
3 5 1 40.42 5.51
-4 -5 -1 -0.72 6.42
-4 -5 -1 4.49 7.35
4 5 1 5.4 8.84
4 5 1 -1.04 3.7
4 5 1 3.9 8.73
4 5 1 1.05 3.65
4 5 1 2.96 3.62
4 5 1 5.11 6.23
4 5 1 -0.13 3.99
-5 -5 -1 24.28 8.78
5 5 1 29.31 4.7
5 5 1 38.07 9.24
5 5 1 42.6 5.23
5 5 1 39.16 11.37
5 5 1 50.1 10.09
-6 -5 -1 7.98 8.84
6 5 1 15.67 10.06
6 5 1 1.07 1.25
6 5 1 2.01 9.57
6 5 1 7.21 9.53
-7 -5 -1 7.09 10.03
7 5 1 7.7 9.26
7 5 1 1.6 9.25
7 5 1 13.62 10.1
7 5 1 -25.16 6.16
7 -6 -1 -5.13 8.33
7 -6 -1 -8.54 7.91
7 -6 -1 -6.34 7.89
7 -6 -1 -4.09 8.74
7 -6 -1 3.43 9.87
-7 6 1 16.41 8.28
6 -6 -1 -1.81 6.87
6 -6 -1 6.7 9.02
6 -6 -1 -6.01 7.29
6 -6 -1 0.24 11.11
6 -6 -1 9.16 6.54
-6 6 1 1.34 7.99
-6 6 1 1.74 7.83
5 -6 -1 1.01 6.72
5 -6 -1 10.18 7.99
5 -6 -1 -1.33 7.79
5 -6 -1 2.79 7.9
5 -6 -1 4.82 6.51
-5 6 1 -0.29 5.95
-5 6 1 -3.14 8.45
-5 6 1 -12.04 6.74
4 -6 -1 30.87 8.76
4 -6 -1 31.95 8.77
4 -6 -1 29.11 8.77
4 -6 -1 26.81 8.24
4 -6 -1 23.39 7.35
4 -6 -1 38.19 6.07
-4 6 1 29.23 7.22
-4 6 1 24.08 7.12
-4 6 1 20.87 10.23
-4 6 1 29.92 7.1
3 -6 -1 -1.21 5.3
3 -6 -1 -13.64 6.28
3 -6 -1 6 8.98
3 -6 -1 -4 5.55
3 -6 -1 3.77 6.92
3 -6 -1 -0.24 4.76
-3 6 1 -1.23 6.52
-3 6 1 -2.63 7.56
-3 6 1 -4.25 5.04
-3 6 1 -0.99 6.09
2 -6 -1 41.82 8.25
2 -6 -1 34.64 6.93
2 -6 -1 40.05 6.34
2 -6 -1 29.96 6.41
2 -6 -1 19.27 7.26
2 -6 -1 35.48 6.95
2 -6 -1 25.59 7.68
-2 6 1 33.34 7.3
-2 6 1 23.12 7.54
-2 6 1 22.76 6.49
-2 6 1 21.36 8.72
-2 6 1 30.5 7.35
1 -6 -1 13.51 6.35
1 -6 -1 20.29 6.62
1 -6 -1 17.13 5.96
1 -6 -1 21.57 6.73
1 -6 -1 34.47 7.51
1 -6 -1 19.24 4.7
1 -6 -1 11.52 5.43
-1 6 1 19.68 5.27
-1 6 1 18.73 6.4
-1 6 1 13.74 5.66
-1 6 1 31.55 7.14
-1 6 1 17.83 8.75
0 -6 -1 75.61 7.31
0 -6 -1 87.08 9.46
0 -6 -1 82.31 8.92
0 -6 -1 105.11 11.21
0 -6 -1 95.69 10.89
0 -6 -1 79.58 9.04
0 6 1 70.5 8.71
0 6 1 93.96 10.82
0 6 1 86.53 10.43
0 6 1 80.34 9.88
0 6 1 116.18 11.11
0 6 1 91.04 13.64
-1 -6 -1 36.3 5.94
-1 -6 -1 32 5.37
-1 -6 -1 22.94 6.18
-1 -6 -1 32.73 6.49
-1 -6 -1 43.16 5.57
-1 -6 -1 39.42 7.05
1 6 1 34.68 7.1
1 6 1 40.64 6.91
1 6 1 38.9 6.14
1 6 1 18.54 4.92
1 6 1 27.64 7.05
1 6 1 25.67 8.02
1 6 1 35.84 6.68
-2 -6 -1 3.2 5.35
-2 -6 -1 1.88 6.91
-2 -6 -1 0.91 3.81
-2 -6 -1 0.82 5.53
-2 -6 -1 1.89 2.65
-2 -6 -1 0.48 2.2
2 6 1 2.68 8.4
2 6 1 -0.65 5.08
2 6 1 3.15 2.06
2 6 1 1.88 5.31
2 6 1 1.61 4.5
2 6 1 -0.87 4.97
-3 -6 -1 19.36 7.26
-3 -6 -1 21.75 8.17
3 6 1 24.06 6.37
3 6 1 12.75 7.89
3 6 1 18.38 5.33
3 6 1 29.11 5.93
3 6 1 24.19 5.59
-4 -6 -1 3.55 7.81
-4 -6 -1 -4.28 7.72
4 6 1 9.06 10.07
4 6 1 3.08 4.15
4 6 1 -4.35 4.22
4 6 1 1.87 4.93
-5 -6 -1 -6.98 7.49
5 6 1 8.87 10.24
5 6 1 21.61 11.09
5 6 1 5.43 4.28
5 6 1 5.47 4.39
-6 -6 -1 5.5 8.95
6 6 1 1.46 2.2
6 6 1 7.2 10.67
6 6 1 -1.54 2.7
6 6 1 -1.71 10.49
6 -7 -1 -11.17 11.29
6 -7 -1 6.24 8.06
6 -7 -1 26.93 9.58
6 -7 -1 10.59 8.36
6 -7 -1 13.75 7.37
-6 7 1 13.52 8.07
-6 7 1 15.37 10.94
5 -7 -1 -2.75 7.05
5 -7 -1 6.81 7.96
5 -7 -1 9.26 8.5
5 -7 -1 9.89 11.19
5 -7 -1 -4.23 8.36
-5 7 1 1.95 6.95
-5 7 1 0.77 8.36
4 -7 -1 2.56 10.35
4 -7 -1 40.25 9.72
4 -7 -1 4.32 8.24
4 -7 -1 17.84 7.35
4 -7 -1 9.55 7.18
-4 7 1 24.85 7.54
-4 7 1 24.54 8.73
-4 7 1 21.83 11.72
3 -7 -1 2.29 6.07
3 -7 -1 14.86 8.04
3 -7 -1 -10.56 6.26
3 -7 -1 -1.62 6.24
3 -7 -1 -6.5 6.76
3 -7 -1 -6.04 6.33
-3 7 1 -2.9 5.39
-3 7 1 -0.75 5.89
-3 7 1 -0.78 6.76
-3 7 1 -3.65 8.54
2 -7 -1 11.97 6.68
2 -7 -1 10.76 7.89
2 -7 -1 8.61 5.72
2 -7 -1 12.48 6.72
2 -7 -1 10.42 7.07
2 -7 -1 14.7 7.35
-2 7 1 13.57 6.33
-2 7 1 16.13 9.32
-2 7 1 4.28 7.56
-2 7 1 10.72 6.78
1 -7 -1 13.94 5.86
1 -7 -1 12.19 6.41
1 -7 -1 9.89 7.52
1 -7 -1 19.92 6.94
-1 7 1 13.5 7.17
-1 7 1 21.1 7.53
-1 7 1 20.85 6.57
-1 7 1 14.53 9.64
0 -7 -1 -9.91 5.11
0 -7 -1 9.55 6.87
0 -7 -1 4.31 6.58
0 -7 -1 -7.31 5.29
0 7 1 0.19 6.3
0 7 1 13.57 6.54
0 7 1 7.02 6.83
0 7 1 -0.27 5.59
-1 -7 -1 1.26 4.73
-1 -7 -1 14.25 6.63
-1 -7 -1 7.09 7.4
-1 -7 -1 1.42 5.06
1 7 1 11.71 5.98
1 7 1 7.36 6.29
1 7 1 3.12 6.57
1 7 1 -0.28 6.54
-2 -7 -1 10.53 5.88
-2 -7 -1 0.77 7.62
2 7 1 14.25 6.35
2 7 1 7.15 6.61
2 7 1 7.27 7.37
2 7 1 0.49 5.94
-3 -7 -1 1.57 6.38
-3 -7 -1 -0.69 6.54
3 7 1 0.5 5.6
3 7 1 -0.08 5.98
3 7 1 -7.72 5.03
3 7 1 9.26 7.68
-4 -7 -1 -2.46 8.55
-4 -7 -1 -5.03 7.88
4 7 1 -11.6 4.8
4 7 1 0.04 7.69
4 7 1 -2.33 4.79
-5 -7 -1 -7.75 8.95
5 7 1 -1.93 4.73
5 7 1 28.57 12.28
5 7 1 3.56 8.14
-6 -7 -1 0.18 10.17
6 7 1 -1.46 4.14
6 7 1 0.24 11.42
6 7 1 12.68 12.05
6 -8 -1 -2.61 15.23
-6 8 1 9.41 8.69
5 -8 -1 0.28 7.38
5 -8 -1 2.82 9.14
5 -8 -1 -1.13 8.19
5 -8 -1 7.07 9.25
-5 8 1 9.06 7.63
-5 8 1 4.59 8.69
4 -8 -1 9.66 9.06
4 -8 -1 8.63 8.68
4 -8 -1 11.98 7.58
4 -8 -1 -1.31 7.61
-4 8 1 -5.33 8.07
-4 8 1 -32.2 10.53
-4 8 1 7.27 7.14
3 -8 -1 8.8 7.2
3 -8 -1 -14.68 6.66
3 -8 -1 -6.42 9.58
3 -8 -1 0.41 8.53
-3 8 1 -2.41 7.05
-3 8 1 -4.88 9.44
-3 8 1 0.57 6.04
-3 8 1 0.63 6.23
2 -8 -1 2.26 7.23
2 -8 -1 0.78 6.91
2 -8 -1 16.97 9.39
2 -8 -1 15.54 7.52
2 -8 -1 18.92 7.09
-2 8 1 20.37 10.44
-2 8 1 5.68 8.35
-2 8 1 4.41 7.6
-2 8 1 5.45 6.72
1 -8 -1 -7.18 7.65
1 -8 -1 -5.11 8.06
1 -8 -1 -2.96 5.84
1 -8 -1 2.26 5.84
-1 8 1 5.7 6.42
-1 8 1 6.61 5.9
-1 8 1 2.16 7.82
-1 8 1 5.86 9.97
0 -8 -1 37.3 9.11
0 -8 -1 23.61 6.89
0 -8 -1 25.83 8.52
0 8 1 34.15 8.55
0 8 1 23.29 7.47
0 8 1 31.23 9.17
0 8 1 13.05 8.47
-1 -8 -1 6.93 5.33
-1 -8 -1 10.27 8.62
1 8 1 11.87 6.9
1 8 1 4.17 7.1
1 8 1 9.17 10.41
1 8 1 6.47 7.64
-2 -8 -1 19.79 9.29
2 8 1 9.93 8.27
2 8 1 6.99 6.21
2 8 1 -1.82 6.67
2 8 1 9.67 6.69
-3 -8 -1 11.6 9.49
3 8 1 7.58 11.29
3 8 1 3.89 6.95
3 8 1 -1.81 5.06
-4 -8 -1 14.89 10.41
4 8 1 5.11 6.01
4 8 1 4.05 5.69
4 8 1 -3.43 8.21
5 8 1 -5.14 11.29
5 8 1 12.78 5.62
5 8 1 5.76 12.7
4 -9 -1 11.46 10.8
4 -9 -1 16.31 9.55
4 -9 -1 -7.78 7.94
-4 9 1 1.75 7.16
-4 9 1 15.14 9.65
3 -9 -1 25.88 10.73
3 -9 -1 -1.65 7.81
3 -9 -1 12.99 10.97
-3 9 1 2.79 8.77
-3 9 1 -0.39 10.51
-3 9 1 -6.55 6.8
2 -9 -1 10.81 7.69
2 -9 -1 -0.54 9.08
2 -9 -1 11.27 7.59
-2 9 1 4.59 8.63
-2 9 1 4.04 6.99
-2 9 1 -5.49 8.61
-2 9 1 16.15 11.27
1 -9 -1 -3.71 8.77
1 -9 -1 -0.71 7.74
1 -9 -1 -10.89 7.28
-1 9 1 -2.35 10.63
-1 9 1 2.3 7.1
-1 9 1 9.88 8.72
-1 9 1 10.39 9.36
0 -9 -1 3.86 8.72
0 -9 -1 21.44 7.23
0 9 1 4.57 11.55
0 9 1 11.57 7.77
0 9 1 5.83 8.21
0 9 1 7.93 9.28
-1 -9 -1 7.61 9.82
1 9 1 4.71 11.12
1 9 1 19.31 8.93
1 9 1 10.75 7.4
1 9 1 -1.27 7.37
-2 -9 -1 3.94 7.46
2 9 1 4.07 7.46
2 9 1 -2.23 7.82
2 9 1 10.78 12.05
2 9 1 2.67 7.42
-3 -9 -1 3.79 10.15
3 9 1 2.48 5.71
3 9 1 -8.53 6.81
3 9 1 1.36 11.61
2 -10 -1 8.34 8.86
2 -10 -1 15.3 10.49
-2 10 1 -4.07 7.42
-2 10 1 -8.21 10.11
-2 10 1 7.77 13.19
-2 10 1 12.67 10.42
1 -10 -1 -0.34 9.97
1 -10 -1 13.9 8.51
-1 10 1 4.82 7.94
-1 10 1 18.93 9.35
-1 10 1 7 12.26
-1 10 1 -5.97 9.1
0 -10 -1 -10.38 8.97
0 10 1 15.03 9.07
0 10 1 12.33 8.18
0 10 1 10.67 9.06
0 10 1 5.81 12.34
-1 -10 -1 40.84 12.03
1 10 1 15.15 10.28
1 10 1 23.19 9.04
1 10 1 15.55 10.47
1 10 1 14.94 8.55
1 11 -2 -4.64 7.34
1 11 -2 -1.7 9.28
1 11 -2 11.77 8.28
1 11 -2 24.13 13.02
-1 -11 2 11.09 9.87
0 11 -2 2.33 11.09
0 11 -2 11.17 9.88
0 11 -2 -6.56 7.88
0 11 -2 6.66 8.21
0 -11 2 1.66 9.25
-1 11 -2 6.92 8.02
-1 11 -2 -2.6 9.84
-1 11 -2 11.67 9.05
-1 11 -2 -11.94 9.93
1 -11 2 -6.56 8.01
1 -11 2 3.83 9.27
-2 11 -2 -0.78 8.8
2 -11 2 -10.77 7.22
3 10 -2 7.86 5.92
3 10 -2 9.18 11.54
3 10 -2 1.84 7.86
-3 -10 2 15.62 9.98
2 10 -2 14.26 7.63
2 10 -2 11.91 7.87
2 10 -2 11.74 8.48
2 10 -2 15.37 11.84
-2 -10 2 14.53 9.34
1 10 -2 1.14 6.94
1 10 -2 21.93 11.86
1 10 -2 2.24 7.02
1 10 -2 25.17 8.57
-1 -10 2 4.88 8.65
0 10 -2 21.39 11.27
0 10 -2 17.52 8.83
0 10 -2 29.69 8.56
0 10 -2 20.27 7.86
0 -10 2 17.65 7.34
0 -10 2 27.09 9.39
-1 10 -2 -1.07 6.85
-1 10 -2 1.58 8.24
-1 10 -2 -8.21 7.75
-1 10 -2 -0.98 9.62
1 -10 2 1.07 8.85
1 -10 2 -1.11 8.08
1 -10 2 2.32 7.29
-2 10 -2 15.14 7.36
-2 10 -2 10.56 10.81
-2 10 -2 3.3 8.34
-2 10 -2 16.52 7.44
2 -10 2 16.61 9.1
2 -10 2 29.35 10.56
2 -10 2 10.46 9.88
2 -10 2 13.03 8.04
-3 10 -2 -7 8.24
-3 10 -2 -4.33 6.62
3 -10 2 -9.5 9.74
3 -10 2 1.05 8.63
3 -10 2 5.3 7.35
3 -10 2 2.41 9.99
-4 10 -2 10.53 7.67
-4 10 -2 -6.73 7.89
4 -10 2 17.51 8.13
4 -10 2 0.92 10.93
4 -10 2 25 10.59
5 9 -2 25.32 6.35
5 9 -2 25.01 13.21
-5 -9 2 41.28 11.94
4 9 -2 7.11 11.75
4 9 -2 2.29 6.08
4 9 -2 2.55 5.27
-4 -9 2 7.38 6.85
3 9 -2 5.94 5.87
3 9 -2 8.09 7.53
3 9 -2 7.84 10.95
-3 -9 2 9.18 8.6
2 9 -2 0.05 7.19
2 9 -2 7.28 6.95
2 9 -2 7.37 7.8
2 9 -2 3.73 5.92
-2 -9 2 6.5 7.98
1 9 -2 32.29 7.69
1 9 -2 27.22 7.57
1 9 -2 23.64 9.04
1 9 -2 17.3 8.47
-1 -9 2 3.29 8.09
-1 -9 2 29.23 6.43
0 9 -2 11.56 10.02
0 9 -2 10.94 7.25
0 9 -2 3.71 7.18
0 9 -2 18.37 7.56
0 -9 2 12.58 7.83
0 -9 2 1.04 5.35
0 -9 2 8.85 7.92
-1 9 -2 8.98 7.94
-1 9 -2 -0.33 6.19
-1 9 -2 2.8 9.06
-1 9 -2 2.25 7.55
1 -9 2 8.52 6.1
1 -9 2 12.17 7.93
1 -9 2 -3.59 8.25
1 -9 2 2.01 8.4
-2 9 -2 -4.9 7.3
-2 9 -2 3.29 5.93
-2 9 -2 10.55 6.61
-2 9 -2 8.62 8.55
2 -9 2 -1.7 5.62
2 -9 2 -7.76 8.91
2 -9 2 9.52 9.04
2 -9 2 -4 7.16
-3 9 -2 4.79 8.22
-3 9 -2 13.89 9.38
-3 9 -2 6.86 6.68
3 -9 2 5.77 7.39
3 -9 2 16.02 7
3 -9 2 14.1 9.55
3 -9 2 16.51 10.73
-4 9 -2 0.94 6.72
-4 9 -2 -12.62 7.66
4 -9 2 12.86 7.42
4 -9 2 4.87 9.2
4 -9 2 -5.36 6.25
4 -9 2 -4.11 10.43
-5 9 -2 7.3 9.3
-5 9 -2 3.12 7.38
5 -9 2 6.96 8.84
5 -9 2 11.88 10.13
5 -9 2 -0.27 7.68
6 8 -2 11.77 12.65
6 8 -2 -2.61 4.31
-6 -8 2 3.34 7.46
5 8 -2 5.51 4.74
5 8 -2 29.5 12.89
-5 -8 2 -12.78 8.01
4 8 -2 6.48 5.93
4 8 -2 18.92 11.81
4 8 -2 8.1 4.89
-4 -8 2 12.87 8.48
3 8 -2 8.23 8.31
3 8 -2 4.94 5.33
3 8 -2 -0.7 9.76
3 8 -2 13.56 5.84
3 8 -2 5.19 6.11
-3 -8 2 -2.11 6.94
2 8 -2 9.95 7.86
2 8 -2 -2.62 9.26
2 8 -2 -4.38 6.54
2 8 -2 9.3 5.4
2 8 -2 8.15 6.02
-2 -8 2 7.32 7.32
1 8 -2 12.6 6.6
1 8 -2 21.25 7.59
1 8 -2 10.67 7.24
1 8 -2 25.01 9.96
1 8 -2 14.98 6.38
-1 -8 2 14.58 7.23
-1 -8 2 19.16 7.67
-1 -8 2 14.78 5.6
0 8 -2 54.72 9.54
0 8 -2 81.45 10.88
0 8 -2 57.89 10.24
0 8 -2 69.41 9.28
0 8 -2 56.8 12.38
0 -8 2 40.01 9.57
0 -8 2 78.72 10.68
0 -8 2 58.88 8.22
-1 8 -2 3.44 5.58
-1 8 -2 11.86 6.59
-1 8 -2 -0.28 6.51
-1 8 -2 -4.76 6.71
1 -8 2 -2.31 5.07
1 -8 2 4.11 8.28
1 -8 2 9.49 6.8
1 -8 2 9.26 7.5
-2 8 -2 32.84 9.4
-2 8 -2 35.04 7.5
-2 8 -2 33.89 7.35
-2 8 -2 40.85 9.36
2 -8 2 29.59 9.06
2 -8 2 29.58 7.13
2 -8 2 22.55 9.96
2 -8 2 35.85 8.52
-3 8 -2 -7.59 6.6
-3 8 -2 2.1 5.64
-3 8 -2 9.46 7.86
-3 8 -2 10.99 8
3 -8 2 -0.99 5.54
3 -8 2 14.53 9.82
3 -8 2 7.69 5.55
3 -8 2 5.27 8.27
3 -8 2 -3.21 7.86
3 -8 2 7.64 6.92
-4 8 -2 33.01 8.06
-4 8 -2 37.83 9.38
4 -8 2 28.07 9.69
4 -8 2 30.72 9.94
4 -8 2 38.89 7.77
4 -8 2 39.03 8.35
4 -8 2 45.85 12.18
4 -8 2 29.94 7.96
-5 8 -2 0.86 6.95
-5 8 -2 -9.82 7.49
5 -8 2 8.59 8.45
5 -8 2 -3.22 6.16
5 -8 2 -4.46 8.83
5 -8 2 -7.32 8.44
5 -8 2 -3.6 6.36
-6 8 -2 1.82 8.94
-6 8 -2 6.56 7.81
6 -8 2 -0.36 8.95
6 -8 2 1.16 8.91
6 -8 2 3.69 8.31
6 -8 2 -4.94 9.23
6 -8 2 5.1 7.54
7 7 -2 2.93 10.63
6 7 -2 31.6 12.92
6 7 -2 4.88 10.08
6 7 -2 6.94 3.41
6 7 -2 2.36 2.59
-6 -7 2 10.62 7.15
5 7 -2 4.12 3.78
5 7 -2 19.35 11.76
5 7 -2 3.24 8.91
5 7 -2 5.17 4.07
-5 -7 2 -1.5 8.16
4 7 -2 11.97 5.01
4 7 -2 25.54 5.26
4 7 -2 28.38 5.46
4 7 -2 17.49 9.55
4 7 -2 22.14 9.06
-4 -7 2 29.03 8.76
3 7 -2 9.66 4.98
3 7 -2 5.05 5.53
3 7 -2 5.05 7.23
3 7 -2 13.11 5.32
3 7 -2 11.9 8.17
3 7 -2 11.03 4.7
-3 -7 2 4.51 6.99
2 7 -2 32.41 8.29
2 7 -2 31.58 6.78
2 7 -2 28.57 7.01
2 7 -2 31.16 6.13
2 7 -2 26.57 5.83
2 7 -2 17.13 9.81
-2 -7 2 35.44 6.23
-2 -7 2 25.25 6.52
-2 -7 2 26.75 3.92
1 7 -2 68.51 9.45
1 7 -2 86.25 9.17
1 7 -2 95.6 10.37
1 7 -2 77.71 12.99
1 7 -2 67.59 10.09
1 7 -2 72.45 9.37
1 7 -2 65.94 9.26
-1 -7 2 52.05 9.91
-1 -7 2 72.25 8.42
-1 -7 2 71.51 8.89
-1 -7 2 84.66 8.51
-1 -7 2 72.09 9.48
0 7 -2 36.14 7.56
0 7 -2 40.19 8.61
0 7 -2 54.14 9.02
0 7 -2 48.03 7.65
0 7 -2 35.06 7.1
0 7 -2 43.72 7.61
0 -7 2 42.25 7.75
0 -7 2 41.45 6.48
0 -7 2 37.33 7.99
0 -7 2 35.92 8.51
-1 7 -2 40 7.47
-1 7 -2 38.52 6.87
-1 7 -2 42.21 7.49
-1 7 -2 50.81 9.51
-1 7 -2 39.39 7.18
-1 7 -2 43.35 9.39
1 -7 2 44.53 8.37
1 -7 2 18.53 8.45
1 -7 2 34.84 6.64
1 -7 2 32.61 4.52
1 -7 2 39.79 7.75
1 -7 2 36.36 7.75
-2 7 -2 6.5 6.13
-2 7 -2 11.41 7.66
-2 7 -2 10.64 5.27
-2 7 -2 21.44 7.48
2 -7 2 10.75 8.29
2 -7 2 15 5.96
2 -7 2 8.47 4.29
2 -7 2 13.16 5.61
2 -7 2 5.57 5.15
2 -7 2 14.44 6.39
-3 7 -2 28.16 6.79
-3 7 -2 23.47 6.58
-3 7 -2 27.22 7.62
-3 7 -2 24.65 7.5
3 -7 2 22.47 6.35
3 -7 2 30.04 9.71
3 -7 2 24.82 6.2
3 -7 2 43.69 8.7
3 -7 2 4.5 5.75
3 -7 2 35.64 7.38
-4 7 -2 25.45 6.89
-4 7 -2 14.3 7.38
4 -7 2 19.32 8.28
4 -7 2 10.08 5.9
4 -7 2 12.99 6.19
4 -7 2 10.25 8.21
4 -7 2 13.35 9.73
-5 7 -2 2.96 7.48
-5 7 -2 -1.29 7.79
5 -7 2 -0.46 6.37
5 -7 2 5.31 6.15
5 -7 2 -15.62 7.45
5 -7 2 0.82 8.08
5 -7 2 -1.04 7.43
-6 7 -2 -2.45 7.93
-6 7 -2 3.86 7.04
6 -7 2 0.91 9.28
6 -7 2 -1.93 8.43
6 -7 2 0.83 6.99
6 -7 2 8.18 10.78
6 -7 2 -8.83 7.29
-7 7 -2 -1.09 6.79
7 -7 2 -3.39 7.87
7 -7 2 17.79 9.25
7 -7 2 14.93 10.36
7 -7 2 11.01 9.15
7 -7 2 4.93 12.39
7 6 -2 9.59 11.01
7 6 -2 26.41 11.22
7 6 -2 -9.52 8.97
-7 -6 2 -2.14 9.28
6 6 -2 -0.78 1.99
6 6 -2 4.35 1.77
6 6 -2 20.33 11.32
6 6 -2 -5.09 6.24
6 6 -2 3.02 9.32
6 6 -2 1.22 6.53
-6 -6 2 -15.73 7.74
5 6 -2 39.01 7.39
5 6 -2 37.95 12.24
5 6 -2 24.24 9.56
5 6 -2 26.65 4.42
-5 -6 2 33.8 9.23
4 6 -2 13.52 4.39
4 6 -2 14.87 5.11
4 6 -2 29.85 9.36
4 6 -2 9.81 3.85
4 6 -2 14.96 4.39
4 6 -2 9.74 9.98
4 6 -2 13.87 4.19
-4 -6 2 13.36 7.36
3 6 -2 19.44 4.5
3 6 -2 16.32 7.07
3 6 -2 18.74 9.4
3 6 -2 29.33 5.59
3 6 -2 6.68 4.54
3 6 -2 19.75 4.26
3 6 -2 10.66 4.56
3 6 -2 17.37 4.55
3 6 -2 23.67 4.09
-3 -6 2 16.54 6.92
-3 -6 2 21.24 4.32
2 6 -2 8.58 4.01
2 6 -2 10.61 4.48
2 6 -2 4.57 4.14
2 6 -2 9.77 4.05
2 6 -2 6.65 4.87
2 6 -2 11.87 6.05
2 6 -2 7.68 8.24
-2 -6 2 10.58 2.62
-2 -6 2 4.8 3.78
-2 -6 2 6 2.55
-2 -6 2 16.72 6.29
-2 -6 2 1.27 4.51
1 6 -2 43.87 6.4
1 6 -2 45.03 9.79
1 6 -2 40.96 6.51
1 6 -2 41.27 5.95
1 6 -2 48.69 7.47
1 6 -2 32.99 6
1 6 -2 36.72 6.53
-1 -6 2 42.62 5.61
-1 -6 2 35.8 7.49
-1 -6 2 34.47 5.27
-1 -6 2 37.58 6.75
-1 -6 2 40.65 6.05
0 6 -2 23.86 7.82
0 6 -2 26.62 5.99
0 6 -2 20.68 5.42
0 6 -2 23.98 5.41
0 6 -2 34.47 6.11
0 6 -2 25.78 5.01
0 6 -2 31.27 7.36
0 -6 2 22.33 5.91
0 -6 2 19.51 5.3
0 -6 2 21.47 6.52
0 -6 2 27.22 7.31
0 -6 2 22.81 5.21
-1 6 -2 5.15 6.05
-1 6 -2 2.2 5.41
-1 6 -2 1.46 6.62
-1 6 -2 5.58 4.67
-1 6 -2 -2.08 4.49
-1 6 -2 2.72 4.88
1 -6 2 5.22 5.5
1 -6 2 -2.36 6.14
1 -6 2 2.08 2.64
1 -6 2 -1.46 5.05
1 -6 2 9.33 4.65
1 -6 2 -1.97 3.98
-2 6 -2 8.07 6.38
-2 6 -2 6.31 6.27
-2 6 -2 9.54 5.58
-2 6 -2 7.58 5.28
-2 6 -2 12.48 4.94
2 -6 2 2.55 7.04
2 -6 2 11.99 4.69
2 -6 2 17.05 5.68
2 -6 2 8.87 6.18
2 -6 2 13.19 6.4
2 -6 2 5.5 3.91
2 -6 2 12.27 2.94
-3 6 -2 8.14 6.6
-3 6 -2 8.51 6.01
-3 6 -2 11.42 5.45
-3 6 -2 15.09 5.63
3 -6 2 1.63 6.59
3 -6 2 13.96 4.01
3 -6 2 17.89 5.25
3 -6 2 15.16 8.04
3 -6 2 4.15 6.42
3 -6 2 2.96 4.87
-4 6 -2 13.58 6.87
-4 6 -2 12.64 7.03
-4 6 -2 4.62 5.22
-4 6 -2 7.9 6.02
4 -6 2 9.64 5.46
4 -6 2 9.74 5.97
4 -6 2 9.22 5.59
4 -6 2 6.98 5.51
4 -6 2 2.34 6.39
-5 6 -2 -1.61 7.13
-5 6 -2 0.76 6.06
5 -6 2 -1.1 6
5 -6 2 -1.36 7.74
5 -6 2 -2.19 9.06
5 -6 2 5.21 7.59
5 -6 2 4.86 7.81
-6 6 -2 6.95 7.88
-6 6 -2 4.23 7.1
6 -6 2 -0.17 8.79
6 -6 2 8.32 8.24
6 -6 2 9.24 6.86
6 -6 2 -0.71 7.61
6 -6 2 12.27 8.19
-7 6 -2 6.68 7.21
7 -6 2 4.97 9.18
7 -6 2 3.57 8.65
7 -6 2 3.09 7.76
7 -6 2 10.17 7.19
7 -6 2 1.64 8.33
8 5 -2 23.09 10.9
8 5 -2 15.58 9.91
8 5 -2 5.11 11.99
7 5 -2 -16.12 6.39
7 5 -2 -2.53 8.56
7 5 -2 6.66 8.98
7 5 -2 -0.28 6.41
7 5 -2 -3.56 10.75
6 5 -2 -5.96 6.72
6 5 -2 -3.18 6.67
6 5 -2 7.32 11
6 5 -2 11.92 10.19
-6 -5 2 -2.32 7.68
5 5 -2 -0.17 2.63
5 5 -2 10.66 8.67
5 5 -2 2.99 6.1
-5 -5 2 -7.32 6.46
4 5 -2 22.63 3.38
4 5 -2 16.87 3.45
4 5 -2 12.14 2.65
4 5 -2 27.44 5.61
4 5 -2 8.15 3.28
4 5 -2 21.96 8.82
4 5 -2 11.57 3.37
-4 -5 2 22.5 6.99
-4 -5 2 7.85 1.87
-4 -5 2 8.58 1.96
3 5 -2 3.51 6.91
3 5 -2 5.58 3.02
3 5 -2 15.76 4.16
3 5 -2 4.79 2.94
3 5 -2 9.53 3.38
3 5 -2 7.04 3.85
3 5 -2 8.14 3.69
3 5 -2 6.55 3.52
-3 -5 2 0.93 1.23
-3 -5 2 6.57 4.51
2 5 -2 4.23 3.01
2 5 -2 3.35 4.01
2 5 -2 4.14 2.01
2 5 -2 4.42 4.01
2 5 -2 1.87 3.31
2 5 -2 7.62 5.78
2 5 -2 2.97 3.89
2 5 -2 2.5 3.44
-2 -5 2 4.8 3.57
-2 -5 2 4.05 1.98
-2 -5 2 6.1 3.32
-2 -5 2 3.74 5.35
1 5 -2 32.86 5.43
1 5 -2 42.41 5.91
1 5 -2 38.52 5.47
1 5 -2 38.14 6.35
1 5 -2 38.56 6.85
1 5 -2 35.54 5.3
-1 -5 2 38.3 5.46
-1 -5 2 26.16 5.91
-1 -5 2 27.19 4.76
-1 -5 2 33.49 6.84
-1 -5 2 24.69 5.54
-1 -5 2 41.47 4.99
0 5 -2 92.5 9.23
0 5 -2 101.8 9.57
0 5 -2 93.3 9.6
0 5 -2 86.64 9.05
0 5 -2 89.74 9.38
0 5 -2 92.56 9.48
0 -5 2 96.51 9.66
0 -5 2 70.53 9.82
0 -5 2 81.24 8.81
0 -5 2 83.75 8.75
0 -5 2 81.9 9.36
0 -5 2 73.6 9.41
0 -5 2 102.89 10.62
-1 5 -2 31.25 6.02
-1 5 -2 50.75 7.7
-1 5 -2 41.26 6.87
-1 5 -2 39.45 7.94
-1 5 -2 32.19 6.32
-1 5 -2 47.41 6.79
1 -5 2 45.61 5.11
1 -5 2 46.1 6.24
1 -5 2 38.76 6.26
1 -5 2 42.42 6.04
1 -5 2 41.76 3.78
1 -5 2 46.31 8
1 -5 2 42.77 6.87
1 -5 2 43.72 6.14
-2 5 -2 39.77 6.73
-2 5 -2 40.12 6.82
-2 5 -2 37.25 6.42
-2 5 -2 40.38 7.11
-2 5 -2 53.96 7.08
2 -5 2 48.63 5.24
2 -5 2 49.42 7.48
2 -5 2 43.82 8.48
2 -5 2 54.16 7
2 -5 2 35.45 6.24
2 -5 2 47.89 6.44
2 -5 2 50.97 7.34
-3 5 -2 20.75 6.37
-3 5 -2 37.27 7.2
-3 5 -2 31.55 5.53
-3 5 -2 18.58 5.47
3 -5 2 33.92 6.09
3 -5 2 36.59 6.72
3 -5 2 25.06 7.2
3 -5 2 16.76 5.54
3 -5 2 31.3 6.66
3 -5 2 31.59 7.04
3 -5 2 36.75 5.14
3 -5 2 31.01 7.24
-4 5 -2 92.31 11.23
-4 5 -2 121.37 12.32
-4 5 -2 118.56 12.55
-4 5 -2 102.84 9.59
4 -5 2 99.38 13.74
4 -5 2 95.21 11.36
4 -5 2 99.52 12.37
4 -5 2 115.04 12.05
4 -5 2 114.93 12.92
4 -5 2 114.59 11.49
4 -5 2 118.88 12.7
-5 5 -2 2.11 5.52
-5 5 -2 0.27 5.74
5 -5 2 -1.62 6.07
5 -5 2 7.47 6.09
5 -5 2 -3.05 4.77
5 -5 2 2.23 5.47
5 -5 2 8.96 7.02
5 -5 2 9.36 8.65
-6 5 -2 4.94 6.49
-6 5 -2 -9.11 6.47
6 -5 2 4.38 7.67
6 -5 2 9.05 6.5
6 -5 2 23.49 7.04
6 -5 2 1.01 6.88
6 -5 2 14.52 8.36
6 -5 2 8.98 9.98
7 -5 2 -15.2 8.01
7 -5 2 7.79 7.72
7 -5 2 -6.4 8.83
7 -5 2 0.7 6.69
7 -5 2 -1.06 7.88
8 -5 2 8.72 8.89
8 -5 2 7.27 9.16
8 -5 2 14.41 9.03
8 -5 2 6.12 12.23
8 -5 2 14.16 10.51
8 4 -2 8.64 8.65
8 4 -2 -5.94 8.14
8 4 -2 4.39 12.22
7 4 -2 -6.64 10.17
7 4 -2 1.43 7.96
7 4 -2 13.54 7.99
7 4 -2 5.61 6.27
6 4 -2 -3.35 8.98
6 4 -2 1.87 1.56
6 4 -2 1.25 6.75
6 4 -2 -0.51 5.57
6 4 -2 2.34 6.76
-6 -4 2 2.73 7.02
5 4 -2 13.18 3.06
5 4 -2 22.9 7.15
5 4 -2 11.26 2.65
5 4 -2 19.66 8.93
5 4 -2 17.12 6.3
-5 -4 2 14.05 5.62
4 4 -2 6.45 2.74
4 4 -2 8.38 2.56
4 4 -2 0.4 4.98
4 4 -2 7.03 2.38
4 4 -2 4.71 2.04
4 4 -2 -1.16 6.77
4 4 -2 2.99 2.1
4 4 -2 4.82 2.59
-4 -4 2 5.67 5.62
3 4 -2 18.58 3.22
3 4 -2 23.03 3.3
3 4 -2 20.57 3.42
3 4 -2 47.11 7.32
3 4 -2 38.03 5.49
3 4 -2 16.45 3.36
3 4 -2 25.69 4.82
-3 -4 2 18.89 3.08
-3 -4 2 36.14 6.43
-3 -4 2 16.18 2.96
2 4 -2 6.25 3.25
2 4 -2 12.14 2.81
2 4 -2 9.79 3.38
2 4 -2 21.14 6.04
2 4 -2 16.09 3.09
2 4 -2 2.93 3.43
2 4 -2 -3.49 3.67
2 4 -2 6.75 3.19
2 4 -2 8.65 3.05
-2 -4 2 12.88 2.94
-2 -4 2 9.7 4.58
-2 -4 2 8.9 2.88
-2 -4 2 10.98 5.16
-2 -4 2 9.03 1.44
-2 -4 2 11.34 3.14
1 4 -2 248.62 18.31
1 4 -2 222.65 17.36
1 4 -2 192.38 17.39
1 4 -2 186.43 17.3
1 4 -2 169.62 17.06
1 4 -2 214.03 17.42
1 4 -2 229.67 16.58
-1 -4 2 225.09 17.12
-1 -4 2 198.05 17.27
-1 -4 2 191.74 17.33
-1 -4 2 183.91 17.22
-1 -4 2 198.82 17.05
0 4 -2 86.25 8.53
0 4 -2 75.39 7.93
0 4 -2 76.15 8.67
0 4 -2 74.43 7.9
0 4 -2 89.35 8.52
0 4 -2 83.5 9.93
0 4 -2 83.39 8.3
0 4 -2 89.56 9.01
0 -4 2 90.9 9.36
0 -4 2 70.08 8.02
0 -4 2 84.24 8.93
0 -4 2 84.2 8.85
0 -4 2 75.06 6.46
0 -4 2 81.69 8.67
0 -4 2 80.28 8.52
0 -4 2 81.29 8.42
0 -4 2 85.07 8.27
0 -4 2 80.91 7.93
0 -4 2 77.99 6.47
-1 4 -2 103.96 10.98
-1 4 -2 110.83 10.59
-1 4 -2 107.57 10.64
-1 4 -2 125.48 12.02
-1 4 -2 111.59 10.33
-1 4 -2 112.69 11.26
-1 4 -2 120.82 10.89
1 -4 2 113.38 9.92
1 -4 2 123.85 11.37
1 -4 2 116.05 10.51
1 -4 2 102.98 10.03
1 -4 2 106.72 11.27
1 -4 2 112.83 10.34
1 -4 2 112.48 9.31
1 -4 2 103.41 11.02
1 -4 2 104.75 11.75
1 -4 2 103.84 10.47
-2 4 -2 32.2 5.27
-2 4 -2 29.08 5.17
-2 4 -2 31.01 5.56
-2 4 -2 21.41 4.79
-2 4 -2 25.27 6.11
2 -4 2 28.72 6.17
2 -4 2 21.74 5.66
2 -4 2 24.13 4.89
2 -4 2 30.08 6.33
2 -4 2 29.27 5.31
2 -4 2 36.49 5.78
2 -4 2 34.83 7.28
2 -4 2 31.4 4.32
-3 4 -2 68.36 8.59
-3 4 -2 66.75 8.37
-3 4 -2 71.61 8.24
-3 4 -2 69.03 6.95
3 -4 2 73.45 8.27
3 -4 2 64.97 8.78
3 -4 2 67.65 7.21
3 -4 2 59.62 8.83
3 -4 2 60.73 8.54
3 -4 2 74.1 10.76
3 -4 2 88.55 9.28
3 -4 2 67.14 8.37
-4 4 -2 1.63 4.86
-4 4 -2 4.18 5.07
-4 4 -2 5.15 4.34
4 -4 2 8.41 4.51
4 -4 2 -0.97 4.81
4 -4 2 5.49 4.88
4 -4 2 5.97 5.93
4 -4 2 4.07 4.01
4 -4 2 -0.04 5.64
4 -4 2 1.72 4.68
-5 4 -2 1.38 5.23
-5 4 -2 8.77 5.96
5 -4 2 -4.89 4.76
5 -4 2 13.23 5.58
5 -4 2 5.2 6.46
5 -4 2 1.82 6.9
5 -4 2 4.64 8.93
5 -4 2 6.78 6.16
-6 4 -2 -7.3 5.78
-6 4 -2 9.01 5.64
6 -4 2 -7.31 6.61
6 -4 2 4.28 5.75
6 -4 2 10.72 6.7
6 -4 2 4.37 6.43
6 -4 2 6.97 8.23
6 -4 2 5.44 9.99
7 -4 2 0.29 10.62
7 -4 2 12.25 8.42
7 -4 2 6.29 9.03
7 -4 2 5.25 6.96
7 -4 2 10.6 7.16
8 -4 2 -8.63 7.48
8 -4 2 -2.14 12.1
8 -4 2 -11.55 7.25
8 -4 2 21.6 10.58
8 -4 2 3.07 8.26
8 3 -2 2.19 7.04
8 3 -2 8.36 9.66
8 3 -2 6.27 1.47
8 3 -2 14.81 12
8 3 -2 1.27 1.74
7 3 -2 2.54 2.7
7 3 -2 5.99 10.37
7 3 -2 -18.36 5.47
7 3 -2 13.56 7.25
7 3 -2 -2.3 7.89
6 3 -2 -3.99 6.8
6 3 -2 -8.56 4.87
6 3 -2 1.56 3.17
6 3 -2 4.27 6.89
6 3 -2 6.79 2.76
6 3 -2 -0.92 8.71
5 3 -2 29.7 8.96
5 3 -2 28.65 6.65
5 3 -2 30.53 3.64
5 3 -2 34.37 7.39
5 3 -2 13.15 3.24
5 3 -2 25.79 3.27
5 3 -2 24.23 3.98
-5 -3 2 32.89 7.07
4 3 -2 17.97 3.24
4 3 -2 2.32 5.09
4 3 -2 9.89 2.31
4 3 -2 25.06 2.86
4 3 -2 12.17 5.24
4 3 -2 17.93 2.57
4 3 -2 24.69 4.79
4 3 -2 17.24 2.45
4 3 -2 9.84 2.78
-4 -3 2 13.12 5.41
3 3 -2 54.21 5.17
3 3 -2 53.68 5.73
3 3 -2 49.01 6.75
3 3 -2 62.06 7.21
3 3 -2 53.68 5.46
-3 -3 2 51.64 5.26
-3 -3 2 66.17 7.14
2 3 -2 44 4.98
2 3 -2 39.31 4.27
2 3 -2 34.84 4.33
2 3 -2 40.1 7.13
2 3 -2 34.52 4.5
2 3 -2 50.01 5.42
2 3 -2 38.09 4.5
2 3 -2 48.75 5.66
2 3 -2 44.8 4.72
2 3 -2 26.58 4.32
-2 -3 2 40.6 6.35
-2 -3 2 33.42 4.21
-2 -3 2 31.73 4.35
-2 -3 2 36.52 6.07
-2 -3 2 43.01 4.34
1 3 -2 89.49 7.27
1 3 -2 79.08 7.9
1 3 -2 89.89 9.38
1 3 -2 87.13 8.01
1 3 -2 84.67 8.12
1 3 -2 81.96 8.04
1 3 -2 85.88 9.75
1 3 -2 64.7 7.98
1 3 -2 84.33 8.19
1 3 -2 80.23 8.18
-1 -3 2 95 7.93
-1 -3 2 87.22 7.92
-1 -3 2 86.01 8.91
-1 -3 2 85.09 8.38
-1 -3 2 87.65 7.98
-1 -3 2 103.52 9.23
-1 -3 2 87.5 7.84
-1 -3 2 86 7.36
-1 -3 2 76.6 7.65
0 3 -2 103.72 9.78
0 3 -2 108.25 10.03
0 3 -2 96.29 10
0 3 -2 104.16 9.86
0 3 -2 109.68 9.56
0 3 -2 106.62 11.09
0 3 -2 107.16 9.83
0 3 -2 106.28 10.49
0 3 -2 104.92 8.59
0 3 -2 107.91 9.77
0 -3 2 109.35 9.66
0 -3 2 95.68 9.3
0 -3 2 95.78 9.39
0 -3 2 110.54 8.8
0 -3 2 106.14 9.62
0 -3 2 121.25 10.54
0 -3 2 91.69 9.35
0 -3 2 104.5 11.38
0 -3 2 106.53 10.02
0 -3 2 111.32 10.17
-1 3 -2 5.29 2.81
-1 3 -2 9.4 3.13
-1 3 -2 1.03 2.9
-1 3 -2 5.17 4.03
-1 3 -2 7.44 3.35
-1 3 -2 -0.62 3.6
-1 3 -2 3.36 4.21
-1 3 -2 0.27 4.98
-1 3 -2 5.3 4.43
-1 3 -2 3.24 3.11
1 -3 2 3.61 3.82
1 -3 2 -1.04 4.96
1 -3 2 6.06 3.12
1 -3 2 3.02 4.63
1 -3 2 7.43 3.8
1 -3 2 1.29 4.76
1 -3 2 2.48 2.45
1 -3 2 4.76 4.24
1 -3 2 4.52 3.6
1 -3 2 2.51 2.91
-2 3 -2 7.2 3.97
-2 3 -2 9.02 4.11
-2 3 -2 4.26 3.49
-2 3 -2 7.23 3.97
-2 3 -2 10.86 4.38
-2 3 -2 9.58 3.81
-2 3 -2 8.98 4.11
2 -3 2 1.7 3.89
2 -3 2 3.1 4.58
2 -3 2 4.21 5.75
2 -3 2 4.65 4.35
2 -3 2 9.17 4.51
2 -3 2 8.91 3.54
2 -3 2 7.76 4.68
2 -3 2 6.81 4.2
2 -3 2 -1.52 3.99
2 -3 2 7.72 4.18
-3 3 -2 18.94 3.98
-3 3 -2 19.08 4.3
-3 3 -2 18.79 4.87
-3 3 -2 34.15 5.54
-3 3 -2 11.32 5.49
-3 3 -2 19.09 4.58
3 -3 2 12.25 4.3
3 -3 2 11.78 4.71
3 -3 2 13.66 4.69
3 -3 2 15.74 5.07
3 -3 2 16.49 4.18
3 -3 2 30.96 5.84
3 -3 2 13.91 4.85
3 -3 2 13.78 4.97
-4 3 -2 45.36 7.57
-4 3 -2 64.83 8.58
-4 3 -2 60.24 7.39
-4 3 -2 55.4 6.87
-4 3 -2 64.15 7.73
4 -3 2 59.52 7.46
4 -3 2 57.31 9.74
4 -3 2 52.62 7.7
4 -3 2 56.24 8.16
4 -3 2 66.97 8.2
4 -3 2 64.27 8.5
4 -3 2 56.23 7.85
4 -3 2 52.67 7.47
-5 3 -2 0.9 4.29
-5 3 -2 7.6 5.14
-5 3 -2 -1.38 3.54
-5 3 -2 -0.13 4.41
5 -3 2 6.98 7.92
5 -3 2 -5.07 5.17
5 -3 2 -5.64 5.65
5 -3 2 -2.73 5.53
5 -3 2 -1.92 5.12
5 -3 2 12.84 6.47
5 -3 2 -8 5.08
5 -3 2 -8.3 6.27
-6 3 -2 -3.5 5.85
-6 3 -2 4.95 4.41
6 -3 2 2.8 8.71
6 -3 2 1.02 6.22
6 -3 2 -8.81 5.78
6 -3 2 -0.53 6.92
6 -3 2 -5.11 7.41
6 -3 2 7.1 6.39
7 -3 2 7.52 6.58
7 -3 2 -1.33 7.08
7 -3 2 -0.19 6.16
7 -3 2 -1.53 8.53
7 -3 2 4.68 10.09
7 -3 2 -1.31 6.95
8 -3 2 16.01 8.27
8 -3 2 2.24 7.43
8 -3 2 7.51 11.49
8 -3 2 8.6 7.83
8 2 -2 1.68 8.53
8 2 -2 1.13 4.05
8 2 -2 3.18 6.96
8 2 -2 3.15 6.73
7 2 -2 2.72 3.55
7 2 -2 -2.92 6.85
7 2 -2 7.11 4.46
7 2 -2 -7.39 9.22
7 2 -2 6.1 6.48
6 2 -2 2.67 5.6
6 2 -2 -1.21 3.46
6 2 -2 0.19 3.2
6 2 -2 -0.61 4.34
6 2 -2 7.36 8.77
6 2 -2 13.06 7.68
6 2 -2 -1.1 2.26
6 2 -2 -17.06 4.72
5 2 -2 3.81 2.61
5 2 -2 1.04 4.47
5 2 -2 3.38 2.65
5 2 -2 2.35 2.56
5 2 -2 0.48 2.97
5 2 -2 0.57 7.26
5 2 -2 2.09 5.08
5 2 -2 1.08 4.04
5 2 -2 -0.56 4.38
5 2 -2 -0.84 2.8
-5 -2 2 3.08 1.56
-5 -2 2 2.73 4.83
-5 -2 2 0.68 1.53
4 2 -2 16.92 4.36
4 2 -2 13.14 7.22
4 2 -2 8.99 3.5
4 2 -2 9.44 2.84
4 2 -2 10.73 2.59
4 2 -2 13.5 2.91
4 2 -2 19 3.14
4 2 -2 9.16 2.96
4 2 -2 23.92 6.09
-4 -2 2 21.03 5.56
-4 -2 2 8.29 2.24
-4 -2 2 13 2.38
3 2 -2 0.91 4.43
3 2 -2 -1.25 2.43
3 2 -2 11.35 4.06
3 2 -2 2.52 2.39
3 2 -2 4.24 2.63
3 2 -2 3.52 4.49
3 2 -2 3.83 3.41
3 2 -2 7.73 3.02
3 2 -2 3.86 2.59
3 2 -2 4.23 3.44
3 2 -2 3.09 2.15
-3 -2 2 4 2.28
-3 -2 2 3.84 3.74
-3 -2 2 0.74 1.63
-3 -2 2 6.49 1.43
2 2 -2 -1.36 2.17
2 2 -2 1.47 2.57
2 2 -2 -4.18 5.22
2 2 -2 -1.49 2.22
2 2 -2 -9.95 2.95
2 2 -2 3.01 2.68
2 2 -2 -6.05 2.92
2 2 -2 -2.56 2.67
-2 -2 2 4.32 2.13
-2 -2 2 1.86 1.08
-2 -2 2 -4.96 4.35
-2 -2 2 -0.16 1.24
-2 -2 2 1.27 3.39
-2 -2 2 -2.13 2.53
-2 -2 2 -0.52 2.28
-2 -2 2 -1.77 2.1
-2 -2 2 -2.27 3.54
1 2 -2 37.41 4.65
1 2 -2 37.68 4.35
1 2 -2 38.02 4.62
1 2 -2 37.8 5.42
1 2 -2 36.25 4.38
1 2 -2 51.66 6.95
1 2 -2 34.12 4.42
1 2 -2 25.87 4.03
-1 -2 2 25.42 4.51
-1 -2 2 53.55 6.36
-1 -2 2 39 4.32
-1 -2 2 35.5 4.44
-1 -2 2 35.87 4.06
-1 -2 2 44.84 4.34
-1 -2 2 32.85 4.14
-1 -2 2 31.59 4.22
0 2 -2 129.97 12.91
0 2 -2 153.69 13.34
0 2 -2 158.38 13.26
0 2 -2 150.12 13.16
0 2 -2 159.76 13.16
0 2 -2 158.36 13.14
0 2 -2 164.56 13.85
0 2 -2 142.94 12.9
0 2 -2 169.06 14.11
0 -2 2 160.12 13.04
0 -2 2 154.24 13.08
0 -2 2 163.96 12.78
0 -2 2 151.77 13.03
0 -2 2 156.02 13.73
0 -2 2 152.44 13.14
0 -2 2 147.51 12.97
0 -2 2 159.14 13.21
0 -2 2 150.01 14.02
0 -2 2 144.89 13.07
-1 2 -2 47.27 6.21
-1 2 -2 58.94 5.66
-1 2 -2 38.76 5.21
-1 2 -2 48.73 6.64
-1 2 -2 46.01 5.6
-1 2 -2 47.09 5.31
-1 2 -2 47.42 7.19
-1 2 -2 43.86 6.03
-1 2 -2 50.13 5.91
-1 2 -2 44.69 5.45
1 -2 2 43.47 5.6
1 -2 2 48.81 5.78
1 -2 2 51.87 5.52
1 -2 2 58.65 6.74
1 -2 2 53.38 5.74
1 -2 2 52.75 5.65
1 -2 2 39.37 5.96
1 -2 2 47.6 5.23
1 -2 2 42.83 5.9
1 -2 2 41.63 6.31
-2 2 -2 -3.33 4.51
-2 2 -2 5.67 2.33
-2 2 -2 3.93 3.02
-2 2 -2 5.63 3.47
-2 2 -2 -0.51 3.22
-2 2 -2 2.45 3.87
-2 2 -2 6.11 4.1
-2 2 -2 4.19 3.55
-2 2 -2 0.9 3.62
-2 2 -2 3.1 3.24
2 -2 2 8.46 3.92
2 -2 2 7.88 3.56
2 -2 2 0.26 3.7
2 -2 2 0.12 3.76
2 -2 2 -1.86 3.21
2 -2 2 5.48 3.96
2 -2 2 2.31 5.01
2 -2 2 2.39 3.67
2 -2 2 9.39 5.5
2 -2 2 7.5 4.82
-3 2 -2 21.52 5.38
-3 2 -2 28.52 4.54
-3 2 -2 25.57 4.12
-3 2 -2 30.58 4.74
-3 2 -2 31.55 5.76
3 -2 2 21.45 4.7
3 -2 2 24.04 4.9
3 -2 2 15.64 4.73
3 -2 2 26.83 4.49
3 -2 2 30.19 4.94
3 -2 2 17.96 5.56
3 -2 2 26.01 5.48
3 -2 2 29.62 5.15
-4 2 -2 39.14 5.44
-4 2 -2 39.89 5.87
-4 2 -2 41.36 7.03
-4 2 -2 35.27 5.48
-4 2 -2 28.02 4.62
4 -2 2 38.48 6.08
4 -2 2 35.34 6.97
4 -2 2 38.61 6.08
4 -2 2 29.75 5.48
4 -2 2 40.81 5.99
4 -2 2 42.71 5.9
4 -2 2 28.72 6.53
-5 2 -2 10.32 4.25
-5 2 -2 7.14 6.61
-5 2 -2 0.04 2.83
-5 2 -2 -0.75 3.48
-5 2 -2 0.08 4.13
5 -2 2 5.61 4.22
5 -2 2 -5.6 4.23
5 -2 2 4.47 5.28
5 -2 2 2.98 4.69
5 -2 2 11.96 6.15
5 -2 2 -1.99 5.06
5 -2 2 9.11 5.29
6 -2 2 5.6 7.98
6 -2 2 5.6 4.92
6 -2 2 -0.3 5.44
6 -2 2 5.56 6.04
6 -2 2 11.08 6.48
6 -2 2 -0.34 7.35
7 -2 2 -3.38 6.6
7 -2 2 -7.8 4.98
7 -2 2 -2.09 7.43
7 -2 2 1.56 5.73
7 -2 2 -2.1 8.56
7 -2 2 -5.23 9
8 -2 2 -0.81 9.53
8 -2 2 -7.35 10.4
8 -2 2 10.01 6.87
8 -2 2 -1.72 6.2
8 1 -2 3.83 10.52
8 1 -2 5.65 4.96
8 1 -2 1.78 9.51
8 1 -2 12.99 7.63
7 1 -2 -16.2 7.61
7 1 -2 3.97 3.74
7 1 -2 4.48 9.45
7 1 -2 -0.77 6.23
7 1 -2 4.15 4.31
7 1 -2 2.81 5.44
6 1 -2 4.65 4.13
6 1 -2 0.16 4.17
6 1 -2 0.66 3.75
6 1 -2 1.28 5.37
6 1 -2 1.09 3.82
6 1 -2 -3.27 4.3
6 1 -2 -7.02 5.55
6 1 -2 -4.02 6.99
5 1 -2 2.06 3.31
5 1 -2 0.84 4.74
5 1 -2 6.33 3.73
5 1 -2 3.4 3.73
5 1 -2 -4.21 5.15
5 1 -2 0.68 3.25
5 1 -2 -2.57 3.24
5 1 -2 8.1 3.51
5 1 -2 0.35 3.67
5 1 -2 -2.93 4.69
-5 -1 2 -2.63 1.87
4 1 -2 -11.79 4.26
4 1 -2 12.8 3.62
4 1 -2 10.63 3.04
4 1 -2 5.41 6.58
4 1 -2 11.09 3.2
4 1 -2 6.15 3.26
4 1 -2 11.34 6.16
4 1 -2 3.96 3.48
4 1 -2 3.73 3.09
4 1 -2 13.03 4.4
-4 -1 2 6.24 4.02
-4 -1 2 5.17 2.73
-4 -1 2 8.1 2.96
-4 -1 2 4.83 2.08
3 1 -2 8.23 3.23
3 1 -2 5.06 3.44
3 1 -2 0.17 3.07
3 1 -2 -2.9 5.71
3 1 -2 -0.62 3.33
3 1 -2 5.99 3.14
3 1 -2 -0.11 2.86
3 1 -2 3.57 2.66
3 1 -2 4.3 3.07
3 1 -2 6.15 5.27
-3 -1 2 10.44 4.77
-3 -1 2 3.97 2.42
-3 -1 2 4.38 2.58
-3 -1 2 1.57 3.45
-3 -1 2 0 2.86
-3 -1 2 2.34 2.84
2 1 -2 56.02 6.17
2 1 -2 47.87 5.77
2 1 -2 60.74 8.22
2 1 -2 60.92 6.79
2 1 -2 67.06 6.41
2 1 -2 52.31 6.21
2 1 -2 65.28 6.41
2 1 -2 62.55 6.06
2 1 -2 71.6 6.24
2 1 -2 54.97 6.19
-2 -1 2 62.03 6.1
-2 -1 2 59.19 5.73
-2 -1 2 63.91 6.3
-2 -1 2 59.62 5.71
-2 -1 2 62.35 6.02
-2 -1 2 66.55 6.28
-2 -1 2 62.14 5.95
-2 -1 2 56.86 5.97
-2 -1 2 73.84 7.42
1 1 -2 15.35 3.3
1 1 -2 24.33 4.1
1 1 -2 22.09 4.67
1 1 -2 24.83 3.82
1 1 -2 22.29 3.76
1 1 -2 18.62 3.84
1 1 -2 18.24 5.54
1 1 -2 24.63 3.74
1 1 -2 22.55 3.59
-1 -1 2 19.9 3.43
-1 -1 2 25.38 5.23
-1 -1 2 25.53 4
-1 -1 2 18.73 3.36
-1 -1 2 17.82 3.6
-1 -1 2 26.11 3.65
-1 -1 2 13.9 4.02
-1 -1 2 20.47 3.15
0 1 -2 45.2 5.87
0 1 -2 34.61 4.43
0 1 -2 34.98 4.45
0 1 -2 28.63 4.6
0 1 -2 36.2 4.4
0 1 -2 30.98 4.42
0 1 -2 16.99 4.29
0 1 -2 28.77 5
0 1 -2 26.38 4.07
0 1 -2 22.72 4.08
0 -1 2 37.49 4.36
0 -1 2 30.56 3.95
0 -1 2 32.49 3.73
0 -1 2 27.33 3.72
0 -1 2 30.54 4.05
0 -1 2 33.05 4.31
0 -1 2 18.91 5.28
0 -1 2 25.77 5.02
0 -1 2 28.31 4.39
0 -1 2 30.88 3.92
0 -1 2 35.62 4.78
-1 1 -2 116.05 10.49
-1 1 -2 118.04 10.7
-1 1 -2 122.87 10.68
-1 1 -2 117.58 10.93
-1 1 -2 120.95 10.66
-1 1 -2 119.19 11.17
-1 1 -2 120.15 10.21
-1 1 -2 110.18 10.12
-1 1 -2 120.9 10.32
-1 1 -2 113.26 10.94
-1 1 -2 118.46 10.62
1 -1 2 122.54 11.11
1 -1 2 127.96 10.92
1 -1 2 114.95 11.07
1 -1 2 125.24 10.66
1 -1 2 115.64 10.56
1 -1 2 125.41 10.54
1 -1 2 108.51 10.47
1 -1 2 120.33 10.59
1 -1 2 122.18 10.4
1 -1 2 118.09 10.58
1 -1 2 119.73 11.31
-2 1 -2 15.35 3.87
-2 1 -2 18.35 3.66
-2 1 -2 17.99 3.27
-2 1 -2 16 4.92
-2 1 -2 13.64 3.23
-2 1 -2 17.44 3.75
-2 1 -2 16.42 3.15
-2 1 -2 20.37 3.71
-2 1 -2 14.25 4.68
-2 1 -2 23.22 5.25
2 -1 2 21.44 3.43
2 -1 2 15.3 3.66
2 -1 2 16.43 3.79
2 -1 2 13.73 3.97
2 -1 2 13.49 3.99
2 -1 2 20.22 5.39
2 -1 2 19.24 6.1
2 -1 2 18.17 5.51
2 -1 2 12 3.64
2 -1 2 14.24 3.64
2 -1 2 17.31 3.78
-3 1 -2 12.1 3.8
-3 1 -2 4.75 3.81
-3 1 -2 7.21 3.04
-3 1 -2 11.52 3.38
-3 1 -2 5.96 4.61
-3 1 -2 8.13 2.8
3 -1 2 13.07 6.1
3 -1 2 2.1 3.1
3 -1 2 8 3.21
3 -1 2 8.4 3.33
3 -1 2 0.11 2.7
3 -1 2 9.86 3.38
3 -1 2 18.16 4.11
3 -1 2 15.31 5.39
3 -1 2 7.55 3.48
-4 1 -2 0.98 1.99
-4 1 -2 -3.08 3.14
-4 1 -2 2.99 3.53
-4 1 -2 -0.54 2.47
-4 1 -2 6.31 4.23
4 -1 2 5.93 4.04
4 -1 2 6.55 4.93
4 -1 2 -0.14 3.97
4 -1 2 6.27 5.41
4 -1 2 1.18 3.13
4 -1 2 -0.46 3.19
4 -1 2 1.3 2.69
4 -1 2 3.03 3.42
-5 1 -2 2.99 3.29
-5 1 -2 5.06 3.97
-5 1 -2 3.21 4.89
5 -1 2 -2.48 4.27
5 -1 2 2.58 2.92
5 -1 2 0.23 4.7
5 -1 2 11.64 4.08
5 -1 2 -0.57 3.72
5 -1 2 9.73 7.41
5 -1 2 -1.89 7.03
5 -1 2 1.63 4.09
-6 1 -2 9.3 7.63
6 -1 2 -2.15 5.29
6 -1 2 10.73 4.86
6 -1 2 -0.51 4.28
6 -1 2 0.57 5.25
6 -1 2 8.71 8.51
6 -1 2 0.66 7.19
7 -1 2 10.09 5.6
7 -1 2 -3.84 5.84
7 -1 2 1.6 6.48
7 -1 2 -4.74 8.45
7 -1 2 -14.06 8.47
8 -1 2 4.73 5.94
8 -1 2 -1.59 5.95
8 -1 2 11.59 8.06
8 -1 2 5.45 7.7
9 0 -2 -8.42 10.41
9 0 -2 12.42 9.46
8 0 -2 3.73 7.84
8 0 -2 -5.14 8.88
8 0 -2 -2.55 5.25
8 0 -2 -2.83 4.78
7 0 -2 15.95 5.5
7 0 -2 13.02 5.04
7 0 -2 13.73 8.94
7 0 -2 14.3 7.36
7 0 -2 8.2 5.54
6 0 -2 21.85 5.6
6 0 -2 23.64 5.67
6 0 -2 24.95 6.04
6 0 -2 19.9 8.65
6 0 -2 15.28 5.12
6 0 -2 25.73 7.16
6 0 -2 12.59 4.41
5 0 -2 26.37 4.39
5 0 -2 37.43 6.66
5 0 -2 27.17 5.11
5 0 -2 32.61 5.78
5 0 -2 24.36 4.64
5 0 -2 17.36 3.9
5 0 -2 28.62 5.11
5 0 -2 22.11 7.77
5 0 -2 28.4 5.52
-5 0 2 18.54 3.84
-5 0 2 29.51 5.06
4 0 -2 10.91 3.95
4 0 -2 16.76 3.34
4 0 -2 22.3 5.13
4 0 -2 18.64 4.04
4 0 -2 17.23 4.3
4 0 -2 8.01 4.12
4 0 -2 29.15 6.17
4 0 -2 13.81 2.68
4 0 -2 15.43 5.37
4 0 -2 11.6 4.14
4 0 -2 17.83 6.72
-4 0 2 18.85 2.62
-4 0 2 14.29 2.7
-4 0 2 24.97 4.58
-4 0 2 15.46 3.6
-4 0 2 12.84 4.59
3 0 -2 8.45 3.97
3 0 -2 4.5 3.73
3 0 -2 1.65 2.23
3 0 -2 4.18 3.31
3 0 -2 1.17 1.44
3 0 -2 7.84 4.78
3 0 -2 7.19 4.6
3 0 -2 9.76 5.54
3 0 -2 3.77 3.6
3 0 -2 4.19 3.46
3 0 -2 -1.16 1.34
3 0 -2 5.17 3.67
-3 0 2 -2.19 3.01
-3 0 2 2.74 2.37
-3 0 2 7.28 3.53
-3 0 2 5.36 2.34
-3 0 2 3.12 2.5
-3 0 2 6 5.92
-3 0 2 6.48 3.36
-3 0 2 8.75 3.56
2 0 -2 4.65 5.08
2 0 -2 7.53 3.67
2 0 -2 -0.45 3.52
2 0 -2 6.74 3.28
2 0 -2 5.38 3.55
2 0 -2 9.41 3.57
2 0 -2 1.06 3.17
2 0 -2 2.55 3.67
2 0 -2 1.9 3.84
-2 0 2 2.93 3.48
-2 0 2 -1.51 4.6
-2 0 2 2.13 2.51
-2 0 2 -0.47 2.97
-2 0 2 7.33 3.07
-2 0 2 6.92 4.48
-2 0 2 9.66 3.66
-2 0 2 3.62 2.96
-2 0 2 3.49 3.37
-2 0 2 0.3 1.83
1 0 -2 15.5 4.45
1 0 -2 28.14 4.3
1 0 -2 23.39 3.82
1 0 -2 19.5 5.06
1 0 -2 24.71 3.88
1 0 -2 25.91 3.59
1 0 -2 25.85 4.27
1 0 -2 17.9 3.73
1 0 -2 22.48 3.83
1 0 -2 25.31 4.8
1 0 -2 21.41 4.05
-1 0 2 24.05 3.83
-1 0 2 26.72 4.04
-1 0 2 25.96 4.05
-1 0 2 27.13 4.71
-1 0 2 24.3 4.39
-1 0 2 23.34 5.6
-1 0 2 29.67 4.17
-1 0 2 19.53 4.14
-1 0 2 22.29 4.56
-1 0 2 24.01 3.86
0 0 -2 715.18 57.17
0 0 -2 701.8 57.1
0 0 -2 709.94 57.43
0 0 -2 722.99 57.19
0 0 -2 731.46 57.16
0 0 -2 725.59 57.77
0 0 -2 739.18 57.35
0 0 -2 732.23 57.14
0 0 -2 731.19 57.12
0 0 -2 731.8 57.1
0 0 2 735.65 57.22
0 0 2 710.72 57.16
0 0 2 676.09 57.02
0 0 2 692.85 57.05
0 0 2 710.25 57.11
0 0 2 704.96 57.43
0 0 2 725.43 57.08
0 0 2 709.09 57.12
0 0 2 721.4 57.29
0 0 2 753.11 57.93
-1 0 -2 3.5 3.18
-1 0 -2 11.89 4.5
-1 0 -2 13.57 3.43
-1 0 -2 9.39 2.75
-1 0 -2 4.87 2.92
-1 0 -2 12.03 4.53
-1 0 -2 7.81 4.22
-1 0 -2 2.63 3.74
-1 0 -2 9.04 3.12
-1 0 -2 6.3 2.63
1 0 2 18.78 3.68
1 0 2 5.28 3.3
1 0 2 8.82 3.1
1 0 2 12.05 3.83
1 0 2 7.38 3.12
1 0 2 20.51 4.38
1 0 2 14.55 3.34
1 0 2 11.74 3.22
1 0 2 10.15 4.75
-2 0 -2 7.06 2.59
-2 0 -2 6.38 2.37
-2 0 -2 -4.76 4.36
-2 0 -2 6.89 3.59
-2 0 -2 4.28 2.45
-2 0 -2 5.76 4.41
-2 0 -2 5.3 3.16
-2 0 -2 3 2.86
-2 0 -2 3.88 2.81
2 0 2 1.66 2.71
2 0 2 1.36 3.12
2 0 2 -0.08 2.78
2 0 2 11.56 3.26
2 0 2 6.34 2.77
2 0 2 3.74 3.01
2 0 2 -6.09 3.52
2 0 2 3.18 4.25
2 0 2 4.74 3.86
2 0 2 0.4 4.1
2 0 2 2.17 3.27
-3 0 -2 4.4 4.73
-3 0 -2 2.4 2.62
-3 0 -2 3.77 5.26
-3 0 -2 1.7 1.44
-3 0 -2 -0.14 3.03
-3 0 -2 0.92 0.91
3 0 2 1.26 2.78
3 0 2 -0.45 2.75
3 0 2 3.76 5.79
3 0 2 4.74 5.22
3 0 2 1.09 3.72
3 0 2 -0.68 3.02
3 0 2 5.05 2.85
3 0 2 1.13 3.03
3 0 2 3.5 3.04
-4 0 -2 23.98 6.77
-4 0 -2 37.1 4.36
4 0 2 32.06 4.7
4 0 2 37.31 6.99
4 0 2 43.19 4.99
4 0 2 44.39 5.42
4 0 2 34.83 4.89
4 0 2 42.8 5.2
4 0 2 43.56 6.11
4 0 2 43.97 7.68
4 0 2 37.55 5.01
-5 0 -2 0.36 1.55
-5 0 -2 1.52 4.78
5 0 2 -0.07 3.27
5 0 2 0.75 3.4
5 0 2 16.82 7.75
5 0 2 1.29 3.95
5 0 2 10.59 6.42
5 0 2 -2.17 3.43
5 0 2 -3.84 3.74
5 0 2 6.47 4.41
-6 0 -2 -1.34 5.27
6 0 2 -2.15 3.81
6 0 2 2.23 7.12
6 0 2 6.96 4.27
6 0 2 6.39 4.74
6 0 2 4 8.22
6 0 2 3.52 4.36
6 0 2 2.07 4.01
-7 0 -2 -13.74 7.43
7 0 2 -5.3 4.67
7 0 2 -5.75 8.56
7 0 2 2.53 4.91
7 0 2 -7.77 6.34
7 0 2 7.36 8.57
8 0 2 21.29 8.52
8 0 2 8.82 10.6
8 0 2 9.51 5.6
8 -1 -2 17.71 6.76
8 -1 -2 6.35 9.72
8 -1 -2 14.6 6.57
8 -1 -2 18.59 9.04
7 -1 -2 6.64 6.28
7 -1 -2 4.94 6.45
7 -1 -2 18.31 6.67
7 -1 -2 22.28 6.1
7 -1 -2 12.44 8.27
6 -1 -2 -4.7 5.12
6 -1 -2 1.94 5.48
6 -1 -2 -2.39 6.15
6 -1 -2 9.18 7.23
6 -1 -2 1.54 5.21
6 -1 -2 -1.73 5.53
-6 1 2 6.73 5.35
-6 1 2 -0.13 2.21
5 -1 -2 14.3 5.79
5 -1 -2 15.03 7.38
5 -1 -2 23.37 5.14
5 -1 -2 31.63 5.54
5 -1 -2 25.95 6.77
5 -1 -2 25.56 5.61
5 -1 -2 10.59 5.39
5 -1 -2 18.83 3.27
-5 1 2 18.94 3.39
-5 1 2 16.25 4.6
-5 1 2 23.53 5.87
-5 1 2 9.87 3.32
4 -1 -2 6.31 5.88
4 -1 -2 11.52 4.46
4 -1 -2 15.52 2.4
4 -1 -2 25.02 5.18
4 -1 -2 11.76 4.68
4 -1 -2 21.22 6.12
4 -1 -2 17.86 6.47
4 -1 -2 9.84 4.29
4 -1 -2 18.97 5.77
-4 1 2 8.15 3.62
-4 1 2 14.75 5.19
-4 1 2 16.53 3.41
-4 1 2 14.58 4.13
3 -1 -2 58.51 6.26
3 -1 -2 59.74 7.26
3 -1 -2 51.67 7.28
3 -1 -2 55.84 6.56
3 -1 -2 52.21 6.79
3 -1 -2 54.25 6.49
3 -1 -2 37.32 7.56
3 -1 -2 46.13 7.79
3 -1 -2 48.94 6.67
-3 1 2 54.42 6.39
-3 1 2 52.93 5.89
-3 1 2 37.19 7.13
-3 1 2 46.06 6.86
-3 1 2 49.43 6.59
-3 1 2 50.72 6.15
2 -1 -2 29.41 5.82
2 -1 -2 31.55 5.36
2 -1 -2 35.48 5.53
2 -1 -2 28.24 6.16
2 -1 -2 31.05 4.71
2 -1 -2 33.59 6.26
2 -1 -2 30.39 5.15
2 -1 -2 36.53 5.86
2 -1 -2 19.8 5.08
-2 1 2 32.23 4.61
-2 1 2 29.7 3.4
-2 1 2 33.79 4.75
-2 1 2 32.14 5.26
-2 1 2 24.19 4.52
-2 1 2 32.53 5.82
-2 1 2 35.87 6.46
-2 1 2 31.12 4.74
-2 1 2 31.79 4.47
-2 1 2 32.15 5.66
1 -1 -2 117.13 10.21
1 -1 -2 97.47 9.71
1 -1 -2 97.96 9.59
1 -1 -2 107.38 9.86
1 -1 -2 110.04 10.11
1 -1 -2 110.41 11.28
1 -1 -2 76.28 9.75
1 -1 -2 114.16 10.51
1 -1 -2 117.74 9.82
1 -1 -2 115.82 10.49
-1 1 2 104.66 11.73
-1 1 2 119.91 9.91
-1 1 2 99.06 10.21
-1 1 2 106.61 9.94
-1 1 2 102.31 10.11
-1 1 2 106.98 9.82
-1 1 2 102.08 9.55
-1 1 2 107.36 10.16
-1 1 2 110.44 10.36
-1 1 2 111.4 9.07
-1 1 2 111.91 9.72
0 -1 -2 20.26 3.57
0 -1 -2 24.02 4.46
0 -1 -2 20 4.35
0 -1 -2 17.79 4.08
0 -1 -2 17.08 3.99
0 -1 -2 17.53 4.53
0 -1 -2 18.26 4.63
0 -1 -2 23.34 5.08
0 -1 -2 17.67 4.73
0 -1 -2 15.68 3.7
0 1 2 22 3.35
0 1 2 16.41 5.14
0 1 2 16.03 3.56
0 1 2 20.17 4.09
0 1 2 21.91 3.82
0 1 2 14.02 4.5
0 1 2 13.05 3.98
0 1 2 21.84 4.17
0 1 2 16.81 3.4
0 1 2 20.03 3.68
0 1 2 21.39 6.2
-1 -1 -2 316.37 25.78
-1 -1 -2 332.22 26.05
-1 -1 -2 329.76 25.91
-1 -1 -2 317.29 26.33
-1 -1 -2 307.64 25.84
-1 -1 -2 313.07 25.87
-1 -1 -2 330.45 27.08
-1 -1 -2 309.57 25.91
-1 -1 -2 350.26 27.41
1 1 2 313.17 25.98
1 1 2 299.81 25.75
1 1 2 328.02 26
1 1 2 301.37 25.88
1 1 2 357.04 26.41
1 1 2 310.92 26.05
1 1 2 315.8 27.18
1 1 2 314.18 26.01
1 1 2 346.1 27.47
1 1 2 307.81 26.23
-2 -1 -2 7.25 3.84
-2 -1 -2 4 2.85
-2 -1 -2 5.88 2.98
-2 -1 -2 3.9 1.8
-2 -1 -2 1.25 2.39
-2 -1 -2 6.23 5.02
-2 -1 -2 8.9 4.29
-2 -1 -2 5.74 1.95
-2 -1 -2 6.14 2.55
2 1 2 3.77 4.24
2 1 2 6.5 4.59
2 1 2 -0.84 2.99
2 1 2 0.27 3.23
2 1 2 2.92 2.82
2 1 2 7.81 3.14
2 1 2 14.11 2.84
2 1 2 5.78 4.68
2 1 2 5.37 3
2 1 2 6.67 2.93
-3 -1 -2 26.11 6.04
-3 -1 -2 20.04 3.46
-3 -1 -2 9.58 2.83
-3 -1 -2 23.7 2.9
-3 -1 -2 29.24 5.7
3 1 2 27.21 3.63
3 1 2 26.46 6.92
3 1 2 18.45 5.93
3 1 2 29.89 3.85
3 1 2 23.91 3.84
3 1 2 17.85 3.55
3 1 2 17.06 3.11
3 1 2 16.69 3.56
-4 -1 -2 17.67 5.38
-4 -1 -2 32.94 4.06
4 1 2 20.65 3.97
4 1 2 26.58 3.97
4 1 2 35.58 6.88
4 1 2 33.48 4.3
4 1 2 41.32 4.67
4 1 2 38.14 4.44
4 1 2 41.6 7.08
4 1 2 34.8 4.38
4 1 2 32.06 7.58
-5 -1 -2 14.86 7.1
-5 -1 -2 19.15 3.2
5 1 2 18.14 3.61
5 1 2 25.75 8.59
5 1 2 20.4 3.96
5 1 2 31.77 6.71
5 1 2 17.49 3.72
5 1 2 20.52 4.04
5 1 2 28.89 4.49
5 1 2 10.84 8.13
5 1 2 16.26 3.69
-6 -1 -2 21.9 8.31
6 1 2 20.3 8.29
6 1 2 23.95 7.08
6 1 2 23.85 9.58
6 1 2 15.91 4.31
6 1 2 10.48 4.12
6 1 2 9.49 3.85
-7 -1 -2 3.09 8.65
7 1 2 5.85 4.24
7 1 2 8.31 8.37
7 1 2 -0.78 4.1
7 1 2 9.48 9.25
8 1 2 -5.87 9.5
8 1 2 20.71 11.24
8 1 2 10.82 9.9
8 1 2 9.03 4.91
8 -2 -2 -0.55 6.8
8 -2 -2 4.49 7.6
8 -2 -2 3.07 8.8
8 -2 -2 9.55 6.24
8 -2 -2 10.92 8.89
7 -2 -2 -5.7 8.01
7 -2 -2 2.58 6.37
7 -2 -2 7.27 8.64
7 -2 -2 -1.89 6.2
7 -2 -2 -8.4 6.33
6 -2 -2 -0.77 6.09
6 -2 -2 -0.67 5.24
6 -2 -2 5.24 7.8
6 -2 -2 -3.41 7.49
6 -2 -2 4.52 5.47
-6 2 2 1.94 3.86
-6 2 2 -2.07 6.12
5 -2 -2 0.25 4.8
5 -2 -2 1.93 4.91
5 -2 -2 -5.42 5.44
5 -2 -2 4.57 4.84
5 -2 -2 -3.7 4.69
5 -2 -2 2.56 4.97
5 -2 -2 9.32 7.02
5 -2 -2 1.41 1.56
-5 2 2 -0.03 5.32
-5 2 2 1.31 3.93
-5 2 2 -1.37 3.23
-5 2 2 -6.65 3.98
4 -2 -2 104.83 11.73
4 -2 -2 129.24 12.01
4 -2 -2 109.28 12.25
4 -2 -2 95.16 10.64
4 -2 -2 103.68 10.83
4 -2 -2 99.05 10.81
4 -2 -2 89.19 11.92
4 -2 -2 101.12 11.01
-4 2 2 112.9 11.19
-4 2 2 107.02 10.34
-4 2 2 116.2 10.42
-4 2 2 95.88 11.58
-4 2 2 102.33 9.88
3 -2 -2 4.98 4.36
3 -2 -2 2.35 3.9
3 -2 -2 -0.96 5.56
3 -2 -2 5.42 5.33
3 -2 -2 -4.53 4.39
3 -2 -2 -4.16 3.32
3 -2 -2 0.15 3.63
3 -2 -2 8.1 4.45
-3 2 2 5.74 3.38
-3 2 2 -1.58 1.61
-3 2 2 0.67 3.74
-3 2 2 0.93 1.69
-3 2 2 0.99 5.17
-3 2 2 -0.87 4.51
-3 2 2 3.77 3.31
2 -2 -2 20.34 5.35
2 -2 -2 15.68 5.49
2 -2 -2 12.34 4.31
2 -2 -2 22.14 6.5
2 -2 -2 13.13 4.97
2 -2 -2 13.62 4.08
2 -2 -2 12.02 4.51
2 -2 -2 20.8 5.08
2 -2 -2 22.73 4.88
-2 2 2 5.08 4.72
-2 2 2 11.63 4.76
-2 2 2 16.22 3.98
-2 2 2 14.86 3.87
-2 2 2 20.08 4.25
-2 2 2 12.13 3.63
-2 2 2 21.87 5.11
-2 2 2 16.35 4.05
-2 2 2 20.42 5.72
1 -2 -2 15.24 4.22
1 -2 -2 22.72 4.3
1 -2 -2 24.12 5.42
1 -2 -2 13.31 4.01
1 -2 -2 19.19 4.8
1 -2 -2 19.16 6.1
1 -2 -2 19.08 4.75
1 -2 -2 11.65 4.98
1 -2 -2 23.35 4.51
1 -2 -2 20.05 6.13
-1 2 2 16.51 4.5
-1 2 2 19.34 5.19
-1 2 2 23.35 6
-1 2 2 22.35 4.59
-1 2 2 20.03 4
-1 2 2 16.43 3.88
-1 2 2 30.97 7.21
-1 2 2 20.34 3.32
-1 2 2 16.41 4.64
-1 2 2 19.34 4.25
0 -2 -2 160.82 13.5
0 -2 -2 161.77 14.55
0 -2 -2 178.01 16.34
0 -2 -2 174.59 14.43
0 -2 -2 159.15 14.52
0 -2 -2 176.17 14.89
0 -2 -2 172.66 14.79
0 -2 -2 166.74 14.48
0 -2 -2 166.96 14.58
0 2 2 151.71 14.24
0 2 2 176.19 15.64
0 2 2 172.72 14.57
0 2 2 166.93 14.63
0 2 2 161.24 14.32
0 2 2 154.29 14.54
0 2 2 169.05 14.27
0 2 2 178.53 14.61
0 2 2 167.77 16.66
0 2 2 166.87 15.3
0 2 2 164.91 14.46
-1 -2 -2 85.76 7.83
-1 -2 -2 82.39 8.02
-1 -2 -2 86.98 8.53
-1 -2 -2 81.56 8.3
-1 -2 -2 78.38 8.78
-1 -2 -2 84.01 9.66
-1 -2 -2 86.72 8
-1 -2 -2 84.77 7.96
1 2 2 79.27 8.25
1 2 2 86.47 8.18
1 2 2 92.43 8.41
1 2 2 86.45 11.13
1 2 2 73.42 7.93
1 2 2 75.35 7.06
1 2 2 86.15 8.41
1 2 2 78.73 7.92
1 2 2 91.59 8.78
1 2 2 93.36 10.73
1 2 2 86.34 8.29
-2 -2 -2 48.57 5
-2 -2 -2 62.28 9.04
-2 -2 -2 58.07 6.03
-2 -2 -2 59.73 6.99
-2 -2 -2 60.17 5.87
-2 -2 -2 53.97 6.14
-2 -2 -2 53.19 4.94
2 2 2 67.27 6.44
2 2 2 52.76 6.21
2 2 2 51.48 5.95
2 2 2 62.1 6.22
2 2 2 65.17 9.65
2 2 2 44.95 8.71
2 2 2 64.36 6.28
2 2 2 69.9 6.62
-3 -2 -2 20.26 6.1
-3 -2 -2 18.89 2.57
-3 -2 -2 19.41 3.22
3 2 2 28.62 6.88
3 2 2 23.22 3.49
3 2 2 20.6 3.93
3 2 2 20.59 4.16
3 2 2 28.71 3.85
3 2 2 38.05 8.2
3 2 2 23.63 3.77
3 2 2 17.83 3.8
-4 -2 -2 1.19 2.21
-4 -2 -2 2.9 4.46
-4 -2 -2 -3.71 2.15
4 2 2 0.12 2.5
4 2 2 3.14 3.17
4 2 2 -10.34 5.4
4 2 2 6.98 5.35
4 2 2 -3.11 2.41
4 2 2 1.52 2.87
4 2 2 7.85 2.92
4 2 2 2.44 2.9
-5 -2 -2 6.84 6.98
5 2 2 8.14 3.04
5 2 2 10.18 6.25
5 2 2 10.06 2.52
5 2 2 10.69 3.68
5 2 2 9.13 6.32
5 2 2 5.63 2.76
5 2 2 9.28 3.33
5 2 2 3.71 7.49
-6 -2 -2 -0.41 7.59
6 2 2 0.25 6.63
6 2 2 -12 8.57
6 2 2 4.69 8.91
6 2 2 2.33 3.51
6 2 2 2.91 3.35
-7 -2 -2 2.82 8.81
7 2 2 9.79 10.25
7 2 2 6.26 3.93
7 2 2 -0.2 3.33
7 2 2 5.06 8.74
8 2 2 5.91 10.19
8 2 2 -0.29 3.71
8 2 2 3.53 3.26
8 2 2 -5.06 9.94
8 2 2 -10.38 9.3
8 -3 -2 0.99 8.38
8 -3 -2 -0.86 7.71
8 -3 -2 0.25 9.23
8 -3 -2 9.8 10.36
8 -3 -2 7.89 8.18
7 -3 -2 27.84 8.44
7 -3 -2 5.78 7.75
7 -3 -2 13.84 7.22
7 -3 -2 14.3 9.7
7 -3 -2 4.35 8.46
6 -3 -2 1.82 6.25
6 -3 -2 3.74 8.67
6 -3 -2 -3.01 5.92
6 -3 -2 -12.98 7.09
6 -3 -2 8.5 6.37
-6 3 2 -1.51 7.65
-6 3 2 -2.06 5.01
5 -3 -2 17.85 8.57
5 -3 -2 14.2 6.64
5 -3 -2 19.3 7.46
5 -3 -2 22.88 6.3
5 -3 -2 12.15 6.06
-5 3 2 26.35 7.41
-5 3 2 2.89 5.28
-5 3 2 16.84 5.39
4 -3 -2 6.63 4.84
4 -3 -2 -1.2 5.21
4 -3 -2 5.2 5.17
4 -3 -2 4.49 6.99
4 -3 -2 3.69 5.78
4 -3 -2 3.52 5.03
-4 3 2 -0.08 6.4
-4 3 2 -0.73 4.4
-4 3 2 -5.52 2.23
-4 3 2 -1.74 4.81
-4 3 2 -4.35 5.66
3 -3 -2 14.51 2.24
3 -3 -2 17.37 6.05
3 -3 -2 21.23 5.79
3 -3 -2 11.9 4.29
3 -3 -2 29.29 6.28
3 -3 -2 13.95 7.55
3 -3 -2 21.49 6.14
-3 3 2 16.86 4.67
-3 3 2 13.84 7.76
-3 3 2 19.41 4.99
-3 3 2 15.93 3.47
-3 3 2 19.64 5.95
2 -3 -2 47.92 6.87
2 -3 -2 64 7.63
2 -3 -2 49.01 7.41
2 -3 -2 51.64 7.72
2 -3 -2 46.46 6.92
2 -3 -2 49.38 5.45
2 -3 -2 60.05 9.03
-2 3 2 58.85 7.24
-2 3 2 53.77 7.55
-2 3 2 47.86 6.98
-2 3 2 52.76 9.27
-2 3 2 57.55 7.49
1 -3 -2 5.03 3.77
1 -3 -2 8.73 3.84
1 -3 -2 8.7 5.13
1 -3 -2 10.06 6.32
1 -3 -2 12.47 5
1 -3 -2 10.24 4.03
1 -3 -2 3.7 4.46
-1 3 2 6.62 5.46
-1 3 2 12.99 4.49
-1 3 2 12.55 4.48
-1 3 2 12.64 4.54
-1 3 2 8.98 4.62
-1 3 2 10.94 4.15
-1 3 2 17.78 4.95
-1 3 2 10.14 3.26
0 -3 -2 34.24 6.02
0 -3 -2 40.62 5.89
0 -3 -2 39.41 6.1
0 -3 -2 29.35 5.78
0 -3 -2 45.96 6.12
0 -3 -2 43.42 6.41
0 -3 -2 34.96 5.26
0 3 2 41.63 8.54
0 3 2 36.23 5.41
0 3 2 44.23 5.68
0 3 2 45.47 5.84
0 3 2 37.52 5.34
0 3 2 36.59 5.83
0 3 2 36.84 5.72
0 3 2 34.93 5.27
-1 -3 -2 56.84 6.08
-1 -3 -2 50.02 7.76
-1 -3 -2 40.34 6.99
-1 -3 -2 52.32 6.34
-1 -3 -2 54.53 6.93
1 3 2 59.43 6.22
1 3 2 48.24 6.7
1 3 2 53.31 6.63
1 3 2 49.35 6.9
1 3 2 60.61 6.53
1 3 2 49.5 6.53
1 3 2 61.52 6.89
-2 -3 -2 -1.61 2.68
-2 -3 -2 4.58 4.98
-2 -3 -2 -5.34 3.66
-2 -3 -2 1.38 1.87
-2 -3 -2 -0.66 1.77
2 3 2 4.05 4.11
2 3 2 0.15 6.34
2 3 2 11.36 6.84
2 3 2 0.54 3.6
2 3 2 4.71 2.89
2 3 2 6.58 3.32
2 3 2 3.19 3.29
2 3 2 5.31 3.66
2 3 2 8.32 2.82
-3 -3 -2 -5.34 5.26
-3 -3 -2 -0.38 1.5
3 3 2 5.07 6.52
3 3 2 5.01 5.58
3 3 2 1.67 2.97
3 3 2 -0.73 2.67
3 3 2 4.64 3.48
3 3 2 2.8 3.25
3 3 2 4.98 3.21
3 3 2 5.88 3.58
-4 -3 -2 22.75 3.23
-4 -3 -2 22.7 7.08
4 3 2 33.37 4.45
4 3 2 13.83 3.86
4 3 2 35.28 4.88
4 3 2 33.91 8.19
4 3 2 29.35 9.01
4 3 2 25.2 4.27
4 3 2 26.81 3.84
-5 -3 -2 16.39 6.21
5 3 2 13.54 3.38
5 3 2 11.94 8.32
5 3 2 13.1 2.55
5 3 2 19.17 3.92
5 3 2 14.15 2.27
5 3 2 27.68 9.39
-6 -3 -2 7.83 8.44
6 3 2 9.28 9.48
6 3 2 6.06 8.83
6 3 2 4.08 2.95
6 3 2 1.01 8.24
6 3 2 3.48 2.96
-7 -3 -2 -0.66 9.24
7 3 2 19.63 11.22
7 3 2 -5.81 9.48
7 3 2 1.3 2.91
7 3 2 -2.36 1.93
-8 -3 -2 -0.23 10.05
8 3 2 14.27 9.95
8 3 2 -8.9 11.2
8 3 2 -10.89 9.7
8 -4 -2 10.34 11.23
8 -4 -2 5.22 7.37
8 -4 -2 5.61 9.15
8 -4 -2 17.73 8.57
8 -4 -2 19.25 9.03
7 -4 -2 -5.13 7.34
7 -4 -2 -9.64 6.86
7 -4 -2 -7.99 9.9
7 -4 -2 -6.17 6.01
7 -4 -2 2 7.3
-7 4 2 -4.01 5.54
6 -4 -2 12.92 9.83
6 -4 -2 -1.78 7.78
6 -4 -2 1.29 6.72
6 -4 -2 1.52 7.04
6 -4 -2 12.32 6.91
-6 4 2 -3.18 5.99
-6 4 2 21.89 8.97
5 -4 -2 16.54 7.63
5 -4 -2 3.65 8.82
5 -4 -2 11.74 6.43
5 -4 -2 -5.88 6.68
5 -4 -2 10.93 5.53
-5 4 2 3.79 6.36
-5 4 2 9.22 7.19
-5 4 2 -4.88 7.04
4 -4 -2 55.61 9.55
4 -4 -2 61.82 8.74
4 -4 -2 90.98 10.68
4 -4 -2 75.27 9.26
4 -4 -2 59.08 9.68
4 -4 -2 59.4 8.95
4 -4 -2 55.12 5.36
-4 4 2 66.87 7.39
-4 4 2 54.91 11.37
-4 4 2 65.46 8.93
-4 4 2 71.77 9.67
-4 4 2 69.69 9.96
3 -4 -2 1.65 4.15
3 -4 -2 -3.75 4.87
3 -4 -2 5.65 5.82
3 -4 -2 -3.76 5.77
3 -4 -2 3.09 2.7
3 -4 -2 0.63 4.21
3 -4 -2 -0.31 5.53
-3 4 2 11.33 5.91
-3 4 2 -1.99 5.43
-3 4 2 2.44 4.85
-3 4 2 -0.43 7.35
-3 4 2 3.1 3.73
2 -4 -2 16.44 4.91
2 -4 -2 15.65 5.9
2 -4 -2 5.46 3.37
2 -4 -2 -0.02 7.11
2 -4 -2 5.9 5.27
2 -4 -2 5.53 5.13
2 -4 -2 0.67 5.48
-2 4 2 11.6 7.25
-2 4 2 8 5.3
-2 4 2 7.25 4.66
-2 4 2 2.86 4.92
-2 4 2 7.21 5.69
1 -4 -2 -6.15 4.34
1 -4 -2 2.51 4.21
1 -4 -2 -5.66 4.17
1 -4 -2 3.65 5.05
1 -4 -2 0.91 5.17
-1 4 2 2.54 5.17
-1 4 2 -2.7 5.12
-1 4 2 0.51 4.43
-1 4 2 4.33 4.95
-1 4 2 1.79 3.46
-1 4 2 0.25 3.38
0 -4 -2 56.97 8.11
0 -4 -2 52.42 7.5
0 -4 -2 63.38 7.96
0 -4 -2 68.42 7.8
0 -4 -2 71.01 8.63
0 -4 -2 67.96 7.8
0 4 2 47.89 7.09
0 4 2 64.41 10.94
0 4 2 63.63 8.16
0 4 2 67.58 7.77
0 4 2 59.11 7.89
0 4 2 61.26 7.86
0 4 2 58.64 7.71
-1 -4 -2 102.02 10.38
-1 -4 -2 70.74 7.95
-1 -4 -2 70.5 9.01
-1 -4 -2 79.96 8.58
-1 -4 -2 73.35 9.13
-1 -4 -2 58.57 7.73
1 4 2 83.79 8.66
1 4 2 67.86 11.71
1 4 2 82.97 8.96
1 4 2 90.11 8.72
1 4 2 77.05 9.01
1 4 2 73.49 8.7
1 4 2 84.18 8.99
-2 -4 -2 2.99 2.19
-2 -4 -2 2.26 4.32
-2 -4 -2 4.44 3.39
-2 -4 -2 -0.02 5.93
-2 -4 -2 6.93 5.21
-2 -4 -2 2.75 2.51
2 4 2 3.99 4.26
2 4 2 1.79 1.92
2 4 2 3.49 1.82
2 4 2 6.23 7.22
2 4 2 4.08 3.72
2 4 2 2.64 3.87
2 4 2 4.94 3.5
2 4 2 4.99 4.02
-3 -4 -2 11.82 3.88
-3 -4 -2 0.82 5.82
3 4 2 14.21 8.26
3 4 2 20.11 4.85
3 4 2 11.81 4.58
3 4 2 20.23 4.48
3 4 2 14.12 4.08
3 4 2 15.32 4.08
3 4 2 13.67 6.74
3 4 2 10.55 4.39
-4 -4 -2 5.34 6.72
4 4 2 3.48 3.65
4 4 2 11.99 4.12
4 4 2 12.35 9.07
4 4 2 11.64 6.23
4 4 2 6.37 6.22
4 4 2 11.2 3.85
4 4 2 6.09 4.21
-5 -4 -2 17.58 8.13
5 4 2 13.42 2.58
5 4 2 12.8 3.93
5 4 2 28.7 9.67
5 4 2 28.85 10.22
5 4 2 22.96 7.71
5 4 2 22.73 4.41
-6 -4 -2 12.59 8.96
6 4 2 -1.04 2.96
6 4 2 13.54 10.41
6 4 2 13.05 10.05
6 4 2 7.82 2.98
6 4 2 13.45 8.62
6 4 2 1.53 8.9
-7 -4 -2 5.25 9.8
7 4 2 -10.09 7.32
7 4 2 -8.93 9.67
7 4 2 -3.93 9.39
7 -5 -2 8.78 7.71
7 -5 -2 8.79 11.39
7 -5 -2 8.95 8.15
7 -5 -2 -0.97 6.63
7 -5 -2 3.23 8.25
-7 5 2 6.83 7.17
6 -5 -2 -2.32 7.82
6 -5 -2 8.94 7.58
6 -5 -2 -3.65 10.13
6 -5 -2 -1.91 7.66
6 -5 -2 2.31 7.03
-6 5 2 -5.7 7.36
-6 5 2 3.08 8.79
5 -5 -2 -2.51 9.78
5 -5 -2 7.42 7.81
5 -5 -2 17.01 8.29
5 -5 -2 1.96 5.53
5 -5 -2 6.36 6.73
-5 5 2 9.03 8.41
-5 5 2 2.71 7.33
-5 5 2 20.05 6.68
4 -5 -2 11.96 5.65
4 -5 -2 4.41 7.11
4 -5 -2 4.53 9.12
4 -5 -2 10.85 6.58
4 -5 -2 17.26 7.06
-4 5 2 -0.68 5.73
-4 5 2 9.37 7.08
-4 5 2 5.33 7.59
-4 5 2 4.58 10.02
3 -5 -2 8.17 5.45
3 -5 -2 15.86 4.4
3 -5 -2 8.77 8.87
3 -5 -2 17.6 6.31
3 -5 -2 7.52 6.13
3 -5 -2 6.58 5.13
-3 5 2 20.91 7.58
-3 5 2 23.15 6.19
-3 5 2 22.03 7.53
-3 5 2 16.08 8.94
-3 5 2 19.02 6.66
2 -5 -2 -3.45 5.94
2 -5 -2 -2.05 7.52
2 -5 -2 4.66 6.22
2 -5 -2 -0.5 3.98
2 -5 -2 6.93 5.6
2 -5 -2 -1.45 4.17
2 -5 -2 -4.41 5.03
-2 5 2 -2.74 4.33
-2 5 2 1.66 5.44
-2 5 2 6.73 7.9
-2 5 2 -1.72 4.79
-2 5 2 3.64 5.48
1 -5 -2 12.89 5.75
1 -5 -2 23.99 3.85
1 -5 -2 17.99 5.58
1 -5 -2 15.74 6.14
1 -5 -2 14.15 6.63
1 -5 -2 23.9 6.55
-1 5 2 27.23 5.63
-1 5 2 16.31 5.52
-1 5 2 12.62 6.51
-1 5 2 18.76 5.89
-1 5 2 21.97 6.29
0 -5 -2 60.64 8.27
0 -5 -2 69.54 9.12
0 -5 -2 67.04 8.59
0 -5 -2 75.18 9.49
0 5 2 77.17 9.32
0 5 2 73.92 8.63
0 5 2 78.62 9.17
0 5 2 61.86 9
0 5 2 51.7 10.22
-1 -5 -2 74.91 10.07
-1 -5 -2 89.43 8.77
-1 -5 -2 68.09 7.76
-1 -5 -2 67.88 9.49
-1 -5 -2 73.12 8.08
-1 -5 -2 71.85 9.47
1 5 2 80.21 8.89
1 5 2 72.37 9.24
1 5 2 78.46 8.84
1 5 2 79.76 9.27
1 5 2 57.25 8.65
1 5 2 60.28 11.85
-2 -5 -2 48.04 5.94
-2 -5 -2 59.05 9.12
-2 -5 -2 45.13 7.02
-2 -5 -2 34.71 4.5
-2 -5 -2 36.92 7.23
-2 -5 -2 34.18 4.71
2 5 2 42.71 7
2 5 2 26.29 8.4
2 5 2 41.97 6.42
2 5 2 45.23 6.66
2 5 2 62.23 7.44
2 5 2 37.23 6.29
-3 -5 -2 7.03 6.99
-3 -5 -2 11.47 7.33
-3 -5 -2 12.43 4.86
3 5 2 -3.09 3.43
3 5 2 4.19 5.34
3 5 2 5.09 6.48
3 5 2 6.1 6.81
3 5 2 4.19 4.25
3 5 2 2.56 4.86
3 5 2 4.04 4.67
-4 -5 -2 43.58 9.23
4 5 2 47.96 6.73
4 5 2 61.95 7.21
4 5 2 28.54 11.4
4 5 2 60.36 7.49
4 5 2 46.27 11.85
-5 -5 -2 9.26 9.45
5 5 2 3.49 9
5 5 2 -6.28 3.75
5 5 2 -2.01 9.92
5 5 2 -0.85 4.14
-6 -5 -2 -11.02 8.74
6 5 2 21.93 10.56
6 5 2 -0.72 3.09
6 5 2 7.27 10.28
6 5 2 2.55 3.48
-7 -5 -2 13.77 10.7
7 5 2 -15.56 9.82
7 5 2 -0.78 9.2
7 5 2 -0.1 10.31
7 -6 -2 1.29 9.04
7 -6 -2 9.3 12.34
7 -6 -2 3.49 7.78
7 -6 -2 5.87 7.05
7 -6 -2 -8.74 8
-7 6 2 18.63 8.54
6 -6 -2 7.73 8.98
6 -6 -2 -1.22 7.79
6 -6 -2 21.23 8.91
6 -6 -2 -4.2 11.11
6 -6 -2 6.93 7.95
-6 6 2 -1.97 9.51
-6 6 2 6.39 8.5
5 -6 -2 14.35 8.1
5 -6 -2 10.58 8.33
5 -6 -2 -0.46 6.84
5 -6 -2 5.8 6.56
5 -6 -2 1.5 8.54
-5 6 2 -3.91 10.25
-5 6 2 24.45 9.58
-5 6 2 9.91 7.05
4 -6 -2 8.71 8.17
4 -6 -2 9.32 7.82
4 -6 -2 23.6 7.56
4 -6 -2 4.4 6.78
4 -6 -2 15.87 6.6
-4 6 2 7.82 6.25
-4 6 2 -9.26 11.21
-4 6 2 19.93 8.77
3 -6 -2 88.57 11.71
3 -6 -2 59.98 10.37
3 -6 -2 53.81 12.67
3 -6 -2 66.91 11
3 -6 -2 85.63 9.13
3 -6 -2 82.65 10.97
-3 6 2 79.31 13.82
-3 6 2 86.56 11.84
-3 6 2 82.17 10.3
-3 6 2 81.67 11.32
2 -6 -2 11.84 5.43
2 -6 -2 4.2 5.93
2 -6 -2 2.33 5.24
2 -6 -2 4.62 6.27
2 -6 -2 -4.68 5.89
2 -6 -2 8.64 7.08
-2 6 2 -1.07 5.24
-2 6 2 -0.77 5.37
-2 6 2 0.96 9.05
-2 6 2 10.48 6.66
1 -6 -2 55.24 9
1 -6 -2 48.13 7.91
1 -6 -2 47.93 7.86
1 -6 -2 60.03 7.89
1 -6 -2 42.16 8.26
-1 6 2 50.28 11.29
-1 6 2 42.84 7.71
-1 6 2 43.66 8.29
-1 6 2 34.23 7.48
0 -6 -2 0.38 4.69
0 -6 -2 -0.57 6.64
0 -6 -2 0.38 2.01
0 -6 -2 10.36 6.59
0 -6 -2 4.76 4.84
0 6 2 4.65 5.82
0 6 2 2.13 5.93
0 6 2 6.03 6.8
0 6 2 -0.35 5.18
-1 -6 -2 67.95 9.57
-1 -6 -2 67.83 9.56
-1 -6 -2 54.32 7.87
-1 -6 -2 66.69 10.45
1 6 2 72.92 9.53
1 6 2 69.66 9.29
1 6 2 73.29 9.06
1 6 2 54.63 11.04
-2 -6 -2 2.6 6.01
-2 -6 -2 4.59 3.2
-2 -6 -2 11.13 6.86
-2 -6 -2 -3.96 7.32
2 6 2 6.71 5.75
2 6 2 1.12 5.99
2 6 2 -6.9 5.24
2 6 2 2.79 9.06
-3 -6 -2 -5.85 7.63
-3 -6 -2 -3.28 6.35
3 6 2 5.54 5.68
3 6 2 -11.51 8.55
3 6 2 0.65 5.32
3 6 2 6.14 9.44
3 6 2 3.21 4.41
-4 -6 -2 -3.44 8.32
4 6 2 6.23 10.3
4 6 2 2.77 9.94
4 6 2 -6.47 4.83
4 6 2 -6.36 4.53
-5 -6 -2 2.34 8.77
5 6 2 9.12 11.08
5 6 2 23.16 11.47
5 6 2 12.44 4.89
-6 -6 -2 1.05 9.27
6 6 2 1.44 4.04
6 6 2 6.99 10.43
6 6 2 2.47 11.28
6 -7 -2 0.76 7.55
6 -7 -2 -9.06 8.9
6 -7 -2 -2.28 8.14
6 -7 -2 6.67 7.76
6 -7 -2 5.72 9.02
-6 7 2 16.38 10.97
-6 7 2 -1.88 8.45
5 -7 -2 19.05 9.65
5 -7 -2 10.73 8.35
5 -7 -2 4.58 9.17
5 -7 -2 0.27 11.48
5 -7 -2 14.45 7.91
-5 7 2 16.87 7.94
-5 7 2 30 10.79
4 -7 -2 0.83 7.03
4 -7 -2 16.18 7.81
4 -7 -2 11.29 8.4
4 -7 -2 3.68 10.79
-4 7 2 1.39 6.69
-4 7 2 -12.15 10.67
-4 7 2 4.57 6.95
3 -7 -2 16.25 10.12
3 -7 -2 9.06 7.37
3 -7 -2 7.94 6.69
3 -7 -2 3.83 6.85
-3 7 2 18.3 8.57
-3 7 2 12.77 6.73
-3 7 2 3.72 7.66
-3 7 2 15.4 12.34
2 -7 -2 -5.46 5.78
2 -7 -2 1.81 6.55
2 -7 -2 -0.67 6.47
2 -7 -2 -9.22 8
-2 7 2 -6.89 5.85
-2 7 2 2.07 7.5
-2 7 2 -5.94 4.95
-2 7 2 8.55 10.1
1 -7 -2 3.54 6.62
1 -7 -2 -13.83 7.62
1 -7 -2 6.82 6.14
1 -7 -2 -2 7.23
-1 7 2 -2.06 6.84
-1 7 2 2.45 6.18
-1 7 2 -0.13 7.25
-1 7 2 -7.12 6.13
0 -7 -2 18.9 8.17
0 -7 -2 -6.93 6.15
0 -7 -2 2.43 5.93
0 -7 -2 17.32 7.94
0 7 2 6.35 6.87
0 7 2 8.88 7.07
0 7 2 -0.2 9.46
0 7 2 6.64 6.85
-1 -7 -2 17.79 7.94
-1 -7 -2 7.33 8.1
-1 -7 -2 8.96 5.48
-1 -7 -2 7.59 6.76
1 7 2 12.31 7.23
1 7 2 10.65 9.89
1 7 2 7.87 6.93
1 7 2 6.77 6.82
-2 -7 -2 9.3 8.87
-2 -7 -2 5.03 6.13
2 7 2 10.76 6.6
2 7 2 25.23 7.4
2 7 2 9.32 10.62
2 7 2 17.53 6.27
-3 -7 -2 3.29 8.46
-3 -7 -2 2.61 7.94
3 7 2 1.23 5.78
3 7 2 -1.77 6.16
3 7 2 9.29 10.94
3 7 2 4.5 10.04
3 7 2 4.57 6.33
-4 -7 -2 11.79 9.11
4 7 2 8.8 5.78
4 7 2 25.72 12
4 7 2 15.06 11.94
4 7 2 2.69 5.82
-5 -7 -2 -2.28 8.36
5 7 2 -0.84 11.29
5 7 2 2.2 5.12
5 7 2 -3.29 11.44
5 -8 -2 -7.55 7.77
5 -8 -2 -8.89 7.85
5 -8 -2 -6.31 12.15
5 -8 -2 -1.07 6.83
-5 8 2 -2.53 7.41
-5 8 2 5.9 10.33
4 -8 -2 -17.64 8.59
4 -8 -2 -2.14 8.01
4 -8 -2 0.45 9.43
4 -8 -2 2.33 11.77
-4 8 2 -0.11 6.97
-4 8 2 -8.91 8.9
-4 8 2 -35.47 13.33
3 -8 -2 11.66 9.74
3 -8 -2 9.03 7.41
3 -8 -2 9.62 7.66
3 -8 -2 14.36 10.7
-3 8 2 9.37 11.45
-3 8 2 18.93 9.43
-3 8 2 13.17 7.34
2 -8 -2 -9.87 6.5
2 -8 -2 -3.02 6.59
2 -8 -2 -8.7 8.75
2 -8 -2 0.39 7.45
-2 8 2 -10.04 7.65
-2 8 2 -8.21 7.77
-2 8 2 -10 10.32
-2 8 2 -2.54 6.41
1 -8 -2 11.01 7.49
1 -8 -2 11.58 6.66
1 -8 -2 18.91 8.88
1 -8 -2 7.96 9.27
-1 8 2 13.84 11.14
-1 8 2 13.32 8.62
-1 8 2 11.27 8.06
-1 8 2 1.38 7.54
0 -8 -2 -2.22 6.44
0 -8 -2 1.49 8.2
0 -8 -2 -2.94 7.69
0 8 2 2.88 8.28
0 8 2 -2.47 6.59
0 8 2 0.73 10.05
0 8 2 2.14 7.59
-1 -8 -2 13.61 6.17
-1 -8 -2 21.04 9.66
1 8 2 20.7 7.7
1 8 2 7.59 7.27
1 8 2 39.56 9.38
1 8 2 27.71 12.14
-2 -8 -2 10.85 9.85
2 8 2 -0.95 7.19
2 8 2 -7.77 5.76
2 8 2 11.19 7.8
2 8 2 2.73 11.02
-3 -8 -2 -5.24 9.25
3 8 2 -1.49 10.73
3 8 2 3.3 6.37
3 8 2 2.25 6.92
3 8 2 -8.08 10.4
4 8 2 -6.87 5.46
4 8 2 5.38 6.57
4 8 2 7.17 11.3
4 8 2 6.5 12.03
4 -9 -2 -5.22 10.73
-4 9 2 -2.06 10.15
3 -9 -2 17.81 11.26
3 -9 -2 -2.93 7.82
-3 9 2 2.75 7.44
-3 9 2 15.03 10.4
-3 9 2 6.81 12.41
2 -9 -2 -1.24 10.01
2 -9 -2 -0.76 7.55
-2 9 2 6.45 9.79
-2 9 2 10.02 12.43
-2 9 2 6.83 9.51
-2 9 2 -2.97 7.37
1 -9 -2 4.52 9.66
1 -9 -2 12.23 9.76
1 -9 -2 -1.95 7.52
-1 9 2 -0.2 7.39
-1 9 2 -5.9 11.17
-1 9 2 -5.49 8.25
-1 9 2 6.2 9.06
0 -9 -2 2.66 6.9
0 -9 -2 10.27 9.48
0 9 2 5.54 7.83
0 9 2 5.3 9.31
0 9 2 5.47 8.71
0 9 2 4.45 8.35
-1 -9 -2 7.55 9.87
1 9 2 -10.05 6.96
1 9 2 6.18 7.85
1 9 2 9.76 9.02
1 9 2 12.84 11.91
-2 -9 -2 10.83 11.46
2 9 2 16.96 8.89
2 9 2 2.88 8.28
2 9 2 16.41 13.05
2 9 2 18.01 8.39
-3 -9 -2 5.86 11.01
3 9 2 2.81 12.52
3 9 2 -3.11 7.42
3 9 2 2.98 14.26
3 9 2 -1.29 7.28
2 11 -3 -1.02 8.03
1 11 -3 3.94 11.57
1 11 -3 2.96 9.33
1 11 -3 0.92 7.24
1 11 -3 -1.71 7.25
-1 -11 3 -2.8 6.74
0 11 -3 -11.38 7.06
0 11 -3 16 11.15
0 11 -3 6.22 8.91
0 11 -3 5.66 6.14
0 -11 3 9.56 7.46
-1 11 -3 6.12 9.5
-1 11 -3 -0.06 8.54
-1 11 -3 12.42 10.92
-1 11 -3 5.67 8
1 -11 3 0.9 9.29
1 -11 3 -4.39 6.41
-2 11 -3 -2.45 9.14
-2 11 -3 2.14 10.52
2 -11 3 3.38 10.04
2 -11 3 5.74 9.28
2 -11 3 4.57 9.95
2 -11 3 -3.31 6.94
4 10 -3 -7.18 6.76
4 10 -3 8.6 12.69
3 10 -3 -1.53 7.13
3 10 -3 5.22 8.56
3 10 -3 6.8 6.71
-3 -10 3 -3.11 6.24
2 10 -3 0 7.46
2 10 -3 16.58 11.51
2 10 -3 8.88 8.52
2 10 -3 4.5 7.23
-2 -10 3 7 8.67
1 10 -3 12.2 7.15
1 10 -3 11.73 7.59
1 10 -3 18.18 11.2
1 10 -3 -1.21 8.36
-1 -10 3 17.72 9.07
0 10 -3 -1.28 7.6
0 10 -3 7.55 7.85
0 10 -3 7.15 9.01
0 10 -3 4.11 9.71
0 -10 3 3.16 8.13
0 -10 3 7.63 6.61
-1 10 -3 4.91 7.03
-1 10 -3 14.21 9.91
-1 10 -3 9.37 8.25
-1 10 -3 12.05 9.48
1 -10 3 10.53 6.7
1 -10 3 21.46 9.68
1 -10 3 7.05 8.44
1 -10 3 2.25 8.98
-2 10 -3 9.46 6.96
-2 10 -3 -9.41 7.87
-2 10 -3 -6.08 5.82
-2 10 -3 6.33 9.79
2 -10 3 4.7 9.39
2 -10 3 -2.4 8
2 -10 3 9.07 9.74
2 -10 3 14.45 7.25
-3 10 -3 13.72 9.64
-3 10 -3 8.39 7.02
3 -10 3 15.84 11.04
3 -10 3 5.81 7.19
3 -10 3 9.8 9.97
3 -10 3 20.86 9.28
-4 10 -3 -17.6 6.34
-4 10 -3 2.71 9.13
4 -10 3 1.7 9.92
4 -10 3 18.1 11.91
4 -10 3 -3.3 8.89
4 -10 3 -4.78 6.85
5 9 -3 8.39 8.79
5 9 -3 3.34 5.29
-5 -9 3 13.36 10.04
4 9 -3 9.84 6.45
4 9 -3 13.97 5.92
4 9 -3 21.65 12.34
-4 -9 3 9.03 8.95
3 9 -3 -3.97 5.89
3 9 -3 17.86 11.64
3 9 -3 3.24 6.87
3 9 -3 13.46 6.65
-3 -9 3 -3.44 7.72
2 9 -3 6.19 6.06
2 9 -3 2.82 7.73
2 9 -3 -4.97 6.13
2 9 -3 5.3 8.7
2 9 -3 16.91 8.4
-2 -9 3 5 6.02
1 9 -3 3.37 7.82
1 9 -3 5.03 9.53
1 9 -3 8.03 6.46
1 9 -3 14.37 7.18
1 9 -3 -2.99 8.49
-1 -9 3 -0.17 7.39
-1 -9 3 5.43 5.53
0 9 -3 17.14 7.45
0 9 -3 16.45 9.67
0 9 -3 20.05 8.06
0 9 -3 20.18 9.27
0 9 -3 13.43 6.74
0 -9 3 0.89 7.51
0 -9 3 12.63 6.43
0 -9 3 20.04 8.27
-1 9 -3 -0.68 7.33
-1 9 -3 4.93 7.62
-1 9 -3 4.1 6.15
-1 9 -3 14.94 9.19
1 -9 3 0.93 7.91
1 -9 3 2.38 7.68
1 -9 3 2.13 5.72
1 -9 3 3.99 7.63
-2 9 -3 2.4 7.64
-2 9 -3 0.64 6.01
-2 9 -3 2.03 8.79
-2 9 -3 1.88 5.85
2 -9 3 12.17 6.5
2 -9 3 3.01 8.93
2 -9 3 9.97 7.84
2 -9 3 -8.13 7.42
-3 9 -3 9.88 6.66
-3 9 -3 0.33 7.91
3 -9 3 14.14 6.95
3 -9 3 -8.35 8.97
3 -9 3 20.92 9.67
3 -9 3 -8.63 7.06
-4 9 -3 18 9.31
-4 9 -3 3.35 6.63
4 -9 3 19.73 10.11
4 -9 3 8.85 6.72
4 -9 3 6.2 10.51
4 -9 3 3.05 7.72
-5 9 -3 5.74 8.39
-5 9 -3 9.11 7.74
5 -9 3 -13.39 9.46
5 -9 3 -2.6 8.31
5 -9 3 -5.67 6.45
6 8 -3 28.03 13.36
6 8 -3 3.77 4.52
-6 -8 3 2.26 7.39
5 8 -3 -7.84 11.45
5 8 -3 21.01 12.26
5 8 -3 15.33 5
-5 -8 3 21.61 9.14
4 8 -3 1.32 10.66
4 8 -3 7.44 5.03
4 8 -3 5.54 5.91
4 8 -3 -1.66 7.6
-4 -8 3 0.66 7.68
3 8 -3 6.84 5.69
3 8 -3 3.36 7.76
3 8 -3 6.53 9.61
3 8 -3 6.72 5.33
3 8 -3 2.95 6.63
-3 -8 3 3.98 7.33
2 8 -3 -4.86 4.66
2 8 -3 6.22 8.61
2 8 -3 0.48 6.73
2 8 -3 3.47 9.66
2 8 -3 1.08 5.84
-2 -8 3 0.2 6.72
-2 -8 3 3.5 3.75
1 8 -3 25.85 8.38
1 8 -3 32.48 7.05
1 8 -3 30.58 7.81
1 8 -3 20.76 9.92
1 8 -3 24 6.57
-1 -8 3 22.99 7.83
-1 -8 3 23.82 7.28
-1 -8 3 35.16 6.08
0 8 -3 0.32 6.21
0 8 -3 5.99 5.61
0 8 -3 2.77 8.56
0 8 -3 5.46 8.19
0 8 -3 -3.55 6.2
0 -8 3 -5.57 6.59
0 -8 3 -5.18 6.74
0 -8 3 -1.78 4.77
0 -8 3 3.41 6.75
-1 8 -3 2.46 7.8
-1 8 -3 8.98 7.11
-1 8 -3 11.98 6.81
-1 8 -3 17.35 8.34
-1 8 -3 11.44 5.78
1 -8 3 1 7.75
1 -8 3 13.62 6.39
1 -8 3 9.27 7.18
1 -8 3 8.84 7.45
-2 8 -3 -3.46 6.99
-2 8 -3 -4.5 5.34
-2 8 -3 -0.26 6.69
-2 8 -3 -0.6 6.31
2 -8 3 -2.84 6.45
2 -8 3 -4.85 7.22
2 -8 3 -3.15 5.19
2 -8 3 3.11 8.4
-3 8 -3 30.49 8.31
-3 8 -3 21.9 6.64
-3 8 -3 20.04 7.93
-3 8 -3 23.22 8.92
3 -8 3 14.02 9.61
3 -8 3 26.8 9.06
3 -8 3 23.99 8.38
3 -8 3 19.09 7.79
3 -8 3 19.24 6.07
3 -8 3 25.12 6.94
-4 8 -3 2.9 6.25
-4 8 -3 16.29 8.36
4 -8 3 -1.42 8.23
4 -8 3 3.79 8.29
4 -8 3 7.29 6.12
4 -8 3 4.14 6.12
4 -8 3 14.45 10.3
-5 8 -3 -13.53 7.83
-5 8 -3 3.29 7.68
5 -8 3 -1.41 8.64
5 -8 3 -7.46 8.57
5 -8 3 12.99 7.55
5 -8 3 13.68 7.05
5 -8 3 7.42 8.26
-6 8 -3 -2.22 7.21
-6 8 -3 13.53 9.02
6 -8 3 21.84 10.04
6 -8 3 -9.68 10.74
6 -8 3 -2.69 6.29
6 -8 3 0.03 7.41
6 -8 3 0.21 10.2
7 7 -3 19.56 14.42
7 7 -3 27.06 12.2
-7 -7 3 -13.48 9.08
6 7 -3 3.3 4.24
6 7 -3 4.03 12.63
6 7 -3 31.77 12.76
6 7 -3 18.98 3.99
-6 -7 3 14.51 9.34
5 7 -3 -7.23 4.63
5 7 -3 -6.78 3.57
5 7 -3 12.8 11.1
5 7 -3 -2.57 11.15
-5 -7 3 -6.8 7.36
4 7 -3 36.08 6.74
4 7 -3 27.95 5.36
4 7 -3 14.51 5.23
4 7 -3 42.17 11.66
4 7 -3 54.31 6.75
-4 -7 3 38.77 8.72
3 7 -3 0.5 8.14
3 7 -3 -7.39 4.33
3 7 -3 -0.93 5.58
3 7 -3 -1.59 4.89
3 7 -3 1.95 4.33
-3 -7 3 -3.43 6.55
2 7 -3 14.92 6.24
2 7 -3 10.7 4.74
2 7 -3 10.58 5.31
2 7 -3 18.97 5.73
2 7 -3 14.55 7.79
-2 -7 3 14.5 6.91
-2 -7 3 10.43 3.68
-2 -7 3 4.72 5.27
1 7 -3 3.67 6.21
1 7 -3 6.06 6.98
1 7 -3 14.25 5.68
1 7 -3 11.3 5.13
1 7 -3 4.1 4.89
1 7 -3 8.77 4.94
1 7 -3 2.39 5.15
-1 -7 3 6.13 4.5
-1 -7 3 3.63 5.33
-1 -7 3 13.79 5.22
-1 -7 3 8.19 5.51
0 7 -3 56.42 10.07
0 7 -3 46.69 7.17
0 7 -3 37.31 9.51
0 7 -3 47.06 7.55
0 7 -3 37.55 7.42
0 7 -3 39.41 6.54
0 -7 3 39.29 8.29
0 -7 3 31.5 7.36
0 -7 3 28.67 7.87
0 -7 3 40.39 6.71
0 -7 3 29.74 5.96
-1 7 -3 8.79 5.28
-1 7 -3 12.04 5.74
-1 7 -3 11 6.18
-1 7 -3 7.84 7.26
-1 7 -3 8.49 6.87
-1 7 -3 3.82 4.12
1 -7 3 9.81 4.97
1 -7 3 9.9 7.2
1 -7 3 12.63 6.63
1 -7 3 5.65 4.83
1 -7 3 6.46 2.47
1 -7 3 3.89 6.21
-2 7 -3 16.34 7.18
-2 7 -3 1.82 5.15
-2 7 -3 0 6.88
-2 7 -3 2.24 5.65
2 -7 3 7.05 7.62
2 -7 3 15.23 5.69
2 -7 3 11.53 4.18
2 -7 3 7.84 5.1
2 -7 3 15.01 6.55
2 -7 3 2.35 4.98
-3 7 -3 7.34 6.53
-3 7 -3 16.95 5.99
-3 7 -3 25.63 7.07
-3 7 -3 9.9 7.68
3 -7 3 18.07 6.25
3 -7 3 15.81 5.92
3 -7 3 16.83 5.89
3 -7 3 18.43 6.22
3 -7 3 7.63 8.31
-4 7 -3 10.43 6.18
-4 7 -3 18.64 7.72
4 -7 3 21.28 8.37
4 -7 3 9.99 6.07
4 -7 3 15.67 7.47
4 -7 3 16.47 6.46
4 -7 3 34.6 7.94
-5 7 -3 12.98 8.4
-5 7 -3 -2.33 6.15
5 -7 3 -5.56 5.69
5 -7 3 -2.39 6.68
5 -7 3 -8.19 5.83
5 -7 3 4.26 7.46
5 -7 3 2.08 7.51
-6 7 -3 -2.08 7.94
-6 7 -3 -14.13 7.55
6 -7 3 1.76 7.81
6 -7 3 -4.46 8.3
6 -7 3 14.61 11.24
6 -7 3 -3.83 8.54
6 -7 3 -12.61 6.64
-7 7 -3 1.74 7.72
7 -7 3 -2.22 6.47
7 -7 3 1.31 8.09
7 -7 3 23.44 9.76
7 -7 3 -4.15 10.24
7 6 -3 11.83 12.63
7 6 -3 33.24 12.16
-7 -6 3 2.28 9.48
6 6 -3 6.18 3.98
6 6 -3 21.83 11.65
-6 -6 3 2.74 7.73
5 6 -3 28.01 10.78
5 6 -3 19.2 3.52
5 6 -3 25.86 6.14
5 6 -3 7.53 4.1
-5 -6 3 19.7 8.26
4 6 -3 5.18 4.25
4 6 -3 7.82 4.4
4 6 -3 27.31 10.48
4 6 -3 5.11 4.26
4 6 -3 9.18 4.34
4 6 -3 5.27 3.81
-4 -6 3 -0.48 6.5
3 6 -3 3.58 2.94
3 6 -3 9.99 8.02
3 6 -3 2.39 3.95
3 6 -3 2.8 4.5
3 6 -3 -2.03 3.85
3 6 -3 -1.97 3.28
3 6 -3 2.35 4.28
3 6 -3 4.36 4.66
-3 -6 3 13.76 6.41
-3 -6 3 -0.91 3.67
2 6 -3 -6.06 7.71
2 6 -3 1.13 4.44
2 6 -3 -2.09 4.34
2 6 -3 4.5 2.71
2 6 -3 2.04 4.35
2 6 -3 7.27 4.96
2 6 -3 4.66 4.06
-2 -6 3 -3.78 4.08
-2 -6 3 6.01 4.01
-2 -6 3 3.09 2.97
-2 -6 3 -0.49 4.31
-2 -6 3 8.83 3.05
1 6 -3 16.67 5.28
1 6 -3 -3.57 7.2
1 6 -3 19.41 4.77
1 6 -3 11.7 5.05
1 6 -3 18.24 5.35
-1 -6 3 17.49 4.38
-1 -6 3 19.49 6.67
-1 -6 3 12 4.37
-1 -6 3 15.28 5.05
-1 -6 3 19.25 4.89
0 6 -3 38.21 6.48
0 6 -3 33.54 6.1
0 6 -3 38.35 6.58
0 6 -3 47.44 8.44
0 -6 3 41.3 6.65
0 -6 3 36.69 6.62
0 -6 3 26.5 5.47
0 -6 3 41.46 8.08
0 -6 3 35.62 7.29
-1 6 -3 9.82 6.05
-1 6 -3 17.92 6.03
-1 6 -3 23.83 4.75
-1 6 -3 8.78 4.97
-1 6 -3 9.31 5.27
-1 6 -3 18.5 7.03
1 -6 3 13.77 4.67
1 -6 3 9.13 6.36
1 -6 3 10.65 3.13
1 -6 3 12.14 5.91
1 -6 3 15.28 5.69
-2 6 -3 9.37 5.49
-2 6 -3 7.28 4.77
-2 6 -3 3.87 5.06
-2 6 -3 12.08 5.81
-2 6 -3 4.27 7.17
-2 6 -3 6.01 4.81
2 -6 3 -3.36 5.78
2 -6 3 5.48 4.66
2 -6 3 9.66 3.09
2 -6 3 15.93 4.68
2 -6 3 11.01 6.99
2 -6 3 11.72 5.68
-3 6 -3 34.29 6.24
-3 6 -3 31.4 6.93
-3 6 -3 22.72 6.03
-3 6 -3 33.36 8
3 -6 3 35.05 7.48
3 -6 3 27.09 5.86
3 -6 3 4.34 6.69
3 -6 3 25.86 4.89
3 -6 3 21.65 7.5
3 -6 3 21.58 5.79
3 -6 3 16.01 4.8
3 -6 3 25.7 8.51
-4 6 -3 15.54 6.26
-4 6 -3 36.48 8.4
-4 6 -3 38.54 8.27
4 -6 3 28.62 7.21
4 -6 3 33.43 7.89
4 -6 3 30.51 6.63
4 -6 3 25.03 8.25
4 -6 3 26.29 8.33
4 -6 3 35.98 10.04
-5 6 -3 6.46 6.54
-5 6 -3 -7.66 5.73
5 -6 3 2.09 5.91
5 -6 3 12.63 7.58
5 -6 3 10.43 9.76
5 -6 3 8.98 6.96
5 -6 3 7.46 6.41
5 -6 3 6.55 7.61
-6 6 -3 3.47 8.19
-6 6 -3 2.23 7.39
6 -6 3 1.89 8.61
6 -6 3 12.06 7.99
6 -6 3 8.59 7.58
6 -6 3 -4.03 7.28
6 -6 3 -5.13 7.77
6 -6 3 9.92 7.23
-7 6 -3 3.62 11.59
7 -6 3 2.65 10.02
7 -6 3 -6.94 8.3
7 -6 3 10.89 9.03
7 -6 3 -3.09 8.22
7 -6 3 1.89 7.34
8 5 -3 18.11 9.91
8 5 -3 -4.28 13
8 5 -3 15.55 8.83
7 5 -3 1.7 8.13
7 5 -3 0.79 6.76
7 5 -3 -8.3 11.1
-7 -5 3 -10.32 8.07
6 5 -3 -3.14 5.62
6 5 -3 -6.32 10.23
6 5 -3 2.47 3.73
6 5 -3 -1.4 3.1
-6 -5 3 -3.18 7.18
5 5 -3 -16.26 4.75
5 5 -3 7.46 3.45
5 5 -3 14.55 11.18
5 5 -3 6 4.12
5 5 -3 4.59 5.23
5 5 -3 -3.73 2.65
-5 -5 3 -5.63 6.35
4 5 -3 6.07 3.87
4 5 -3 7.88 3.89
4 5 -3 17.26 4.9
4 5 -3 3.72 3.46
4 5 -3 4.82 8.26
4 5 -3 13.17 3.38
-4 -5 3 10.59 5.01
-4 -5 3 8.07 2.74
3 5 -3 -5.28 3.04
3 5 -3 -9.91 6.61
3 5 -3 -9.15 3.41
3 5 -3 3.17 3.24
3 5 -3 7.14 3.76
3 5 -3 4.93 4.24
3 5 -3 -1.61 3.26
3 5 -3 -5.07 3.54
-3 -5 3 -0.56 3.02
-3 -5 3 -0.77 5.28
2 5 -3 8.72 4.21
2 5 -3 13.29 4.31
2 5 -3 11.53 2.49
2 5 -3 16.54 4.18
2 5 -3 14.68 4.77
2 5 -3 16.95 4.37
2 5 -3 23.36 3.71
2 5 -3 19.58 7.23
2 5 -3 13.88 4.34
-2 -5 3 14.81 5.89
-2 -5 3 14.12 3.19
-2 -5 3 9.91 3.73
-2 -5 3 11.1 3.92
1 5 -3 38.47 8.03
1 5 -3 31.88 3.6
1 5 -3 42.54 6.22
1 5 -3 45.85 5.87
1 5 -3 43.46 6.08
1 5 -3 40.61 6.21
1 5 -3 33.34 5.84
1 5 -3 33.24 5.71
-1 -5 3 41.76 5.25
-1 -5 3 33.14 5.57
-1 -5 3 46.07 5.91
-1 -5 3 36.8 7.04
-1 -5 3 48.62 5.56
0 5 -3 84.23 9.51
0 5 -3 76.09 9.32
0 5 -3 103.77 11.6
0 5 -3 93.07 9.1
0 5 -3 93.1 9.54
0 5 -3 101.1 10.24
0 -5 3 92.54 7.6
0 -5 3 85.2 8.95
0 -5 3 88.44 9.84
0 -5 3 90.27 7.59
0 -5 3 84.48 10.24
0 -5 3 102.18 10.13
0 -5 3 95.46 10.21
-1 5 -3 17.09 6.9
-1 5 -3 15.02 4.8
-1 5 -3 11.84 4.88
1 -5 3 9.3 5.2
1 -5 3 14.55 6.07
1 -5 3 11.7 5.13
1 -5 3 16.83 5.62
1 -5 3 17.85 5.68
1 -5 3 11.34 4.44
-2 5 -3 31.06 5.43
-2 5 -3 33.1 7.79
-2 5 -3 16.04 5.41
-2 5 -3 29.69 5.27
-2 5 -3 33.71 6.59
-2 5 -3 18.74 4.44
2 -5 3 17.49 5.13
2 -5 3 18.93 5.49
2 -5 3 32.02 6.15
2 -5 3 26.3 5.22
2 -5 3 23.48 5.32
2 -5 3 15.2 6.68
2 -5 3 26.77 4.2
-3 5 -3 13.46 5.25
-3 5 -3 28.19 4.85
-3 5 -3 22.82 6.22
-3 5 -3 19.7 6.43
3 -5 3 18.19 6.12
3 -5 3 17.04 5.4
3 -5 3 27.3 6.28
3 -5 3 27.78 6.91
3 -5 3 20.02 5.76
3 -5 3 24.11 6.34
3 -5 3 21.23 5.75
3 -5 3 28.85 4.97
-4 5 -3 25.16 7.02
-4 5 -3 13.77 5.33
-4 5 -3 10.48 6.28
4 -5 3 8.25 8.11
4 -5 3 6.69 4.78
4 -5 3 -0.09 6.24
4 -5 3 6.44 5.89
4 -5 3 18.29 5.77
4 -5 3 8.13 6.2
-5 5 -3 -7.03 4.9
-5 5 -3 1.89 6.45
5 -5 3 3.66 6.09
5 -5 3 4.17 5.61
5 -5 3 6.1 6.68
5 -5 3 6.16 6.97
5 -5 3 -1.18 9.09
5 -5 3 4.57 6.61
-6 5 -3 7.89 6.4
-6 5 -3 -11.6 6.14
6 -5 3 11.58 7.68
6 -5 3 19.64 8.59
6 -5 3 8.95 10.68
6 -5 3 -4.14 7.21
6 -5 3 10.74 6.43
6 -5 3 6.32 6.18
7 -5 3 8.41 9.08
7 -5 3 9.14 9.21
7 -5 3 7.94 7.82
7 -5 3 -2.87 8.42
7 -5 3 0.81 7.78
8 4 -3 9.92 9.33
8 4 -3 -3.02 12.34
7 4 -3 -3.66 10.83
7 4 -3 12.88 7.67
7 4 -3 1.83 3.07
7 4 -3 -1.06 3.52
6 4 -3 2.6 5.95
6 4 -3 4.27 3.4
6 4 -3 -1.66 9.57
6 4 -3 4.7 4.33
6 4 -3 2.93 5.55
-6 -4 3 -9.33 6.4
5 4 -3 7.21 5.67
5 4 -3 12.31 2.85
5 4 -3 6.68 8.83
5 4 -3 5.02 3.41
5 4 -3 13.31 4.36
5 4 -3 5.79 4.86
5 4 -3 11.12 2.86
-5 -4 3 11.88 6.4
4 4 -3 92.38 10.31
4 4 -3 98.71 9.17
4 4 -3 95.95 11.21
4 4 -3 113.59 9.62
-4 -4 3 108.49 11.2
3 4 -3 14.28 4.05
3 4 -3 18.85 4.07
3 4 -3 21.54 4.69
3 4 -3 22.62 4.04
3 4 -3 11.83 3.42
3 4 -3 28.92 7.71
3 4 -3 14.03 3.68
3 4 -3 8.74 4.17
3 4 -3 19.78 3.64
-3 -4 3 23.68 3.15
-3 -4 3 21.14 5.69
-3 -4 3 26.24 3.68
2 4 -3 36.57 4.43
2 4 -3 47.03 5.24
2 4 -3 32.85 4.79
2 4 -3 41.92 5.21
2 4 -3 20.7 4.52
2 4 -3 29.88 4.71
2 4 -3 31.19 4.63
2 4 -3 30.29 5.02
2 4 -3 25.7 4.86
2 4 -3 27.8 7.62
-2 -4 3 30.77 3.91
-2 -4 3 35.51 6.6
-2 -4 3 30.14 3.88
-2 -4 3 31.93 4.47
-2 -4 3 31.65 4.84
-2 -4 3 41.81 4.63
1 4 -3 34 7.67
1 4 -3 35.24 5.42
1 4 -3 31.37 5.25
1 4 -3 40.4 5
1 4 -3 36.14 5.18
1 4 -3 36.57 3.79
1 4 -3 27.39 5.2
1 4 -3 36.49 5.27
1 4 -3 34.88 5.09
-1 -4 3 26.92 5.15
-1 -4 3 34.32 5.02
-1 -4 3 30.1 6.2
-1 -4 3 34.03 5.27
-1 -4 3 26.43 4.74
-1 -4 3 33.06 3.84
-1 -4 3 27.81 4.76
0 4 -3 131.41 12.54
0 4 -3 128.08 12.59
0 4 -3 126.7 12.41
0 4 -3 142.73 11.27
0 4 -3 138.29 12.27
0 4 -3 124.34 12.69
0 4 -3 123.08 12.64
0 4 -3 138.21 13.42
0 -4 3 137.99 12.39
0 -4 3 119.7 12.07
0 -4 3 140.38 12.31
0 -4 3 139.61 14.14
0 -4 3 176.55 14.61
0 -4 3 148.38 11.6
0 -4 3 135.63 12.66
0 -4 3 136.62 12.23
0 -4 3 132.83 12.7
-1 4 -3 13.63 4.73
-1 4 -3 14.5 4.87
-1 4 -3 23.29 4.78
-1 4 -3 15.72 5.18
-1 4 -3 22.7 3.45
-1 4 -3 17.64 5
-1 4 -3 16.82 5.53
1 -4 3 22.78 5.66
1 -4 3 19.37 4.96
1 -4 3 15.15 4.86
1 -4 3 15.94 4.65
1 -4 3 13.75 4.17
1 -4 3 17.31 5.31
-2 4 -3 11.11 5.06
-2 4 -3 7.92 3.95
-2 4 -3 8.01 4.58
-2 4 -3 0.75 3.9
2 -4 3 3.85 5.78
2 -4 3 7.69 3.69
2 -4 3 6.59 4.52
2 -4 3 9.79 5.57
2 -4 3 4.18 3.34
2 -4 3 12.85 4.49
2 -4 3 5.55 5.01
-3 4 -3 0.47 2.7
-3 4 -3 2.01 4.73
-3 4 -3 3.57 3.99
-3 4 -3 -1.89 4.8
-3 4 -3 4.86 2.53
-3 4 -3 -0.7 4.98
3 -4 3 -11.31 4.2
3 -4 3 -2.19 4.77
3 -4 3 -3.12 4.19
3 -4 3 2.93 4.83
3 -4 3 4.95 4.76
3 -4 3 3.39 4.52
3 -4 3 5.11 5.41
-4 4 -3 29.38 6.11
-4 4 -3 27.43 5.49
-4 4 -3 28.03 6.65
-4 4 -3 22.68 6.2
4 -4 3 33.75 7.28
4 -4 3 26.21 7.09
4 -4 3 31.19 6.61
4 -4 3 25.35 6.47
4 -4 3 31.97 6.15
4 -4 3 18.64 6.31
-5 4 -3 4.97 5.91
-5 4 -3 -1.11 5.03
5 -4 3 5.49 5.96
5 -4 3 2.34 5.88
5 -4 3 4.81 6.05
5 -4 3 10.97 7.23
5 -4 3 -9.53 5.03
5 -4 3 2.5 6.37
-6 4 -3 -7.17 6.54
-6 4 -3 -0.48 5.58
6 -4 3 -11.06 8.65
6 -4 3 -8.49 6.28
6 -4 3 6.02 6.31
6 -4 3 10.29 8.38
6 -4 3 0.71 6.86
6 -4 3 -5.71 6.1
7 -4 3 2.74 8.93
7 -4 3 7.23 7.95
7 -4 3 -0.29 6.25
7 -4 3 7.9 7.32
7 -4 3 13.68 7.75
7 -4 3 0.83 10.81
8 -4 3 14.39 10.55
8 -4 3 -7 6.94
8 -4 3 1.54 8.37
8 -4 3 -10.4 11.35
8 -4 3 9.9 7.39
8 3 -3 4.84 8.23
8 3 -3 -2.19 11.18
8 3 -3 -6.14 3.66
7 3 -3 17.55 5.24
7 3 -3 5.1 3.99
7 3 -3 -10.6 5.85
7 3 -3 21.52 11.22
7 3 -3 19.33 8.37
6 3 -3 13.12 5.19
6 3 -3 1.58 7.03
6 3 -3 7.55 2.77
6 3 -3 10.55 7
6 3 -3 7.37 5.57
6 3 -3 2.51 3.62
-6 -3 3 19.4 6.64
5 3 -3 39.78 6.14
5 3 -3 58.6 8.29
5 3 -3 25.41 4.59
5 3 -3 34.26 5.55
5 3 -3 -2.28 6.33
5 3 -3 50.79 4.86
5 3 -3 44.91 4.76
5 3 -3 54.13 5.47
5 3 -3 30.69 4.46
-5 -3 3 26.98 3.61
-5 -3 3 50.39 7.43
4 3 -3 10.2 7.2
4 3 -3 -1.44 3.58
4 3 -3 -0.36 2.72
4 3 -3 -6.13 2.73
4 3 -3 8.59 5.18
4 3 -3 -0.32 3.09
4 3 -3 -0.75 3.04
4 3 -3 -0.97 3.97
4 3 -3 -3.15 2.9
-4 -3 3 -4.26 4.38
3 3 -3 8.28 3.84
3 3 -3 16.03 4.37
3 3 -3 7.06 3.19
3 3 -3 5.67 3.05
3 3 -3 15.2 3.34
3 3 -3 7.7 4.32
3 3 -3 11.11 3.19
3 3 -3 11.37 3.62
3 3 -3 16.94 5.64
3 3 -3 10.45 3.58
-3 -3 3 13.36 4.34
-3 -3 3 11.8 3.29
-3 -3 3 14.85 2.68
-3 -3 3 14.3 4.62
2 3 -3 7.57 3.36
2 3 -3 6.21 2.9
2 3 -3 9.24 3.75
2 3 -3 6.05 2.3
2 3 -3 10.8 3.74
2 3 -3 6.08 3.08
2 3 -3 10.16 5.24
2 3 -3 14.39 3.62
2 3 -3 9.81 3.65
2 3 -3 5.28 4.23
-2 -3 3 6.8 3.12
-2 -3 3 11.1 3.71
-2 -3 3 3.59 2.96
-2 -3 3 2.84 2.53
-2 -3 3 8.84 4.55
-2 -3 3 12.15 2.7
-2 -3 3 5.56 3.65
1 3 -3 7.02 3.83
1 3 -3 11.51 3.62
1 3 -3 6.73 3.53
1 3 -3 8.43 3.54
1 3 -3 13.93 3.19
1 3 -3 -0.54 6.17
1 3 -3 8.96 2.53
1 3 -3 8.38 3.63
1 3 -3 12.22 3.94
1 3 -3 16.27 4.85
-1 -3 3 6.29 3.33
-1 -3 3 10.22 3.39
-1 -3 3 -0.4 3.21
-1 -3 3 9.52 2.96
-1 -3 3 9.94 4.41
-1 -3 3 7.95 2.99
-1 -3 3 7.5 3.04
-1 -3 3 9.28 4.03
-1 -3 3 6.13 3.15
0 3 -3 12.99 3.76
0 3 -3 10.88 4.11
0 3 -3 14.26 4.36
0 3 -3 17.94 3.72
0 3 -3 9.01 4.07
0 3 -3 19.98 3.75
0 3 -3 16.29 6.24
0 3 -3 9.06 3.19
0 3 -3 12.61 4.04
0 -3 3 8.88 4.07
0 -3 3 13.62 3.84
0 -3 3 16.89 4.76
0 -3 3 13.97 3.39
0 -3 3 13.54 3.26
0 -3 3 9.96 3.43
0 -3 3 11.3 5.3
0 -3 3 14.87 4.59
0 -3 3 13.03 3.82
0 -3 3 16.51 4.16
-1 3 -3 8.18 3.2
-1 3 -3 4.79 3.42
-1 3 -3 3.51 4.99
-1 3 -3 11.13 3.69
-1 3 -3 7.39 4.5
-1 3 -3 10.78 3.64
-1 3 -3 9.29 3.87
-1 3 -3 8 4
-1 3 -3 10.51 4.23
-1 3 -3 3.16 4.61
1 -3 3 2.78 5.07
1 -3 3 9.54 4.02
1 -3 3 10.63 4.66
1 -3 3 8.16 3.91
1 -3 3 8.19 4.46
1 -3 3 -1.66 3.93
1 -3 3 4.06 3.98
1 -3 3 7.23 5.72
1 -3 3 2.18 4.42
-2 3 -3 38.27 5.56
-2 3 -3 33.49 6.11
-2 3 -3 50.52 5.96
-2 3 -3 35.96 5.33
-2 3 -3 43.21 6.04
-2 3 -3 36.58 6.83
-2 3 -3 38.76 6.06
-2 3 -3 38.67 6.34
2 -3 3 40.96 6.12
2 -3 3 35.65 7.19
2 -3 3 37.73 5.38
2 -3 3 44.05 6.19
2 -3 3 30.41 5.96
2 -3 3 47.34 5.88
2 -3 3 30.64 6.89
2 -3 3 34.81 6.02
-3 3 -3 14.54 5.77
-3 3 -3 5.61 3.95
-3 3 -3 6.42 1.97
3 -3 3 4.28 4.35
3 -3 3 6.02 4.32
3 -3 3 4.62 4.35
3 -3 3 10.05 6.46
3 -3 3 3.69 4.14
3 -3 3 6.97 3.63
3 -3 3 1.23 4.2
-4 3 -3 11.32 4.72
-4 3 -3 1.41 5.1
-4 3 -3 1.21 5.57
-4 3 -3 -0.86 4.2
4 -3 3 10.53 6.21
4 -3 3 5.01 4.39
4 -3 3 6.69 6.87
4 -3 3 -4.27 4.56
4 -3 3 1.04 4.58
4 -3 3 0.98 4.26
4 -3 3 3.82 4.61
-5 3 -3 3.02 4.82
-5 3 -3 11.89 6.8
-5 3 -3 13.09 5.11
-5 3 -3 19.08 5.91
5 -3 3 2.31 7.74
5 -3 3 1.8 5.14
5 -3 3 5.94 5.95
5 -3 3 1.97 5.1
5 -3 3 5.34 4.93
5 -3 3 -3.4 6.36
-6 3 -3 1.42 4.1
-6 3 -3 2.78 7.93
6 -3 3 9.3 8.33
6 -3 3 -6.93 5.25
6 -3 3 -1.05 8.92
6 -3 3 10.29 6.29
6 -3 3 0.01 7.95
6 -3 3 0.03 6.64
7 -3 3 6.23 8.88
7 -3 3 7.03 6.31
7 -3 3 13.57 8.6
7 -3 3 15.56 7.34
7 -3 3 5.4 10.07
7 -3 3 19.75 7.97
8 -3 3 -5.23 6.27
8 -3 3 15.81 10.19
8 -3 3 18.87 8.25
8 -3 3 -0.9 8.19
8 2 -3 0.89 4.49
8 2 -3 5.63 9.02
8 2 -3 4.03 8.4
7 2 -3 5.17 7.95
7 2 -3 -2 5.45
7 2 -3 3.02 5.9
7 2 -3 -2.8 3.21
7 2 -3 -3.75 3.95
7 2 -3 -11.65 9.24
6 2 -3 10.38 8.89
6 2 -3 4.05 4.79
6 2 -3 -19.18 4.79
6 2 -3 -5.66 3.6
6 2 -3 -0.76 6.74
6 2 -3 2.95 4.45
6 2 -3 -1.33 3.51
6 2 -3 6.25 5.65
5 2 -3 4.44 5.93
5 2 -3 -0.56 4.98
5 2 -3 5.94 7.75
5 2 -3 0.22 3.62
5 2 -3 0.36 3.41
5 2 -3 -3.95 3.36
5 2 -3 1.53 3.87
-5 -2 3 -0.07 2.34
-5 -2 3 0.89 4.89
4 2 -3 54.51 6.51
4 2 -3 55.85 5.8
4 2 -3 59.04 6.3
4 2 -3 46.82 9.07
4 2 -3 46.06 6
4 2 -3 56.76 6.59
4 2 -3 54.92 6.27
4 2 -3 57.64 8.15
4 2 -3 64.22 7.01
4 2 -3 31.23 5.57
-4 -2 3 41.5 5.57
-4 -2 3 58.39 6.79
3 2 -3 18 3.57
3 2 -3 15.52 4.24
3 2 -3 16.07 5.01
3 2 -3 16.59 3.82
3 2 -3 29.4 7.46
3 2 -3 10.55 3.9
3 2 -3 22.66 4.07
3 2 -3 14.16 3.85
3 2 -3 16.97 3.72
3 2 -3 19.03 3.16
-3 -2 3 7.68 3.66
-3 -2 3 10.87 2.19
-3 -2 3 19.06 4.99
-3 -2 3 18.3 4.09
-3 -2 3 18.7 3.12
-3 -2 3 15.15 2.3
-3 -2 3 20.06 3.78
2 2 -3 5.8 3.38
2 2 -3 1.63 3.72
2 2 -3 6.88 2.89
2 2 -3 8.72 3.19
2 2 -3 4.68 4.33
2 2 -3 5.74 3.43
2 2 -3 5.05 6.22
2 2 -3 7.56 3.36
-2 -2 3 5.15 2.75
-2 -2 3 7.84 2.73
-2 -2 3 8.02 3.62
-2 -2 3 5.17 2.97
-2 -2 3 6.64 3.74
-2 -2 3 -2.12 4.98
-2 -2 3 4.59 2.96
-2 -2 3 7.42 3.82
-2 -2 3 1.37 2.64
1 2 -3 17.17 3.52
1 2 -3 21.35 4.16
1 2 -3 16.57 4.22
1 2 -3 18.28 4.18
1 2 -3 19.53 3.93
1 2 -3 16.47 3.62
1 2 -3 26 6.81
1 2 -3 17.09 4.47
1 2 -3 27.69 4.33
-1 -2 3 17.19 1.92
-1 -2 3 20.97 5.79
-1 -2 3 15.13 3.66
-1 -2 3 19.62 4.45
-1 -2 3 14.61 3.74
-1 -2 3 16.79 3.78
-1 -2 3 18.67 4.81
-1 -2 3 17.11 4.16
0 2 -3 152.07 12.05
0 2 -3 127.95 12.03
0 2 -3 133.35 11.87
0 2 -3 131.6 12.17
0 2 -3 149.8 13.16
0 2 -3 131.93 11.64
0 2 -3 151.66 13.4
0 2 -3 150.4 12.27
0 2 -3 145.16 13.25
0 2 -3 139.14 12.42
0 2 -3 136.04 12.44
0 -2 3 134.1 11.98
0 -2 3 138.54 11.81
0 -2 3 122.76 13.06
0 -2 3 137.83 12.15
0 -2 3 138.14 12.51
0 -2 3 127.75 11.77
0 -2 3 127.34 12.05
0 -2 3 144.94 12.28
0 -2 3 125.3 12.28
0 -2 3 141.79 12.88
-1 2 -3 17.95 4.9
-1 2 -3 18.92 6.34
-1 2 -3 25.95 5.35
-1 2 -3 18.04 4.4
-1 2 -3 23.26 4.56
-1 2 -3 26.13 4.57
-1 2 -3 21.19 4.77
-1 2 -3 17.45 4.12
-1 2 -3 24.67 4.47
-1 2 -3 26.22 4.89
-1 2 -3 30.83 5.15
1 -2 3 24.63 4.33
1 -2 3 24.21 4.99
1 -2 3 28.79 6.19
1 -2 3 29.79 4.37
1 -2 3 19.48 3.82
1 -2 3 23.79 4.89
1 -2 3 21.78 4.61
1 -2 3 26.73 5.24
1 -2 3 18.03 4.6
-2 2 -3 8.72 4.08
-2 2 -3 19.26 4.68
-2 2 -3 5.15 3.6
-2 2 -3 5.4 4.67
-2 2 -3 8.81 5.25
-2 2 -3 14.42 4.19
-2 2 -3 11.65 3.94
-2 2 -3 10.96 4.29
-2 2 -3 16.6 4.79
-2 2 -3 7.49 6.01
2 -2 3 11.58 4.07
2 -2 3 11.56 3.77
2 -2 3 6.93 4.37
2 -2 3 3.76 4.14
2 -2 3 13.05 4.15
2 -2 3 13.89 6.83
2 -2 3 10.68 4.36
2 -2 3 8.95 4.14
2 -2 3 8.19 4.36
2 -2 3 14.96 4.35
-3 2 -3 17.35 4.01
-3 2 -3 11.92 4.21
-3 2 -3 19.16 5.65
-3 2 -3 15.33 4.42
-3 2 -3 20.76 3.35
-3 2 -3 15.81 4.89
3 -2 3 22.61 4.62
3 -2 3 21.38 4.58
3 -2 3 14.09 6.8
3 -2 3 16.3 4.4
3 -2 3 29.35 6.87
3 -2 3 19.97 4.59
3 -2 3 11.41 4.73
-4 2 -3 22.9 4.83
-4 2 -3 28.04 5.3
-4 2 -3 20.09 4.28
-4 2 -3 35.58 6.87
4 -2 3 29.5 7.63
4 -2 3 23.88 5.95
4 -2 3 22.85 5.32
4 -2 3 28.32 5.27
4 -2 3 25.29 7.93
4 -2 3 35.27 5.65
4 -2 3 25.68 5.37
-5 2 -3 24.91 7.76
-5 2 -3 35.62 6.16
-5 2 -3 46.06 6.5
-5 2 -3 27.17 4.57
-5 2 -3 31.28 4.96
5 -2 3 32.18 8.87
5 -2 3 41.96 6.54
5 -2 3 29.54 6.77
5 -2 3 46.09 9.34
5 -2 3 52.17 7.56
5 -2 3 35.44 6.81
5 -2 3 31.5 5.89
-6 2 -3 10.11 8.16
6 -2 3 4.34 5.4
6 -2 3 11.15 6.72
6 -2 3 6.95 5.7
6 -2 3 -1.83 5.3
6 -2 3 -8.12 8.93
-7 2 -3 4.53 6.72
7 -2 3 8.01 6.46
7 -2 3 3.73 6.18
7 -2 3 15.44 10.03
7 -2 3 10.58 8.65
7 -2 3 12.1 6.81
7 -2 3 25.12 10
8 -2 3 -3.75 10.07
8 -2 3 2.03 6.69
8 -2 3 -2.82 6.34
8 -2 3 4.06 7.58
8 1 -3 -4.07 4.2
8 1 -3 2.95 6.97
8 1 -3 -2.6 4.82
8 1 -3 1.84 6.97
8 1 -3 1.96 10.47
7 1 -3 -1.33 7.95
7 1 -3 0.09 6.87
7 1 -3 4.57 4.64
7 1 -3 -3.47 4.32
7 1 -3 -2.57 9.13
6 1 -3 2.16 4.41
6 1 -3 7.65 5.44
6 1 -3 -8.51 4.97
6 1 -3 4.03 8.27
6 1 -3 4.08 4.63
6 1 -3 0.74 7.2
6 1 -3 1.94 6.31
5 1 -3 4.31 5.82
5 1 -3 4.67 4.8
5 1 -3 3.09 4.66
5 1 -3 4.38 4.06
5 1 -3 14.54 3
5 1 -3 9.57 5.2
5 1 -3 0.34 4.35
5 1 -3 5 3.68
5 1 -3 4.86 3.24
5 1 -3 8.18 4.01
5 1 -3 4.26 5.64
-5 -1 3 5.84 3.9
4 1 -3 19.62 7.54
4 1 -3 27.66 5.87
4 1 -3 29.74 6.82
4 1 -3 29.25 5.14
4 1 -3 21.88 3.6
4 1 -3 14.57 4.22
4 1 -3 24.27 4.8
4 1 -3 24.05 5.09
4 1 -3 34.99 4.94
-4 -1 3 20.17 2.71
-4 -1 3 22.23 4.64
-4 -1 3 21.71 2.69
-4 -1 3 23.82 3.93
-4 -1 3 20.03 4.51
-4 -1 3 29.04 4.56
3 1 -3 4.41 2.74
3 1 -3 8.32 3.9
3 1 -3 13.1 6.46
3 1 -3 10.29 5.43
3 1 -3 22.97 4.47
3 1 -3 12.63 3.72
3 1 -3 13.66 3.86
3 1 -3 11.89 4.13
3 1 -3 12.66 3.63
3 1 -3 18.31 4.8
-3 -1 3 14.61 4.18
-3 -1 3 10.26 2.88
-3 -1 3 9.48 2.79
-3 -1 3 14.13 3.3
-3 -1 3 11.03 3.24
-3 -1 3 13.41 3.35
2 1 -3 -7.15 3.52
2 1 -3 -1.05 2.89
2 1 -3 1.44 2.94
2 1 -3 -3.7 4.51
2 1 -3 -2.59 3.73
2 1 -3 -1.27 3.57
2 1 -3 3.84 2.32
2 1 -3 -2.75 3.74
2 1 -3 2.02 3.92
2 1 -3 0.6 5.71
2 1 -3 5.59 3.48
-2 -1 3 4.97 3.79
-2 -1 3 0.06 1.95
-2 -1 3 1.58 2.96
-2 -1 3 3.91 2.92
-2 -1 3 -2.25 2.96
-2 -1 3 -0.36 3.56
-2 -1 3 4.16 4.13
-2 -1 3 -0.99 4.78
-2 -1 3 2.78 3.16
-2 -1 3 -4.99 3.14
-2 -1 3 -1.34 3.39
1 1 -3 -2.83 3.88
1 1 -3 -0.61 3.61
1 1 -3 1.05 5.65
1 1 -3 1.55 3.36
1 1 -3 4.16 2.79
1 1 -3 3.35 3.25
1 1 -3 7.73 4.02
1 1 -3 -3.82 5.04
1 1 -3 1.12 2.99
1 1 -3 7.3 3.57
-1 -1 3 -0.39 3.72
-1 -1 3 3.48 3.54
-1 -1 3 2.94 2.97
-1 -1 3 2.42 3.73
-1 -1 3 -0.41 3.83
-1 -1 3 5.1 2.35
-1 -1 3 -3.76 3.33
-1 -1 3 -0.86 4.62
-1 -1 3 1.19 3.23
-1 -1 3 -2.19 3.73
-1 -1 3 0.86 3.32
0 1 -3 209.53 17.94
0 1 -3 223.44 17.98
0 1 -3 218.5 18.58
0 1 -3 214.21 18.36
0 1 -3 208.71 18.09
0 1 -3 215.64 18.02
0 1 -3 215.01 18.11
0 1 -3 216.55 17.8
0 1 -3 227.53 19.17
0 1 -3 210.29 17.91
0 -1 3 212.78 17.75
0 -1 3 204.28 17.81
0 -1 3 214.49 17.75
0 -1 3 201.76 18.92
0 -1 3 203.78 18.07
0 -1 3 205.34 18.58
0 -1 3 207.13 17.9
0 -1 3 220.02 17.98
0 -1 3 214.92 18.22
0 -1 3 208.27 18.03
-1 1 -3 75.78 7.38
-1 1 -3 55.26 6.58
-1 1 -3 63.26 8.09
-1 1 -3 60.86 7.18
-1 1 -3 68.51 7.49
-1 1 -3 75.82 7.28
-1 1 -3 75.65 7.98
-1 1 -3 69.16 7.13
-1 1 -3 66.93 8.23
-1 1 -3 66.65 7.42
1 -1 3 73.62 7.18
1 -1 3 58.54 6.85
1 -1 3 76.99 8.38
1 -1 3 63.79 7.25
1 -1 3 68.61 7.39
1 -1 3 65.6 8.15
1 -1 3 63.55 8.5
1 -1 3 62.56 6.61
1 -1 3 83.72 8.62
1 -1 3 72.34 7.56
1 -1 3 80.03 7.69
-2 1 -3 6.16 3.08
-2 1 -3 7.93 4.45
-2 1 -3 13.53 3.71
-2 1 -3 7.69 3.52
-2 1 -3 10.63 3.39
-2 1 -3 10.51 3.42
-2 1 -3 8.32 4.66
-2 1 -3 14.1 4.14
-2 1 -3 9.36 4.06
-2 1 -3 12.09 5.62
2 -1 3 14.35 3.79
2 -1 3 4.14 3.22
2 -1 3 10.86 5.79
2 -1 3 5.98 5.66
2 -1 3 13.09 3.13
2 -1 3 14.91 3.93
2 -1 3 9.69 3.63
2 -1 3 15.89 5.48
2 -1 3 6.93 3.84
2 -1 3 14.9 4.54
2 -1 3 10.98 3.74
-3 1 -3 42.57 5.79
-3 1 -3 36.48 4.89
-3 1 -3 42.34 5.68
-3 1 -3 34.85 5.05
-3 1 -3 31.11 4.51
-3 1 -3 37.93 6.81
3 -1 3 34.73 5.27
3 -1 3 39.26 5.87
3 -1 3 42.07 7.81
3 -1 3 39.08 5.48
3 -1 3 33.04 7.77
3 -1 3 31.08 5.6
3 -1 3 37.94 5.29
3 -1 3 39.06 5.51
-4 1 -3 57.98 5.69
-4 1 -3 54.13 5.88
-4 1 -3 39.22 7.08
-4 1 -3 59.52 7.14
4 -1 3 57.42 7.07
4 -1 3 65.38 9.81
4 -1 3 60.1 6.71
4 -1 3 60.26 6.81
4 -1 3 44.41 6.37
4 -1 3 55.24 9.55
4 -1 3 57.26 7.07
4 -1 3 57.89 7.13
-5 1 -3 4.53 4.18
-5 1 -3 8.48 6.82
-5 1 -3 -0.76 3.41
5 -1 3 -2.32 4.46
5 -1 3 11.19 7.58
5 -1 3 7.48 7.74
5 -1 3 0.06 4.75
5 -1 3 5.96 4.04
5 -1 3 0.97 5.01
5 -1 3 -8.47 3.76
5 -1 3 0.22 3.73
-6 1 -3 -6.57 7.16
6 -1 3 5.11 4.68
6 -1 3 4.54 4.73
6 -1 3 4.04 8.29
6 -1 3 6.69 5.32
6 -1 3 10.4 9.07
-7 1 -3 -5.08 8.04
7 -1 3 -6.17 5.12
7 -1 3 -1.28 9.36
7 -1 3 -20.05 10.04
7 -1 3 -4.86 5.82
8 -1 3 8.74 6.19
8 -1 3 18.54 10.79
8 -1 3 9.55 6.12
8 -1 3 -4.91 10.32
8 0 -3 4.77 5.83
8 0 -3 -1.88 5.34
8 0 -3 16.61 7.94
8 0 -3 8.89 8.32
8 0 -3 8.88 9.66
7 0 -3 -9.54 8.45
7 0 -3 -7.52 6.27
7 0 -3 6.56 6.4
7 0 -3 6.05 5.77
7 0 -3 -2.53 5.22
7 0 -3 7.75 8.55
6 0 -3 -0.64 6.21
6 0 -3 9.6 6.31
6 0 -3 1.64 5.53
6 0 -3 0.27 5.55
6 0 -3 2.39 5
6 0 -3 -2.77 5.78
6 0 -3 7.12 7.75
5 0 -3 20.42 5.88
5 0 -3 13.73 5.36
5 0 -3 13.17 5.11
5 0 -3 17.28 7.21
5 0 -3 16.35 5.63
5 0 -3 35.28 7.39
5 0 -3 13.77 7.66
5 0 -3 11.62 4.68
-5 0 3 13.17 4.74
-5 0 3 14.51 4.04
-5 0 3 11.41 2.7
-5 0 3 6.36 2.64
4 0 -3 16.5 5.73
4 0 -3 18.74 5.02
4 0 -3 16.06 5.21
4 0 -3 13.55 4.49
4 0 -3 11.79 5.13
4 0 -3 13.85 4.46
4 0 -3 1.43 5.1
4 0 -3 21.98 5.69
-4 0 3 17.72 5.14
-4 0 3 14.01 3.5
-4 0 3 19.92 4.35
-4 0 3 14.52 3.19
-4 0 3 11.89 4.42
3 0 -3 4.85 4.88
3 0 -3 9.61 4.51
3 0 -3 5.71 4.17
3 0 -3 13.33 4.64
3 0 -3 11 4.54
3 0 -3 11.57 1.73
3 0 -3 -0.8 5.58
3 0 -3 5.41 3.89
3 0 -3 5.89 4.09
3 0 -3 12.96 4.84
-3 0 3 8.48 3.35
-3 0 3 6.99 3.55
-3 0 3 8.61 4.33
-3 0 3 8.28 2.17
-3 0 3 2.36 3.65
-3 0 3 4.15 2.91
2 0 -3 54.22 6.55
2 0 -3 38.82 7.03
2 0 -3 37.26 6.91
2 0 -3 42.17 5.97
2 0 -3 34.58 5.98
2 0 -3 40.09 5.41
2 0 -3 41.01 7.2
2 0 -3 40.1 6.09
2 0 -3 38.01 5.77
2 0 -3 41.1 4.8
2 0 -3 50.27 5.83
-2 0 3 48.03 5.78
-2 0 3 29.4 6.05
-2 0 3 54.6 5.95
-2 0 3 47.25 5.46
-2 0 3 37.2 5.1
-2 0 3 39.83 5.44
-2 0 3 37.8 6.08
-2 0 3 44.06 4.85
-2 0 3 34.79 7.62
-2 0 3 45.43 5.42
1 0 -3 2.91 3.38
1 0 -3 -0.72 3.89
1 0 -3 4.72 5.63
1 0 -3 -2.46 3.2
1 0 -3 3.96 3.43
1 0 -3 -3.62 4.49
1 0 -3 -3.29 3.48
1 0 -3 -1.34 3.69
1 0 -3 3.95 4.39
1 0 -3 -0.17 4.22
-1 0 3 3.87 3.4
-1 0 3 -1.74 3.99
-1 0 3 1.86 3.6
-1 0 3 -6.27 2.85
-1 0 3 -2.27 4.03
-1 0 3 -0.45 3.6
-1 0 3 -1.38 3.85
-1 0 3 3.77 3.18
-1 0 3 -3.88 3.52
-1 0 3 4.89 3.24
-1 0 3 -4.25 4.07
0 0 -3 10.7 3.77
0 0 -3 10.46 4.39
0 0 -3 14.6 4.32
0 0 -3 13.8 4.2
0 0 -3 13.61 4.62
0 0 -3 17.18 4.5
0 0 -3 17.32 4.79
0 0 -3 10.54 4.3
0 0 -3 11.63 4.68
0 0 -3 19.25 5.08
0 0 3 19.01 5.08
0 0 3 21.49 4.87
0 0 3 15.02 4.1
0 0 3 23.8 5.2
0 0 3 16.6 4.71
0 0 3 11.48 4.19
0 0 3 8.49 3.48
0 0 3 11.21 4.06
0 0 3 19.85 3.86
0 0 3 20.48 4.82
-1 0 -3 59.03 6.4
-1 0 -3 61.11 7.08
-1 0 -3 62.01 6.59
-1 0 -3 71.37 7.59
-1 0 -3 60.09 6.98
-1 0 -3 58.67 7.19
-1 0 -3 73.37 7.56
-1 0 -3 63.02 7.51
-1 0 -3 59.66 6.82
1 0 3 73.44 7.19
1 0 3 71.73 7.71
1 0 3 73.18 7.55
1 0 3 55.52 8.29
1 0 3 64.54 7.16
1 0 3 63.92 6.69
1 0 3 58.8 7.19
1 0 3 59.85 6.38
1 0 3 66.09 7.78
1 0 3 70.1 7.25
-2 0 -3 29.11 4.49
-2 0 -3 33.48 6.28
-2 0 -3 30.83 4.23
-2 0 -3 23.9 4.45
-2 0 -3 35.61 6.37
-2 0 -3 25.87 4.31
-2 0 -3 27.44 4.89
2 0 3 38.5 5.08
2 0 3 30 7
2 0 3 38.4 5.08
2 0 3 23.42 5.56
2 0 3 34.54 4.93
2 0 3 27.42 4.84
2 0 3 31.19 4.42
2 0 3 46.99 6.98
2 0 3 32.43 4.86
-3 0 -3 11.95 5.57
-3 0 -3 10.85 2.66
-3 0 -3 14.8 4.04
-3 0 -3 18.43 4.93
-3 0 -3 9.83 2.91
-3 0 -3 8.05 3.05
3 0 3 11.93 3.49
3 0 3 7.53 3.3
3 0 3 14.71 4.21
3 0 3 9.15 4.96
3 0 3 11.84 6.23
3 0 3 13.01 5.21
3 0 3 13.83 3.94
3 0 3 10.93 4.07
3 0 3 10.89 4.39
-4 0 -3 10.29 4.57
-4 0 -3 6.24 3.7
4 0 3 0.76 3.8
4 0 3 -11.62 4.21
4 0 3 6.2 5.22
4 0 3 14.12 4.27
4 0 3 4.15 3.42
4 0 3 3.21 3.76
4 0 3 6.91 3.55
4 0 3 3.93 4.98
-5 0 -3 16.66 5.89
5 0 3 28.48 5.15
5 0 3 36.15 5.82
5 0 3 25.98 8.79
5 0 3 27.2 5.34
5 0 3 19.67 6.44
5 0 3 21.4 4.8
5 0 3 44.63 9.41
-6 0 -3 1.63 7.29
6 0 3 2.04 4.81
6 0 3 11.83 4.9
6 0 3 0.87 9.28
6 0 3 0.18 4.81
6 0 3 -3.38 3.95
6 0 3 -4.22 8.24
-7 0 -3 -0.56 6.38
7 0 3 -5.56 10.86
7 0 3 -1.54 5.2
7 0 3 4.84 4.54
7 0 3 8.41 10.11
-8 0 -3 2.47 9.43
8 0 3 -6.26 5.47
8 0 3 -4.59 9.62
8 0 3 -28.87 11.34
8 0 3 -2.74 10.86
8 -1 -3 0.1 9.96
8 -1 -3 15.67 9.73
8 -1 -3 5.96 9.58
8 -1 -3 8.11 6.75
8 -1 -3 5.62 7
7 -1 -3 3.76 6.48
7 -1 -3 6.45 8.77
7 -1 -3 -2.24 6.9
7 -1 -3 5.47 5.51
7 -1 -3 5.13 8.73
7 -1 -3 -2.67 8.45
6 -1 -3 -0.11 6.09
6 -1 -3 1.84 6.22
6 -1 -3 2.91 6.81
6 -1 -3 2.92 5.89
6 -1 -3 5.32 5.09
-6 1 3 -1.46 3.04
-6 1 3 0.96 5.7
5 -1 -3 2.52 5.99
5 -1 -3 1.74 6.67
5 -1 -3 -4.28 4.79
5 -1 -3 -2.06 6.51
5 -1 -3 -0.21 4.78
5 -1 -3 -1.8 4.94
5 -1 -3 -1.54 4.69
-5 1 3 15.04 4.9
-5 1 3 4.73 3.33
-5 1 3 -4.54 3.36
-5 1 3 7.02 5.55
4 -1 -3 41.08 8.63
4 -1 -3 45.95 7.39
4 -1 -3 42.45 6.41
4 -1 -3 44.1 7.3
4 -1 -3 42.87 8.58
4 -1 -3 54.34 8.11
4 -1 -3 60.81 8.34
4 -1 -3 55.26 7.09
-4 1 3 60.52 6.34
-4 1 3 48.91 6.31
-4 1 3 56.9 7.04
-4 1 3 49.92 7.35
3 -1 -3 -0.85 5.16
3 -1 -3 2.78 5.69
3 -1 -3 5.85 4.64
3 -1 -3 -1.99 4.4
3 -1 -3 4.66 5.59
3 -1 -3 4.66 4.55
3 -1 -3 -2.86 3.86
3 -1 -3 -1.46 4.43
-3 1 3 0 3.86
-3 1 3 -1.59 4.35
-3 1 3 0.18 3.18
-3 1 3 0.15 5.44
-3 1 3 10.16 4.45
-3 1 3 7.78 4.03
2 -1 -3 6.53 4.12
2 -1 -3 2.77 4.66
2 -1 -3 2.02 4.32
2 -1 -3 -2.29 4.05
2 -1 -3 4.95 4.73
2 -1 -3 5.72 4.31
2 -1 -3 3.94 4.85
2 -1 -3 2.98 4.74
2 -1 -3 -0.15 3.63
-2 1 3 3.43 1.61
-2 1 3 0.26 4.52
-2 1 3 3.89 3.47
-2 1 3 4.61 2.96
-2 1 3 4.05 6.29
-2 1 3 4.04 4.43
-2 1 3 4.33 3.96
-2 1 3 2.98 4.09
-2 1 3 6.5 3.52
1 -1 -3 3.87 4.26
1 -1 -3 6.45 4.3
1 -1 -3 6.81 4.74
1 -1 -3 5.32 5.8
1 -1 -3 8.25 4.86
1 -1 -3 12 4.83
1 -1 -3 5.1 4.44
1 -1 -3 11.57 4.02
1 -1 -3 7.98 5.55
1 -1 -3 5.15 3.81
-1 1 3 16.19 6.85
-1 1 3 6.64 3.89
-1 1 3 5.92 4.13
-1 1 3 9.92 4.55
-1 1 3 7.96 4.09
-1 1 3 10.57 4.29
-1 1 3 5.02 3.96
-1 1 3 8.21 4.63
-1 1 3 9.02 4.58
-1 1 3 3.35 2.89
-1 1 3 -0.63 4.57
0 -1 -3 488.71 38.18
0 -1 -3 457.04 37.27
0 -1 -3 473.79 37.41
0 -1 -3 470.67 38.81
0 -1 -3 477.98 37.65
0 -1 -3 482.74 37.5
0 -1 -3 458.49 37.7
0 -1 -3 468.07 37.57
0 -1 -3 463.95 37.79
0 1 3 458.71 37.51
0 1 3 473.17 38.17
0 1 3 461.67 37.39
0 1 3 453.71 37.49
0 1 3 433.94 37.46
0 1 3 452.5 37.58
0 1 3 436.61 37.18
0 1 3 452.62 37.49
0 1 3 456.15 37.76
0 1 3 500.77 39.21
-1 -1 -3 12.81 4.63
-1 -1 -3 13.71 3.83
-1 -1 -3 12.3 4.16
-1 -1 -3 3.48 5.07
-1 -1 -3 12.44 3.34
-1 -1 -3 8.86 3.19
-1 -1 -3 9.64 4.66
-1 -1 -3 12.4 5.38
-1 -1 -3 8.79 3.82
-1 -1 -3 9.78 3.74
1 1 3 15.67 4.15
1 1 3 5.06 5.54
1 1 3 12.09 3.68
1 1 3 8.06 3.89
1 1 3 14.45 4.13
1 1 3 15.02 4.26
1 1 3 13.16 3.98
1 1 3 14.85 3.39
1 1 3 14.02 4.77
1 1 3 11.92 4.96
-2 -1 -3 78.3 9.2
-2 -1 -3 60.29 7.68
-2 -1 -3 79.12 7.43
-2 -1 -3 68.08 7.06
2 1 3 80.34 8.16
2 1 3 89.81 7.99
2 1 3 75.41 9.9
2 1 3 73.53 7.8
2 1 3 79.77 7.81
2 1 3 85.33 8.4
2 1 3 64.73 7.82
-3 -1 -3 5.84 1.89
-3 -1 -3 6.66 3.65
-3 -1 -3 5.6 2.84
-3 -1 -3 5.73 1.45
-3 -1 -3 4.45 5.54
-3 -1 -3 12.07 5.37
3 1 3 9.4 3.85
3 1 3 17.87 5.17
3 1 3 5.33 3.61
3 1 3 10.46 4.09
3 1 3 1.8 6.25
3 1 3 13.38 3.85
3 1 3 4.97 5.09
3 1 3 8.07 3.21
3 1 3 6.64 3.94
-4 -1 -3 53.33 9.33
-4 -1 -3 58.48 7.12
4 1 3 74.91 10.09
4 1 3 76.47 7.31
4 1 3 82.18 7.9
4 1 3 74.77 10.34
4 1 3 68.54 7.5
4 1 3 58.64 7.34
4 1 3 68.31 7.55
4 1 3 89.35 11.54
-5 -1 -3 -1.99 6.65
5 1 3 3.2 4.14
5 1 3 1.17 3.38
5 1 3 -7.95 5.73
5 1 3 0.74 3.93
5 1 3 9.59 7.9
5 1 3 9.43 8.2
5 1 3 1.32 4.27
-6 -1 -3 -4.1 5.68
6 1 3 -2.22 8.19
6 1 3 -5.19 6.35
6 1 3 2.26 3.99
6 1 3 -2.55 4.1
6 1 3 8.85 9.3
6 1 3 4.02 4.52
-7 -1 -3 -0.81 6.41
7 1 3 -8.41 6.89
7 1 3 -0.32 9.49
7 1 3 1.33 4.47
-8 -1 -3 -8.87 9.17
8 1 3 2.71 7.32
8 1 3 -26.38 11.79
8 1 3 1.35 5.2
8 1 3 -12.38 10.79
8 -2 -3 -1.66 7.3
8 -2 -3 1.68 6.99
8 -2 -3 -4.21 8.27
8 -2 -3 8.47 7.68
8 -2 -3 1.67 8.75
8 -2 -3 1.2 7.66
7 -2 -3 15.19 7.79
7 -2 -3 5.43 6.95
7 -2 -3 10.18 8.52
7 -2 -3 4.29 6.58
7 -2 -3 1.99 7.61
6 -2 -3 7.37 6.27
6 -2 -3 9.73 6.16
6 -2 -3 15.62 8.18
6 -2 -3 -0.81 6.17
6 -2 -3 -6.24 7.46
-6 2 3 -0.62 4.21
-6 2 3 -1.2 6.13
5 -2 -3 20.74 6.96
5 -2 -3 3.26 7.26
5 -2 -3 22.41 7.7
5 -2 -3 13.6 6.07
5 -2 -3 4.38 4.35
5 -2 -3 10.51 8.07
-5 2 3 9.99 4.88
-5 2 3 7.24 6.07
-5 2 3 12.04 5.95
4 -2 -3 10.68 6.67
4 -2 -3 7.8 5.64
4 -2 -3 5.27 5.41
4 -2 -3 4.68 6.43
4 -2 -3 2.06 5.14
4 -2 -3 25.31 6.6
-4 2 3 5.64 4.3
-4 2 3 4.84 4.01
-4 2 3 1.24 6.67
-4 2 3 0.46 5.41
3 -2 -3 67.85 8.9
3 -2 -3 73.51 8.63
3 -2 -3 70.81 9.46
3 -2 -3 99.58 9.52
3 -2 -3 58.89 8.32
3 -2 -3 73.4 8.4
3 -2 -3 64.52 9.28
-3 2 3 78.58 8.59
-3 2 3 67.99 8.57
-3 2 3 47.21 5.84
-3 2 3 49.69 9.7
-3 2 3 59.87 7.6
2 -2 -3 79.9 10.18
2 -2 -3 103.8 10.39
2 -2 -3 77.18 8.96
2 -2 -3 90.75 9.89
2 -2 -3 78.14 9.11
2 -2 -3 91.02 10.69
2 -2 -3 90.61 10
-2 2 3 77.23 8.78
-2 2 3 92.26 8.63
-2 2 3 88.08 9.88
-2 2 3 82.91 11.98
-2 2 3 94.46 9.83
-2 2 3 90.97 9.4
-2 2 3 88.55 9.94
-2 2 3 81.85 7.34
1 -2 -3 40.7 5.56
1 -2 -3 37.24 6.59
1 -2 -3 29.33 6.42
1 -2 -3 39.04 6.91
1 -2 -3 23.96 6.92
1 -2 -3 39.52 5.68
-1 2 3 39.42 7.15
-1 2 3 37.52 6.19
-1 2 3 47.12 9.39
-1 2 3 38.06 5.4
-1 2 3 44.33 6.94
-1 2 3 40.12 4.85
-1 2 3 39.85 6.11
-1 2 3 38.67 5.85
-1 2 3 33.76 6.17
0 -2 -3 182.97 15.13
0 -2 -3 168.44 13.98
0 -2 -3 180.37 15
0 -2 -3 171.28 15.13
0 -2 -3 172.89 15.09
0 -2 -3 165.58 15.38
0 -2 -3 171.05 14.63
0 2 3 160.22 14.52
0 2 3 178.69 14.66
0 2 3 156.78 15.08
0 2 3 165.09 14.91
0 2 3 181.32 16.15
0 2 3 159.67 15.01
0 2 3 160.12 15.02
0 2 3 159.44 15.09
0 2 3 154.68 13.82
0 2 3 182.09 16.74
-1 -2 -3 87.15 9.29
-1 -2 -3 85.48 8.67
-1 -2 -3 95.97 8.51
-1 -2 -3 90.54 9.65
-1 -2 -3 90.98 9.85
1 2 3 86.5 9.23
1 2 3 86.57 9.18
1 2 3 89.58 9.24
1 2 3 85.99 7.95
1 2 3 102.56 11.65
1 2 3 90.96 9.1
1 2 3 85.99 9.02
1 2 3 96.06 12.34
-2 -2 -3 29.62 4.06
-2 -2 -3 21.41 4.57
-2 -2 -3 30.95 5.73
-2 -2 -3 25.7 4.15
-2 -2 -3 33.27 5.43
2 2 3 33.33 5.12
2 2 3 30.52 5
2 2 3 23.84 5.66
2 2 3 29.73 7.89
2 2 3 35.08 5.3
2 2 3 26.37 4.47
2 2 3 37.54 5.44
2 2 3 27.8 5.38
2 2 3 25.9 6.58
-3 -2 -3 8.04 3.69
-3 -2 -3 -0.78 4.09
-3 -2 -3 3.54 2.76
3 2 3 -3.46 6.4
3 2 3 0.7 3.8
3 2 3 -0.09 3.59
3 2 3 2.72 3.81
3 2 3 -5.44 3.47
3 2 3 7.79 3.74
3 2 3 -6.15 3.8
3 2 3 -0.02 5.99
-4 -2 -3 14.69 6.73
-4 -2 -3 0.55 1.56
4 2 3 8.63 3.67
4 2 3 15.13 7.78
4 2 3 3.16 3.89
4 2 3 12.23 3.89
4 2 3 7.35 4.13
4 2 3 10.69 6.66
4 2 3 4 3.8
-5 -2 -3 -0.33 5.27
5 2 3 6.22 4.28
5 2 3 8.07 8.14
5 2 3 5.25 3.83
5 2 3 1.95 6.3
5 2 3 0.59 4.17
5 2 3 4.77 3.4
5 2 3 6.09 8.48
-6 -2 -3 6.42 8.3
6 2 3 -7.56 8.5
6 2 3 -13.65 8.84
6 2 3 0.34 3.87
6 2 3 0.81 4.32
6 2 3 5.97 3.52
6 2 3 -6.83 6.04
-7 -2 -3 -3.19 9.09
7 2 3 5.82 10.69
7 2 3 -1.11 4.1
7 2 3 -4.84 9.18
8 2 3 8.91 4.92
8 2 3 -15 10.23
8 -3 -3 -1.21 7.25
8 -3 -3 3.21 8.43
8 -3 -3 12.27 9.11
8 -3 -3 14.46 10.21
8 -3 -3 4.68 10.29
7 -3 -3 1.96 8.83
7 -3 -3 6.76 9.57
7 -3 -3 2.62 7.06
7 -3 -3 -1.74 8.43
7 -3 -3 -10 6.76
6 -3 -3 15.79 7.92
6 -3 -3 5.46 6.32
6 -3 -3 4.42 6.73
6 -3 -3 5.65 8.82
6 -3 -3 8.95 6.56
-6 3 3 2.24 5.27
-6 3 3 -2.36 7.03
5 -3 -3 9.38 8.3
5 -3 -3 1.96 7.36
5 -3 -3 5.28 6.46
5 -3 -3 7.18 6.4
5 -3 -3 11.95 6.21
-5 3 3 7.14 6.61
-5 3 3 25.71 7.41
-5 3 3 3.23 5.23
4 -3 -3 12.85 6.58
4 -3 -3 4.99 6.16
4 -3 -3 10.75 7.1
4 -3 -3 14.03 7.91
4 -3 -3 9.58 6.1
4 -3 -3 10.72 4.74
-4 3 3 -2.22 5.87
-4 3 3 2.87 5.58
-4 3 3 4.02 7.29
-4 3 3 -4.43 4.53
3 -3 -3 35.43 7.14
3 -3 -3 12.59 6.12
3 -3 -3 33.26 6.68
3 -3 -3 25.53 6.77
3 -3 -3 28.26 8.17
3 -3 -3 21.27 6.96
-3 3 3 17.93 5.5
-3 3 3 23.14 6.31
-3 3 3 30.37 5.59
-3 3 3 19.97 4.49
-3 3 3 23.19 7.18
2 -3 -3 12.25 5.39
2 -3 -3 12.8 6.23
2 -3 -3 20.59 5
2 -3 -3 17.39 6.1
2 -3 -3 21.62 7.22
2 -3 -3 23.86 6.46
2 -3 -3 17.79 5.91
-2 3 3 16.91 5.12
-2 3 3 23.4 6.27
-2 3 3 23.84 4.76
-2 3 3 24.01 5.91
-2 3 3 16.83 3.16
-2 3 3 13.24 5
-2 3 3 15.34 6.6
1 -3 -3 4.87 5.06
1 -3 -3 -2.81 5.19
1 -3 -3 -0.77 3.96
1 -3 -3 4.27 4.54
1 -3 -3 5.15 5.34
1 -3 -3 7.04 3.36
-1 3 3 12.76 5.29
-1 3 3 8.42 7.87
-1 3 3 3.22 4.45
-1 3 3 7.62 4.82
-1 3 3 4.19 3.08
-1 3 3 0.26 4.34
-1 3 3 8.25 4.15
0 -3 -3 113.21 9.74
0 -3 -3 119.67 12
0 -3 -3 123.79 11.43
0 -3 -3 138.1 11.92
0 -3 -3 128.63 12.5
0 3 3 141.47 11.3
0 3 3 123.5 11.97
0 3 3 108.78 11.57
0 3 3 112.4 11.17
0 3 3 113.8 14.65
0 3 3 128.45 11.85
0 3 3 111.54 11.62
0 3 3 117.93 13.16
-1 -3 -3 10.89 5.15
-1 -3 -3 11.79 5.8
-1 -3 -3 4.51 4.02
-1 -3 -3 10.85 4.31
-1 -3 -3 8.91 3.7
1 3 3 14.91 4.36
1 3 3 10.01 4.65
1 3 3 14.12 4.59
1 3 3 6.74 4.62
1 3 3 14.28 7.49
1 3 3 3.75 4.26
1 3 3 8.56 5.58
-2 -3 -3 23.09 5.55
-2 -3 -3 26.89 3.98
-2 -3 -3 27.77 4.52
-2 -3 -3 41.46 5.67
-2 -3 -3 20.96 4.2
2 3 3 37.17 5.31
2 3 3 29.86 8.46
2 3 3 39.17 5.46
2 3 3 31.49 5.24
2 3 3 40.99 5.87
2 3 3 25.3 8.35
2 3 3 27.61 5.78
-3 -3 -3 -0.36 3.75
-3 -3 -3 0.24 5.98
-3 -3 -3 2.89 4.08
3 3 3 -0.86 4.37
3 3 3 0.51 3.77
3 3 3 5.84 4.35
3 3 3 -4.61 4.03
3 3 3 -12.2 3.21
3 3 3 1.77 7.03
3 3 3 -1.44 3.49
3 3 3 3.09 7.4
-4 -3 -3 16.79 7.4
4 3 3 12.85 4.74
4 3 3 23.25 5.23
4 3 3 14.82 4.66
4 3 3 27.62 8.78
4 3 3 41.14 8.44
4 3 3 21.66 5.06
-5 -3 -3 4.4 7.89
5 3 3 9.15 4.5
5 3 3 19.08 8.09
5 3 3 6.15 3.91
5 3 3 7.48 3.78
5 3 3 18.36 9.34
-6 -3 -3 -0.48 6.48
6 3 3 0.67 3.69
6 3 3 2.43 7.69
6 3 3 8.26 9.76
6 3 3 1.5 4.03
6 3 3 2.3 9.14
-7 -3 -3 -3.83 6.72
7 3 3 16.03 11.57
7 3 3 8.45 10.97
7 3 3 6.49 3.99
8 -4 -3 3.24 10.74
8 -4 -3 7.97 10.42
7 -4 -3 4.48 9.81
7 -4 -3 3.18 9.31
7 -4 -3 -1.75 8.19
7 -4 -3 5.29 7.74
7 -4 -3 4.05 8.04
-7 4 3 -16.45 5.62
6 -4 -3 15.5 7.99
6 -4 -3 -10.57 6.99
6 -4 -3 5.29 9.49
6 -4 -3 7.36 6.6
6 -4 -3 -3.56 6.65
-6 4 3 -4.19 5.89
-6 4 3 -7.3 7.73
5 -4 -3 5.73 5.66
5 -4 -3 -0.6 6.88
5 -4 -3 10.03 7.92
5 -4 -3 10.46 9.59
5 -4 -3 -3.65 6.31
-5 4 3 1.25 7.25
-5 4 3 1.15 8.48
-5 4 3 9.54 6.95
4 -4 -3 11.48 8.89
4 -4 -3 12.24 6.64
4 -4 -3 4.63 7.03
4 -4 -3 -2.53 6.79
4 -4 -3 12.9 6.74
-4 4 3 12.81 6.97
-4 4 3 8.47 5.88
-4 4 3 18.13 9.5
-4 4 3 9.15 3.86
-4 4 3 11.71 6.48
3 -4 -3 51.65 8.86
3 -4 -3 43.74 7.54
3 -4 -3 35.26 8.37
3 -4 -3 35.85 9.92
3 -4 -3 51.74 7.9
3 -4 -3 46.97 8.36
-3 4 3 44.68 7.55
-3 4 3 36.26 10.92
-3 4 3 51.72 8.41
-3 4 3 46.28 6.88
-3 4 3 47.66 8.4
2 -4 -3 11.43 7.55
2 -4 -3 7.91 5.53
2 -4 -3 17.89 6.6
2 -4 -3 11.27 6.4
2 -4 -3 10.04 4.42
2 -4 -3 13.55 6.27
-2 4 3 13.6 9.07
-2 4 3 13.89 5.22
-2 4 3 12.53 4.89
-2 4 3 15.28 5.88
-2 4 3 11.96 5.62
-2 4 3 8.94 3.27
1 -4 -3 40.74 7.56
1 -4 -3 25.21 6.13
1 -4 -3 34.42 4.55
1 -4 -3 32.8 7.28
1 -4 -3 24.46 6.91
-1 4 3 28.3 6.43
-1 4 3 31 9.84
-1 4 3 34.4 6.33
-1 4 3 36.98 7.2
-1 4 3 28.42 6.48
-1 4 3 38.14 5.36
0 -4 -3 71.17 9.29
0 -4 -3 77.39 8.68
0 -4 -3 74.49 8.77
0 -4 -3 74.74 9.92
0 4 3 89.52 11.32
0 4 3 70.33 8.71
0 4 3 82.32 9.68
0 4 3 77.54 9.12
0 4 3 66.52 12.1
0 4 3 70.05 9.18
-1 -4 -3 114.69 10.52
-1 -4 -3 116.42 11.74
-1 -4 -3 103.49 10.12
-1 -4 -3 99.75 11.29
1 4 3 106.99 10.89
1 4 3 103.36 10.94
1 4 3 69.97 12.51
1 4 3 100.82 12.74
1 4 3 113.92 10.76
1 4 3 108.44 10.74
1 4 3 102.91 10.92
-2 -4 -3 4.83 6.23
-2 -4 -3 15.82 4.43
-2 -4 -3 11.11 3.85
-2 -4 -3 8.21 3.46
-2 -4 -3 11.16 5.33
2 4 3 10.74 6.64
2 4 3 15.87 5.88
2 4 3 8.29 8.19
2 4 3 16.51 5.63
2 4 3 20.59 5.01
2 4 3 10.93 4.82
2 4 3 9.69 4.65
-3 -4 -3 4.56 4.98
-3 -4 -3 8.46 4.6
3 4 3 -1.64 5.81
3 4 3 5.42 4.52
3 4 3 1.63 4.87
3 4 3 9.3 4.83
3 4 3 8.35 3.79
3 4 3 5.32 4.66
3 4 3 6.86 8.48
-4 -4 -3 24.26 8.28
4 4 3 38.84 10.72
4 4 3 16.59 4.92
4 4 3 16.25 9.96
4 4 3 19.82 5.28
4 4 3 24.82 5.5
4 4 3 39.82 6.08
-5 -4 -3 0.93 8.45
5 4 3 1.09 3.86
5 4 3 7.88 8.76
5 4 3 1.87 4.6
5 4 3 8.08 9.83
5 4 3 3.21 4.34
-6 -4 -3 12.91 9.53
6 4 3 16.85 9.38
6 4 3 6.13 4.08
6 4 3 13.51 10.71
6 4 3 0.22 10.71
-7 -4 -3 -3.07 9.61
7 4 3 -3.22 11.29
7 4 3 1.79 3.43
7 4 3 -7.83 10.19
7 -5 -3 10.79 9.75
7 -5 -3 13.37 8.14
7 -5 -3 -2.08 8.19
7 -5 -3 2.71 8.6
7 -5 -3 7.21 11.31
-7 5 3 -1.65 7.32
6 -5 -3 -1.85 10.59
6 -5 -3 -11.67 7.48
6 -5 -3 -3.32 6.03
6 -5 -3 -0.25 8.06
6 -5 -3 8.4 7.57
-6 5 3 -14.42 7.1
-6 5 3 -1.12 8.51
5 -5 -3 5.24 7.09
5 -5 -3 9.82 6.22
5 -5 -3 -3.72 7.21
5 -5 -3 8.11 8.15
5 -5 -3 -0.29 9.7
-5 5 3 5.12 6.56
-5 5 3 -1.56 8.69
-5 5 3 4.12 8.01
4 -5 -3 9.34 9.71
4 -5 -3 24.95 7.7
4 -5 -3 17.51 8.26
4 -5 -3 22.36 6.43
4 -5 -3 5.97 6.85
-4 5 3 4.8 11.88
-4 5 3 -2.42 7.51
-4 5 3 7.83 6.83
-4 5 3 4.38 7.73
-4 5 3 12.86 7.86
3 -5 -3 24.01 9.78
3 -5 -3 30.65 7.04
3 -5 -3 14.07 7.79
3 -5 -3 28.53 7.55
3 -5 -3 18.23 7.67
-3 5 3 34.74 6.98
-3 5 3 22.61 7.99
-3 5 3 21.61 7.35
-3 5 3 14.51 10.88
2 -5 -3 7.13 5.01
2 -5 -3 13.41 5.98
2 -5 -3 10.14 6.7
2 -5 -3 7.26 4.38
2 -5 -3 12.17 6.82
2 -5 -3 13.49 7.47
-2 5 3 2.36 5.18
-2 5 3 16.55 7.22
-2 5 3 17.05 6.53
-2 5 3 17.52 7.89
-2 5 3 11.52 5.17
1 -5 -3 17.04 6.34
1 -5 -3 8.05 6.08
1 -5 -3 9.63 4.83
1 -5 -3 7.39 2.69
1 -5 -3 -3.35 6.79
1 -5 -3 8.85 5.57
1 -5 -3 16.32 2.95
-1 5 3 18.56 5.68
-1 5 3 10.76 6.2
-1 5 3 18.15 6.27
-1 5 3 7.25 6.51
-1 5 3 15.9 9.69
0 -5 -3 54.98 9
0 -5 -3 65.88 8.66
0 -5 -3 75.82 10.46
0 -5 -3 75.36 9.86
0 -5 -3 78.95 9.28
0 5 3 68.28 9.48
0 5 3 67.32 9.16
0 5 3 69.83 9.69
0 5 3 61.92 12.42
0 5 3 84.3 9.98
-1 -5 -3 43.72 8.58
-1 -5 -3 53.01 8.96
-1 -5 -3 57.46 7.77
1 5 3 49.26 7.81
1 5 3 45.43 11.62
1 5 3 69.38 8.77
1 5 3 59.8 8.47
1 5 3 54.5 8.49
1 5 3 65 8.79
1 5 3 49.01 10.62
-2 -5 -3 5.67 4.15
-2 -5 -3 19.26 7.14
-2 -5 -3 32.72 6.64
2 5 3 20.88 6.69
2 5 3 21 6.26
2 5 3 21.75 9.55
2 5 3 16.37 5.5
2 5 3 18.92 6.21
2 5 3 12.99 7.66
-3 -5 -3 3.93 7.19
3 5 3 4.23 4.45
3 5 3 -0.54 5.19
3 5 3 7.3 9.13
3 5 3 -1.06 6.55
3 5 3 10.38 6.02
-4 -5 -3 -4.42 7.36
4 5 3 6.84 4.77
4 5 3 3.23 8.39
4 5 3 -2.79 7.19
4 5 3 -6.44 5.19
4 5 3 9.24 10
-5 -5 -3 3.2 8.65
5 5 3 -0.02 7.97
5 5 3 -2.13 4.27
5 5 3 7.77 10.39
5 5 3 7.75 4.97
-6 -5 -3 0.83 9.54
6 5 3 -7.69 4.25
6 5 3 16.96 10.95
6 5 3 5.5 10.96
6 -6 -3 -6.48 8.92
6 -6 -3 11.57 8.79
6 -6 -3 -1.47 8.81
6 -6 -3 4.92 8.42
6 -6 -3 -2.41 11.7
-6 6 3 -0.33 7.76
-6 6 3 4.9 9.44
5 -6 -3 -8.49 7.28
5 -6 -3 5.45 8.75
5 -6 -3 7.1 7.86
5 -6 -3 8 8.4
5 -6 -3 -5.26 10.68
-5 6 3 -2.04 6.75
-5 6 3 16.89 9.32
-5 6 3 -5.29 10.21
4 -6 -3 24.09 9.08
4 -6 -3 48.14 9.45
4 -6 -3 29.05 11.95
4 -6 -3 39.29 9.24
4 -6 -3 57.46 10.1
-4 6 3 25.86 7.64
-4 6 3 28.78 9.16
-4 6 3 9.48 12.45
3 -6 -3 2 6.85
3 -6 -3 21.01 8.41
3 -6 -3 15.52 7.06
3 -6 -3 8.13 8.11
3 -6 -3 -2.22 7.17
-3 6 3 5.22 6.39
-3 6 3 6.4 5.98
-3 6 3 9.56 7.64
-3 6 3 6.52 10.88
2 -6 -3 33.12 5.71
2 -6 -3 18.11 7.33
2 -6 -3 31.55 9.25
2 -6 -3 25.51 8
2 -6 -3 36.37 7.63
2 -6 -3 38.49 7.24
-2 6 3 27.44 11.95
-2 6 3 40.73 7.73
-2 6 3 30.68 8.26
-2 6 3 37.62 7.53
1 -6 -3 3.41 6.75
1 -6 -3 -2.48 6.31
1 -6 -3 10.6 7.47
1 -6 -3 7.35 7.18
-1 6 3 0.99 7.16
-1 6 3 8.84 5.66
-1 6 3 4.67 6.52
-1 6 3 6.16 6.07
0 -6 -3 52.64 9.29
0 -6 -3 44.99 7.4
0 -6 -3 33.2 7.5
0 -6 -3 57.96 9.34
0 6 3 54.09 8.28
0 6 3 31.59 8.02
0 6 3 34.55 11.6
0 6 3 41.03 8.24
-1 -6 -3 10.5 7.81
-1 -6 -3 13.91 7.18
-1 -6 -3 19.26 7.9
1 6 3 21.49 6.62
1 6 3 22.43 10.45
1 6 3 18.87 9.53
1 6 3 19.44 6.58
1 6 3 19.22 7.36
-2 -6 -3 5.67 7.02
-2 -6 -3 -2.17 4.68
2 6 3 -4.05 9.38
2 6 3 4.51 9.34
2 6 3 -0.53 6.83
2 6 3 1.89 5.33
2 6 3 8.63 5.66
-3 -6 -3 14.86 7.68
3 6 3 6.65 10.27
3 6 3 9.49 5.93
3 6 3 20.26 10.71
3 6 3 13.53 6.49
3 6 3 12.06 6.68
-4 -6 -3 2.31 8.43
4 6 3 -4.53 10.03
4 6 3 1.26 5.08
4 6 3 4.6 5.76
4 6 3 7.67 8.41
-5 -6 -3 2.82 8.98
5 6 3 -3.88 5.04
5 6 3 -5.2 10.75
5 6 3 0.81 10.49
-6 -6 -3 -13.15 9.77
6 6 3 -1.12 5.14
6 -7 -3 -0.35 9.41
6 -7 -3 2.55 9.31
-6 7 3 -3.49 8
5 -7 -3 8.42 9.55
5 -7 -3 -8.22 11.66
5 -7 -3 3.25 8.29
5 -7 -3 0.67 8.73
-5 7 3 2.18 7.54
-5 7 3 -11.03 8.81
-5 7 3 -25.35 15.72
4 -7 -3 4.94 10.74
4 -7 -3 6.7 9.05
4 -7 -3 -1.37 9.05
4 -7 -3 -5.93 7.27
-4 7 3 -9.65 6.44
-4 7 3 -18.41 12.32
-4 7 3 -6.15 8.59
3 -7 -3 12.72 10.01
3 -7 -3 1.2 7.73
3 -7 -3 14.17 7.72
-3 7 3 8.53 12.72
-3 7 3 16.64 8.5
-3 7 3 17.56 8.58
-3 7 3 10.56 6.94
2 -7 -3 5.96 8.36
2 -7 -3 0.09 8.1
2 -7 -3 -0.41 6.66
2 -7 -3 -3.33 6.41
-2 7 3 -3.63 7.53
-2 7 3 4.54 11.01
-2 7 3 2.31 6.37
-2 7 3 -0.68 5.83
1 -7 -3 6.63 6.52
1 -7 -3 11.08 8.95
1 -7 -3 0.6 7.56
1 -7 -3 -1.64 5.85
-1 7 3 -10.87 7.41
-1 7 3 -4.77 7.59
-1 7 3 7.04 6.74
-1 7 3 1.09 7.38
0 -7 -3 -11.64 7.74
0 -7 -3 22.28 8.42
0 -7 -3 8.84 6.59
0 -7 -3 1.38 8.09
0 7 3 28.39 7.33
0 7 3 17.16 7.49
0 7 3 17.54 7.79
0 7 3 13.93 11.04
-1 -7 -3 28.83 7.97
-1 -7 -3 32.12 9.91
1 7 3 20.7 9.24
1 7 3 23.94 10.27
1 7 3 22.43 7.65
1 7 3 35.53 8.79
1 7 3 31.32 7.89
-2 -7 -3 2.82 6.93
2 7 3 8.26 7.13
2 7 3 1.53 6.94
2 7 3 8.48 6.34
2 7 3 12.9 10.71
2 7 3 -2.62 9.77
-3 -7 -3 -5.45 8.21
3 7 3 -3.62 5.27
3 7 3 6.15 8.47
3 7 3 8.77 10.84
3 7 3 4.25 6.77
3 7 3 8.37 7.12
-4 -7 -3 -1.91 9.34
4 7 3 3.09 5.41
4 7 3 1.54 11.36
4 7 3 6.25 11.96
4 7 3 -1.81 6.23
-5 -7 -3 5.43 9.48
5 7 3 -16.63 13.1
5 7 3 18.41 12.97
4 -8 -3 4.42 8.74
4 -8 -3 5.68 8.74
4 -8 -3 -0.43 8.77
4 -8 -3 20.07 11.07
-4 8 3 -0.52 7.15
-4 8 3 26.63 10.15
-4 8 3 -30.6 13.36
3 -8 -3 2.97 7.82
3 -8 -3 5.51 8.04
3 -8 -3 2.68 8.01
-3 8 3 10.1 9.08
-3 8 3 -20.95 11.66
-3 8 3 -8.22 6.5
2 -8 -3 3.91 7.36
2 -8 -3 39.24 11.7
2 -8 -3 14.29 7.83
-2 8 3 19.08 9.34
-2 8 3 9.45 7.37
-2 8 3 22.65 9.29
-2 8 3 -1.72 11.86
1 -8 -3 -1.42 7.81
1 -8 -3 13.33 7.81
1 -8 -3 16.89 7.89
1 -8 -3 -0.28 9.52
-1 8 3 3.29 8.21
-1 8 3 3.49 7.19
-1 8 3 1.78 11.84
-1 8 3 -5.04 6.38
0 -8 -3 14.28 11.65
0 -8 -3 16.83 7.36
0 -8 -3 10.96 10.03
0 8 3 2.32 7.28
0 8 3 12.81 8.88
0 8 3 -0.09 8.05
0 8 3 11.49 8.1
-1 -8 -3 -4.75 8.73
1 8 3 -3.98 10.6
1 8 3 9.76 7.56
1 8 3 2.41 7.37
1 8 3 0.8 10.06
1 8 3 1.85 8.48
2 8 3 3.46 6.84
2 8 3 8.15 11.67
2 8 3 -7.27 7.25
2 8 3 1.61 11.03
2 8 3 5.13 7.01
3 8 3 5.9 11.21
3 8 3 -2.42 6.64
3 8 3 -3.91 7.89
3 8 3 6.72 12.12
3 -9 -3 -0.12 9.47
2 -9 -3 -3.86 7.44
2 -9 -3 2.13 10.8
-2 9 3 -10.87 9.16
-2 9 3 3.29 7.89
-2 9 3 -23.38 13.09
-2 9 3 10.4 10.67
1 -9 -3 2.39 8.36
-1 9 3 -7.38 12.53
-1 9 3 12.62 7.48
-1 9 3 -1.63 9.64
-1 9 3 4.9 7.86
0 -9 -3 2.17 9.33
0 9 3 -7.11 9.62
0 9 3 9.21 9.17
0 9 3 -5.01 11.95
0 9 3 9.92 8.8
1 9 3 14.79 12.8
1 9 3 16.24 11.93
1 9 3 34.34 10.06
1 9 3 14.23 9.96
1 9 3 15.47 8.48
2 9 3 -2.1 8.58
2 11 -4 -2.47 9.14
2 11 -4 5.43 7.39
2 11 -4 8.88 8.82
1 11 -4 29.69 10.23
1 11 -4 35.68 10.66
1 11 -4 9.96 7.89
1 11 -4 10.49 8.27
-1 -11 4 12.58 9.5
0 11 -4 -4.14 7.38
0 11 -4 4.58 8.04
0 11 -4 19.51 11.62
0 11 -4 -1.86 8.66
0 -11 4 -6.2 6.56
0 -11 4 5.75 9.35
-1 11 -4 16.99 10.37
-1 11 -4 5.59 7.51
-1 11 -4 8.77 9.12
-1 11 -4 15.87 9.42
1 -11 4 6.05 7.83
1 -11 4 -6.69 8.8
-2 11 -4 9.75 8.74
-2 11 -4 5.51 14.12
2 -11 4 -2.73 6.93
2 -11 4 16.78 9.57
2 -11 4 -3.8 9.57
2 -11 4 -10.54 9.42
4 10 -4 21.5 13.93
4 10 -4 3.43 6.74
3 10 -4 16.5 12.08
3 10 -4 0.76 5.87
3 10 -4 -1.07 7.65
-3 -10 4 2.55 8.58
2 10 -4 18.73 11.92
2 10 -4 15.73 7.87
2 10 -4 12.25 7.12
2 10 -4 32.13 9.38
-2 -10 4 0.23 6.27
1 10 -4 4.65 6.9
1 10 -4 0.84 6.8
1 10 -4 15.43 10.73
1 10 -4 9.48 10.51
1 10 -4 -0.92 8.97
-1 -10 4 -4.27 7.74
0 10 -4 12.76 8.81
0 10 -4 23.08 7.89
0 10 -4 27.28 10.45
0 10 -4 8.57 8.47
0 10 -4 10.88 10.79
0 -10 4 16.01 6.26
0 -10 4 24.67 9.02
-1 10 -4 4.6 8.53
-1 10 -4 8.98 10.16
-1 10 -4 -1.75 6.74
-1 10 -4 1.71 8.78
1 -10 4 -1.29 6.91
1 -10 4 -4.29 6.03
1 -10 4 -9.09 7.68
1 -10 4 2.53 8.81
-2 10 -4 10.77 7.32
-2 10 -4 23.05 10.31
-2 10 -4 16.72 9.26
-2 10 -4 5.01 7.02
2 -10 4 12.33 7.13
2 -10 4 14.22 9.18
2 -10 4 25.77 10.31
2 -10 4 17.05 9.87
-3 10 -4 1.62 8.92
-3 10 -4 -9.1 6.25
3 -10 4 0.65 9.9
3 -10 4 13.36 9.04
3 -10 4 -11.77 6.33
3 -10 4 21.95 8.5
-4 10 -4 14.24 9.05
-4 10 -4 3.7 9.09
4 -10 4 13.51 11.65
4 -10 4 7.41 8.88
4 -10 4 13.79 10.49
4 -10 4 6.38 10.61
5 9 -4 7.95 5.63
5 9 -4 25.11 13.25
-5 -9 4 8.55 9.53
4 9 -4 6.42 6.9
4 9 -4 20.5 11.69
4 9 -4 8.44 10.59
4 9 -4 -1.04 5.25
-4 -9 4 -0.99 8.09
3 9 -4 5.9 6.17
3 9 -4 23 11.57
3 9 -4 16.34 10.12
3 9 -4 9.15 6.71
3 9 -4 16.32 7.34
-3 -9 4 -3.1 7.86
2 9 -4 6.74 9.07
2 9 -4 -0.98 6.53
2 9 -4 5.11 7.88
2 9 -4 7.06 7.42
2 9 -4 10.21 6.03
-2 -9 4 3.9 7.77
1 9 -4 30.14 7.48
1 9 -4 22.34 7.26
1 9 -4 23.34 10.82
1 9 -4 40.37 9.23
1 9 -4 33.31 11.41
-1 -9 4 27.13 8.72
-1 -9 4 20.05 5.98
0 9 -4 -14.85 9.45
0 9 -4 6.63 8.6
0 9 -4 4.65 7.67
0 9 -4 3.23 7.03
0 9 -4 -1.21 5.8
0 -9 4 -4 7.22
0 -9 4 -1.03 7.2
0 -9 4 3.5 6.23
0 -9 4 -7.91 7.23
-1 9 -4 -10.34 7.11
-1 9 -4 10.2 6.23
-1 9 -4 9.74 9.29
-1 9 -4 7.41 7.46
-1 9 -4 1.89 8.04
1 -9 4 -2.1 5.46
1 -9 4 0.51 7.58
1 -9 4 -4.19 7.48
1 -9 4 10.06 8.41
-2 9 -4 0.71 6.25
-2 9 -4 0.45 6.06
-2 9 -4 -5.99 7.18
-2 9 -4 14.7 7.87
2 -9 4 1.12 5.6
2 -9 4 0.7 7.89
2 -9 4 13.09 8.2
2 -9 4 11.43 8.78
-3 9 -4 -2.87 5.94
-3 9 -4 6.21 8.16
3 -9 4 -1.39 8.64
3 -9 4 7.38 6.4
3 -9 4 9.87 9.29
3 -9 4 5.66 8.21
-4 9 -4 -6.92 6.38
-4 9 -4 9 8.65
4 -9 4 4.1 8.26
4 -9 4 2.63 6.21
4 -9 4 7.4 10.2
4 -9 4 8.24 9.33
-5 9 -4 9.37 9.62
-5 9 -4 -2.02 7.44
5 -9 4 22.16 9.68
5 -9 4 19.52 7.6
5 -9 4 9.89 11.51
6 8 -4 4.71 4.59
6 8 -4 12.71 14.64
6 8 -4 10.27 11.68
-6 -8 4 -14.43 8.04
5 8 -4 -16.33 12.61
5 8 -4 -1.64 4.61
-5 -8 4 2.92 8.3
4 8 -4 9.43 5.1
4 8 -4 3.19 10.28
4 8 -4 1.52 6.07
-4 -8 4 6.61 8.13
3 8 -4 5.46 5.82
3 8 -4 -5.13 6.02
3 8 -4 1.59 10.73
-3 -8 4 4.82 7.3
2 8 -4 7.02 7.03
2 8 -4 0.51 6
2 8 -4 -0.68 8.76
-2 -8 4 -1.32 7.02
-2 -8 4 5.56 4.08
1 8 -4 6.91 6.03
1 8 -4 6.09 6.5
1 8 -4 1.07 6.24
1 8 -4 15.26 10.15
-1 -8 4 -1.42 7.01
-1 -8 4 -3.77 4.69
-1 -8 4 13.49 6.34
0 8 -4 21.81 9.33
0 8 -4 19.82 7.21
0 8 -4 14.25 7.03
0 8 -4 30.1 8.02
0 8 -4 20.55 6.39
0 -8 4 28.35 8.01
0 -8 4 12.84 7.53
0 -8 4 32.14 7.8
0 -8 4 19.82 6.33
-1 8 -4 5.6 7.43
-1 8 -4 -2.41 8.42
-1 8 -4 -0.19 4.71
-1 8 -4 -2.28 5.39
-1 8 -4 -1.38 5.07
1 -8 4 7.45 6.03
1 -8 4 9.13 7.37
1 -8 4 0.9 7.09
1 -8 4 -2.06 6.71
-2 8 -4 -7.07 7.06
-2 8 -4 11.76 5.91
-2 8 -4 10.95 9.29
-2 8 -4 -2.74 6.09
-2 8 -4 -4.75 4.73
2 -8 4 3.21 7.37
2 -8 4 -3.9 7.57
2 -8 4 12.16 7.23
2 -8 4 5.66 5.52
-3 8 -4 9.13 7.99
-3 8 -4 15.16 7.52
-3 8 -4 -10.61 5.26
-3 8 -4 5.53 6.28
3 -8 4 1.95 5.55
3 -8 4 -7.89 8.08
3 -8 4 15.44 8.5
3 -8 4 13.27 7.92
-4 8 -4 13.05 8.1
-4 8 -4 3.31 6.22
4 -8 4 7.8 8.52
4 -8 4 -10.81 8.85
4 -8 4 6.74 6.28
4 -8 4 -7.79 7.98
4 -8 4 12 6.71
-5 8 -4 1.5 8.4
-5 8 -4 -1.57 6.74
5 -8 4 14.59 9.17
5 -8 4 6.76 8.61
5 -8 4 -3.38 7.59
5 -8 4 -12.84 9.32
5 -8 4 2.76 6.78
-6 8 -4 18.42 10.11
-6 8 -4 -20.86 7.9
6 -8 4 -7.48 11.22
6 -8 4 7.99 7.67
6 -8 4 9.71 9.42
6 -8 4 3.24 9.74
6 -8 4 9.21 8.21
6 7 -4 -7.9 13.96
-6 -7 4 1.91 8.35
5 7 -4 6.11 11.28
5 7 -4 24.48 5.41
-5 -7 4 11.08 8.06
4 7 -4 -7.21 5.17
4 7 -4 -0.7 5.32
4 7 -4 4.15 10.44
4 7 -4 0.98 4.63
-4 -7 4 -6.68 6.83
3 7 -4 1.82 9.1
3 7 -4 5.03 6.01
3 7 -4 5.49 4.93
3 7 -4 11.01 5.36
-3 -7 4 -3.12 6.59
2 7 -4 9.76 5.17
2 7 -4 3.78 4.74
2 7 -4 4.95 6.34
2 7 -4 -9.01 7.91
-2 -7 4 7.61 3.72
-2 -7 4 9.75 6.76
-2 -7 4 -5.17 4.47
1 7 -4 34.27 7.32
1 7 -4 22.66 9.99
1 7 -4 32.93 6.67
1 7 -4 23.16 6.04
-1 -7 4 28.17 6.92
-1 -7 4 33.5 7.04
-1 -7 4 25.39 6.46
-1 -7 4 26.74 5.48
0 7 -4 16.9 5.52
0 7 -4 11.06 8.24
0 7 -4 4.07 5.37
0 -7 4 10.81 6.3
0 -7 4 2.46 4.94
0 -7 4 11.01 6.72
0 -7 4 11.66 5.8
0 -7 4 -2.88 5.32
-1 7 -4 -2.63 4.46
-1 7 -4 1.8 7.94
-1 7 -4 4.71 5.04
-1 7 -4 2.16 4.33
1 -7 4 4.19 2.83
1 -7 4 6.09 6.28
1 -7 4 3.21 4.65
1 -7 4 6 4.73
1 -7 4 6.73 6.43
1 -7 4 -6.05 5.71
-2 7 -4 1.57 5.04
-2 7 -4 1.96 4.97
-2 7 -4 8.07 8.34
-2 7 -4 4.81 6.3
-2 7 -4 0.26 5.82
2 -7 4 -5.41 4.61
2 -7 4 12.39 7.32
2 -7 4 1.16 4.24
2 -7 4 -3.32 6.29
2 -7 4 4.52 4.9
-3 7 -4 27.46 7.39
-3 7 -4 19.19 6.4
-3 7 -4 35.64 8.82
-3 7 -4 29.61 7.03
3 -7 4 29.3 6.67
3 -7 4 25.18 8.65
3 -7 4 29.62 8.01
3 -7 4 35.8 8.43
3 -7 4 22.82 6.38
-4 7 -4 0.42 7.15
-4 7 -4 -0.47 5.71
4 -7 4 -0.41 5.5
4 -7 4 -1.28 6.98
4 -7 4 7.91 7.37
4 -7 4 6.61 5.8
4 -7 4 2.82 6.59
4 -7 4 8.81 7.52
-5 7 -4 20.09 7.34
-5 7 -4 13.7 8.45
5 -7 4 5.21 6.07
5 -7 4 2.08 6.35
5 -7 4 7.31 7.85
5 -7 4 17.27 8.07
5 -7 4 5.98 8.01
5 -7 4 12.56 7.96
-6 7 -4 -0.04 8.16
-6 7 -4 7.39 7.23
6 -7 4 8.04 8.94
6 -7 4 -6.72 10.54
6 -7 4 15.7 9.35
6 -7 4 0.22 8.72
6 -7 4 13.67 7.43
6 -7 4 16.44 7.77
7 6 -4 9.12 12.99
-7 -6 4 2.62 9.69
6 6 -4 -4.59 5.69
6 6 -4 1.61 4.27
6 6 -4 14.39 12.37
-6 -6 4 -2.55 7.12
5 6 -4 11.8 11.29
5 6 -4 -8.8 4.76
5 6 -4 4.88 4.18
5 6 -4 6.24 5.31
-5 -6 4 7.59 7.23
4 6 -4 1.23 4.42
4 6 -4 14.25 4.51
4 6 -4 10.77 5.12
4 6 -4 4.24 4.36
4 6 -4 10.88 9.91
-4 -6 4 29.32 7.71
3 6 -4 1.85 4.56
3 6 -4 3.95 4.56
3 6 -4 1.34 3.3
3 6 -4 -1.39 4.22
3 6 -4 13.54 9.37
3 6 -4 -2.33 3.83
-3 -6 4 1.28 5.9
-3 -6 4 -1.64 3.98
2 6 -4 2.79 4.34
2 6 -4 3.19 3.79
2 6 -4 1.05 4.72
2 6 -4 1.55 4.3
2 6 -4 -7.66 4.95
2 6 -4 5.65 8.96
2 6 -4 8.29 3.3
2 6 -4 7.34 4.39
-2 -6 4 5.5 3.48
-2 -6 4 5.28 4.76
-2 -6 4 10.3 6.34
-2 -6 4 2.12 4.36
1 6 -4 18.37 5.46
1 6 -4 15.88 4.99
1 6 -4 12.49 4.89
1 6 -4 12.64 4.92
1 6 -4 17.3 1.89
1 6 -4 20.56 5.18
1 6 -4 20.92 5.66
1 6 -4 13.08 7.69
-1 -6 4 13.4 6.33
-1 -6 4 17.74 5.49
-1 -6 4 24.95 5.64
-1 -6 4 15.7 4.46
0 6 -4 63.73 10.17
0 6 -4 54.93 7.89
0 6 -4 55.12 8.11
0 6 -4 41.32 7.22
0 -6 4 47.35 6.7
0 -6 4 58.57 5.09
0 -6 4 45.78 8.17
0 -6 4 51.64 7.58
0 -6 4 63.24 8.95
0 -6 4 44.09 7.52
-1 6 -4 28.69 8.26
-1 6 -4 24.38 6.66
-1 6 -4 28.71 5.52
-1 6 -4 21.01 5.56
1 -6 4 21.96 6.74
1 -6 4 34.06 6
1 -6 4 34.32 5.94
1 -6 4 31.16 4.65
1 -6 4 36.01 6.07
-2 6 -4 25.79 8.12
-2 6 -4 15.91 5.37
-2 6 -4 3.67 5.79
2 -6 4 19.05 5.56
2 -6 4 15.52 6.89
2 -6 4 15.81 5.8
2 -6 4 16.64 6.19
2 -6 4 6.41 6.16
-3 6 -4 78.44 8.74
-3 6 -4 72.08 9.29
-3 6 -4 69.82 10.01
-3 6 -4 67.64 9.55
3 -6 4 45.34 9.71
3 -6 4 81.39 9.64
3 -6 4 65.06 11.2
3 -6 4 69.35 11.12
3 -6 4 66.39 9.38
3 -6 4 66.41 10.89
3 -6 4 83.64 9.83
-4 6 -4 7.8 5.9
-4 6 -4 2.3 6.65
4 -6 4 3.15 5.38
4 -6 4 7.82 6.78
4 -6 4 9.57 5.3
4 -6 4 6.56 8.41
4 -6 4 4.56 5.75
4 -6 4 -9.02 7.24
-5 6 -4 13.74 7.45
-5 6 -4 12.16 6.58
5 -6 4 25.72 8.12
5 -6 4 19.64 6.96
5 -6 4 30.01 8.55
5 -6 4 33.67 10.92
5 -6 4 15.2 8.02
5 -6 4 24.73 7.78
-6 6 -4 7.62 8.54
-6 6 -4 1.08 7.11
6 -6 4 9.81 7.55
6 -6 4 7.75 7.87
6 -6 4 5.79 8.94
6 -6 4 7.33 7.15
6 -6 4 0.62 7.99
6 -6 4 22.14 11.29
7 -6 4 20.66 12.79
7 -6 4 0.63 8.5
7 -6 4 9.04 7.61
7 -6 4 -7.58 8.45
7 -6 4 34.87 10.47
7 5 -4 2.14 3.96
7 5 -4 -8.8 11.85
7 5 -4 -2.68 7.59
7 5 -4 -3.85 5.17
-7 -5 4 4.08 7.9
6 5 -4 1.75 5.25
6 5 -4 -0.03 4
6 5 -4 16.53 6.49
6 5 -4 5.93 10.94
-6 -5 4 0.37 6.92
5 5 -4 13.76 10.35
5 5 -4 3.97 4.11
5 5 -4 9.27 6
5 5 -4 4.09 5.24
5 5 -4 16.45 4.11
5 5 -4 10.48 5.03
5 5 -4 18.34 5.02
-5 -5 4 9.21 6.82
4 5 -4 5.65 7.04
4 5 -4 12.12 5.07
4 5 -4 10.49 3.88
4 5 -4 3.83 4.42
4 5 -4 15.27 4.67
4 5 -4 14.11 4.57
4 5 -4 5.19 4.02
-4 -5 4 5.81 3.38
-4 -5 4 10.45 6.1
3 5 -4 11.26 4.34
3 5 -4 1.81 3.89
3 5 -4 14.97 4.14
3 5 -4 5.07 3.6
3 5 -4 9.2 4.54
3 5 -4 -0.04 7.83
3 5 -4 4.27 3.45
3 5 -4 6.1 4.19
-3 -5 4 4.03 0.83
-3 -5 4 13.38 5.95
-3 -5 4 13.59 3.35
-3 -5 4 10.21 4.12
-3 -5 4 4.63 0.75
2 5 -4 1.9 3.13
2 5 -4 -0.12 4.29
2 5 -4 1.94 4.15
2 5 -4 -2.85 3.15
2 5 -4 0.76 5.54
2 5 -4 5.96 2.93
2 5 -4 3.96 4.35
2 5 -4 -5.19 4.18
2 5 -4 1.2 3.61
-2 -5 4 -0.58 5.25
-2 -5 4 0.4 3.72
-2 -5 4 2.3 2.92
-2 -5 4 1.16 3.06
-2 -5 4 -3.85 4.23
1 5 -4 -0.09 4.09
1 5 -4 15.57 3.85
1 5 -4 3.18 4.51
1 5 -4 13.47 4.65
1 5 -4 7.32 7.08
1 5 -4 13.57 4.94
1 5 -4 3.47 4.04
-1 -5 4 10.29 2.55
-1 -5 4 11.7 4.13
-1 -5 4 -0.29 5.06
-1 -5 4 13.95 3.86
-1 -5 4 15.47 4.92
-1 -5 4 6.8 3.71
-1 -5 4 10.26 4.05
0 5 -4 41.81 6.83
0 5 -4 64.15 7.81
0 5 -4 43.72 6.47
0 5 -4 62.16 8.72
0 5 -4 47.84 7.17
0 5 -4 60.64 6.92
0 5 -4 53.91 5.23
0 -5 4 54.98 7.09
0 -5 4 58 7.48
0 -5 4 44.14 7.28
0 -5 4 53.41 5.85
0 -5 4 57.35 7.33
0 -5 4 51.88 8.81
-1 5 -4 6.38 5.19
-1 5 -4 4.24 4.6
-1 5 -4 3.41 4.29
-1 5 -4 6.62 7.01
-1 5 -4 5.33 2.96
-1 5 -4 7.83 4.86
1 -5 4 -5.88 3.82
1 -5 4 5.6 3.95
1 -5 4 6.06 5.71
1 -5 4 3.35 3.62
1 -5 4 5.48 5.02
1 -5 4 -2.85 4.58
-2 5 -4 -3.59 4.1
-2 5 -4 -0.08 5.56
-2 5 -4 7.8 7.01
-2 5 -4 0.03 3.94
-2 5 -4 -1.27 3.63
2 -5 4 1.32 5.79
2 -5 4 -3.6 4.82
2 -5 4 -2.44 5.81
2 -5 4 8.67 5.35
2 -5 4 2.04 4.52
2 -5 4 2.44 4.83
-3 5 -4 3.59 4.66
-3 5 -4 0.49 4.26
-3 5 -4 7.68 4.07
3 -5 4 7.5 6.48
3 -5 4 -0.8 5.06
3 -5 4 7.47 4.35
3 -5 4 -1.09 6.95
3 -5 4 7.65 5.09
3 -5 4 -6.33 3.94
-4 5 -4 34.72 7.32
-4 5 -4 24.61 7.04
-4 5 -4 24.77 7.08
-4 5 -4 11.13 5.75
4 -5 4 14.03 7.06
4 -5 4 33.79 7.32
4 -5 4 23.83 6.63
4 -5 4 25.53 8.08
4 -5 4 23.63 6.86
-5 5 -4 0.39 5.9
-5 5 -4 -1.21 6.01
5 -5 4 -8.31 6.18
5 -5 4 3.53 9.37
5 -5 4 -1.97 6.87
5 -5 4 -4.18 5.88
5 -5 4 -4.88 6.56
5 -5 4 2.88 6.86
-6 5 -4 2.31 6.58
6 -5 4 -6.22 7.24
6 -5 4 -3.24 7.64
6 -5 4 -3.64 6.9
6 -5 4 21.41 8.62
6 -5 4 2.22 7.84
6 -5 4 9.82 10.63
7 -5 4 8.99 8.29
7 -5 4 1.31 12.04
7 -5 4 3.43 8.85
7 -5 4 9.79 9.05
7 -5 4 24.75 8.34
7 -5 4 1.37 7.97
8 4 -4 19.14 9.1
8 4 -4 19.69 13.75
8 4 -4 -2.88 4.17
7 4 -4 5.92 11.41
7 4 -4 -4.53 4.3
7 4 -4 -3.03 6.89
-7 -4 4 5.7 7.73
6 4 -4 16.76 6.77
6 4 -4 3.34 4.01
6 4 -4 -0.72 10.19
6 4 -4 5.8 3.35
6 4 -4 -0.63 5.65
-6 -4 4 13.52 6.79
5 4 -4 2.18 4.59
5 4 -4 11.7 4.32
5 4 -4 11.91 6.51
5 4 -4 3.4 5.38
5 4 -4 5.91 3.97
5 4 -4 -3.36 6.83
5 4 -4 -1.93 3.66
-5 -4 4 15.71 6.26
4 4 -4 8.53 4.1
4 4 -4 19.78 4.76
4 4 -4 22.67 4.9
4 4 -4 19.99 8.73
4 4 -4 2.97 3.95
4 4 -4 14.69 5.14
4 4 -4 38.61 6.11
4 4 -4 26.18 3.92
-4 -4 4 22.59 4.09
-4 -4 4 23.64 6.17
3 4 -4 -2.45 3.24
3 4 -4 6.66 3.97
3 4 -4 0.23 3.48
3 4 -4 7.4 4.07
3 4 -4 0.87 7.42
3 4 -4 -0.05 2.02
3 4 -4 7.66 4.27
3 4 -4 -6.19 2.17
3 4 -4 1.49 4.17
-3 -4 4 -0.49 4.81
-3 -4 4 0.64 1.91
-3 -4 4 1.54 1.96
-3 -4 4 6.09 4.17
-3 -4 4 0.81 3.87
-3 -4 4 -3.72 2.69
2 4 -4 -7.65 3.47
2 4 -4 -4.55 3.78
2 4 -4 4.89 3.63
2 4 -4 -4.5 3.49
2 4 -4 2.74 4.11
2 4 -4 0.26 1.92
2 4 -4 9.24 7.38
2 4 -4 -0.11 4.22
-2 -4 4 -2.84 4.14
-2 -4 4 -0.61 2.71
-2 -4 4 -0.13 3.28
-2 -4 4 -0.1 3.04
-2 -4 4 -3.84 4.81
-2 -4 4 -0.31 3.41
1 4 -4 12.67 4.56
1 4 -4 18.48 3.22
1 4 -4 14.14 3.44
1 4 -4 8.96 4.42
1 4 -4 17.19 4.48
1 4 -4 8.73 4.29
1 4 -4 14.61 4.29
1 4 -4 17.79 7.37
-1 -4 4 20.44 3.71
-1 -4 4 18.62 4.85
-1 -4 4 10.48 3.8
-1 -4 4 10.39 4.7
-1 -4 4 12.97 3.81
-1 -4 4 19.1 3.86
0 4 -4 11.57 4.42
0 4 -4 17.17 4.53
0 4 -4 11.18 6.5
0 4 -4 5.4 4.54
0 4 -4 10.19 4.92
0 4 -4 12.51 4.36
0 4 -4 13.9 3.67
0 -4 4 11.04 5.56
0 -4 4 5.34 4.62
0 -4 4 2.18 3.42
0 -4 4 3.01 3.87
0 -4 4 5.18 3.28
0 -4 4 17.5 4.82
0 -4 4 12.02 4.44
-1 4 -4 28.31 5.86
-1 4 -4 26.7 7.51
-1 4 -4 19.24 4.91
-1 4 -4 27.85 4.64
-1 4 -4 26.62 5.14
-1 4 -4 29.71 5.34
-1 4 -4 27.98 5.54
1 -4 4 27.86 4.8
1 -4 4 35.76 6.4
1 -4 4 17.62 4.97
1 -4 4 29.83 5.84
1 -4 4 27.59 4.56
1 -4 4 22.21 5.57
1 -4 4 4.17 5.8
-2 4 -4 4.67 4.88
-2 4 -4 6.55 4.27
-2 4 -4 12.13 5.26
-2 4 -4 6.41 3.97
-2 4 -4 4.43 4.11
-2 4 -4 4.23 4.28
2 -4 4 6.52 5.76
2 -4 4 2.21 4.88
2 -4 4 -2.89 4.55
2 -4 4 -1.39 4.36
2 -4 4 4.59 4.42
2 -4 4 1.91 5.39
-3 4 -4 33.73 6.24
-3 4 -4 23.27 5.8
-3 4 -4 32.91 5.76
-3 4 -4 35.45 6.39
-3 4 -4 40.91 7.23
3 -4 4 37.07 5.72
3 -4 4 33.24 7.8
3 -4 4 28.54 6.47
3 -4 4 32.29 6.59
3 -4 4 38.35 6.48
3 -4 4 44.46 8.29
-4 4 -4 8.24 4.76
-4 4 -4 -3.85 5.44
-4 4 -4 -1.12 4.83
4 -4 4 4.38 7.52
4 -4 4 1.3 5.54
4 -4 4 -3.31 5.38
4 -4 4 11.02 7.21
4 -4 4 10.18 6.51
4 -4 4 -0.25 5.44
-5 4 -4 -0.11 5.44
-5 4 -4 -6 6.06
-5 4 -4 -2.84 6.66
5 -4 4 11.31 4.93
5 -4 4 1.95 5.64
5 -4 4 3.78 7.07
5 -4 4 7.07 6.43
5 -4 4 7.06 6.68
-6 4 -4 6.65 5.75
-6 4 -4 -1.75 7.8
6 -4 4 3.28 6.84
6 -4 4 -6.09 6.17
6 -4 4 17.77 7.9
6 -4 4 3.25 9.61
6 -4 4 -6.32 7.13
7 -4 4 -5.86 6.68
7 -4 4 0.82 10.43
7 -4 4 34.35 9.57
7 -4 4 -12.16 7.19
7 -4 4 -5.35 7.25
7 -4 4 13.59 7.31
8 3 -4 17.34 9.4
8 3 -4 -7.15 11.12
8 3 -4 5.1 4.64
7 3 -4 7.85 10.51
7 3 -4 11.74 8.02
7 3 -4 -0.96 4.5
7 3 -4 4.15 3.69
6 3 -4 11.39 4.54
6 3 -4 0.84 7.38
6 3 -4 -11.32 5.76
6 3 -4 7.82 7.17
6 3 -4 -0.55 9.28
6 3 -4 -4.71 3.73
6 3 -4 -15.35 4.46
-6 -3 4 -2.76 5.33
5 3 -4 3.13 4.2
5 3 -4 0.35 8.66
5 3 -4 0.23 4.07
5 3 -4 1.5 3.8
5 3 -4 4.12 4.59
5 3 -4 0.76 5.44
5 3 -4 6.42 5.86
-5 -3 4 8.51 5.1
-5 -3 4 1.29 3.57
4 3 -4 19.09 8.41
4 3 -4 19.25 5.87
4 3 -4 9.35 4.5
4 3 -4 23.53 5.62
4 3 -4 31.24 6.06
4 3 -4 21.7 3.54
4 3 -4 12.79 4.36
4 3 -4 13.23 4.05
-4 -3 4 12.27 3.27
-4 -3 4 14.14 4.25
-4 -3 4 32.93 6.12
3 3 -4 0.13 4.18
3 3 -4 2.08 6.95
3 3 -4 -0.98 3.53
3 3 -4 0.13 3.94
3 3 -4 0.11 3.52
3 3 -4 2.63 4.03
3 3 -4 5.62 3.73
3 3 -4 -2.97 3.82
-3 -3 4 -1.01 2.37
-3 -3 4 0.04 2.26
-3 -3 4 1.65 4.24
-3 -3 4 -3.61 3.7
-3 -3 4 3.09 3.04
2 3 -4 5.56 3.93
2 3 -4 16.91 4.2
2 3 -4 11.79 3.68
2 3 -4 8.17 7.1
2 3 -4 10.53 4.41
2 3 -4 5.2 4
2 3 -4 5.96 3.82
2 3 -4 9.45 4.14
-2 -3 4 13.64 4.66
-2 -3 4 2.91 3.42
-2 -3 4 5.41 3.19
-2 -3 4 9.33 4.2
-2 -3 4 4.59 4.2
-2 -3 4 2.13 2.84
1 3 -4 -0.97 2.85
1 3 -4 3.06 4.07
1 3 -4 2.96 6.88
1 3 -4 2.83 4.11
1 3 -4 -1.84 3.48
1 3 -4 1.58 4.54
1 3 -4 6.56 4.05
1 3 -4 2.87 4.42
-1 -3 4 0.6 4.35
-1 -3 4 -6.13 3.37
-1 -3 4 4.27 3.62
-1 -3 4 0.23 2.19
-1 -3 4 -1.87 4.57
-1 -3 4 0.57 3.46
-1 -3 4 -1.95 3.21
-1 -3 4 4.94 3.4
0 3 -4 82.51 9.51
0 3 -4 61.96 6.79
0 3 -4 74.43 8.04
0 3 -4 71.32 7.8
0 3 -4 77.97 7.82
0 3 -4 60.33 7.97
0 3 -4 73 9.87
0 3 -4 69.87 7.88
0 -3 4 80 7.68
0 -3 4 64.01 7.24
0 -3 4 78.62 7.93
0 -3 4 70.37 7.75
0 -3 4 72.07 7.3
0 -3 4 53.86 8.68
0 -3 4 50.7 6.99
0 -3 4 80.41 8.41
-1 3 -4 8.88 3.67
-1 3 -4 1.77 2.95
-1 3 -4 10.09 4.45
-1 3 -4 1.61 5.04
-1 3 -4 5.92 6.69
-1 3 -4 0.63 4.5
-1 3 -4 1.94 3.99
-1 3 -4 4.51 3.58
1 -3 4 3.68 5.39
1 -3 4 2.42 4.11
1 -3 4 2.97 3.83
1 -3 4 2.57 3.54
1 -3 4 6.37 4.3
1 -3 4 4.83 3.55
1 -3 4 8.05 4.37
-2 3 -4 9.36 4.54
-2 3 -4 6.46 4.04
-2 3 -4 8.37 4.07
-2 3 -4 12.26 6.27
-2 3 -4 7.49 5.05
-2 3 -4 13.89 4.94
2 -3 4 4.07 4.47
2 -3 4 3.19 5.76
2 -3 4 2.1 4.34
2 -3 4 1.46 4.36
2 -3 4 17.1 4.96
2 -3 4 8.32 5.23
-3 3 -4 37.54 6.71
-3 3 -4 26.08 5.69
-3 3 -4 31.31 6.32
-3 3 -4 32.72 5.87
-3 3 -4 38.94 5.26
3 -3 4 25.44 5.79
3 -3 4 22.7 5.77
3 -3 4 32.42 6.03
3 -3 4 38.69 7.88
3 -3 4 25.91 7.36
3 -3 4 25.95 5.64
-4 3 -4 62.76 7.38
-4 3 -4 58.09 8.86
-4 3 -4 58.64 8.32
4 -3 4 43.58 7.54
4 -3 4 55.86 7.81
4 -3 4 66.21 10.62
4 -3 4 52.38 8.64
4 -3 4 68.78 8.45
4 -3 4 54.8 8.14
-5 3 -4 8.91 5.37
-5 3 -4 7.75 7.03
-5 3 -4 -0.29 5.89
5 -3 4 -1.36 7.62
5 -3 4 -1.54 5.56
5 -3 4 0.7 5.22
5 -3 4 -2.31 4.98
5 -3 4 0.78 5.37
-6 3 -4 8.18 8.11
6 -3 4 1.11 6.49
6 -3 4 10.96 5.93
6 -3 4 7.1 8.43
6 -3 4 6.78 5.61
6 -3 4 4.28 6.52
-7 3 -4 -3.85 8.89
7 -3 4 5.07 8.56
7 -3 4 0.01 9.65
7 -3 4 -0.9 6.6
7 -3 4 1.85 6.18
7 -3 4 8.84 7.25
7 -3 4 -8.46 6.59
8 -3 4 13.84 8.07
8 -3 4 3.56 7.82
8 -3 4 16.65 10.46
8 -3 4 14.29 12.01
8 2 -4 -12.31 4.55
8 2 -4 -7.05 7.97
8 2 -4 -1.01 8.88
7 2 -4 1.95 7.54
7 2 -4 -2.07 4.22
7 2 -4 -5.15 7.52
7 2 -4 -9.37 4.22
6 2 -4 -4.57 6.27
6 2 -4 0.62 5.12
6 2 -4 -2.22 4.95
6 2 -4 2.07 4.25
6 2 -4 -9.57 8.19
6 2 -4 -2.16 5.05
6 2 -4 -1.49 4.5
-6 -2 4 0 5.1
5 2 -4 5.03 8.04
5 2 -4 0.18 4.07
5 2 -4 -2.92 4.67
5 2 -4 -0.52 4.53
5 2 -4 -5.32 3.37
5 2 -4 -9.91 4.03
5 2 -4 3.42 6.26
5 2 -4 0.25 6.05
-5 -2 4 1.71 3.93
-5 -2 4 -2.95 4.33
4 2 -4 4.32 5.72
4 2 -4 2.57 4.1
4 2 -4 7.07 3.35
4 2 -4 6.64 4.35
4 2 -4 5.33 3.85
4 2 -4 -3.67 5.21
4 2 -4 -2.81 3.21
4 2 -4 -0.77 4.2
4 2 -4 -0.63 5.34
-4 -2 4 4.8 4.29
-4 -2 4 -5.98 3.85
-4 -2 4 5.23 2.03
-4 -2 4 -2.13 2.88
-4 -2 4 4.21 2.13
3 2 -4 1.97 1.6
3 2 -4 1.72 4.35
3 2 -4 3.01 4.52
3 2 -4 3.22 3.37
3 2 -4 -0.69 3.95
3 2 -4 -0.2 3.7
3 2 -4 -0.49 3.78
3 2 -4 13.4 5.25
3 2 -4 -6.02 4.6
-3 -2 4 -0.84 3
-3 -2 4 -0.08 3.41
-3 -2 4 1.61 3.62
-3 -2 4 -2.23 3.75
-3 -2 4 0.51 2.7
2 2 -4 11.6 3.97
2 2 -4 17.96 7.11
2 2 -4 10.31 4.36
2 2 -4 9.62 4.49
2 2 -4 13.96 4.53
2 2 -4 18.2 5.04
2 2 -4 11.41 4.6
2 2 -4 25.14 5.37
-2 -2 4 13.67 3.87
-2 -2 4 10.6 4.28
-2 -2 4 14.43 3.87
-2 -2 4 7.24 4.48
-2 -2 4 11.31 3.28
-2 -2 4 13.09 4.9
1 2 -4 37.16 7.26
1 2 -4 67.87 9.12
1 2 -4 37.13 7.17
1 2 -4 48.47 6.56
1 2 -4 45.53 6.33
1 2 -4 45.46 6.48
1 2 -4 41.8 6.13
1 2 -4 46.32 6.38
1 2 -4 39.26 6.38
1 2 -4 73.04 7.18
-1 -2 4 46.85 6.04
-1 -2 4 47.69 6.29
-1 -2 4 41.31 5.7
-1 -2 4 57.94 4.79
-1 -2 4 44.46 6.19
-1 -2 4 47.25 6.84
-1 -2 4 57.08 5.67
-1 -2 4 61.45 6.03
0 2 -4 21.9 4.96
0 2 -4 14.77 4.21
0 2 -4 16.16 4.76
0 2 -4 26.54 4.62
0 2 -4 27.21 4.28
0 2 -4 19.45 4.18
0 2 -4 21.51 4.23
0 2 -4 18.83 6.19
0 2 -4 28.1 6.79
0 2 -4 17.35 4.72
0 -2 4 32.64 5.09
0 -2 4 13.62 4.59
0 -2 4 21.45 4.23
0 -2 4 18.15 3.91
0 -2 4 21.93 4.97
0 -2 4 17.59 5.05
0 -2 4 17.71 4.35
0 -2 4 18.72 6.18
0 -2 4 26.26 4.48
0 -2 4 24.99 4.64
-1 2 -4 203.79 17.77
-1 2 -4 207.25 17.44
-1 2 -4 216.51 18.83
-1 2 -4 213.25 18.57
-1 2 -4 201.7 17.65
-1 2 -4 215.61 17.67
-1 2 -4 210.13 17.89
-1 2 -4 212.68 18.09
1 -2 4 211.74 18.71
1 -2 4 180.27 17.35
1 -2 4 198.92 17.84
1 -2 4 202.32 17.97
1 -2 4 193.78 17.36
1 -2 4 214.4 17.85
1 -2 4 198.42 18.42
1 -2 4 224.05 17.94
1 -2 4 203.86 17.61
-2 2 -4 6.21 3.85
-2 2 -4 2.41 3.65
-2 2 -4 10.99 4.57
-2 2 -4 3.77 3.67
-2 2 -4 2.73 4.84
-2 2 -4 -2.7 5.7
-2 2 -4 3.53 4.27
2 -2 4 1.32 4.16
2 -2 4 0.83 4.34
2 -2 4 2.06 4.15
2 -2 4 -2.69 3.8
2 -2 4 0.33 4.16
2 -2 4 7.59 6.08
2 -2 4 2.22 4.19
2 -2 4 8.23 4.26
-3 2 -4 112.18 11.74
-3 2 -4 136.44 12.48
-3 2 -4 131.53 11.85
-3 2 -4 147.68 12.31
-3 2 -4 130.02 12.55
-3 2 -4 119.58 11.52
3 -2 4 137.54 14.9
3 -2 4 111.97 13.59
3 -2 4 120.77 12.09
3 -2 4 122.56 12.11
3 -2 4 127.03 12.1
3 -2 4 121.32 12.22
3 -2 4 129.71 12.22
3 -2 4 124.33 12.07
-4 2 -4 38.63 4.54
-4 2 -4 23.29 6.07
-4 2 -4 17.76 6.75
-4 2 -4 20.55 4.97
-4 2 -4 30.66 4.97
4 -2 4 18.43 5.43
4 -2 4 29.23 6.39
4 -2 4 22.87 5.63
4 -2 4 31.1 8.86
4 -2 4 33.11 6.17
4 -2 4 30.4 8.62
4 -2 4 25.08 5.65
-5 2 -4 12.06 7.61
-5 2 -4 38.48 5.33
5 -2 4 27.03 5.89
5 -2 4 40.68 10.14
5 -2 4 31.33 6.51
5 -2 4 23.02 6.26
5 -2 4 21.05 7.34
-6 2 -4 6.09 7.9
6 -2 4 2.35 5.97
6 -2 4 -0.49 8.7
6 -2 4 1.53 4.9
6 -2 4 -5.04 4.75
6 -2 4 3.11 9.09
-7 2 -4 -5.44 9.01
7 -2 4 -0.95 9.57
7 -2 4 11.08 6.82
7 -2 4 3.35 9.7
7 -2 4 4.64 6.47
7 -2 4 1 5.17
8 -2 4 11.27 7.46
8 -2 4 -1.39 7.28
8 -2 4 -4.61 11.26
8 -2 4 2.05 6.38
8 -2 4 0.84 10.75
8 1 -4 -2.97 4.89
8 1 -4 1.42 5.44
8 1 -4 5.85 9.46
8 1 -4 10.48 11.38
7 1 -4 11.08 7.12
7 1 -4 -1.36 5.23
7 1 -4 -8.37 7.68
7 1 -4 -3.27 9.18
7 1 -4 3.8 5.36
6 1 -4 9.61 6.08
6 1 -4 -2.3 8.36
6 1 -4 2.85 5.76
6 1 -4 -3.56 5.13
6 1 -4 0.06 4.33
6 1 -4 -10.58 6.94
5 1 -4 -4.16 2.57
5 1 -4 5.79 2.4
5 1 -4 2.57 7.76
5 1 -4 9.92 6.24
5 1 -4 5.81 5.23
5 1 -4 -1.83 4.88
5 1 -4 0.53 6.51
5 1 -4 -5.11 4.63
5 1 -4 6.77 5.28
5 1 -4 11.13 5.11
-5 -1 4 -2.03 4.19
-5 -1 4 8.54 4.69
-5 -1 4 -2.37 3.14
-5 -1 4 -3.16 1.8
-5 -1 4 1.83 2.2
-5 -1 4 3.02 3.78
4 1 -4 34.33 6.59
4 1 -4 27.21 6.42
4 1 -4 27.83 5.68
4 1 -4 39.45 6.24
4 1 -4 11.78 6.36
4 1 -4 47.09 5.94
4 1 -4 35.64 4.82
4 1 -4 39.54 5.99
4 1 -4 34.03 5.72
-4 -1 4 40.59 5.08
-4 -1 4 42.1 5.2
-4 -1 4 34.87 5.44
-4 -1 4 40.9 4.58
-4 -1 4 21 4.34
-4 -1 4 41.4 5.93
3 1 -4 39.72 8.12
3 1 -4 30.71 5.59
3 1 -4 41.19 6.35
3 1 -4 32.71 6.22
3 1 -4 24.7 5.21
3 1 -4 24.26 4.97
3 1 -4 20.64 5.4
3 1 -4 43.96 5
3 1 -4 36.94 7.21
-3 -1 4 20.32 4.81
-3 -1 4 41.1 5.46
-3 -1 4 41.06 4.98
-3 -1 4 36.31 4.79
-3 -1 4 40.15 6.02
-3 -1 4 36.22 4.34
2 1 -4 14.91 5.15
2 1 -4 12.53 4.31
2 1 -4 13.21 4.78
2 1 -4 11.01 5.57
2 1 -4 14.89 6.68
2 1 -4 6.07 3.65
2 1 -4 7.87 4.21
2 1 -4 9.92 4.41
-2 -1 4 5.88 3.98
-2 -1 4 9.71 3.96
-2 -1 4 13.61 3.9
-2 -1 4 8.87 3.84
-2 -1 4 15.88 3.06
-2 -1 4 16.21 4.74
1 1 -4 203.43 16.75
1 1 -4 197.11 16.67
1 1 -4 183.36 16.94
1 1 -4 178.61 18.09
1 1 -4 222.69 17.89
1 1 -4 209.69 17.33
1 1 -4 207.96 17.28
1 1 -4 202.81 17.35
1 1 -4 206.4 17.14
1 1 -4 175.15 17.08
-1 -1 4 186.19 18.69
-1 -1 4 165.4 16.59
-1 -1 4 189.66 17.14
-1 -1 4 194.18 16.64
-1 -1 4 202.02 17.09
-1 -1 4 203.88 17.66
-1 -1 4 207.87 17.34
-1 -1 4 186.81 16.76
-1 -1 4 177.51 17.19
-1 -1 4 219.21 16.97
0 1 -4 92.6 9.57
0 1 -4 91.05 8.84
0 1 -4 99.46 9.92
0 1 -4 87.57 10.17
0 1 -4 95.9 10
0 1 -4 89.91 9.03
0 1 -4 90.32 8.74
0 1 -4 88.77 10.22
0 1 -4 91.95 8.95
0 1 -4 99 9.87
0 -1 4 87.04 9.15
0 -1 4 96.91 9.47
0 -1 4 87.13 9.67
0 -1 4 90.43 9.71
0 -1 4 80.39 8.69
0 -1 4 97.91 10.72
0 -1 4 93.68 9.75
0 -1 4 85.25 10.04
0 -1 4 95.67 9.58
-1 1 -4 139.87 13.31
-1 1 -4 150.42 13.67
-1 1 -4 150.33 14.02
-1 1 -4 145.74 14.16
-1 1 -4 171.16 15.05
-1 1 -4 147.35 13.99
-1 1 -4 152.79 13.62
-1 1 -4 157.48 13.45
1 -1 4 150.17 13.82
1 -1 4 151.9 13.56
1 -1 4 163.57 15.25
1 -1 4 144.24 13.84
1 -1 4 134.25 14.08
1 -1 4 148.53 13.73
1 -1 4 162.6 14.04
1 -1 4 160.54 15.33
1 -1 4 155.07 13.89
-2 1 -4 39.13 6.64
-2 1 -4 27.28 4.65
-2 1 -4 16.45 4.15
-2 1 -4 33.87 6.48
-2 1 -4 34.99 6.86
-2 1 -4 27.61 5.32
2 -1 4 25.62 5.03
2 -1 4 25.62 5.17
2 -1 4 30.09 5.09
2 -1 4 23.84 5.07
2 -1 4 29.32 6.89
2 -1 4 31.99 5.73
2 -1 4 28.74 6.64
2 -1 4 15.46 5.43
-3 1 -4 9.71 3.85
-3 1 -4 10.34 4.76
-3 1 -4 8.03 4.05
-3 1 -4 10.01 3.76
-3 1 -4 10.14 4.55
-3 1 -4 18.49 5.28
3 -1 4 9.89 4.25
3 -1 4 12.12 4.93
3 -1 4 10.15 4.22
3 -1 4 17.31 5.74
3 -1 4 10.93 6.94
3 -1 4 20.74 4.68
3 -1 4 12.01 5.06
3 -1 4 13.78 6.88
-4 1 -4 50.08 6.5
-4 1 -4 42.92 5.76
-4 1 -4 56.72 7.04
-4 1 -4 47.63 8.53
-4 1 -4 43.93 5.49
4 -1 4 59.89 7.07
4 -1 4 46.75 9.95
4 -1 4 34.6 6.31
4 -1 4 60.67 7.31
4 -1 4 49.3 6.85
4 -1 4 63.71 8.28
4 -1 4 51.25 6.81
4 -1 4 45.11 8
-5 1 -4 -1.96 4.78
-5 1 -4 -4.61 6.69
-5 1 -4 -1.38 2.41
5 -1 4 9.8 8.23
5 -1 4 9.03 5.17
5 -1 4 4.75 5.64
5 -1 4 1.84 8.32
5 -1 4 -0.76 3.96
5 -1 4 12.95 5.22
5 -1 4 -2.07 5.27
-6 1 -4 -1.28 5.77
6 -1 4 13.11 5.98
6 -1 4 0.24 9.66
6 -1 4 6.93 5.48
6 -1 4 -3.5 8.77
6 -1 4 8.99 5.25
-7 1 -4 -2.24 6.49
7 -1 4 -5.96 11.87
7 -1 4 19.3 10.93
7 -1 4 -4.95 5.24
7 -1 4 4.82 6.11
-8 1 -4 4.54 10.17
8 -1 4 -5.33 5.73
8 -1 4 -29.12 10.74
8 -1 4 -5.58 10.35
8 -1 4 7.32 6.98
8 0 -4 6.92 5.74
8 0 -4 4.81 7.33
8 0 -4 2.82 10.73
8 0 -4 -2.17 6.33
7 0 -4 -1.38 6.45
7 0 -4 1.06 6.28
7 0 -4 -8.54 6.36
7 0 -4 -0.16 6.95
7 0 -4 -4.83 5.09
7 0 -4 -0.2 7.42
6 0 -4 8.73 6.64
6 0 -4 5.12 6.83
6 0 -4 14.1 6.74
6 0 -4 8.62 6.29
6 0 -4 5.18 5.89
6 0 -4 0.87 7.93
5 0 -4 6.05 5.39
5 0 -4 22.49 8.78
5 0 -4 17.6 6.17
5 0 -4 9.24 5.13
5 0 -4 2.45 7.13
5 0 -4 6.8 6.06
5 0 -4 2.09 6.92
5 0 -4 4.67 5.52
-5 0 4 8.42 3.74
-5 0 4 9.67 3.26
-5 0 4 1.25 3.8
-5 0 4 5.17 5.72
4 0 -4 57.93 7.35
4 0 -4 39.65 6.85
4 0 -4 43.88 7.69
4 0 -4 47.1 6.84
4 0 -4 42.45 7.43
4 0 -4 29.68 6.47
4 0 -4 22.36 7.06
4 0 -4 49.34 6.9
-4 0 4 45.6 5.61
-4 0 4 49.18 6.78
-4 0 4 55.11 7.55
-4 0 4 40.26 6.18
-4 0 4 34.8 5.62
3 0 -4 9.92 5.19
3 0 -4 6.9 4.77
3 0 -4 12.92 4.51
3 0 -4 15.11 6.61
3 0 -4 5.78 6.24
3 0 -4 8.13 2.83
3 0 -4 2.61 5.14
3 0 -4 11.75 5.19
3 0 -4 14.33 4.82
-3 0 4 13.27 4.06
-3 0 4 3.6 6.57
-3 0 4 11.54 3.93
-3 0 4 10.54 2.73
-3 0 4 11.56 3.59
-3 0 4 9.21 5.06
-3 0 4 9.12 2.52
2 0 -4 10.35 3.54
2 0 -4 9.12 3.99
2 0 -4 8.2 5.89
2 0 -4 3.65 4.34
2 0 -4 6.34 4.81
2 0 -4 6.46 4.5
2 0 -4 5.89 3.7
2 0 -4 7.92 5.76
-2 0 4 3.34 3.92
-2 0 4 8.57 3.71
-2 0 4 5.21 3.74
-2 0 4 8.82 6.42
-2 0 4 4.7 4.78
-2 0 4 -2.54 3.47
-2 0 4 7.72 4.07
-2 0 4 3.18 3.89
1 0 -4 7.64 4.33
1 0 -4 18.62 5.61
1 0 -4 8.81 3.76
1 0 -4 8.24 4.98
1 0 -4 13.38 5.22
1 0 -4 13.13 4.58
1 0 -4 10.93 5.78
-1 0 4 8.14 3.2
-1 0 4 3.33 4.91
-1 0 4 8.73 4.65
-1 0 4 8.6 4.42
-1 0 4 3.71 3.98
-1 0 4 6.35 4.18
-1 0 4 0.25 3.93
-1 0 4 6.61 4.81
0 0 -4 167.84 15.71
0 0 -4 177.49 15.19
0 0 -4 161.72 15.43
0 0 -4 160.66 15.91
0 0 -4 187.04 15.64
0 0 -4 174 15.69
0 0 -4 175.15 16.4
0 0 -4 178.17 16.16
0 0 -4 170.51 15.46
0 0 4 158.24 15.42
0 0 4 180.31 15.32
0 0 4 170.29 15.26
0 0 4 183.82 16.88
0 0 4 179.92 16.4
0 0 4 176.82 15.4
0 0 4 180.02 15.73
0 0 4 185.78 15.71
-1 0 -4 77.21 8.46
-1 0 -4 74.96 8.07
-1 0 -4 82.59 8.79
-1 0 -4 91.64 9.29
-1 0 -4 81.33 10.53
-1 0 -4 59.93 7.65
-1 0 -4 83.05 9.6
-1 0 -4 88.47 9.11
1 0 4 78.53 8.85
1 0 4 83.37 8.67
1 0 4 75.41 8.21
1 0 4 73.55 9.92
1 0 4 72.92 8.55
1 0 4 92.06 11.17
1 0 4 92.45 8.99
1 0 4 77.21 8.71
-2 0 -4 -3.86 4.98
-2 0 -4 -1.73 4.51
-2 0 -4 -0.32 3.57
-2 0 -4 -1.76 3.33
-2 0 -4 -0.8 4.14
-2 0 -4 8.1 5.68
-2 0 -4 -0.06 3.42
2 0 4 3.87 3.88
2 0 4 11.78 5.87
2 0 4 6.76 3.89
2 0 4 4.25 4.07
2 0 4 1.56 4.31
2 0 4 2.08 5.84
2 0 4 4.02 4.14
2 0 4 -4.1 3.95
-3 0 -4 7.68 3.11
-3 0 -4 15.66 5.58
-3 0 -4 3.58 3.87
-3 0 -4 4.5 5.6
-3 0 -4 2.55 3.4
-3 0 -4 15.24 4.7
3 0 4 15.71 4.48
3 0 4 8.81 4.65
3 0 4 15.33 6.68
3 0 4 6.69 3.95
3 0 4 11.69 4.36
3 0 4 8.66 6.73
3 0 4 6.19 5.05
3 0 4 3.42 4.4
-4 0 -4 25.43 4.49
-4 0 -4 18.42 5.09
-4 0 -4 25.54 3.53
-4 0 -4 16.68 7.05
-4 0 -4 22.18 3.15
-4 0 -4 31.77 6.22
4 0 4 30.87 8.72
4 0 4 17.39 5.33
4 0 4 35.97 5.85
4 0 4 18.43 6.71
4 0 4 20.52 5
4 0 4 18.61 5.63
4 0 4 38.91 7.9
4 0 4 21.61 5.34
-5 0 -4 -1.94 6.97
5 0 4 3.19 4.81
5 0 4 -3.87 4.65
5 0 4 -4.08 4.72
5 0 4 -3.67 6.14
5 0 4 3.2 4.35
5 0 4 -4.02 8.05
5 0 4 -5.36 8.18
-6 0 -4 -2.16 7.53
6 0 4 11.05 4.85
6 0 4 6.11 9.39
6 0 4 2.85 5.44
6 0 4 10.01 5.53
6 0 4 1.09 9.3
-7 0 -4 -0.89 6.61
7 0 4 1.6 5.19
7 0 4 11.81 5.15
7 0 4 -26.46 9.92
7 0 4 11.35 10.79
-8 0 -4 3.37 11.26
8 0 4 -17.23 11.74
8 0 4 2.84 10.2
8 0 4 26.85 12.47
8 -1 -4 16.17 11.32
8 -1 -4 -8.9 6.75
8 -1 -4 1.59 7.5
8 -1 -4 0.09 7.3
7 -1 -4 -0.31 6.62
7 -1 -4 11.96 7.98
7 -1 -4 1.55 6.97
7 -1 -4 5.57 7.32
7 -1 -4 1.17 6.92
7 -1 -4 9.11 6.99
6 -1 -4 5.78 6.96
6 -1 -4 3.79 8.14
6 -1 -4 -2.86 5.61
6 -1 -4 4.38 6.32
6 -1 -4 3.59 6.37
6 -1 -4 7.43 8.45
-6 1 4 -9.69 7.57
-6 1 4 1.26 4.14
5 -1 -4 7.56 5.96
5 -1 -4 6.22 6.87
5 -1 -4 9.68 8.03
5 -1 -4 11.74 6.08
5 -1 -4 -3.16 5.24
5 -1 -4 16.85 6.14
-5 1 4 6.59 4.51
-5 1 4 9.68 6.17
4 -1 -4 6.89 6.53
4 -1 -4 10.93 5.74
4 -1 -4 19.26 6.74
4 -1 -4 1.01 6.54
4 -1 -4 -0.82 4.73
4 -1 -4 10.18 5.23
4 -1 -4 -1.71 6.36
-4 1 4 -0.01 3.1
-4 1 4 -0.56 6.52
-4 1 4 1.36 3.93
-4 1 4 12.51 5.54
3 -1 -4 43.19 6.98
3 -1 -4 29.59 6.52
3 -1 -4 43.44 7.52
3 -1 -4 32.03 6.55
3 -1 -4 45.21 8
3 -1 -4 39.72 7.71
3 -1 -4 24.59 5.76
-3 1 4 52.91 7.09
-3 1 4 33.37 8.46
-3 1 4 51.78 7.42
-3 1 4 39.63 4.57
-3 1 4 37.37 6.07
-3 1 4 36.67 7
2 -1 -4 11.77 5.58
2 -1 -4 0.96 4.72
2 -1 -4 10.18 5.59
2 -1 -4 16.43 6.3
2 -1 -4 11.57 5.41
2 -1 -4 18.81 5.53
-2 1 4 0.69 4.06
-2 1 4 2.03 3.32
-2 1 4 2.74 3.77
-2 1 4 0.65 5.13
-2 1 4 11.88 5
-2 1 4 6.14 3.59
-2 1 4 -1.32 5.06
1 -1 -4 60.1 7.42
1 -1 -4 52.42 6.92
1 -1 -4 50.18 6.74
1 -1 -4 51.83 7.32
1 -1 -4 45.01 7.09
1 -1 -4 43.41 7.05
1 -1 -4 47.55 7.15
-1 1 4 45.87 6.52
-1 1 4 35.93 5.71
-1 1 4 40.75 6.81
-1 1 4 47.57 6.02
-1 1 4 37.51 6.2
-1 1 4 33.56 7.88
-1 1 4 44.18 6.66
-1 1 4 49.07 6.51
0 -1 -4 26.33 4.91
0 -1 -4 25.11 6
0 -1 -4 23.35 4.99
0 -1 -4 23.71 5.12
0 -1 -4 23.26 5.8
0 -1 -4 21.64 6.33
0 -1 -4 28.15 5.72
0 1 4 22.95 6.69
0 1 4 19.24 5.3
0 1 4 26.42 4.83
0 1 4 17.57 4.35
0 1 4 24.82 4.86
0 1 4 19.7 5.96
0 1 4 33.35 5.49
0 1 4 21.14 5.07
-1 -1 -4 98.08 9.58
-1 -1 -4 108.77 10.01
-1 -1 -4 107.27 10.79
-1 -1 -4 97 9.69
1 1 4 99.44 10.68
1 1 4 102.3 9.58
1 1 4 100.43 9.77
1 1 4 91.76 9.99
1 1 4 100.35 10.41
1 1 4 108.84 10.43
1 1 4 97.16 11.05
1 1 4 106.87 11.88
-2 -1 -4 2.13 3.24
-2 -1 -4 11.71 3.79
-2 -1 -4 5.01 3.66
-2 -1 -4 11.14 6.1
-2 -1 -4 6.28 4.75
2 1 4 3.21 3.98
2 1 4 1.85 4.11
2 1 4 12.22 4.33
2 1 4 10.41 6.82
2 1 4 2.82 4.79
2 1 4 1.51 4.26
2 1 4 11.9 4.31
2 1 4 4.99 4.18
-3 -1 -4 2.11 3.1
-3 -1 -4 3.29 3.5
-3 -1 -4 -2.36 4.32
-3 -1 -4 7.86 6.2
-3 -1 -4 5.09 2.77
3 1 4 -0.57 4.35
3 1 4 -0.23 4.4
3 1 4 9.05 4.62
3 1 4 8.46 6.97
3 1 4 8.61 6.4
3 1 4 4.89 4.82
3 1 4 7.15 4.6
-4 -1 -4 3.49 4.22
-4 -1 -4 -1.27 6.53
4 1 4 3.52 7.16
4 1 4 3.21 3.65
4 1 4 -6.21 4.3
4 1 4 0.74 7.7
4 1 4 5.58 4.99
4 1 4 16.34 8.32
4 1 4 -1.26 4.54
4 1 4 -10.11 4.29
-5 -1 -4 3.73 7.32
5 1 4 19.3 9.2
5 1 4 30.91 6.24
5 1 4 19.89 8.38
5 1 4 9.38 8.95
5 1 4 19.09 5.37
5 1 4 17.13 5.35
5 1 4 11.16 4.47
-6 -1 -4 14.09 6.77
6 1 4 1.96 4.48
6 1 4 -2.51 4.6
6 1 4 1.75 9.7
6 1 4 1.81 9.3
-7 -1 -4 -0.92 6.64
7 1 4 8.09 4.95
7 1 4 1.23 7.85
7 1 4 -18.46 9.71
8 -2 -4 -6.71 7.56
8 -2 -4 -4.18 10.08
8 -2 -4 4.1 7.6
8 -2 -4 -7.68 8.06
8 -2 -4 8.86 7.59
8 -2 -4 5.94 9.22
7 -2 -4 -6.57 8.91
7 -2 -4 0.76 7.81
7 -2 -4 7.76 7.09
7 -2 -4 -2.1 8.37
7 -2 -4 21.52 8.83
7 -2 -4 8.84 9.92
6 -2 -4 5.24 7.76
6 -2 -4 1.91 6.43
6 -2 -4 1.34 7.94
6 -2 -4 6.05 7.82
6 -2 -4 3.27 7.11
6 -2 -4 7.37 6.43
-6 2 4 -0.76 6.71
-6 2 4 7.87 4.94
5 -2 -4 -1.85 6.16
5 -2 -4 -9.19 5.6
5 -2 -4 3.03 7.17
5 -2 -4 2.14 7.44
5 -2 -4 12.12 8.16
5 -2 -4 2.82 4.67
-5 2 4 5.24 6.62
-5 2 4 3.31 4.64
4 -2 -4 102.11 12.61
4 -2 -4 135.55 12.61
4 -2 -4 92.04 11.39
4 -2 -4 96.52 12.63
4 -2 -4 90.82 12.51
4 -2 -4 105.83 11.95
4 -2 -4 113.01 11.8
-4 2 4 88.94 11.3
-4 2 4 116.58 12.16
-4 2 4 66.62 12.56
-4 2 4 93.54 10.83
3 -2 -4 0.6 4.3
3 -2 -4 9.1 6.27
3 -2 -4 1.43 5.91
3 -2 -4 1.8 4.75
3 -2 -4 11.53 6.51
3 -2 -4 -1.17 5.11
3 -2 -4 4.64 4.41
-3 2 4 -2.33 4.23
-3 2 4 -4.52 5.42
-3 2 4 -4.19 3.07
-3 2 4 -2.21 5.08
-3 2 4 -7.14 7.41
2 -2 -4 -1.87 6.04
2 -2 -4 5.41 5.12
2 -2 -4 2.39 5.42
2 -2 -4 8.18 5.84
2 -2 -4 7.78 5.04
2 -2 -4 12.83 5.94
-2 2 4 5.75 3.57
-2 2 4 8.74 5.43
-2 2 4 6.24 2.39
-2 2 4 -1.83 5.67
-2 2 4 2.95 4.18
-2 2 4 5.04 5.16
-2 2 4 6.7 4.64
1 -2 -4 25.8 6.65
1 -2 -4 34.89 5.64
1 -2 -4 20.03 6.43
1 -2 -4 32.94 6.09
1 -2 -4 30.13 5.56
1 -2 -4 20.98 6.96
-1 2 4 18.92 5.51
-1 2 4 29.66 7.89
-1 2 4 20.24 5.65
-1 2 4 23.79 5.99
-1 2 4 26.53 4.16
-1 2 4 19.34 5.23
-1 2 4 22.62 6.17
0 -2 -4 93.38 9.13
0 -2 -4 105.48 11.59
0 -2 -4 106.57 11.28
0 -2 -4 105.93 11.01
0 2 4 112.03 11.1
0 2 4 104.07 13.88
0 2 4 82.81 8.71
0 2 4 89.49 10.09
0 2 4 109.21 11.95
0 2 4 104.39 10.59
0 2 4 90.59 9.53
0 2 4 122.74 11.93
0 2 4 102.46 10.64
-1 -2 -4 44.84 5.45
-1 -2 -4 41.98 6.99
-1 -2 -4 37.58 5.89
-1 -2 -4 41.43 6.56
-1 -2 -4 33.64 5.61
-1 -2 -4 34.19 6.72
1 2 4 46.12 6.65
1 2 4 42.64 9.84
1 2 4 44.7 5.38
1 2 4 42.57 6.49
1 2 4 37.51 6.72
1 2 4 52.01 7.17
1 2 4 49.8 7.95
1 2 4 53.18 6.78
-2 -2 -4 3.47 3.75
-2 -2 -4 4.27 3.4
-2 -2 -4 3.95 4.71
-2 -2 -4 1.02 5.92
-2 -2 -4 7.3 3.84
2 2 4 2.2 4.8
2 2 4 11.2 4.96
2 2 4 1.4 4.25
2 2 4 5.45 4.16
2 2 4 6.79 4.75
2 2 4 7.06 7.14
2 2 4 -0.4 7.23
2 2 4 2.06 3.72
-3 -2 -4 10.06 5.16
-3 -2 -4 10.56 2.87
-3 -2 -4 12.02 3.96
-3 -2 -4 13.03 4.79
-3 -2 -4 11.24 2.88
3 2 4 21.12 5.72
3 2 4 14.58 5.03
3 2 4 17.55 7.76
3 2 4 5.76 5.15
3 2 4 9.25 4.74
3 2 4 18.37 4.91
3 2 4 10.18 7.91
3 2 4 18.29 4.97
-4 -2 -4 24.88 8.18
-4 -2 -4 36.31 6.22
4 2 4 63.68 7.58
4 2 4 35.76 10.24
4 2 4 37.94 5.93
4 2 4 39.99 6.59
4 2 4 55.48 7.07
4 2 4 51.46 10.22
-5 -2 -4 3.18 7.56
5 2 4 1.2 4.91
5 2 4 6.98 5.25
5 2 4 6.76 4.32
5 2 4 -2.45 8.69
5 2 4 6.91 6.99
5 2 4 8.38 4.94
5 2 4 13.04 7.75
-6 -2 -4 7.41 8.7
6 2 4 2.36 4.39
6 2 4 24.37 9.64
6 2 4 6.52 9.92
6 2 4 0.81 7.47
6 2 4 7.25 4.63
-7 -2 -4 4.41 9.53
7 2 4 -10 4.22
7 2 4 -8.32 7.65
7 2 4 0.52 10.81
8 -3 -4 24.5 12.04
8 -3 -4 13.44 10.63
8 -3 -4 1.96 9.48
8 -3 -4 7.1 8.27
7 -3 -4 8.97 9.43
7 -3 -4 10.84 9.45
7 -3 -4 -1.39 7.62
7 -3 -4 15.23 8.32
7 -3 -4 14.8 9.43
7 -3 -4 5.73 9.95
6 -3 -4 0.96 8.54
6 -3 -4 7.66 7.51
6 -3 -4 1 8.55
6 -3 -4 6.78 8.44
6 -3 -4 6.55 8.54
6 -3 -4 -6.48 6.76
-6 3 4 6.19 7.69
-6 3 4 7.65 6.16
5 -3 -4 3.1 6.23
5 -3 -4 6.89 5.61
5 -3 -4 -4.77 6.48
5 -3 -4 -5.71 5.58
5 -3 -4 2.44 7.22
5 -3 -4 12.88 8.66
-5 3 4 7.85 6.44
-5 3 4 6.24 7.23
-5 3 4 -2.98 7.48
4 -3 -4 10.29 7.74
4 -3 -4 -0.08 6.89
4 -3 -4 -9.66 7.37
4 -3 -4 8.42 6.27
4 -3 -4 -6.7 5.72
4 -3 -4 7.83 6.92
-4 3 4 3.37 6.2
-4 3 4 2.57 8.49
-4 3 4 14.58 7.16
-4 3 4 2.58 5.35
3 -3 -4 10.35 7.28
3 -3 -4 9.26 6.62
3 -3 -4 5.35 7.06
3 -3 -4 12.72 5.6
3 -3 -4 11.09 6.62
3 -3 -4 15.76 5.47
3 -3 -4 13.37 5.94
-3 3 4 12.76 6.37
-3 3 4 14.18 9.57
-3 3 4 14.45 4.52
-3 3 4 9.85 5.51
-3 3 4 12.94 6.45
2 -3 -4 12.23 6.5
2 -3 -4 2.88 4.95
2 -3 -4 0.9 4.4
2 -3 -4 1.86 5.89
2 -3 -4 8.23 6.66
-2 3 4 6.21 6.05
-2 3 4 8.5 5.46
-2 3 4 0.05 6.55
-2 3 4 1.67 4.61
-2 3 4 5.15 2.62
-2 3 4 -1.06 5.86
-2 3 4 5.97 4.91
1 -3 -4 4.4 4.86
1 -3 -4 3.52 3.71
1 -3 -4 3.38 6.11
1 -3 -4 0.73 6.05
1 -3 -4 0.75 5.56
-1 3 4 -3.65 8.4
-1 3 4 6.54 5.83
-1 3 4 -1.04 4.7
-1 3 4 -1.02 3.62
-1 3 4 -3.55 4.53
-1 3 4 -2.51 3.17
-1 3 4 1.18 6.16
0 -3 -4 38.32 6.66
0 -3 -4 21.83 5.63
0 -3 -4 29.21 3.8
0 -3 -4 34.56 7.03
0 -3 -4 21.43 6.78
0 3 4 21.95 7.48
0 3 4 33 6.63
0 3 4 28.23 8.2
0 3 4 23.71 5.99
0 3 4 26.93 5.98
0 3 4 22.5 6.01
-1 -3 -4 109.13 10.66
-1 -3 -4 104.81 11.76
-1 -3 -4 103.69 12.18
-1 -3 -4 98.96 10.71
1 3 4 93.63 12.56
1 3 4 106.05 11.34
1 3 4 106.17 11.13
1 3 4 105.3 10.81
1 3 4 101.9 11.33
1 3 4 97.68 14.66
1 3 4 102.81 11.29
-2 -3 -4 15.51 5.95
-2 -3 -4 10.31 6.67
-2 -3 -4 10.15 4.66
-2 -3 -4 10.46 3.84
-2 -3 -4 2.41 4.14
2 3 4 9.59 5.26
2 3 4 13.18 4.98
2 3 4 26.76 5.32
2 3 4 12.02 6.8
2 3 4 16.1 5.75
2 3 4 5.27 7.61
2 3 4 14.04 5.02
2 3 4 11.53 3.17
-3 -3 -4 13.28 5.77
-3 -3 -4 20.88 5.34
-3 -3 -4 20.49 2.58
-3 -3 -4 14.91 4.25
3 3 4 13.22 7.09
3 3 4 20.67 6.19
3 3 4 29.72 6.14
3 3 4 20.56 9.27
3 3 4 15.73 5.2
3 3 4 25.11 5.86
-4 -3 -4 -1.8 7.44
4 3 4 10.35 4.99
4 3 4 22.66 9.06
4 3 4 3.26 8.34
4 3 4 10.86 5.31
4 3 4 6.81 5.18
4 3 4 11.32 5.54
-5 -3 -4 20.87 9
5 3 4 26.36 5.52
5 3 4 19.94 5.81
5 3 4 56.34 11.44
5 3 4 40.51 11.34
-6 -3 -4 2.53 6.89
6 3 4 14.16 10.18
6 3 4 -2.01 7.7
6 3 4 1.26 4.35
6 3 4 -4.59 9.66
-7 -3 -4 6.11 10.13
7 3 4 8.62 9.04
7 3 4 -3.82 10.81
7 3 4 -1.19 4.54
7 -4 -4 -12.96 9.36
7 -4 -4 -11.17 7.44
7 -4 -4 -1.44 7.7
7 -4 -4 -7.32 9.31
7 -4 -4 -0.47 8.96
7 -4 -4 12.45 10.01
-7 4 4 -1.06 6.84
6 -4 -4 0.95 7.9
6 -4 -4 4.12 8.99
6 -4 -4 2.71 7.98
6 -4 -4 1.41 7.42
6 -4 -4 14.89 8.71
6 -4 -4 11.32 9.98
-6 4 4 0.99 8.09
-6 4 4 16.08 8.98
-6 4 4 -7.27 6.68
5 -4 -4 -5.67 5.81
5 -4 -4 -9.53 5.77
5 -4 -4 -0.02 7.64
5 -4 -4 12.53 9.51
5 -4 -4 12.71 7.4
5 -4 -4 8.02 7.24
-5 4 4 7.85 7.99
-5 4 4 7.53 6.42
-5 4 4 9.44 10.31
4 -4 -4 26.34 8.26
4 -4 -4 54.57 8.95
4 -4 -4 35.32 8.82
4 -4 -4 44.41 8.32
4 -4 -4 27.52 9.16
4 -4 -4 50.99 11.25
-4 4 4 38.89 9.26
-4 4 4 55.33 8.39
-4 4 4 39.04 12.16
3 -4 -4 4.68 8.5
3 -4 -4 7 7.17
3 -4 -4 -9.85 6.96
3 -4 -4 4.53 5.43
3 -4 -4 6.47 6.93
3 -4 -4 2.07 5.85
-3 4 4 6.77 5.49
-3 4 4 3.88 5.04
-3 4 4 -18.87 9.56
-3 4 4 11.67 5.25
-3 4 4 4.17 6.63
2 -4 -4 18.12 7.51
2 -4 -4 14.95 5.76
2 -4 -4 17.82 6.34
2 -4 -4 0.79 7.04
2 -4 -4 14.39 5.02
-2 4 4 19.68 5.86
-2 4 4 8.84 6.09
-2 4 4 15.54 5.21
-2 4 4 11.4 3.67
-2 4 4 12.59 5.43
-2 4 4 9.83 8.01
1 -4 -4 12.5 5.72
1 -4 -4 22.91 7.13
1 -4 -4 12.14 5.78
1 -4 -4 2.04 3.44
1 -4 -4 16.22 6.8
-1 4 4 4.48 6.27
-1 4 4 8.94 5.64
-1 4 4 7.52 6.25
-1 4 4 15.55 5.96
-1 4 4 11.94 9.84
-1 4 4 8.61 5.84
0 -4 -4 83.58 11.04
0 -4 -4 70.52 10.58
0 -4 -4 77.68 10.17
0 -4 -4 77.28 9.68
0 4 4 103.15 11.05
0 4 4 71.67 13.84
0 4 4 83.5 10.09
0 4 4 91.15 12.23
0 4 4 87.06 10.57
0 4 4 87.22 10.39
-1 -4 -4 38.99 7.58
-1 -4 -4 53.72 7.78
-1 -4 -4 53.92 9.34
-1 -4 -4 57.41 9.02
1 4 4 55.54 8.56
1 4 4 66 8.78
1 4 4 65.23 10.05
1 4 4 48.58 11.97
1 4 4 48.85 8.35
1 4 4 59.41 8.64
-2 -4 -4 21.15 7.62
-2 -4 -4 12.28 4.76
-2 -4 -4 20.01 6.35
2 4 4 18.4 5.77
2 4 4 20.8 5.82
2 4 4 22.44 6.58
2 4 4 17.83 6.59
2 4 4 22.13 7.55
2 4 4 3.15 6.93
-3 -4 -4 10.68 7.47
3 4 4 2.61 6.07
3 4 4 9.78 5.09
3 4 4 16.39 7.92
3 4 4 9.32 9.42
3 4 4 18.08 6.28
-4 -4 -4 -9.39 7.49
4 4 4 22.7 10.07
4 4 4 13.07 9.88
4 4 4 8.16 5.15
4 4 4 2.19 5.73
4 4 4 4.42 5.85
-5 -4 -4 0.16 8.72
5 4 4 10.3 5.13
5 4 4 28.48 10.59
5 4 4 6.61 5.36
5 4 4 15.31 10.62
-6 -4 -4 -1.18 9.39
6 4 4 -8.2 11.09
6 4 4 -6.86 4.48
6 4 4 12.96 10.02
6 4 4 -11.92 10.23
7 -5 -4 11.79 8.82
7 -5 -4 21.2 9.85
7 -5 -4 -5.32 9.7
7 -5 -4 14.02 11.58
7 -5 -4 13 9.79
-7 5 4 -2.68 7.81
6 -5 -4 4.02 7.86
6 -5 -4 16.43 8.64
6 -5 -4 -16.86 8.05
6 -5 -4 0.42 7.14
6 -5 -4 6.69 8.81
6 -5 -4 -3.33 10.24
-6 5 4 4.5 9.1
-6 5 4 -6.14 7.71
-6 5 4 33.06 16.33
5 -5 -4 12.83 8.36
5 -5 -4 10.59 8.06
5 -5 -4 2.78 6.46
5 -5 -4 -2.44 10.08
5 -5 -4 -3.98 7.56
5 -5 -4 1.73 8.43
-5 5 4 12.09 8.4
-5 5 4 6.53 7.94
-5 5 4 10.35 10.52
4 -5 -4 3.72 7.33
4 -5 -4 6.05 7.64
4 -5 -4 11.68 8.72
4 -5 -4 12.43 6.43
4 -5 -4 5.75 7.8
4 -5 -4 15.18 7.26
-4 5 4 -0.13 7.7
-4 5 4 38.21 13.06
-4 5 4 10.26 6.58
3 -5 -4 22.23 6.99
3 -5 -4 15.73 7.18
3 -5 -4 27.46 6.57
3 -5 -4 18.99 8.49
3 -5 -4 20.49 8.57
-3 5 4 9.96 9.38
-3 5 4 28.04 6.85
-3 5 4 18.2 6.72
-3 5 4 15.19 6.36
-3 5 4 14.05 7.46
2 -5 -4 1.94 7.72
2 -5 -4 9.87 4.59
2 -5 -4 11.35 7.43
2 -5 -4 4.5 6.03
2 -5 -4 16.11 7.83
-2 5 4 -1.36 5.8
-2 5 4 6.96 6.91
-2 5 4 -2.2 6.33
-2 5 4 -1.1 10.74
-2 5 4 3.84 5.42
1 -5 -4 15.54 7.64
1 -5 -4 7.02 5.04
1 -5 -4 6.1 6.75
1 -5 -4 5.19 6.01
-1 5 4 8.84 10.91
-1 5 4 5.07 6.86
-1 5 4 10.59 5.9
-1 5 4 10.23 6.68
-1 5 4 5.37 7.05
0 -5 -4 7.04 6.41
0 -5 -4 5.37 7.68
0 -5 -4 26.54 7.26
0 5 4 12.59 8.1
0 5 4 16.28 7
0 5 4 21.83 7.07
0 5 4 22.23 9.45
0 5 4 16.53 7.12
-1 -5 -4 16.64 7.5
-1 -5 -4 18.42 7.7
-1 -5 -4 24.81 6.35
1 5 4 12.43 7.75
1 5 4 8.96 7.05
1 5 4 25.53 7.05
1 5 4 20.65 9.61
1 5 4 26.35 6.85
-2 -5 -4 -13.37 6.87
-2 -5 -4 6.78 4.64
-2 -5 -4 6.37 6.3
2 5 4 19.14 10.51
2 5 4 8.53 6.49
2 5 4 -2.88 5.33
2 5 4 -2.28 8.67
2 5 4 -13.19 5.96
-3 -5 -4 2.53 7.37
3 5 4 3.13 9.37
3 5 4 5.53 5.29
3 5 4 17.48 10.49
3 5 4 -6.15 5.95
3 5 4 4.71 6.24
-4 -5 -4 5.11 8.5
4 5 4 3.53 5.56
4 5 4 7.42 10.56
4 5 4 1.77 5.35
4 5 4 6.78 10.21
-5 -5 -4 -11.66 8.49
5 5 4 -0.12 9.97
5 5 4 -4.56 10.59
5 5 4 -4.08 4.98
5 5 4 5.03 5.41
-6 -5 -4 -22.63 9.39
6 5 4 1.49 11.45
6 5 4 -7.55 4.79
6 5 4 4.88 10.65
6 -6 -4 14.82 13.26
6 -6 -4 0.71 8.55
6 -6 -4 -13.1 8.63
6 -6 -4 7.31 8.98
6 -6 -4 -7.27 7.76
6 -6 -4 0.68 9.64
-6 6 4 2.26 9.68
-6 6 4 -4.44 8.94
5 -6 -4 1.28 7.54
5 -6 -4 8.24 8.76
5 -6 -4 -7.29 11.09
5 -6 -4 -13.57 8.43
-5 6 4 -1.66 8.03
-5 6 4 -0.8 12.95
-5 6 4 -3.21 8.84
4 -6 -4 12.36 9.12
4 -6 -4 6.68 10.79
4 -6 -4 6.22 7.41
4 -6 -4 2.61 8.71
-4 6 4 18.7 7.27
-4 6 4 -4.56 12.77
-4 6 4 12.9 8.81
3 -6 -4 11.13 9.11
3 -6 -4 -6.37 7.87
3 -6 -4 10.08 7.79
-3 6 4 11.93 6.7
-3 6 4 0.27 7.42
-3 6 4 -5.72 9.41
-3 6 4 10.86 8.5
-3 6 4 1.65 6.92
2 -6 -4 -7.79 8.48
2 -6 -4 11.16 7.78
2 -6 -4 4.35 6.9
-2 6 4 7.66 6.51
-2 6 4 14.02 12.4
-2 6 4 17.86 8.01
-2 6 4 -1.02 5.41
-2 6 4 1.69 7.57
1 -6 -4 5.03 6.45
1 -6 -4 1.14 6.82
1 -6 -4 -14.96 7.96
-1 6 4 -2.84 5.32
-1 6 4 3.23 6.37
-1 6 4 0.86 7.99
-1 6 4 -4.44 6.55
-1 6 4 8.46 8.76
0 -6 -4 4.47 6.83
0 -6 -4 16.01 6.92
0 -6 -4 6.23 8.3
0 6 4 10.7 7.52
0 6 4 11.3 8.62
0 6 4 6.08 10.78
0 6 4 11.77 6.89
0 6 4 20.21 7.73
-1 -6 -4 1.91 7.8
-1 -6 -4 8.8 6.19
-1 -6 -4 4.8 7.71
1 6 4 21.83 7.68
1 6 4 7.5 6.85
1 6 4 12.9 6.75
1 6 4 9.5 8.2
1 6 4 8.08 7.18
-2 -6 -4 2.93 7.99
2 6 4 -5.23 5.69
2 6 4 -1.98 7.27
2 6 4 6.92 7.46
2 6 4 4.39 10.64
2 6 4 17.11 7.39
-3 -6 -4 18.12 9.74
3 6 4 11 7.1
3 6 4 18.28 11.17
3 6 4 -3.97 7.01
3 6 4 7.59 6.61
3 6 4 0.29 10.64
-4 -6 -4 1.53 8.64
4 6 4 5.97 8.79
4 6 4 -7.99 5.27
4 6 4 9.11 6.37
4 6 4 -2.44 10.92
-5 -6 -4 9.46 10.14
5 6 4 18.29 12.84
5 6 4 14.72 12.32
5 6 4 10.63 6.18
5 -7 -4 -5.94 7.68
5 -7 -4 1.92 11.73
5 -7 -4 -13.05 9.32
5 -7 -4 1.21 9.78
-5 7 4 15.8 10.3
-5 7 4 -11.39 7.06
-5 7 4 -29.69 14.62
4 -7 -4 5.32 9.9
4 -7 -4 -9.21 8.59
4 -7 -4 -3.77 7.47
-4 7 4 5.76 7.32
-4 7 4 -5.58 8.68
-4 7 4 -41.18 12.78
3 -7 -4 6.25 8.12
3 -7 -4 6.71 10.23
3 -7 -4 8.19 7.73
-3 7 4 1.46 8.6
-3 7 4 -8.11 14.31
-3 7 4 1.32 6.93
2 -7 -4 -0.99 7.07
2 -7 -4 -2.87 9.76
2 -7 -4 -10.27 6.98
-2 7 4 1.54 8.1
-2 7 4 -8.81 5.69
-2 7 4 2.54 7.06
-2 7 4 -8.3 7.87
-2 7 4 -7.51 12.54
1 -7 -4 6.63 6.98
1 -7 -4 -1.32 7.68
1 -7 -4 -1.8 9.3
-1 7 4 3.38 8.45
-1 7 4 2.28 7.85
-1 7 4 11.58 8.05
-1 7 4 -4.09 11.77
-1 7 4 -1.72 7.84
0 -7 -4 4.8 6.99
0 -7 -4 18.86 9.74
0 -7 -4 15.24 9.26
0 7 4 19.89 13.08
0 7 4 7.5 7.91
0 7 4 6.97 9.26
0 7 4 16.88 8.29
0 7 4 7.58 8.79
-1 -7 -4 0.24 6.44
-1 -7 -4 7.22 8.16
1 7 4 4.96 7.13
1 7 4 -5.08 7.87
1 7 4 10.84 10.54
1 7 4 -6.13 8.6
1 7 4 4.12 7.14
-2 -7 -4 28.98 10.01
2 7 4 8.97 8.59
2 7 4 6.05 10.92
2 7 4 -1.8 8.04
2 7 4 17.84 7.6
2 7 4 11.77 7.18
-3 -7 -4 -0.41 8.35
3 7 4 17.09 9.9
3 7 4 -2.06 6.54
3 7 4 3.17 8.26
3 7 4 2 7.5
-4 -7 -4 13.62 9.21
4 7 4 3.23 6.64
4 7 4 1.44 12.45
4 7 4 6.8 12.75
4 7 4 -2.5 6.61
3 -8 -4 0.66 9.03
3 -8 -4 12.47 9.19
3 -8 -4 -1.71 10.34
-3 8 4 -39.37 14.08
-3 8 4 14.74 10.1
-3 8 4 8.86 7.59
2 -8 -4 2.94 7.57
2 -8 -4 -11.55 7.19
2 -8 -4 -13.64 9.47
-2 8 4 -4.34 8.94
-2 8 4 7.59 7.81
-2 8 4 -22.07 14.14
-2 8 4 1.22 9.16
-2 8 4 -0.78 9.39
1 -8 -4 -5.6 6.87
1 -8 -4 2.38 8.28
1 -8 -4 1.06 9.58
-1 8 4 3.41 13.41
-1 8 4 -7.71 8.09
-1 8 4 2.55 8.6
-1 8 4 2.49 7.22
-1 8 4 -5.05 8.74
0 -8 -4 -3.75 13.67
0 8 4 13.56 11.27
0 8 4 -11.46 7.67
0 8 4 -14.37 8.57
0 8 4 0.41 9.17
0 8 4 -16.03 7.9
1 8 4 22.3 11.38
1 8 4 7.45 7.87
1 8 4 -1.09 12.46
1 8 4 5.69 8.11
1 8 4 3.13 9.31
2 8 4 7.32 8.07
2 8 4 13.03 13.15
2 8 4 15.62 12.17
2 8 4 11.16 8.58
2 8 4 10.56 9.32
2 11 -5 5.97 7.55
1 11 -5 28.87 12.31
1 11 -5 7.38 8
1 11 -5 -1.84 7.85
1 11 -5 14.73 9.57
-1 -11 5 0.02 9.57
0 11 -5 8.79 9.02
0 11 -5 6.59 7.86
0 11 -5 27.93 10.85
0 11 -5 1.76 8.68
0 -11 5 3.33 9.12
0 -11 5 5.53 7.11
-1 11 -5 9.26 10.15
-1 11 -5 0.11 7.41
-1 11 -5 25.56 11.48
-1 11 -5 -3.79 8.17
1 -11 5 -0.12 7.94
1 -11 5 3.06 9.59
1 -11 5 -4.7 9.47
4 10 -5 7.66 7.36
4 10 -5 34.64 18.47
3 10 -5 2.27 11.08
3 10 -5 6.73 7.81
3 10 -5 8.24 7.12
3 10 -5 16.9 11.86
-3 -10 5 9.64 8.91
2 10 -5 -3.24 6.42
2 10 -5 7.63 10.79
2 10 -5 -3.65 8.17
2 10 -5 11.07 7.91
2 10 -5 9.61 8.55
-2 -10 5 8.41 8.41
1 10 -5 2.52 8.51
1 10 -5 6.15 10.31
1 10 -5 1.82 7.12
1 10 -5 7.85 7.06
1 10 -5 13.63 10.65
-1 -10 5 -7.22 7.63
-1 -10 5 -3.47 6.46
0 10 -5 28.18 10.06
0 10 -5 -0.47 7.95
0 10 -5 -1.54 7.89
0 10 -5 7.44 11.8
0 10 -5 5.87 7.89
0 -10 5 1.22 6.59
0 -10 5 8.73 8.82
-1 10 -5 5.69 6.72
-1 10 -5 4.4 10.67
-1 10 -5 5.44 9.34
-1 10 -5 4.11 8.54
-1 10 -5 23.87 9.82
1 -10 5 5.74 8.74
1 -10 5 1.64 6.46
1 -10 5 8.79 8.63
1 -10 5 1.86 8.61
-2 10 -5 3.18 6.72
-2 10 -5 9.23 8.78
2 -10 5 4.57 6.52
2 -10 5 -6.75 8.5
2 -10 5 13.3 9.56
2 -10 5 0.89 8.64
-3 10 -5 -4.32 6.61
-3 10 -5 13.88 9.17
3 -10 5 -0.71 8.95
3 -10 5 3.74 7.08
3 -10 5 22.57 10.58
3 -10 5 0.58 9.27
4 -10 5 -4.84 10.01
5 9 -5 2.61 5.24
5 9 -5 1.95 12.94
-5 -9 5 10.39 9.27
4 9 -5 19.03 7.26
4 9 -5 1.94 5.85
4 9 -5 -10.8 12.73
-4 -9 5 12.22 9.02
3 9 -5 12.68 7.6
3 9 -5 -12.42 11.94
3 9 -5 -2.39 6.78
-3 -9 5 -0.1 6.06
2 9 -5 2.55 10.58
2 9 -5 4.43 7.52
2 9 -5 3.23 6.4
-2 -9 5 6.95 6.2
1 9 -5 4.26 7.06
1 9 -5 -10.53 5.89
1 9 -5 4.65 6.69
1 9 -5 14.21 10.36
-1 -9 5 -3.12 8.74
-1 -9 5 6.95 5.88
-1 -9 5 2.76 5.99
0 9 -5 16.36 8.9
0 9 -5 2.3 9.94
0 9 -5 -6.91 7.08
0 9 -5 1.03 6.31
0 9 -5 6.54 7.42
0 -9 5 7.16 7.61
0 -9 5 1.67 6.15
0 -9 5 3.19 7.59
0 -9 5 6.56 7.18
-1 9 -5 9.91 6.48
-1 9 -5 11.08 7.97
-1 9 -5 6.18 7.46
-1 9 -5 13.18 10.52
-1 9 -5 15.8 9.37
1 -9 5 5.27 7.5
1 -9 5 14.9 8.31
1 -9 5 -0.98 7.28
1 -9 5 2.93 6.55
-2 9 -5 7.05 7.6
-2 9 -5 -3.7 7.75
-2 9 -5 6.11 10.28
-2 9 -5 1.63 5.99
-2 9 -5 14.89 8.09
2 -9 5 -5.52 7.52
2 -9 5 2.55 7.64
2 -9 5 -0.22 6.7
2 -9 5 -9.12 5.75
-3 9 -5 -1.23 6.25
-3 9 -5 3.82 7.1
3 -9 5 -11.71 7.72
3 -9 5 4.07 6.59
3 -9 5 3.02 6.49
-4 9 -5 18.45 9.31
-4 9 -5 6.05 6.92
4 -9 5 24.85 9.81
4 -9 5 -5.37 9.12
4 -9 5 16.76 7.37
-5 9 -5 0.76 8.38
-5 9 -5 17.27 8.16
5 -9 5 -2.67 7.6
5 -9 5 10.83 10.92
5 -9 5 17.29 11.19
6 8 -5 -2.53 13.6
-6 -8 5 7.83 9.17
5 8 -5 14.78 6.12
5 8 -5 3.39 12.78
-5 -8 5 -7.82 8.06
4 8 -5 -2.39 6.46
4 8 -5 -5.59 5.27
4 8 -5 16.14 13.34
-4 -8 5 3.24 6.12
3 8 -5 0.84 5.8
3 8 -5 -5.65 10.02
3 8 -5 -3.24 6.38
3 8 -5 1.69 6.13
-3 -8 5 2.24 7.54
2 8 -5 3.01 5.88
2 8 -5 -0.44 6.75
2 8 -5 -4.91 5.38
2 8 -5 5.68 10.16
-2 -8 5 0.27 5.51
-2 -8 5 4.92 4.57
1 8 -5 9.19 6.19
1 8 -5 15.77 7.41
1 8 -5 10.08 5.17
1 8 -5 3.31 9.61
-1 -8 5 11.99 7.64
-1 -8 5 9.14 6.4
-1 -8 5 6.67 5.32
0 8 -5 10.79 9.63
0 8 -5 -3.88 5.4
0 8 -5 -1.83 5.88
0 -8 5 28.2 7.33
0 -8 5 -1.88 5.37
0 -8 5 6.74 7.1
0 -8 5 0 6.07
-1 8 -5 0.11 6.42
-1 8 -5 15.34 5.93
-1 8 -5 6.4 9.4
-1 8 -5 9.54 6.05
1 -8 5 -1.92 6.59
1 -8 5 -1.03 6.84
1 -8 5 -4.04 4.9
1 -8 5 2.08 6.7
-2 8 -5 30.38 10.55
-2 8 -5 15.13 6.07
-2 8 -5 25.82 8.58
-2 8 -5 28.65 7.66
-2 8 -5 17.2 6.54
2 -8 5 26.19 8.44
2 -8 5 10.02 7.72
2 -8 5 14.46 6.23
-3 8 -5 4.02 7.22
-3 8 -5 9.62 6.22
3 -8 5 8.4 8.42
3 -8 5 3.87 7.59
3 -8 5 -12.33 5.06
-4 8 -5 13.96 8.35
-4 8 -5 10.16 6.72
4 -8 5 3.79 7.82
4 -8 5 9.93 9.53
4 -8 5 1.17 8.57
4 -8 5 5.23 6.46
-5 8 -5 12.22 7.47
-5 8 -5 -5.32 7.87
5 -8 5 -5.93 10.11
5 -8 5 2.65 9.24
5 -8 5 0.24 8.38
5 -8 5 6.96 7.14
5 -8 5 4.07 7.41
-6 8 -5 12.45 8.94
6 -8 5 12.94 9.68
6 -8 5 0.04 11.6
6 7 -5 1.23 4.89
6 7 -5 -7.56 12.87
-6 -7 5 2.89 8.19
5 7 -5 2.34 4.79
5 7 -5 7.54 12.66
-5 -7 5 12.39 8.34
4 7 -5 2.85 5.15
4 7 -5 4.97 5.81
4 7 -5 4.23 10.99
-4 -7 5 4.18 5.56
3 7 -5 -9.76 9.44
3 7 -5 6.1 6.18
3 7 -5 -0.55 5.47
-3 -7 5 9.46 5.53
2 7 -5 0.78 5.21
2 7 -5 -1.78 5.09
2 7 -5 -3.61 5.13
2 7 -5 -0.3 9
-2 -7 5 2.69 4.12
-2 -7 5 2.65 5.33
-2 -7 5 2.21 5.61
1 7 -5 5.41 5.8
1 7 -5 7.7 6.2
1 7 -5 1.48 8.97
1 7 -5 3.57 5.27
-1 -7 5 5.59 6.77
-1 -7 5 -2.15 5.42
-1 -7 5 0.34 4.6
0 7 -5 13.11 5.83
0 7 -5 10.72 6.48
0 7 -5 8.47 8.83
0 -7 5 6.52 6.5
0 -7 5 0.78 6.14
0 -7 5 10.84 6.17
0 -7 5 6.89 5.89
0 -7 5 9.16 4.68
-1 7 -5 7.73 6.34
-1 7 -5 7.42 8.57
-1 7 -5 4.08 5.27
1 -7 5 6.12 5.11
1 -7 5 1.12 6.02
1 -7 5 7.84 6.49
1 -7 5 4.33 5.14
-2 7 -5 9.69 6.37
-2 7 -5 7.21 8.46
-2 7 -5 4.79 5.39
2 -7 5 3.69 7.32
2 -7 5 4.29 6.62
2 -7 5 -3.33 6.43
2 -7 5 13.71 5.87
2 -7 5 14.43 6.93
-3 7 -5 0.88 5.18
-3 7 -5 4.95 5.05
-3 7 -5 2.24 7.43
-3 7 -5 -2.2 5.39
3 -7 5 -9.85 5.28
3 -7 5 -5.2 7.18
3 -7 5 2.58 7.58
3 -7 5 9.53 7.08
3 -7 5 -1.66 7.16
3 -7 5 0.77 5.55
-4 7 -5 36.23 8.07
-4 7 -5 48.52 8.68
4 -7 5 34.04 10.32
4 -7 5 47.85 8.59
4 -7 5 61.06 11.28
4 -7 5 43.53 9.71
4 -7 5 54.28 8.79
4 -7 5 46.91 9.76
-5 7 -5 -0.69 7.81
-5 7 -5 1.37 7.56
5 -7 5 4.18 8.82
5 -7 5 -1.65 6.12
5 -7 5 10.13 10.03
5 -7 5 -2.43 8.23
5 -7 5 9.08 7.1
5 -7 5 5.55 8.24
-6 7 -5 13.13 8.05
6 -7 5 15.1 7.39
6 -7 5 22.65 8.65
6 -7 5 -3.04 10.73
6 -7 5 17.37 9.69
6 -7 5 27.91 10.08
6 -7 5 8.41 7.28
7 6 -5 -6.57 4.64
7 6 -5 2.96 13.63
-7 -6 5 -7.91 7.72
6 6 -5 -1.01 12.51
6 6 -5 -2.02 4.53
-6 -6 5 -2.27 8.36
5 6 -5 4.36 4.75
5 6 -5 -7.08 11.03
5 6 -5 4.47 4.67
-5 -6 5 8.15 7.56
4 6 -5 8.14 10.43
4 6 -5 2.38 4.55
4 6 -5 -3.06 5.45
4 6 -5 -0.06 5.1
4 6 -5 -0.14 4.76
-4 -6 5 1.97 5.14
3 6 -5 5.53 4.02
3 6 -5 -0.3 9.73
3 6 -5 3.11 5.72
3 6 -5 4.8 4.86
3 6 -5 3.59 4.46
3 6 -5 3.59 5.15
-3 -6 5 8.03 6.67
-3 -6 5 6.9 4.7
-3 -6 5 5.48 2.95
2 6 -5 -0.54 8.8
2 6 -5 6.17 4.58
2 6 -5 6.82 3.99
2 6 -5 1.4 3.54
2 6 -5 2.87 5.02
2 6 -5 9.72 5.22
2 6 -5 -2.16 4.9
2 6 -5 0.86 5.36
-2 -6 5 0.78 4.17
-2 -6 5 10.55 4.08
-2 -6 5 -0.46 4.86
-2 -6 5 2.24 5.33
-2 -6 5 5.65 2.99
1 6 -5 43.74 7.79
1 6 -5 47.97 7.66
1 6 -5 38.01 10.09
1 6 -5 45.27 7.69
1 6 -5 67.27 7.14
1 6 -5 46.14 7.67
-1 -6 5 38.57 7.67
-1 -6 5 48.9 7.27
-1 -6 5 73.23 7.57
-1 -6 5 64.05 5.82
0 6 -5 44.39 7.01
0 6 -5 42.84 7.17
0 6 -5 36.51 7.31
0 6 -5 54.73 10.38
0 6 -5 40.86 7.37
0 6 -5 45.05 4.99
0 -6 5 61.41 8.04
0 -6 5 53.07 5.9
0 -6 5 57.18 7.16
0 -6 5 37.31 7.44
0 -6 5 42.81 6.79
-1 6 -5 36.02 7.77
-1 6 -5 42.13 6.59
-1 6 -5 36.95 7.1
-1 6 -5 48.99 5.12
-1 6 -5 34.38 9.57
-1 6 -5 39.29 6.82
1 -6 5 19.57 6.89
1 -6 5 40.75 7.58
1 -6 5 33.51 6.59
1 -6 5 32.63 5.78
1 -6 5 42.17 7.24
1 -6 5 29.92 8.37
-2 6 -5 55.52 11.16
-2 6 -5 77.85 7.73
-2 6 -5 52.6 8.31
-2 6 -5 79.31 10.24
-2 6 -5 65.23 8.87
2 -6 5 45.28 10.1
2 -6 5 59.36 9.37
2 -6 5 77.81 9.11
2 -6 5 55.98 9.29
2 -6 5 55.15 8.57
-3 6 -5 18.42 6.14
-3 6 -5 34.2 6.19
3 -6 5 13.1 6.81
3 -6 5 11.86 7.08
3 -6 5 21.69 8.31
3 -6 5 23.78 5.73
3 -6 5 18.74 8.06
-4 6 -5 81 9.95
-4 6 -5 65.98 10.84
-4 6 -5 58.63 9.34
4 -6 5 64.05 12.22
4 -6 5 47.46 8.93
4 -6 5 83.3 10.15
4 -6 5 77.02 12.17
4 -6 5 75.28 10.3
-5 6 -5 4.43 6.96
-5 6 -5 2.43 7.11
5 -6 5 9.28 6.89
5 -6 5 9.85 8.15
5 -6 5 2.95 7.44
5 -6 5 2.41 10.23
5 -6 5 21.82 8.16
5 -6 5 11.59 7.45
-6 6 -5 5.96 7.43
6 -6 5 10.33 7.89
6 -6 5 -2.2 11.34
6 -6 5 28.44 9.17
6 -6 5 5.53 9.13
6 -6 5 15.09 8.41
6 -6 5 4.95 7.91
7 -6 5 21.37 10.96
7 -6 5 11.74 8.58
7 -6 5 11.66 9.09
7 -6 5 0.45 9.66
7 -6 5 -3.38 7.72
7 5 -5 6.47 4.86
7 5 -5 11.75 12.85
7 5 -5 9.14 8.44
-7 -5 5 4.07 8.63
6 5 -5 -4.17 3.92
6 5 -5 -0.25 7.05
6 5 -5 -3.69 4.6
6 5 -5 -3.69 10.96
-6 -5 5 2.81 6.84
5 5 -5 15.08 5.31
5 5 -5 21.03 6.95
5 5 -5 2.48 4.87
5 5 -5 16.48 11.09
5 5 -5 7.03 5.7
-5 -5 5 14.41 6.98
4 5 -5 17.08 5.61
4 5 -5 21.84 5.66
4 5 -5 9.25 9.93
4 5 -5 15.82 6.34
4 5 -5 6.09 4.84
4 5 -5 17.69 5.13
-4 -5 5 18.28 6.77
-4 -5 5 16.67 7.56
3 5 -5 41.85 6.3
3 5 -5 22.01 6.29
3 5 -5 25.57 9.77
3 5 -5 25.07 5.5
3 5 -5 33.64 6.41
3 5 -5 45.77 6.73
-3 -5 5 33.82 4.33
-3 -5 5 27.45 5.09
-3 -5 5 45.9 8.06
-3 -5 5 35.16 5.81
-3 -5 5 25.63 4.15
-3 -5 5 52.19 6.19
2 5 -5 5.15 4.71
2 5 -5 6.34 4.75
2 5 -5 -1.35 6.22
2 5 -5 -1.49 4.75
2 5 -5 -8.69 3.75
2 5 -5 4.48 2.19
2 5 -5 6.5 5
2 5 -5 5.28 3.81
-2 -5 5 -0.48 3.68
-2 -5 5 1.37 3.79
-2 -5 5 1.28 4.77
-2 -5 5 1.96 3.52
-2 -5 5 4.35 3.54
-2 -5 5 12.77 6.02
1 5 -5 54.44 7.96
1 5 -5 64.79 8.35
1 5 -5 54.38 9.54
1 5 -5 53.28 7.83
1 5 -5 65.11 6.69
1 5 -5 65.58 8.44
-1 -5 5 58.71 7.29
-1 -5 5 78.48 7.32
-1 -5 5 63.79 7.75
-1 -5 5 62.58 8.47
-1 -5 5 78.85 7.53
0 5 -5 11.07 5.13
0 5 -5 1.26 3.7
0 5 -5 6.48 7.38
0 5 -5 0.08 3.75
0 5 -5 4.58 3.57
0 5 -5 6.36 3.67
0 5 -5 7.96 3.75
0 -5 5 8.42 5.19
0 -5 5 0.48 4.19
0 -5 5 3.3 4.23
0 -5 5 3.64 5.92
0 -5 5 2.92 4.34
0 -5 5 -2.9 5.13
-1 5 -5 15.74 5.03
-1 5 -5 25.36 4.7
-1 5 -5 24.39 8.35
-1 5 -5 27.24 5.88
-1 5 -5 8.84 5.08
-1 5 -5 23.29 6.1
1 -5 5 24.84 6.28
1 -5 5 15.79 6.73
1 -5 5 27.95 6.18
1 -5 5 19.3 4.82
1 -5 5 17.94 5.23
1 -5 5 22.51 5.11
-2 5 -5 23.61 5.17
-2 5 -5 15.85 6.5
-2 5 -5 31.48 6.6
-2 5 -5 25.48 6.93
-2 5 -5 14.57 5.25
-2 5 -5 20.58 5.62
2 -5 5 19.66 6.66
2 -5 5 22.74 7.35
2 -5 5 17.59 5.07
2 -5 5 19.87 5.74
2 -5 5 17.9 6.3
2 -5 5 21.22 6.43
-3 5 -5 33.94 7.51
-3 5 -5 32.24 6.57
-3 5 -5 28.97 7.46
-3 5 -5 23.86 7.47
-3 5 -5 13.11 7.49
-3 5 -5 27.39 6.11
3 -5 5 17.43 7.87
3 -5 5 24.04 6.19
3 -5 5 20.23 6.42
3 -5 5 16.7 5.24
3 -5 5 25.72 6.96
-4 5 -5 3.74 5.28
-4 5 -5 14.26 6.79
4 -5 5 2.12 5.62
4 -5 5 10.73 6.38
4 -5 5 6.33 7.69
4 -5 5 -0.27 6.06
4 -5 5 11.39 8.37
-5 5 -5 2.39 6.81
-5 5 -5 6.27 5.78
-5 5 -5 17.29 6.98
5 -5 5 14.92 8.32
5 -5 5 10.81 6.88
5 -5 5 22.01 7.08
5 -5 5 6.38 5.29
5 -5 5 12.14 7.46
-6 5 -5 11.46 6.94
-6 5 -5 7.21 7.84
6 -5 5 7.91 10.65
6 -5 5 -0.15 7.18
6 -5 5 13.5 8.44
6 -5 5 14.56 8.47
6 -5 5 1.54 7.12
7 -5 5 31.63 9.45
7 -5 5 4.21 7.67
7 -5 5 11.61 9.12
7 -5 5 10.72 8.73
7 -5 5 2.79 8.68
7 -5 5 -1.13 7.62
8 4 -5 -13.87 9.08
8 4 -5 -11.72 12.89
8 4 -5 -6.15 5.34
7 4 -5 10.59 7.82
7 4 -5 -6.82 11.05
7 4 -5 0.83 4.81
6 4 -5 -11.25 4.16
6 4 -5 6.92 7.05
6 4 -5 14.92 11.45
6 4 -5 4.57 4.48
-6 -4 5 3.16 6.63
5 4 -5 1.54 5.46
5 4 -5 -1.69 6.1
5 4 -5 8.57 7
5 4 -5 -2.97 4.73
5 4 -5 -4.14 4.33
5 4 -5 -0.75 7.21
-5 -4 5 -5.23 5.2
4 4 -5 14.39 9.27
4 4 -5 29.82 6.71
4 4 -5 5.7 4.46
4 4 -5 15.6 5.07
4 4 -5 10.87 5.66
4 4 -5 16.69 5.64
-4 -4 5 16.12 5.01
-4 -4 5 9.51 3.78
-4 -4 5 13.16 5.74
3 4 -5 0.25 4.08
3 4 -5 0.45 4.23
3 4 -5 -4.5 4.12
3 4 -5 -1.25 5.05
3 4 -5 3.96 5.31
3 4 -5 5.2 8.25
3 4 -5 -1.65 4.87
-3 -4 5 6.3 4.75
-3 -4 5 -0.66 3.7
-3 -4 5 -2.88 2.99
-3 -4 5 7.98 5.35
-3 -4 5 6.43 3.02
2 4 -5 3.94 7.9
2 4 -5 -3.62 3.27
2 4 -5 2.98 3.91
2 4 -5 3.41 4.56
2 4 -5 1.84 4.39
2 4 -5 2.18 4.45
2 4 -5 2.48 5.06
-2 -4 5 -1.13 4.62
-2 -4 5 1.97 4.21
-2 -4 5 -2.03 2.91
-2 -4 5 1.46 4.8
-2 -4 5 -2.32 3.64
-2 -4 5 -0.98 3.43
1 4 -5 11.97 3.92
1 4 -5 4.47 5.64
1 4 -5 8.75 4.05
1 4 -5 11.25 4.69
1 4 -5 6.39 4.56
1 4 -5 7.71 4.72
1 4 -5 14.85 5.09
-1 -4 5 9.16 4.42
-1 -4 5 10.82 3.11
-1 -4 5 20.51 4.89
-1 -4 5 12.9 5.27
-1 -4 5 8.89 5.81
-1 -4 5 10.82 4.07
0 4 -5 47.94 6.28
0 4 -5 53.13 5.78
0 4 -5 45.88 9.17
0 4 -5 58.47 7.62
0 4 -5 27.8 6.47
0 4 -5 46.67 7.12
0 -4 5 50.06 6.78
0 -4 5 39.37 6.62
0 -4 5 51.03 6.68
0 -4 5 40.62 7.95
0 -4 5 52.59 6.31
0 -4 5 48.34 7.4
-1 4 -5 4.76 6.96
-1 4 -5 -7.44 4.02
-1 4 -5 -0.28 3.96
-1 4 -5 -2.96 4.46
-1 4 -5 5.72 3.95
-1 4 -5 5.76 4.47
-1 4 -5 -1.27 3.76
1 -4 5 4.53 4.59
1 -4 5 -1.79 3.96
1 -4 5 -2.64 3.62
1 -4 5 -3.73 5.37
1 -4 5 -0.91 3.34
1 -4 5 -4.74 3.45
-2 4 -5 8.73 6.19
-2 4 -5 17.62 7.58
-2 4 -5 11.4 4.58
-2 4 -5 11.83 4.82
-2 4 -5 10.05 5.53
-2 4 -5 13.94 4.99
2 -4 5 9.17 6.52
2 -4 5 17.36 4.67
2 -4 5 17.51 5.75
2 -4 5 17.13 5.47
2 -4 5 12.37 5.78
2 -4 5 26.36 5.6
-3 4 -5 2.59 4.73
-3 4 -5 10.79 4.99
-3 4 -5 3.85 5.48
-3 4 -5 -8.22 5.49
-3 4 -5 0.2 5.94
-3 4 -5 9.7 5.91
3 -4 5 3.43 5.25
3 -4 5 7.26 4.24
3 -4 5 0.02 5.06
3 -4 5 3.14 5.37
3 -4 5 0.29 4.86
3 -4 5 -3.08 5.02
-4 4 -5 39.73 7.32
-4 4 -5 38.22 7.94
-4 4 -5 60.54 8.77
4 -4 5 41.64 9.59
4 -4 5 25.1 7.29
4 -4 5 38.81 7.97
4 -4 5 43.18 7.93
4 -4 5 39.2 8.01
-5 4 -5 23.54 6.57
-5 4 -5 9.45 7.48
5 -4 5 10.89 6.92
5 -4 5 0.84 8.62
5 -4 5 13.75 8.99
5 -4 5 4.8 4.9
5 -4 5 13.91 7.12
-6 4 -5 -5.16 7.92
-6 4 -5 -7 5.69
6 -4 5 14.91 8.93
6 -4 5 1.91 6.28
6 -4 5 8.55 7.66
6 -4 5 0.11 7.54
6 -4 5 -4.69 7
-7 4 -5 3.01 8.86
7 -4 5 -8.67 7.57
7 -4 5 -7.72 6.73
7 -4 5 0.54 6.96
7 -4 5 22.84 10.48
7 -4 5 -0.67 7.46
8 3 -5 2.83 9.13
8 3 -5 -1.41 5.14
8 3 -5 -13.26 11.56
7 3 -5 4.05 8.01
7 3 -5 -1.03 10.56
7 3 -5 0.75 5.18
7 3 -5 0.58 4.69
6 3 -5 -0.06 5.73
6 3 -5 12.14 7.61
6 3 -5 -8.32 9.5
6 3 -5 -2.62 4.66
6 3 -5 -3.13 4.75
-6 -3 5 -1.98 5.57
5 3 -5 3.15 7.08
5 3 -5 19.02 7.37
5 3 -5 13.69 5.35
5 3 -5 1.2 4.8
5 3 -5 8.55 6.61
-5 -3 5 6.74 4.83
4 3 -5 -6.56 5.16
4 3 -5 5.76 6.55
4 3 -5 -3.11 3.84
4 3 -5 8.73 5.79
4 3 -5 5.39 4.94
4 3 -5 0.2 5.11
-4 -3 5 10.24 4.81
-4 -3 5 4.05 2.48
-4 -3 5 4.03 3.51
-4 -3 5 12.48 4.7
-4 -3 5 0.96 2.51
3 3 -5 14.36 5.06
3 3 -5 5.06 4.54
3 3 -5 14.2 5
3 3 -5 4.78 5.14
3 3 -5 6.82 4.03
3 3 -5 10.66 7.92
3 3 -5 12.21 5.26
-3 -3 5 5.31 3.61
-3 -3 5 7.83 5.2
-3 -3 5 13.21 4.95
-3 -3 5 7.1 3.27
-3 -3 5 9.88 3.72
2 3 -5 2.73 4.51
2 3 -5 -0.63 4.19
2 3 -5 6.24 4.69
2 3 -5 6.03 4.65
2 3 -5 0.82 5.13
2 3 -5 -4.51 3.66
2 3 -5 3.31 7.44
-2 -3 5 -5.93 2.95
-2 -3 5 -4.16 4.74
-2 -3 5 1.46 4.53
-2 -3 5 -4.08 3.79
-2 -3 5 1.19 2.83
1 3 -5 9.7 4.28
1 3 -5 9.24 5.12
1 3 -5 4.53 4.53
1 3 -5 11.19 5.19
1 3 -5 7.58 3.79
1 3 -5 6.84 7.28
1 3 -5 16.48 5.06
-1 -3 5 11.89 4.41
-1 -3 5 21.28 5.13
-1 -3 5 9.61 2.53
-1 -3 5 10.19 4.37
-1 -3 5 13.82 5.16
-1 -3 5 8.41 5.3
0 3 -5 16.64 5.53
0 3 -5 8.52 4.74
0 3 -5 12.52 4.05
0 3 -5 4.42 4.5
0 3 -5 7.5 5.33
0 -3 5 7.56 3.92
0 -3 5 6.92 4.32
0 -3 5 10.33 3.67
0 -3 5 9.28 5.17
0 -3 5 7.58 3.49
0 -3 5 8.44 4.57
0 -3 5 13.88 4.65
-1 3 -5 11.25 4.69
-1 3 -5 8.87 6.24
-1 3 -5 13.35 3.86
-1 3 -5 11.5 4.17
-1 3 -5 5.31 5.12
-1 3 -5 9.31 5.14
-1 3 -5 9.34 5.46
1 -3 5 2.83 5.89
1 -3 5 4.34 4.41
1 -3 5 12.12 4.29
1 -3 5 3.27 4.77
1 -3 5 8.51 4.08
1 -3 5 6.89 4.58
-2 3 -5 15.1 6.18
-2 3 -5 15 5.73
-2 3 -5 13.64 4.81
-2 3 -5 16.56 5.66
-2 3 -5 11.86 6.94
-2 3 -5 5.44 7
2 -3 5 14.6 4.46
2 -3 5 22.26 5.35
2 -3 5 14.37 7.01
2 -3 5 19.42 5.41
2 -3 5 14.13 6.08
2 -3 5 14.27 5.29
-3 3 -5 13.78 6.17
-3 3 -5 20.21 5.92
-3 3 -5 18.07 6.38
-3 3 -5 23.07 5.21
-3 3 -5 16.34 4.7
3 -3 5 21.49 8.14
3 -3 5 25.27 6
3 -3 5 22.78 5.98
3 -3 5 16.22 5.8
3 -3 5 26.36 6.17
3 -3 5 18.58 7.44
-4 3 -5 -2.06 4.97
-4 3 -5 13.19 6.9
-4 3 -5 0.87 5.93
4 -3 5 5.46 7.97
4 -3 5 5.43 5.46
4 -3 5 4.78 5.37
4 -3 5 2.4 5.52
4 -3 5 7.64 8.09
-5 3 -5 12.29 5.28
-5 3 -5 10.84 7.63
5 -3 5 14.47 9.44
5 -3 5 24.29 9.29
5 -3 5 18.21 7.1
5 -3 5 8.26 5.87
5 -3 5 17.82 6.97
-6 3 -5 6.69 8.63
6 -3 5 9.34 7.1
6 -3 5 0.99 5.71
6 -3 5 -1.09 5.76
6 -3 5 1.12 9.25
6 -3 5 -1.76 9.06
-7 3 -5 5.33 9.5
7 -3 5 24.1 11.71
7 -3 5 11.42 8.28
7 -3 5 -5.52 5.89
7 -3 5 -2.85 7.08
7 -3 5 11.97 6.83
8 2 -5 4.05 6.37
8 2 -5 2.43 11.3
8 2 -5 0.44 8.66
8 2 -5 -4.71 5.19
7 2 -5 -3.67 5.25
7 2 -5 0.66 10.16
7 2 -5 4.44 8.76
7 2 -5 0.31 5.39
6 2 -5 -3.01 6.13
6 2 -5 -1.15 7.29
6 2 -5 0.94 5.06
6 2 -5 0.55 9.25
6 2 -5 9.55 5.82
-6 -2 5 -10.85 4.58
5 2 -5 -5.84 4.39
5 2 -5 6.03 4.02
5 2 -5 -3.37 6.83
5 2 -5 3.78 6.75
5 2 -5 8.73 5.9
5 2 -5 -6.98 5.07
5 2 -5 -0.56 7.24
-5 -2 5 6.81 5.06
-5 -2 5 1.32 4.38
-5 -2 5 -2.05 1.96
4 2 -5 46.12 8.16
4 2 -5 39.53 6.09
4 2 -5 22.34 5.92
4 2 -5 10.49 6.87
4 2 -5 46.42 7.22
4 2 -5 32.57 5.73
4 2 -5 26.57 5.94
4 2 -5 33.25 6.94
-4 -2 5 32.31 4.53
-4 -2 5 27.22 5.44
-4 -2 5 50.7 6.02
-4 -2 5 24.94 4.47
-4 -2 5 38.07 6.23
3 2 -5 14.86 7.59
3 2 -5 14.78 5.27
3 2 -5 13.88 6.01
3 2 -5 10.91 5.31
3 2 -5 8.67 4.38
3 2 -5 13.9 5.07
3 2 -5 8.58 4.58
-3 -2 5 13.28 4.09
-3 -2 5 14.65 5.19
-3 -2 5 17.08 4.81
-3 -2 5 9.5 4.21
-3 -2 5 6.63 3.68
2 2 -5 5.59 5.61
2 2 -5 15.77 4.48
2 2 -5 8.14 4.71
2 2 -5 6.43 7.36
2 2 -5 13.76 4.95
2 2 -5 11.53 5.08
2 2 -5 4.85 4.94
2 2 -5 1.93 5.26
-2 -2 5 9.27 4.67
-2 -2 5 10.78 4.54
-2 -2 5 7.45 4.39
-2 -2 5 2.37 4.83
1 2 -5 25.36 4.81
1 2 -5 26.04 7.79
1 2 -5 20.62 5.76
1 2 -5 27.78 5.69
1 2 -5 29.56 5.17
1 2 -5 20.22 5.52
-1 -2 5 28.16 3.77
-1 -2 5 23.05 4.93
-1 -2 5 21.67 5.58
-1 -2 5 29.17 5.23
-1 -2 5 22.92 5.52
-1 -2 5 21.55 5.48
0 2 -5 222.1 20.16
0 2 -5 237.29 20.06
0 2 -5 235.66 20.41
0 2 -5 237.32 19.9
0 2 -5 227.21 20.44
0 2 -5 248.2 20.6
0 -2 5 230.14 20.03
0 -2 5 230.72 20.2
0 -2 5 237.59 21.28
0 -2 5 220.46 19.76
0 -2 5 237.55 21.23
0 -2 5 228.13 19.92
0 -2 5 254.57 20.55
-1 2 -5 12.88 4.65
-1 2 -5 13.01 5.83
-1 2 -5 13.3 4.86
-1 2 -5 18.15 5.51
-1 2 -5 18.33 5.55
-1 2 -5 14.94 6.66
-1 2 -5 4.01 7.36
1 -2 5 15.8 6.19
1 -2 5 6.99 4.92
1 -2 5 16.92 5.17
1 -2 5 15.91 5.3
1 -2 5 17.54 4.41
1 -2 5 7.62 4.49
1 -2 5 5.6 5.95
-2 2 -5 17.81 5.91
-2 2 -5 12.54 5.29
-2 2 -5 28.22 6.56
-2 2 -5 20.01 5.82
-2 2 -5 19.34 4.98
-2 2 -5 15.13 6.15
2 -2 5 25.66 5.74
2 -2 5 10.44 6.86
2 -2 5 19.77 5.34
2 -2 5 20.72 5.26
2 -2 5 23.04 4.73
2 -2 5 26.56 6.46
2 -2 5 16.58 6.37
-3 2 -5 10.85 5.54
-3 2 -5 14.41 5.48
-3 2 -5 1.64 2.33
-3 2 -5 12.11 6.16
-3 2 -5 7.66 4.23
3 -2 5 2.19 4.62
3 -2 5 11.06 5.27
3 -2 5 0.47 4.67
3 -2 5 -0.04 6.5
3 -2 5 2.09 4.64
3 -2 5 8.2 7.52
3 -2 5 5.91 4.8
-4 2 -5 29.55 6.82
-4 2 -5 29.54 6.05
-4 2 -5 38.46 8.03
-4 2 -5 38.63 7.23
4 -2 5 28.74 7.25
4 -2 5 44.23 10.48
4 -2 5 31.96 6.56
4 -2 5 46.03 7.97
4 -2 5 29.21 7.63
4 -2 5 32.65 9.02
4 -2 5 51.5 7
4 -2 5 38.52 7.02
-5 2 -5 1.63 5.71
-5 2 -5 -2.35 5.4
-5 2 -5 0.9 4.33
5 -2 5 3.88 5.43
5 -2 5 -2.28 9.42
5 -2 5 -2.99 4.8
5 -2 5 -2.88 8.35
5 -2 5 -0.33 5.56
-6 2 -5 -4.14 8.15
6 -2 5 7.73 6.56
6 -2 5 5.33 6.48
6 -2 5 9.64 5.57
6 -2 5 -7.49 9.85
6 -2 5 2.19 9.78
-7 2 -5 -8.08 8.93
7 -2 5 -15.57 10.41
7 -2 5 1.51 6.58
7 -2 5 3.43 5.63
7 -2 5 8.19 8.03
8 1 -5 8.58 11.29
8 1 -5 -2.04 9.67
8 1 -5 -3.59 5.62
8 1 -5 -7.99 5.63
7 1 -5 7.36 9.25
7 1 -5 3.65 6.1
7 1 -5 10.87 10.1
7 1 -5 1.58 7.17
7 1 -5 0.49 5.25
6 1 -5 -4.37 7.96
6 1 -5 -5.66 5.78
6 1 -5 3.43 6.86
6 1 -5 -0.47 5.18
6 1 -5 0.63 8.97
6 1 -5 -3.92 5.98
5 1 -5 54.42 7.87
5 1 -5 52.38 7.04
5 1 -5 26.35 7.23
5 1 -5 23.99 9.86
5 1 -5 35.46 8.95
5 1 -5 28.67 6.72
-5 -1 5 56.01 5.54
-5 -1 5 23.26 4.89
-5 -1 5 48.1 7.58
4 1 -5 15.73 4.46
4 1 -5 11.3 5.43
4 1 -5 7.7 6.95
4 1 -5 5.26 5.39
4 1 -5 2.8 4.9
4 1 -5 3.46 4.66
4 1 -5 6.76 3.43
4 1 -5 2.59 7.74
4 1 -5 11.43 6.18
-4 -1 5 8.18 3.28
-4 -1 5 7.56 3.41
-4 -1 5 4.56 4.07
-4 -1 5 9.08 4.24
-4 -1 5 10.23 5.62
-4 -1 5 11.18 3.74
3 1 -5 93.82 10.58
3 1 -5 109.13 11.55
3 1 -5 98.2 11.3
3 1 -5 113.84 11.11
3 1 -5 120.69 11.32
3 1 -5 131.59 12.76
3 1 -5 118.01 12.14
3 1 -5 120.28 10.69
-3 -1 5 108 11.37
-3 -1 5 93.54 9.34
-3 -1 5 97.21 10.33
-3 -1 5 110.14 9.88
-3 -1 5 97.79 10.52
2 1 -5 -3 4.85
2 1 -5 0.58 3.8
2 1 -5 -1.43 3.56
2 1 -5 -2.5 4.8
2 1 -5 1.05 5.08
2 1 -5 -1.74 6.09
-2 -1 5 -2.06 4.26
-2 -1 5 1.62 3.08
-2 -1 5 2.73 4.2
-2 -1 5 -1.31 3.45
-2 -1 5 8.04 5.06
-2 -1 5 -6.97 6.25
1 1 -5 75.73 8.61
1 1 -5 54.95 7.75
1 1 -5 66.23 7.96
1 1 -5 78.09 10.05
1 1 -5 66.12 8.39
1 1 -5 74.1 8.85
1 1 -5 69.4 8.81
-1 -1 5 60.04 10.07
-1 -1 5 68.86 8.53
-1 -1 5 64.17 8.48
-1 -1 5 82.38 8.87
-1 -1 5 59.01 7.85
-1 -1 5 65.55 8.17
0 1 -5 5.05 5.73
0 1 -5 1.78 5.18
0 1 -5 7.93 5.22
0 1 -5 5.35 3.73
0 1 -5 3.23 4.47
0 1 -5 2.91 3.86
0 -1 5 2.13 6
0 -1 5 -2.23 3.51
0 -1 5 2.71 4.74
0 -1 5 5.91 5.49
0 -1 5 3.24 3.53
0 -1 5 1.73 3.2
-1 1 -5 44.44 6.96
-1 1 -5 46.13 6.62
-1 1 -5 42.38 7.13
-1 1 -5 35.76 6.12
-1 1 -5 46.47 7.89
1 -1 5 47.43 6.99
1 -1 5 48.31 6.15
1 -1 5 49.79 8.94
1 -1 5 48.43 6.93
1 -1 5 39.15 8.11
1 -1 5 48.6 7.15
-2 1 -5 19.1 4.74
-2 1 -5 23.27 5.51
-2 1 -5 11.99 4.67
-2 1 -5 11.76 5.03
-2 1 -5 20.85 6.31
2 -1 5 15.4 4.22
2 -1 5 16.08 7.25
2 -1 5 15.4 5.19
2 -1 5 21.87 5.51
2 -1 5 18.91 4.44
2 -1 5 18.66 6.83
2 -1 5 15.96 5.14
2 -1 5 25.11 6.92
-3 1 -5 17.07 4.85
-3 1 -5 17.5 5.01
-3 1 -5 15.92 5.91
-3 1 -5 19.48 5.01
-3 1 -5 30.95 9.6
-3 1 -5 24.05 6.95
3 -1 5 25.17 7.69
3 -1 5 31.43 5.69
3 -1 5 24.86 5.5
3 -1 5 13.83 6.35
3 -1 5 22.7 5.73
3 -1 5 17.19 7.39
3 -1 5 12.74 5.5
3 -1 5 17.69 5.26
-4 1 -5 18.42 6.1
-4 1 -5 -2.71 5.07
-4 1 -5 8.57 6.87
-4 1 -5 1.78 4.21
4 -1 5 14.61 6.59
4 -1 5 9.3 8.47
4 -1 5 12.47 5.58
4 -1 5 11.32 7
4 -1 5 4.34 4.67
4 -1 5 8.12 5.3
4 -1 5 8.16 5.51
-5 1 -5 8.78 7.71
5 -1 5 16.63 6.01
5 -1 5 12.32 9.88
5 -1 5 16.01 6.21
5 -1 5 7.15 5.08
5 -1 5 15.52 9.14
-6 1 -5 -8.97 5.53
6 -1 5 -0.61 4.77
6 -1 5 -11.11 9.89
6 -1 5 0.12 5.93
6 -1 5 -2.81 5.89
6 -1 5 2.05 9.41
-7 1 -5 -13.04 8.79
7 -1 5 -14.56 11.42
7 -1 5 -6.25 5.52
7 -1 5 0.05 10.48
7 -1 5 -10.24 6.02
8 0 -5 9.55 7.18
8 0 -5 10.88 11.34
8 0 -5 -4.92 6.86
8 0 -5 4.89 9.96
7 0 -5 18.24 10.74
7 0 -5 8.09 7.71
7 0 -5 10.83 9.64
7 0 -5 24.09 7.02
7 0 -5 8.68 7.28
6 0 -5 -2.87 5.68
6 0 -5 15.84 9.07
6 0 -5 0.53 6.82
6 0 -5 11.6 6.95
6 0 -5 -1.24 7.32
6 0 -5 3.54 8.84
-6 0 5 -6.24 3.57
5 0 -5 5.92 6.16
5 0 -5 9.4 5.93
5 0 -5 5.43 6.31
5 0 -5 6.3 8.12
5 0 -5 7.93 6.02
5 0 -5 17.03 6.48
-5 0 5 8.09 6.14
-5 0 5 8.5 4.61
4 0 -5 57.34 9.95
4 0 -5 65.26 8.48
4 0 -5 32.48 7.22
4 0 -5 45.15 7.42
4 0 -5 39.16 7.63
4 0 -5 50.01 7.39
4 0 -5 49.36 9.46
-4 0 5 42.29 6.53
-4 0 5 54.99 7.42
-4 0 5 62.43 8.42
-4 0 5 43.83 4.37
-4 0 5 32.07 6.03
3 0 -5 4.82 5.2
3 0 -5 -4.04 4.89
3 0 -5 8.13 3.52
3 0 -5 8.95 5.23
3 0 -5 1.71 5.51
3 0 -5 1.36 4.99
3 0 -5 3.37 5.43
-3 0 5 -1.27 4.01
-3 0 5 3.06 3.26
-3 0 5 3.19 5.16
-3 0 5 0.15 4.63
-3 0 5 6.25 4.32
-3 0 5 -4.56 6.48
2 0 -5 10.16 5.3
2 0 -5 9.94 4.96
2 0 -5 10.39 4.37
2 0 -5 13.99 6.61
2 0 -5 9.53 4.47
2 0 -5 12.78 6.48
2 0 -5 10.3 4.15
-2 0 5 10.81 4.25
-2 0 5 14.4 4.53
-2 0 5 4.85 5.27
-2 0 5 5.72 4.43
-2 0 5 15.37 5.68
-2 0 5 12.76 4.65
1 0 -5 -1.33 5.43
1 0 -5 5.45 5.7
1 0 -5 1.11 5.03
1 0 -5 0.48 4.88
1 0 -5 2.75 4.79
1 0 -5 0.05 5.4
1 0 -5 0.93 5.96
-1 0 5 2.91 4.04
-1 0 5 3.79 7.02
-1 0 5 5.94 4.12
-1 0 5 1.76 5.56
-1 0 5 1.22 4.03
-1 0 5 -3.16 5.1
-1 0 5 -2.72 4.45
0 0 -5 66.88 7.98
0 0 -5 69.8 8.94
0 0 -5 78.29 9.67
0 0 -5 78.51 8.93
0 0 -5 58.07 8.62
0 0 -5 58.2 8.18
0 0 5 70.48 7.82
0 0 5 79.07 8.78
0 0 5 70.08 8.27
0 0 5 57.46 8.37
0 0 5 67.91 8.14
0 0 5 51.24 8.97
0 0 5 66.83 11.24
-1 0 -5 47.45 7.37
-1 0 -5 41.69 6.25
-1 0 -5 49.24 7.38
-1 0 -5 49.89 7.3
1 0 5 35.17 9.22
1 0 5 46.98 7.24
1 0 5 50.2 6.85
1 0 5 43.59 7.32
1 0 5 55.2 7.78
1 0 5 46.13 8.5
1 0 5 42.44 6.4
-2 0 -5 6.24 5.68
-2 0 -5 -1.11 4.29
-2 0 -5 0.72 3.59
-2 0 -5 12.41 5.28
-2 0 -5 7.65 4.64
2 0 5 1.42 4.59
2 0 5 0.06 4.84
2 0 5 -0.82 4.15
2 0 5 -0.21 4.62
2 0 5 2.07 4.99
2 0 5 4.06 7.01
2 0 5 1.3 4.34
-3 0 -5 17.46 4.57
-3 0 -5 13.85 6.77
-3 0 -5 14.3 5.71
-3 0 -5 7.57 4.29
-3 0 -5 5.16 3.64
3 0 5 11.12 4.83
3 0 5 6.32 7.32
3 0 5 8.06 4.99
3 0 5 14.17 5.2
3 0 5 13.03 5.3
3 0 5 11.07 6.1
3 0 5 -0.22 7.3
3 0 5 11.15 5.09
-4 0 -5 5.25 6.89
-4 0 -5 4.59 3.57
-4 0 -5 1.5 5.29
4 0 5 1.98 5.45
4 0 5 0.59 8.39
4 0 5 -5.26 5.09
4 0 5 -3.98 5.01
4 0 5 10.01 8.53
4 0 5 9.14 8.25
4 0 5 -2.43 4.06
-5 0 -5 4.07 7.89
5 0 5 8.53 5.57
5 0 5 -3.72 8.16
5 0 5 8.28 5.72
5 0 5 4.67 5.19
5 0 5 2.5 9.4
5 0 5 -0.6 6.62
-6 0 -5 3.96 6.26
6 0 5 10.38 11.1
6 0 5 -1.02 4.96
6 0 5 1.86 9.65
6 0 5 0.47 5.94
-7 0 -5 -0.77 9.07
7 0 5 5 4.98
7 0 5 -5.45 12.07
7 0 5 6.9 8.22
7 0 5 3.7 5.81
8 -1 -5 -2.41 7.43
8 -1 -5 5.01 8.41
8 -1 -5 -2.74 7.49
8 -1 -5 11.3 8.45
7 -1 -5 7.63 9.84
7 -1 -5 4.06 6.84
7 -1 -5 3.55 9.62
7 -1 -5 -18.49 6.32
7 -1 -5 3.63 7.93
6 -1 -5 5.42 8.93
6 -1 -5 2.72 6.55
6 -1 -5 5.2 6.6
6 -1 -5 -12.18 8.04
6 -1 -5 -2.92 6.95
6 -1 -5 -14.35 6.27
-6 1 5 3.02 4.78
5 -1 -5 -3.02 6.13
5 -1 -5 -7.68 5.91
5 -1 -5 0.72 5.84
5 -1 -5 3.23 5.99
5 -1 -5 3.39 7.59
5 -1 -5 10.95 7.36
-5 1 5 2.29 6.61
-5 1 5 2.72 4.85
4 -1 -5 23.44 7.35
4 -1 -5 9.31 7.98
4 -1 -5 13.02 6.39
4 -1 -5 18.82 5.75
4 -1 -5 10.11 5.88
4 -1 -5 9.51 7.4
-4 1 5 16.38 6.6
-4 1 5 19.16 6.05
-4 1 5 17.75 8.59
-4 1 5 17.32 5.13
3 -1 -5 3.1 6.03
3 -1 -5 9.16 5.46
3 -1 -5 14.11 6.52
3 -1 -5 7.54 6.15
3 -1 -5 -1.29 4.07
3 -1 -5 4.21 6.94
-3 1 5 14.04 6.48
-3 1 5 5.21 5.52
-3 1 5 4.06 1.97
-3 1 5 4.57 7.49
-3 1 5 1.85 4.56
-3 1 5 2.48 3.61
2 -1 -5 0.13 4.8
2 -1 -5 -1.96 3.96
2 -1 -5 1.14 5.08
2 -1 -5 -1.49 5.48
2 -1 -5 0.86 5.93
2 -1 -5 1.39 4.35
-2 1 5 -3.75 7.39
-2 1 5 -1.31 5.22
-2 1 5 -10.18 4.15
-2 1 5 -6.07 4.24
-2 1 5 -0.16 5.29
1 -1 -5 2.93 5.61
1 -1 -5 0.97 3.95
1 -1 -5 6.05 4.93
1 -1 -5 6.21 6.25
1 -1 -5 6.62 5.69
-1 1 5 1.2 8.1
-1 1 5 7.95 5.61
-1 1 5 10.87 4.48
-1 1 5 1.11 4.87
-1 1 5 4.47 4.71
-1 1 5 6.05 5.69
-1 1 5 8.47 4.73
0 -1 -5 64.24 8.89
0 -1 -5 80.04 8.85
0 -1 -5 57.45 8.36
0 -1 -5 99.74 9.69
0 -1 -5 91.19 9.85
0 1 5 58.57 8.57
0 1 5 71.37 12.37
0 1 5 61.4 8.39
0 1 5 62.87 7.51
0 1 5 63.05 9.59
0 1 5 70.66 9.24
0 1 5 68.3 8.67
-1 -1 -5 17.26 6.18
-1 -1 -5 24.16 5.63
-1 -1 -5 20.97 5.66
-1 -1 -5 24.61 6.1
1 1 5 18.75 5.03
1 1 5 28.17 9.21
1 1 5 28.49 5.72
1 1 5 18.82 5.62
1 1 5 26.26 7.46
1 1 5 23.15 5.08
1 1 5 37.34 6.26
-2 -1 -5 1.94 3.77
-2 -1 -5 7.66 4.65
-2 -1 -5 -5.04 5.99
-2 -1 -5 0.69 5.2
-2 -1 -5 11.11 4.56
2 1 5 7.14 4.95
2 1 5 7.87 4.84
2 1 5 9.43 5
2 1 5 -3.57 6.54
2 1 5 -3.13 4.47
2 1 5 10.15 4.88
2 1 5 12.96 8.09
2 1 5 -0.79 4.54
-3 -1 -5 27.72 7.63
-3 -1 -5 50.14 6.92
-3 -1 -5 26.76 4.56
-3 -1 -5 26.42 5.06
-3 -1 -5 30.4 5.25
3 1 5 22.04 8.58
3 1 5 23.52 5.7
3 1 5 32.57 6.04
3 1 5 33.31 6.38
3 1 5 30.82 6.08
3 1 5 31.47 6.29
3 1 5 26.87 9.18
-4 -1 -5 -3.82 4.69
-4 -1 -5 5.61 7.35
4 1 5 6.78 5.66
4 1 5 7.66 9.36
4 1 5 1.05 8.62
4 1 5 0.59 5.07
4 1 5 6.6 5.95
4 1 5 5.5 8.67
-5 -1 -5 5.05 7.94
5 1 5 27.18 10.65
5 1 5 29.52 6.6
5 1 5 18.72 5.57
5 1 5 7.69 9.95
5 1 5 24.78 10.16
5 1 5 20.65 6.37
-6 -1 -5 -0.38 8.54
6 1 5 9.17 5.18
6 1 5 -5.28 10.05
6 1 5 -1.29 7.56
6 1 5 -1.55 5.48
-7 -1 -5 -1.64 9.07
7 1 5 2.11 5.04
7 1 5 4.68 11.36
7 1 5 5.35 12.38
8 -2 -5 7.98 9.79
7 -2 -5 3.98 9.57
7 -2 -5 3.85 7.75
7 -2 -5 -0.89 7.84
7 -2 -5 15.9 9.83
7 -2 -5 6.55 8.54
7 -2 -5 6.26 9.92
6 -2 -5 -0.98 8.85
6 -2 -5 -1.36 7.34
6 -2 -5 -6.85 7.2
6 -2 -5 -0.81 8.46
6 -2 -5 -12.92 7.55
6 -2 -5 7 7.28
-6 2 5 -3.95 8.91
-6 2 5 1.19 5.44
5 -2 -5 6.83 7.31
5 -2 -5 -3.9 6.44
5 -2 -5 1.08 6.46
5 -2 -5 -0.62 7.9
5 -2 -5 7.91 7.45
5 -2 -5 7.91 7.99
-5 2 5 -0.63 5.09
-5 2 5 12.37 7.73
-5 2 5 3.32 8.38
4 -2 -5 6.98 6.74
4 -2 -5 3.7 7.57
4 -2 -5 4.24 6.28
4 -2 -5 13.92 8.25
4 -2 -5 0.09 6.94
4 -2 -5 -1.75 6.09
-4 2 5 -8.52 4.94
-4 2 5 5.89 6.18
-4 2 5 3.03 6.24
-4 2 5 -0.99 6.9
3 -2 -5 43.56 8.5
3 -2 -5 27.03 7.22
3 -2 -5 29.24 7.52
3 -2 -5 28.83 7.74
3 -2 -5 25.95 7.14
3 -2 -5 29.97 7.22
-3 2 5 29.37 2.83
-3 2 5 33.81 7.19
-3 2 5 13.95 5.32
-3 2 5 18.76 6.97
-3 2 5 25.38 8.49
-3 2 5 17.33 6
2 -2 -5 -3.43 5.64
2 -2 -5 8.82 5.52
2 -2 -5 4.67 6.19
2 -2 -5 -4.44 4.38
2 -2 -5 -1.31 4.72
2 -2 -5 -0.1 5.04
-2 2 5 2.27 2.87
-2 2 5 -6.18 3.9
-2 2 5 2.5 5.89
-2 2 5 -3.19 4.73
-2 2 5 1.89 4.78
-2 2 5 -1.27 8.85
1 -2 -5 33.24 7.98
1 -2 -5 42.77 6.68
1 -2 -5 34.2 6.52
1 -2 -5 42.59 7.63
1 -2 -5 30.04 7.38
-1 2 5 35.67 6.57
-1 2 5 40.84 7.59
-1 2 5 24.24 8.7
-1 2 5 27.08 6.73
-1 2 5 30.96 6.4
-1 2 5 29.45 5.32
-1 2 5 25.17 7.27
0 -2 -5 27.74 6.33
0 -2 -5 18.79 6.48
0 -2 -5 32.29 7.43
0 -2 -5 13.03 5.45
0 -2 -5 21.51 5.01
0 2 5 30.91 6.06
0 2 5 29.63 7.47
0 2 5 20.36 10.1
0 2 5 32.08 6.84
0 2 5 35.69 4.92
0 2 5 34.47 6.42
0 2 5 19.66 5.93
-1 -2 -5 126.61 13.07
-1 -2 -5 126.16 11.78
-1 -2 -5 116.7 10.72
-1 -2 -5 105.12 11.77
1 2 5 122.05 12.14
1 2 5 113.14 10.55
1 2 5 112.43 11.88
1 2 5 116.44 12.96
1 2 5 116.22 14.28
1 2 5 114.77 12.12
1 2 5 107.7 11.91
-2 -2 -5 47.45 6.19
-2 -2 -5 40.89 7.9
-2 -2 -5 48.89 6.95
-2 -2 -5 47.89 7.05
-2 -2 -5 36.1 8.7
2 2 5 38.71 11.08
2 2 5 54.73 7.69
2 2 5 45.36 7.36
2 2 5 45.69 6.56
2 2 5 47.39 7.57
2 2 5 56.29 10.1
2 2 5 62.87 8.1
2 2 5 48.87 7.4
-3 -2 -5 1.54 7.04
-3 -2 -5 6.7 3.85
-3 -2 -5 -1.92 4.95
3 2 5 -2.58 8.21
3 2 5 3.16 5.59
3 2 5 0.7 4.72
3 2 5 2.15 5.52
3 2 5 3.09 5.82
3 2 5 2.68 6.16
-4 -2 -5 14.41 7.7
4 2 5 15.32 6.31
4 2 5 11.03 5.77
4 2 5 12.73 7.45
4 2 5 24.64 5.91
4 2 5 35.53 10.41
-5 -2 -5 4.98 8.56
5 2 5 12.11 9.97
5 2 5 0.55 4.82
5 2 5 7.68 5.98
5 2 5 1.5 5.6
5 2 5 7.13 9
5 2 5 13.85 10.17
-6 -2 -5 -6.88 8.34
6 2 5 2.51 5.11
6 2 5 -17.57 9.69
6 2 5 -2.38 4.92
6 2 5 -9.83 9.95
-7 -2 -5 2.62 7.61
7 2 5 12.98 12.84
7 2 5 3.72 12.4
7 2 5 -7 7.86
7 -3 -5 4.13 8.13
7 -3 -5 13.09 8.42
7 -3 -5 3.74 10.77
7 -3 -5 7.95 8.48
7 -3 -5 3.21 9.26
7 -3 -5 -3.33 8.52
6 -3 -5 5.36 10.1
6 -3 -5 -7.28 7.33
6 -3 -5 -11.37 7.24
6 -3 -5 -0.5 6.94
6 -3 -5 2.11 8.19
6 -3 -5 0.45 8.49
-6 3 5 -8.41 8.01
-6 3 5 -2.22 6.51
5 -3 -5 -0.44 8.72
5 -3 -5 19.87 9.08
5 -3 -5 6.56 8.2
5 -3 -5 -4.65 7.41
5 -3 -5 16.23 7.64
5 -3 -5 2.02 6.63
-5 3 5 14.45 7.86
-5 3 5 -7.42 5.58
-5 3 5 9.48 9.26
4 -3 -5 36.92 8.62
4 -3 -5 47.92 9.74
4 -3 -5 49.88 11.02
4 -3 -5 33.93 8.22
4 -3 -5 27.71 7.09
4 -3 -5 31.17 8.94
-4 3 5 26.35 7.29
-4 3 5 44.85 9.2
-4 3 5 35.81 11.77
3 -3 -5 -3.68 5.69
3 -3 -5 -3.27 6.33
3 -3 -5 7.94 7.41
3 -3 -5 1.14 6.23
3 -3 -5 -0.28 7.75
-3 3 5 3.4 5.08
-3 3 5 8.78 5.57
-3 3 5 1.65 10.5
-3 3 5 -4.21 4.86
-3 3 5 4.06 5.15
2 -3 -5 30.42 8.25
2 -3 -5 27.02 6.64
2 -3 -5 24.63 8.55
2 -3 -5 33.72 6.43
2 -3 -5 14.89 6.4
-2 3 5 18.69 5.85
-2 3 5 25.64 6.31
-2 3 5 23.43 9.56
-2 3 5 28.38 6.63
-2 3 5 21.26 6.82
-2 3 5 33.52 4.51
1 -3 -5 12.92 7.01
1 -3 -5 15.33 5.89
1 -3 -5 2.89 4.48
1 -3 -5 4.03 4.77
1 -3 -5 0.18 6.82
-1 3 5 -0.15 3.87
-1 3 5 8.89 4.95
-1 3 5 0.61 5.11
-1 3 5 -1.49 5.44
-1 3 5 4.76 5.89
-1 3 5 7.87 10.41
0 -3 -5 118.7 10.95
0 -3 -5 133.36 14.32
0 -3 -5 119.2 13.64
0 -3 -5 128.52 13.69
0 3 5 123.15 13.15
0 3 5 124.58 13.69
0 3 5 127.18 14.73
0 3 5 125.22 13.39
0 3 5 125.09 13.43
0 3 5 130.2 15.81
-1 -3 -5 20.49 7.28
-1 -3 -5 21.67 5.53
-1 -3 -5 23.45 6.52
-1 -3 -5 16.09 7.78
1 3 5 12.51 7.98
1 3 5 12.63 6.4
1 3 5 12.47 5.91
1 3 5 22.98 5.51
1 3 5 12.59 8.03
1 3 5 25.76 3.84
1 3 5 26.01 6.81
-2 -3 -5 13.34 6.15
-2 -3 -5 20.02 6.49
-2 -3 -5 13.85 5.21
2 3 5 14.4 5.96
2 3 5 20.51 8.45
2 3 5 4.19 9.89
2 3 5 21.4 6.82
2 3 5 11.14 6.63
-3 -3 -5 16.48 6.09
-3 -3 -5 6.15 3.63
-3 -3 -5 6.29 7.78
3 3 5 20.09 10.54
3 3 5 9.75 5.86
3 3 5 15.61 6.22
3 3 5 7.24 8.31
3 3 5 10.65 5.76
-4 -3 -5 -0.43 7.76
4 3 5 11.07 7.61
4 3 5 0.97 5.92
4 3 5 10.68 5.22
4 3 5 3.49 7.04
4 3 5 -4.76 5.7
-5 -3 -5 -7.3 6.32
5 3 5 -3.74 5.65
5 3 5 10.57 11.1
5 3 5 -6.77 9.51
5 3 5 2.53 5.34
-6 -3 -5 -4.7 9.06
6 3 5 -1.19 5.06
6 3 5 -5.25 10.06
6 3 5 2.18 8.29
7 -4 -5 12.32 10.34
7 -4 -5 -5.2 10.39
7 -4 -5 -3.01 8.84
7 -4 -5 8.16 10.73
7 -4 -5 -7.89 8.68
-7 4 5 -8.51 7.06
6 -4 -5 2.96 7.83
6 -4 -5 12.33 8.88
6 -4 -5 -9.61 9.1
6 -4 -5 25.25 11.82
6 -4 -5 3.33 8.32
6 -4 -5 3.01 8.31
-6 4 5 -5.11 8.4
-6 4 5 2.96 6.72
-6 4 5 32.64 9.82
5 -4 -5 9.43 9.41
5 -4 -5 13.62 8.24
5 -4 -5 0.33 8.28
5 -4 -5 -4.2 9.01
5 -4 -5 7.45 6.74
5 -4 -5 0.98 7.16
-5 4 5 11.12 8.84
-5 4 5 2.87 7.37
-5 4 5 4.83 9.71
4 -4 -5 -2.88 6.85
4 -4 -5 4.42 7.52
4 -4 -5 -10.48 8.29
4 -4 -5 -2.84 6.6
4 -4 -5 5.87 8.15
-4 4 5 -0.1 10.95
-4 4 5 1.49 6.4
-4 4 5 -0.52 7.67
3 -4 -5 41.71 8.99
3 -4 -5 50.9 11.05
3 -4 -5 58.54 10.34
3 -4 -5 55.24 10.11
3 -4 -5 40.51 8.58
-3 4 5 54.08 8.33
-3 4 5 58.22 9.8
-3 4 5 49.27 9.75
-3 4 5 53.07 8.51
-3 4 5 47.93 14.59
2 -4 -5 -6.86 6.95
2 -4 -5 2.35 7.51
2 -4 -5 1.98 7.71
2 -4 -5 -4.2 5.97
2 -4 -5 4.38 5.28
-2 4 5 -1.27 8.3
-2 4 5 -3.2 6.91
-2 4 5 2.32 6.42
-2 4 5 -4.41 5.66
-2 4 5 3.05 6.09
1 -4 -5 22.57 6.91
1 -4 -5 17.33 8.55
1 -4 -5 28.77 4.93
1 -4 -5 27.74 6.71
1 -4 -5 19.91 8.19
-1 4 5 27.06 9.98
-1 4 5 25.16 7.92
-1 4 5 17.41 6.24
-1 4 5 27.07 6.47
-1 4 5 30.14 6.05
0 -4 -5 -2.16 6.68
0 -4 -5 6.14 7.53
0 4 5 15.21 8.02
0 4 5 12.49 11.01
0 4 5 5.62 6.74
0 4 5 9.03 6.01
0 4 5 7.49 5.87
-1 -4 -5 48.85 10.37
-1 -4 -5 41.12 9.59
-1 -4 -5 50.77 8.36
1 4 5 60.66 9.48
1 4 5 56.5 11.31
1 4 5 66.88 9.37
1 4 5 40 10.77
1 4 5 52.16 9.1
-2 -4 -5 2.52 5.34
-2 -4 -5 -12.39 7.47
-2 -4 -5 -6.35 6.96
2 4 5 1.43 8.36
2 4 5 2.18 6.34
2 4 5 10.96 6.26
2 4 5 7.69 10.51
2 4 5 14.31 6.21
-3 -4 -5 0.6 8.21
3 4 5 -0.06 6.72
3 4 5 1.28 10.09
3 4 5 -4.45 6.25
3 4 5 8.8 7.62
3 4 5 -0.25 5.29
-4 -4 -5 5.51 8.91
4 4 5 12.57 6.44
4 4 5 1.03 6.63
4 4 5 13.85 10.23
4 4 5 20.41 11.27
4 4 5 13.11 6.14
-5 -4 -5 21.57 10.2
5 4 5 5.93 5.71
5 4 5 6.47 10.58
5 4 5 1.84 5.76
5 4 5 1.32 10.62
-6 -4 -5 0.86 10.03
6 4 5 -1.29 8.88
6 4 5 -18.47 11.3
6 4 5 16.55 11.82
6 4 5 -4.14 11.46
6 -5 -5 -12.87 9.81
6 -5 -5 11.58 8.56
6 -5 -5 18.3 11.33
6 -5 -5 -5.07 7.87
6 -5 -5 4.32 9.55
6 -5 -5 -7.48 7.94
-6 5 5 -2.42 7.6
-6 5 5 27.9 10.38
-6 5 5 8.05 10.06
5 -5 -5 -9.96 7.38
5 -5 -5 4.76 9.07
5 -5 -5 -4.8 7.51
5 -5 -5 3.89 10.25
5 -5 -5 15.25 9.15
5 -5 -5 6.73 7.88
-5 5 5 0.99 7.5
-5 5 5 6.78 8.54
-5 5 5 0.81 11.23
4 -5 -5 21.65 9.65
4 -5 -5 14.61 7.54
4 -5 -5 8.29 9.37
4 -5 -5 -2.11 8.43
4 -5 -5 -2.99 6.97
-4 5 5 -3.11 13.01
-4 5 5 14.91 8.7
-4 5 5 16.77 7.44
3 -5 -5 11.92 9.12
3 -5 -5 21.65 7.72
3 -5 -5 10.55 7.28
-3 5 5 17.69 8.44
-3 5 5 3.9 13.19
-3 5 5 10.71 6.21
-3 5 5 5.52 6.63
2 -5 -5 -5.75 6.48
2 -5 -5 -10.12 6
2 -5 -5 -5.04 7.55
-2 5 5 -2.33 7.17
-2 5 5 -2.38 7.33
-2 5 5 1.6 5.9
-2 5 5 -3.54 6.68
-2 5 5 -10.9 11.97
1 -5 -5 -14.2 8.1
1 -5 -5 7.19 7.44
1 -5 -5 13.07 8.05
-1 5 5 10.3 9.37
-1 5 5 11.03 6.15
-1 5 5 5.01 6.33
-1 5 5 4.97 5.59
-1 5 5 3.51 8.39
0 -5 -5 -0.69 7.95
0 -5 -5 -2.23 6.93
0 5 5 -6.23 7.64
0 5 5 3.01 8.13
0 5 5 -3.14 6.89
0 5 5 -5.17 5.96
0 5 5 0.41 5.08
-1 -5 -5 31.88 9.44
-1 -5 -5 22.64 8.66
-1 -5 -5 19.63 7.04
1 5 5 22.85 8.16
1 5 5 23.5 9.69
1 5 5 21.5 7.42
1 5 5 21.11 7.39
1 5 5 14.58 9.57
-2 -5 -5 2.16 5.07
-2 -5 -5 -0.34 8.44
2 5 5 -0.48 9.38
2 5 5 5.98 7.44
2 5 5 -0.91 7.06
2 5 5 0.94 8.02
2 5 5 -1.86 5.89
-3 -5 -5 1.3 8.53
3 5 5 8.39 7.49
3 5 5 3.01 8.43
3 5 5 4.33 7.92
3 5 5 0.41 7.21
3 5 5 -0.56 5.49
-4 -5 -5 0.61 8.82
4 5 5 7.84 10.79
4 5 5 -7.16 6.58
4 5 5 1.13 5.33
4 5 5 -7.53 10.68
-5 -5 -5 -2.4 9.77
5 5 5 2.46 10.87
5 5 5 11.63 12.23
5 5 5 1.48 5.83
5 5 5 2.32 5.67
5 -6 -5 13.39 8.36
5 -6 -5 2.29 9.28
5 -6 -5 -3.51 8.13
-5 6 5 -0.2 9.54
-5 6 5 -2.25 7.71
-5 6 5 -1.67 14.1
4 -6 -5 1.64 7.93
4 -6 -5 -11.61 9.15
4 -6 -5 -15.97 8.79
-4 6 5 3.76 9.01
-4 6 5 -11.07 14.08
-4 6 5 22.46 8.59
3 -6 -5 2.63 9.59
3 -6 -5 0.1 8.62
3 -6 -5 6.64 7.74
-3 6 5 -24.78 13.05
-3 6 5 -4.16 6.53
-3 6 5 -10.86 7.6
2 -6 -5 4.55 8.05
2 -6 -5 -3.51 7.72
2 -6 -5 -4.74 9.47
-2 6 5 2.62 7.96
-2 6 5 11.61 8.75
-2 6 5 6.84 8.06
-2 6 5 5.5 6.58
-2 6 5 -12.07 9.16
1 -6 -5 18.76 8.17
1 -6 -5 5.79 8.03
1 -6 -5 5.98 8.99
-1 6 5 11.69 9.34
-1 6 5 -7.38 7.56
-1 6 5 -8.4 12.62
-1 6 5 1.42 8.05
-1 6 5 13.12 7
0 -6 -5 15.69 9.2
0 6 5 17.41 10.58
0 6 5 2.06 12.14
0 6 5 8.85 8.15
0 6 5 6.13 7.11
0 6 5 13.05 8.28
-1 -6 -5 24.32 7.32
-1 -6 -5 21.26 9.83
1 6 5 7.94 9.32
1 6 5 17.99 10.54
1 6 5 29.74 8.33
1 6 5 13.45 7.59
1 6 5 24.47 9.16
-2 -6 -5 15.96 10.9
2 6 5 2.93 11.84
2 6 5 7.78 10.27
2 6 5 -0.81 6.74
2 6 5 10.68 7.17
2 6 5 26.27 8.79
-3 -6 -5 4.14 9.15
3 6 5 3.38 7.51
3 6 5 5.91 10.83
3 6 5 -1.36 8.99
3 6 5 -5.14 7.41
3 6 5 -7.13 6.49
-4 -6 -5 -1.83 10.76
4 6 5 1.6 6.62
4 6 5 -1.8 12.11
4 6 5 11.54 12.04
4 6 5 -1.68 6.86
4 -7 -5 12.14 8.88
4 -7 -5 -12.59 9.2
4 -7 -5 3.23 10.57
-4 7 5 -7.07 7.2
-4 7 5 -12.9 9.04
-4 7 5 -32.4 15.11
3 -7 -5 19.83 11.3
3 -7 -5 9.07 9.24
3 -7 -5 10.77 8.34
-3 7 5 -38.25 14.95
-3 7 5 20.56 9.82
-3 7 5 12.07 7.59
2 -7 -5 3.14 10.64
2 -7 -5 -10.16 7.61
2 -7 -5 -7.13 7.63
-2 7 5 9.94 9.49
-2 7 5 -3.57 8.88
-2 7 5 7.68 9.22
-2 7 5 26.38 8.26
-2 7 5 -16.54 14.65
1 -7 -5 6.75 9.34
1 -7 -5 5.95 7.93
1 -7 -5 -1.06 7.91
-1 7 5 13.04 7.77
-1 7 5 10.27 6.84
-1 7 5 -16.45 13.26
-1 7 5 8.11 8.93
-1 7 5 -3.22 8.75
0 -7 -5 -19.11 9.72
0 7 5 14.06 8.21
0 7 5 2.36 8.86
0 7 5 22.36 10.43
0 7 5 6.32 7.77
0 7 5 6.22 13.71
-1 -7 -5 4.68 9.33
1 7 5 6.12 10.49
1 7 5 18.56 8.58
1 7 5 7.38 9.93
1 7 5 5.89 8.49
1 7 5 -5.97 8.38
-2 -7 -5 6.93 9.42
2 7 5 11.25 7.56
2 7 5 7.26 8.34
2 7 5 -0.51 12.66
2 7 5 15.82 11.93
2 7 5 -13.45 8.28
-3 -7 -5 -0.23 9.32
3 7 5 4.08 11.87
3 7 5 -2.8 7.99
3 7 5 -4.35 6.59
1 -8 -5 -3.92 7.69
-1 8 5 -25.88 14.84
-1 8 5 -6.7 6.12
-1 8 5 -6.23 7.68
-1 8 5 5.34 9.27
0 8 5 7.11 8.57
0 8 5 -4.27 8.19
1 11 -6 1.81 8.84
0 11 -6 30.49 11.14
0 11 -6 -3.24 7.93
0 -11 6 -3.76 7.09
-1 11 -6 13.92 8.83
1 -11 6 4.22 8.22
3 10 -6 2.09 8.12
3 10 -6 -7.31 11.8
3 10 -6 0.36 6.45
3 10 -6 11.79 7.96
-3 -10 6 2.26 8.57
2 10 -6 3.12 7.12
2 10 -6 1.93 8.8
2 10 -6 -11.64 12.76
2 10 -6 2.63 7.3
-2 -10 6 8.91 8.74
1 10 -6 5.49 8.7
1 10 -6 16.42 11.94
1 10 -6 22.46 10.76
1 10 -6 10.25 7.5
1 10 -6 4.49 8.4
-1 -10 6 7.95 8.7
-1 -10 6 1.96 6.39
0 10 -6 16.7 10.07
0 10 -6 13.96 7.57
0 10 -6 2.62 11.33
0 10 -6 15.64 8.57
0 10 -6 19.41 9.6
0 -10 6 -0.69 8.17
0 -10 6 9.45 6.37
-1 10 -6 -1.86 6.27
-1 10 -6 15.47 11.91
-1 10 -6 0.87 6.86
-1 10 -6 17.9 8.82
-1 10 -6 0.3 7.88
1 -10 6 5.31 8.76
1 -10 6 -0.83 7.17
1 -10 6 -7.2 8.46
1 -10 6 -1.07 6.23
-2 10 -6 11.33 7.11
-2 10 -6 10.8 11.68
-2 10 -6 7.62 8.73
2 -10 6 8.06 8.81
2 -10 6 -9.13 8.45
2 -10 6 -9.75 8.29
2 -10 6 5.08 6.99
-3 10 -6 -10.44 6.34
-3 10 -6 5.04 6.95
3 -10 6 -9.32 8.38
3 -10 6 1.21 6.6
3 -10 6 1.68 8.87
3 -10 6 9.64 9.34
4 9 -6 -6.03 7.26
4 9 -6 -13.57 12.49
-4 -9 6 0.56 8.81
3 9 -6 -8.35 5.69
3 9 -6 -14.2 13.39
3 9 -6 7.95 6.82
3 9 -6 11.95 8.01
-3 -9 6 13.88 7
2 9 -6 2.98 7.43
2 9 -6 -2.44 5.95
2 9 -6 5.78 7.56
2 9 -6 -21.09 10.29
-2 -9 6 11.4 6.69
1 9 -6 15.34 7.85
1 9 -6 25.18 11.92
1 9 -6 2.63 6.69
-1 -9 6 7.58 5.73
-1 -9 6 3.69 6.06
0 9 -6 -0.42 10.67
0 9 -6 -8.86 7.56
0 9 -6 -1.03 6.26
0 -9 6 1.77 7.38
0 -9 6 -7.21 7.19
0 -9 6 -0.93 5.51
0 -9 6 0.42 7.23
-1 9 -6 3.66 6.37
-1 9 -6 5.19 10.86
-1 9 -6 6.01 7.91
-1 9 -6 8.9 8.19
1 -9 6 -11.49 7.47
1 -9 6 -1.88 7.95
1 -9 6 -5.08 7.45
1 -9 6 7.56 6.76
-2 9 -6 -0.05 7.74
-2 9 -6 0.04 10.4
-2 9 -6 16.33 8.83
-2 9 -6 -4.29 6.07
-2 9 -6 -5.52 7.98
2 -9 6 9.6 8.67
2 -9 6 3.44 5.99
2 -9 6 -13.54 6.65
-3 9 -6 12.58 8.8
-3 9 -6 18.86 7.17
3 -9 6 11 9.18
3 -9 6 -4.09 6.16
3 -9 6 9.18 8.99
-4 9 -6 3.1 8.3
-4 9 -6 -3.56 6.8
4 -9 6 6.06 9.81
4 -9 6 -8.34 6.62
4 -9 6 -0.39 6.25
5 8 -6 -27.05 12.75
5 8 -6 -3.06 6.5
5 8 -6 -1.94 5.61
-5 -8 6 -4.39 8.51
4 8 -6 20.34 13.46
4 8 -6 -2.87 5.99
4 8 -6 7.57 6.81
-4 -8 6 -1.04 7.72
3 8 -6 12.07 6.3
3 8 -6 -6.61 11.3
3 8 -6 4.39 6.93
-3 -8 6 5.42 7.93
2 8 -6 3.9 10.88
2 8 -6 11.74 7.41
2 8 -6 -7.44 5.55
-2 -8 6 4.87 4.88
-2 -8 6 -3.34 5.63
1 8 -6 7.14 6.33
1 8 -6 -5.14 9.9
1 8 -6 7.05 6.86
-1 -8 6 -0.89 5.09
-1 -8 6 13.02 6.96
-1 -8 6 -10.85 6.78
0 8 -6 43.79 8.88
0 8 -6 15.09 10.8
0 8 -6 27.75 7.32
0 -8 6 25.57 8.12
0 -8 6 11.18 7.83
0 -8 6 30.42 7.98
0 -8 6 17.95 6.07
-1 8 -6 -2.41 6.01
-1 8 -6 -2.94 9.46
1 -8 6 9.04 5.64
1 -8 6 7.56 7.61
1 -8 6 5.49 6.61
-2 8 -6 -4.01 7.2
-2 8 -6 -4.63 9.34
-2 8 -6 2.62 5.96
2 -8 6 6.88 7.73
2 -8 6 -2.52 5.68
2 -8 6 1.82 7.26
-3 8 -6 11.79 6.35
-3 8 -6 4.67 6.37
3 -8 6 -10.22 6.76
3 -8 6 4.9 6.19
3 -8 6 -0.69 8.18
3 -8 6 1.09 5.96
-4 8 -6 9.68 8.15
-4 8 -6 7.99 6.95
4 -8 6 -7.58 8.18
4 -8 6 14.81 9.24
4 -8 6 -8.88 5.78
4 -8 6 -0.99 8.68
-5 8 -6 -0.89 7.26
-5 8 -6 -1.59 8.07
5 -8 6 -0.96 9.65
5 -8 6 1.91 6.81
5 -8 6 -4.19 8.72
5 -8 6 11.85 9.09
6 7 -6 2.59 5.58
6 7 -6 15.97 16.59
-6 -7 6 7.87 8.71
5 7 -6 1.39 5.32
5 7 -6 2.36 5.52
5 7 -6 -2.16 12.87
-5 -7 6 -0.02 7.52
4 7 -6 5.01 9.18
4 7 -6 6.72 6.08
4 7 -6 13.17 6.78
4 7 -6 14.64 6.24
-4 -7 6 6.25 7.63
3 7 -6 6.27 11.1
3 7 -6 -1.59 5.73
3 7 -6 2.48 5.56
3 7 -6 -3.22 6.22
-3 -7 6 -1.89 7.11
-3 -7 6 8.08 5.93
2 7 -6 -3.43 5.73
2 7 -6 8.26 6.69
2 7 -6 3.77 10.39
2 7 -6 15.08 6.51
-2 -7 6 6.94 7.03
-2 -7 6 4.9 4.43
-2 -7 6 15.22 6.3
1 7 -6 1.82 9.49
1 7 -6 13.01 6.73
1 7 -6 4.48 5.77
1 7 -6 6.39 6.07
-1 -7 6 -0.68 6.45
-1 -7 6 11.81 5.65
-1 -7 6 1.26 5.05
0 7 -6 1.45 4.94
0 7 -6 -3.59 5.49
0 7 -6 0.57 5.64
0 7 -6 -4.29 8.85
0 -7 6 -11.97 5.84
0 -7 6 -1.98 5.55
0 -7 6 2.35 5.58
-1 7 -6 5.03 8.94
-1 7 -6 2.08 6.93
-1 7 -6 -3.38 5.63
-1 7 -6 2.9 5.55
1 -7 6 12.01 6.73
1 -7 6 3.07 6.56
1 -7 6 2.91 5.61
1 -7 6 -0.14 7.09
1 -7 6 1.59 5.34
-2 7 -6 -0.34 7.15
-2 7 -6 -1.11 8.92
-2 7 -6 4.25 5.46
2 -7 6 10.18 7.79
2 -7 6 0.13 6.34
2 -7 6 9 6
2 -7 6 5.32 7.05
2 -7 6 -1.84 5.1
-3 7 -6 20.3 6.68
-3 7 -6 15.86 9.71
3 -7 6 13.92 7.83
3 -7 6 24.77 8.14
3 -7 6 12.92 6.79
3 -7 6 14.72 6.39
3 -7 6 22.85 9.07
-4 7 -6 9.64 6.45
-4 7 -6 -5.82 7.75
4 -7 6 15.29 8.71
4 -7 6 -2.39 8.54
4 -7 6 16.31 8.96
4 -7 6 -7.02 6.2
4 -7 6 2.92 7
-5 7 -6 5.64 7.95
-5 7 -6 11.58 7.97
5 -7 6 20.28 9.73
5 -7 6 2.72 7.42
5 -7 6 15.76 8.67
5 -7 6 0.64 6.14
5 -7 6 33.34 9.45
5 -7 6 10.61 10.11
-6 7 -6 -5.56 6.6
6 -7 6 18.3 9.42
6 -7 6 5.82 8.98
6 -7 6 9.41 11.57
6 -7 6 10.25 10.51
6 -7 6 -5.3 8.1
6 -7 6 8.74 8.25
7 6 -6 -16.02 13.93
-7 -6 6 -6.34 12.85
6 6 -6 0.08 5.24
6 6 -6 1.64 4.88
6 6 -6 5.36 13.69
-6 -6 6 3.47 8.6
5 6 -6 -1.7 5.4
5 6 -6 11.67 12.27
5 6 -6 3.62 5.24
-5 -6 6 2.6 7.21
4 6 -6 46.07 7.54
4 6 -6 12.05 6.17
4 6 -6 21.22 6.16
4 6 -6 14.42 11.75
4 6 -6 8.08 6.23
-4 -6 6 18.75 7.78
3 6 -6 6.97 5.42
3 6 -6 5.63 6.2
3 6 -6 -4.39 4.4
3 6 -6 3.84 6
3 6 -6 1.92 10.56
-3 -6 6 5.68 6.83
-3 -6 6 0.4 3.6
-3 -6 6 4.42 5.27
2 6 -6 20.04 6.23
2 6 -6 9.65 6.17
2 6 -6 17.55 4.39
2 6 -6 13.91 9.92
2 6 -6 13.1 6.03
-2 -6 6 9.4 4.77
-2 -6 6 8.58 6.96
-2 -6 6 14.37 6.24
1 6 -6 7.82 5.75
1 6 -6 -1.85 5.35
1 6 -6 12.31 6.26
1 6 -6 6.88 9.13
-1 -6 6 5.19 4.31
-1 -6 6 10.44 4.82
-1 -6 6 12.56 5.26
-1 -6 6 11.93 6.1
0 6 -6 112.69 9.2
0 6 -6 106.91 11.09
0 6 -6 73.84 10.6
0 6 -6 96.88 13.83
0 6 -6 83.52 11.21
0 -6 6 86.69 9.39
0 -6 6 79.31 12.29
0 -6 6 90.78 10.6
0 -6 6 77.38 10.58
0 -6 6 74.67 9.88
0 -6 6 92.83 11.13
-1 6 -6 35.78 7.38
-1 6 -6 54.79 6.5
-1 6 -6 30.23 7.91
-1 6 -6 55.23 8.17
-1 6 -6 40.14 9.32
1 -6 6 45.57 7.7
1 -6 6 56.79 7.84
1 -6 6 45.98 9.6
1 -6 6 36.84 8.37
1 -6 6 40.36 8.11
-2 6 -6 26.97 5.19
-2 6 -6 35.49 9.63
-2 6 -6 24.08 7.36
-2 6 -6 5.33 5.59
-2 6 -6 22.31 7.31
2 -6 6 21.75 7.27
2 -6 6 12.63 7.89
2 -6 6 24 7.42
2 -6 6 33.09 6.86
2 -6 6 0.82 5.86
-3 6 -6 76.13 10.63
-3 6 -6 14.81 13.36
-3 6 -6 52.25 11.35
-3 6 -6 40.09 8.37
-3 6 -6 59.54 8.53
3 -6 6 58.75 10.62
3 -6 6 48.62 9.47
3 -6 6 56.03 9.14
3 -6 6 72.89 9.93
3 -6 6 72.9 10.75
-4 6 -6 37.62 7.33
-4 6 -6 9.27 6.48
4 -6 6 14.75 8.63
4 -6 6 14.77 7.08
4 -6 6 20.16 8.24
4 -6 6 11.92 7.8
4 -6 6 26.38 9.83
-5 6 -6 35.41 9.32
-5 6 -6 20.46 8.17
-5 6 -6 26.5 8.35
5 -6 6 53.08 11.38
5 -6 6 23.66 8.48
5 -6 6 19.02 11.02
5 -6 6 27.26 8.63
5 -6 6 25.02 8.2
-6 6 -6 -1.16 7.2
-6 6 -6 7.25 7.66
6 -6 6 11.65 9.16
6 -6 6 -4.34 7.48
6 -6 6 0.19 7.86
6 -6 6 -4.51 11.08
6 -6 6 -16.97 7.92
7 5 -6 -6.79 13.4
7 5 -6 9.63 8.15
7 5 -6 -0.46 5.14
6 5 -6 -1.69 5.17
6 5 -6 19.87 8.39
6 5 -6 16.84 5.91
6 5 -6 -6.25 12.13
-6 -5 6 6.25 6.88
5 5 -6 -1.74 10.63
5 5 -6 20.98 6.8
5 5 -6 15.96 6.87
5 5 -6 30.2 6.61
5 5 -6 5.51 5.21
-5 -5 6 31.35 8.49
4 5 -6 30.17 7.28
4 5 -6 35.99 7.25
4 5 -6 19.5 6.23
4 5 -6 32.91 7.78
4 5 -6 25.17 11.12
-4 -5 6 37.48 7.88
3 5 -6 1.91 5.44
3 5 -6 7.58 6.36
3 5 -6 -3.51 9.58
3 5 -6 4.53 5.29
3 5 -6 -1.03 5.04
-3 -5 6 4.46 4.01
-3 -5 6 6.54 5.92
-3 -5 6 14.28 6.62
2 5 -6 41.01 10.73
2 5 -6 47.6 7.33
2 5 -6 37.95 6.29
2 5 -6 30.68 6.91
2 5 -6 30.22 6.99
2 5 -6 36.58 7.06
-2 -5 6 53.37 8.27
-2 -5 6 42.62 7.56
-2 -5 6 39.43 6.18
-2 -5 6 53.05 7.27
1 5 -6 0.71 8.22
1 5 -6 11.28 5.7
1 5 -6 2.63 5.23
1 5 -6 4.63 4.24
1 5 -6 9.18 5.55
-1 -5 6 2.59 4.86
-1 -5 6 2.11 4.64
-1 -5 6 13.06 6.56
-1 -5 6 2.73 4.79
-1 -5 6 12.37 6.22
-1 -5 6 4.86 3.39
0 5 -6 109.65 14.46
0 5 -6 107.75 10.49
0 5 -6 106.19 11.94
0 5 -6 111.83 12.56
0 5 -6 110.58 10.95
0 5 -6 87.13 11.93
0 5 -6 116.11 11.94
0 -5 6 111.19 13.45
0 -5 6 106.75 10.89
0 -5 6 138.54 13.08
0 -5 6 123.45 11.66
0 -5 6 114.62 11.44
-1 5 -6 23.35 6.81
-1 5 -6 21.42 6.98
-1 5 -6 27.11 6.3
-1 5 -6 28.38 5.81
-1 5 -6 31.15 7.88
1 -5 6 31.29 7.02
1 -5 6 16.49 7.33
1 -5 6 28.44 5.81
1 -5 6 24.57 6.82
1 -5 6 25.67 5.94
-2 5 -6 38.85 7.58
-2 5 -6 59.89 9.04
-2 5 -6 49.76 8.02
-2 5 -6 50.55 7.14
-2 5 -6 50.71 10.45
2 -5 6 39.49 9.53
2 -5 6 52.51 8.52
2 -5 6 49.83 8.68
2 -5 6 46.66 8.47
2 -5 6 47.48 7.88
-3 5 -6 18.5 7.55
-3 5 -6 18.65 6.1
-3 5 -6 28.49 6.3
-3 5 -6 8.09 5.71
-3 5 -6 18.24 7.26
3 -5 6 22.62 6.58
3 -5 6 24.76 7.22
3 -5 6 30.28 7.31
3 -5 6 16.23 6.75
3 -5 6 15.14 7.36
-4 5 -6 60.88 9.04
-4 5 -6 38.19 9.61
-4 5 -6 41.22 8.64
4 -5 6 63.66 11.73
4 -5 6 45.79 10.75
4 -5 6 35.26 8.94
4 -5 6 73.1 9.58
4 -5 6 63.44 10
-5 5 -6 3.38 6.67
-5 5 -6 -7.44 7.71
5 -5 6 4.21 8.49
5 -5 6 15.24 7.56
5 -5 6 2.95 6.45
5 -5 6 -0.36 7.58
5 -5 6 11.64 9.63
-6 5 -6 21.14 8.89
-6 5 -6 9.58 6.67
6 -5 6 6.27 7.04
6 -5 6 17.49 11.01
6 -5 6 19.78 9.49
6 -5 6 5.28 7.14
6 -5 6 8.81 8.54
7 4 -6 6.21 5.09
7 4 -6 8.7 12.68
7 4 -6 -4.15 5.44
7 4 -6 4.15 9.5
6 4 -6 9.79 5.71
6 4 -6 11.73 7.68
6 4 -6 4.34 11.19
6 4 -6 6.66 5.71
-6 -4 6 10.93 6.5
5 4 -6 -4.08 6.48
5 4 -6 -2.69 5.59
5 4 -6 12.07 10.27
5 4 -6 -5.75 4.75
5 4 -6 -1.73 6.35
-5 -4 6 3.68 6.51
4 4 -6 -6.54 5.55
4 4 -6 14.74 10.07
4 4 -6 -1.36 4.72
4 4 -6 10.99 6.5
4 4 -6 3.8 6.18
-4 -4 6 -1.42 2.96
-4 -4 6 -4.55 6.07
-4 -4 6 10.3 5.64
3 4 -6 3.92 5.38
3 4 -6 4.22 5.94
3 4 -6 8.1 9.21
3 4 -6 5.37 5.16
3 4 -6 1.3 4.41
3 4 -6 12.41 6.53
3 4 -6 0.22 5.18
-3 -4 6 1.57 4.14
-3 -4 6 1.91 3.87
-3 -4 6 6.43 5.62
-3 -4 6 -2.37 3.52
-3 -4 6 3.53 5.58
2 4 -6 17.04 5.78
2 4 -6 3.34 5.31
2 4 -6 16.53 5.36
2 4 -6 17.72 9.07
2 4 -6 14.42 5.82
2 4 -6 16 5.83
-2 -4 6 21.29 6.63
-2 -4 6 19.92 6.16
-2 -4 6 12.68 4.42
1 4 -6 60.2 10.45
1 4 -6 52.1 7.64
1 4 -6 45.25 6.75
1 4 -6 45.29 7.56
1 4 -6 50.52 8.02
1 4 -6 63.17 7.6
-1 -4 6 40.83 7.67
-1 -4 6 59.79 5.7
-1 -4 6 59.29 8.39
-1 -4 6 39.4 6.81
-1 -4 6 62.93 8.11
0 4 -6 13.35 4.67
0 4 -6 10.78 7.93
0 4 -6 6.15 5.56
0 4 -6 -0.55 4.68
0 4 -6 13.47 4.27
0 -4 6 9.35 5.89
0 -4 6 3.73 4.8
0 -4 6 2.28 5.54
0 -4 6 16.46 5.86
0 -4 6 12.28 4.05
-1 4 -6 107.9 10.91
-1 4 -6 108.07 13.62
-1 4 -6 101.22 10.91
-1 4 -6 75.18 10.12
-1 4 -6 95.3 11.22
1 -4 6 100.07 11.56
1 -4 6 84.31 9.69
1 -4 6 86.72 9.98
1 -4 6 89.83 12
1 -4 6 86.96 10.98
-2 4 -6 12.31 7.77
-2 4 -6 20.49 6.9
-2 4 -6 20.01 6.49
-2 4 -6 10.59 5.61
-2 4 -6 5.88 5.12
2 -4 6 14.42 5.81
2 -4 6 9.76 5.62
2 -4 6 18.17 6
2 -4 6 6.71 6.1
2 -4 6 10.94 5.8
2 -4 6 7.26 6.84
-3 4 -6 44.15 8.98
-3 4 -6 53.85 9.79
-3 4 -6 55.85 8.37
-3 4 -6 65.02 9.96
-3 4 -6 70.16 9.59
3 -4 6 75.07 9.65
3 -4 6 48.83 9.58
3 -4 6 70.4 10.69
3 -4 6 50.8 8.64
3 -4 6 72.51 9.43
-4 4 -6 7.57 6.85
-4 4 -6 6.93 5.66
-4 4 -6 11.95 7
4 -4 6 9.96 6.32
4 -4 6 9.63 8.19
4 -4 6 8.64 8.59
4 -4 6 3.99 4.63
4 -4 6 13.38 6.72
-5 4 -6 10.41 6.18
-5 4 -6 13.93 7.82
5 -4 6 10.65 6.94
5 -4 6 14.18 7.24
5 -4 6 9.67 6.88
5 -4 6 10.64 7.03
5 -4 6 23.56 9.87
-6 4 -6 -1.81 8.36
6 -4 6 8.28 10.23
6 -4 6 -8.98 6.36
6 -4 6 -6.31 7.28
6 -4 6 6.28 7.74
6 -4 6 4.77 7.4
-7 4 -6 4.73 9.29
7 -4 6 19.83 10.19
7 -4 6 8.72 7.82
7 -4 6 5.48 8.77
7 -4 6 1.75 7.09
7 -4 6 -5.76 6.94
7 3 -6 5.48 5.86
7 3 -6 4.32 5.47
7 3 -6 -0.46 8.52
7 3 -6 -1.19 8.63
6 3 -6 7.27 6.18
6 3 -6 -1.24 10.12
6 3 -6 -5.67 5.5
6 3 -6 11.56 8.12
5 3 -6 -13.43 5.41
5 3 -6 -0.37 9.49
5 3 -6 3.72 5.25
5 3 -6 -5.88 6.85
-5 -3 6 2.58 5.45
4 3 -6 22.3 6.07
4 3 -6 18.58 6.03
4 3 -6 30.49 7.8
4 3 -6 26.13 10.22
4 3 -6 30.4 7.38
-4 -3 6 23.8 6.31
-4 -3 6 37.77 6.89
-4 -3 6 20.49 4.52
3 3 -6 3.08 5.46
3 3 -6 16.14 9.17
3 3 -6 -0.59 5.47
3 3 -6 5.82 5.38
3 3 -6 5.28 6.2
3 3 -6 2.69 5.13
-3 -3 6 -3.11 5.31
-3 -3 6 1.55 4.72
-3 -3 6 -4.15 4.08
-3 -3 6 5.5 4.4
2 3 -6 6.59 5.52
2 3 -6 3.07 4.03
2 3 -6 2.18 8.1
2 3 -6 5.65 5.45
2 3 -6 15.94 6.04
2 3 -6 8.5 5.16
-2 -3 6 15.59 5.06
-2 -3 6 16.56 5.75
-2 -3 6 8.47 4.97
-2 -3 6 4.71 5.17
1 3 -6 0.86 4.92
1 3 -6 6.09 4.82
1 3 -6 5.53 5.17
1 3 -6 4.66 4.25
1 3 -6 -2.7 3.46
1 3 -6 11.22 7.63
-1 -3 6 -1 4.33
-1 -3 6 5.06 3.78
-1 -3 6 1.73 5.29
-1 -3 6 -0.9 2.2
-1 -3 6 -0.31 5.49
0 3 -6 104.13 11.9
0 3 -6 98.82 11.23
0 3 -6 103.14 10.78
0 3 -6 90.59 10.79
0 3 -6 99.24 10.73
0 -3 6 101.85 11.17
0 -3 6 79.93 9.31
0 -3 6 103.57 10.49
0 -3 6 116.15 11.38
0 -3 6 80.16 11.46
-1 3 -6 8.31 4.38
-1 3 -6 1.53 7.01
-1 3 -6 -3.89 5.5
-1 3 -6 0.74 4.52
-1 3 -6 7.59 5.82
1 -3 6 -0.22 3.44
1 -3 6 5.55 6.44
1 -3 6 10.96 5.29
1 -3 6 3.31 4
1 -3 6 2.07 5.15
1 -3 6 16.06 5.68
-2 3 -6 3.18 6.75
-2 3 -6 6.46 7.04
-2 3 -6 7.71 5.08
-2 3 -6 17.92 6.47
-2 3 -6 2.51 5.5
2 -3 6 13.24 5.9
2 -3 6 10.11 5.52
2 -3 6 6.76 5.78
2 -3 6 16.14 5.55
2 -3 6 12.96 5.74
2 -3 6 4.72 5.56
-3 3 -6 13.17 6.71
-3 3 -6 6.94 7.86
-3 3 -6 23.16 6.42
-3 3 -6 15.45 7.38
-3 3 -6 22.16 7.04
-3 3 -6 2.2 4.86
3 -3 6 3.81 5.82
3 -3 6 1.8 8.04
3 -3 6 10.63 7.31
3 -3 6 16.1 6.22
3 -3 6 14.91 6.13
-4 3 -6 45.37 8.39
-4 3 -6 32.77 6.62
-4 3 -6 30.31 7.18
4 -3 6 40.12 10.05
4 -3 6 47.49 10.91
4 -3 6 39.82 7.74
4 -3 6 30.35 8.22
4 -3 6 43.43 8.12
-5 3 -6 -1.4 7.46
-5 3 -6 -1.4 5.26
-5 3 -6 5.07 8.81
5 -3 6 3.96 6.95
5 -3 6 5.34 9.54
5 -3 6 -6.72 8.78
5 -3 6 0.15 6.89
5 -3 6 3.48 6.13
-6 3 -6 -2.34 8.74
6 -3 6 -6.3 10.09
6 -3 6 8.4 6.46
6 -3 6 9.92 10.02
6 -3 6 8.74 7.21
6 -3 6 1.41 6.19
-7 3 -6 3.01 9.8
7 -3 6 -17.11 6.24
7 -3 6 7.59 7.77
7 -3 6 -20.28 9.8
7 -3 6 -8.12 6.11
7 -3 6 0.9 10.02
8 2 -6 -4.6 5.65
8 2 -6 2.47 9.97
7 2 -6 -3.94 10.92
7 2 -6 -7.82 8.67
7 2 -6 7.73 6.11
7 2 -6 6.48 5.96
6 2 -6 3.49 5.74
6 2 -6 5.69 10.75
6 2 -6 -1.9 6.12
6 2 -6 -1.68 6.91
6 2 -6 -5.78 7.65
5 2 -6 10.07 6.48
5 2 -6 -6.77 7.05
5 2 -6 -1.91 8.94
5 2 -6 -8.09 6.57
5 2 -6 0.48 6.54
-5 -2 6 0.79 6.04
-5 -2 6 3.02 3.65
-5 -2 6 3.95 4.57
4 2 -6 7.18 6.03
4 2 -6 4.68 5.71
4 2 -6 8.93 7.16
4 2 -6 12.65 7.59
-4 -2 6 13.98 4.75
-4 -2 6 8.58 4.49
-4 -2 6 11.33 6.42
3 2 -6 11.25 5.67
3 2 -6 11.09 7.09
3 2 -6 17.04 5.79
3 2 -6 11.97 6.71
3 2 -6 7.15 6.01
3 2 -6 11.51 4.65
-3 -2 6 17.33 6.12
-3 -2 6 4.28 2.9
-3 -2 6 15.6 4.41
-3 -2 6 14.63 5.22
-3 -2 6 8.02 4.78
2 2 -6 4.75 6.11
2 2 -6 2.2 5.43
2 2 -6 -1.12 5.52
2 2 -6 3.38 4.08
2 2 -6 7.52 5.52
2 2 -6 15.07 8.19
-2 -2 6 6.91 2.4
-2 -2 6 12.41 5.8
-2 -2 6 7 2
-2 -2 6 9.9 4.71
-2 -2 6 11.47 5.49
-2 -2 6 6.97 4.87
1 2 -6 23.35 5.31
1 2 -6 24.38 6.23
1 2 -6 32.61 6.42
1 2 -6 29.29 8.41
1 2 -6 25.66 6.88
1 2 -6 46.04 7.15
-1 -2 6 26.48 5.86
-1 -2 6 30.95 6.65
-1 -2 6 22.65 6.48
-1 -2 6 37.74 6.68
-1 -2 6 30.03 4.63
0 2 -6 -0.08 6.41
0 2 -6 9.96 4.15
0 2 -6 -1.88 3.93
0 2 -6 3.91 5.53
0 2 -6 -5.95 4.43
0 2 -6 5.34 5.63
0 -2 6 1.92 5.92
0 -2 6 5.83 4.9
0 -2 6 3 6.73
0 -2 6 0.56 5.14
0 -2 6 4.66 4.11
0 -2 6 12.39 4.54
0 -2 6 2.5 3.38
-1 2 -6 40.3 7.49
-1 2 -6 32.97 6.74
-1 2 -6 57.81 9.49
-1 2 -6 58.29 7.74
-1 2 -6 26.26 7.24
1 -2 6 44.51 7.04
1 -2 6 43.62 7.41
1 -2 6 52.54 7.64
1 -2 6 47.43 7.44
1 -2 6 44.73 8.88
1 -2 6 36.79 7.54
1 -2 6 45.24 6.86
-2 2 -6 1.16 5.41
-2 2 -6 1.65 6.65
-2 2 -6 6.33 4.05
-2 2 -6 13.7 6.67
-2 2 -6 2.18 5.26
2 -2 6 2.98 3.73
2 -2 6 -1.83 5.65
2 -2 6 1.01 5.05
2 -2 6 1.83 5.23
2 -2 6 0.08 5.53
2 -2 6 12.17 7.65
2 -2 6 2.63 5.16
-3 2 -6 15.26 5.19
-3 2 -6 3.76 3.01
-3 2 -6 13.18 6.97
-3 2 -6 18.25 6.44
3 -2 6 26.28 8.06
3 -2 6 20.87 7
3 -2 6 19.31 6.04
3 -2 6 13.66 6.23
3 -2 6 15.82 5.99
3 -2 6 10.84 8.61
-4 2 -6 8.78 5.46
-4 2 -6 15.73 7.68
-4 2 -6 6.82 6.27
4 -2 6 12.77 6.56
4 -2 6 -1.05 5.65
4 -2 6 6.3 8
4 -2 6 16.22 6.41
4 -2 6 3.16 5.5
4 -2 6 15.65 9.77
-5 2 -6 17.54 8.24
-5 2 -6 18.98 5.34
5 -2 6 9.4 7.25
5 -2 6 11.74 6.01
5 -2 6 14.06 10.96
5 -2 6 25.56 7.46
5 -2 6 9.35 7.08
-6 2 -6 0.73 8.98
6 -2 6 9.59 6.69
6 -2 6 3.28 6.54
6 -2 6 17.2 7.51
6 -2 6 6.62 9.93
6 -2 6 -19.79 10.68
-7 2 -6 1.84 9.87
7 -2 6 3.48 6.85
7 -2 6 0.37 6.92
7 -2 6 1.18 10.75
7 -2 6 -9.6 12.03
8 1 -6 13.02 6.91
8 1 -6 -7.18 10.04
7 1 -6 -7.98 8.93
7 1 -6 14.01 7.61
7 1 -6 -2.06 7.14
7 1 -6 -3.87 8.01
7 1 -6 18.76 11.82
6 1 -6 9.39 10.23
6 1 -6 7.11 7.44
6 1 -6 2.66 6.92
6 1 -6 14.42 9.08
6 1 -6 7.74 6.15
5 1 -6 0.55 6.12
5 1 -6 7.04 6.38
5 1 -6 -6.15 5.89
5 1 -6 10.82 7.48
5 1 -6 -2.92 8.91
-5 -1 6 6.44 6.24
-5 -1 6 -1.85 4.21
4 1 -6 49.86 9
4 1 -6 35.14 10.11
4 1 -6 28.82 9.14
4 1 -6 21.81 7.33
4 1 -6 26.8 7.42
-4 -1 6 51.21 5.72
-4 -1 6 32.73 6.2
-4 -1 6 48.23 8.07
3 1 -6 5.89 7.21
3 1 -6 3.73 5.91
3 1 -6 5.11 7.9
3 1 -6 -0.16 4.39
3 1 -6 11.75 6.36
3 1 -6 -3.23 4.04
-3 -1 6 2.47 3.15
-3 -1 6 1.45 4
-3 -1 6 1.87 4.89
-3 -1 6 3 5.09
-3 -1 6 5.18 4.77
2 1 -6 -2.43 6.36
2 1 -6 -5.48 3.8
2 1 -6 -1.16 5.32
2 1 -6 -3.61 4.98
2 1 -6 -3.93 6.79
2 1 -6 -2.23 5.59
-2 -1 6 -4.94 3.4
-2 -1 6 -5.67 4.86
-2 -1 6 9.97 5.92
-2 -1 6 -4.21 4.33
-2 -1 6 6.5 5.74
-2 -1 6 -1.89 3.65
1 1 -6 3.4 5.38
1 1 -6 2.87 4.22
1 1 -6 -0.53 6.22
1 1 -6 -0.55 5.92
1 1 -6 -1.31 5.5
1 1 -6 -0.39 5.37
-1 -1 6 -4.93 4.93
-1 -1 6 3.48 4.73
-1 -1 6 4.79 5.12
-1 -1 6 1.03 7.12
-1 -1 6 7.8 4.4
0 1 -6 67.05 10.28
0 1 -6 69.54 9.77
0 1 -6 53.41 8.41
0 1 -6 57.53 8.99
0 1 -6 78.52 9.3
0 -1 6 66.23 9.14
0 -1 6 75.97 9.21
0 -1 6 57.45 9.75
0 -1 6 74.89 10.1
0 -1 6 70.19 7.95
0 -1 6 66.28 8.62
-1 1 -6 -1 5.03
-1 1 -6 -4.43 4.6
-1 1 -6 1.86 4.73
-1 1 -6 4 5.74
-1 1 -6 -1.43 5.75
1 -1 6 3.53 5.28
1 -1 6 3.09 6.74
1 -1 6 0.03 3.3
1 -1 6 5.95 5.27
1 -1 6 3.81 6.96
1 -1 6 -2.4 5.29
-2 1 -6 33.55 7.31
-2 1 -6 32.64 6.83
-2 1 -6 37.43 6.68
-2 1 -6 37.77 7.21
-2 1 -6 38.44 8.25
2 -1 6 29.46 6.71
2 -1 6 29.95 8.88
2 -1 6 29.34 9.1
2 -1 6 51.6 7.54
2 -1 6 49.17 7.83
2 -1 6 57.22 8.87
2 -1 6 44.64 7.42
-3 1 -6 4.41 6.01
-3 1 -6 4.85 9.59
-3 1 -6 3.66 6.86
-3 1 -6 -1.46 4.91
3 -1 6 0.51 7.25
3 -1 6 2.53 6.28
3 -1 6 -2.5 5.33
3 -1 6 1.71 8.08
3 -1 6 2 5.55
3 -1 6 -1.18 5.09
-4 1 -6 78.16 9.63
-4 1 -6 57.71 8.02
-4 1 -6 58.53 10.48
4 -1 6 75.27 11.72
4 -1 6 74.51 11.9
4 -1 6 76.39 10.1
4 -1 6 56.74 8.66
4 -1 6 61.93 9.36
4 -1 6 70.04 11.88
-5 1 -6 -1.9 7.93
5 -1 6 7.25 9.31
5 -1 6 13.01 7.06
5 -1 6 11.73 6.42
5 -1 6 19.38 6.27
5 -1 6 7.44 10.99
-6 1 -6 6.02 9.14
6 -1 6 8.38 6.65
6 -1 6 16.13 6.82
6 -1 6 2 9.94
6 -1 6 7.57 12.28
6 -1 6 -2.17 5.11
-7 1 -6 15.49 10.5
7 -1 6 16.59 6.41
7 -1 6 8.8 8.6
7 -1 6 4.87 6.32
7 -1 6 -19.55 12.77
7 0 -6 7.99 7.27
7 0 -6 9.7 9.97
7 0 -6 7.88 8.68
7 0 -6 10.84 8.25
7 0 -6 16.58 11.63
6 0 -6 6.54 9.39
6 0 -6 -3.82 6.33
6 0 -6 -7.44 6.57
6 0 -6 -0.67 7.07
6 0 -6 -1.38 7.36
-6 0 6 -3.99 4.38
5 0 -6 -3.26 7.43
5 0 -6 1.63 8.87
5 0 -6 -9.29 6.33
5 0 -6 6.74 5.75
5 0 -6 -12.3 7.79
5 0 -6 -6.56 6.02
-5 0 6 -2.94 4.73
-5 0 6 -1.53 6.67
4 0 -6 -9.52 7.82
4 0 -6 -2.02 6.54
4 0 -6 -0.34 6.21
4 0 -6 -3.87 5.77
4 0 -6 1.59 6.05
-4 0 6 -1.15 4.66
-4 0 6 5.83 6.74
-4 0 6 5.05 2.55
3 0 -6 16.49 5.56
3 0 -6 14.57 7.92
3 0 -6 17.2 8.28
3 0 -6 22.33 5.97
3 0 -6 22.99 6.9
3 0 -6 13.58 6.49
3 0 -6 24.7 5.15
-3 0 6 22.55 6.38
-3 0 6 14.83 6.9
-3 0 6 22.98 7.1
-3 0 6 29.37 5.74
-3 0 6 24.07 5.17
-3 0 6 11.21 5.55
2 0 -6 3.61 6.12
2 0 -6 7.38 7.03
2 0 -6 -3.53 4.43
2 0 -6 0.63 6.33
2 0 -6 0.8 6.58
-2 0 6 1.01 4.57
-2 0 6 2.39 5.76
-2 0 6 -7.25 5.35
-2 0 6 2.6 5.17
-2 0 6 -4.24 4.59
-2 0 6 0.43 5.93
1 0 -6 18.91 5.9
1 0 -6 20.64 6.71
1 0 -6 19.98 7.03
1 0 -6 30.13 7.15
1 0 -6 11.19 5.76
1 0 -6 36.13 7.33
-1 0 6 24.5 6.57
-1 0 6 16.55 8.48
-1 0 6 18.86 5.72
-1 0 6 29.82 7.53
-1 0 6 13.66 6.31
0 0 -6 85.41 10.44
0 0 -6 77.64 9.63
0 0 -6 81.09 9.77
0 0 -6 69.96 10.64
0 0 -6 77.76 9.69
0 0 6 80.04 10.9
0 0 6 93.58 9.76
0 0 6 65.9 9.68
0 0 6 74.88 12.89
0 0 6 79 9.85
0 0 6 72.97 9.32
-1 0 -6 41.13 7.8
-1 0 -6 27.86 7.14
-1 0 -6 29.72 6.74
-1 0 -6 22.51 6.17
1 0 6 31.41 9.84
1 0 6 19.93 6.62
1 0 6 21.82 5.8
1 0 6 26.84 6.8
1 0 6 28.32 6.58
1 0 6 30.39 8.47
-2 0 -6 22.42 6.55
-2 0 -6 26.98 7.01
-2 0 -6 15.92 6.24
-2 0 -6 21.63 7.7
2 0 6 32.95 6.73
2 0 6 29.28 6.42
2 0 6 21.72 9.68
2 0 6 17.29 8.58
2 0 6 21.12 6.4
2 0 6 17.55 6.39
-3 0 -6 2.45 4.99
-3 0 -6 7.28 6.32
-3 0 -6 3.96 7.24
3 0 6 -8.61 4.9
3 0 6 4.94 6.06
3 0 6 5.76 5.63
3 0 6 5.11 8.68
3 0 6 5.5 7.81
3 0 6 -1.72 8.17
-4 0 -6 12.23 6.2
-4 0 -6 8.7 5.92
-4 0 -6 17.01 4.87
4 0 6 10.27 5.76
4 0 6 13 6.3
4 0 6 18.58 11.03
4 0 6 25.71 6.72
4 0 6 16.48 9.15
4 0 6 14.99 8.35
-5 0 -6 5.3 8.25
5 0 6 -3.77 4.85
5 0 6 -9.79 5.69
5 0 6 3.48 6.73
5 0 6 8.12 9.56
5 0 6 -15.29 9.69
-6 0 -6 -3.45 8.6
6 0 6 2.69 5.08
6 0 6 4.89 10.4
6 0 6 -4.89 6
6 0 6 -10.49 11.38
7 0 6 -5.68 12.81
7 0 6 2.61 6.39
7 -1 -6 2.73 8.7
7 -1 -6 -10.12 8.89
7 -1 -6 -0.13 8
7 -1 -6 0.95 10.07
7 -1 -6 -2.56 9.85
6 -1 -6 1.03 9.38
6 -1 -6 10.81 9.71
6 -1 -6 1.49 7.07
6 -1 -6 -1.45 7.23
6 -1 -6 -11.78 7.04
-6 1 6 -0.61 5.52
5 -1 -6 8.84 7.63
5 -1 -6 1.03 6.82
5 -1 -6 13.44 9.4
5 -1 -6 14.31 9.09
5 -1 -6 3.72 7.42
5 -1 -6 20.12 7.38
-5 1 6 1.8 7.63
-5 1 6 9.51 6.18
4 -1 -6 9.69 6.78
4 -1 -6 -0.08 6.18
4 -1 -6 -2.17 7.28
4 -1 -6 12.54 7.64
4 -1 -6 -0.48 6.22
-4 1 6 0.62 5.79
-4 1 6 11.44 7.53
-4 1 6 7.52 8.92
3 -1 -6 18.09 6.71
3 -1 -6 8.57 6.98
3 -1 -6 12.93 6.69
3 -1 -6 5.4 6.62
3 -1 -6 23.78 7.71
-3 1 6 17.87 7.04
-3 1 6 7.64 4.85
-3 1 6 -0.74 6.29
-3 1 6 15.35 9.28
-3 1 6 10.84 5.68
2 -1 -6 -4.56 4.5
2 -1 -6 11.31 5.2
2 -1 -6 0.25 7.14
2 -1 -6 8 5.2
2 -1 -6 9.22 7.18
2 -1 -6 1.99 5.75
-2 1 6 7.48 4.92
-2 1 6 -0.87 5.93
-2 1 6 9.43 5.25
-2 1 6 1.33 8.68
-2 1 6 -2.04 5.71
1 -1 -6 -1.1 4.89
1 -1 -6 6.05 6.25
1 -1 -6 3.73 6.4
1 -1 -6 -0.16 5.54
1 -1 -6 -4.98 4.63
-1 1 6 1.94 4.52
-1 1 6 16.31 6.14
-1 1 6 2.77 4.37
-1 1 6 -3.8 4.67
-1 1 6 1.62 9.08
-1 1 6 -1.85 4.89
0 -1 -6 9.25 5.67
0 -1 -6 7.23 5.54
0 -1 -6 15.57 7.16
0 -1 -6 13.83 6.42
0 -1 -6 13.22 6.8
0 1 6 9.65 6.7
0 1 6 24.05 10.24
0 1 6 7.2 6.11
0 1 6 9.33 6.05
0 1 6 16.3 5.3
0 1 6 2.1 5.22
-1 -1 -6 22.26 7.11
-1 -1 -6 7.03 6.1
-1 -1 -6 19.19 5.94
-1 -1 -6 17.68 6.25
1 1 6 7.21 5.99
1 1 6 23.93 6.76
1 1 6 13.07 5.7
1 1 6 12.93 5.99
1 1 6 29.1 10.88
1 1 6 13.57 7.65
-2 -1 -6 -6.53 4.91
-2 -1 -6 0.66 5.35
-2 -1 -6 -10.11 5.79
-2 -1 -6 10.86 5.88
2 1 6 -4.29 5.33
2 1 6 1.16 5.66
2 1 6 8.83 6.46
2 1 6 9.2 8.11
2 1 6 1.43 9.78
-3 -1 -6 19.79 5.85
-3 -1 -6 34.41 7.55
-3 -1 -6 20.55 6.78
3 1 6 15.98 6
3 1 6 25.05 6.96
3 1 6 26.28 7
3 1 6 24.32 10.72
3 1 6 21.17 9.62
-4 -1 -6 -2.25 7.5
4 1 6 2.02 9.07
4 1 6 -1.85 6.31
4 1 6 -5.77 5.64
4 1 6 6.14 5.9
4 1 6 -12.83 9.36
4 1 6 -4.67 9
-5 -1 -6 -8.97 8.11
5 1 6 1.26 5.05
5 1 6 2 6.64
5 1 6 -0.79 9.51
5 1 6 -22.44 9.06
5 1 6 -8.7 9.85
5 1 6 2.78 6.39
-6 -1 -6 -2.98 8.31
6 1 6 13.32 6.17
6 1 6 -0.61 4.89
6 1 6 3.6 11.81
6 1 6 -2.9 7.93
7 -2 -6 0.44 9.97
7 -2 -6 1.8 8.22
7 -2 -6 4.95 8.6
7 -2 -6 11.6 11.1
7 -2 -6 17.73 10.01
6 -2 -6 -5.55 9.23
6 -2 -6 -13.21 7.45
6 -2 -6 -8.67 7.2
6 -2 -6 -0.72 7.22
6 -2 -6 -10.2 9.65
6 -2 -6 -0.55 8.08
-6 2 6 4 6.38
5 -2 -6 8.29 8.47
5 -2 -6 0.74 7.22
5 -2 -6 10.21 7.83
5 -2 -6 11.18 8.25
5 -2 -6 -3.26 9.02
-5 2 6 1.91 6.74
-5 2 6 -3.05 5.52
-5 2 6 2.6 8.12
4 -2 -6 -2.94 6.43
4 -2 -6 7.09 7.27
4 -2 -6 9.58 7.69
4 -2 -6 10.8 8.02
4 -2 -6 2.41 6.66
-4 2 6 8.47 6.08
-4 2 6 2.04 7.79
-4 2 6 -3.97 8.89
3 -2 -6 46.88 9.27
3 -2 -6 37.21 8.85
3 -2 -6 53.72 10
3 -2 -6 49.54 8.89
3 -2 -6 52.88 8.67
-3 2 6 42.21 7.91
-3 2 6 51.02 9.13
-3 2 6 48.19 9.43
-3 2 6 41.92 10.45
-3 2 6 41.42 7.79
2 -2 -6 29.32 6.91
2 -2 -6 25.2 7.37
2 -2 -6 21.52 7.31
2 -2 -6 17.25 7.75
2 -2 -6 12.88 6.59
-2 2 6 25.7 7.37
-2 2 6 28.16 6.84
-2 2 6 32.35 7.7
-2 2 6 20.6 9
-2 2 6 20.24 6.29
1 -2 -6 57.77 8.2
1 -2 -6 52.96 9.63
1 -2 -6 47.12 9.76
1 -2 -6 51.37 9.41
-1 2 6 61.06 9.97
-1 2 6 50.32 8.86
-1 2 6 45.77 8.2
-1 2 6 51.94 7.98
-1 2 6 36.87 6.97
-1 2 6 44.21 11.16
0 -2 -6 7.62 7.34
0 -2 -6 -3.75 5.68
0 -2 -6 9.89 5.06
0 -2 -6 6.91 7.24
0 -2 -6 1.46 4.77
0 2 6 7.85 6.49
0 2 6 15.37 11.12
0 2 6 9.64 4.35
0 2 6 6.3 6.06
0 2 6 -5.85 4.09
0 2 6 2.52 6.95
-1 -2 -6 12.58 6.19
-1 -2 -6 13.94 6.14
-1 -2 -6 17.67 7.65
-1 -2 -6 20.11 5.24
-1 -2 -6 24.28 8.27
1 2 6 25.38 7.29
1 2 6 28.49 11.78
1 2 6 15.65 6.21
1 2 6 17.21 7.18
1 2 6 13.17 8.26
-2 -2 -6 9.16 6.79
-2 -2 -6 13.08 7.84
-2 -2 -6 8.99 5.65
2 2 6 10.14 6.28
2 2 6 22.5 6.59
2 2 6 5.73 5.96
2 2 6 14.42 11.35
2 2 6 7.8 8.45
-3 -2 -6 4.23 6.04
-3 -2 -6 11.61 6.92
-3 -2 -6 0.69 4.58
3 2 6 6.02 6.38
3 2 6 9.9 6.89
3 2 6 10.34 8.95
3 2 6 -1.77 5.47
3 2 6 -12.09 9.93
-4 -2 -6 14.74 8.59
4 2 6 18.49 6.73
4 2 6 -0.06 5.28
4 2 6 1.82 12.2
4 2 6 0.22 6.72
4 2 6 -0.07 7.25
-5 -2 -6 0.12 6.58
5 2 6 -1.3 7.87
5 2 6 -3.29 7.81
5 2 6 -17.14 11.89
5 2 6 3.55 6.26
5 2 6 1.3 4.99
-6 -2 -6 4.79 9.55
6 2 6 6.44 12.26
6 2 6 0.63 5.43
6 2 6 -2.62 5.73
6 2 6 12.83 9.25
7 -3 -6 1.49 8.99
6 -3 -6 4.28 8.56
6 -3 -6 12.66 8.28
6 -3 -6 14.62 8.77
6 -3 -6 8.81 10.11
6 -3 -6 10.21 9.23
6 -3 -6 5.19 7.97
-6 3 6 9.59 7.28
5 -3 -6 -6.76 7.9
5 -3 -6 0.78 7.76
5 -3 -6 2.85 9.64
5 -3 -6 -0.37 5.6
5 -3 -6 -1.06 7.39
-5 3 6 21.93 9.51
-5 3 6 19.57 10.67
-5 3 6 -3.05 6.31
4 -3 -6 22.06 10.29
4 -3 -6 34.39 9.72
4 -3 -6 22.34 8.29
4 -3 -6 34.58 8.87
4 -3 -6 35.77 9.06
-4 3 6 26.98 9.4
-4 3 6 32.74 8.38
-4 3 6 16.63 9.3
3 -3 -6 7.62 7.48
3 -3 -6 -3.49 6.7
3 -3 -6 8.91 8.99
3 -3 -6 2.44 7.66
3 -3 -6 3.37 6.97
-3 3 6 3.1 11.48
-3 3 6 -0.72 6.04
-3 3 6 1.36 6.22
-3 3 6 -0.08 7.07
-3 3 6 0.35 5.7
2 -3 -6 34.91 7.82
2 -3 -6 5.94 7.74
2 -3 -6 10.85 6.48
2 -3 -6 21.72 6.5
2 -3 -6 16.26 6.93
-2 3 6 12.72 5.87
-2 3 6 23.26 12.55
-2 3 6 20.22 6.59
-2 3 6 11.58 7.04
-2 3 6 6.46 5.91
1 -3 -6 7.43 7.8
1 -3 -6 5.59 5.41
1 -3 -6 11.43 8.19
1 -3 -6 12.71 5.42
-1 3 6 4.3 6.83
-1 3 6 6.26 7.07
-1 3 6 5.24 5.85
-1 3 6 13.13 8.07
-1 3 6 14.32 9.43
0 -3 -6 15.81 6.65
0 -3 -6 10.56 7.9
0 -3 -6 -1.4 5.41
0 -3 -6 9.49 4.23
0 3 6 6.11 7.36
0 3 6 8.7 11.79
0 3 6 11.63 6.62
0 3 6 9.77 7.03
0 3 6 14.03 5.53
-1 -3 -6 1.71 7.56
-1 -3 -6 7.74 6.8
-1 -3 -6 1.15 6.14
1 3 6 -0.76 7.87
1 3 6 9.47 6.67
1 3 6 14.76 5.55
1 3 6 13.15 8.95
1 3 6 2.81 6.19
-2 -3 -6 -3.7 7.29
-2 -3 -6 5.44 8.35
-2 -3 -6 -0.44 5.58
2 3 6 -1.56 7.01
2 3 6 2.29 8.81
2 3 6 -0.63 11.31
2 3 6 3.31 6.3
2 3 6 8.8 7.43
-3 -3 -6 -3.3 8.1
3 3 6 -8.34 6.29
3 3 6 6.1 6.7
3 3 6 -7.98 10.89
3 3 6 -10.43 8.08
3 3 6 5.82 7.24
-4 -3 -6 8.05 8.93
4 3 6 8.24 7.11
4 3 6 0.24 6.23
4 3 6 7.95 9.83
4 3 6 2.05 7.03
4 3 6 -15.33 10.65
-5 -3 -6 14.76 9.58
5 3 6 14.95 6.9
5 3 6 14.34 11.59
5 3 6 2.59 5.84
5 3 6 5.46 12.26
6 -4 -6 -0.06 9.66
6 -4 -6 1.23 8.35
6 -4 -6 -1.1 9.02
6 -4 -6 -11.19 10.75
6 -4 -6 -3.73 8.11
-6 4 6 32.69 10.97
-6 4 6 -8.22 7.05
-6 4 6 2.74 17.27
5 -4 -6 5.31 10.64
5 -4 -6 7.05 6.69
5 -4 -6 5.78 7.92
5 -4 -6 10.16 7.11
5 -4 -6 -2.1 8.89
-5 4 6 7.38 11.23
-5 4 6 0.45 7.26
-5 4 6 21.26 9.86
4 -4 -6 8.39 8.07
4 -4 -6 -5.51 8.03
4 -4 -6 8.73 8.1
4 -4 -6 11.33 8.53
4 -4 -6 1.97 9.91
-4 4 6 4.23 8.69
-4 4 6 1.03 7.52
-4 4 6 0.36 11.7
3 -4 -6 8.72 6.49
3 -4 -6 2.34 6.47
3 -4 -6 -1.92 8.14
3 -4 -6 -7.75 8.84
3 -4 -6 9.76 7.34
-3 4 6 0.39 6.15
-3 4 6 15.12 7.89
-3 4 6 -13.45 8.35
2 -4 -6 -0.07 7.97
2 -4 -6 -9.94 7.71
2 -4 -6 -5.91 6.4
-2 4 6 -0.1 7.59
-2 4 6 -8.21 9.19
-2 4 6 -0.17 7.29
-2 4 6 -4.46 6.72
-2 4 6 4.46 6.53
1 -4 -6 -2.46 8.96
1 -4 -6 14.98 8.56
-1 4 6 1.92 7.09
-1 4 6 0.78 5.61
-1 4 6 -2.95 5.91
-1 4 6 -2.53 12.74
-1 4 6 4.04 7.54
0 -4 -6 12.94 8.2
0 -4 -6 15.34 9.06
0 -4 -6 11.14 7.2
0 4 6 25.97 8.91
0 4 6 34.72 8.64
0 4 6 21.2 13.29
0 4 6 28.41 8.12
0 4 6 15.65 7.33
-1 -4 -6 3.79 6.78
-1 -4 -6 13.11 7.47
-1 -4 -6 8.82 8.36
1 4 6 -4.85 8.03
1 4 6 14.08 12.48
1 4 6 30.08 8.57
1 4 6 15.89 7.15
1 4 6 8.68 7.16
-2 -4 -6 10.11 6.05
-2 -4 -6 13.82 9.41
2 4 6 6.33 12.21
2 4 6 11.08 7.03
2 4 6 7.05 7.21
2 4 6 5.04 6.85
2 4 6 14.64 7.88
-3 -4 -6 1.46 9.03
3 4 6 -2.21 7.38
3 4 6 12.08 10.11
3 4 6 -4.11 7.34
3 4 6 6.5 6.45
3 4 6 -1.41 11.92
-4 -4 -6 -11.57 9.1
4 4 6 -12.47 12.07
4 4 6 -2.44 6.9
4 4 6 4.9 5.9
4 4 6 -7.45 9.63
-5 -4 -6 7.45 10.42
5 4 6 -0.96 8.46
5 4 6 -9.17 5.75
5 4 6 -23.32 11.56
5 4 6 10.63 6.59
5 -5 -6 1.27 8.23
5 -5 -6 6.39 8.46
5 -5 -6 2.67 9.24
-5 5 6 -11.76 9.1
-5 5 6 8.32 8.81
-5 5 6 -0.07 11.92
4 -5 -6 9.08 8.31
4 -5 -6 2.38 9.59
4 -5 -6 -1.63 9.81
-4 5 6 15.42 7.69
-4 5 6 -19.16 12.91
-4 5 6 1.17 8.7
3 -5 -6 7.79 9.48
3 -5 -6 12.79 8.18
3 -5 -6 2.32 8.78
-3 5 6 -16.59 13.67
-3 5 6 0.7 6.99
-3 5 6 7.26 6.77
2 -5 -6 8.76 7.43
2 -5 -6 1.24 8.65
2 -5 -6 20.02 9.36
-2 5 6 -0.62 7.4
-2 5 6 3.78 7.79
-2 5 6 -6.89 6.15
-2 5 6 -6.98 13.56
-2 5 6 14.97 8.84
1 -5 -6 7.52 9.76
1 -5 -6 0.4 8.11
-1 5 6 5.62 7.26
-1 5 6 8.22 8.66
-1 5 6 -20.07 12.73
-1 5 6 -2.42 5.81
-1 5 6 3.63 7.19
0 -5 -6 -1.4 7.41
0 -5 -6 -1.35 7.65
0 -5 -6 12.34 9.34
0 5 6 12.65 7.28
0 5 6 1.15 8.16
0 5 6 19.09 8.41
0 5 6 10.67 13.46
0 5 6 13.38 8.73
-1 -5 -6 18.13 10.03
-1 -5 -6 14.15 7.58
1 5 6 4.35 7.91
1 5 6 10.83 7.63
1 5 6 14.36 9.76
1 5 6 16.81 8.54
1 5 6 10.4 10.23
-2 -5 -6 13.73 10.23
2 5 6 2.81 9.71
2 5 6 4.97 7.45
2 5 6 -1.35 6.97
2 5 6 -1.82 9.42
2 5 6 -10.47 6.23
-3 -5 -6 5.66 9.81
3 5 6 -9.05 7.53
3 5 6 2.76 7.46
3 5 6 1.88 7.62
3 5 6 -5.35 12.78
3 5 6 -7.01 9.63
-4 -5 -6 8.73 10.26
4 5 6 -1.08 7.16
4 5 6 -9.48 10.49
4 5 6 -1.01 7.06
4 5 6 -18.71 11.92
4 -6 -6 1.18 7.77
4 -6 -6 2.48 10.41
4 -6 -6 0.23 8.31
-4 6 6 1.77 9.54
-4 6 6 -23.72 14.71
-4 6 6 -0.58 7.52
3 -6 -6 15.15 8.58
3 -6 -6 -9.14 9.02
3 -6 -6 -5.62 10.37
-3 6 6 8.54 9.4
-3 6 6 -25.91 15.05
-3 6 6 -4.66 7.03
2 -6 -6 21.07 11.01
2 -6 -6 5.21 8.76
2 -6 -6 0.83 7.71
-2 6 6 14.98 9.41
-2 6 6 -13.3 10.98
-2 6 6 -10.62 11.5
-2 6 6 -2.75 6.84
1 -6 -6 -8.45 9.54
1 -6 -6 -3.77 7.86
-1 6 6 -5.21 9.06
-1 6 6 -7.16 8.16
-1 6 6 -6.07 8.69
-1 6 6 -5.1 6.96
-1 6 6 -5.61 10.61
0 -6 -6 -5.06 7.53
0 -6 -6 7.26 10.3
0 -6 -6 23.03 15.6
0 6 6 2.75 7.5
0 6 6 -1.22 10.62
0 6 6 11.78 8.77
0 6 6 4.57 9.49
0 6 6 14.73 9.31
-1 -6 -6 14.12 7.55
-1 -6 -6 5.26 9.98
1 6 6 -11.16 8.18
1 6 6 -5.27 8.71
1 6 6 3.24 13.99
1 6 6 13.39 7.94
1 6 6 7.64 9.78
-2 -6 -6 0.39 9.73
2 6 6 -8.97 13.59
2 6 6 -0.93 9.72
2 6 6 9.63 7.47
2 6 6 0.42 7.65
2 6 6 13.03 8.82
-3 -6 -6 -3.14 9.88
3 6 6 5.8 10.74
3 6 6 -6.02 7.74
3 6 6 -2.06 7.98
3 6 6 -1.99 10.39
2 -7 -6 -25.15 10.11
2 -7 -6 5.79 9.14
2 -7 -6 1.95 8.66
-2 7 6 -35.41 16.43
-2 7 6 7.54 9.86
-2 7 6 -6.84 10.1
1 -7 -6 2.97 8.29
-1 7 6 0.82 8.24
-1 7 6 -11.32 8.32
-1 7 6 -17.84 15.99
-1 7 6 5.38 7.09
-1 7 6 2.2 9.92
0 -7 -6 -13.14 9.8
0 -7 -6 -3.91 8.48
0 7 6 11.01 8.75
0 7 6 21.36 10.54
0 7 6 4.36 6.93
0 7 6 -2.54 11.53
0 7 6 -2.52 10.67
1 7 6 -3.98 8.28
1 7 6 7.33 13.55
1 7 6 1.36 8.51
3 10 -7 -3.42 8.73
3 10 -7 -10.96 8.03
2 10 -7 -1.28 7.29
2 10 -7 -0.37 13.1
2 10 -7 8.59 9.29
-2 -10 7 -2.92 8.33
1 10 -7 1.8 9.36
1 10 -7 8.23 7.64
1 10 -7 14.92 13.28
-1 -10 7 -1.09 6.09
-1 -10 7 3.03 9.03
0 10 -7 2.53 7.57
0 10 -7 4.45 12.2
0 10 -7 8.55 8.97
0 -10 7 -0.22 6.23
0 -10 7 9.65 6.97
-1 10 -7 11.52 7.55
-1 10 -7 24.59 10.46
-1 10 -7 13.35 12.28
-1 10 -7 -1.13 8.8
-1 10 -7 26.69 9.17
1 -10 7 3.04 6.83
1 -10 7 7.25 7.79
1 -10 7 -4.14 8.69
-2 10 -7 -7.85 6.23
-2 10 -7 0.39 9.68
-2 10 -7 10.32 12.62
2 -10 7 -5.88 8.49
2 -10 7 10.55 7.14
2 -10 7 -5.11 8.27
2 -10 7 -2.93 7.98
4 9 -7 -20.16 13.22
4 9 -7 1.46 7.3
-4 -9 7 15.51 9.7
3 9 -7 10.42 8.03
3 9 -7 -5.96 12.78
3 9 -7 -1.61 7.94
-3 -9 7 11.38 8.97
2 9 -7 0.26 12.21
2 9 -7 8.68 7.46
2 9 -7 0.83 7.48
-2 -9 7 1.27 8.51
1 9 -7 -2.26 12.17
1 9 -7 16.81 8.23
1 9 -7 8.05 7.4
-1 -9 7 2.49 5.82
-1 -9 7 1.83 8.18
0 9 -7 11.79 7.26
0 9 -7 -2.48 11.08
0 9 -7 8.88 8.13
0 -9 7 3.81 5.9
0 -9 7 10.8 8.26
0 -9 7 3.01 8.37
-1 9 -7 -0.66 11.36
-1 9 -7 0.32 6.52
1 -9 7 8.41 6.45
1 -9 7 -2 7.58
1 -9 7 -2.82 8.17
1 -9 7 -3 7.78
-2 9 -7 4.04 11.23
-2 9 -7 -3.47 6.23
-2 9 -7 -15.39 7.17
2 -9 7 8.22 8.62
2 -9 7 -5.02 8.22
2 -9 7 20.21 7.1
-3 9 -7 -7.81 8.29
-3 9 -7 -4.91 6.49
3 -9 7 6.77 8.99
3 -9 7 -6.04 7.78
3 -9 7 4.01 6.82
-4 9 -7 6.47 9.1
-4 9 -7 1.74 7.41
4 -9 7 -3.48 9.05
4 -9 7 -16.74 6.23
5 8 -7 8.83 6.56
5 8 -7 -2.55 14.52
-5 -8 7 6.83 9.33
4 8 -7 1.25 6.23
4 8 -7 -3.4 6.75
4 8 -7 10.56 7.78
4 8 -7 -21.71 12.44
-4 -8 7 17.68 9.31
3 8 -7 -1.03 6.35
3 8 -7 3.09 6.93
3 8 -7 -18.31 11.18
3 8 -7 3 6.85
-3 -8 7 2 8.43
2 8 -7 18.46 7.3
2 8 -7 -13.58 10.33
2 8 -7 3.36 7.02
2 8 -7 4.28 6.57
-2 -8 7 3.02 5.13
-2 -8 7 1.06 7.93
1 8 -7 8.82 11.44
1 8 -7 0.07 7.15
1 8 -7 6.78 6.77
1 8 -7 11.68 6.62
-1 -8 7 12.36 7.5
-1 -8 7 17.83 8.18
-1 -8 7 11.62 5.96
0 8 -7 4.39 10.74
0 8 -7 7.21 6.6
0 8 -7 -4.42 6.05
0 8 -7 7.97 7.93
0 -8 7 11.77 6.07
0 -8 7 9.74 7.75
0 -8 7 6.31 9.3
0 -8 7 6.48 6.07
-1 8 -7 2.5 7.5
-1 8 -7 3.75 9.81
-1 8 -7 -2.31 6.29
-1 8 -7 3.36 6.64
1 -8 7 7.21 7.17
1 -8 7 12.53 8.02
1 -8 7 -2.2 6.2
-2 8 -7 5.29 8.04
-2 8 -7 -3.71 6
2 -8 7 11.09 8.3
2 -8 7 -3.88 6.2
2 -8 7 5.02 6.61
2 -8 7 -4.21 7.5
-3 8 -7 10.8 6.8
-3 8 -7 2.43 10.35
-3 8 -7 13.75 7.19
3 -8 7 2.76 7.65
3 -8 7 7.22 9.21
3 -8 7 0.47 8.09
3 -8 7 -1.96 6.73
-4 8 -7 9.57 8.55
-4 8 -7 -2.05 7.66
4 -8 7 6.92 7.47
4 -8 7 3.7 9.2
4 -8 7 17.69 10.12
4 -8 7 10.66 8.76
-5 8 -7 3.65 8.32
-5 8 -7 -3.56 7.49
5 -8 7 -2.64 9.45
6 7 -7 -2.89 5.53
6 7 -7 -5 14.81
-6 -7 7 1.07 8.1
5 7 -7 -6.85 13.41
5 7 -7 9.05 6.56
5 7 -7 -3.83 6.25
-5 -7 7 -6.07 7.81
4 7 -7 -21.79 11.4
4 7 -7 19.53 7.22
4 7 -7 0.83 6.52
4 7 -7 -0.31 7.3
-4 -7 7 5.1 7.8
3 7 -7 -5.18 6.67
3 7 -7 5.91 11.96
3 7 -7 15.28 6.83
3 7 -7 1.59 7.3
-3 -7 7 -4.13 3.91
-3 -7 7 3.35 7.81
2 7 -7 20.04 7.13
2 7 -7 5.63 6.7
2 7 -7 11.96 6.76
2 7 -7 -3.77 7.6
-2 -7 7 3.78 5.23
-2 -7 7 -1.07 5.42
-2 -7 7 7.13 6.78
1 7 -7 -4.14 5.96
1 7 -7 0.83 7
1 7 -7 0.68 10.11
1 7 -7 -0.28 5.68
-1 -7 7 -3.5 6.86
-1 -7 7 4.18 6.88
-1 -7 7 -11.05 4.67
0 7 -7 11.29 10.46
0 7 -7 14.21 6.9
0 7 -7 2.42 6.13
0 7 -7 -1.89 5.26
0 -7 7 2.7 5.65
0 -7 7 -1.4 5.35
0 -7 7 11.31 7.66
0 -7 7 7.34 7.99
-1 7 -7 -1.75 5.19
-1 7 -7 17.12 6.55
-1 7 -7 0.5 7.17
-1 7 -7 2.26 6.75
1 -7 7 4.01 6.16
1 -7 7 2.32 5.26
1 -7 7 2.9 7.65
1 -7 7 4.63 7.24
-2 7 -7 -6.43 7.24
-2 7 -7 -5.26 5.36
-2 7 -7 1.04 7.28
-2 7 -7 3.78 7.09
2 -7 7 1.74 7.39
2 -7 7 -4.47 5.76
2 -7 7 3.59 8.06
2 -7 7 -3.69 6.21
2 -7 7 -6.74 11.33
-3 7 -7 5.89 7.49
-3 7 -7 -14.35 5.71
3 -7 7 4.64 5.96
3 -7 7 2.04 6.51
3 -7 7 8.77 7.18
3 -7 7 13.61 8.91
3 -7 7 1.81 7.11
-4 7 -7 2.96 6.66
4 -7 7 31.59 10.58
4 -7 7 1.53 8.11
4 -7 7 3.81 7.5
4 -7 7 10.27 7.48
4 -7 7 10.34 8.84
-5 7 -7 9.25 7.42
-5 7 -7 4.6 7.9
5 -7 7 10.55 9.6
5 -7 7 -3.85 7.29
5 -7 7 -1.65 9.94
5 -7 7 -5.63 7.94
5 -7 7 7.17 6.69
6 6 -7 -8.66 5.73
6 6 -7 9.62 14.21
6 6 -7 0.22 5.93
-6 -6 7 8.16 7.7
5 6 -7 20.42 7.92
5 6 -7 0.03 6.77
5 6 -7 25.99 13.85
5 6 -7 0.68 5.72
-5 -6 7 2.83 7.21
4 6 -7 7.2 7.26
4 6 -7 1.63 7.12
4 6 -7 3.06 6.57
4 6 -7 16.69 9.89
4 6 -7 -6.01 6.56
-4 -6 7 11.59 7.8
3 6 -7 15.42 7.49
3 6 -7 15.41 5.73
3 6 -7 5.3 6.24
3 6 -7 14.59 6.94
3 6 -7 3.63 10.93
-3 -6 7 7.48 7.44
-3 -6 7 14.37 6.85
-3 -6 7 7.22 4.46
2 6 -7 4.09 4.59
2 6 -7 -4.21 9.54
2 6 -7 6.07 6.32
2 6 -7 -4.53 6.15
2 6 -7 2.95 6.36
-2 -6 7 9.34 6.65
-2 -6 7 -4.95 4.24
-2 -6 7 -4.41 6.63
1 6 -7 54.62 9.23
1 6 -7 41.13 8.1
1 6 -7 38.24 11.14
1 6 -7 44.08 7.48
-1 -6 7 67.57 9.15
-1 -6 7 45.76 9.75
-1 -6 7 40.64 7.17
0 6 -7 11.73 5.02
0 6 -7 4.03 9.13
0 6 -7 18.98 6.96
0 6 -7 -3.24 6.65
0 6 -7 5.95 6.03
0 -6 7 5.89 6.76
0 -6 7 4.65 5.38
0 -6 7 11.06 5.73
0 -6 7 9.16 4.87
0 -6 7 9.58 7.43
-1 6 -7 22.9 6.91
-1 6 -7 30.36 8.12
-1 6 -7 36.73 11.14
-1 6 -7 38.46 6.61
-1 6 -7 35.77 7.42
1 -6 7 34.37 7.2
1 -6 7 59.95 9.09
1 -6 7 38.97 7.44
1 -6 7 22.52 6.67
1 -6 7 32.47 7.98
-2 6 -7 -4 6.82
-2 6 -7 -6.3 8.22
-2 6 -7 7.1 5.69
-2 6 -7 -2.91 5.73
-2 6 -7 8.74 7.56
2 -6 7 8.62 6.25
2 -6 7 1.77 6.83
2 -6 7 7.74 6.93
2 -6 7 5.15 7.11
2 -6 7 1.03 5.72
-3 6 -7 22.97 6.9
-3 6 -7 17.98 6.83
-3 6 -7 21.06 8.84
-3 6 -7 25.48 10.26
3 -6 7 8.91 7.34
3 -6 7 16.95 9.04
3 -6 7 25.24 7.9
3 -6 7 7.35 7.49
3 -6 7 10.54 6.82
-4 6 -7 1.63 6.4
-4 6 -7 0.41 6.41
4 -6 7 -2.1 8.16
4 -6 7 8.88 7.08
4 -6 7 -2.2 7.36
4 -6 7 -0.48 7.84
4 -6 7 5.28 6.52
-5 6 -7 4.44 7.58
-5 6 -7 1.54 7.1
5 -6 7 -6.91 9.58
5 -6 7 2.87 7.45
5 -6 7 8.77 8.38
5 -6 7 17.33 9.89
5 -6 7 2.68 7.38
-6 6 -7 9.45 8.74
-6 6 -7 16.59 8.12
6 -6 7 15.77 10.06
6 -6 7 4.99 8.28
6 -6 7 2.19 11.09
6 -6 7 -3.13 8.31
7 5 -7 -3.47 6.6
6 5 -7 10.61 6.48
6 5 -7 5.42 12.82
6 5 -7 -4.68 5.89
6 5 -7 5.83 8.92
-6 -5 7 12.11 8.44
5 5 -7 17.95 10.01
5 5 -7 19.5 7.17
5 5 -7 27.81 8.22
5 5 -7 27.34 7.61
5 5 -7 8.67 6.16
-5 -5 7 44.57 8.9
4 5 -7 27.79 7.64
4 5 -7 16.45 6.7
4 5 -7 31.82 8.49
4 5 -7 21.33 11.14
4 5 -7 25.15 7.41
-4 -5 7 16.1 4.41
-4 -5 7 28.42 7.88
3 5 -7 21.29 9.23
3 5 -7 28.07 7.59
3 5 -7 44.05 7.65
3 5 -7 34.17 7.5
3 5 -7 55.3 8.33
-3 -5 7 41.16 6.27
-3 -5 7 61.09 9.32
-3 -5 7 38.89 8.22
2 5 -7 6.7 6.44
2 5 -7 15.39 6.4
2 5 -7 18.62 6.14
2 5 -7 1.12 9.68
2 5 -7 5.66 6.19
-2 -5 7 9.34 6.78
-2 -5 7 11.43 5.38
1 5 -7 32.94 7.29
1 5 -7 18.09 9.76
1 5 -7 34.53 7.43
1 5 -7 37.59 8
-1 -5 7 44.95 8.51
-1 -5 7 49.21 5.14
-1 -5 7 37.95 7.91
-1 -5 7 48.05 8.07
-1 -5 7 24.09 6.42
0 5 -7 50.04 8.97
0 5 -7 53.11 11.71
0 5 -7 56.59 9.6
0 5 -7 64.2 9.26
0 -5 7 82.87 10.4
0 -5 7 73.46 9.51
0 -5 7 63.52 8.8
0 -5 7 75.91 11.2
0 -5 7 69.66 8.04
-1 5 -7 13.6 6.56
-1 5 -7 9.9 6.79
-1 5 -7 25.22 7.26
-1 5 -7 14.41 7.46
-1 5 -7 2.94 5.55
1 -5 7 7.39 5.32
1 -5 7 12.15 7
1 -5 7 11.71 5.86
1 -5 7 7.84 7.38
1 -5 7 11.52 6.95
-2 5 -7 5.3 6.33
-2 5 -7 2.6 5.62
-2 5 -7 13.38 7.11
-2 5 -7 -0.24 8.6
-2 5 -7 4.48 5.19
2 -5 7 6.76 5.7
2 -5 7 8.56 7.55
2 -5 7 7.17 5.99
2 -5 7 -0.93 6.18
2 -5 7 5.57 6.83
-3 5 -7 17.35 7.47
-3 5 -7 1.53 8.78
-3 5 -7 4.82 7.83
-3 5 -7 -5.13 5.76
3 -5 7 -8.72 6.5
3 -5 7 9.65 7.99
3 -5 7 -7.52 5.81
3 -5 7 -0.45 6.74
3 -5 7 6.1 6.98
-4 5 -7 8.51 7.93
-4 5 -7 -6.03 8.04
-4 5 -7 12.45 6.52
4 -5 7 18.53 8.2
4 -5 7 27.87 10.09
4 -5 7 8.59 6.99
4 -5 7 21.06 9.18
4 -5 7 1.8 7.13
-5 5 -7 8.15 7.18
-5 5 -7 8.85 7.83
5 -5 7 8.49 9.27
5 -5 7 6.36 7.49
5 -5 7 -13.53 7.42
5 -5 7 13.15 7.6
5 -5 7 -1.06 9.39
-6 5 -7 2.8 8.69
6 -5 7 7.31 7.88
6 -5 7 8.76 10.63
6 -5 7 0.16 7.61
6 -5 7 18.22 9.3
6 -5 7 7.84 10.15
7 4 -7 -2.75 8.7
7 4 -7 -5.45 5.88
7 4 -7 -5.24 12.59
7 4 -7 2.32 6.08
6 4 -7 11.06 12.87
6 4 -7 3.71 5.69
6 4 -7 17.11 8.38
6 4 -7 6.6 9.62
6 4 -7 24.15 7.19
5 4 -7 -0.11 10.94
5 4 -7 -7.87 6.99
5 4 -7 -16.53 5.21
5 4 -7 3.59 7.77
5 4 -7 -3.29 6.51
-5 -4 7 13.52 6.97
4 4 -7 47.43 9.21
4 4 -7 35.51 8.69
4 4 -7 16.35 11.2
4 4 -7 38.78 7.75
4 4 -7 18.34 6.84
-4 -4 7 43.3 7.59
-4 -4 7 46.3 8.14
-4 -4 7 24.29 5.18
3 4 -7 14.11 10.6
3 4 -7 7.14 5.88
3 4 -7 20.14 7.19
3 4 -7 9.35 6.36
3 4 -7 11.68 6.55
-3 -4 7 2.4 4.76
-3 -4 7 15.49 6.76
-3 -4 7 12.15 6.12
2 4 -7 22.89 6.83
2 4 -7 14.68 7.71
2 4 -7 15.59 6.28
2 4 -7 2.41 6.2
2 4 -7 14.85 5.75
-2 -4 7 11.6 6.51
-2 -4 7 17.2 5.78
-2 -4 7 15.1 5.91
-2 -4 7 23.8 6.73
1 4 -7 27.69 9.92
1 4 -7 45.17 7.66
1 4 -7 30.6 7.34
1 4 -7 27.97 7.67
1 4 -7 42.58 7.48
-1 -4 7 35.44 7.98
-1 -4 7 34.03 8.25
-1 -4 7 50.09 7.06
-1 -4 7 19.38 6.18
-1 -4 7 43.07 4.71
0 4 -7 25.08 7.14
0 4 -7 18.61 6.39
0 4 -7 21.5 9.42
0 4 -7 24.85 6.72
0 4 -7 32.36 7.54
0 -4 7 25.78 7.15
0 -4 7 26.18 7.91
0 -4 7 35.98 6.91
0 -4 7 32.4 5.35
0 -4 7 33.73 6.73
-1 4 -7 3.86 5.48
-1 4 -7 12.83 9.08
-1 4 -7 10.77 6.24
-1 4 -7 14.46 5.54
-1 4 -7 7.62 6.72
1 -4 7 8.29 4.77
1 -4 7 13.17 5.23
1 -4 7 9.51 5.89
1 -4 7 10.34 7.19
1 -4 7 10.6 5.2
-2 4 -7 4.94 7.04
-2 4 -7 -4.35 5.25
-2 4 -7 3.37 8.03
-2 4 -7 -4.66 4.47
-2 4 -7 0.04 6.74
2 -4 7 10.23 5.93
2 -4 7 1.56 6.12
2 -4 7 12.34 6.75
2 -4 7 0.7 5.76
2 -4 7 -11.9 6.77
-3 4 -7 -2.11 5.68
-3 4 -7 -3.52 8.14
-3 4 -7 5.05 6.65
-3 4 -7 1.45 7.32
3 -4 7 10.86 6.62
3 -4 7 -0.83 8.14
3 -4 7 9.59 7.08
3 -4 7 6.05 6.37
3 -4 7 4.13 4.96
-4 4 -7 2.39 6.65
-4 4 -7 7.41 7.24
-4 4 -7 -5.32 7.07
4 -4 7 6.68 6.69
4 -4 7 0.38 9.07
4 -4 7 3.62 6.83
4 -4 7 0.11 6.14
4 -4 7 3.42 7.88
-5 4 -7 2.4 6.68
-5 4 -7 10.82 8.47
5 -4 7 -5.24 6.82
5 -4 7 1.11 7.33
5 -4 7 -1.44 6.66
5 -4 7 3.51 10.18
5 -4 7 2.85 8.6
-6 4 -7 10.34 9.23
6 -4 7 -1.6 7.92
6 -4 7 2.99 10.04
6 -4 7 2.85 7.16
6 -4 7 -8.31 6.64
6 -4 7 10.93 10.13
7 3 -7 10.68 6.8
7 3 -7 3.15 6.9
7 3 -7 1.92 12.05
7 3 -7 2.8 9.29
6 3 -7 -12.18 8.19
6 3 -7 -2.37 11.02
6 3 -7 1.76 6.61
6 3 -7 8.95 7.17
5 3 -7 17.67 11.53
5 3 -7 32.21 8.06
5 3 -7 33.33 7.77
5 3 -7 21.11 9.34
5 3 -7 22.05 7.06
-5 -3 7 24.3 6.61
4 3 -7 21.03 6.69
4 3 -7 7.95 8.09
4 3 -7 2.5 7.56
4 3 -7 5.07 6.26
4 3 -7 23.59 7.37
-4 -3 7 2.59 4.79
-4 -3 7 21.05 7.38
-4 -3 7 18.79 6.15
3 3 -7 25.87 7.29
3 3 -7 8.43 7.66
3 3 -7 13.92 7.71
3 3 -7 13.17 5.45
3 3 -7 13.01 6.4
-3 -3 7 19.78 5.81
-3 -3 7 31.79 7.38
-3 -3 7 35.42 7.68
-3 -3 7 26.67 5.95
2 3 -7 9.92 6.22
2 3 -7 9.31 6.36
2 3 -7 1.01 6.19
2 3 -7 5.14 9.09
2 3 -7 -6.65 5.47
-2 -3 7 9.32 5.13
-2 -3 7 2 5.49
-2 -3 7 0.27 5.37
-2 -3 7 -0.08 6.26
1 3 -7 9.55 6.06
1 3 -7 3.6 6.09
1 3 -7 22.79 9.18
1 3 -7 6.47 6.23
1 3 -7 10.98 4.8
1 3 -7 12.22 6.07
-1 -3 7 9.85 5.94
-1 -3 7 11.73 3.35
-1 -3 7 8.15 5.12
-1 -3 7 15.26 6.32
-1 -3 7 14.04 6.02
0 3 -7 12 6.43
0 3 -7 6.42 4.4
0 3 -7 14.72 5.39
0 3 -7 11.58 8
0 -3 7 20.72 6.42
0 -3 7 10.88 5.45
0 -3 7 5.54 6.57
0 -3 7 13.13 6.32
0 -3 7 15.9 4.51
-1 3 -7 7.82 8.04
-1 3 -7 1.19 6.89
-1 3 -7 6.56 6.62
-1 3 -7 1.65 6.24
-1 3 -7 12.11 5.9
1 -3 7 21.71 6.87
1 -3 7 -3.75 5.48
1 -3 7 7.72 7.33
1 -3 7 18.23 5.14
1 -3 7 6.56 6.14
1 -3 7 8.62 5.21
-2 3 -7 0.36 7.61
-2 3 -7 4.4 5.65
-2 3 -7 3.44 6.94
-2 3 -7 6.02 4.87
-2 3 -7 3.82 6.72
2 -3 7 4.14 4.52
2 -3 7 0.15 5.73
2 -3 7 4.61 5.02
2 -3 7 -1.32 5.75
2 -3 7 7.37 8.16
-3 3 -7 10.7 7.43
-3 3 -7 12.56 8.53
-3 3 -7 9.96 6.02
-3 3 -7 7 7
3 -3 7 11.92 6.57
3 -3 7 20.87 9.59
3 -3 7 3.21 5.13
3 -3 7 5.8 6.58
3 -3 7 8.1 7.51
-4 3 -7 10.83 7.64
-4 3 -7 13.89 8.11
-4 3 -7 10.69 5.7
4 -3 7 1.6 6.76
4 -3 7 -11.72 8.59
4 -3 7 16.1 8.95
4 -3 7 0.7 4.73
4 -3 7 4.72 6.6
-5 3 -7 7.44 6.12
-5 3 -7 15.71 8.83
5 -3 7 16.97 7.03
5 -3 7 12.34 9.74
5 -3 7 9.58 11.23
5 -3 7 13.41 7.47
5 -3 7 0.3 7.51
-6 3 -7 5.09 9.66
6 -3 7 1.35 9.95
6 -3 7 -8.26 7.22
6 -3 7 1.76 11.01
6 -3 7 1.38 6.64
6 -3 7 2.52 7.8
7 2 -7 -0.82 7.45
7 2 -7 7.3 9.92
7 2 -7 8.59 9.37
7 2 -7 -8.78 7.37
6 2 -7 -8.51 7.53
6 2 -7 17.48 7.9
6 2 -7 3.83 7.47
6 2 -7 -7.1 8.74
5 2 -7 -1.79 8.45
5 2 -7 6.25 6.68
5 2 -7 0.78 7.11
5 2 -7 1.12 10.3
-5 -2 7 2.02 4.49
4 2 -7 20.14 7.45
4 2 -7 16.89 6.85
4 2 -7 15.9 10.47
4 2 -7 0.47 7.94
4 2 -7 36.7 8.05
-4 -2 7 17.49 7.21
-4 -2 7 30.52 5.83
-4 -2 7 16.23 5.52
3 2 -7 -0.11 5.88
3 2 -7 2.96 6.69
3 2 -7 1.69 6.3
3 2 -7 -4.87 8.72
3 2 -7 6.13 7.51
-3 -2 7 6.09 6.59
-3 -2 7 0.47 4.76
-3 -2 7 2.35 5.39
2 2 -7 14.08 6.84
2 2 -7 -3.14 7.61
2 2 -7 2.04 8.5
2 2 -7 2.65 5.28
2 2 -7 -2.45 5.81
2 2 -7 18.85 6.5
-2 -2 7 6.33 2.9
-2 -2 7 8.61 5.52
-2 -2 7 4.04 5.12
-2 -2 7 8.53 3.48
-2 -2 7 8.54 4.6
-2 -2 7 4.71 6.46
1 2 -7 2.95 7.64
1 2 -7 -2.39 5.64
1 2 -7 -5.97 5.8
1 2 -7 -0.65 5.53
1 2 -7 -13.81 5.76
1 2 -7 -3.25 4.52
-1 -2 7 6.36 5.89
-1 -2 7 -4.07 4.71
-1 -2 7 13.86 6.06
-1 -2 7 -0.6 5.77
-1 -2 7 0.55 3.72
0 2 -7 84.33 9.83
0 2 -7 86.53 10.28
0 2 -7 79.44 11.71
0 2 -7 74.35 10.53
0 -2 7 66.65 9.41
0 -2 7 63.21 10.91
0 -2 7 82.07 9.87
0 -2 7 85.23 11.92
0 -2 7 59.65 9.29
0 -2 7 75.76 9.31
-1 2 -7 6.6 7.5
-1 2 -7 9.45 6.63
-1 2 -7 10.89 5.68
-1 2 -7 7.76 7.29
-1 2 -7 13.71 5.41
1 -2 7 1.76 4.48
1 -2 7 11.5 6.47
1 -2 7 1.52 7.23
1 -2 7 7.57 5.51
1 -2 7 2.91 5.73
1 -2 7 1.77 6.14
1 -2 7 12.04 7.47
-2 2 -7 2.25 5.84
-2 2 -7 14.82 5.9
-2 2 -7 -1.71 6.41
-2 2 -7 7.46 7.42
-2 2 -7 13.99 7.75
2 -2 7 9.78 5.04
2 -2 7 10.87 6.52
2 -2 7 6.42 6.33
2 -2 7 9.04 6.57
2 -2 7 6.93 7.14
2 -2 7 12.04 6.75
-3 2 -7 18.71 6.73
-3 2 -7 17.55 8.37
-3 2 -7 24.8 8.65
-3 2 -7 13.61 7.27
3 -2 7 21.38 8.4
3 -2 7 12.13 7
3 -2 7 21.71 6.85
3 -2 7 15.02 6.6
3 -2 7 5.48 6.61
3 -2 7 10.57 9.15
-4 2 -7 13.97 7.93
-4 2 -7 24.73 6.6
-4 2 -7 24.08 8.87
4 -2 7 31.21 9.55
4 -2 7 25.64 7.72
4 -2 7 24.28 10.97
4 -2 7 21.06 7.17
4 -2 7 39.49 8.4
4 -2 7 45.01 8.45
-5 2 -7 13.26 9.05
5 -2 7 -13.98 10.65
5 -2 7 -13.22 8.71
5 -2 7 0.84 6.78
5 -2 7 1.52 6.85
5 -2 7 10.85 7.77
-6 2 -7 5.47 9.73
6 -2 7 -4.99 11.52
6 -2 7 1.97 6.3
6 -2 7 -13.11 7.35
6 -2 7 7.89 10.83
6 -2 7 7.53 7.47
7 1 -7 1.61 9.01
7 1 -7 4.8 8.14
7 1 -7 0.89 10.56
7 1 -7 7.53 8.19
7 1 -7 -1.34 9.36
6 1 -7 -14.36 9.29
6 1 -7 0.96 7.85
6 1 -7 11.36 8.26
6 1 -7 3.45 10.67
6 1 -7 -3.86 6.95
5 1 -7 -1.08 9.53
5 1 -7 2.84 9.29
5 1 -7 -1.8 6.9
5 1 -7 19.28 8.75
5 1 -7 2.75 7.21
-5 -1 7 6.03 7.07
-5 -1 7 3.64 5.08
4 1 -7 0.48 6.44
4 1 -7 7.28 9.46
4 1 -7 3.13 7.03
4 1 -7 2.65 8.36
-4 -1 7 -2.25 6.58
-4 -1 7 4.49 5.64
-4 -1 7 -1.74 3.96
3 1 -7 24.39 9.7
3 1 -7 15.23 6.03
3 1 -7 29.66 9.5
3 1 -7 21.58 7.37
3 1 -7 11.42 6.73
-3 -1 7 26.01 7.78
-3 -1 7 21.51 7.27
-3 -1 7 23.95 5.68
-3 -1 7 15.22 5.75
2 1 -7 -0.46 7.23
2 1 -7 -11.06 5.65
2 1 -7 5.14 5.02
2 1 -7 -7.47 6.33
2 1 -7 8.16 8.03
-2 -1 7 4.28 5.4
-2 -1 7 1.51 4.56
-2 -1 7 6.44 6.01
-2 -1 7 -0.26 5.83
-2 -1 7 10.64 6.06
-2 -1 7 4.55 6.64
1 1 -7 38.82 9
1 1 -7 34.18 6.74
1 1 -7 24.7 8.01
1 1 -7 28.66 7.01
1 1 -7 31.41 6.44
-1 -1 7 18.63 9.03
-1 -1 7 13.78 6.22
-1 -1 7 15.71 7.1
-1 -1 7 33.84 7.67
-1 -1 7 28.01 6.27
0 1 -7 7.05 6.71
0 1 -7 3.78 6.83
0 1 -7 6.43 6.49
0 1 -7 14.07 6.72
0 1 -7 3.74 5.84
0 -1 7 2.01 3.87
0 -1 7 7.51 7.21
0 -1 7 8.36 5.59
0 -1 7 -6.45 7.54
0 -1 7 3.21 4.58
0 -1 7 4.63 6.24
-1 1 -7 86.47 11.91
-1 1 -7 94.46 12.75
-1 1 -7 72.62 10.83
-1 1 -7 99.97 11.17
-1 1 -7 111.81 12.94
1 -1 7 91.96 14.31
1 -1 7 81.82 11.13
1 -1 7 114.29 11.56
1 -1 7 85.53 13.37
1 -1 7 95.68 11.07
-2 1 -7 8.52 6.26
-2 1 -7 4.66 6.79
-2 1 -7 2.08 6.42
-2 1 -7 5.53 7.54
2 -1 7 -6.11 5.34
2 -1 7 -3.94 7.63
2 -1 7 -1.21 8.33
2 -1 7 2.35 6.09
2 -1 7 -3.14 6.53
2 -1 7 6.03 6.14
-3 1 -7 54.16 10.57
-3 1 -7 46.82 8.39
-3 1 -7 63.19 9.73
3 -1 7 56.94 10.88
3 -1 7 50.14 9.26
3 -1 7 54.7 10.91
3 -1 7 58.54 11.38
3 -1 7 61 9.84
3 -1 7 65.3 9.21
-4 1 -7 0.68 5.58
-4 1 -7 -5.66 7.69
4 -1 7 2.73 7.71
4 -1 7 2.64 8.77
4 -1 7 -3.09 6.07
4 -1 7 -0.5 5.82
4 -1 7 -2.59 6.89
4 -1 7 9.44 8.8
-5 1 -7 8.04 9.29
5 -1 7 28.79 8.51
5 -1 7 17.52 7.32
5 -1 7 25.34 13.31
5 -1 7 12.85 10.12
5 -1 7 19.44 7.28
-6 1 -7 4.25 9.63
6 -1 7 16.78 7.63
6 -1 7 -4.21 7.43
6 -1 7 -0.11 10.55
6 -1 7 2.2 6.78
6 -1 7 -17.17 12.44
7 0 -7 9.25 8.57
7 0 -7 0.34 7.83
7 0 -7 -6.66 8.73
7 0 -7 -8.8 7.48
7 0 -7 7.97 11.72
6 0 -7 -18.95 9.04
6 0 -7 11.39 7.88
6 0 -7 0.15 7.72
6 0 -7 2.81 8.78
6 0 -7 7.68 10.18
-6 0 7 -1.94 5.47
5 0 -7 -0.14 6.95
5 0 -7 6.61 8.52
5 0 -7 4.19 7.28
5 0 -7 2.97 5.71
5 0 -7 3.73 9.55
-5 0 7 -1.87 7.4
-5 0 7 6.45 5.29
4 0 -7 74.74 10.41
4 0 -7 54.16 8.93
4 0 -7 53.27 11.78
4 0 -7 37.82 10.64
4 0 -7 47.63 9.34
-4 0 7 58.72 10.21
-4 0 7 36.77 7.58
3 0 -7 0.1 7.14
3 0 -7 12.85 7.84
3 0 -7 3.28 7.99
3 0 -7 2.64 8.53
-3 0 7 -1.97 6.04
-3 0 7 9.99 4.9
-3 0 7 7.33 7.22
-3 0 7 -4.39 6.37
-3 0 7 8.58 6.88
2 0 -7 30.43 8.89
2 0 -7 38.24 7.65
2 0 -7 23.7 7.64
2 0 -7 32.68 8.48
2 0 -7 32.71 9.31
-2 0 7 19.94 7.62
-2 0 7 27.17 6.46
-2 0 7 25.76 10.53
-2 0 7 23.83 7.33
-2 0 7 26.09 6.83
1 0 -7 29.99 7.83
1 0 -7 18.2 7.46
1 0 -7 33.32 7.31
1 0 -7 13.36 6.23
1 0 -7 16.98 7.67
-1 0 7 22.29 6.18
-1 0 7 14.44 7.24
-1 0 7 22.65 7.3
-1 0 7 19.31 6.66
-1 0 7 26.24 8.53
0 0 -7 71.31 10.88
0 0 -7 73.5 11.42
0 0 -7 82.03 10.73
0 0 -7 71.43 10.07
0 0 -7 71.77 10.66
0 0 7 58.46 9.85
0 0 7 82.46 10
0 0 7 73.49 12.68
0 0 7 66.04 11.61
0 0 7 85.25 10.92
-1 0 -7 55.44 9.49
-1 0 -7 72.07 9.94
-1 0 -7 46.5 8.64
-1 0 -7 65.17 10.75
-1 0 -7 62.03 10.17
1 0 7 63.78 10.48
1 0 7 58.32 9.33
1 0 7 57.05 9.66
1 0 7 71.07 13.81
1 0 7 58.67 9.65
-2 0 -7 0.6 6.26
-2 0 -7 7.27 6.06
-2 0 -7 2.51 7.35
-2 0 -7 14.24 7.07
2 0 7 -7.52 8.26
2 0 7 -7.34 6.04
2 0 7 2.22 9.89
2 0 7 -6.25 5.97
2 0 7 -7.1 5.57
-3 0 -7 17.97 8.66
-3 0 -7 10.49 6.27
-3 0 -7 9.29 7.51
3 0 7 13.9 6.55
3 0 7 19.89 7.31
3 0 7 14.09 10.75
3 0 7 24.39 7.78
3 0 7 21.13 8.53
3 0 7 16.9 7.09
-4 0 -7 15.28 6.86
-4 0 -7 6.38 5.61
4 0 7 -6.58 9.93
4 0 7 -5.09 9.63
4 0 7 2.44 5.89
4 0 7 5.89 7.48
4 0 7 11.72 9.61
4 0 7 -0.97 7.31
-5 0 -7 3.51 8.73
5 0 7 12.18 6.85
5 0 7 -5.47 7.15
5 0 7 9.81 6.72
5 0 7 2.44 7.46
5 0 7 -0.36 9.17
-6 0 -7 12.66 10.01
6 0 7 5.02 10.8
6 0 7 -18.63 12.06
6 0 7 7.59 6.09
6 0 7 12.32 7.19
7 -1 -7 1.82 10.85
7 -1 -7 -3 8.26
7 -1 -7 -10.26 10.93
7 -1 -7 -0.81 8.51
7 -1 -7 -8.85 9.88
6 -1 -7 -4.18 8.33
6 -1 -7 -6.42 7.57
6 -1 -7 9.44 10.58
6 -1 -7 -3.5 8.34
6 -1 -7 -2.73 7.92
-6 1 7 3.97 6.24
5 -1 -7 -10.24 8.12
5 -1 -7 0.34 9.84
5 -1 -7 0.62 6.18
5 -1 -7 8.84 7.97
5 -1 -7 3.4 6.83
-5 1 7 6.94 8.24
-5 1 7 -5.86 5.58
4 -1 -7 6.03 7.32
4 -1 -7 19.22 8.98
4 -1 -7 22.71 7.07
4 -1 -7 5.5 7.25
4 -1 -7 19.1 8.05
-4 1 7 10.45 6.38
-4 1 7 12.58 8.08
-4 1 7 16.69 10.4
3 -1 -7 6.6 5.87
3 -1 -7 -1.67 6.35
3 -1 -7 -5.38 8.2
3 -1 -7 -2.05 6.91
3 -1 -7 12.58 8.19
-3 1 7 7.94 6
-3 1 7 -2.66 7.51
-3 1 7 0.16 5.61
-3 1 7 -4.69 9.09
2 -1 -7 1.76 7.46
2 -1 -7 10.06 6.5
2 -1 -7 2.9 7.39
2 -1 -7 0.91 7.82
-2 1 7 2.12 5.2
-2 1 7 1.99 7.08
-2 1 7 10.93 10.23
-2 1 7 10.38 6.14
-2 1 7 6.35 7.09
1 -1 -7 32.25 7.19
1 -1 -7 19.16 7.5
1 -1 -7 19.7 7.07
1 -1 -7 31.2 8.78
1 -1 -7 23.77 7.04
-1 1 7 16.92 7.86
-1 1 7 18.75 6.34
-1 1 7 13.63 5.99
-1 1 7 28.17 6.92
-1 1 7 22.42 9.3
0 -1 -7 4.46 5.22
0 -1 -7 15.6 8.25
0 -1 -7 9.69 7.65
0 -1 -7 12.84 6.43
0 -1 -7 8.83 6.52
0 1 7 6.89 6.92
0 1 7 2.68 8.36
0 1 7 13.56 6.83
0 1 7 9.86 8.08
0 1 7 13.06 6.26
-1 -1 -7 -2.29 6.01
-1 -1 -7 10.98 6.31
-1 -1 -7 1.68 7.53
-1 -1 -7 -2.95 7.53
1 1 7 11.84 11.55
1 1 7 -3.35 7.95
1 1 7 -1.26 6.25
1 1 7 -2.34 6.69
1 1 7 -2.76 6.24
-2 -1 -7 12.26 6.64
-2 -1 -7 12.64 7.46
-2 -1 -7 2.79 6.19
2 1 7 -18.64 10.56
2 1 7 7.23 8.99
2 1 7 6.03 7.57
2 1 7 7.83 6.55
2 1 7 17.47 6.98
-3 -1 -7 1.17 6.89
-3 -1 -7 12.22 6.15
-3 -1 -7 2.87 8.46
3 1 7 9.88 7.64
3 1 7 4.99 6.27
3 1 7 -5.14 9.13
3 1 7 16.11 8.03
3 1 7 0.85 11.49
-4 -1 -7 9.58 8.57
4 1 7 5.94 7.67
4 1 7 3.48 7.91
4 1 7 12.74 7.24
4 1 7 2.12 7.3
4 1 7 5.13 5.93
4 1 7 -16.13 10.91
-5 -1 -7 17.86 9.69
5 1 7 8.14 7.38
5 1 7 -7.78 11.32
5 1 7 2.73 7.46
5 1 7 6 5.91
5 1 7 -4.91 10.37
6 1 7 2.01 8.64
6 1 7 3.49 6.99
6 -2 -7 2.89 9.74
6 -2 -7 -2.94 8.28
6 -2 -7 0.73 8.19
6 -2 -7 -12.79 7.15
6 -2 -7 0.3 9.05
-6 2 7 -13.72 5.81
5 -2 -7 23.97 10.89
5 -2 -7 12.75 11.06
5 -2 -7 13.45 7.79
5 -2 -7 27 9.63
5 -2 -7 10.47 8.43
-5 2 7 16.99 10.91
-5 2 7 14.07 9.27
-5 2 7 2.12 7.11
4 -2 -7 0.07 7.4
4 -2 -7 -7.67 8.25
4 -2 -7 -4.4 7.59
4 -2 -7 0.24 7.34
4 -2 -7 1.8 7.86
-4 2 7 -8.1 6.11
-4 2 7 14.38 8.76
-4 2 7 5.76 7.86
3 -2 -7 2 7.95
3 -2 -7 -1.33 6.56
3 -2 -7 16.95 8.69
3 -2 -7 -3.19 6.87
3 -2 -7 1.33 5.99
-3 2 7 0.22 7.77
-3 2 7 1.48 7.96
-3 2 7 -0.19 7.82
-3 2 7 4.09 6.42
2 -2 -7 -3.25 7.97
2 -2 -7 -3.66 8.3
2 -2 -7 8.34 7.09
2 -2 -7 0.8 7.72
-2 2 7 1.5 7.06
-2 2 7 1.13 7.6
-2 2 7 0.46 5.74
-2 2 7 3.23 11.4
-2 2 7 -4.3 7.51
1 -2 -7 -7.43 7.51
1 -2 -7 -3.13 6.35
1 -2 -7 5.01 5.94
1 -2 -7 0.15 5.88
1 -2 -7 -0.08 6.24
-1 2 7 16.3 6.49
-1 2 7 -12.61 6.04
-1 2 7 1.99 7.5
-1 2 7 5.48 8.87
-1 2 7 -3.66 8.16
0 -2 -7 3.71 5.54
0 -2 -7 7.76 6.61
0 -2 -7 12.3 8.71
0 -2 -7 5.65 5.93
0 2 7 -6.53 7.26
0 2 7 3.31 7.14
0 2 7 0.69 6.85
0 2 7 0.35 6.25
0 2 7 -8.09 8.31
-1 -2 -7 52.4 10.81
-1 -2 -7 56.81 7.69
-1 -2 -7 27.3 8.72
-1 -2 -7 45.45 9.88
1 2 7 43.42 11.03
1 2 7 37.73 14.66
1 2 7 32.77 8.87
1 2 7 31.1 8.35
1 2 7 49.16 9.51
-2 -2 -7 15.8 6.77
-2 -2 -7 -5.56 8.23
-2 -2 -7 21.33 7.96
2 2 7 6.46 7.7
2 2 7 -5.54 7.42
2 2 7 7.86 6.5
2 2 7 -8 8.96
2 2 7 13.18 7.63
-3 -2 -7 -6.2 8.39
-3 -2 -7 7.53 6.04
3 2 7 6.47 7.13
3 2 7 4.19 9.69
3 2 7 16.66 6.77
3 2 7 0.44 12.73
3 2 7 0.24 7.79
-4 -2 -7 3.71 9.01
4 2 7 -4.75 7.36
4 2 7 -23.53 13.57
4 2 7 -16.19 6.98
4 2 7 -3.41 7.39
4 2 7 -7.34 5.81
-5 -2 -7 7.54 9.63
5 2 7 -3.92 6.23
5 2 7 9.63 7.57
5 2 7 -0.59 11.13
5 2 7 -25.2 13.48
5 2 7 4.65 12.13
6 -3 -7 -0.44 9.39
6 -3 -7 4.98 9.6
6 -3 -7 0.96 8.81
6 -3 -7 -3.82 8.92
6 -3 -7 5.42 9.3
-6 3 7 -0.11 7.74
5 -3 -7 -0.88 9.32
5 -3 -7 5.32 8.71
5 -3 -7 2.77 9.35
5 -3 -7 14.21 8.78
5 -3 -7 -12.43 10.18
-5 3 7 4.4 9.44
-5 3 7 -3.26 7.03
-5 3 7 24.85 11.58
4 -3 -7 -3.42 8.87
4 -3 -7 -6.54 7.48
4 -3 -7 -0.31 7.39
4 -3 -7 -4.27 7.65
4 -3 -7 -5.78 8.48
-4 3 7 6.04 11.39
-4 3 7 -1.18 6.78
-4 3 7 2.28 9.01
3 -3 -7 13.98 9.11
3 -3 -7 8.48 7.91
3 -3 -7 2.97 7.23
3 -3 -7 14.45 7.9
3 -3 -7 -5.56 8.55
-3 3 7 2.57 8.28
-3 3 7 -1.52 6.65
-3 3 7 3.99 8.99
2 -3 -7 -1.97 8.55
2 -3 -7 -1.68 6.57
2 -3 -7 10.3 8.97
-2 3 7 -7.87 7.07
-2 3 7 -9.72 12.13
-2 3 7 1.86 6.6
-2 3 7 -4.02 7.66
-2 3 7 -3.29 7.27
1 -3 -7 17.17 8.99
1 -3 -7 3.04 7.14
1 -3 -7 -6.49 8.67
-1 3 7 -3.03 6.39
-1 3 7 -7.1 9.37
-1 3 7 1.94 7.7
-1 3 7 5.46 5.88
-1 3 7 -0.86 8.65
0 -3 -7 25.19 8
0 -3 -7 28.93 9.53
0 -3 -7 38.37 10.26
0 3 7 15.02 7.36
0 3 7 27.76 11.74
0 3 7 26.58 7.32
0 3 7 21.68 8.7
0 3 7 14.32 9.06
-1 -3 -7 -1.6 7.39
-1 -3 -7 -3.36 9.03
-1 -3 -7 -6.14 8.25
1 3 7 -0.87 13.56
1 3 7 10.1 8.24
1 3 7 3.3 7.68
1 3 7 14.31 9.24
1 3 7 7.81 6.96
-2 -3 -7 19.57 9.57
-2 -3 -7 -0.22 6.43
2 3 7 -3.39 13.18
2 3 7 15.57 8.32
2 3 7 0.39 8.99
2 3 7 3.43 7.02
2 3 7 14.68 7.48
-3 -3 -7 1.09 7.12
3 3 7 -16.67 12.52
3 3 7 0.28 7.1
3 3 7 5.96 7.23
3 3 7 4.18 6.65
3 3 7 8.93 10.27
-4 -3 -7 11.27 9.67
4 3 7 -4.28 13.88
4 3 7 8.02 11.3
4 3 7 7.12 8.14
4 3 7 13.33 7.09
4 3 7 25.69 8.54
5 3 7 5.42 7.35
5 3 7 -16.53 8.59
5 -4 -7 -15.72 8.5
5 -4 -7 7.87 8.63
5 -4 -7 -2.48 11.13
-5 4 7 -15.63 8
-5 4 7 14.45 12.43
-5 4 7 -0.43 9.41
4 -4 -7 -1.31 7.94
4 -4 -7 -11.77 10.07
4 -4 -7 -5.41 8.59
-4 4 7 -13.43 6.92
-4 4 7 -12.28 12.5
-4 4 7 3.46 8.9
3 -4 -7 25.4 10.69
3 -4 -7 24.28 10.32
3 -4 -7 10.02 8.17
-3 4 7 1.8 14.27
-3 4 7 14.34 9.43
-3 4 7 7.95 7.55
2 -4 -7 -14.6 8.05
2 -4 -7 2.99 9.85
-2 4 7 -4.91 10.48
-2 4 7 -7.99 6.38
-2 4 7 -11.2 7.86
-2 4 7 3.28 8.5
-2 4 7 -12.87 7.91
1 -4 -7 9.05 10.14
1 -4 -7 11.92 8.65
1 -4 -7 8.75 7.22
-1 4 7 -3.13 6.06
-1 4 7 -6.68 8.99
-1 4 7 -8.59 13.9
-1 4 7 5.38 8.16
-1 4 7 9.05 8.02
0 -4 -7 -7.92 7.65
0 -4 -7 8.67 9.62
0 4 7 11.33 8.94
0 4 7 -4.43 7.09
0 4 7 -21.14 13.1
0 4 7 -8.4 9.26
0 4 7 3.87 7.75
-1 -4 -7 5.94 7.82
-1 -4 -7 18.11 10.64
-1 -4 -7 3.28 9.38
1 4 7 15.51 9.34
1 4 7 21.96 10.39
1 4 7 3.75 14.46
1 4 7 2.34 7.76
1 4 7 18.27 8.01
-2 -4 -7 -1.72 10.06
-2 -4 -7 -6.61 10.33
2 4 7 -11.31 13.84
2 4 7 3.41 7.49
2 4 7 1.29 7.17
2 4 7 4.59 8.91
2 4 7 -2.69 9.67
-3 -4 -7 -3.73 9.68
3 4 7 -29.63 12.97
3 4 7 -9.26 6.78
3 4 7 1.23 7.74
3 4 7 -10.57 7.35
3 4 7 2.04 10.39
-4 -4 -7 0.99 10.17
4 4 7 -15.36 5.81
4 4 7 11.01 8.21
4 4 7 3.17 8.81
4 4 7 -25.47 14.51
4 -5 -7 13.49 9.07
4 -5 -7 13.12 10.5
4 -5 -7 -11.22 10.37
-4 5 7 -7.2 9.77
-4 5 7 8.72 7.91
-4 5 7 2.74 11.04
3 -5 -7 0.33 9.79
3 -5 -7 -2.23 8.3
3 -5 -7 1.35 9.95
-3 5 7 -1.92 7.2
-3 5 7 1.78 15.81
-3 5 7 -4.19 8.84
2 -5 -7 1.69 9.4
2 -5 -7 -10.95 8.58
-2 5 7 -12.75 8.74
-2 5 7 -0.57 7.46
-2 5 7 -18.68 14.5
1 -5 -7 17.33 9.27
1 -5 -7 16.9 11.12
-1 5 7 -16.91 14.75
-1 5 7 -2.41 8.22
-1 5 7 -2.3 8.07
-1 5 7 -6.92 7.01
-1 5 7 10.9 9.6
0 -5 -7 10.21 8.93
0 -5 -7 9.96 10.47
0 5 7 -9.72 6.93
0 5 7 -5.93 8.72
0 5 7 1.04 6.33
0 5 7 -12.32 10.75
0 5 7 15.24 9.86
-1 -5 -7 4.45 10.73
-1 -5 -7 -1.33 7.69
1 5 7 -23.56 13.72
1 5 7 6.59 8.86
1 5 7 27.09 9.06
1 5 7 20.57 9.85
1 5 7 7.1 9.94
-2 -5 -7 14.82 10.99
2 5 7 -35.06 13.34
2 5 7 -1.39 7.58
2 5 7 -14.12 9.75
2 5 7 4.15 8.69
2 5 7 4.09 8.03
-3 -5 -7 10.69 11.34
3 5 7 10.06 7.84
3 5 7 -4.8 7.17
3 5 7 1.3 8.94
2 -6 -7 21.32 9.97
2 -6 -7 25.44 12.22
-2 6 7 -22.1 11.96
-2 6 7 6.34 9.65
1 -6 -7 -27.06 9.03
1 -6 -7 11.98 9.42
-1 6 7 4.03 7.92
-1 6 7 -8.52 12.66
-1 6 7 2.29 9.89
-1 6 7 -4.74 8.63
-1 6 7 -6.55 8.93
0 -6 -7 0.19 11.36
0 -6 -7 -7.93 8.69
0 6 7 -22.99 15.88
0 6 7 9.86 11.22
0 6 7 26.96 9.24
0 6 7 11.34 10.16
0 6 7 16.39 9.57
1 6 7 -4.47 9.36
1 6 7 13.03 8.97
2 10 -8 22.25 9.17
1 10 -8 16.23 14.12
1 10 -8 7.25 9.04
1 10 -8 11.39 8.24
-1 -10 8 15.93 7.35
0 10 -8 6.28 13.21
0 10 -8 14.2 9.22
0 10 -8 24.39 10.82
0 -10 8 5.02 9.74
0 -10 8 9.66 7.83
-1 10 -8 4.16 8.17
-1 10 -8 -2.76 10.41
-1 10 -8 -6.88 12.07
1 -10 8 23.86 10.16
1 -10 8 -8.72 6.6
3 9 -8 -10.8 7.59
3 9 -8 0.52 14.2
3 9 -8 6.89 8.18
3 9 -8 -1.92 7.44
-3 -9 8 12.92 9.48
2 9 -8 -1.64 7.68
2 9 -8 -5.05 7.22
2 9 -8 8.36 13.41
2 9 -8 12.08 8.53
-2 -9 8 11.39 9.22
1 9 -8 22.55 9.08
1 9 -8 10.18 7.74
1 9 -8 9.87 7.68
1 9 -8 10.27 13.18
-1 -9 8 4.07 6.2
-1 -9 8 13.58 8.95
0 9 -8 4.84 5.8
0 9 -8 8.08 8.73
0 9 -8 1.6 7.09
0 9 -8 -11.75 11.3
0 -9 8 0.38 8.13
0 -9 8 2.12 8.43
0 -9 8 12.04 7.33
-1 9 -8 -7.36 10.9
-1 9 -8 13.36 7.51
1 -9 8 -6.28 8.37
1 -9 8 9.8 7.98
-2 9 -8 1.49 6.81
-2 9 -8 9.84 11.76
2 -9 8 -4.83 8.74
2 -9 8 6.61 7.45
-3 9 -8 -1.49 7.5
-3 9 -8 9.11 9.35
3 -9 8 4.24 8.27
3 -9 8 6.62 8.28
3 -9 8 3.41 9.37
3 -9 8 20.64 10.83
4 8 -8 -1.16 7.31
4 8 -8 6.01 7.31
4 8 -8 -6.55 6.92
4 8 -8 -15.31 13.62
-4 -8 8 -5.6 8.59
3 8 -8 1.82 8.56
3 8 -8 9 8.46
3 8 -8 12.07 8.09
3 8 -8 -11.24 12.52
-3 -8 8 1.97 8.93
2 8 -8 3.77 7.61
2 8 -8 -1.22 12.23
2 8 -8 -3.67 7.05
2 8 -8 6.91 7.79
-2 -8 8 0.12 5.23
-2 -8 8 -1.19 8.51
1 8 -8 5.28 6.87
1 8 -8 3.53 7.82
1 8 -8 1.23 11.73
1 8 -8 -4.54 7.75
-1 -8 8 -7.21 8.07
-1 -8 8 1.02 5.87
-1 -8 8 -0.02 8.1
0 8 -8 7.04 7.12
0 8 -8 16.92 8.98
0 8 -8 13.48 11.84
0 8 -8 1.78 7.13
0 -8 8 10.15 7.49
0 -8 8 -4.08 8.28
-1 8 -8 0.32 8.3
-1 8 -8 2.35 8.11
-1 8 -8 3.15 6.4
-1 8 -8 -2.63 5.49
1 -8 8 -2.75 6.71
1 -8 8 -0.53 8.17
1 -8 8 11.64 8.68
-2 8 -8 6.54 8.7
-2 8 -8 -2.16 6.36
-2 8 -8 13.31 11.2
2 -8 8 10.43 7.26
2 -8 8 2.14 7.52
2 -8 8 25.13 9.94
2 -8 8 7 8.59
-3 8 -8 -1.47 6.51
-3 8 -8 2.9 10.49
3 -8 8 8.29 7.78
3 -8 8 17.91 10.22
3 -8 8 -9.7 6.92
3 -8 8 11.85 8.33
-4 8 -8 15.38 9.74
-4 8 -8 21.14 8.63
4 -8 8 34.68 10.74
4 -8 8 9.76 10.07
4 -8 8 35.87 11.44
4 -8 8 12.28 8.86
5 7 -8 -10.36 7.29
5 7 -8 -3.38 14.21
5 7 -8 -7.88 7.31
-5 -7 8 4.75 8.45
4 7 -8 -3.52 7.84
4 7 -8 13.58 13.66
4 7 -8 -3.57 7.14
4 7 -8 -3.12 6.89
-4 -7 8 3.25 8.51
3 7 -8 1.98 7.92
3 7 -8 8.91 12.21
3 7 -8 -14.61 6.51
3 7 -8 0.32 7.45
-3 -7 8 9.17 5.35
-3 -7 8 11.36 8.71
2 7 -8 4.4 7.18
2 7 -8 -1.13 6.93
2 7 -8 2.6 7.46
2 7 -8 -11.58 10.66
-2 -7 8 4.11 7.98
-2 -7 8 12.12 7.79
-2 -7 8 2.17 5.58
1 7 -8 12.35 7.25
1 7 -8 -8.52 7
1 7 -8 -3.24 6.69
1 7 -8 -6.72 10.19
-1 -7 8 6.89 6.49
-1 -7 8 3.61 7.22
0 7 -8 -6.64 6.34
0 7 -8 5.72 7.97
0 7 -8 10.8 8.65
0 7 -8 -3.79 6.93
0 -7 8 12.3 7.25
0 -7 8 3.04 7.69
0 -7 8 15.52 8.19
-1 7 -8 6.36 7.94
-1 7 -8 -1.42 9.69
-1 7 -8 -2.98 6.8
-1 7 -8 -3.64 6.1
1 -7 8 -6.81 7.18
1 -7 8 9.07 6.71
1 -7 8 2.76 7.58
1 -7 8 4.94 5.97
-2 7 -8 2.63 9.81
-2 7 -8 11.77 8.45
-2 7 -8 6.57 6.59
2 -7 8 8.92 8.68
2 -7 8 0.31 6.62
2 -7 8 4.68 6.12
2 -7 8 14.09 8.55
-3 7 -8 -2.11 6.31
-3 7 -8 9.13 10.34
-3 7 -8 9.43 9.18
3 -7 8 13.78 7.53
3 -7 8 2.24 7.36
3 -7 8 -2.93 7.96
3 -7 8 18.18 9.61
-4 7 -8 13.18 8.67
4 -7 8 -10.02 8.19
4 -7 8 -6.23 7.94
4 -7 8 12.91 8.88
4 -7 8 14.31 10.24
-5 7 -8 -6.18 8.22
6 6 -8 -2.38 6.77
6 6 -8 0.23 7.06
6 6 -8 -11.7 15.82
5 6 -8 7.39 6.75
5 6 -8 5.57 7.85
5 6 -8 5.27 8.6
5 6 -8 -5.87 13.05
-5 -6 8 0.75 8.37
4 6 -8 6.31 7.53
4 6 -8 20.12 7.98
4 6 -8 15.95 13.24
4 6 -8 -2.4 7.33
-4 -6 8 -2.41 7.35
3 6 -8 6.01 7
3 6 -8 -12.39 10.55
3 6 -8 -4.54 5.94
3 6 -8 -1.01 6.37
3 6 -8 -0.2 6.86
-3 -6 8 0.85 5.22
-3 -6 8 -1.4 7.62
2 6 -8 10.03 11.07
2 6 -8 13.2 7.11
2 6 -8 -7.09 6.32
2 6 -8 5.69 7.28
-2 -6 8 -4.94 7.35
-2 -6 8 -9.53 6.56
-2 -6 8 2.59 5.61
1 6 -8 0.96 6.78
1 6 -8 -0.81 7.3
1 6 -8 -4.66 6.43
1 6 -8 2.27 7.61
-1 -6 8 1.14 7.26
-1 -6 8 -6.23 7.29
-1 -6 8 3.8 5.53
0 6 -8 20.81 10.56
0 6 -8 -2 5.71
0 6 -8 9.7 7.76
0 6 -8 6.66 5.78
0 6 -8 -4.83 6.2
0 -6 8 19.74 8.24
0 -6 8 5.86 6.03
0 -6 8 2.57 5.83
-1 6 -8 -9.6 5.61
-1 6 -8 1.44 7.43
-1 6 -8 -3.99 7.1
-1 6 -8 -2.97 5.69
-1 6 -8 6.39 7.68
1 -6 8 -13.77 5.55
1 -6 8 -3.54 7.13
1 -6 8 -5.42 5.01
1 -6 8 -1.53 7.29
-2 6 -8 4.9 9.45
-2 6 -8 15.12 8.46
-2 6 -8 15.64 6.76
-2 6 -8 -6.86 6
2 -6 8 5.28 6.42
2 -6 8 15.31 8.05
2 -6 8 8.89 8.03
2 -6 8 -3.84 5.49
2 -6 8 -2.84 7.31
-3 6 -8 8.52 9.94
-3 6 -8 8.85 6.73
-3 6 -8 -3.12 6.56
-3 6 -8 7.9 6.37
3 -6 8 -8.62 6.48
3 -6 8 1.52 6.73
3 -6 8 -0.97 6.24
3 -6 8 -3.53 5.58
3 -6 8 3.08 8.07
-4 6 -8 -4.71 8.91
-4 6 -8 6.15 7.97
-4 6 -8 -0.8 6.93
4 -6 8 5.66 7.77
4 -6 8 17.26 8.81
4 -6 8 2.23 8.08
4 -6 8 -0.87 7.07
4 -6 8 0.76 9
-5 6 -8 1.42 7.9
-5 6 -8 4.13 8.23
5 -6 8 0.92 7.61
5 -6 8 -2.05 8.4
5 -6 8 13.32 10
5 -6 8 5.01 9.45
5 -6 8 8.21 8.3
6 5 -8 0.32 7.28
6 5 -8 -7.02 8.47
6 5 -8 3.26 7.36
6 5 -8 10.95 13.54
5 5 -8 3.1 6.67
5 5 -8 1.16 12.55
5 5 -8 22.08 9.06
5 5 -8 13.88 7.71
5 5 -8 8.06 8.41
-5 -5 8 7.63 6.82
4 5 -8 -6.02 8.53
4 5 -8 1.07 7.31
4 5 -8 -1.35 7.18
4 5 -8 -8.64 7.75
4 5 -8 -3.24 6.33
-4 -5 8 8.11 8.21
-4 -5 8 1 4.28
3 5 -8 -1.11 7.04
3 5 -8 7.03 7.06
3 5 -8 -7.45 7.55
3 5 -8 -0.81 11.04
3 5 -8 8.72 6.73
-3 -5 8 3.48 4.94
-3 -5 8 20.06 7.49
-3 -5 8 -0.53 6.82
2 5 -8 6.29 7.95
2 5 -8 5.05 6.9
2 5 -8 6.7 6.67
2 5 -8 -10.91 6.5
2 5 -8 -4.28 6.52
-2 -5 8 2.14 5.2
-2 -5 8 -2.42 7.28
-2 -5 8 8.48 7.33
1 5 -8 -2.26 9.54
1 5 -8 0.36 6.54
1 5 -8 -1.29 6.37
1 5 -8 -6.36 6.73
-1 -5 8 3 5.74
-1 -5 8 4.11 7.51
-1 -5 8 1.94 6.91
0 5 -8 1.94 6.11
0 5 -8 10.91 7.86
0 5 -8 2.29 6.46
0 5 -8 1.18 5.42
0 5 -8 -0.75 6.89
0 -5 8 1.87 7.07
0 -5 8 1.98 7.31
0 -5 8 -8.21 5.41
0 -5 8 -3.04 4.02
0 -5 8 0.05 6.55
-1 5 -8 8.23 6.31
-1 5 -8 1.91 9.35
-1 5 -8 9.89 7.84
-1 5 -8 -0.88 6.83
-1 5 -8 -9.31 5.59
1 -5 8 2.51 7.48
1 -5 8 10.73 7.74
1 -5 8 5.11 6.24
1 -5 8 3.11 4.94
1 -5 8 2.86 6.72
-2 5 -8 3.42 6.3
-2 5 -8 4.73 9.09
-2 5 -8 -1.16 5.91
-2 5 -8 12.76 8.28
2 -5 8 0.93 7.26
2 -5 8 21.75 6.45
2 -5 8 3.82 6.07
2 -5 8 1.82 7.74
2 -5 8 3.15 7.15
-3 5 -8 1.22 6.56
-3 5 -8 -1.16 8.32
-3 5 -8 -1.31 8.54
-3 5 -8 0.32 6.32
3 -5 8 2.5 7.88
3 -5 8 13.61 6.74
3 -5 8 5.33 6.94
3 -5 8 5.78 8.69
3 -5 8 12.78 6.21
-4 5 -8 9.22 8.78
-4 5 -8 17.54 8.03
-4 5 -8 8.29 8.26
4 -5 8 38.28 9.37
4 -5 8 26.74 9.12
4 -5 8 4.97 5.81
4 -5 8 25.3 10.15
4 -5 8 11.74 7.72
-5 5 -8 5.11 9.59
-5 5 -8 9.47 7.57
5 -5 8 -8.14 7.5
5 -5 8 -0.98 7.76
5 -5 8 5.37 10.14
5 -5 8 -13.72 7.63
5 -5 8 0.17 6.97
6 4 -8 3.53 8.57
6 4 -8 -6.3 6.18
6 4 -8 5.42 9.82
6 4 -8 18.88 13.74
6 4 -8 -9.57 6.9
5 4 -8 -0.69 8.72
5 4 -8 6.08 12.33
5 4 -8 0.02 7.45
5 4 -8 -8.28 6.41
5 4 -8 6.72 7.74
4 4 -8 -1.27 7.38
4 4 -8 14.37 11.89
4 4 -8 10.19 6.77
4 4 -8 25.34 8.93
4 4 -8 2.11 6.33
-4 -4 8 7.27 4.91
-4 -4 8 29.99 7.91
3 4 -8 -5.7 6.88
3 4 -8 -0.47 7.08
3 4 -8 -8.98 6.67
3 4 -8 0.45 10.63
3 4 -8 -6.34 6.18
-3 -4 8 -1.52 6.95
-3 -4 8 0.13 6.09
-3 -4 8 -1.35 5.49
2 4 -8 1.9 5.11
2 4 -8 4.29 10.34
2 4 -8 -1.78 6.55
2 4 -8 7.05 6.81
2 4 -8 -2.71 6.36
-2 -4 8 0.59 5.33
-2 -4 8 4.9 6.22
-2 -4 8 4.69 7.29
1 4 -8 4.7 6.33
1 4 -8 6.23 5.19
1 4 -8 7.54 7.62
1 4 -8 1.25 6.35
1 4 -8 3.33 9.04
-1 -4 8 4.47 5.2
-1 -4 8 2.37 6.43
-1 -4 8 1.07 7.4
-1 -4 8 8.75 6.73
0 4 -8 0.75 5.17
0 4 -8 8.35 6.12
0 4 -8 -5.27 4.9
0 4 -8 3 8.81
0 -4 8 -4.4 3.91
0 -4 8 1.71 6.76
0 -4 8 3.73 6.71
0 -4 8 5.67 6.33
0 -4 8 -3.09 5.67
-1 4 -8 22.74 8.94
-1 4 -8 34.81 8.26
-1 4 -8 19.37 6.78
-1 4 -8 23.96 8.26
-1 4 -8 19.22 8.01
1 -4 8 5.65 5.73
1 -4 8 23.29 6.45
1 -4 8 10.82 6.59
1 -4 8 13.17 6.7
1 -4 8 32.16 7.92
-2 4 -8 14.82 7.55
-2 4 -8 18 9.43
-2 4 -8 13.74 8.36
-2 4 -8 1.73 7.42
2 -4 8 5.88 7.13
2 -4 8 10.13 6.75
2 -4 8 11.95 6.56
2 -4 8 9.71 8.48
2 -4 8 11.36 7.57
-3 4 -8 5.92 6.46
-3 4 -8 -1.16 7.24
-3 4 -8 20.27 8.81
-3 4 -8 7.67 9.07
3 -4 8 9.65 7.5
3 -4 8 4.91 7.07
3 -4 8 8.38 9.14
3 -4 8 13.16 7.68
3 -4 8 -5.44 6.62
-4 4 -8 11.62 9.42
-4 4 -8 -4.4 6.29
-4 4 -8 -8.41 8.19
4 -4 8 0.45 10
4 -4 8 -9.07 4.69
4 -4 8 24.68 8.74
4 -4 8 5.6 8.14
4 -4 8 7.89 8.2
-5 4 -8 -1.44 8.62
-5 4 -8 -5.92 6.9
5 -4 8 1.61 9.29
5 -4 8 6.73 8.31
5 -4 8 11.8 7.78
5 -4 8 9.9 10.94
5 -4 8 -6.51 7.93
6 3 -8 -0.94 7.86
6 3 -8 6.52 9.62
6 3 -8 4.03 12.52
6 3 -8 8.68 8.18
6 3 -8 -8.01 9.6
5 3 -8 -12.81 10.65
5 3 -8 -1.75 7.96
5 3 -8 -3.41 6.71
5 3 -8 7.59 7.36
5 3 -8 -2.25 9
4 3 -8 -1.98 7.15
4 3 -8 0.86 6.33
4 3 -8 4.97 8.86
4 3 -8 -12.44 10.5
4 3 -8 3.15 7.26
-4 -3 8 1.21 7.22
-4 -3 8 6.72 6.08
-4 -3 8 0.77 5.29
3 3 -8 -7.69 9.77
3 3 -8 -4.93 6.94
3 3 -8 1.19 7.06
3 3 -8 1.99 6.31
3 3 -8 4.31 7.75
-3 -3 8 -0.65 7.33
-3 -3 8 10.96 6.75
-3 -3 8 5.99 6.07
2 3 -8 -3.33 6.97
2 3 -8 -3.76 6.15
2 3 -8 14.26 10.05
2 3 -8 1.13 6.58
2 3 -8 1.54 6.98
-2 -3 8 3.27 7.48
-2 -3 8 6.21 6.18
-2 -3 8 0.34 5.87
1 3 -8 4.89 6.66
1 3 -8 -1.81 8.58
1 3 -8 2.81 5.36
1 3 -8 3.22 6.71
1 3 -8 9.91 6.83
-1 -3 8 4.93 4.95
-1 -3 8 2.54 5.61
-1 -3 8 0.85 6.42
-1 -3 8 -0.13 3.28
-1 -3 8 -2.08 6.78
0 3 -8 11.55 7.47
0 3 -8 6.12 7.33
0 3 -8 22.35 9.17
0 3 -8 12.73 6.37
0 -3 8 24.37 6.77
0 -3 8 5.85 7.35
0 -3 8 10.08 5.39
0 -3 8 37.2 8.2
0 -3 8 11.65 5.22
-1 3 -8 1.64 8.06
-1 3 -8 0.89 5.71
-1 3 -8 2.36 7.67
-1 3 -8 1.6 5.98
-1 3 -8 11.36 5.64
1 -3 8 3.83 6.89
1 -3 8 3.28 6.16
1 -3 8 6.82 6.88
1 -3 8 0.48 5.84
1 -3 8 4.69 7.82
-2 3 -8 1.48 6.1
-2 3 -8 -2.76 7.49
-2 3 -8 -4.77 8.16
-2 3 -8 -1.22 6.05
2 -3 8 -6.57 6.52
2 -3 8 -0.76 6.17
2 -3 8 4.3 7.12
2 -3 8 3.21 6.44
2 -3 8 -10.6 5.81
-3 3 -8 -3.99 7.79
-3 3 -8 -0.91 6.24
-3 3 -8 -1.89 7.8
-3 3 -8 7.98 8.11
3 -3 8 9.31 7.17
3 -3 8 -5.39 6.99
3 -3 8 -5.06 6.43
3 -3 8 -6.82 8.74
3 -3 8 -6.32 6.51
-4 3 -8 2.67 8.54
-4 3 -8 -4.31 6.56
-4 3 -8 7.44 8.37
4 -3 8 5.12 5.32
4 -3 8 7.29 7.39
4 -3 8 0.21 10.29
4 -3 8 2.42 8.53
4 -3 8 11.64 7.69
-5 3 -8 11.63 9.71
5 -3 8 8.99 7.01
5 -3 8 6.72 9.75
5 -3 8 1.87 7.74
5 -3 8 13.89 12.14
5 -3 8 -7.91 7.68
6 -3 8 -2.52 7.29
6 -3 8 3.34 10.35
6 2 -8 1.11 7.64
6 2 -8 2.48 8.15
6 2 -8 17.53 12.88
6 2 -8 -9.64 9.93
5 2 -8 2.56 9.82
5 2 -8 0.11 10.86
5 2 -8 -1 7.35
5 2 -8 0.33 7.89
5 2 -8 -8.93 7.34
-5 -2 8 -10.44 5.04
4 2 -8 6.45 7.96
4 2 -8 18.84 9.77
4 2 -8 14.83 8.32
4 2 -8 -1.94 6.76
4 2 -8 -5.65 10.07
-4 -2 8 13.05 7.87
-4 -2 8 -6.58 5.45
3 2 -8 0.34 9.89
3 2 -8 7.38 7.64
3 2 -8 14.72 7.98
3 2 -8 -0.94 6.26
3 2 -8 18.94 9.01
-3 -2 8 12.96 5.65
-3 -2 8 18.49 7.71
-3 -2 8 8.15 5.54
2 2 -8 -3.8 7.6
2 2 -8 6.98 9.11
2 2 -8 -8.29 7.02
2 2 -8 14.96 7.32
2 2 -8 0.57 6.72
-2 -2 8 -0.67 6.31
-2 -2 8 8.64 7.2
-2 -2 8 -3.47 5.47
1 2 -8 18.82 8.8
1 2 -8 20.76 6.48
1 2 -8 18.5 7.95
1 2 -8 2.78 6.38
1 2 -8 7.18 5.7
-1 -2 8 20.84 7.58
-1 -2 8 23.22 6.08
-1 -2 8 14.06 6.15
-1 -2 8 16.69 5.04
-1 -2 8 21.18 7.84
0 2 -8 10.08 6.5
0 2 -8 0.2 6.58
0 2 -8 17.23 8.45
0 2 -8 11.06 7.54
0 -2 8 6.49 6.79
0 -2 8 -0.21 5.31
0 -2 8 16.61 7.13
0 -2 8 2.29 7.41
0 -2 8 2.24 6.16
0 -2 8 12.54 9.4
-1 2 -8 17.92 8.79
-1 2 -8 13.33 7.2
-1 2 -8 24.42 6.62
-1 2 -8 12.8 7.76
-1 2 -8 21.07 8.82
1 -2 8 13.05 6.36
1 -2 8 17.02 7.04
1 -2 8 9.43 8.63
1 -2 8 7.32 7.28
1 -2 8 5.07 6.51
1 -2 8 18.18 6.19
-2 2 -8 0.12 6.14
-2 2 -8 2.64 7.67
-2 2 -8 -0.9 7.52
-2 2 -8 9.82 8.47
2 -2 8 4.15 6.91
2 -2 8 -8.01 6.32
2 -2 8 -1.16 4.93
2 -2 8 3.32 6.89
2 -2 8 -2.49 7.5
2 -2 8 -2.39 8.81
-3 2 -8 2.78 7.18
-3 2 -8 9.99 8.03
-3 2 -8 10.17 8.66
-3 2 -8 7.99 8.37
3 -2 8 14.43 7.23
3 -2 8 6.41 7.43
3 -2 8 4.32 7.69
3 -2 8 2.45 7.41
3 -2 8 11.37 7.63
3 -2 8 12.94 7.11
-4 2 -8 -0.04 6.61
-4 2 -8 -5.04 6.3
4 -2 8 3.82 11.02
4 -2 8 -5.8 6.3
4 -2 8 -6.73 6.78
4 -2 8 9.71 8.84
4 -2 8 5.89 8.12
-5 2 -8 -0.88 9.73
5 -2 8 6.3 6.92
5 -2 8 16.68 8.23
5 -2 8 -1.81 6.94
5 -2 8 -12.43 11.02
5 -2 8 0.9 9.58
6 1 -8 11.26 8.83
6 1 -8 -3.9 8.89
6 1 -8 1.62 11.68
6 1 -8 -14.36 10.15
5 1 -8 16.12 8.81
5 1 -8 -10.46 10
5 1 -8 1.68 10.63
5 1 -8 -1.28 7.06
-5 -1 8 -4 5.71
4 1 -8 21.78 8.38
4 1 -8 16.83 7.83
4 1 -8 21.84 8.94
4 1 -8 32.38 11.3
4 1 -8 31.52 10.89
-4 -1 8 27.65 8.61
-4 -1 8 17.27 6.28
3 1 -8 2.55 8.96
3 1 -8 -1.73 7.27
3 1 -8 6.19 6.14
3 1 -8 -0.62 8.62
3 1 -8 0.81 5.42
-3 -1 8 3.19 6.5
-3 -1 8 8.63 5.59
-3 -1 8 10.1 8.13
2 1 -8 9.03 7.12
2 1 -8 9.85 7.44
2 1 -8 -6.7 7.05
2 1 -8 -6.28 7.98
2 1 -8 1.95 6.13
-2 -1 8 5.18 6.71
-2 -1 8 2.67 6.68
-2 -1 8 0.89 7.28
-2 -1 8 -3.91 5.56
-2 -1 8 4.35 6.68
1 1 -8 -0.15 5.46
1 1 -8 11.98 7.83
1 1 -8 11.93 6.18
1 1 -8 6.94 6.9
1 1 -8 7.69 7.83
-1 -1 8 -2.03 6.68
-1 -1 8 9.74 6.23
-1 -1 8 9.71 8.26
-1 -1 8 4.47 8.78
-1 -1 8 9.13 7
0 1 -8 31.87 8.04
0 1 -8 45.81 7.98
0 1 -8 43.79 9.43
0 1 -8 38.51 9.1
0 -1 8 35.08 9.87
0 -1 8 30.7 7.34
0 -1 8 32.89 7.31
0 -1 8 35.04 11.05
0 -1 8 34.81 8.03
-1 1 -8 -7.67 6.58
-1 1 -8 6.55 6.59
-1 1 -8 -3.48 7.69
-1 1 -8 -3.12 7.14
1 -1 8 0.41 8.68
1 -1 8 -1.47 6.82
1 -1 8 -1.12 9.16
1 -1 8 6.74 6.52
1 -1 8 -3.96 6.38
1 -1 8 -0.83 6.86
-2 1 -8 7.4 7.56
-2 1 -8 13.17 7.43
-2 1 -8 -3.65 8.33
-2 1 -8 7.7 8.55
2 -1 8 -1.79 8.62
2 -1 8 -3.33 6.45
2 -1 8 8.8 7.65
2 -1 8 1 6.82
2 -1 8 9.2 10.01
2 -1 8 5.61 7.37
-3 1 -8 8.24 6.91
-3 1 -8 1.12 7.04
-3 1 -8 1.75 7.84
3 -1 8 -9.79 9.67
3 -1 8 2.55 6.63
3 -1 8 -4.05 6.79
3 -1 8 -1.41 8.56
3 -1 8 -1.89 7.52
3 -1 8 8.58 8.3
-4 1 -8 11.16 6.48
-4 1 -8 18.81 9.2
4 -1 8 24.67 12.89
4 -1 8 17.63 8.57
4 -1 8 15.04 7.1
4 -1 8 8.42 9.54
4 -1 8 5.47 11.33
4 -1 8 16.48 8.63
-5 1 -8 4.68 9.71
5 -1 8 -22.76 11.64
5 -1 8 1.37 8.21
5 -1 8 1.65 6.74
5 -1 8 -0.48 9.81
5 -1 8 2.39 7.42
6 0 -8 -10.25 10.73
6 0 -8 -17.63 8.33
6 0 -8 7.6 8.98
6 0 -8 7.84 10.94
6 0 -8 13.02 8.89
-6 0 8 12.53 8.86
5 0 -8 -0.43 7.84
5 0 -8 11.49 9.09
5 0 -8 5.09 8.15
5 0 -8 12.79 10.53
5 0 -8 9.54 8.72
-5 0 8 19.99 8.84
-5 0 8 6.78 6.72
4 0 -8 7.96 10.09
4 0 -8 -4.26 7.7
4 0 -8 6.6 9.6
4 0 -8 -8.61 7.88
-4 0 8 9.22 6.37
-4 0 8 0.82 8.14
3 0 -8 20.49 8.6
3 0 -8 32.59 10.35
3 0 -8 42.86 10.15
3 0 -8 25.41 9.32
3 0 -8 50.24 11.41
-3 0 8 40.75 9.67
-3 0 8 43.16 12.12
-3 0 8 53.28 7.81
-3 0 8 35.87 7.97
2 0 -8 -1.85 6.08
2 0 -8 -0.89 7.93
2 0 -8 11.66 7.4
2 0 -8 -1.66 8.01
2 0 -8 2.42 7.67
-2 0 8 7.59 7.39
-2 0 8 -2.95 6.22
-2 0 8 -0.01 7.29
-2 0 8 2.86 7.16
-2 0 8 -1.1 8.87
1 0 -8 16.56 8.79
1 0 -8 17.9 7.39
1 0 -8 22.42 9.13
1 0 -8 29.49 7.69
1 0 -8 28.78 7.08
-1 0 8 11.01 8.38
-1 0 8 27.3 8.36
-1 0 8 14.03 7.05
-1 0 8 9.44 7.96
-1 0 8 23.05 11.03
0 0 -8 12.42 7.09
0 0 -8 18.72 8.72
0 0 -8 10.92 7.87
0 0 -8 13.3 6.75
0 0 8 11.41 6.87
0 0 8 4.94 8.69
0 0 8 20.86 7.72
0 0 8 16.46 7.61
0 0 8 13.47 11.18
-1 0 -8 33.29 7.98
-1 0 -8 23.63 7.74
-1 0 -8 19.54 8.97
-1 0 -8 28.15 8.26
1 0 8 10.55 7.42
1 0 8 20.5 10.34
1 0 8 15.43 8.06
1 0 8 12.61 11.13
1 0 8 25.72 8.71
-2 0 -8 13.69 6.85
-2 0 -8 4.22 8.69
-2 0 -8 11.18 8.24
-2 0 -8 5.16 7.64
2 0 8 0.15 7.56
2 0 8 -4.66 9.63
2 0 8 7.12 7.29
2 0 8 5.3 11.2
2 0 8 17.19 7.68
-3 0 -8 6.17 10.29
-3 0 -8 0.09 6.8
-3 0 -8 1.72 9.21
3 0 8 -4.28 8.02
3 0 8 13.33 7.5
3 0 8 10.71 9.06
3 0 8 -7.37 6.54
3 0 8 -4.84 10.6
3 0 8 -7.45 10.23
-4 0 -8 0.23 8.93
4 0 8 8.01 8.25
4 0 8 18.76 7.3
4 0 8 0.93 7.35
4 0 8 8.35 11.25
4 0 8 2.18 7.46
4 0 8 -5.88 11.56
-5 0 -8 15.47 10.23
5 0 8 -5.55 12.54
5 0 8 10.63 8.21
5 0 8 1.03 7.25
5 0 8 4.6 7.32
5 0 8 3.07 10.72
6 -1 -8 -18.65 8.58
6 -1 -8 -7.89 8.16
6 -1 -8 -12.76 8.21
6 -1 -8 0.44 10.23
6 -1 -8 -10.56 7.93
-6 1 8 -2.44 6.67
5 -1 -8 5.95 8.08
5 -1 -8 15.16 10.76
5 -1 -8 27.03 9.86
5 -1 -8 17.09 9.44
5 -1 -8 13 11.7
-5 1 8 11.16 9.18
-5 1 8 21.71 7.97
4 -1 -8 3.08 9.3
4 -1 -8 -1 10.29
4 -1 -8 -3.51 8.07
4 -1 -8 1.54 7.68
-4 1 8 9.06 10.67
-4 1 8 -8.46 6.34
-4 1 8 10.28 7.26
3 -1 -8 15.7 8.9
3 -1 -8 9.59 7.6
3 -1 -8 3.65 8.62
3 -1 -8 10.94 8.78
-3 1 8 19.35 9.15
-3 1 8 12.45 9
-3 1 8 17.95 7.11
2 -1 -8 -6.7 8.27
2 -1 -8 -1.95 8.66
2 -1 -8 4.96 7.08
2 -1 -8 -10.68 7.51
2 -1 -8 -1.7 8.09
-2 1 8 -0.52 5.85
-2 1 8 -3.57 6.24
-2 1 8 1.5 10.43
-2 1 8 -8.53 6.53
-2 1 8 -8.33 7.6
1 -1 -8 2.9 7.35
1 -1 -8 -7.84 6.65
1 -1 -8 -5.83 5.59
1 -1 -8 1.93 8.36
-1 1 8 2.93 6.06
-1 1 8 16.25 12.02
-1 1 8 -7.11 7.69
-1 1 8 2.61 7.12
-1 1 8 2.46 6.63
0 -1 -8 14.91 6.88
0 -1 -8 13.37 9
0 -1 -8 17.23 8.4
0 -1 -8 13.37 7.43
0 1 8 20.9 7.99
0 1 8 19.78 7.53
0 1 8 15.78 6.53
0 1 8 4.14 9.29
0 1 8 1.72 8.82
-1 -1 -8 0.71 6.44
-1 -1 -8 -0.02 8.47
-1 -1 -8 -4.25 6.75
-1 -1 -8 16.69 7.07
1 1 8 -10.3 6.35
1 1 8 -2.58 7.49
1 1 8 -7.67 6.54
1 1 8 -11.97 11.82
1 1 8 -3.09 9.2
-2 -1 -8 -3.25 6.95
-2 -1 -8 7.76 8.22
-2 -1 -8 6.27 9.17
2 1 8 -15.96 12.14
2 1 8 -11.72 9.6
2 1 8 6.79 7.25
2 1 8 1.47 7.49
2 1 8 -11.76 7.09
-3 -1 -8 -0.42 9.11
-3 -1 -8 0.26 6.77
3 1 8 6.82 7.15
3 1 8 -11.9 11.5
3 1 8 -3.28 10.82
3 1 8 13.03 8.41
3 1 8 2.18 7.53
-4 -1 -8 -0.51 8.84
4 1 8 11.83 8.21
4 1 8 15.16 10.58
4 1 8 -7.33 8.21
4 1 8 -7.51 11.58
4 1 8 0.89 7.53
4 1 8 -28.07 13.73
-5 -1 -8 -2.13 8.61
5 1 8 5.88 6.8
5 1 8 -0.59 8.46
5 1 8 -5.33 7.75
5 -2 -8 -4.35 9.45
5 -2 -8 0.94 11.55
5 -2 -8 -2.48 8.5
5 -2 -8 -1.15 8.51
5 -2 -8 1.75 9.42
-5 2 8 -8.84 7.79
-5 2 8 -6.88 8.48
-5 2 8 12.39 11.48
4 -2 -8 -10.95 10.04
4 -2 -8 0.1 6.96
4 -2 -8 0.3 8.33
4 -2 -8 7.51 8.46
4 -2 -8 -4.24 8.3
-4 2 8 9.78 9.08
-4 2 8 5.98 7.34
-4 2 8 7.1 11.12
3 -2 -8 15.01 9.44
3 -2 -8 8.17 9.17
3 -2 -8 11.15 10.33
-3 2 8 5.1 8.58
-3 2 8 9.19 7.13
-3 2 8 12.16 9.22
2 -2 -8 3.54 9.09
2 -2 -8 0.12 7.41
2 -2 -8 -7.59 9.02
2 -2 -8 -4.77 6.75
-2 2 8 -12.77 8.55
-2 2 8 -9.32 6.27
-2 2 8 -9.51 7.85
-2 2 8 3 11.87
1 -2 -8 10.92 9.12
1 -2 -8 9.6 9.62
1 -2 -8 -10.19 7.8
-1 2 8 -6.15 8.38
-1 2 8 10.16 8.16
-1 2 8 17.54 7.05
-1 2 8 14.92 13.67
-1 2 8 8.94 6.84
0 -2 -8 8.36 8.43
0 -2 -8 12.83 9.57
0 2 8 8.92 7.45
0 2 8 9.96 10.47
0 2 8 1.47 9.35
0 2 8 10.1 8.36
0 2 8 13.92 6.51
-1 -2 -8 0.87 7.25
-1 -2 -8 1.36 8.23
-1 -2 -8 -1.77 9.12
1 2 8 19.7 8.04
1 2 8 17.32 14.73
1 2 8 10.33 7.7
1 2 8 2.68 9.81
1 2 8 3.2 7.95
-2 -2 -8 10.58 9.96
-2 -2 -8 5.26 7.06
2 2 8 1.39 8.32
2 2 8 -3.26 7.48
2 2 8 -21.2 13.6
2 2 8 0.2 10.14
2 2 8 2.06 7.32
-3 -2 -8 1.82 9.72
3 2 8 -22.76 12.68
3 2 8 -0.48 8.72
3 2 8 2.71 10.98
3 2 8 7.92 8.54
3 2 8 7.74 7.67
-4 -2 -8 0.12 9.58
4 2 8 1.26 7.86
4 2 8 -12.85 11.39
4 2 8 -11.35 6.59
4 2 8 -21.31 14.14
4 2 8 -8.71 7.25
5 -3 -8 8.01 9.07
5 -3 -8 -5.11 12.67
-5 3 8 4.45 10.47
-5 3 8 2.93 8.44
-5 3 8 40.77 12.73
4 -3 -8 14.59 10.22
4 -3 -8 0.19 10.87
4 -3 -8 -14.32 7.93
-4 3 8 18.75 10.19
-4 3 8 1.32 7.51
-4 3 8 7.45 12.32
3 -3 -8 14.47 9.63
3 -3 -8 -0.03 10.18
-3 3 8 5.27 13.23
-3 3 8 1.73 9.08
-3 3 8 11.05 7.66
2 -3 -8 -11.29 8.67
2 -3 -8 3.1 7.64
2 -3 -8 4.71 9.97
-2 3 8 -1.32 9.74
-2 3 8 4.91 10.66
-2 3 8 -4.32 6.69
-2 3 8 4.94 8.27
1 -3 -8 4.26 7.06
1 -3 -8 -2.28 7.61
1 -3 -8 -14.59 9.34
-1 3 8 -14.71 9.75
-1 3 8 -4.62 9.98
-1 3 8 0.15 7.02
-1 3 8 2.09 8.21
-1 3 8 4.14 8.61
0 -3 -8 6.26 9.2
0 -3 -8 -10.58 8.33
0 3 8 12.07 6.82
0 3 8 9.7 7.7
0 3 8 -10.52 14.2
0 3 8 12.14 10.12
0 3 8 -8.26 7.91
-1 -3 -8 26.02 10.23
-1 -3 -8 8.22 8.22
-1 -3 -8 21.2 10.84
1 3 8 7.76 10.27
1 3 8 13.79 9.4
1 3 8 -4.15 11.27
1 3 8 11.59 8.2
1 3 8 2.64 8.04
-2 -3 -8 9.69 10.33
-2 -3 -8 1.25 7.33
2 3 8 -21.69 7.98
2 3 8 1.87 7.38
2 3 8 -14.07 10.05
2 3 8 -3.74 11.52
2 3 8 -2.65 8.04
-3 -3 -8 -12.18 6.74
3 3 8 -3.86 8.96
3 3 8 -23.28 15.23
3 3 8 5.08 8.95
3 3 8 2.33 7.29
3 3 8 6.62 11.58
4 -4 -8 11.03 9.42
-4 4 8 -8.69 13.08
-4 4 8 4.89 10.31
-4 4 8 -16.33 7.17
3 -4 -8 5.01 10.59
3 -4 -8 -13.99 9.81
-3 4 8 7.78 8.79
-3 4 8 -7.67 10.13
-3 4 8 -2.87 8.82
2 -4 -8 -0.74 10.8
2 -4 -8 8.5 10.28
-2 4 8 -7 7.24
-2 4 8 10.46 15.5
-2 4 8 -2.31 6.92
1 -4 -8 -1.25 10.64
1 -4 -8 9.47 9.24
1 -4 -8 -9.41 8.73
-1 4 8 -6.46 8.73
-1 4 8 -1.8 9.09
-1 4 8 -18.35 14.36
-1 4 8 -1.56 7.71
-1 4 8 -15.93 10.01
0 -4 -8 11.14 8.6
0 -4 -8 4.41 10.58
0 4 8 20.11 8.68
0 4 8 30.63 9.81
0 4 8 17.41 10.6
0 4 8 8.62 12.96
0 4 8 8.47 9.3
-1 -4 -8 -5.66 7.8
-1 -4 -8 -16.25 10.19
1 4 8 -11.97 9.79
1 4 8 0.55 8.5
1 4 8 1.57 8.78
1 4 8 -12.25 8.69
1 4 8 -20.95 15.42
-2 -4 -8 10.86 8.68
2 4 8 9.82 8.45
2 4 8 -4.94 12.88
2 4 8 12.94 11.55
2 4 8 7.28 9.76
2 4 8 15.4 8.91
1 -5 -8 4.78 10.23
1 -5 -8 4.91 7.25
1 -5 -8 -19.3 9.22
-1 5 8 5.72 8.53
-1 5 8 3.4 11.15
-1 5 8 -15.2 21.47
-1 5 8 -3.56 11.14
0 -5 -8 -10.69 7.97
0 -5 -8 -3.47 8.56
0 5 8 -13.44 9.35
0 5 8 7.7 9.78
0 5 8 0.76 8.27
2 9 -9 1.89 8.23
2 9 -9 17.81 8.71
2 9 -9 -3.77 13.01
2 9 -9 9.43 9.98
-2 -9 9 -8.76 9.03
1 9 -9 -3.76 8.65
1 9 -9 0.79 7.35
1 9 -9 2.61 6.78
1 9 -9 12.1 13.8
-1 -9 9 -3.25 5.85
-1 -9 9 -3.88 8.59
0 9 -9 19.99 11.03
0 9 -9 -0.32 7.38
0 9 -9 5.25 9.3
0 9 -9 14.02 8.73
0 -9 9 -1.49 8.36
0 -9 9 9.03 8.53
0 -9 9 6.78 8.18
-1 9 -9 7.25 11.97
-1 9 -9 -15.06 7.85
-1 9 -9 7.2 7.51
1 -9 9 -6.12 7.11
1 -9 9 -2.27 8.94
4 8 -9 -14.68 7.49
3 8 -9 8.29 8.38
3 8 -9 7.44 8.27
3 8 -9 -16.37 13.22
3 8 -9 0.89 8
-3 -8 9 1.24 6.97
2 8 -9 14.57 8.22
2 8 -9 -11.05 12.1
2 8 -9 20 9.72
2 8 -9 1.85 8.73
-2 -8 9 -4.45 6.21
-2 -8 9 10.45 9.78
1 8 -9 7.09 8.31
1 8 -9 6.05 7.69
1 8 -9 6.02 7.83
1 8 -9 20.52 12.86
-1 -8 9 -1.52 8.28
-1 -8 9 16.08 9.2
-1 -8 9 9.59 7.13
0 8 -9 9.92 12.75
0 8 -9 13 9.15
0 8 -9 5.09 8.14
0 8 -9 8.98 7.7
0 -8 9 9.7 9.21
0 -8 9 8.66 7.68
-1 8 -9 -5.23 8.21
-1 8 -9 15.89 8.44
-1 8 -9 21.18 11.76
1 -8 9 7.46 8.76
1 -8 9 3.42 7.2
1 -8 9 7.31 8.87
-2 8 -9 15.24 11.86
-2 8 -9 1.81 6.83
-2 8 -9 1.49 8.59
2 -8 9 -2.32 7.34
2 -8 9 0.63 9
2 -8 9 22.69 10.14
-3 8 -9 2.67 9.44
-3 8 -9 6.27 8.4
3 -8 9 0 9.45
3 -8 9 15.8 12.45
4 7 -9 0.79 13.8
4 7 -9 -6.67 8.93
4 7 -9 6.05 7.79
4 7 -9 6.57 8.21
-4 -7 9 2.77 8.68
3 7 -9 3.16 9.91
3 7 -9 -7.36 7.44
3 7 -9 -2.59 7.35
3 7 -9 -0.96 7.63
-3 -7 9 11.9 8.99
-3 -7 9 -0.68 5.38
2 7 -9 1.28 7.13
2 7 -9 -7.13 11.47
2 7 -9 -1.41 7.6
2 7 -9 18.28 8.82
-2 -7 9 1.77 8.49
-2 -7 9 -0.36 5.56
-2 -7 9 10.14 11.38
1 7 -9 -10.12 6.8
1 7 -9 -3.25 6.64
1 7 -9 4.74 8.49
1 7 -9 7.84 9.06
-1 -7 9 21.56 9.44
-1 -7 9 -14.52 7.97
-1 -7 9 -14.13 6.48
0 7 -9 11.88 12.24
0 7 -9 27.9 9.6
0 7 -9 23.2 8.47
0 7 -9 18.11 8
0 -7 9 15.79 8.82
0 -7 9 18.36 6.96
0 -7 9 29.51 9.47
-1 7 -9 -7.68 7.87
-1 7 -9 -3.12 6.67
-1 7 -9 2.57 10.23
1 -7 9 1.99 8.55
1 -7 9 9.97 8.64
1 -7 9 3.55 7.6
-2 7 -9 8.53 9.52
-2 7 -9 -0.78 10.29
-2 7 -9 -12.19 6.2
2 -7 9 -0.72 6.62
2 -7 9 4.62 8.64
2 -7 9 -0.51 8.48
-3 7 -9 -0.55 9.36
-3 7 -9 4.78 8.01
-3 7 -9 -4.41 10.28
3 -7 9 -4.11 8.72
3 -7 9 0.61 8.45
3 -7 9 7.38 7.53
3 -7 9 3.71 7.26
-4 7 -9 -0.39 8.95
4 -7 9 2.2 8.59
5 6 -9 -0.46 8.39
5 6 -9 2.34 8.33
5 6 -9 -10.82 7.69
5 6 -9 -15.46 9.47
-5 -6 9 11.76 14.28
4 6 -9 5.53 7.7
4 6 -9 -8.02 7.73
4 6 -9 -4.09 9.77
4 6 -9 1.6 7.66
-4 -6 9 3.75 9.2
3 6 -9 -9.52 6.7
3 6 -9 18.85 13.13
3 6 -9 0.68 7.86
3 6 -9 4.26 7.96
-3 -6 9 3.64 8.55
-3 -6 9 -13.24 5.29
2 6 -9 1.23 7.42
2 6 -9 3.27 7.39
2 6 -9 -17.92 10.61
2 6 -9 3.93 7.92
-2 -6 9 -2.88 6.13
-2 -6 9 8.52 8.47
1 6 -9 -2.33 10.56
1 6 -9 2.93 7.2
1 6 -9 1.87 7.52
1 6 -9 -9.35 7.77
-1 -6 9 3.74 7.72
-1 -6 9 2.34 5.98
-1 -6 9 10.31 8.61
0 6 -9 5.14 11.1
0 6 -9 -11.32 6.41
0 6 -9 2.44 7.9
0 6 -9 8.58 7.04
0 6 -9 -2.33 5.87
0 -6 9 8.57 8.01
0 -6 9 3.61 6.26
0 -6 9 5.2 8.53
-1 6 -9 -7.59 10.32
-1 6 -9 1.21 7.1
-1 6 -9 -3.35 8.34
-1 6 -9 8.94 7.01
1 -6 9 5.45 7.72
1 -6 9 11.43 8.57
1 -6 9 -3.8 6.29
-2 6 -9 6.83 9.28
-2 6 -9 2.67 6.56
-2 6 -9 -0.02 6.96
-2 6 -9 12.19 10.5
2 -6 9 -6.13 8.11
2 -6 9 2.38 7
2 -6 9 3.48 8.51
2 -6 9 7.04 7.05
-3 6 -9 8.76 10.18
-3 6 -9 11.77 8.65
-3 6 -9 -2.56 8.89
-3 6 -9 -11.66 6.4
3 -6 9 0.59 8.76
3 -6 9 1.45 8.99
3 -6 9 -2.45 7.09
3 -6 9 -2.76 6.83
-4 6 -9 14.85 10.06
-4 6 -9 6.49 7.83
4 -6 9 0.48 8.32
4 -6 9 13.7 8.23
4 -6 9 -0.36 9.29
4 -6 9 7.09 7.77
4 -6 9 -10.56 8.76
5 5 -9 -4.13 7.37
5 5 -9 -5.69 9.14
5 5 -9 1.82 8.76
5 5 -9 16.77 8.2
5 5 -9 -16.87 12.91
4 5 -9 -6.74 7.71
4 5 -9 1.81 8.3
4 5 -9 -6.23 7.15
4 5 -9 5.01 7.52
4 5 -9 -5.88 12.48
-4 -5 9 -6.43 7.69
-4 -5 9 -3.87 5.14
3 5 -9 -3.5 5.76
3 5 -9 2.58 7.01
3 5 -9 -7.7 7.34
3 5 -9 -10.36 6.36
3 5 -9 -5.13 11.67
-3 -5 9 9.14 7.46
-3 -5 9 -8.87 5.71
-3 -5 9 -7.82 7.53
2 5 -9 1.93 11.1
2 5 -9 -2.49 6.4
2 5 -9 -11.17 6.72
2 5 -9 -1.88 7.66
2 5 -9 -2 6.31
-2 -5 9 9.01 7.1
-2 -5 9 -10.48 5.21
-2 -5 9 -5.54 7.98
1 5 -9 -1.14 7.06
1 5 -9 -1.17 7.67
1 5 -9 -3.32 6.88
1 5 -9 1.1 7.61
-1 -5 9 -7.33 7.91
-1 -5 9 -13.87 5.67
-1 -5 9 2.82 7.35
0 5 -9 19.79 7.55
0 5 -9 27.79 8.64
0 5 -9 14.05 10.72
0 5 -9 29.51 9.74
0 5 -9 15.55 8.49
0 -5 9 15.72 6.96
0 -5 9 19.11 7.32
0 -5 9 28.1 8.95
-1 5 -9 -5.28 7.24
-1 5 -9 7.48 6.79
-1 5 -9 -0.33 7.92
-1 5 -9 -1.9 8.19
1 -5 9 -1.42 5.74
1 -5 9 3.02 8.02
1 -5 9 -2.84 5.3
1 -5 9 0.7 6.78
-2 5 -9 -9.34 8.99
-2 5 -9 1.98 6.86
-2 5 -9 3.74 8.34
-2 5 -9 -0.3 8.08
2 -5 9 4.84 6.99
2 -5 9 6.76 6.85
2 -5 9 0.48 7.89
2 -5 9 -3.69 8.21
2 -5 9 -0.98 8.13
-3 5 -9 15.94 7.63
-3 5 -9 0.95 9.36
-3 5 -9 -6.52 9.12
-3 5 -9 -12.17 6.94
3 -5 9 -0.99 7.1
3 -5 9 -6.03 7.94
3 -5 9 -5.3 5.59
3 -5 9 14.79 9.64
3 -5 9 -0.43 6.97
-4 5 -9 11.58 8.91
-4 5 -9 7.27 9.48
-4 5 -9 3.47 8.7
4 -5 9 -0.75 6.23
4 -5 9 20.34 8.89
4 -5 9 2.6 8.19
4 -5 9 -1.87 7.53
4 -5 9 3.61 8.64
6 4 -9 -3.47 8.54
5 4 -9 -9.86 7.29
5 4 -9 -20.53 8.75
5 4 -9 -8.25 9.1
5 4 -9 -0.44 7.23
5 4 -9 8.78 13.04
4 4 -9 -7.36 7.36
4 4 -9 -16.31 11.76
4 4 -9 14.97 8.88
4 4 -9 1.02 8.48
4 4 -9 -0.38 6.7
-4 -4 9 15.8 7.07
-4 -4 9 -2.42 5.46
3 4 -9 -0.4 7.57
3 4 -9 -1.09 10.96
3 4 -9 -5.59 7.57
3 4 -9 -2.58 7.48
3 4 -9 3 7.14
-3 -4 9 14.6 7.99
-3 -4 9 -0.74 6.25
-3 -4 9 5.71 8.28
2 4 -9 -2.02 10.29
2 4 -9 3.32 7.3
2 4 -9 2.4 8.43
2 4 -9 13.77 7.82
2 4 -9 8.42 7.39
-2 -4 9 6.89 6.8
-2 -4 9 22.55 8.89
-2 -4 9 19.33 7.55
1 4 -9 1.15 6.92
1 4 -9 4.62 6.9
1 4 -9 -2.5 9.62
1 4 -9 9.81 8.48
-1 -4 9 4.34 7.13
-1 -4 9 12.5 8.41
-1 -4 9 10.6 6.49
0 4 -9 11.73 8.12
0 4 -9 11.67 8.18
0 4 -9 24.95 10.84
0 4 -9 7.47 6.88
0 -4 9 16.45 8.17
0 -4 9 23.2 8.71
0 -4 9 28.87 7.57
-1 4 -9 -5.87 6.33
-1 4 -9 8.41 9.78
-1 4 -9 6.59 8.12
-1 4 -9 -0.65 8.08
1 -4 9 1.24 6.62
1 -4 9 3.14 7.91
1 -4 9 3.57 7.58
1 -4 9 4.35 5.7
1 -4 9 0.53 7.8
-2 4 -9 5.88 7.22
-2 4 -9 12.45 8.45
-2 4 -9 -9.9 8.28
-2 4 -9 -5.78 8.2
2 -4 9 11.92 7.48
2 -4 9 6.96 9.07
2 -4 9 8.39 8.25
2 -4 9 3.99 7.91
2 -4 9 10.48 7.26
-3 4 -9 0.4 9.2
-3 4 -9 11.75 7.58
-3 4 -9 3.12 8.87
-3 4 -9 0.32 8.3
3 -4 9 8.61 9.92
3 -4 9 -0.53 6.9
3 -4 9 9.34 7.87
3 -4 9 7.98 8.41
3 -4 9 -6.19 5.49
-4 4 -9 16.79 7.72
-4 4 -9 0.35 8.69
4 -4 9 10.49 8.17
4 -4 9 7.22 10.58
4 -4 9 3.94 8.44
4 -4 9 8.45 8.16
4 -4 9 18.11 9.05
5 -4 9 6.68 7.94
5 -4 9 -1.76 9.32
6 3 -9 15.18 16.02
6 3 -9 -7.32 7.6
6 3 -9 -18.05 10.02
6 3 -9 5.27 8.33
6 3 -9 -12.15 10.71
5 3 -9 6.84 8.23
5 3 -9 11.99 8.84
5 3 -9 -1.4 7.44
5 3 -9 5.69 10.24
5 3 -9 -7.84 12.02
4 3 -9 -8.89 6.99
4 3 -9 -2.13 12.17
4 3 -9 -16.01 7.86
4 3 -9 -1.38 9.52
4 3 -9 8.99 8.45
-4 -3 9 -8.45 9.58
-4 -3 9 8.37 6.09
3 3 -9 9.9 8.18
3 3 -9 5.23 7.47
3 3 -9 9.95 11.47
3 3 -9 -7.14 8.12
3 3 -9 0.84 8.05
-3 -3 9 11.39 7.8
-3 -3 9 8.23 7.06
-3 -3 9 2.39 5.76
2 3 -9 -6.4 9.67
2 3 -9 2.84 8.02
2 3 -9 6.57 8.2
2 3 -9 0.84 7.47
2 3 -9 8.87 7.64
-2 -3 9 -0.86 6.02
-2 -3 9 10.21 7.68
-2 -3 9 4.63 8.29
1 3 -9 -3.29 7.85
1 3 -9 -2.31 6.9
1 3 -9 12.14 9.77
1 3 -9 10.47 8.01
1 3 -9 -0.79 7.26
-1 -3 9 1.79 6.07
-1 -3 9 -6.3 6.34
-1 -3 9 9.57 6.54
0 3 -9 1.84 8.01
0 3 -9 -10.04 5.06
0 3 -9 -2.59 6.42
0 3 -9 8.01 9.05
0 -3 9 5.46 6.71
0 -3 9 -10.98 4.47
0 -3 9 1.53 7.69
0 -3 9 4.03 7.78
0 -3 9 8.24 4.9
-1 3 -9 13.77 9.32
-1 3 -9 13.34 8.83
-1 3 -9 7.98 7.92
-1 3 -9 8.32 7.14
1 -3 9 -3.47 7.17
1 -3 9 0.13 6.47
1 -3 9 7.44 9.02
1 -3 9 -6.28 6.14
1 -3 9 9.09 8.25
-2 3 -9 14.14 9.38
-2 3 -9 11.99 9.5
-2 3 -9 -3.32 6.72
-2 3 -9 14.5 9.35
2 -3 9 5.61 6.9
2 -3 9 11.63 10
2 -3 9 1.37 6.44
2 -3 9 1.4 6.02
2 -3 9 11.13 6.08
-3 3 -9 4.83 9.3
-3 3 -9 28.45 9.85
-3 3 -9 -12.14 7.34
-3 3 -9 -2.48 8.57
3 -3 9 4.26 7.86
3 -3 9 10.29 7.9
3 -3 9 7.57 10.93
3 -3 9 -7.76 8.41
3 -3 9 7.6 7.87
-4 3 -9 2.43 7.29
-4 3 -9 3.68 9.41
4 -3 9 -2.61 8.25
4 -3 9 14.24 8.14
4 -3 9 -0.34 7.52
4 -3 9 -13.97 10.27
4 -3 9 17.54 9.24
-5 3 -9 1.03 10.06
5 -3 9 17.73 10.64
5 -3 9 -3.4 7.85
5 -3 9 1.94 9.35
5 -3 9 5.28 7.6
6 2 -9 11.23 13.08
6 2 -9 0.56 8.54
6 2 -9 12.69 8.76
6 2 -9 -10.99 9.17
6 2 -9 -0.93 11.5
5 2 -9 -3.58 8.68
5 2 -9 -3.17 11.93
5 2 -9 -9.67 7.82
5 2 -9 -5.19 8.01
5 2 -9 -1.34 10.63
-5 -2 9 -5.74 5.74
4 2 -9 -18.18 7.15
4 2 -9 -1.58 10.51
4 2 -9 -5.39 9.19
4 2 -9 2.16 8.38
4 2 -9 -4.54 8.53
-4 -2 9 4.11 8.61
-4 -2 9 3.4 6.63
3 2 -9 2.47 7.94
3 2 -9 -5.22 5.8
3 2 -9 2.34 7.32
3 2 -9 -21.42 9.2
3 2 -9 3.15 8.7
-3 -2 9 -9.82 7.95
-3 -2 9 5.99 6.38
-3 -2 9 9.14 6.47
2 2 -9 1.46 8.07
2 2 -9 3.01 7.78
2 2 -9 -12.39 9.02
2 2 -9 7.21 8.58
2 2 -9 3.81 7.49
-2 -2 9 15.34 7.45
-2 -2 9 -6.02 6.07
-2 -2 9 -3.14 7.97
1 2 -9 6.02 7.94
1 2 -9 1.41 8
1 2 -9 8.65 9.1
1 2 -9 4.98 6.2
1 2 -9 6.73 7.15
-1 -2 9 0.23 6.32
-1 -2 9 0.69 6.17
-1 -2 9 4.79 6.9
0 2 -9 19.11 9.08
0 2 -9 9.8 7.49
0 2 -9 31.94 10.14
0 -2 9 7.96 8.1
0 -2 9 20.79 6.77
0 -2 9 28.07 11.19
0 -2 9 14.41 9.1
0 -2 9 11.82 7.06
0 -2 9 31.7 8.55
-1 2 -9 22.03 7.62
-1 2 -9 -12.29 8.52
-1 2 -9 2.49 8.41
-1 2 -9 0.34 8.18
1 -2 9 13.6 7.77
1 -2 9 7.64 9.58
1 -2 9 9.19 7.16
1 -2 9 18.65 8.21
1 -2 9 -0.48 6.96
1 -2 9 3.4 9.65
-2 2 -9 0.6 8.3
-2 2 -9 17.85 8.57
-2 2 -9 16.36 9.02
-2 2 -9 14.46 9.85
2 -2 9 18.57 9.15
2 -2 9 5.74 6.95
2 -2 9 8.29 8.31
2 -2 9 11.69 6.32
2 -2 9 21.72 10.75
2 -2 9 5.24 7.38
-3 2 -9 4.77 7.94
-3 2 -9 30.21 9.87
-3 2 -9 12.98 10.11
3 -2 9 -7.01 7.34
3 -2 9 0.5 8.13
3 -2 9 28.12 9.16
3 -2 9 16.78 8.18
3 -2 9 6.54 8.19
3 -2 9 4.09 7.58
-4 2 -9 21.26 8.05
-4 2 -9 5.1 10.02
4 -2 9 10.5 7.8
4 -2 9 25.52 8.82
4 -2 9 13.16 9.32
4 -2 9 17.12 12.59
4 -2 9 22.63 8.48
5 -2 9 -4.53 9.7
5 -2 9 -3.76 7.64
5 1 -9 -12.06 8.42
5 1 -9 -2.51 11.08
5 1 -9 -8.95 9.52
5 1 -9 -13.53 10.65
5 1 -9 -6.94 7.87
-5 -1 9 -6.76 6.51
4 1 -9 -1.77 10.56
4 1 -9 -0.61 7.57
4 1 -9 -3.95 8.39
4 1 -9 4.07 8
4 1 -9 -7.21 8.32
-4 -1 9 7.89 7.29
-4 -1 9 -13.78 8.22
3 1 -9 3.37 8.17
3 1 -9 4.71 8.29
3 1 -9 1.4 9.71
3 1 -9 7.57 8.98
3 1 -9 5.04 9.33
-3 -1 9 22.7 7.69
-3 -1 9 0.76 7.04
2 1 -9 20.68 8.09
2 1 -9 -0.78 8.99
2 1 -9 -0.71 8.55
2 1 -9 -6.64 7.87
2 1 -9 2.82 8.4
-2 -1 9 0.41 6.45
-2 -1 9 4.18 6.42
-2 -1 9 5.71 8.01
-2 -1 9 13.9 10.47
1 1 -9 3.26 8.27
1 1 -9 22.35 9
1 1 -9 1.01 7.18
1 1 -9 1.63 11.51
1 1 -9 8.69 9.64
-1 -1 9 -1.73 8.67
-1 -1 9 2.96 8.14
-1 -1 9 8.32 7.88
-1 -1 9 3.03 6.53
0 1 -9 22.25 9.32
0 1 -9 3.23 9.03
0 1 -9 -14.05 6.53
0 -1 9 6.3 8.94
0 -1 9 6.58 6.14
0 -1 9 9.04 7.02
0 -1 9 2.91 7.64
0 -1 9 11.27 10.33
-1 1 -9 26.98 8.93
-1 1 -9 23.98 9.92
-1 1 -9 11.65 7.62
-1 1 -9 21.33 10.06
1 -1 9 28.36 11.29
1 -1 9 28.57 9
1 -1 9 17.38 8.4
1 -1 9 31.29 11.52
1 -1 9 5.27 7.3
1 -1 9 20.86 7.62
-2 1 -9 3.99 9.36
-2 1 -9 7.35 7.37
-2 1 -9 6.62 7.7
-2 1 -9 19.48 7.98
2 -1 9 16.73 9.2
2 -1 9 7.23 7.82
2 -1 9 15.41 10.02
2 -1 9 0.25 10.57
2 -1 9 2.55 7.88
2 -1 9 22.84 8.72
-3 1 -9 7.48 7.46
-3 1 -9 2.92 7.62
3 -1 9 13.82 8.19
3 -1 9 8.1 9.74
3 -1 9 0.07 7.4
3 -1 9 8.68 8.99
3 -1 9 12.7 9.14
3 -1 9 -14.19 11.18
-4 1 -9 13.05 10.17
4 -1 9 3.28 9.34
4 -1 9 12.75 9.69
4 -1 9 2 12.53
4 -1 9 12.84 7.71
4 -1 9 -2.13 7.78
5 0 -9 10.07 8.4
5 0 -9 3.12 9.88
5 0 -9 -12.39 7.72
5 0 -9 -3.23 10.64
-5 0 9 -3.57 7.02
4 0 -9 7.47 9.72
4 0 -9 -4.26 8.86
4 0 -9 25.76 10.07
4 0 -9 -3.87 10.17
4 0 -9 6.57 10.64
-4 0 9 0.37 6.77
-4 0 9 32.95 9.54
3 0 -9 -9.43 8.72
3 0 -9 7.4 9.17
3 0 -9 -11.62 8.49
3 0 -9 -4.39 8.26
3 0 -9 -2.79 7.35
-3 0 9 -4.74 8.82
-3 0 9 11.17 7.21
-3 0 9 8.46 8.41
2 0 -9 6.02 7.89
2 0 -9 -2.87 8.74
2 0 -9 8.54 8.92
2 0 -9 -3.35 6.39
-2 0 9 -0.51 7.01
-2 0 9 -1.96 7.9
-2 0 9 6.69 6.93
-2 0 9 1.33 8.51
1 0 -9 9.07 9.04
1 0 -9 3.6 7.58
1 0 -9 18.35 8.41
1 0 -9 2.98 8.47
-1 0 9 -5.39 6.66
-1 0 9 2.9 6.73
-1 0 9 7.67 11.03
-1 0 9 10.97 8.15
-1 0 9 7.68 10.03
0 0 -9 26.66 9.4
0 0 -9 22.52 8.47
0 0 -9 34.25 9.91
0 0 9 19.55 9.25
0 0 9 22.04 10.11
0 0 9 24.48 11.09
0 0 9 15.39 7.88
0 0 9 19.07 7.43
-1 0 -9 -1.87 9.04
-1 0 -9 -5.63 6.99
-1 0 -9 0.87 9.24
-1 0 -9 7.37 8.23
1 0 9 14.84 7.88
1 0 9 -10.45 10.68
1 0 9 19.18 9.13
1 0 9 -6.76 9.9
1 0 9 -1.36 7.49
-2 0 -9 16.38 8.61
-2 0 -9 35.34 10.09
-2 0 -9 9.12 8.31
-2 0 -9 -0.53 9.4
2 0 9 15.14 8.47
2 0 9 9.92 8.99
2 0 9 12.29 9.18
2 0 9 10.16 11.73
2 0 9 17.43 8.34
2 0 9 23.86 9.28
-3 0 -9 6.84 10.01
-3 0 -9 2.01 7.26
3 0 9 1.83 7.4
3 0 9 22.59 9.53
3 0 9 12.98 8.43
3 0 9 -8.61 8.74
3 0 9 1.01 11.2
3 0 9 0.13 11.56
-4 0 -9 22.64 10.74
4 0 9 -10.85 12.16
4 0 9 3.87 8.19
4 0 9 5.12 8.65
4 0 9 28.19 11.38
4 0 9 9.4 9.31
5 -1 -9 -0.04 12.01
5 -1 -9 -2.05 9.56
5 -1 -9 -21.18 12.04
-5 1 9 12.49 7.44
4 -1 -9 -5.93 9.45
4 -1 -9 11.64 9.89
4 -1 -9 -0.35 11.22
4 -1 -9 11.86 10.67
-4 1 9 21.29 11.89
-4 1 9 13.1 8.53
-4 1 9 1.85 8.88
3 -1 -9 4.1 8.19
3 -1 -9 -10.44 9.8
3 -1 -9 21.17 10.09
3 -1 -9 -3.82 9.88
-3 1 9 -0.19 8.22
-3 1 9 -4.17 9.29
-3 1 9 8.4 9.02
2 -1 -9 -9.92 7.49
2 -1 -9 16.6 10.23
2 -1 -9 0.34 9.55
2 -1 -9 3.36 8.16
-2 1 9 14.41 7.92
-2 1 9 -13.36 8.8
-2 1 9 25.36 9.78
-2 1 9 0.8 8.67
1 -1 -9 3.52 7.57
1 -1 -9 2.59 8.04
1 -1 -9 -2.31 7.59
1 -1 -9 6.79 9.08
-1 1 9 -16.38 10.3
-1 1 9 16.3 10
-1 1 9 19.07 8.2
-1 1 9 3.93 8.7
0 -1 -9 17.7 8.49
0 -1 -9 14.37 8.1
0 1 9 35.36 10.19
0 1 9 9 8.35
0 1 9 8.57 10.52
0 1 9 8.9 13.33
0 1 9 23.08 9.26
-1 -1 -9 24.09 9.57
-1 -1 -9 17.64 10.44
-1 -1 -9 24.17 9.01
1 1 9 31.61 9.39
1 1 9 25.29 9.55
1 1 9 28.63 14.74
1 1 9 34.51 10.63
1 1 9 4.85 11.77
-2 -1 -9 8.95 9.6
-2 -1 -9 7.02 8.2
2 1 9 0.67 8.14
2 1 9 2.57 8.49
2 1 9 7.65 12
2 1 9 -22.57 12.61
2 1 9 16.42 8.54
-3 -1 -9 18.35 10.48
3 1 9 -3.16 9.03
3 1 9 12.18 8.07
3 1 9 -14.96 13.39
3 1 9 11.3 10.07
3 1 9 1.18 8.82
3 1 9 -5.92 11.81
4 -2 -9 -0.56 11.27
4 -2 -9 12.04 9.52
-4 2 9 5.11 9.9
-4 2 9 -2.47 7.74
-4 2 9 25.6 12.57
3 -2 -9 4.07 8.37
3 -2 -9 8.77 8.3
3 -2 -9 -1.37 10.28
-3 2 9 14.36 10.05
-3 2 9 -2.97 7.46
-3 2 9 6.18 9.62
2 -2 -9 -2.67 10.03
2 -2 -9 -6.7 9.06
2 -2 -9 -7.56 8.03
-2 2 9 1.21 9.17
-2 2 9 8.64 7.85
-2 2 9 8.63 9.31
1 -2 -9 11.67 7.8
1 -2 -9 22.28 10.99
1 -2 -9 15.99 8.86
-1 2 9 -0.44 7.55
-1 2 9 14.03 7.63
-1 2 9 -4.71 12.77
-1 2 9 -17.86 9.6
0 -2 -9 4.87 9.34
0 -2 -9 8.92 10.22
0 2 9 6.1 14.59
0 2 9 6.22 8.38
0 2 9 -3.67 10.97
0 2 9 14.61 9.94
0 2 9 11.06 8.31
-1 -2 -9 10.61 8.83
-1 -2 -9 23.6 10.32
-1 -2 -9 7.02 10.66
1 2 9 19.12 9.65
1 2 9 6.76 8.58
1 2 9 -0.06 8.15
1 2 9 11.01 12.23
1 2 9 -9.87 14.82
-2 -2 -9 -8.24 7.43
-2 -2 -9 -4.73 9.7
2 2 9 -0.26 12.38
2 2 9 -0.06 9.53
2 2 9 -11.88 14.94
2 2 9 1.2 9.6
2 2 9 10.38 8.83
3 2 9 -5.08 8.19
3 2 9 6.69 9.28
3 2 9 3.42 7.66
3 -3 -9 -8.2 10.35
3 -3 -9 12.38 10.04
3 -3 -9 1.6 11.04
-3 3 9 13.03 14.26
-3 3 9 -5.12 7.51
-3 3 9 14.62 10.69
2 -3 -9 2.17 10.15
2 -3 -9 5.55 11.37
2 -3 -9 -10.54 8.04
-2 3 9 -6.56 9.58
-2 3 9 0.76 14.46
-2 3 9 10.74 8.36
1 -3 -9 4.25 8.68
1 -3 -9 8.57 10.33
1 -3 -9 12.69 10.05
-1 3 9 14.31 10.74
-1 3 9 -1.99 7.77
-1 3 9 -21.95 14.18
-1 3 9 -7.97 10.64
0 -3 -9 1.4 9.5
0 -3 -9 1.98 8.64
0 3 9 -20.27 11.89
0 3 9 13.75 10.07
0 3 9 -2.56 8.87
0 3 9 -0.24 9.04
0 3 9 -22.32 14.75
-1 -3 -9 -2.08 10.97
-1 -3 -9 0.16 8.49
1 3 9 18.79 10.55
1 3 9 4.74 17.26
1 3 9 13.22 12.34
1 3 9 8.62 8.95
1 3 9 19.3 9.13
2 3 9 -3.7 8.24
2 8 -10 -0.6 8.7
2 8 -10 5.4 9.15
-2 -8 10 5.45 7.08
-2 -8 10 -3.38 9.54
1 8 -10 6.36 7.18
1 8 -10 -1.73 8.42
1 8 -10 11.71 8.97
-1 -8 10 -0.09 6.69
0 8 -10 2.05 13.95
0 8 -10 -4.4 7.61
0 8 -10 -13.1 8.1
0 -8 10 4.87 9.82
0 -8 10 19.25 9.6
0 -8 10 7.62 7.68
-1 8 -10 23.89 10.59
1 -8 10 31.04 10.98
1 -8 10 11.7 11.03
1 -8 10 7.78 7.96
3 7 -10 -0.93 9.02
3 7 -10 10.33 9.06
3 7 -10 -5.37 7.83
-3 -7 10 -1.44 9.39
2 7 -10 -5.35 8.36
2 7 -10 8.02 8.75
2 7 -10 9.03 8.39
2 7 -10 -0.83 9.12
-2 -7 10 -0.13 7.01
-2 -7 10 -6.1 8.34
1 7 -10 -0.52 7.87
1 7 -10 -0.05 9.17
1 7 -10 -1.35 7.96
1 7 -10 7.38 7.04
-1 -7 10 2.61 9.14
-1 -7 10 20.51 9.21
-1 -7 10 -2.55 6.48
0 7 -10 13.92 8.36
0 7 -10 4.89 8.91
0 7 -10 3.2 11.49
0 -7 10 -10.25 8.95
0 -7 10 10.46 9.01
0 -7 10 -2.07 7.83
-1 7 -10 14.58 7.65
-1 7 -10 18.86 9.82
-1 7 -10 -0.39 11.21
1 -7 10 13.8 9.31
1 -7 10 3.94 7.31
1 -7 10 5.21 9.03
-2 7 -10 -2.06 10.77
-2 7 -10 8.84 7.61
-2 7 -10 8.85 10.24
2 -7 10 17.16 9.56
2 -7 10 -2.23 7.15
2 -7 10 20.15 9.93
4 6 -10 -4.79 8.19
4 6 -10 -4.03 8.55
4 6 -10 3.22 8.84
-4 -6 10 6.04 9.59
3 6 -10 -7.41 8.38
3 6 -10 -1.01 9.64
3 6 -10 -1.6 7.99
3 6 -10 -13.73 7.97
-3 -6 10 10.82 9.15
-3 -6 10 -0.77 6
2 6 -10 9.45 8.86
2 6 -10 -1.01 7.95
2 6 -10 -11.24 11.43
2 6 -10 -5.48 6.76
-2 -6 10 2.15 6.11
-2 -6 10 -0.66 8.75
-2 -6 10 11.77 8.38
1 6 -10 -6.24 8.22
1 6 -10 1.74 7.43
1 6 -10 1.64 9.03
1 6 -10 -2.02 5.95
-1 -6 10 0.76 9.16
-1 -6 10 -3.28 6.46
-1 -6 10 7.36 8.1
0 6 -10 11.59 7.94
0 6 -10 14.37 12.2
0 6 -10 -3.98 8.85
0 -6 10 22.12 9.56
0 -6 10 7.52 6.9
0 -6 10 17.24 9.77
-1 6 -10 13.13 10.71
-1 6 -10 5.04 7.44
-1 6 -10 2.19 7.28
1 -6 10 5.78 8.53
1 -6 10 6.93 7.24
1 -6 10 10.42 8.72
-2 6 -10 -8.92 8.84
-2 6 -10 11.22 10.82
-2 6 -10 -10.45 6.59
2 -6 10 27.3 10.34
2 -6 10 -1.19 6.93
2 -6 10 -5.12 8.8
-3 6 -10 13.16 10.16
-3 6 -10 26.34 12.23
-3 6 -10 5.15 8.31
3 -6 10 6.15 10.18
3 -6 10 27.92 18.55
3 -6 10 10.97 8.98
4 5 -10 -12.6 8.48
4 5 -10 -4.8 7.99
4 5 -10 -13.94 13.39
4 5 -10 0.09 8.54
4 5 -10 -9.69 8.64
3 5 -10 0.89 8.38
3 5 -10 9.94 8.26
3 5 -10 9.4 8.36
3 5 -10 -6.99 8.98
3 5 -10 -5.21 8.37
-3 -5 10 -5.2 8.29
-3 -5 10 5.64 6.75
2 5 -10 -11.02 7.35
2 5 -10 -1.01 8.71
2 5 -10 -2.9 8.52
2 5 -10 -7.19 7.26
-2 -5 10 -0.63 6.25
-2 -5 10 16.34 8.04
-2 -5 10 5.17 9.01
1 5 -10 4.91 6.54
1 5 -10 10.77 11.16
1 5 -10 -9.55 8.41
1 5 -10 3.79 7.59
-1 -5 10 -0.62 8.97
-1 -5 10 12.44 7.14
-1 -5 10 9.54 7.92
0 5 -10 4.45 10.77
0 5 -10 0.62 8.93
0 5 -10 -2.96 7.09
0 5 -10 -3.86 8.98
0 -5 10 13.65 9.43
0 -5 10 -8.41 6.64
0 -5 10 6.35 7.99
-1 5 -10 22.03 11.01
-1 5 -10 -2.36 7.88
-1 5 -10 8.19 9.57
-1 5 -10 12.4 7.8
1 -5 10 1.84 7.13
1 -5 10 18.83 9.13
1 -5 10 5.65 6.82
-2 5 -10 5.9 7.61
-2 5 -10 11.58 8.82
-2 5 -10 -6.51 9.54
-2 5 -10 11.67 11.01
2 -5 10 12.01 8.08
2 -5 10 9.04 8.87
2 -5 10 17.93 9.63
-3 5 -10 10.31 9.04
-3 5 -10 4.63 10.49
-3 5 -10 -8.31 9.58
-3 5 -10 -4.4 8.25
3 -5 10 11.86 8.43
3 -5 10 5.91 8.28
3 -5 10 25.62 10.62
3 -5 10 1.34 9.01
5 4 -10 -9.78 8.75
4 4 -10 -11.14 8.34
4 4 -10 2.55 10.5
4 4 -10 -10.28 7.33
4 4 -10 6.09 9.52
4 4 -10 -8.23 13.18
-4 -4 10 5.87 6.23
3 4 -10 8.19 8.87
3 4 -10 -4.67 7.08
3 4 -10 -8.17 11.61
3 4 -10 -12.88 9.27
3 4 -10 -3.11 8.65
-3 -4 10 -2.3 6.1
-3 -4 10 13.2 8.35
-3 -4 10 14.84 9.4
2 4 -10 -8.11 7.46
2 4 -10 -11.97 7.54
2 4 -10 2.39 8.13
2 4 -10 -15.24 7.73
2 4 -10 6.43 11.27
-2 -4 10 8.36 8.11
-2 -4 10 -1.29 6.39
-2 -4 10 9.17 9.1
1 4 -10 -1.74 6.35
1 4 -10 -0.29 8.42
1 4 -10 -1.94 10.21
1 4 -10 15.79 8.14
-1 -4 10 12.74 8.23
-1 -4 10 4.37 9.02
-1 -4 10 -3.17 6.31
0 4 -10 14.16 9.82
0 4 -10 3.19 8.79
0 4 -10 11.26 10.71
0 4 -10 2.92 7.46
0 -4 10 15.32 8.32
0 -4 10 6.7 8.82
0 -4 10 -0.7 6.69
-1 4 -10 19.09 10.78
-1 4 -10 -1.91 8.61
-1 4 -10 2.58 9.47
-1 4 -10 -0.73 7.36
1 -4 10 6.11 9.05
1 -4 10 -0.52 7.02
1 -4 10 10.23 8.42
-2 4 -10 -3.83 9.3
-2 4 -10 -1.2 8.92
-2 4 -10 11.57 9.33
-2 4 -10 11.1 8.31
2 -4 10 13.8 9.93
2 -4 10 -8.32 7.23
2 -4 10 1.2 8.51
2 -4 10 0.93 9.43
-3 4 -10 -0.4 9.06
-3 4 -10 -8.02 7.65
-3 4 -10 10.45 10.69
-3 4 -10 7.34 10.13
3 -4 10 6.94 9.68
3 -4 10 -4.35 8.15
3 -4 10 7.48 8.28
3 -4 10 10.55 8.4
3 -4 10 8.37 7.88
5 3 -10 9.49 9.8
4 3 -10 2.62 8.97
4 3 -10 2.38 12.72
4 3 -10 -9.62 9.04
4 3 -10 -6.29 8.9
4 3 -10 -7.48 7.9
-4 -3 10 8.63 6.89
3 3 -10 -1.97 7.4
3 3 -10 -1.06 6.49
3 3 -10 -11.06 8.21
3 3 -10 -8.46 8.32
3 3 -10 -4.76 11.08
-3 -3 10 -13.79 8.41
-3 -3 10 22.12 9.82
-3 -3 10 4.25 6.44
2 3 -10 7.97 8.39
2 3 -10 11.52 9.08
2 3 -10 -1.04 8.93
2 3 -10 8.92 8.07
2 3 -10 -3.64 10.31
-2 -3 10 -0.65 7.13
-2 -3 10 11.87 8.24
-2 -3 10 11.47 9.31
1 3 -10 -3.56 9.3
1 3 -10 1.88 8.74
1 3 -10 3.49 7.81
-1 -3 10 12.56 7.97
-1 -3 10 1.25 6.93
-1 -3 10 11.97 9.38
0 3 -10 9.06 7.32
0 3 -10 -3.41 9.37
0 3 -10 -0.83 7.47
0 -3 10 19.36 8.87
0 -3 10 15.46 7.6
0 -3 10 13.45 7.2
-1 3 -10 7.3 9.19
-1 3 -10 13.79 11.03
-1 3 -10 6.83 9.86
-1 3 -10 0.71 7.47
1 -3 10 10.79 9.06
1 -3 10 5.46 7.36
1 -3 10 14.54 9.5
-2 3 -10 -1.93 8.84
-2 3 -10 2.27 8.81
-2 3 -10 -3.24 9.87
-2 3 -10 -5.83 9.7
2 -3 10 5.53 7.13
2 -3 10 -4.94 7.31
2 -3 10 -4.88 7.55
2 -3 10 6.23 8.13
2 -3 10 13.5 10.11
-3 3 -10 13.9 9.08
-3 3 -10 7.38 9.83
-3 3 -10 14.37 10.68
-3 3 -10 14.05 10.55
3 -3 10 -0.84 8.28
3 -3 10 0.96 7.67
3 -3 10 -1.6 7.97
3 -3 10 16.34 10.02
3 -3 10 4.55 11
5 2 -10 -8.44 9.52
-5 -2 10 1.87 6.73
4 2 -10 7.06 9.44
4 2 -10 6.34 8.65
4 2 -10 -5.61 12.04
4 2 -10 5.01 9.4
4 2 -10 3.34 10.76
-4 -2 10 -12.11 5.8
3 2 -10 -11.7 9.33
3 2 -10 4.69 8.27
3 2 -10 3.77 8.93
3 2 -10 0.29 9.72
3 2 -10 -9.63 10.42
-3 -2 10 16.26 9.88
-3 -2 10 15.79 7.98
2 2 -10 5.11 8.39
2 2 -10 1.52 10.31
2 2 -10 -3.65 8.93
2 2 -10 -12.86 9.9
2 2 -10 4.52 9.07
-2 -2 10 -2.99 6.66
-2 -2 10 20.72 8.4
-2 -2 10 -5.84 8.89
1 2 -10 23.76 10.11
1 2 -10 7.13 8.15
1 2 -10 13.2 9.4
1 2 -10 1.2 6.99
-1 -2 10 6.89 7.36
-1 -2 10 12.04 8.15
-1 -2 10 25.87 9.65
0 2 -10 -0.01 9.84
0 2 -10 6.25 9.96
0 2 -10 10.22 7.97
0 -2 10 -1.68 7.21
0 -2 10 3.54 8.89
0 -2 10 2 8.81
-1 2 -10 -5.33 9.63
-1 2 -10 15.83 8.3
-1 2 -10 2.1 7.9
-1 2 -10 18.3 9.96
1 -2 10 16.6 8.03
1 -2 10 16.1 8.56
1 -2 10 17.76 11.1
1 -2 10 2.54 7.69
1 -2 10 1.05 9.09
1 -2 10 38.96 12.34
-2 2 -10 11.1 9.86
-2 2 -10 -2.67 8.33
-2 2 -10 0.22 8.07
-2 2 -10 11.53 8.26
2 -2 10 -1.77 8.12
2 -2 10 -2.53 7.87
2 -2 10 -7.6 7.49
2 -2 10 -13.95 10.27
2 -2 10 6.91 9.6
2 -2 10 26.14 11.08
-3 2 -10 13.57 9.02
-3 2 -10 13.34 10.88
3 -2 10 -2.15 8.51
3 -2 10 7.08 8.28
3 -2 10 17.27 8.87
3 -2 10 2.9 8.99
3 -2 10 1.5 8.27
4 1 -10 22.46 10.28
4 1 -10 -1.91 11.07
4 1 -10 15.75 11.67
4 1 -10 31.55 10.26
4 1 -10 32.16 8.95
-4 -1 10 25.67 10.57
-4 -1 10 -3.47 7.84
3 1 -10 -13.03 8.32
3 1 -10 5.05 10.51
3 1 -10 4.43 8.34
3 1 -10 -7.25 10.03
-3 -1 10 -0.47 9.47
-3 -1 10 -1.64 7.79
2 1 -10 10.54 7.88
2 1 -10 -1.22 10.66
2 1 -10 13.04 9.86
2 1 -10 0.22 8.19
-2 -1 10 14.05 8.3
-2 -1 10 -5.01 8.8
-2 -1 10 7.89 7.35
1 1 -10 10.54 10.31
1 1 -10 -6.83 7.61
1 1 -10 -4.45 8.97
1 1 -10 5.49 9.93
-1 -1 10 6.31 8.17
-1 -1 10 -7.41 8.88
-1 -1 10 4.41 7.21
-1 -1 10 8.12 9.61
0 1 -10 16.88 9.68
0 1 -10 21.61 10.61
0 1 -10 19.98 10.17
0 -1 10 6.68 10.34
0 -1 10 42.95 12.7
0 -1 10 18.24 8.39
0 -1 10 21.72 9.44
-1 1 -10 -5.59 10.24
-1 1 -10 -5.92 8.41
-1 1 -10 -4.33 7.7
-1 1 -10 -2.2 9.89
1 -1 10 -2.43 10.01
1 -1 10 11.2 8.83
1 -1 10 26.99 11.51
1 -1 10 -3.71 7.72
1 -1 10 -16.22 7.4
1 -1 10 -5.17 8.14
-2 1 -10 12.24 9.69
-2 1 -10 4.64 9.25
-2 1 -10 4.78 10.99
-2 1 -10 13.78 9.37
2 -1 10 -0.01 6.12
2 -1 10 -3.64 11.08
2 -1 10 -4.68 8.86
2 -1 10 -13.88 7.69
2 -1 10 8.98 10.55
2 -1 10 6.73 8.41
-3 1 -10 -4.33 10.52
-3 1 -10 2.06 8.51
3 -1 10 30.1 10.68
3 -1 10 2.11 8.09
3 -1 10 10.81 9.41
3 -1 10 -24.72 12.03
3 -1 10 4.12 9.38
3 -1 10 -3.46 8.35
4 0 -10 -19.75 8.49
4 0 -10 -2.02 10.8
4 0 -10 -4.26 10.91
-4 0 10 -0.79 8.47
-4 0 10 -5.67 9.52
3 0 -10 8.4 9.49
3 0 -10 20.23 9.38
3 0 -10 4.01 10.14
3 0 -10 -8.11 10.1
-3 0 10 -7.32 9.24
-3 0 10 8.3 8.78
-3 0 10 18.52 9.23
2 0 -10 2.72 9.15
2 0 -10 0.47 9.44
2 0 -10 -1.59 7.32
2 0 -10 -9.2 8.19
-2 0 10 -9.31 7.26
-2 0 10 -2.36 7.77
-2 0 10 -4.68 8.38
1 0 -10 13.1 9.99
1 0 -10 -0.66 10.32
1 0 -10 0.78 9.35
1 0 -10 -4.7 8.45
-1 0 10 9.82 11.81
-1 0 10 10.78 9.92
-1 0 10 11.57 8.19
-1 0 10 3.66 9.08
0 0 -10 -9.05 9.78
0 0 -10 5.24 8.74
0 0 10 2.23 7.21
0 0 10 -20.66 9.53
0 0 10 2.5 11.4
0 0 10 5.32 8.65
-1 0 -10 -0.11 8.4
-1 0 -10 -4.65 10.05
-1 0 -10 10.34 10.53
1 0 10 -10.63 11.5
1 0 10 10.09 12.27
1 0 10 -0.2 6.5
1 0 10 10.79 8.4
1 0 10 3.7 7.47
-2 0 -10 8.9 9.38
-2 0 -10 -17.06 9.6
2 0 10 2.65 8.39
2 0 10 -11.47 8.87
2 0 10 10.69 9.52
2 0 10 -1.52 8.47
2 0 10 -3.78 11.66
2 0 10 -19.63 11.39
3 -1 -10 12.9 9.86
3 -1 -10 2.09 10.28
3 -1 -10 9.88 12.89
-3 1 10 -10.2 9.64
-3 1 10 10.13 9.3
-3 1 10 1.02 8.09
2 -1 -10 7.08 10.38
2 -1 -10 4.01 8.98
2 -1 -10 21.77 11.27
-2 1 10 -4.09 7.77
-2 1 10 17.92 10.49
-2 1 10 17.39 10.34
1 -1 -10 5.92 9.74
1 -1 -10 1.08 10.55
1 -1 -10 3.39 8.76
-1 1 10 -32.61 10.82
-1 1 10 14.24 8.64
-1 1 10 12.04 13.44
-1 1 10 -4.85 9.58
0 -1 -10 6.19 9.12
0 -1 -10 20.76 11.6
0 1 10 30.83 9.53
0 1 10 14.54 9.99
0 1 10 -32.42 12.47
0 1 10 18.62 13.93
-1 -1 -10 5.45 8.28
-1 -1 -10 7.27 10.41
-1 -1 -10 3.72 8.55
1 1 10 -11.1 12.81
1 1 10 9.44 7.24
1 1 10 -16.56 12.49
1 1 10 3.11 8.95
1 1 10 6.65 9.63
-2 -1 -10 6.22 8.66
2 1 10 -5 8.7
1 -2 -10 -5.4 11.25
1 -2 -10 5.94 9.69
-1 2 10 1.82 7.98
0 -2 -10 3.78 10.58
2 6 -11 -2.32 8.74
-2 -6 11 -6.28 7.56
1 6 -11 7.95 9.31
1 6 -11 13.86 14.47
1 6 -11 22.74 9.43
-1 -6 11 32.6 10.24
-1 -6 11 24.91 10.58
-1 -6 11 17 8.69
0 6 -11 2.04 8.29
0 6 -11 -9.47 11.87
0 6 -11 -9.25 8.92
0 -6 11 5.01 10.05
0 -6 11 9.57 7.89
0 -6 11 18.19 9.41
3 5 -11 12.41 11.02
-3 -5 11 -5.42 6.09
2 5 -11 9.15 9.95
2 5 -11 -2.84 12.31
2 5 -11 -0.58 8.15
-2 -5 11 4.23 10.03
-2 -5 11 11.23 8.12
-2 -5 11 4.48 7.84
1 5 -11 14.81 9.1
1 5 -11 2.54 8.35
1 5 -11 -5.36 11.58
-1 -5 11 9.05 8.29
-1 -5 11 0.93 10.07
-1 -5 11 -11.16 6.73
0 5 -11 17.89 10.35
0 5 -11 9.3 9.38
0 5 -11 1.73 10.27
0 5 -11 18.24 11.63
0 -5 11 42.37 10.07
0 -5 11 10.58 10.16
0 -5 11 7.04 7.94
-1 5 -11 11.56 11.34
-1 5 -11 14.86 9.76
-1 5 -11 -5.02 9.68
-1 5 -11 2.3 10.47
1 -5 11 9.68 9.47
1 -5 11 0.41 8.57
1 -5 11 8.73 8.06
3 4 -11 8.95 10.49
3 4 -11 5.65 10.58
3 4 -11 5.48 9.69
-3 -4 11 6.59 7.2
2 4 -11 -7.9 10.88
2 4 -11 -2.14 8.23
2 4 -11 -1.27 8.87
-2 -4 11 -4.42 9.74
-2 -4 11 9.79 7.62
-2 -4 11 21.73 9.27
1 4 -11 10.49 11.56
1 4 -11 9.26 9.89
1 4 -11 -9.03 7.64
-1 -4 11 13.24 8.63
-1 -4 11 -8.06 6.87
-1 -4 11 -3.3 9.62
0 4 -11 7.13 8.19
0 4 -11 -0.79 11.53
0 4 -11 -4.02 7.49
0 4 -11 -2.2 10.11
0 -4 11 4 7.46
0 -4 11 -2.83 7.02
0 -4 11 11.27 8.66
-1 4 -11 6.17 10.41
-1 4 -11 20.59 11.39
-1 4 -11 -2.08 9.74
-1 4 -11 20.03 8.89
1 -4 11 8.29 10.32
1 -4 11 5.22 7.96
1 -4 11 10.54 9.65
-2 4 -11 -2.37 8.63
3 3 -11 5.86 9.99
3 3 -11 7.02 9.86
-3 -3 11 6.45 8.28
-3 -3 11 21.37 10.87
2 3 -11 5.69 9.01
2 3 -11 -1.64 8.94
2 3 -11 7.78 11.29
2 3 -11 1.13 9.21
-2 -3 11 21.37 10.22
-2 -3 11 8.65 7.31
-2 -3 11 9.25 7.6
1 3 -11 -1.12 8.24
1 3 -11 -8.75 7.09
1 3 -11 -4.44 10.28
-1 -3 11 10.92 8.39
-1 -3 11 21.52 8.46
-1 -3 11 -2.16 9.47
0 3 -11 -14.78 9.06
0 3 -11 6.63 8.18
0 3 -11 15.33 11.09
0 3 -11 -1.61 10.82
0 -3 11 19.15 9.72
0 -3 11 -1.41 7.35
0 -3 11 -7.94 9.22
-1 3 -11 0.19 10.65
-1 3 -11 -8.81 10.45
-1 3 -11 9.16 8.76
-1 3 -11 11.27 10.4
1 -3 11 -2.71 7.71
1 -3 11 15.57 9.93
1 -3 11 29.21 10.69
-2 3 -11 20.98 9.55
-3 -2 11 5.46 8.52
2 2 -11 10.71 10.49
2 2 -11 -1.62 8.55
2 2 -11 12.73 10.61
2 2 -11 -6.09 12.23
-2 -2 11 2.97 7.62
-2 -2 11 15.38 10.57
1 2 -11 4.81 9.97
1 2 -11 -12.61 10.22
1 2 -11 4.71 8.91
-1 -2 11 13.84 8.64
-1 -2 11 6.68 9.97
-1 -2 11 14.15 7.83
0 2 -11 11.17 11.34
0 2 -11 -3.69 11.63
0 2 -11 5.29 8.7
0 2 -11 4.17 9.57
0 -2 11 12.58 8.56
0 -2 11 30.98 10.81
0 -2 11 34.37 11.03
-1 2 -11 -10.64 10.43
-1 2 -11 6.13 9.91
-1 2 -11 1.12 8.71
-1 2 -11 25.98 11.69
1 -2 11 -1.21 9.56
1 -2 11 0.5 9.05
1 -2 11 7.59 11.05
2 1 -11 2.9 11.77
2 1 -11 3.98 10.9
-2 -1 11 -3.32 8.38
-2 -1 11 -8.72 10.09
1 1 -11 13.63 9.56
1 1 -11 5.78 9.42
1 1 -11 3.92 11.02
-1 -1 11 12.35 10.62
-1 -1 11 -1.47 8.6
-1 -1 11 18.53 9.13
-1 -1 11 22.44 10
0 1 -11 -13.86 11.39
0 1 -11 12.18 11.66
0 1 -11 -15.09 8.13
0 -1 11 13.87 9.08
0 -1 11 -0.65 9.88
0 -1 11 31.61 13.32
0 -1 11 -3.43 11.53
