#------------------------------------------------------------------------------
#$Date: 2020-09-06 11:17:21 +0300 (Sun, 06 Sep 2020) $
#$Revision: 255964 $
#$URL: file:///home/coder/svn-repositories/cod/cif/7/12/69/7126913.cif $
#------------------------------------------------------------------------------
#
# This file is available in the Crystallography Open Database (COD),
# http://www.crystallography.net/
#
# All data on this site have been placed in the public domain by the
# contributors.
#
data_7126913
loop_
_publ_author_name
'Ou, Xiao'
'Li, Xizhen'
'Rong, Haowei'
'Yu, Lian'
'Lu, Ming'
_publ_section_title
;
 A general method for cultivating single crystals from melt microdroplets.
;
_journal_issue                   69
_journal_name_full
'Chemical communications (Cambridge, England)'
_journal_page_first              9950
_journal_page_last               9953
_journal_paper_doi               10.1039/d0cc03157g
_journal_volume                  56
_journal_year                    2020
_chemical_formula_moiety         'C8 H9 N O2'
_chemical_formula_sum            'C8 H9 N O2'
_chemical_formula_weight         151.16
_chemical_melting_point          444
_chemical_name_common            Paracetamol
_space_group_crystal_system      monoclinic
_space_group_IT_number           14
_space_group_name_Hall           '-P 2yn'
_space_group_name_H-M_alt        'P 1 21/n 1'
_atom_sites_solution_hydrogens   geom
_atom_sites_solution_primary     dual
_audit_creation_date             2019-12-24
_audit_creation_method
;
Olex2 1.3
(compiled Nov 21 2019 18:26:39 for OlexSys, GUI svn.r6003)
;
_audit_update_record
;
2020-03-01 deposited with the CCDC.	2020-07-13 downloaded from the CCDC.
;
_cell_angle_alpha                90
_cell_angle_beta                 97.8900(10)
_cell_angle_gamma                90
_cell_formula_units_Z            4
_cell_length_a                   7.08950(10)
_cell_length_b                   9.21120(10)
_cell_length_c                   11.59660(10)
_cell_measurement_reflns_used    12179
_cell_measurement_temperature    100.01(10)
_cell_measurement_theta_max      75.6850
_cell_measurement_theta_min      3.8260
_cell_volume                     750.122(15)
_computing_cell_refinement       'CrysAlisPro 1.171.40.54a (Rigaku OD, 2019)'
_computing_data_collection       'CrysAlisPro 1.171.40.54a (Rigaku OD, 2019)'
_computing_data_reduction        'CrysAlisPro 1.171.40.54a (Rigaku OD, 2019)'
_computing_molecular_graphics    'Olex2 1.3 (Dolomanov et al., 2009)'
_computing_publication_material  'Olex2 1.3 (Dolomanov et al., 2009)'
_computing_structure_refinement  'SHELXL 2016/6 (Sheldrick, 2015)'
_computing_structure_solution    'SHELXT 2014/5 (Sheldrick, 2014)'
_diffrn_ambient_environment      N~2~
_diffrn_ambient_temperature      100.01(10)
_diffrn_detector                 'CCD plate'
_diffrn_detector_area_resol_mean 10.0000
_diffrn_detector_type            HyPix
_diffrn_measured_fraction_theta_full 1.000
_diffrn_measured_fraction_theta_max 0.969
_diffrn_measurement_details
;
List of Runs (angles in degrees, time in seconds):

  # Type    Start    End  Width  t~exp~   \w     \q     \k     \f   Frames
#--------------------------------------------------------------------------
  1  \w    -92.00  -7.00   0.50    0.05    --  -46.62 119.00-170.00  170
  2  \w     54.00 120.00   0.50    0.05    --   46.62 156.00 -14.00  132
  3  \w     79.00 178.00   0.50    0.05    --  105.44 119.00-170.00  198
  4  \w     90.00 178.00   0.50    0.05    --  105.44  30.00 120.00  176
  5  \w     31.00 114.00   0.50    0.05    --   46.62-156.00 -51.00  166
  6  \w     33.00 138.00   0.50    0.05    --  105.44-156.00 -51.00  210
  7  \w     33.00 113.00   0.50    0.05    --  105.44-119.00 104.00  160
  8  \w     33.00 129.00   0.50    0.05    --  105.44 -77.00  90.00  192
  9  \w     33.00 108.00   0.50    0.05    --  105.44 -94.00 -60.00  150
 10  \w     33.00 123.00   0.50    0.05    --  105.44 -61.00  60.00  180
 11  \w     33.00 108.00   0.50    0.05    --  105.44 -94.00 -30.00  150
 12  \w     11.00  92.00   0.50    0.05    --   46.62-119.00 104.00  162
 13  \w   -119.00 -50.00   0.50    0.05    --  -46.62-156.00 -51.00  138
 14  \w   -113.00 -27.00   0.50    0.05    -- -100.00 119.00-170.00  172
 15  \w   -115.00 -25.00   0.50    0.05    -- -100.00  30.00-120.00  180
 16  \w   -119.00 -23.00   0.50    0.05    --  -46.62 -77.00  30.00  192
 17  \w   -119.00 -23.00   0.50    0.05    --  -46.62 -77.00 120.00  192
 18  \w   -119.00 -71.00   0.50    0.05    --  -46.62-125.00  30.00   96
 19  \w   -119.00 -30.00   0.50    0.05    --  -46.62 -57.00 -60.00  178
 20  \w   -119.00 -71.00   0.50    0.05    --  -46.62-125.00-180.00   96
 21  \w   -119.00 -23.00   0.50    0.05    --  -46.62 -77.00-120.00  192
 22  \w   -117.00 -27.00   0.50    0.05    -- -100.00  61.00  30.00  180
 23  \w   -119.00 -74.00   0.50    0.05    --  -46.62 -57.00 150.00   90
 24  \w   -173.00 -75.00   0.50    0.05    -- -100.00-119.00 104.00  196
 25  \w   -166.00 -50.00   0.50    0.05    -- -100.00-156.00 -51.00  232
 26  \w   -173.00 -71.00   0.50    0.05    -- -100.00-125.00 150.00  204
 27  \w   -172.00 -85.00   0.50    0.05    -- -100.00 -45.00   0.00  174
 28  \w   -172.00 -85.00   0.50    0.05    -- -100.00 -45.00 -90.00  174
 29  \w   -173.00 -81.00   0.50    0.05    -- -100.00 -94.00-150.00  184
 30  \w   -137.00 -27.00   0.50    0.05    -- -100.00 156.00 -14.00  220
;
_diffrn_measurement_device       'four-circle diffractometer'
_diffrn_measurement_device_type  'XtaLAB Synergy R, DW system, HyPix'
_diffrn_measurement_method       '\w scans'
_diffrn_orient_matrix_type
'CrysAlisPro convention (1999,Acta A55,543-557)'
_diffrn_orient_matrix_UB_11      -0.0294235000
_diffrn_orient_matrix_UB_12      -0.1395671000
_diffrn_orient_matrix_UB_13      0.0685580000
_diffrn_orient_matrix_UB_21      -0.0905237000
_diffrn_orient_matrix_UB_22      0.0899099000
_diffrn_orient_matrix_UB_23      0.0901268000
_diffrn_orient_matrix_UB_31      -0.1975441000
_diffrn_orient_matrix_UB_32      -0.0203639000
_diffrn_orient_matrix_UB_33      -0.0719463000
_diffrn_radiation_monochromator  mirror
_diffrn_radiation_probe          x-ray
_diffrn_radiation_type           'Cu K\a'
_diffrn_radiation_wavelength     1.54184
_diffrn_reflns_av_R_equivalents  0.0360
_diffrn_reflns_av_unetI/netI     0.0146
_diffrn_reflns_Laue_measured_fraction_full 1.000
_diffrn_reflns_Laue_measured_fraction_max 0.969
_diffrn_reflns_limit_h_max       8
_diffrn_reflns_limit_h_min       -8
_diffrn_reflns_limit_k_max       11
_diffrn_reflns_limit_k_min       -11
_diffrn_reflns_limit_l_max       14
_diffrn_reflns_limit_l_min       -14
_diffrn_reflns_number            13453
_diffrn_reflns_point_group_measured_fraction_full 1.000
_diffrn_reflns_point_group_measured_fraction_max 0.969
_diffrn_reflns_theta_full        67.684
_diffrn_reflns_theta_max         76.038
_diffrn_reflns_theta_min         6.159
_diffrn_source                   'Rotating-anode X-ray tube'
_diffrn_source_type              'Rigaku (Cu) X-ray Source'
_exptl_absorpt_coefficient_mu    0.803
_exptl_absorpt_correction_T_max  1.00000
_exptl_absorpt_correction_T_min  0.69621
_exptl_absorpt_correction_type   multi-scan
_exptl_absorpt_process_details
;
CrysAlisPro 1.171.40.54a (Rigaku Oxford Diffraction, 2019)
Empirical absorption correction using spherical harmonics,
 implemented in SCALE3 ABSPACK scaling algorithm.
;
_exptl_crystal_colour            colourless
_exptl_crystal_density_diffrn    1.339
_exptl_crystal_description       block
_exptl_crystal_F_000             320
_exptl_crystal_recrystallization_method 'From the Melt'
_exptl_crystal_size_max          0.14
_exptl_crystal_size_mid          0.1
_exptl_crystal_size_min          0.05
_refine_diff_density_max         0.288
_refine_diff_density_min         -0.437
_refine_diff_density_rms         0.133
_refine_ls_extinction_method     none
_refine_ls_goodness_of_fit_ref   1.125
_refine_ls_hydrogen_treatment    constr
_refine_ls_matrix_type           full
_refine_ls_number_parameters     102
_refine_ls_number_reflns         1527
_refine_ls_number_restraints     0
_refine_ls_restrained_S_all      1.125
_refine_ls_R_factor_all          0.0433
_refine_ls_R_factor_gt           0.0424
_refine_ls_shift/su_max          0.000
_refine_ls_shift/su_mean         0.000
_refine_ls_structure_factor_coef Fsqd
_refine_ls_weighting_details
'w=1/[\s^2^(Fo^2^)+(0.0645P)^2^+0.2877P] where P=(Fo^2^+2Fc^2^)/3'
_refine_ls_weighting_scheme      calc
_refine_ls_wR_factor_gt          0.1125
_refine_ls_wR_factor_ref         0.1137
_reflns_Friedel_coverage         0.000
_reflns_number_gt                1477
_reflns_number_total             1527
_reflns_threshold_expression     'I > 2\s(I)'
_iucr_refine_instructions_details
;
TITL lm-apap-191224-100k-2_a.res in P2(1)/n
    lm-apap-191224-100k-2.res
    created by SHELXL-2016/6 at 14:27:36 on 24-Dec-2019
REM Old TITL LM-APAP-191224-100K-2 in P2(1)
REM SHELXT solution in P2(1)/n
REM R1 0.155, Rweak 0.111, Alpha 0.014, Orientation as input
REM Formula found by SHELXT: C8 O2 N
CELL 1.54184 7.0895 9.2112 11.5966 90 97.89 90
ZERR 4 0.0001 0.0001 0.0001 0 0.001 0
LATT 1
SYMM 0.5-X,0.5+Y,0.5-Z
SFAC C H O N
UNIT 32 36 8 4

L.S. 4 0 0
PLAN  5
CONF
BOND $H
list 4
MORE -1
fmap 2 53
acta
REM <olex2.extras>
REM <HklSrc "%.\\LM-APAP-191224-100K-2.hkl">
REM </olex2.extras>

WGHT    0.064500    0.287700
FVAR       1.24034
O001  3    0.335248    0.076815    0.277413    11.00000    0.01277    0.02413 =
         0.02119   -0.00728    0.00065    0.00114
AFIX 147
H001  2    0.437559    0.046599    0.261801    11.00000   -1.50000
AFIX   0
O002  3    0.146795    0.505748    0.691369    11.00000    0.01384    0.02870 =
         0.02049   -0.00013    0.00443    0.00242
N003  4    0.447783    0.448797    0.660327    11.00000    0.01101    0.01713 =
         0.01628   -0.00060    0.00147    0.00008
AFIX  43
H003  2    0.565806    0.464516    0.685591    11.00000   -1.20000
AFIX   0
C004  1    0.411559    0.357204    0.561567    11.00000    0.01433    0.01424 =
         0.01377    0.00187    0.00321   -0.00078
C005  1    0.366420    0.169175    0.370620    11.00000    0.01505    0.01569 =
         0.01516    0.00029    0.00272   -0.00132
C006  1    0.219880    0.263099    0.390344    11.00000    0.01150    0.01978 =
         0.01688    0.00180   -0.00011    0.00014
AFIX  43
H006  2    0.106181    0.262760    0.339683    11.00000   -1.20000
AFIX   0
C007  1    0.321245    0.514406    0.719728    11.00000    0.01650    0.01475 =
         0.01568    0.00346    0.00448    0.00090
C008  1    0.242007    0.357132    0.484867    11.00000    0.01322    0.01611 =
         0.01821    0.00206    0.00362    0.00216
AFIX  43
H008  2    0.143880    0.419922    0.496953    11.00000   -1.20000
AFIX   0
C009  1    0.537496    0.171727    0.445755    11.00000    0.01368    0.01899 =
         0.02091   -0.00051    0.00218    0.00414
AFIX  43
H009  2    0.636876    0.110807    0.432457    11.00000   -1.20000
AFIX   0
C00A  1    0.559427    0.264995    0.540200    11.00000    0.01203    0.01990 =
         0.01804    0.00045   -0.00065    0.00227
AFIX  43
H00A  2    0.673961    0.266328    0.590060    11.00000   -1.20000
AFIX   0
C00B  1    0.407120    0.601216    0.823802    11.00000    0.02157    0.02118 =
         0.02085   -0.00397    0.00529   -0.00077
AFIX 137
H00B  2    0.396295    0.702882    0.805899    11.00000   -1.50000
H00C  2    0.539038    0.575979    0.843226    11.00000   -1.50000
H00D  2    0.340805    0.580160    0.888669    11.00000   -1.50000
AFIX   0
HKLF 4




REM  lm-apap-191224-100k-2_a.res in P2(1)/n
REM R1 =  0.0424 for    1477 Fo > 4sig(Fo)  and  0.0433 for all    1527 data
REM    102 parameters refined using      0 restraints

END  
     
WGHT      0.0645      0.2877 

REM Highest difference peak  0.288,  deepest hole -0.437,  1-sigma level  0.133
Q1    1   0.1580  0.5865  0.4659  11.00000  0.05    0.29
Q2    1   0.3218  0.5785  1.0256  11.00000  0.05    0.29
Q3    1   0.2439  0.7870  0.7394  11.00000  0.05    0.28
Q4    1   0.3123  0.3438  0.7884  11.00000  0.05    0.27
Q5    1   0.1957  0.5880  0.5212  11.00000  0.05    0.27

  REM The information below was added by Olex2.
  REM
  REM R1 = 0.0424 for 1477 Fo > 4sig(Fo) and 0.0433 for all 14043 data
  REM n/a parameters refined using n/a restraints
  REM Highest difference peak 0.29, deepest hole -0.44
  REM Mean Shift 0, Max Shift 0.000.

  REM +++ Tabular Listing of Refinement Information +++
  REM R1_all = 0.0433
  REM R1_gt = 0.0424
  REM wR_ref = 0.1137
  REM GOOF = 1.125
  REM Shift_max = 0.000
  REM Shift_mean = 0
  REM Reflections_all = 14043
  REM Reflections_gt = 1477
  REM Parameters = n/a
  REM Hole = -0.44
  REM Peak = 0.29
  REM Flack = n/a

  
;
_cod_data_source_file            d0cc03157g2.cif
_cod_data_source_block           Paracetamol-100k-XOu
_cod_depositor_comments
;
The following automatic conversions were performed:

data item '_chemical_melting_point' value '444K' was changed to '444'
-- the value should be numeric and without a unit designator.

Automatic conversion script
Id: cif_fix_values 7556 2019-12-06 15:28:31Z antanas 

 Adding full bibliography for 7126896--7126915.cif.
;
_cod_database_code               7126913
_shelx_shelxl_version_number     2016/6
_shelx_space_group_comment
;
The symmetry employed for this shelxl refinement is uniquely defined
by the following loop, which should always be used as a source of
symmetry information in preference to the above space-group names.
They are only intended as comments.
;
_reflns_odcompleteness_completeness 100.00
_reflns_odcompleteness_iscentric 1
_reflns_odcompleteness_theta     66.97
_olex2_refinement_description
;
1. Fixed Uiso
 At 1.2 times of:
  All C(H) groups, All N(H) groups
 At 1.5 times of:
  All C(H,H,H) groups, All O(H) groups
2.a Aromatic/amide H refined with riding coordinates:
 N003(H003), C006(H006), C008(H008), C009(H009), C00A(H00A)
2.b Idealised Me refined as rotating group:
 C00B(H00B,H00C,H00D)
2.c Idealised tetrahedral OH refined as rotating group:
 O001(H001)
;
_olex2_submission_special_instructions 'No special instructions were received'
_oxdiff_exptl_absorpt_empirical_details
;
Empirical correction (ABSPACK) includes:
- Absorption correction using spherical harmonics
- Frame scaling
;
_oxdiff_exptl_absorpt_empirical_full_max 1.469
_oxdiff_exptl_absorpt_empirical_full_min 0.590
loop_
_space_group_symop_operation_xyz
'x, y, z'
'-x+1/2, y+1/2, -z+1/2'
'-x, -y, -z'
'x-1/2, -y-1/2, z-1/2'
loop_
_atom_site_label
_atom_site_type_symbol
_atom_site_fract_x
_atom_site_fract_y
_atom_site_fract_z
_atom_site_U_iso_or_equiv
_atom_site_adp_type
_atom_site_occupancy
_atom_site_site_symmetry_order
_atom_site_calc_flag
_atom_site_refinement_flags_posn
_atom_site_refinement_flags_adp
_atom_site_refinement_flags_occupancy
_atom_site_disorder_assembly
_atom_site_disorder_group
O001 O 0.33525(11) 0.07681(10) 0.27741(7) 0.0195(2) Uani 1 1 d . . . . .
H001 H 0.437559 0.046599 0.261801 0.029 Uiso 1 1 calc R U . . .
O002 O 0.14680(11) 0.50575(10) 0.69137(8) 0.0208(2) Uani 1 1 d . . . . .
N003 N 0.44778(13) 0.44880(11) 0.66033(8) 0.0148(3) Uani 1 1 d . . . . .
H003 H 0.565806 0.464516 0.685591 0.018 Uiso 1 1 calc R U . . .
C004 C 0.41156(16) 0.35720(12) 0.56157(10) 0.0140(3) Uani 1 1 d . . . . .
C005 C 0.36642(16) 0.16918(13) 0.37062(10) 0.0152(3) Uani 1 1 d . . . . .
C006 C 0.21988(16) 0.26310(13) 0.39034(10) 0.0162(3) Uani 1 1 d . . . . .
H006 H 0.106181 0.262760 0.339683 0.019 Uiso 1 1 calc R U . . .
C007 C 0.32124(16) 0.51441(12) 0.71973(10) 0.0154(3) Uani 1 1 d . . . . .
C008 C 0.24201(16) 0.35713(12) 0.48487(10) 0.0157(3) Uani 1 1 d . . . . .
H008 H 0.143880 0.419922 0.496953 0.019 Uiso 1 1 calc R U . . .
C009 C 0.53750(16) 0.17173(13) 0.44576(11) 0.0179(3) Uani 1 1 d . . . . .
H009 H 0.636876 0.110807 0.432457 0.021 Uiso 1 1 calc R U . . .
C00A C 0.55943(16) 0.26499(13) 0.54020(10) 0.0169(3) Uani 1 1 d . . . . .
H00A H 0.673961 0.266328 0.590060 0.020 Uiso 1 1 calc R U . . .
C00B C 0.40712(17) 0.60122(14) 0.82380(11) 0.0210(3) Uani 1 1 d . . . . .
H00B H 0.396295 0.702882 0.805899 0.031 Uiso 1 1 calc R U . . .
H00C H 0.539038 0.575979 0.843226 0.031 Uiso 1 1 calc R U . . .
H00D H 0.340805 0.580160 0.888669 0.031 Uiso 1 1 calc R U . . .
loop_
_atom_site_aniso_label
_atom_site_aniso_U_11
_atom_site_aniso_U_22
_atom_site_aniso_U_33
_atom_site_aniso_U_23
_atom_site_aniso_U_13
_atom_site_aniso_U_12
O001 0.0128(4) 0.0241(5) 0.0212(5) -0.0073(3) 0.0007(3) 0.0011(3)
O002 0.0138(5) 0.0287(5) 0.0205(5) -0.0001(3) 0.0044(3) 0.0024(3)
N003 0.0110(5) 0.0171(5) 0.0163(5) -0.0006(4) 0.0015(4) 0.0001(3)
C004 0.0143(5) 0.0142(5) 0.0138(5) 0.0019(4) 0.0032(4) -0.0008(4)
C005 0.0150(5) 0.0157(5) 0.0152(6) 0.0003(4) 0.0027(4) -0.0013(4)
C006 0.0115(5) 0.0198(6) 0.0169(6) 0.0018(4) -0.0001(4) 0.0001(4)
C007 0.0165(6) 0.0147(6) 0.0157(6) 0.0035(4) 0.0045(4) 0.0009(4)
C008 0.0132(5) 0.0161(6) 0.0182(6) 0.0021(4) 0.0036(4) 0.0022(4)
C009 0.0137(6) 0.0190(6) 0.0209(6) -0.0005(5) 0.0022(4) 0.0041(4)
C00A 0.0120(5) 0.0199(6) 0.0180(6) 0.0005(5) -0.0006(4) 0.0023(4)
C00B 0.0216(6) 0.0212(6) 0.0209(6) -0.0040(5) 0.0053(5) -0.0008(5)
loop_
_atom_type_symbol
_atom_type_description
_atom_type_scat_dispersion_real
_atom_type_scat_dispersion_imag
_atom_type_scat_source
C C 0.0181 0.0091 'International Tables Vol C Tables 4.2.6.8 and 6.1.1.4'
H H 0.0000 0.0000 'International Tables Vol C Tables 4.2.6.8 and 6.1.1.4'
O O 0.0492 0.0322 'International Tables Vol C Tables 4.2.6.8 and 6.1.1.4'
N N 0.0311 0.0180 'International Tables Vol C Tables 4.2.6.8 and 6.1.1.4'
loop_
_diffrn_refln_index_h
_diffrn_refln_index_k
_diffrn_refln_index_l
_diffrn_refln_intensity_net
_diffrn_refln_intensity_u
0 -11 0 0.04 0.3
0 -11 1 528.92 10.41
0 -11 -2 30.43 1.49
0 -11 2 27.72 1.47
0 -11 -3 4.48 0.54
0 -11 -3 3.62 0.49
0 -11 -4 0.17 0.18
0 -10 0 139.06 4.19
0 -10 0 146.44 4.71
0 -10 1 355.9 8.13
0 -10 1 371.55 8.71
0 -10 2 399.04 8.83
0 -10 -2 419.59 9.22
0 -10 2 406.11 9.36
0 -10 3 14.72 1.23
0 -10 3 15.66 1.35
0 -10 -3 15.56 1.29
0 -10 4 23.54 1.49
0 -10 4 21.57 1.48
0 -10 -4 19.39 1.32
0 -10 -5 -0.03 0.24
0 -10 5 0.15 0.28
0 -10 6 0.48 0.29
0 -10 -7 38.58 1.62
0 -9 0 0.06 0.36
0 -9 0 -0.2 0.46
0 -9 1 153.17 5.06
0 -9 -1 159.28 5.04
0 -9 1 155.07 5.24
0 -9 -2 0.17 0.33
0 -9 2 0.97 0.53
0 -9 2 0.9 0.63
0 -9 -2 1.9 0.61
0 -9 3 0.69 0.5
0 -9 3 1.1 0.58
0 -9 -3 0.72 0.44
0 -9 4 97.02 3.79
0 -9 -4 101.88 3.68
0 -9 4 93.82 3.85
0 -9 5 2.08 0.62
0 -9 5 1.92 0.59
0 -9 -5 2.77 0.61
0 -9 -6 51.17 2.26
0 -9 -6 54.01 2.22
0 -9 6 50.77 2.32
0 -9 -6 48.36 1.91
0 -9 -7 140.23 3.89
0 -9 7 150.35 4.26
0 -9 -7 138.88 3.79
0 -9 -8 1.19 0.36
0 -9 -8 1.15 0.42
0 -9 -8 0.61 0.25
0 -9 8 1.27 0.4
0 -8 0 139.49 4.89
0 -8 0 155.13 4.94
0 -8 0 153.6 5.06
0 -8 0 146.21 5.25
0 -8 -1 39.07 2.36
0 -8 1 33.42 2.24
0 -8 -1 41.53 2.43
0 -8 1 40.06 2.24
0 -8 1 34.94 2.27
0 -8 1 40.19 2.56
0 -8 -1 39.5 2.58
0 -8 2 54.44 2.85
0 -8 -2 46.06 2.59
0 -8 2 52.1 2.48
0 -8 -2 52.14 2.84
0 -8 2 45.4 2.73
0 -8 -2 59.04 2.85
0 -8 2 49.36 2.75
0 -8 -3 422.59 9.53
0 -8 3 401.25 10.02
0 -8 3 424.17 10.03
0 -8 -3 414.04 9.63
0 -8 -3 417.74 9.68
0 -8 3 439.06 10.27
0 -8 4 55.29 2.88
0 -8 -4 59.55 2.64
0 -8 -4 58.21 2.97
0 -8 4 51.55 2.85
0 -8 -4 58.93 2.86
0 -8 -4 50.57 2.95
0 -8 4 57.11 3
0 -8 -4 52.92 2.66
0 -8 5 266.44 7.28
0 -8 -5 274.68 6.93
0 -8 -5 265.05 7.52
0 -8 -5 278.33 7.32
0 -8 -5 275.53 6.91
0 -8 5 246.87 7.11
0 -8 -6 0.74 0.46
0 -8 -6 1.4 0.61
0 -8 -6 0.33 0.41
0 -8 6 0.77 0.5
0 -8 6 -0.12 0.37
0 -8 -6 0.1 0.33
0 -8 -7 4 0.79
0 -8 -7 4.49 0.9
0 -8 -7 3.92 0.78
0 -8 7 5.3 0.89
0 -8 -8 39.15 2.21
0 -8 -8 40.17 2.36
0 -8 8 35.63 2.02
0 -8 -8 37.05 2.07
0 -8 -9 8.22 0.88
0 -8 -9 9.44 1.05
0 -8 9 7.9 0.88
0 -8 -9 9.3 0.96
0 -8 -10 134.88 3.71
0 -8 -10 131.55 3.49
0 -7 0 -0.12 0.3
0 -7 0 -0.16 0.35
0 -7 0 -0.17 0.38
0 -7 0 0.07 0.32
0 -7 1 64.51 3.03
0 -7 -1 66.49 3.02
0 -7 -1 65.76 2.97
0 -7 1 73.71 2.97
0 -7 1 63.88 2.9
0 -7 1 76.71 3.37
0 -7 -1 69.67 3.29
0 -7 -2 102.82 3.92
0 -7 2 103.11 3.96
0 -7 -2 119.13 4.48
0 -7 -2 105.88 3.64
0 -7 2 115.75 4.27
0 -7 2 104.29 3.6
0 -7 -2 116.83 4.18
0 -7 -2 108.78 3.84
0 -7 2 106.1 3.94
0 -7 -3 21.7 1.48
0 -7 -3 20.28 1.61
0 -7 3 20.02 1.64
0 -7 -3 23.03 1.68
0 -7 3 19.33 1.66
0 -7 -3 20.32 1.56
0 -7 3 21.23 1.7
0 -7 -4 17.8 1.45
0 -7 4 15.41 1.5
0 -7 -4 15.98 1.47
0 -7 -4 18.03 1.68
0 -7 -4 19.66 1.51
0 -7 4 16.5 1.52
0 -7 -5 804.49 15.48
0 -7 -5 847.95 16.06
0 -7 5 824.84 16.24
0 -7 -5 784.23 16.3
0 -7 5 777.42 16.21
0 -7 -5 773.57 16.52
0 -7 5 786.81 16.15
0 -7 -6 254.29 6.33
0 -7 -6 271.7 7.11
0 -7 6 249.74 6.97
0 -7 6 223.14 6.77
0 -7 -6 263.96 7.37
0 -7 -6 244.49 7.24
0 -7 6 236.65 6.71
0 -7 -7 438.44 10.15
0 -7 7 407.62 9.84
0 -7 -7 422.89 8.86
0 -7 -7 419.04 10.3
0 -7 -8 24.3 1.96
0 -7 -8 23.83 1.86
0 -7 8 24.31 1.8
0 -7 -9 116.63 4.27
0 -7 -9 120.84 4.46
0 -7 -9 127.95 4.77
0 -7 -10 4.78 0.84
0 -7 10 3.9 0.66
0 -7 11 0.14 0.2
0 -6 0 44.53 2.28
0 -6 0 50.85 1.91
0 -6 0 53.75 2.34
0 -6 0 51.92 2.27
0 -6 0 52.61 2.52
0 -6 1 78.79 3.05
0 -6 -1 73.27 2.97
0 -6 -1 80.94 3.24
0 -6 1 79.4 3.12
0 -6 -1 79.08 2.52
0 -6 -1 82.88 3.05
0 -6 1 79.01 2.82
0 -6 1 72.27 2.39
0 -6 -1 68.38 2.71
0 -6 1 79.82 2.97
0 -6 2 97.07 3.47
0 -6 -2 89.94 3.33
0 -6 -2 86.34 3.07
0 -6 -2 93.17 3.61
0 -6 2 90.96 3.45
0 -6 -2 93.78 2.97
0 -6 2 91.58 3.02
0 -6 -2 96.06 2.96
0 -6 2 95.92 3.37
0 -6 -2 86.94 3.09
0 -6 -3 0.87 0.38
0 -6 3 1 0.45
0 -6 3 1.11 0.45
0 -6 -3 1.45 0.44
0 -6 -3 1.6 0.43
0 -6 3 0.79 0.32
0 -6 -3 0.65 0.29
0 -6 3 0.77 0.4
0 -6 4 14.51 1.32
0 -6 -4 13.63 1.29
0 -6 -4 14.17 1.23
0 -6 4 14.22 1.01
0 -6 -4 14.63 1.39
0 -6 -4 14.88 1.15
0 -6 4 11.13 1.19
0 -6 -4 16.84 1.25
0 -6 5 104.81 3.97
0 -6 -5 114.28 4.23
0 -6 -5 119.41 4.09
0 -6 -5 113.19 4.27
0 -6 -5 114.38 3.74
0 -6 5 101.2 3.9
0 -6 -5 107.16 3.52
0 -6 6 2.78 0.7
0 -6 -6 3.08 0.78
0 -6 -6 1.85 0.63
0 -6 -6 1.9 0.62
0 -6 -6 2.78 0.55
0 -6 6 1.97 0.6
0 -6 -7 265.53 7.52
0 -6 -7 263.83 7.53
0 -6 7 290.49 7.5
0 -6 -7 278.33 7.9
0 -6 -8 79.31 3.83
0 -6 9 85.4 3.55
0 -6 -9 95.53 4.16
0 -6 10 0.31 0.39
0 -6 -10 0.82 0.51
0 -6 -11 1.72 0.56
0 -6 11 0.74 0.36
0 -6 -11 1.27 0.5
0 -6 -12 53.14 2.07
0 -6 -12 50.43 1.99
0 -5 0 0.03 0.21
0 -5 0 -0.03 0.19
0 -5 -1 91.6 2.74
0 -5 -1 109.17 3.22
0 -5 1 97.09 2.8
0 -5 1 100.02 3.25
0 -5 -1 106.05 3.39
0 -5 -2 135.55 3.49
0 -5 2 124.6 3.37
0 -5 -2 135.53 4.06
0 -5 -3 1433 24.61
0 -5 -3 1504.14 25.26
0 -5 3 1413.81 24.39
0 -5 -3 1483.65 25.69
0 -5 4 66.95 2.46
0 -5 -4 72.03 2.59
0 -5 4 71.95 2.5
0 -5 -4 73.89 2.9
0 -5 -4 69.27 2.8
0 -5 -4 74.13 2.76
0 -5 -5 1081.23 19.7
0 -5 -5 1115.5 19.44
0 -5 5 1041.11 18.66
0 -5 -5 1157.77 19.19
0 -5 -5 975.51 19.37
0 -5 5 1006.9 18.74
0 -5 5 1016.58 19.22
0 -5 -5 1046.45 18.46
0 -5 -6 27.65 2
0 -5 -6 30.1 1.95
0 -5 -6 27.1 1.5
0 -5 -6 28.52 1.94
0 -5 6 27.59 1.63
0 -5 7 452.78 9.66
0 -5 -7 427.68 10.24
0 -5 -8 1286.22 23.63
0 -5 -8 1124.87 22.6
0 -5 -9 56.47 3.21
0 -5 -9 45.62 2.79
0 -5 -10 -0.08 0.52
0 -5 -10 1.35 0.56
0 -5 11 9.82 1.03
0 -5 -11 10.97 1.23
0 -5 -12 7.8 0.91
0 -5 -12 6.76 0.86
0 -5 12 6.27 0.69
0 -4 0 184.56 4.06
0 -4 0 187.28 4.43
0 -4 1 101.16 2.66
0 -4 -1 102.37 2.68
0 -4 -1 103.02 3.01
0 -4 -2 1043.27 17.97
0 -4 2 1057.25 17.67
0 -4 -2 1038.15 16.47
0 -4 -3 1353.18 21.62
0 -4 -3 1281.58 21.53
0 -4 -3 1324.38 21.56
0 -4 -3 1386.36 22.43
0 -4 -3 1419.88 22.79
0 -4 3 1275.96 22.11
0 -4 -4 79.85 2.26
0 -4 -4 70.48 2.43
0 -4 4 68.81 2.29
0 -4 -4 76.66 2.67
0 -4 -4 71.69 2.11
0 -4 -4 66.92 2.08
0 -4 -5 68.41 2.65
0 -4 -5 68.21 2.39
0 -4 -5 72.77 2.77
0 -4 -5 74.01 2.63
0 -4 -5 68.27 2.33
0 -4 -5 69.14 2.34
0 -4 5 69.59 2.45
0 -4 -5 65.15 2.74
0 -4 -6 0.77 0.29
0 -4 -6 0.7 0.41
0 -4 6 0.04 0.26
0 -4 -6 0.15 0.28
0 -4 -6 0.4 0.27
0 -4 -6 0.95 0.32
0 -4 -7 31.75 1.89
0 -4 -7 31.86 1.87
0 -4 -7 37.82 2.2
0 -4 -7 32.85 1.9
0 -4 -7 31.26 1.8
0 -4 -7 38.59 2.4
0 -4 7 31.24 1.83
0 -4 -7 30.65 1.93
0 -4 -7 34.85 1.99
0 -4 -8 17.74 1.6
0 -4 -8 16.53 1.45
0 -4 -8 16.22 1.37
0 -4 8 18.54 1.49
0 -4 -8 17.19 1.68
0 -4 -8 15.54 1.47
0 -4 -8 17.23 1.56
0 -4 -8 16.6 1.48
0 -4 -8 14.66 1.39
0 -4 -9 -0.07 0.36
0 -4 -9 -0.06 0.31
0 -4 -9 -0.09 0.52
0 -4 -9 0.06 0.29
0 -4 -9 0.07 0.41
0 -4 9 1.36 0.5
0 -4 -9 0.07 0.4
0 -4 -10 136.98 4.94
0 -4 -10 126.2 4.7
0 -4 -10 131.27 4.55
0 -4 -10 127.02 4.37
0 -4 -11 2.76 0.75
0 -4 -11 2.16 0.58
0 -4 -11 2.66 0.7
0 -4 -11 3.73 0.72
0 -4 12 110.18 2.89
0 -4 12 120.37 3.09
0 -4 -12 122.87 3.57
0 -4 -12 131.64 3.8
0 -4 -12 123.35 3.32
0 -3 0 0.02 0.15
0 -3 0 -0.02 0.18
0 -3 1 178.01 3.8
0 -3 -1 196.32 3.88
0 -3 -2 1358.81 21.27
0 -3 2 1347.43 21.67
0 -3 -2 1285.74 21.81
0 -3 -2 1337.71 21.24
0 -3 -2 1358.59 21.25
0 -3 -3 4966.51 76.76
0 -3 -3 4927.91 77.15
0 -3 -3 4786.75 77.22
0 -3 -3 4985.57 76.73
0 -3 -3 4865.93 76.7
0 -3 3 4691.13 76.94
0 -3 -4 183.6 4.05
0 -3 -4 179.87 4.18
0 -3 -4 172.37 4.22
0 -3 -4 176.51 3.99
0 -3 -4 178.29 3.98
0 -3 4 172.82 4.05
0 -3 -5 451.25 8.61
0 -3 5 434.11 8.52
0 -3 -5 411.31 8.62
0 -3 -5 458.3 8.73
0 -3 -5 418.69 8.44
0 -3 -5 419 8.41
0 -3 -6 1547.54 25.27
0 -3 -6 1546.78 25.21
0 -3 -6 1364.16 25.49
0 -3 6 1405.21 24.82
0 -3 -6 1353.46 24.81
0 -3 -6 1492.12 24.97
0 -3 -6 1436.41 24.94
0 -3 -7 57.12 2.58
0 -3 -7 49.82 2.65
0 -3 -7 52.02 2.4
0 -3 7 47.79 2.28
0 -3 -7 53.88 2.51
0 -3 -7 50.66 2.5
0 -3 -7 51.66 2.49
0 -3 -7 53.86 2.53
0 -3 -7 53.85 2.49
0 -3 -8 217.79 6.21
0 -3 8 200.16 5.78
0 -3 -8 224.71 6.1
0 -3 -8 199.9 5.97
0 -3 -8 219.61 6.31
0 -3 -8 216.65 6.26
0 -3 -8 213.7 6.17
0 -3 -8 225.99 6.24
0 -3 -9 19.47 1.72
0 -3 9 15 1.43
0 -3 -9 16.95 1.56
0 -3 -9 16.47 1.58
0 -3 -9 16.58 1.64
0 -3 -9 16.32 1.64
0 -3 -9 19.04 1.71
0 -3 -9 13.97 1.49
0 -3 -10 544.36 12.34
0 -3 -10 533.33 12.07
0 -3 10 567.03 12.01
0 -3 -10 507.49 12.01
0 -3 -10 527.42 12.51
0 -3 -10 591.13 12.84
0 -3 -10 545.99 12.52
0 -3 -10 526.92 12.38
0 -3 -11 17.49 1.61
0 -3 -11 18.78 1.64
0 -3 -11 20.38 1.86
0 -3 -11 20.36 1.73
0 -3 -12 43.55 2.29
0 -3 -12 44.45 2.33
0 -3 -12 42.84 2.29
0 -3 -12 45.39 2.52
0 -3 -12 43.79 2.36
0 -3 -13 22.85 1.31
0 -3 13 22.21 1.31
0 -3 -13 20.78 1.37
0 -3 -13 23.61 1.35
0 -2 0 705.29 11.59
0 -2 -1 1632.1 24.9
0 -2 -1 1591.82 24.88
0 -2 -1 1632.26 24.89
0 -2 -2 6616.35 108.24
0 -2 -2 7143.93 108.01
0 -2 -3 552.78 9.73
0 -2 -3 552.26 9.83
0 -2 -3 587.07 9.92
0 -2 -3 561.8 9.77
0 -2 -3 549.23 9.68
0 -2 3 587.36 9.84
0 -2 -4 801.68 13.39
0 -2 -4 795.19 13.38
0 -2 -4 821.22 13.37
0 -2 -4 746.93 13.27
0 -2 -4 771.58 13.25
0 -2 -5 813.62 14.14
0 -2 -5 769.19 13.84
0 -2 5 812.11 13.99
0 -2 -5 761.66 14
0 -2 -5 780.55 13.98
0 -2 -6 576.16 11.59
0 -2 -6 588.48 11.56
0 -2 -6 606.33 11.74
0 -2 -7 46.99 2.47
0 -2 7 48.61 2.22
0 -2 -7 47.66 2.28
0 -2 -7 48.48 2.39
0 -2 -7 49.07 2.35
0 -2 -7 49.7 2.41
0 -2 -7 48.86 2.26
0 -2 -8 272.3 6.86
0 -2 -8 267.66 7.18
0 -2 8 295.64 6.98
0 -2 -8 264.65 7.02
0 -2 -8 280.37 7.56
0 -2 -8 261.84 7.09
0 -2 -8 253.44 6.94
0 -2 -8 269.95 7.24
0 -2 -8 250.92 7.07
0 -2 -9 30.48 2.04
0 -2 -9 34.59 2.33
0 -2 9 28.28 1.94
0 -2 -9 26.86 2
0 -2 -9 34.33 2.45
0 -2 -9 32.2 2.24
0 -2 -9 29.85 2.19
0 -2 -9 26.8 2.12
0 -2 -9 28.9 2.19
0 -2 -10 136.32 4.76
0 -2 -10 144.24 5.21
0 -2 -10 130.43 4.94
0 -2 10 140.08 4.84
0 -2 -10 136.02 5.13
0 -2 -10 124.03 4.94
0 -2 -10 126.29 5.11
0 -2 -10 129.95 5.17
0 -2 -11 176.69 5.88
0 -2 -11 187.5 6.11
0 -2 -11 184.36 5.69
0 -2 -11 186.39 6.35
0 -2 -12 94.54 3.84
0 -2 -12 103.15 4.05
0 -2 -12 94.41 3.48
0 -2 -12 97.56 4.13
0 -2 -13 516.43 10.57
0 -2 -13 540.62 10.73
0 -2 -13 493.82 10.84
0 -2 13 473.17 10.59
0 -2 14 77.62 2.32
0 -2 -14 76.91 2.48
0 -1 0 3.07 0.2
0 -1 -1 992.67 14.68
0 -1 -1 945.21 14.52
0 -1 1 870.53 14.59
0 -1 -1 846.67 14.7
0 -1 -2 392.21 6.61
0 -1 -2 375.24 6.6
0 -1 2 395.26 6.65
0 -1 -3 63.61 1.65
0 -1 -3 65.76 1.73
0 -1 3 62.43 1.71
0 -1 -4 14.91 0.77
0 -1 -4 14.16 0.85
0 -1 -4 15.13 0.85
0 -1 4 13.82 0.82
0 -1 -5 1047.12 17.56
0 -1 -5 1040.73 17.54
0 -1 5 1000.27 17.28
0 -1 -6 393.16 8.21
0 -1 -6 381.83 8.18
0 -1 6 405.61 7.97
0 -1 -7 7.04 0.8
0 -1 7 8.85 0.9
0 -1 -7 8.45 1.03
0 -1 -7 10.34 1.02
0 -1 -7 8.78 0.96
0 -1 -7 7.13 0.9
0 -1 -7 8.54 0.97
0 -1 -8 295.28 7.24
0 -1 -8 294.91 7.62
0 -1 -8 336.16 7.9
0 -1 -8 332.15 8.38
0 -1 8 325.93 7.56
0 -1 -8 319.57 7.92
0 -1 -8 294.46 7.68
0 -1 -8 310.52 7.97
0 -1 -8 301.61 7.88
0 -1 -9 60.83 3.12
0 -1 -9 60.3 2.85
0 -1 -9 56.43 2.98
0 -1 -9 62.41 3.1
0 -1 9 64.26 2.97
0 -1 -9 62.47 3.17
0 -1 -9 60.42 3.14
0 -1 -9 62.8 3.26
0 -1 -9 59.18 3.16
0 -1 -10 524.65 11.68
0 -1 -10 541.56 12.61
0 -1 -10 562.69 12.52
0 -1 10 536.79 11.92
0 -1 -10 534.2 12.49
0 -1 -10 543.46 12.6
0 -1 -10 516.21 12.65
0 -1 -10 548.18 12.81
0 -1 -11 117.22 4.68
0 -1 -11 120.09 4.81
0 -1 -11 107.24 3.99
0 -1 -11 113.22 4.88
0 -1 -12 7.53 1.12
0 -1 -12 8.74 1.28
0 -1 -12 8.89 1.25
0 -1 -13 2.37 0.6
0 -1 -13 2.62 0.62
0 -1 -13 3.16 0.72
0 -1 14 0.21 0.3
0 -1 -14 0.34 0.27
0 -1 -14 0.14 0.27
0 -1 -14 0.44 0.33
0 -1 14 0.69 0.33
0 0 1 0.2 0.05
0 0 -1 0.2 0.06
0 0 -1 0.02 0.04
0 0 -1 0.07 0.04
0 0 -1 0.11 0.06
0 0 2 734.02 11.43
0 0 -2 728.25 11.33
0 0 -2 731.27 11.46
0 0 -2 666.06 11.6
0 0 2 659.68 11.63
0 0 3 0.07 0.17
0 0 -3 0.04 0.09
0 0 3 0.01 0.1
0 0 -3 0.01 0.15
0 0 -4 130.45 2.53
0 0 -4 124.85 3.01
0 0 4 127.41 3.02
0 0 5 -0.03 0.23
0 0 -5 0.11 0.13
0 0 5 0.18 0.13
0 0 -5 0.44 0.26
0 0 -5 0.14 0.23
0 0 -6 320.83 6.82
0 0 -6 313.53 6.76
0 0 -6 284.26 6.56
0 0 6 273.02 6.31
0 0 -7 0.05 0.29
0 0 -7 0.66 0.35
0 0 7 0.85 0.4
0 0 -7 0.14 0.26
0 0 -7 -0.05 0.27
0 0 -8 444.26 9.76
0 0 8 465.35 9.55
0 0 -8 436.78 10
0 0 -8 432.03 9.91
0 0 -8 412.41 9.78
0 0 -8 445.62 9.87
0 0 -9 0.14 0.37
0 0 -9 0.07 0.39
0 0 -9 0.36 0.37
0 0 -9 0.34 0.37
0 0 9 -0.18 0.34
0 0 -9 0.23 0.35
0 0 -9 0.53 0.51
0 0 -9 0.35 0.48
0 0 -10 9.6 1.3
0 0 -10 7.42 1.13
0 0 10 5.68 0.96
0 0 -10 9.26 1.28
0 0 -10 10.21 1.33
0 0 -10 7.69 1.21
0 0 -10 9.45 1.33
0 0 -10 8.88 1.35
0 0 -11 0.31 0.44
0 0 -11 0.71 0.54
0 0 -11 0.41 0.45
0 0 -12 177.26 5.85
0 0 -12 191.29 6.32
0 0 -12 193.62 6.08
0 0 -13 0.06 0.4
0 0 -13 0.91 0.51
0 0 -13 0.13 0.44
0 0 -14 0.07 0.25
0 0 -14 0.14 0.25
0 0 -14 0.04 0.31
0 0 14 0.04 0.29
0 1 0 0.1 0.06
0 1 1 970.07 15.1
0 1 -1 979.35 15.4
0 1 -2 363.25 6.41
0 1 -2 344.45 6.38
0 1 -3 63.39 1.75
0 1 -3 64.27 1.62
0 1 -3 62.87 1.71
0 1 -4 13.62 0.84
0 1 -4 15.1 0.85
0 1 -4 12.96 0.74
0 1 4 14.96 0.79
0 1 -4 16.57 0.76
0 1 -5 1058.46 17.32
0 1 -5 947.69 17.04
0 1 -5 1000.94 17.23
0 1 5 940.37 16.66
0 1 -5 1013.46 16.77
0 1 -5 998.58 16.58
0 1 -6 386.04 8.17
0 1 -6 383.5 8.13
0 1 6 380.09 7.43
0 1 -6 405.68 7.56
0 1 -6 398.01 8.28
0 1 -7 9.52 1
0 1 -7 7.89 0.91
0 1 -7 9.58 1.01
0 1 7 7.27 0.67
0 1 -7 9.25 0.78
0 1 -7 8.82 0.98
0 1 -8 296.31 7.56
0 1 -8 314.89 7.65
0 1 -8 299.17 7.66
0 1 -8 299.74 7.72
0 1 8 296.11 6.89
0 1 -9 66.24 3.24
0 1 -9 67.54 3.31
0 1 -9 57.85 3.05
0 1 -9 64.74 3.27
0 1 -9 65.35 3.31
0 1 -9 58.72 3.03
0 1 -10 587.64 12.99
0 1 -10 568.36 12.84
0 1 -10 565.97 12.72
0 1 -10 551.12 12.95
0 1 -10 558.32 13.02
0 1 -11 119.04 4.67
0 1 -11 114.39 4.85
0 1 -11 114.15 4.64
0 1 -12 7.71 1.13
0 1 -12 9.71 1.34
0 1 -12 7.75 1.15
0 1 -13 1.74 0.53
0 1 -13 2.23 0.58
0 1 -13 1.35 0.53
0 1 14 0.07 0.3
0 1 -14 0.5 0.3
0 1 -14 0.63 0.29
0 1 -14 0.69 0.34
0 1 14 0.54 0.35
0 2 0 627.89 10.85
0 2 0 712.68 11
0 2 -1 1519.6 23.84
0 2 -1 1485.76 23.85
0 2 -1 1542.94 23.86
0 2 1 1460.48 23.96
0 2 1 1556.14 24.34
0 2 -1 1507.87 24.28
0 2 -1 1594.05 24.14
0 2 -2 7666.27 118.23
0 2 2 7448.41 118.57
0 2 -3 558.7 9.7
0 2 -3 519.77 9.59
0 2 -3 547.24 9.7
0 2 3 604.12 9.94
0 2 -3 534.99 9.96
0 2 -3 620.19 9.88
0 2 -4 731.52 13.33
0 2 -4 742.44 13.33
0 2 4 777.59 13.49
0 2 -4 805.11 13.65
0 2 -4 820.47 13.36
0 2 -4 768.01 13.41
0 2 -5 795.81 14
0 2 -5 757.69 13.86
0 2 -5 783.55 13.96
0 2 -5 821.06 13.79
0 2 5 766.82 13.86
0 2 -5 788.89 14.01
0 2 5 751.28 14.08
0 2 -6 592.7 11.44
0 2 -6 572.6 11.32
0 2 -6 562.19 11.27
0 2 -6 588.07 11.04
0 2 6 564.02 11.02
0 2 -6 597.62 11.48
0 2 7 52.31 2.37
0 2 -7 43.47 2.18
0 2 -7 44.92 2.18
0 2 -7 49.82 2.37
0 2 -7 50.73 2.35
0 2 -7 47.1 2.27
0 2 7 47.39 2.24
0 2 -7 46.86 2.05
0 2 7 48.98 2.06
0 2 -7 50.77 2.43
0 2 -8 258.04 6.92
0 2 -8 279.52 7.04
0 2 -8 228.1 6.59
0 2 -8 224.56 6.48
0 2 8 287.09 6.8
0 2 -8 260.4 6.85
0 2 8 287.87 6.95
0 2 -8 270.87 7.16
0 2 -8 270.01 7.13
0 2 -8 264.86 7.03
0 2 -9 29.71 2.11
0 2 -9 30.74 2.15
0 2 -9 28.87 2.06
0 2 9 34.07 2.01
0 2 -9 30.24 2.11
0 2 9 32.42 2.11
0 2 -9 29.98 2.21
0 2 -9 30.83 2.23
0 2 -9 30.87 2.17
0 2 -10 135.91 5.07
0 2 -10 118.81 4.77
0 2 10 140.98 4.38
0 2 -10 131.17 4.98
0 2 -10 141.22 5.1
0 2 -10 129.81 5.1
0 2 -10 145.11 5.34
0 2 -10 139.24 4.98
0 2 10 135.45 4.82
0 2 -11 181.64 6.04
0 2 -11 187.06 5.98
0 2 -11 191.75 6.32
0 2 -11 190.84 6.11
0 2 -12 96.8 3.83
0 2 -12 92.77 3.77
0 2 -12 96.71 4.03
0 2 13 489.86 10.83
0 2 -13 514.63 10.48
0 2 -13 506.22 9.73
0 2 -13 493.69 10.72
0 2 -13 520.37 10.54
0 2 -14 80.23 2.46
0 2 14 80.42 2.47
0 3 0 0.09 0.14
0 3 0 0.02 0.14
0 3 -1 176.25 3.78
0 3 1 179.09 3.55
0 3 -2 1295.96 20.98
0 3 -2 1329.65 21.01
0 3 -2 1349.96 21.04
0 3 2 1298.26 21.79
0 3 -2 1323.94 21.22
0 3 -3 4920.54 75.79
0 3 -3 4656.25 75.79
0 3 -3 4944.37 75.86
0 3 -3 4696.46 75.5
0 3 3 4990.18 76.49
0 3 -3 4837.32 76.65
0 3 -4 173.91 3.91
0 3 -4 161.73 3.82
0 3 -4 181.56 4.17
0 3 -4 169.45 3.26
0 3 -4 180.14 4.49
0 3 4 167.3 4.24
0 3 -4 175.86 3.98
0 3 -5 425.28 8.33
0 3 -5 421.88 8.26
0 3 5 453.9 8.82
0 3 -5 416.25 8.4
0 3 -5 380.53 8.57
0 3 -5 408.79 8.31
0 3 5 444.43 8.68
0 3 -6 1420.15 24.64
0 3 -6 1461.55 24.68
0 3 6 1509.66 25.06
0 3 6 1408.54 24.83
0 3 -6 1375.93 24.92
0 3 -6 1468.74 24.77
0 3 -6 1386.1 24.71
0 3 -7 50.8 2.41
0 3 -7 43.54 2.18
0 3 -7 56.18 2.5
0 3 -7 49.04 2.35
0 3 -7 45.01 2.25
0 3 7 53.53 2.48
0 3 7 46.73 2.26
0 3 -7 52.44 2.38
0 3 -7 59.38 2.56
0 3 -7 48.76 2.42
0 3 -7 50.33 2.42
0 3 -8 208.16 6.12
0 3 -8 215.76 6.16
0 3 8 206.99 6
0 3 -8 196.21 5.8
0 3 -8 197.44 5.96
0 3 -8 244.01 6.29
0 3 -8 220.09 6.07
0 3 8 195.79 5.82
0 3 -8 208.48 5.88
0 3 8 195.21 5.49
0 3 -8 254.21 6.42
0 3 -9 15.36 1.52
0 3 -9 16.85 1.57
0 3 -9 14.82 1.49
0 3 9 17.2 1.51
0 3 -9 16.17 1.5
0 3 9 18.15 1.61
0 3 -9 14 1.49
0 3 -9 13.23 1.46
0 3 -9 17.22 1.58
0 3 -10 515.56 12.11
0 3 -10 557.95 12.37
0 3 10 568.17 11.67
0 3 -10 566.44 12.15
0 3 10 523.05 11.99
0 3 -10 534.35 12.27
0 3 -10 545.97 12.48
0 3 -10 513.6 12.25
0 3 -10 545.98 12.19
0 3 11 19.47 1.41
0 3 -11 20.43 1.78
0 3 -11 18.6 1.63
0 3 -11 18.31 1.71
0 3 -11 18.44 1.62
0 3 -12 43.83 2.29
0 3 -12 43.58 2.26
0 3 -12 40.53 2.35
0 3 -13 24.49 1.39
0 3 -13 24.07 1.28
0 3 -13 23.8 1.34
0 3 -13 22.4 1.42
0 3 13 19.24 1.37
0 4 0 178.67 3.91
0 4 0 173.05 3.98
0 4 1 97.27 2.51
0 4 1 96.26 2.8
0 4 -1 104.62 2.76
0 4 -1 109.27 2.71
0 4 -2 1108.29 15.7
0 4 -2 1132.86 16.28
0 4 -3 1275.88 20.95
0 4 -3 1237.02 20.86
0 4 -3 1287.33 20.91
0 4 3 1375.73 22.35
0 4 -3 1344.92 22.01
0 4 -3 1280.26 21.11
0 4 -3 1322.25 22.48
0 4 -4 70.69 2.14
0 4 4 67.77 2.64
0 4 -4 69.72 1.83
0 4 -4 67.26 2.05
0 4 -4 69.05 2.08
0 4 -5 66.69 2.33
0 4 -5 68.88 2.46
0 4 5 68.94 2.62
0 4 5 68.13 2.79
0 4 -5 68.3 2.66
0 4 -5 65.16 2.79
0 4 -5 66.31 2.27
0 4 -5 64.09 2.24
0 4 -6 -0.04 0.23
0 4 -6 0.04 0.24
0 4 -6 0.04 0.19
0 4 -6 0.28 0.31
0 4 -6 1.92 0.52
0 4 6 0.3 0.36
0 4 -6 1.66 0.5
0 4 6 0.22 0.29
0 4 -6 0.83 0.31
0 4 -6 2.61 0.49
0 4 -7 32.54 1.92
0 4 -7 34.2 1.79
0 4 7 35.89 2.1
0 4 -7 32.88 1.86
0 4 -7 29.88 1.79
0 4 -7 34.24 2.14
0 4 -7 37.32 2.16
0 4 7 34.41 2.11
0 4 -7 31.57 1.98
0 4 -7 30.66 1.85
0 4 -8 16.08 1.48
0 4 -8 15.82 1.45
0 4 8 16.24 1.57
0 4 -8 17.28 1.51
0 4 8 19.36 1.62
0 4 -8 15.28 1.35
0 4 -8 16.11 1.41
0 4 8 14.22 1.38
0 4 -8 15.96 1.41
0 4 -9 0.28 0.44
0 4 -9 0.4 0.39
0 4 9 0.2 0.4
0 4 -9 0.18 0.36
0 4 9 0.13 0.34
0 4 -9 -0.06 0.3
0 4 10 131.04 4.44
0 4 -10 125.25 4.34
0 4 -10 122.6 4.55
0 4 -10 122.14 4.5
0 4 -10 120.93 4.26
0 4 11 3.41 0.65
0 4 -11 2.8 0.62
0 4 -11 3 0.64
0 4 -11 2.69 0.7
0 4 -12 131.87 3.39
0 4 -12 118.03 3.14
0 4 -13 119.3 3.12
0 5 0 0.06 0.24
0 5 0 3.94 0.55
0 5 1 96.4 2.8
0 5 -1 101.36 3.05
0 5 -1 103.11 2.97
0 5 1 95.46 3.15
0 5 -2 130.11 3.39
0 5 -2 131.64 3.77
0 5 -3 1464.89 25.13
0 5 -3 1505.34 25.22
0 5 3 1482.32 25.55
0 5 -3 1360.83 25.07
0 5 -3 1586.57 26.07
0 5 -3 1416.8 24.16
0 5 -4 68.69 2.76
0 5 -4 70.81 2.86
0 5 -4 71.18 3.09
0 5 4 72.08 3.05
0 5 -4 72.38 2.74
0 5 5 1018.48 18.87
0 5 -5 981.6 18.45
0 5 -5 1020.26 19.56
0 5 -5 999.29 18.7
0 5 6 32.2 1.98
0 5 -6 27.42 1.63
0 5 -6 27.34 1.79
0 5 -6 28.65 2.02
0 5 -6 31.78 2.06
0 5 6 28.42 2.03
0 5 -6 26.98 1.72
0 5 7 440.55 10.03
0 5 -7 465.68 10.28
0 5 -7 405.1 9.43
0 5 -7 438.81 10.59
0 5 -7 445.69 10.42
0 5 7 420.38 10.33
0 5 -7 465.56 9.77
0 5 -8 1140.31 20.58
0 5 8 1157.42 21.32
0 5 8 1092.21 21.34
0 5 8 1130.31 21.94
0 5 -8 1106.9 21.44
0 5 -8 1104.71 20.88
0 5 9 47.5 2.74
0 5 -9 44.76 2.5
0 5 10 -0.06 0.37
0 5 -10 0.24 0.41
0 5 11 10.07 0.99
0 5 -11 10.89 1.11
0 5 -12 5.16 0.69
0 6 0 49.2 2.42
0 6 0 51.17 2.43
0 6 0 55.76 2.44
0 6 0 52.02 2.27
0 6 1 73.35 3.08
0 6 -1 88.75 3.29
0 6 1 78.89 3.09
0 6 -1 79.01 3.1
0 6 -1 76.94 2.84
0 6 -1 81.46 3.01
0 6 1 77.63 3.08
0 6 -2 99.53 3.56
0 6 -2 85.54 2.95
0 6 -2 98.76 3.46
0 6 -2 102.46 3.82
0 6 2 90.73 3.49
0 6 -2 94.47 3.41
0 6 -3 0.87 0.3
0 6 -3 1.22 0.51
0 6 -3 1.27 0.46
0 6 -3 1 0.35
0 6 -4 14.19 1.32
0 6 -4 11.34 1.05
0 6 4 13.65 1.43
0 6 -4 14.12 1.38
0 6 -4 12.05 1.36
0 6 -4 12.82 1.26
0 6 -5 114.71 4.07
0 6 -5 106.22 3.75
0 6 5 101.71 3.74
0 6 -5 114.76 4.3
0 6 5 109.84 4.43
0 6 -5 96.34 4.17
0 6 -5 105.42 3.94
0 6 -6 2.54 0.64
0 6 -6 4.21 0.8
0 6 6 2.47 0.65
0 6 -6 1.56 0.62
0 6 6 4.14 0.9
0 6 -6 3.53 0.78
0 6 -7 270.56 7.08
0 6 -7 273.64 7.35
0 6 7 250.29 6.83
0 6 7 243.8 7.48
0 6 -7 262.56 7.7
0 6 -7 261.84 7.19
0 6 -8 76.9 3.52
0 6 -8 71.55 3.11
0 6 -8 77.27 3.46
0 6 8 75.48 3.69
0 6 -9 82.65 3.23
0 6 9 84.42 3.71
0 6 -9 86.99 3.59
0 6 10 0.59 0.4
0 6 -10 -0.05 0.36
0 6 11 0.94 0.35
0 6 -12 48.66 1.8
0 7 0 0.13 0.4
0 7 0 -0.19 0.36
0 7 0 0.23 0.31
0 7 -1 66.98 3.2
0 7 1 66.72 3.16
0 7 -1 68.06 3.1
0 7 1 64.52 2.98
0 7 -1 67.52 2.87
0 7 1 61.72 3.03
0 7 -1 62.23 3.16
0 7 -2 117.88 4.33
0 7 2 96.57 4.05
0 7 -2 110.57 4.44
0 7 -2 103.79 3.57
0 7 2 103.18 4.16
0 7 -2 105.61 4.04
0 7 3 22.01 1.9
0 7 -3 19.82 1.7
0 7 -3 23.2 1.78
0 7 -4 18.25 1.44
0 7 -4 17.47 1.63
0 7 -4 16.01 1.71
0 7 -4 17.25 1.58
0 7 -5 797.68 15.7
0 7 -5 784.25 16.21
0 7 -5 835.09 17.2
0 7 5 782.12 16.91
0 7 -5 772.08 16
0 7 -6 238.65 6.7
0 7 -6 251.09 7.02
0 7 6 230.15 7.36
0 7 -6 233.19 7.32
0 7 -6 235.89 6.84
0 7 -7 384.71 9.62
0 7 -7 411.41 9.69
0 7 -7 411.21 9.71
0 7 8 25.54 2.06
0 7 -8 24.88 1.85
0 7 -8 22.53 1.67
0 7 9 105.68 3.99
0 7 -9 108.1 3.9
0 7 10 2.58 0.57
0 7 -10 3.63 0.66
0 7 -11 0.37 0.26
0 8 0 147.8 5.35
0 8 0 144.43 4.94
0 8 0 129.03 4.74
0 8 0 143.08 5.34
0 8 -1 41.07 2.65
0 8 1 41.44 2.67
0 8 -1 37.92 2.41
0 8 -1 45.09 2.86
0 8 -1 36.55 2.24
0 8 1 39.02 2.58
0 8 1 37.13 2.46
0 8 -2 53.05 3.01
0 8 2 41.31 2.68
0 8 -2 50.71 2.83
0 8 -2 46.03 2.95
0 8 2 46.96 2.87
0 8 -3 422.05 10.57
0 8 3 437.15 10.96
0 8 -3 435.81 10.36
0 8 -4 52.24 3.19
0 8 -4 56.16 2.95
0 8 -5 259.44 7.41
0 8 -5 249.15 7.09
0 8 -5 259.49 6.72
0 8 -6 0.35 0.49
0 8 -6 0.07 0.4
0 8 -7 4.87 0.86
0 8 -7 4.43 0.82
0 8 7 4.32 0.9
0 8 -8 37.77 1.99
0 8 -8 37.75 2.11
0 8 8 34.14 2.13
0 8 -9 8.55 0.91
0 8 9 7.42 0.86
0 8 -10 120.44 3.2
0 8 10 109.76 2.98
0 9 0 -0.16 0.52
0 9 -1 174.25 5.95
0 9 -1 164.29 5.24
0 9 2 0.63 0.51
0 9 -2 0.49 0.58
0 9 -2 0.39 0.41
0 9 -3 1.56 0.74
0 9 -3 1.69 0.6
0 9 -4 101.85 3.96
0 9 -5 3.59 0.81
0 9 -5 2.8 0.7
0 9 -6 54.66 2.7
0 9 -6 51.66 2.53
0 9 -7 146.07 4.35
0 9 -7 150 4.37
0 9 -8 1.34 0.39
0 9 8 1.31 0.42
0 10 0 139.19 4.74
0 10 1 368.73 8.64
0 10 -1 358.92 8.93
0 10 -2 407.88 9.68
0 10 -3 15.15 1.45
0 10 -4 23.62 1.7
0 10 -4 20.13 1.34
0 10 -5 0.69 0.39
0 10 -5 0.25 0.26
0 10 5 -0.04 0.3
0 10 6 0.42 0.29
0 10 -6 0.15 0.28
0 11 0 0.1 0.25
0 11 -1 533.32 10.42
0 11 -2 27.24 1.52
0 11 -3 4.76 0.62
1 -11 -4 7.94 0.61
1 -11 -3 35.43 1.48
1 -11 -3 23.4 1.16
-1 -11 2 116.81 3.38
-1 -11 2 111.1 2.98
1 -11 -1 75.75 2.6
-1 -11 0 244.59 5.92
1 -11 0 281.02 6.06
1 -11 1 37.2 1.71
-1 -11 -1 34.24 1.64
1 -11 2 0.12 0.25
-1 -11 -2 0.14 0.21
-1 -10 6 0.24 0.27
1 -10 -6 0.62 0.24
-1 -10 5 10.12 0.98
1 -10 -5 11.52 0.93
-1 -10 4 2.7 0.6
-1 -10 4 3.24 0.67
1 -10 -4 4.05 0.65
-1 -10 3 79.38 3.12
-1 -10 3 82.22 3.31
1 -10 -3 85.3 3.13
-1 -10 2 4.52 0.83
-1 -10 2 3.76 0.73
-1 -10 1 548.23 12.17
-1 -10 1 575.81 11.98
-1 -10 0 59.79 2.85
1 -10 0 66.75 2.93
-1 -10 0 59.54 2.69
1 -10 1 10.33 1.14
-1 -10 -1 14.15 1.32
-1 -10 -1 11.91 1.14
-1 -10 -1 10.09 1.11
-1 -10 -2 26.2 1.73
1 -10 2 26.1 1.72
-1 -10 -2 22.51 1.47
-1 -10 -2 23.11 1.7
1 -10 3 53.67 2.13
-1 -10 -3 47.26 2.24
1 -10 3 54.24 2.42
-1 -10 -3 54.69 2.67
1 -10 4 62.29 2.27
-1 -10 -4 59.29 2.25
-1 -10 -4 65.3 2.86
1 -10 4 61.31 2.33
-1 -10 -5 47.29 2.25
1 -10 5 43.56 1.76
-1 -10 -6 5.95 0.72
1 -9 -8 8.85 0.79
1 -9 -8 9.65 0.8
1 -9 -7 267.58 6.35
1 -9 -7 277.02 5.91
-1 -9 7 290.14 6.78
1 -9 -7 288.19 6.3
1 -9 -6 261.91 6.18
-1 -9 6 264.96 6.8
1 -9 -6 264.37 6.14
-1 -9 5 12.5 1.3
1 -9 -5 13.07 1.19
-1 -9 5 12.79 1.33
1 -9 -5 12.86 1.08
-1 -9 4 58.45 2.8
1 -9 -4 63.19 2.65
-1 -9 4 54.67 2.8
-1 -9 3 398.09 9.78
-1 -9 3 389.48 9.84
-1 -9 2 248.96 7.26
-1 -9 2 260.61 7.2
1 -9 -1 381.03 9.01
-1 -9 1 372.11 9.16
1 -9 0 73.97 3.33
-1 -9 0 71.35 3.41
-1 -9 0 77.04 3.5
1 -9 1 13.14 1.39
-1 -9 -1 15.55 1.52
1 -9 1 12.41 1.22
-1 -9 -1 14.96 1.49
1 -9 2 4.12 0.85
-1 -9 -2 3.87 0.82
1 -9 2 3.77 0.72
-1 -9 -2 3.76 0.79
-1 -9 -2 3.64 0.69
1 -9 3 19.33 1.63
-1 -9 -3 16.76 1.47
1 -9 3 15.69 1.38
-1 -9 -3 15.3 1.4
-1 -9 -3 16.82 1.42
-1 -9 -4 1.44 0.5
1 -9 4 2.91 0.7
-1 -9 -4 1.26 0.47
1 -9 4 1.18 0.51
-1 -9 -4 1.98 0.56
-1 -9 -5 197.26 5.52
-1 -9 -5 193.6 5.1
1 -9 5 207.03 5.57
-1 -9 -6 23.14 1.56
1 -9 6 24.98 1.58
-1 -9 -6 22.19 1.54
-1 -9 -7 3.77 0.63
1 -9 7 4.1 0.64
-1 -9 -7 3.01 0.58
-1 -9 -7 2.69 0.65
1 -9 8 13.94 0.94
-1 -9 -8 13.14 0.99
-1 -9 -8 11.44 0.87
1 -8 -10 82.21 2.63
-1 -8 10 84.06 2.53
1 -8 -10 86.14 2.8
1 -8 -9 90.73 3.12
-1 -8 9 91.15 3.11
1 -8 -9 92.22 3.35
1 -8 -8 2.53 0.6
1 -8 -8 2.24 0.42
1 -8 -7 32.88 1.96
1 -8 -7 30.34 1.67
1 -8 -7 32.1 1.97
1 -8 -6 0.59 0.35
-1 -8 6 0.61 0.49
1 -8 -6 0.61 0.42
-1 -8 5 72.48 3.4
-1 -8 5 66.14 3.35
1 -8 -5 71.64 3.02
1 -8 -5 70.03 2.99
1 -8 -4 391.61 9.09
1 -8 -4 407.68 8.87
-1 -8 4 387.66 9.68
1 -8 -4 380.64 9.56
-1 -8 4 381.81 9.77
-1 -8 3 1144.74 22
-1 -8 3 1108.48 21.35
1 -8 -3 1139.6 20.48
1 -8 -3 1174.58 21.91
1 -8 -3 1128.26 21.23
-1 -8 3 1175.46 22.26
-1 -8 2 160.35 5.5
1 -8 -2 162.37 5.33
-1 -8 2 170.78 5.65
1 -8 -2 163.86 5.82
-1 -8 2 161.56 5.28
-1 -8 1 425.7 10.13
-1 -8 1 404.09 9.29
1 -8 -1 406.22 9.59
1 -8 -1 405.41 9.49
-1 -8 1 406.79 9.93
-1 -8 1 390.72 9.61
1 -8 -1 397.46 10.25
1 -8 0 44.07 2.38
-1 -8 0 42.1 2.61
-1 -8 0 43.96 2.48
1 -8 0 46.98 2.53
1 -8 0 44.17 2.47
-1 -8 0 41.62 2.56
-1 -8 0 43.88 2.28
-1 -8 0 42.68 2.55
1 -8 0 48.04 2.89
1 -8 1 96.69 3.74
-1 -8 -1 88.24 3.9
-1 -8 -1 99.24 3.99
1 -8 1 96.48 3.73
1 -8 1 98.65 3.87
-1 -8 -1 94.11 3.92
-1 -8 -1 93.12 3.59
1 -8 1 95.3 4.18
1 -8 2 1.9 0.59
-1 -8 -2 1.9 0.68
-1 -8 -2 2.35 0.66
1 -8 2 1.89 0.55
-1 -8 -2 2.57 0.69
1 -8 2 1.59 0.6
-1 -8 -2 2.63 0.66
1 -8 2 1.84 0.66
-1 -8 -3 6.09 1.01
1 -8 3 7.12 1
1 -8 3 4.79 0.93
-1 -8 -3 5.7 0.94
1 -8 3 5.68 0.81
-1 -8 -3 4.08 0.89
1 -8 3 7.44 1.03
-1 -8 -3 6.37 0.96
-1 -8 -4 15.2 1.33
-1 -8 -4 16.77 1.65
-1 -8 -4 16.71 1.59
-1 -8 -4 18.99 1.56
1 -8 4 16.19 1.51
1 -8 4 17.42 1.53
-1 -8 -4 15.92 1.52
1 -8 5 7.97 1.04
-1 -8 -5 7.29 1
-1 -8 -5 7.13 0.98
-1 -8 -5 6.99 1.12
-1 -8 -5 10.67 1.31
-1 -8 -5 8.01 0.98
1 -8 5 9.3 1.1
-1 -8 -6 76.09 3.47
-1 -8 -6 74.65 3.59
1 -8 6 68.41 3.07
-1 -8 -6 75.33 3.17
-1 -8 -7 4.64 0.88
-1 -8 -7 5.86 1.01
1 -8 7 4.39 0.78
-1 -8 -7 4.84 0.82
-1 -8 -8 94.62 3.53
-1 -8 -8 88 3.46
-1 -8 -8 93.44 3.67
1 -8 8 91.34 3.26
-1 -8 -8 82.11 3.19
-1 -8 -9 37.3 1.9
-1 -8 -9 31.27 1.55
-1 -8 -9 37.75 1.97
-1 -8 -9 35.34 1.73
1 -8 9 34.5 1.69
-1 -8 -10 2 0.38
1 -7 -11 98.47 3.08
-1 -7 11 95.58 2.72
-1 -7 10 60.14 2.45
-1 -7 9 150.84 4.71
1 -7 -8 67.5 3.21
-1 -7 8 58.21 2.91
1 -7 -8 63.95 2.43
1 -7 -8 62.16 3.01
1 -7 -7 191.96 6.01
1 -7 -7 202.29 5.34
1 -7 -6 259.1 6.87
-1 -7 6 236.19 7.01
-1 -7 6 226.87 6.45
1 -7 -6 241.65 6.77
1 -7 -6 250.32 6.56
1 -7 -6 244.27 7.07
1 -7 -6 259.31 6.38
1 -7 -5 507.8 10.48
1 -7 -5 526.51 10.86
-1 -7 5 496.9 11.25
1 -7 -5 458.12 10.53
-1 -7 5 445.07 10.5
1 -7 -5 488.36 11.18
1 -7 -5 502.45 10.5
-1 -7 5 453.55 11.13
-1 -7 4 120.4 4.47
-1 -7 4 106.06 3.99
1 -7 -4 116.56 3.94
1 -7 -4 116.86 4.35
1 -7 -4 109.75 3.78
-1 -7 4 117.12 4.49
1 -7 -4 105.11 3.78
-1 -7 3 67.23 3.22
-1 -7 3 61.09 2.89
1 -7 -3 63.3 2.66
1 -7 -3 63.04 3.03
1 -7 -3 67.73 2.79
1 -7 -3 67.35 2.86
-1 -7 3 60.29 3.08
-1 -7 2 173.63 5.62
-1 -7 2 185.48 5.5
1 -7 -2 183.78 4.82
-1 -7 2 174.67 4.88
1 -7 -2 177.44 5.01
-1 -7 2 192.11 5.78
-1 -7 1 1.15 0.52
-1 -7 1 1.18 0.45
1 -7 -1 1.72 0.46
1 -7 -1 1.28 0.49
1 -7 -1 1.37 0.51
-1 -7 1 1.64 0.54
-1 -7 1 2.46 0.54
-1 -7 0 54.23 2.89
1 -7 0 58.94 2.69
1 -7 0 58.62 2.71
1 -7 0 61.25 2.57
-1 -7 0 67.27 2.91
1 -7 0 61.5 2.74
-1 -7 0 52.85 2.72
-1 -7 0 60.96 2.91
-1 -7 0 65.61 2.77
1 -7 1 36.43 2.11
-1 -7 -1 34.69 2.27
-1 -7 -1 35.6 2.2
1 -7 1 35.71 1.94
1 -7 1 37.45 2.08
1 -7 1 39.65 2.16
-1 -7 -1 37.76 2.21
1 -7 1 42.79 2.55
-1 -7 -1 39.47 2.36
-1 -7 -1 38.25 2.16
1 -7 2 178.98 5.4
-1 -7 -2 195.37 6
1 -7 2 172.97 5.77
-1 -7 -2 192.31 5.61
-1 -7 -2 205.95 6.07
1 -7 2 191.29 5.48
-1 -7 -2 191.35 5.59
1 -7 3 406.91 9.38
-1 -7 -3 386.55 9.71
-1 -7 -3 409.88 9
-1 -7 -3 426.21 10.08
-1 -7 -3 421.82 9.73
1 -7 3 419.59 10.02
-1 -7 -3 400.52 9.92
-1 -7 -3 401.78 9.25
1 -7 3 390.52 9.25
-1 -7 -4 46.32 2.44
-1 -7 -4 51.79 3.01
1 -7 4 45.79 2.72
-1 -7 -4 45.31 2.65
-1 -7 -4 53 2.83
1 -7 4 48.23 2.56
-1 -7 -4 44.05 2.33
1 -7 4 48.04 2.51
-1 -7 -5 141.01 4.91
1 -7 5 143.09 4.79
-1 -7 -5 156.29 5.02
-1 -7 -5 138.18 5.37
-1 -7 -5 147.17 5.23
1 -7 5 139.28 5.11
-1 -7 -5 143.71 5.31
-1 -7 -5 140.76 4.41
-1 -7 -6 257.44 7.5
1 -7 6 234.64 7.09
-1 -7 -6 245.8 7.68
-1 -7 -6 233.75 6.62
1 -7 6 247.16 6.82
-1 -7 -6 264.7 7.21
-1 -7 -7 17.41 1.72
-1 -7 -7 12.51 1.59
1 -7 7 12.55 1.33
-1 -7 -7 14.38 1.5
-1 -7 -8 3.32 0.85
-1 -7 -8 3.04 0.87
1 -7 8 2.55 0.7
-1 -7 -8 2.89 0.75
-1 -7 -9 0.51 0.51
-1 -7 -9 0.7 0.52
-1 -7 -9 0.87 0.41
-1 -7 -9 1.43 0.58
1 -7 9 1.7 0.54
-1 -7 -10 11.33 1.16
-1 -7 -10 9.19 1
1 -7 10 11.09 0.98
1 -6 -12 17.63 1.14
1 -6 -12 17.49 1.21
1 -6 -11 84.19 3.18
-1 -6 11 84.56 2.85
1 -6 -10 0.36 0.42
-1 -6 10 0.35 0.38
1 -6 -9 45.82 2.65
-1 -6 9 46.96 2.52
1 -6 -8 57.83 3.12
-1 -6 8 56.18 2.89
1 -6 -8 56.4 2.33
1 -6 -7 17.42 1.59
-1 -6 7 15.26 1.5
1 -6 -7 15.28 1.56
1 -6 -7 14.12 1.45
1 -6 -7 15.39 1.21
1 -6 -6 0.33 0.42
-1 -6 6 0.56 0.47
1 -6 -6 0.18 0.3
1 -6 -6 0.91 0.49
1 -6 -5 1155.56 19.7
-1 -6 5 1040.37 20.06
1 -6 -5 924.99 19.14
1 -6 -5 1068.86 19.74
1 -6 -5 1075.22 19.36
1 -6 -5 1003.04 18.71
-1 -6 4 718.06 13.5
1 -6 -4 600.62 12.46
-1 -6 4 605.62 12.64
1 -6 -4 673.25 12.73
1 -6 -4 605.93 12.59
1 -6 -4 631.68 12.97
-1 -6 4 669.09 13.54
1 -6 -4 599.79 12.22
-1 -6 3 214.13 6.18
1 -6 -3 247.76 6.77
-1 -6 3 218.62 5.91
1 -6 -3 242.38 5.86
1 -6 -3 237.63 6.02
-1 -6 3 239.68 5.38
1 -6 -3 242.76 6.31
1 -6 -3 219.34 5.65
-1 -6 3 238.06 6.42
-1 -6 2 17.78 1.49
1 -6 -2 19.63 1.6
-1 -6 2 19.67 1.35
-1 -6 2 20.17 1.47
1 -6 -2 18.29 1.25
-1 -6 2 17.83 1.23
1 -6 -2 23.64 1.52
1 -6 -2 23.02 1.56
-1 -6 2 19.39 1.52
-1 -6 1 318.63 7.87
-1 -6 1 327 7.32
-1 -6 1 329.22 7.62
1 -6 -1 326.04 6.92
1 -6 -1 325.36 7.4
-1 -6 1 336.7 7.3
1 -6 -1 310.45 7.14
-1 -6 0 233.4 6.39
1 -6 0 240.98 5.93
1 -6 0 257.92 6.12
-1 -6 0 253.88 6.1
-1 -6 0 244.31 6.22
1 -6 0 220.06 5.7
-1 -6 0 242.55 6.25
-1 -6 0 260.8 6.12
1 -6 1 1423.86 24.74
-1 -6 -1 1494.61 25.56
-1 -6 -1 1508.29 25.16
1 -6 1 1441.55 24.81
-1 -6 -1 1341.48 24.67
1 -6 1 1370.79 24.49
-1 -6 -1 1362.9 24.76
-1 -6 -1 1427.06 25.14
-1 -6 -2 202.64 5.77
1 -6 2 198.01 5.33
-1 -6 -2 192.18 5.41
-1 -6 -2 192.36 5.56
1 -6 2 182.53 5.19
1 -6 2 210.74 5.34
-1 -6 -2 204.04 5.36
1 -6 3 135.8 4.31
-1 -6 -3 138.64 4.69
-1 -6 -3 136.91 4.49
-1 -6 -3 140.06 4.19
1 -6 3 139.09 4.25
-1 -6 -3 139.08 4.16
1 -6 3 127.94 4.1
-1 -6 -4 103.96 4
-1 -6 -4 108.69 4.08
-1 -6 -4 110.31 3.86
-1 -6 -4 106.04 4.15
1 -6 4 100.03 3.62
1 -6 4 100.6 3.59
-1 -6 -4 102.74 3.49
-1 -6 -5 9.04 1.16
-1 -6 -5 9.47 1.21
-1 -6 -5 10.1 1.18
1 -6 5 7.61 0.98
-1 -6 -5 8.81 1.21
-1 -6 -5 7.74 0.89
-1 -6 -6 12.76 1.38
-1 -6 -6 7.68 1.17
-1 -6 -6 10.33 1.21
-1 -6 -6 10.33 1.34
-1 -6 -7 2.32 0.76
-1 -6 -7 2.34 0.77
-1 -6 -8 57.9 3.16
-1 -6 -8 58.11 3.28
-1 -6 -9 234.89 6.64
-1 -6 -9 275.72 7.66
-1 -6 -10 25.29 1.92
-1 -6 -11 3.42 0.67
-1 -6 -11 4.25 0.71
-1 -5 12 65.17 2.22
1 -5 -12 77.67 2.81
-1 -5 11 -0.09 0.3
1 -5 -11 3.49 0.73
-1 -5 10 6.62 0.93
1 -5 -10 6.21 1.01
1 -5 -9 163.55 5.83
-1 -5 9 171.72 5.31
1 -5 -9 162.26 5.47
1 -5 -8 82.19 3.6
-1 -5 8 90.39 3.68
1 -5 -8 87.83 3.97
-1 -5 8 80.63 3.39
1 -5 -8 88.81 2.94
1 -5 -7 67.34 3.24
1 -5 -7 64.17 2.48
1 -5 -7 63.32 2.97
-1 -5 7 61.42 2.84
1 -5 -7 68.04 3.02
1 -5 -7 57.86 2.87
-1 -5 6 274.95 7.43
1 -5 -6 298.51 7.52
-1 -5 6 298.04 7.15
1 -5 -6 294.79 7.23
1 -5 -6 272.63 7.1
1 -5 -6 298.59 6.67
1 -5 -5 502.6 10.05
1 -5 -5 511.11 10.64
-1 -5 5 546.58 11.01
1 -5 -5 468.73 10.56
-1 -5 5 545.09 10.69
1 -5 -5 549.82 10.86
1 -5 -5 499.89 10.64
-1 -5 5 475.96 10.99
1 -5 -4 1416.44 23.55
1 -5 -4 1314.61 23.51
-1 -5 4 1379.18 23.43
1 -5 -4 1393.11 23.6
1 -5 -4 1313.54 22.94
-1 -5 4 1416 24.14
1 -5 -3 1.58 0.42
-1 -5 3 1.66 0.32
1 -5 -3 1.1 0.4
1 -5 -3 1.75 0.45
1 -5 -3 1.5 0.45
1 -5 -2 130.05 3.76
-1 -5 2 124.01 3.28
1 -5 -2 119.27 3.91
-1 -5 2 127.02 3.68
1 -5 -1 1.66 0.44
-1 -5 1 1.9 0.46
1 -5 -1 1.29 0.42
-1 -5 0 328.71 7.17
1 -5 0 352.44 7.56
1 -5 0 357.62 7.8
-1 -5 0 344.01 7.44
1 -5 1 725.9 13.65
-1 -5 -1 734.14 12.27
-1 -5 -1 744.84 13.66
-1 -5 -1 713.38 13.66
-1 -5 -2 175.26 4.89
1 -5 2 187.51 4.91
-1 -5 -2 192.7 4.06
-1 -5 -2 188.33 5.13
-1 -5 -2 180.65 4.86
-1 -5 -2 201.15 5.19
-1 -5 -3 1230.93 22.17
-1 -5 -3 1272.62 22.85
-1 -5 -3 1232.21 22.54
-1 -5 -4 19.54 1.42
1 -5 4 18.31 1.42
-1 -5 -4 17.64 1.47
-1 -5 -4 16.76 1.42
-1 -5 -4 20.36 1.53
-1 -5 -5 28.71 1.88
1 -5 5 31.7 1.97
-1 -5 -5 32.01 2.07
-1 -5 -5 28.73 1.93
-1 -5 -5 28.74 1.97
-1 -5 -6 45.06 2.52
-1 -5 -6 40.5 2.48
-1 -5 -6 42.99 2.4
-1 -5 -6 44.1 2.6
-1 -5 -7 305.46 8.53
-1 -5 -7 372.49 9.32
-1 -5 -8 188.46 6.37
-1 -5 -9 24.69 1.83
-1 -5 -9 30.65 2.31
-1 -5 -10 13.32 1.58
-1 -5 -10 13.87 1.5
-1 -5 -11 5.11 0.91
-1 -5 -11 5.05 0.92
-1 -5 -12 7.22 0.77
1 -5 12 7.01 0.7
-1 -5 -12 7.76 0.86
1 -4 -13 5.16 0.59
-1 -4 12 15.69 1.06
1 -4 -12 16.1 1.3
-1 -4 12 15.54 1.15
1 -4 -12 -0.04 0.11
1 -4 -12 16.19 1.24
1 -4 -12 0.04 0.12
-1 -4 11 70.78 2.85
1 -4 -11 71.21 3.2
-1 -4 11 61.34 2.91
-1 -4 11 66.29 2.96
1 -4 -11 69.33 2.96
1 -4 -11 75.38 3.22
1 -4 -11 68.33 2.84
-1 -4 10 139.88 4.97
1 -4 -10 165.17 5.32
1 -4 -10 159.59 4.92
1 -4 -10 151.87 5
1 -4 -10 172.41 5.36
1 -4 -9 3.59 0.76
1 -4 -9 5.5 0.93
1 -4 -9 4.44 0.81
1 -4 -9 4.99 1.07
1 -4 -9 5.21 0.85
-1 -4 9 4.17 0.81
1 -4 -9 3.18 0.73
1 -4 -8 23.48 1.97
1 -4 -8 25.07 1.68
1 -4 -8 24.09 1.72
1 -4 -8 24.4 1.73
1 -4 -8 23.31 1.77
1 -4 -8 22.48 1.69
1 -4 -8 24.1 1.76
1 -4 -7 7.52 0.96
1 -4 -7 6.7 0.83
1 -4 -7 5.93 0.7
1 -4 -7 6.13 0.8
1 -4 -7 6.47 0.98
1 -4 -7 7.49 0.86
-1 -4 7 7.17 0.92
1 -4 -7 6.19 0.91
1 -4 -7 5.36 0.78
1 -4 -7 7.37 0.91
1 -4 -6 45.73 2.25
-1 -4 6 50.14 2.3
1 -4 -6 45.21 2.39
1 -4 -6 53.61 2.16
1 -4 -6 51.46 2.15
1 -4 -6 50.62 2.26
1 -4 -6 52.07 2.4
1 -4 -6 52.18 2.16
1 -4 -5 39.09 1.98
1 -4 -5 41.87 1.92
-1 -4 5 35.15 1.78
1 -4 -5 38.8 1.93
1 -4 -5 39.4 1.67
1 -4 -5 37.76 1.59
1 -4 -5 42.55 1.71
1 -4 -4 4346 66.53
1 -4 -4 4490.85 66.64
1 -4 -4 4411.25 67.48
-1 -4 4 4454.16 67.47
-1 -4 4 4324.86 66.1
1 -4 -4 4380.89 66.6
1 -4 -3 1742.69 27.95
1 -4 -3 1728.38 26.25
-1 -4 3 1466.06 26.33
1 -4 -3 1757.58 27.38
-1 -4 3 1550.13 26.41
1 -4 -3 1779.73 27.64
-1 -4 3 1657.32 27.31
-1 -4 3 1586.24 26.17
1 -4 -2 330.94 6.85
-1 -4 2 296.91 5.38
-1 -4 2 308.11 5.95
1 -4 -2 348.26 6.77
-1 -4 2 299.15 5.28
-1 -4 1 601.91 10.23
1 -4 -1 684.81 11.93
-1 -4 1 695.65 11.37
-1 -4 1 634.64 11.48
1 -4 -1 700.5 12.04
-1 -4 0 939.65 15.48
1 -4 0 826.92 15.63
-1 -4 0 866.17 14.35
-1 -4 0 933.76 15.6
1 -4 0 948.25 15.97
-1 -4 -1 213.07 4.18
-1 -4 -1 219.71 4.98
-1 -4 -2 141.06 3.02
-1 -4 -2 131.39 3.04
-1 -4 -3 1258.49 20.64
-1 -4 -3 1190.78 21.56
1 -4 3 1272.27 20.47
-1 -4 -3 1214.8 20.65
-1 -4 -4 220.01 5.66
-1 -4 -4 248.31 5.33
-1 -4 -4 230.63 5.27
-1 -4 -4 264.63 6.12
1 -4 4 242.93 5.07
-1 -4 -4 257.32 6.14
-1 -4 -4 235.22 5.36
-1 -4 -5 140.31 4.36
-1 -4 -5 142.24 4.34
-1 -4 -5 150.7 4.58
1 -4 5 146.91 3.68
-1 -4 -5 135.68 4.04
-1 -4 -5 127.77 4.29
-1 -4 -5 144.9 3.98
-1 -4 -5 137.55 3.92
-1 -4 -6 153.5 4.48
-1 -4 -6 141.87 4.42
-1 -4 -6 147.41 4.75
-1 -4 -6 157.78 5.05
1 -4 6 157.04 4.15
-1 -4 -6 161.25 4.68
-1 -4 -6 147.55 4.39
-1 -4 -7 317.38 7.62
1 -4 7 313.1 7.12
-1 -4 -7 299.53 7.39
-1 -4 -7 316.22 8.1
-1 -4 -7 294.16 7.68
-1 -4 -7 325.86 7.76
-1 -4 -7 288.93 7.51
-1 -4 -8 19.4 1.65
-1 -4 -8 20.96 1.66
-1 -4 -8 23.62 1.96
-1 -4 -8 22.52 1.87
-1 -4 -8 23.77 1.83
-1 -4 -9 0.8 0.55
-1 -4 -9 1.71 0.58
-1 -4 -9 0.17 0.51
-1 -4 -9 1.35 0.59
-1 -4 -9 1.24 0.51
-1 -4 -10 0.16 0.53
-1 -4 -10 0.17 0.43
-1 -4 -10 0.36 0.38
-1 -4 -10 0.5 0.57
-1 -4 -10 0.14 0.41
-1 -4 -10 0.06 0.35
-1 -4 -11 77 3.45
-1 -4 -11 80.88 3.56
-1 -4 -11 68.88 2.85
-1 -4 -11 73.06 3.19
-1 -4 -11 74.22 3.01
-1 -4 -12 7.48 0.86
-1 -4 -12 8.53 0.97
1 -3 -13 56 2.11
1 -3 -13 52.33 1.98
1 -3 -13 54.01 2.22
-1 -3 13 52.47 2.06
1 -3 -12 136.53 4.02
1 -3 -12 150.04 4.29
1 -3 -12 141 3.92
-1 -3 12 132.62 4.19
1 -3 -12 153.39 4.58
1 -3 -11 185.8 5.68
1 -3 -11 178.27 5.73
1 -3 -11 194.72 6.08
1 -3 -11 184.26 5.62
1 -3 -10 157.57 5.14
1 -3 -10 161.09 5.37
1 -3 -10 152.85 5.12
-1 -3 10 153.17 5.14
1 -3 -10 158.4 5.43
1 -3 -10 147.01 5.34
1 -3 -10 151.54 5.28
1 -3 -10 155.56 5.37
-1 -3 9 39.62 2.37
1 -3 -9 44.91 2.48
1 -3 -9 42.12 2.53
1 -3 -9 46.13 2.61
1 -3 -9 45.66 2.48
1 -3 -9 39.2 2.41
1 -3 -9 38.16 2.35
1 -3 -8 429.1 9.46
1 -3 -8 400.25 10.16
-1 -3 8 429.05 9.59
1 -3 -8 422.35 9.68
1 -3 -8 432.45 9.72
1 -3 -8 406.39 9.54
1 -3 -8 420.39 9.53
1 -3 -8 431.66 9.53
1 -3 -7 40.02 2.06
1 -3 -7 36.77 2.01
1 -3 -7 38.2 2.04
1 -3 -7 41.26 2.38
1 -3 -7 40.95 2.04
-1 -3 7 34.95 1.99
1 -3 -7 36.77 1.79
1 -3 -7 41.22 2.07
1 -3 -7 39.41 2.08
1 -3 -6 1107.09 19.84
1 -3 -6 1134.1 19.27
1 -3 -6 1111.41 19.14
1 -3 -6 1065.44 18.88
1 -3 -6 1082.1 19.26
1 -3 -5 155.73 3.89
-1 -3 5 150.26 4.06
1 -3 -5 159.08 3.88
1 -3 -4 211.09 4.57
1 -3 -4 185.9 4.66
-1 -3 4 195.79 3.6
-1 -3 4 217.35 4.77
1 -3 -4 209.7 4.41
-1 -3 3 108.29 2.86
-1 -3 3 100.69 2.22
1 -3 -3 104.17 2.96
1 -3 -3 111.67 3.1
-1 -3 2 239.64 4.97
-1 -3 2 229.11 4.16
1 -3 -2 249.19 5.2
-1 -3 2 246.13 4.49
1 -3 -2 255.82 5.22
-1 -3 2 223.51 4.51
-1 -3 1 6.63 0.49
1 -3 -1 8.66 0.7
-1 -3 1 7.25 0.26
1 -3 -1 8.36 0.66
-1 -3 1 7.34 0.55
-1 -3 1 6.9 0.4
-1 -3 1 7 0.39
-1 -3 0 87.4 2.22
1 -3 0 86.3 2.44
-1 -3 0 80.96 1.62
-1 -3 0 92.02 2.28
-1 -3 0 80.92 1.7
-1 -3 -1 1227.46 20.09
-1 -3 -1 1229.97 19.9
1 -3 1 1259.59 20.99
-1 -3 -1 1254.33 20.7
-1 -3 -1 1234.79 19.95
-1 -3 -1 1237.81 20.22
-1 -3 -2 691.41 12.01
-1 -3 -2 672.82 11.94
-1 -3 -2 695.89 11.92
1 -3 2 696.85 11.63
-1 -3 -3 11.5 0.77
-1 -3 -3 10.67 0.87
-1 -3 -3 10.5 0.72
-1 -3 -3 10.48 0.73
1 -3 3 10.28 0.62
-1 -3 -4 1733.37 28.42
-1 -3 -4 1777.24 28.79
-1 -3 -4 1702.54 28.3
-1 -3 -4 1703.4 28.29
1 -3 4 1639.83 27.79
-1 -3 -5 1929.3 33.65
1 -3 5 2037.11 33.1
-1 -3 -5 1966.51 33.88
-1 -3 -5 2065.03 33.66
-1 -3 -5 2062.96 33.71
-1 -3 -6 904.07 17.18
-1 -3 -6 926.11 17.6
1 -3 6 933.17 16.54
-1 -3 -6 881.42 16.97
-1 -3 -6 976.37 17.58
-1 -3 -6 883.42 17.1
-1 -3 -6 947.75 17.29
-1 -3 -6 1000.22 17.57
-1 -3 -7 32.62 2.03
-1 -3 -7 31.88 2.14
-1 -3 -7 29.78 1.89
1 -3 7 31.88 1.77
-1 -3 -7 29.96 2
-1 -3 -7 30.72 2
-1 -3 -7 28.8 1.93
-1 -3 -7 28.21 1.95
-1 -3 -7 28.44 1.99
-1 -3 -8 85.3 3.64
-1 -3 -8 91.46 3.96
-1 -3 -8 83.16 3.53
1 -3 8 80.4 3.21
-1 -3 -8 77.21 3.58
-1 -3 -8 86.18 3.73
-1 -3 -8 85.11 3.72
-1 -3 -8 75.75 3.66
-1 -3 -8 80.11 3.68
-1 -3 -9 6.28 1.04
-1 -3 -9 5.52 1.05
1 -3 9 5.26 0.87
-1 -3 -9 5.16 0.95
-1 -3 -9 5.01 0.97
-1 -3 -9 4.97 0.96
-1 -3 -9 4.56 0.94
-1 -3 -9 5.77 1.08
-1 -3 -9 5.51 1.03
-1 -3 -10 25.87 2.08
-1 -3 -10 28.34 2.27
-1 -3 -10 25.55 2.02
-1 -3 -10 26.86 2.08
-1 -3 -10 25.54 2.16
-1 -3 -11 16.63 1.6
-1 -3 -11 16.25 1.55
-1 -3 -11 16.57 1.53
-1 -3 -11 18.52 1.64
-1 -3 -11 17.34 1.73
-1 -3 -12 49.67 2.44
-1 -3 -12 51.85 2.44
-1 -3 -12 49.27 2.44
-1 -3 -12 51.02 2.64
-1 -3 -12 50.7 2.26
-1 -3 -13 74.39 2.57
-1 -3 -13 69.92 2.34
1 -2 -14 12.35 0.89
-1 -2 14 12.15 0.89
1 -2 -14 13.06 0.99
-1 -2 13 140.56 4.64
1 -2 -13 164.17 4.75
1 -2 -13 159.04 4.62
-1 -2 13 145.88 4.64
1 -2 -13 161.08 4.92
1 -2 -12 6.32 0.98
1 -2 -12 7.3 1.08
-1 -2 12 5.11 0.99
1 -2 -12 7.28 1.12
1 -2 -11 138.18 4.93
1 -2 -11 130.5 4.95
1 -2 -11 122.16 4.29
1 -2 -11 148.75 5.29
-1 -2 10 44.06 2.58
1 -2 -10 45.25 2.64
1 -2 -10 39.39 2.6
1 -2 -10 43.07 2.71
1 -2 -10 41.87 2.36
1 -2 -10 41.97 2.65
1 -2 -10 42.82 2.64
1 -2 -9 250.71 6.91
-1 -2 9 232.61 6.69
1 -2 -9 254.42 7.16
1 -2 -9 261.53 7.22
1 -2 -9 248.6 6.54
1 -2 -9 244.59 7.01
1 -2 -9 263.75 7.14
-1 -2 8 60.93 2.78
1 -2 -8 56.26 3.02
1 -2 -8 56.82 2.69
1 -2 -8 55.89 2.74
1 -2 -8 56.82 2.77
1 -2 -8 65.22 2.93
1 -2 -8 66.15 2.89
1 -2 -8 54.89 2.49
1 -2 -7 4.88 0.85
1 -2 -7 5.03 0.73
-1 -2 7 4.87 0.73
1 -2 -7 4.75 0.71
1 -2 -7 5.74 0.8
1 -2 -7 5.72 0.73
1 -2 -6 810.51 15.2
1 -2 -6 825.81 14.61
1 -2 -6 841.53 15.2
1 -2 -5 381.26 7.24
1 -2 -5 364.96 7.65
-1 -2 5 404.32 7.84
1 -2 -5 389.15 7.64
1 -2 -4 50.57 1.61
1 -2 -4 54.44 1.15
1 -2 -4 51.5 1.85
-1 -2 4 56.07 1.93
-1 -2 3 1704.08 27.37
-1 -2 3 1987.18 28.63
1 -2 -2 8873.45 138.84
-1 -2 1 5726.93 86.44
-1 -2 1 5676.04 86.07
-1 -2 0 79.6 1.92
-1 -2 0 77.77 1.85
-1 -2 0 83.45 1.8
1 -2 1 598.33 9.71
-1 -2 -1 625.91 10.3
-1 -2 -1 608.48 10.08
-1 -2 -1 616.81 10.24
-1 -2 -1 584.18 10.15
-1 -2 -2 119.07 2.67
-1 -2 -2 114.63 2.65
1 -2 2 109.49 2.32
-1 -2 -2 110.2 2.53
-1 -2 -2 110.26 2.78
-1 -2 -3 100.4 2.68
-1 -2 -3 100.44 2.74
-1 -2 -3 107.17 2.68
-1 -2 -3 112.83 2.73
1 -2 3 89.69 2.27
-1 -2 -4 98.44 2.85
-1 -2 -4 85.58 2.72
-1 -2 -4 93.32 2.74
-1 -2 -4 89.94 2.71
1 -2 4 97.85 2.48
-1 -2 -5 183.81 4.76
-1 -2 -5 188.61 4.7
-1 -2 -5 196.37 4.77
-1 -2 -6 137.49 4.22
-1 -2 -6 154.72 4.49
1 -2 6 125.09 3.69
-1 -2 -6 143.15 4.19
-1 -2 -6 146.66 4.28
-1 -2 -6 145.82 4.39
-1 -2 -6 143.75 4.29
-1 -2 -6 134.17 4.18
-1 -2 -7 108.72 4.04
-1 -2 -7 116.92 4.07
-1 -2 -7 127.77 4.34
-1 -2 -7 123.35 4.15
1 -2 7 129.68 3.85
-1 -2 -7 125.09 4.37
-1 -2 -7 123.94 4.33
-1 -2 -7 106.97 4.02
-1 -2 -7 118.75 4.14
-1 -2 -8 175.32 5.56
-1 -2 -8 161.49 5.31
-1 -2 -8 157.05 5.01
1 -2 8 174.27 5.03
-1 -2 -8 158.55 5.4
-1 -2 -8 169.25 5.42
-1 -2 -8 166.19 5.67
-1 -2 -8 165.01 5.65
-1 -2 -8 175.78 5.63
-1 -2 -8 156.46 5.36
-1 -2 -9 58.48 3.2
-1 -2 -9 63.57 3.21
-1 -2 -9 58.08 2.93
-1 -2 -9 66.53 3.34
-1 -2 -9 61.24 3.29
1 -2 9 64.5 2.96
-1 -2 -9 62.87 3.45
-1 -2 -9 58.57 3.32
-1 -2 -9 58.2 3.24
-1 -2 -9 61.06 3.33
-1 -2 -10 24.28 2.08
-1 -2 -10 20.6 1.85
-1 -2 -10 25.61 2.04
-1 -2 -10 24.94 2.07
1 -2 10 21.59 1.75
-1 -2 -10 24.81 2.22
-1 -2 -10 26.03 2.24
-1 -2 -10 22.77 2.06
-1 -2 -10 21.91 2.05
-1 -2 -11 210.34 6.44
-1 -2 -11 223.91 6.25
-1 -2 -11 217.97 7.04
-1 -2 -11 211.84 6.66
-1 -2 -11 221.01 6.74
-1 -2 -12 267.35 6.82
-1 -2 -12 277.2 7.34
-1 -2 -12 283.43 7.39
-1 -2 -12 271.59 7.63
-1 -2 -13 280.41 6.57
-1 -2 -13 274.32 6.87
-1 -2 -13 283.36 6.65
-1 -1 14 4.54 0.69
-1 -1 14 5.95 0.73
1 -1 -14 5.35 0.73
1 -1 -14 6 0.71
1 -1 -14 5.79 0.68
-1 -1 13 8.02 1.16
1 -1 -13 9.19 1.07
1 -1 -13 10.66 1.14
1 -1 -13 8.88 1.14
1 -1 -12 539.68 12.04
1 -1 -12 539.19 12.17
1 -1 -12 530.96 12.53
1 -1 -11 -0.22 0.46
1 -1 -11 0.33 0.53
1 -1 -11 0.08 0.43
-1 -1 10 337.95 8.73
1 -1 -10 346.74 9.01
1 -1 -10 364.93 9.24
1 -1 -10 348.98 9.17
1 -1 -10 375.14 9.46
1 -1 -10 357.31 9.35
1 -1 -10 337.67 8.11
-1 -1 9 350.63 8.58
1 -1 -9 353.94 8.81
1 -1 -9 363.07 9.01
1 -1 -9 372.25 9.01
1 -1 -9 362.25 9.09
1 -1 -9 386.5 9.28
1 -1 -9 336.67 8.01
1 -1 -8 265.65 6.51
-1 -1 8 269.95 6.93
1 -1 -8 320.73 7.42
-1 -1 8 273.22 6.48
1 -1 -8 290.06 7.36
1 -1 -8 290.91 7.35
1 -1 -8 300.18 7.43
1 -1 -8 293.65 7.2
-1 -1 7 419.79 8.89
1 -1 -7 436.65 9.01
1 -1 -6 104.71 3.16
-1 -1 6 111.01 3.3
1 -1 -6 103.42 3.23
1 -1 -5 129.68 2.51
1 -1 -5 124.87 2.8
1 -1 -5 132.12 3.33
1 -1 -4 602.46 10.21
1 -1 -4 577.33 10.76
-1 -1 4 584.86 10.79
1 -1 -3 54.5 1.66
1 -1 -3 57.09 1.37
1 -1 -3 56.02 1.37
-1 -1 3 51.79 1.63
1 -1 -2 1413.53 22.86
-1 -1 2 1412.83 22.8
1 -1 -2 1411.61 22.72
1 -1 -1 1159.49 19.24
1 -1 -1 1195.81 19.02
-1 -1 0 187.1 3.38
-1 -1 0 168.35 3.01
-1 -1 0 191.99 3.36
-1 -1 0 162.54 3.28
1 -1 0 178.57 3.49
-1 -1 0 173.06 3.25
-1 -1 0 176.06 3.48
1 -1 1 3516.27 53.06
-1 -1 -1 3440.35 53.44
-1 -1 -1 3409.22 53.6
-1 -1 -1 3516.68 53.56
-1 -1 -2 1223.97 18.95
-1 -1 -2 1277.03 18.99
1 -1 2 1098.47 18.49
-1 -1 -2 1052.12 18.71
-1 -1 -2 1098.81 18.85
-1 -1 -2 1248.71 19.06
1 -1 3 1498.79 24.78
-1 -1 -3 1469.15 25.14
-1 -1 -3 1599.35 25.24
-1 -1 -3 1604.34 25.32
1 -1 4 3749.87 59.69
-1 -1 -4 3760.62 60.14
-1 -1 -4 3787.58 60.09
-1 -1 -4 3741.34 60.18
1 -1 5 106.09 2.89
-1 -1 -5 106.78 3.22
-1 -1 -5 102.43 3.23
-1 -1 -6 1781.23 28.99
-1 -1 -6 1720.68 28.77
-1 -1 -6 1685.1 28.7
-1 -1 -7 0.51 0.37
-1 -1 -7 1.25 0.49
-1 -1 -7 0.34 0.33
-1 -1 -7 0.87 0.39
-1 -1 -7 0.6 0.36
-1 -1 -7 0.65 0.39
1 -1 7 0.79 0.38
-1 -1 -7 0.98 0.46
-1 -1 -7 0.36 0.32
-1 -1 -8 793.41 15.47
-1 -1 -8 701.53 14.73
-1 -1 -8 677.72 14.59
1 -1 8 793.58 14.63
-1 -1 -8 758.48 15.22
-1 -1 -8 787.34 15.46
-1 -1 -8 753.58 15.38
-1 -1 -8 684.91 15.07
-1 -1 -8 725.28 15.46
-1 -1 -8 745.63 15.57
-1 -1 -9 197.65 6.37
-1 -1 -9 191.25 5.94
-1 -1 -9 176.61 5.8
-1 -1 -9 206.77 6.4
-1 -1 -9 192.36 6.17
1 -1 9 192.23 5.71
-1 -1 -9 181.49 6.24
-1 -1 -9 198.74 6.47
-1 -1 -9 198.77 6.58
-1 -1 -9 184.04 6.39
-1 -1 -10 1.77 0.69
-1 -1 -10 4.82 0.91
-1 -1 -10 4.3 0.99
-1 -1 -10 4.35 0.98
-1 -1 -10 3.12 0.86
1 -1 10 3.28 0.74
-1 -1 -10 2.64 0.86
-1 -1 -10 2.36 0.74
-1 -1 -10 2.42 0.8
-1 -1 -11 3.8 0.79
-1 -1 -11 4.76 1
-1 -1 -11 5.61 1.1
-1 -1 -11 3.59 0.98
-1 -1 -12 0.21 0.53
-1 -1 -12 2.09 0.72
-1 -1 -12 1.6 0.68
-1 -1 -13 7.86 0.95
-1 -1 -13 9.53 1.12
-1 -1 -13 8.21 0.98
-1 -1 -14 12.42 0.92
-1 0 14 0.25 0.34
-1 0 14 0.04 0.32
1 0 -14 -0.13 0.37
1 0 -14 0.04 0.26
1 0 -14 0.38 0.29
-1 0 13 153.18 5.28
1 0 -13 165.95 5.03
1 0 -13 166.35 5.08
1 0 -13 160.95 5.22
1 0 -12 0.41 0.42
1 0 -12 -0.08 0.63
1 0 -12 0.14 0.5
1 0 -11 237.63 7.03
1 0 -11 236.45 7.13
1 0 -11 237.41 7.16
1 0 -11 239.61 7.3
1 0 -11 214.97 7.05
1 0 -10 -0.07 0.45
-1 0 10 0.35 0.33
1 0 -10 0.38 0.42
1 0 -10 0.08 0.32
1 0 -10 0.08 0.44
1 0 -10 0.16 0.5
1 0 -9 272.41 7.18
-1 0 9 270.16 6.5
1 0 -9 255.29 7.15
1 0 -9 251.57 7.03
1 0 -9 250.66 7.16
1 0 -9 252.47 7.16
1 0 -8 27.53 1.74
-1 0 8 0.09 0.25
1 0 -8 18.6 1.49
1 0 -8 14.71 1.33
1 0 -8 0.71 0.43
1 0 -8 1.7 0.5
1 0 -7 2304.59 37.7
1 0 -7 2350.26 39.42
1 0 -6 0.79 0.2
1 0 -6 0.07 0.25
1 0 -5 14.7 0.7
1 0 -4 0.05 0.16
1 0 -4 0.16 0.12
1 0 -3 2561.89 40.26
1 0 -3 2555.31 40.88
-1 0 3 2525.27 40.97
1 0 -2 0.32 0.14
-1 0 2 0.14 0.15
1 0 -1 3124.99 50.91
-1 0 1 3238 50.86
-1 0 0 0.24 0.14
-1 0 0 0.18 0.16
-1 0 0 0.37 0.14
-1 0 0 0.01 0.11
-1 0 -1 4424.89 67.62
-1 0 -1 4281.76 67.61
-1 0 -1 4382.73 67.68
-1 0 -1 4164.18 67.52
-1 0 -2 0.1 0.19
-1 0 -2 0.08 0.17
1 0 2 0.17 0.07
-1 0 -2 0.07 0.18
-1 0 -2 0.01 0.17
-1 0 -3 16.2 0.88
-1 0 -3 14.87 0.85
1 0 3 14.92 0.49
-1 0 -3 15.97 0.9
-1 0 -3 14.89 0.82
-1 0 -4 0.29 0.25
1 0 4 0.77 0.27
1 0 4 0.19 0.09
-1 0 -4 0.87 0.29
-1 0 -4 0.14 0.23
-1 0 -5 349.83 7.47
-1 0 -5 355.98 7.47
-1 0 -5 344.55 7.39
1 0 5 350.65 7.13
1 0 6 0.18 0.29
-1 0 -6 0.27 0.32
-1 0 -6 0.6 0.34
-1 0 -7 241.03 6.56
-1 0 -7 256.01 6.31
-1 0 -7 230.96 6.07
-1 0 -7 265.08 6.6
1 0 7 240.19 6.04
-1 0 -7 263.58 6.64
-1 0 -7 242.38 6.64
-1 0 -7 258.92 6.82
-1 0 -7 236.37 6.48
-1 0 -7 272.42 6.73
-1 0 -8 -0.07 0.38
-1 0 -8 0.14 0.36
-1 0 -8 -0.07 0.34
-1 0 -8 -0.06 0.32
-1 0 -8 0.26 0.43
1 0 8 0.27 0.3
-1 0 -8 0.22 0.39
-1 0 -8 0.07 0.37
-1 0 -8 0.18 0.32
-1 0 -9 1195.17 22.93
-1 0 -9 1211.04 22.14
-1 0 -9 1143.24 22.42
-1 0 -9 1289 23.13
1 0 9 1163.51 21.93
-1 0 -9 1154.02 23.02
-1 0 -9 1097.75 22.95
-1 0 -9 1261.78 23.1
-1 0 -9 1161.22 22.89
-1 0 -10 0.36 0.46
-1 0 -10 0.09 0.47
-1 0 -10 0.42 0.47
-1 0 -10 -0.06 0.36
-1 0 -10 0.17 0.49
1 0 10 -0.13 0.35
-1 0 -10 0.19 0.54
-1 0 -10 0.08 0.46
-1 0 -10 0.19 0.45
-1 0 -11 2206.34 39.03
-1 0 -11 2230.25 39.52
-1 0 -11 2251.89 39.53
-1 0 -11 2207.22 40.06
-1 0 -12 0.49 0.5
-1 0 -12 0.78 0.57
-1 0 -12 0.73 0.58
-1 0 -13 14.48 1.31
-1 0 -13 14.77 1.4
-1 0 -13 17.12 1.39
-1 0 -14 0.03 0.24
-1 1 14 4.47 0.68
1 1 -14 5.29 0.66
1 1 -14 6.13 0.69
1 1 -14 5.53 0.73
-1 1 14 6.44 0.77
1 1 -13 8.53 1.02
1 1 -13 10.69 1.13
1 1 -13 8.09 1.1
-1 1 13 10.13 1.26
1 1 -12 547.57 12.56
1 1 -12 558.91 12.36
1 1 -12 560.12 12.25
-1 1 11 0.05 0.28
1 1 -11 -0.07 0.47
1 1 -11 0.08 0.49
1 1 -11 0.23 0.49
1 1 -10 381.71 9.47
1 1 -10 360.39 9.23
-1 1 10 346.4 8.88
1 1 -10 341.92 9
-1 1 10 374.75 8.51
1 1 -10 356.04 9.39
1 1 -10 381.16 9.64
1 1 -9 369.68 8.74
1 1 -9 351.35 8.72
-1 1 9 340.37 8.3
1 1 -9 366.75 8.68
-1 1 9 330.95 8.02
1 1 -9 340.77 8.71
1 1 -9 349.76 8.76
-1 1 8 262.67 6.63
1 1 -8 239.89 6.73
-1 1 8 287.04 6.93
1 1 -8 293.28 7.15
1 1 -8 267.88 7.04
1 1 -8 280.16 7.13
1 1 -8 277.54 5.95
1 1 -8 275.2 7.09
1 1 -8 304.31 7.16
1 1 -7 384 8.45
-1 1 7 364.11 8.19
1 1 -7 381.4 7.48
1 1 -7 392.39 8.44
1 1 -6 107.22 2.74
-1 1 6 103.66 3.12
1 1 -6 106.37 3.2
1 1 -5 132.4 2.83
1 1 -5 142.05 3.15
-1 1 5 135.15 3.4
-1 1 4 630.94 10.89
1 1 -4 606.88 10.2
-1 1 4 616.77 10.67
1 1 -3 55.66 1.54
-1 1 3 56.21 1.7
-1 1 3 55.62 1.55
1 1 -2 1392.97 22.62
-1 1 2 1426.08 22.51
-1 1 2 1475.88 23.19
-1 1 2 1468 22.8
-1 1 1 1269.81 19.84
1 1 -1 1217.66 20
1 1 -1 1241.28 19.43
-1 1 1 1249.47 19.57
-1 1 1 1232.66 20.05
-1 1 0 174.61 3.39
1 1 0 183.14 3.4
-1 1 0 171 3.42
-1 1 0 177.11 3.27
-1 1 0 196.34 3.56
-1 1 0 165.21 3.31
-1 1 0 183.18 3.37
-1 1 -1 3540.61 56.23
-1 1 -1 3503.94 56.21
-1 1 -1 3448.34 56.41
-1 1 -1 3550.23 56.13
-1 1 -2 1108.46 18.64
1 1 2 1108.37 18.23
-1 1 -2 1143.02 18.72
-1 1 -2 1137.76 18.54
-1 1 -3 1483.57 24.04
-1 1 -3 1345.47 23.8
-1 1 -3 1429.56 23.88
-1 1 -3 1301.62 23.93
-1 1 -4 3933.05 61.96
-1 1 -4 3841.83 61.99
1 1 4 3950.98 61.01
-1 1 -4 3882.34 61.83
1 1 5 111.65 3.2
-1 1 -5 106.55 3.31
1 1 5 100.09 2.51
-1 1 -5 94.6 3.09
-1 1 -5 109.6 3.26
1 1 6 1578.21 27.54
-1 1 -6 1631.83 27.94
-1 1 -7 0.63 0.43
-1 1 -7 0.68 0.42
-1 1 -7 0.39 0.35
-1 1 -7 0.49 0.36
1 1 7 0.67 0.38
-1 1 -7 0.18 0.32
-1 1 -7 0.66 0.41
-1 1 -8 677.36 14.06
-1 1 -8 658.93 13.86
-1 1 -8 712.11 14.67
-1 1 -8 718.07 14.6
-1 1 -8 725.85 14.78
-1 1 -8 687.33 14.67
-1 1 -8 698.24 14.86
-1 1 -8 671.68 14.78
-1 1 -9 185.69 5.82
1 1 9 187.34 5.63
-1 1 -9 178.37 5.92
-1 1 -9 180.29 6.09
-1 1 -9 186.26 6.18
-1 1 -9 177.19 6.02
-1 1 -9 180.44 6.24
-1 1 -9 176.07 6.16
-1 1 -10 3.06 0.82
-1 1 -10 2.44 0.81
-1 1 -10 2.9 0.85
-1 1 -10 3.05 0.83
1 1 10 3.17 0.76
-1 1 -10 4.39 1.01
-1 1 -10 3 0.82
-1 1 -10 3.71 0.96
-1 1 -11 3.65 0.91
-1 1 -11 3.7 1
-1 1 -11 4.32 0.94
-1 1 -11 4.39 0.96
-1 1 -12 1.09 0.65
-1 1 -12 0.95 0.54
-1 1 -12 0.04 0.11
-1 1 -12 0.14 0.43
-1 1 -13 9.27 1.09
-1 1 -13 8.71 0.98
-1 1 -13 7.8 0.97
-1 1 -14 12.45 0.9
1 2 -14 10.95 0.88
-1 2 14 13.06 0.97
1 2 -13 153.78 4.57
1 2 -13 161.56 4.64
1 2 -13 157.42 4.82
-1 2 13 152.45 4.87
1 2 -12 5.57 0.91
1 2 -12 8.11 1.11
1 2 -12 8.01 1.15
-1 2 12 6.54 1.14
-1 2 11 137.75 4.35
1 2 -11 133.16 4.79
1 2 -11 138.1 5.08
1 2 -11 125.19 4.77
1 2 -10 40.66 2.55
1 2 -10 45.51 2.67
1 2 -10 42.81 2.54
-1 2 10 42.82 2.5
-1 2 10 46.45 2.46
1 2 -10 47.5 2.8
1 2 -10 43.4 2.69
1 2 -9 236.58 6.65
1 2 -9 242.81 6.78
1 2 -9 250.98 6.77
-1 2 9 248.82 6.56
-1 2 9 248.02 6.56
1 2 -9 230.97 6.72
1 2 -9 239.61 6.88
-1 2 8 55.6 2.63
1 2 -8 56.5 2.7
1 2 -8 59.63 2.7
1 2 -8 61.05 2.74
-1 2 8 52.24 2.49
1 2 -8 55.18 2.26
1 2 -8 56.47 2.72
1 2 -8 54.74 2.7
-1 2 7 4.38 0.73
1 2 -7 3.84 0.65
1 2 -7 4.45 0.71
-1 2 7 6.49 0.8
1 2 -7 5.8 0.76
-1 2 7 4.72 0.67
1 2 -7 5.48 0.64
1 2 -7 4.93 0.72
1 2 -7 5.46 0.75
1 2 -6 830.91 14.9
1 2 -6 886.65 15.2
-1 2 6 853.08 15.63
-1 2 6 858.15 15.48
1 2 -6 900.03 15.63
1 2 -5 364.94 7.13
1 2 -5 378.8 7.27
-1 2 5 390.53 7.69
-1 2 5 366.82 7.36
1 2 -5 368.42 7.43
1 2 -4 52.79 1.76
-1 2 4 55.61 2
-1 2 4 56.26 1.81
-1 2 3 1822.15 29.58
-1 2 3 1870.39 30.6
-1 2 2 9999 152.01
-1 2 2 9561.42 151.39
-1 2 1 5748.66 94.07
1 2 -1 6084.52 93.94
-1 2 1 5863.24 93.93
-1 2 1 6205.03 93.74
1 2 0 90.77 1.98
-1 2 0 87.69 2.05
-1 2 0 89.12 2.22
-1 2 0 82.79 1.84
-1 2 0 81.49 1.82
-1 2 -1 615.65 10.42
-1 2 -1 660.4 10.93
1 2 1 596.41 10.18
-1 2 -1 615.8 10.25
-1 2 -1 642.76 10.5
-1 2 -1 603.02 10.26
-1 2 -2 104.18 2.58
-1 2 -2 107.36 2.6
1 2 2 118.98 2.58
-1 2 -2 104.72 2.03
1 2 2 113.02 2.14
-1 2 -2 111.79 2.66
-1 2 -2 108.09 2.47
-1 2 -3 101.7 2.72
-1 2 -3 102.72 2.67
-1 2 -3 98.75 2.63
-1 2 -3 91.24 2.82
1 2 3 97.02 1.74
1 2 3 103.95 2.47
-1 2 -3 110.28 2.81
-1 2 -4 97.13 2.86
-1 2 -4 94.03 2.78
-1 2 -4 90.98 2.74
-1 2 -4 96.3 3.02
1 2 4 89.93 2.47
-1 2 -5 176.13 4.64
1 2 5 184.53 4.17
-1 2 -5 178.95 4.76
-1 2 -5 172.58 4.55
-1 2 -5 168.83 4.51
-1 2 -6 135.72 4.18
-1 2 -6 142.46 4.28
-1 2 -6 141.37 4.28
-1 2 -6 143.01 4.22
1 2 6 151.62 4.34
1 2 6 138.36 3.67
-1 2 -6 139.16 4.32
-1 2 -7 116.95 4.08
1 2 7 112.68 3.88
-1 2 -7 114.99 3.99
-1 2 -7 123.57 3.9
-1 2 -7 111.65 3.69
-1 2 -7 111.87 4.1
-1 2 -7 110.6 4.13
-1 2 -7 106.25 3.94
-1 2 -7 110.87 4.02
-1 2 -8 174.55 5.48
-1 2 -8 172.48 5.41
1 2 8 172.5 5.24
-1 2 -8 157.31 4.95
-1 2 -8 148.44 4.91
-1 2 -8 162.32 5.52
-1 2 -8 167.68 5.59
-1 2 -8 150.28 5.18
-1 2 -8 172.83 5.54
-1 2 -9 58.02 3.13
-1 2 -9 58.35 3.12
1 2 9 62.73 3.07
-1 2 -9 57.12 2.93
-1 2 -9 59.76 3.06
-1 2 -9 55.33 3.22
-1 2 -9 55.56 3.19
-1 2 -9 59.26 3.23
-1 2 -9 62.9 3.31
-1 2 -10 23.38 1.99
-1 2 -10 23.13 1.99
1 2 10 22.42 1.84
-1 2 -10 25.68 2.07
-1 2 -10 23.65 2.13
-1 2 -10 22.53 2.06
-1 2 -10 22.34 2.02
-1 2 -10 24.26 2.08
-1 2 -11 224.46 6.72
-1 2 -11 210.65 6.55
-1 2 -11 217.63 6.95
-1 2 -12 288.7 7.43
-1 2 -12 287.37 7.33
-1 2 -12 271.66 6.28
-1 2 -12 279.85 7.65
-1 2 -13 284.38 6.52
-1 2 -13 266.76 6.66
-1 2 -13 272.04 6.4
1 3 -13 56.17 2.18
1 3 -13 55.91 2.2
1 3 -13 56.57 2.33
-1 3 13 52.06 2.32
-1 3 12 146.24 5.01
-1 3 12 148.58 4.1
1 3 -12 142.99 4.72
1 3 -12 148.4 4.57
1 3 -12 136.21 4.44
-1 3 11 196.15 5.5
1 3 -11 181.83 5.6
1 3 -11 181.97 5.81
1 3 -11 191.89 5.76
-1 3 10 159.67 5.07
1 3 -10 136.67 4.94
1 3 -10 138.01 4.94
-1 3 10 155.79 5.06
1 3 -10 166 5.18
1 3 -10 155.79 5.19
1 3 -10 147.04 5.16
1 3 -10 136.22 5.02
1 3 -9 40.12 2.35
1 3 -9 41.27 2.42
-1 3 9 47.26 2.59
1 3 -9 35.9 2.3
1 3 -9 43.18 2.4
-1 3 9 40.45 2.31
1 3 -9 39.68 2.16
1 3 -9 40.25 2.43
1 3 -9 39.45 2.4
1 3 -8 385.82 9.01
1 3 -8 429.88 9.17
-1 3 8 412.14 9.47
1 3 -8 413.18 8.19
1 3 -8 355.92 8.85
-1 3 8 396.22 9.02
1 3 -8 379.05 8.86
1 3 -8 379.75 8.62
-1 3 8 371.87 8.9
1 3 -8 412.88 9.27
1 3 -8 415.61 9.14
1 3 -7 36.55 1.91
1 3 -7 40.56 2.03
-1 3 7 38.65 2.22
1 3 -7 37.53 1.72
1 3 -7 31.72 1.85
1 3 -7 38.17 1.96
-1 3 7 42.08 2.06
1 3 -7 37.3 1.83
1 3 -7 40.61 1.94
-1 3 7 37.71 2.06
1 3 -7 34.44 1.93
1 3 -7 35.21 1.92
-1 3 6 1154.4 19.46
1 3 -6 1093.95 19.26
1 3 -6 1044.45 19.29
1 3 -6 1076.37 19.25
1 3 -6 1072.3 19.2
-1 3 6 1120.51 19.87
1 3 -6 1141.6 19.44
1 3 -5 167.09 4.1
-1 3 5 161.31 4.42
1 3 -5 151.84 4.05
-1 3 5 160.44 4.02
1 3 -5 154.98 3.86
-1 3 4 195.21 3.88
-1 3 4 198.42 4.94
-1 3 4 201.93 4.5
1 3 -4 206 4.31
-1 3 3 114.55 2.76
1 3 -3 111.97 2.97
1 3 -2 247.42 5.03
-1 3 2 249.74 4.78
-1 3 1 7.8 0.64
1 3 -1 6.3 0.52
-1 3 1 7.3 0.41
-1 3 1 7.8 0.42
-1 3 0 82.99 2.22
-1 3 0 81.2 2.39
1 3 0 80.87 2.04
-1 3 0 81.3 1.7
-1 3 -1 1229.15 19.66
-1 3 -1 1207.07 19.83
-1 3 -1 1260.3 20
-1 3 -1 1163.88 20.02
1 3 1 1339.13 20.44
-1 3 -1 1152.2 20.44
-1 3 -1 1200.04 20.74
1 3 1 1257.32 19.87
-1 3 -2 666.55 11.8
-1 3 -2 684.63 11.83
-1 3 -2 677.64 11.87
1 3 2 696.36 11.32
-1 3 -2 690.01 12.39
-1 3 -2 678.05 11.5
-1 3 -3 12.32 0.8
-1 3 -3 10.48 0.75
-1 3 -3 10.86 0.79
-1 3 -3 9.52 0.91
-1 3 -3 10.15 0.41
1 3 3 11.3 0.79
-1 3 -4 1627.9 27.36
-1 3 -4 1615.01 27.37
-1 3 -4 1640.63 27.47
-1 3 -4 1712.31 28.3
-1 3 -4 1564.73 27.65
1 3 4 1694.05 27.41
-1 3 -5 1934.43 32.18
-1 3 -5 1879.06 32.12
-1 3 -5 1829.56 32.76
1 3 5 1939.28 31.98
-1 3 -5 1986.68 32.38
-1 3 -6 889.74 17.14
-1 3 -6 946.55 16.87
-1 3 -6 937.73 16.85
-1 3 -6 951.22 17.28
-1 3 -6 891.12 17.15
-1 3 -6 922.37 17.14
1 3 6 968.06 16.96
-1 3 -6 938.57 17.76
-1 3 -6 904.34 17.32
-1 3 -7 33.26 2.03
-1 3 -7 31.17 1.85
-1 3 -7 33.41 1.91
-1 3 -7 32.74 2.04
-1 3 -7 34.76 2.09
-1 3 -7 29.87 1.91
1 3 7 31.02 1.75
-1 3 -7 30.37 2.01
-1 3 -7 29.81 2.04
1 3 8 81.6 3.31
-1 3 -8 76.51 3.34
-1 3 -8 85.21 3.47
-1 3 -8 79.85 3.49
-1 3 -8 82.11 3.49
-1 3 -8 81.65 3.55
-1 3 -8 75.11 3.45
-1 3 -8 76.36 3.62
-1 3 -8 71.16 3.43
-1 3 -9 4.88 0.95
-1 3 -9 6.21 1.02
-1 3 -9 5.96 0.99
-1 3 -9 5.39 0.98
-1 3 -9 5.41 0.97
-1 3 -9 5.02 0.99
-1 3 -9 4.86 0.98
-1 3 -9 5.04 0.96
-1 3 -10 24.63 1.95
-1 3 -10 26.34 2.07
-1 3 -10 26.36 2.01
-1 3 -10 26.23 2.16
-1 3 -11 15.4 1.46
-1 3 -11 15.47 1.47
-1 3 -11 16.35 1.57
-1 3 -11 16.21 1.35
-1 3 -11 15.62 1.59
-1 3 -12 51.16 2.44
-1 3 -12 55.34 2.22
-1 3 -12 51.06 2.38
-1 3 -12 49.08 2.52
-1 3 -13 69.28 2.32
-1 3 -13 73.07 2.44
1 4 -13 5.98 0.66
-1 4 12 15.9 1.24
1 4 -12 17.54 1.19
1 4 -12 14.93 1.16
-1 4 12 19.3 1.22
-1 4 11 67 3.14
-1 4 11 76.62 3.11
1 4 -11 67.16 2.84
1 4 -11 68.76 3.01
1 4 -11 69.94 2.88
-1 4 10 160.93 5.4
1 4 -10 156.66 4.89
-1 4 10 159.07 5.21
1 4 -10 159.09 4.93
1 4 -10 151.92 5.04
1 4 -9 6.84 1
1 4 -9 5.48 0.9
1 4 -9 3.19 0.76
-1 4 9 4.12 0.87
-1 4 9 5.44 0.87
1 4 -9 3.84 0.72
-1 4 9 5.11 0.87
1 4 -9 4.05 0.76
1 4 -9 5.83 0.89
1 4 -8 23.15 1.63
-1 4 8 26.19 2
1 4 -8 23.38 1.49
1 4 -8 22.08 1.68
-1 4 8 24.24 1.71
1 4 -8 22.37 1.58
1 4 -8 24.77 1.75
-1 4 8 24 1.83
1 4 -8 22.75 1.66
1 4 -8 23.91 1.71
1 4 -7 6.7 0.82
1 4 -7 5.91 0.79
-1 4 7 4.41 0.89
1 4 -7 6.19 0.76
1 4 -7 3.87 0.74
1 4 -7 5.37 0.77
-1 4 7 6.85 0.85
1 4 -7 6.33 0.85
1 4 -7 6.53 0.86
-1 4 7 7.58 1.01
1 4 -7 5.69 0.78
1 4 -6 48.66 2.12
1 4 -6 53.3 2.2
1 4 -6 49.32 2.35
-1 4 6 51.99 2.24
1 4 -6 52.8 2.42
1 4 -6 54.35 2.36
-1 4 6 59.39 2.75
1 4 -6 52.87 2.13
1 4 -6 52.34 2.1
1 4 -5 39.11 1.64
1 4 -5 39.39 1.61
1 4 -5 38.11 1.78
-1 4 5 39.44 1.78
-1 4 5 38.67 2.02
-1 4 5 45.31 2.29
1 4 -5 40.94 2.03
1 4 -5 37.77 1.61
1 4 -4 4648.48 68.44
1 4 -4 4697.31 68.38
-1 4 4 4395.15 68.93
-1 4 4 4170.33 68.66
-1 4 4 4521.22 70.03
-1 4 4 3907.83 68.35
1 4 -4 4033.91 68.32
-1 4 3 1686.02 27.7
1 4 -3 1716.96 28.2
1 4 -3 1650.55 27.09
1 4 -3 1731.62 27.19
-1 4 3 1694.38 27.48
1 4 -2 338.95 6.62
-1 4 2 327.22 7
1 4 -2 323.98 5.45
-1 4 2 318.3 5.66
1 4 -1 677.76 11.72
-1 4 1 675 12.17
-1 4 0 868.66 15.81
1 4 0 904.58 15.47
1 4 0 906.86 15.85
1 4 1 203 4.8
-1 4 -1 210.83 4.64
-1 4 -1 213.91 5.26
-1 4 -2 135.63 3.09
1 4 2 151.53 3.82
1 4 2 146.25 3.01
-1 4 -2 140.86 3.28
-1 4 -2 132.8 3.87
-1 4 -3 1178.32 20.28
-1 4 -3 1242.88 20.25
-1 4 -3 1277.21 21.45
-1 4 -3 1163.58 19.71
1 4 3 1293.36 21.09
-1 4 -4 227.48 6.37
1 4 4 257.1 6.05
-1 4 -4 224.2 5.46
-1 4 -4 267.84 5.62
-1 4 -5 140.29 4.04
-1 4 -5 131.69 3.95
-1 4 -5 142.98 3.96
-1 4 -5 157.26 4.95
1 4 5 148.93 4.29
-1 4 -5 142.5 3.96
-1 4 -5 126.73 3.79
-1 4 -6 140.13 4.43
-1 4 -6 142.84 4.23
1 4 6 169.97 5.04
-1 4 -6 152.2 4.42
-1 4 -6 132.85 4.24
-1 4 -6 149.42 5.08
1 4 6 158.99 4.73
-1 4 -6 153.85 4.43
-1 4 -6 145.34 4.27
-1 4 -7 321.76 7.48
-1 4 -7 311.14 7.5
-1 4 -7 276.18 7.26
-1 4 -7 289.56 7.33
-1 4 -7 281.55 7.92
1 4 7 299.58 7.47
-1 4 -7 290.89 7.63
-1 4 -7 296.13 7.57
-1 4 -8 22.21 1.73
-1 4 -8 25.4 1.92
-1 4 -8 19.8 1.67
1 4 8 20.31 1.77
-1 4 -8 21.38 1.68
-1 4 -8 21.9 1.7
-1 4 -8 18.68 1.68
-1 4 -8 20.48 1.77
-1 4 -9 0.76 0.52
-1 4 -9 0.94 0.54
-1 4 -9 0.73 0.54
-1 4 -9 2.39 0.65
1 4 9 0.61 0.47
1 4 9 0.28 0.4
-1 4 -9 0.82 0.46
-1 4 -9 2.58 0.69
-1 4 -10 -0.07 0.41
-1 4 -10 0.07 0.37
-1 4 -10 0.18 0.32
-1 4 -10 -0.06 0.35
-1 4 -10 0.19 0.42
-1 4 -11 80.05 3.36
-1 4 -11 75.06 3.01
-1 4 -11 69.35 3.05
-1 4 -11 70.63 2.86
-1 4 -11 76.78 3.01
1 4 12 -0.03 0.09
-1 4 -12 8.79 0.83
1 5 -12 76.77 2.74
-1 5 12 80.3 2.56
1 5 -11 0.16 0.31
-1 5 11 -0.1 0.31
-1 5 10 5.44 0.94
1 5 -9 154.52 4.56
-1 5 9 156.5 5.45
1 5 -8 80.8 3.13
1 5 -8 87.06 3.63
-1 5 8 79.06 3.64
-1 5 8 87.78 3.93
-1 5 8 80.4 3.24
-1 5 7 62.75 2.72
1 5 -7 60.87 2.92
1 5 -7 65.83 3.04
-1 5 7 61.97 3.19
1 5 -7 66.45 2.77
-1 5 6 293.74 6.85
1 5 -6 304.43 7.58
-1 5 6 297.11 7.91
1 5 -6 315.29 7.45
1 5 -6 301.19 7.03
1 5 -5 485.95 10.16
-1 5 5 562.57 11.52
1 5 -5 499.69 9.24
1 5 -5 548.1 11.1
-1 5 5 518.07 10.73
-1 5 5 509.96 9.91
1 5 -4 1451.88 24.69
1 5 -4 1357.2 23.84
1 5 -4 1431.68 24.76
-1 5 4 1455.41 25.66
-1 5 4 1440.28 25.21
-1 5 4 1449.01 24.17
1 5 -3 1.28 0.38
-1 5 3 1.21 0.43
1 5 -3 1.39 0.43
1 5 -3 1.28 0.33
-1 5 3 1.2 0.28
-1 5 3 2.05 0.49
1 5 -2 109.68 3.36
1 5 -2 116.91 3.3
1 5 -2 118.24 3.4
-1 5 2 120.88 3.86
-1 5 2 121.48 3.61
1 5 -1 0.99 0.31
-1 5 1 1.35 0.43
1 5 -1 1.48 0.37
-1 5 1 1.88 0.45
1 5 0 353.31 7.45
1 5 0 361.92 7.05
-1 5 0 364.9 7.96
-1 5 -1 699.5 13.86
-1 5 -1 717.75 13.23
1 5 1 735.25 12.71
-1 5 -1 744.99 14.17
-1 5 -2 181.94 5.05
-1 5 -2 186.29 5.04
-1 5 -2 174.07 4.29
-1 5 -2 180.3 5.26
-1 5 -3 1341.73 23.21
-1 5 -3 1313.64 23.18
-1 5 -4 18.17 1.45
-1 5 -4 18.82 1.63
1 5 4 21.57 1.57
-1 5 -4 20.19 1.52
-1 5 -4 20.15 1.31
-1 5 -5 31.47 1.92
-1 5 -5 28.93 1.6
-1 5 -5 28.87 1.7
-1 5 -5 28.27 2.11
1 5 5 31.49 2.01
-1 5 -5 29.06 1.88
1 5 6 45.77 2.53
-1 5 -6 41.59 2.22
-1 5 -6 39.98 2.07
-1 5 -6 39.83 2.62
1 5 6 37.26 2.32
-1 5 -6 39.23 2.21
1 5 7 310.71 8.34
-1 5 -7 307.79 7.89
-1 5 -7 308.84 7.61
-1 5 -7 303 8.61
1 5 7 303.51 8.09
-1 5 -8 171.86 5.55
1 5 8 171.05 5.65
-1 5 -8 168.07 5.25
-1 5 -8 167.93 5.52
1 5 9 27.28 1.97
-1 5 -9 26.97 1.97
-1 5 -9 27.35 1.95
1 5 10 12.75 1.18
-1 5 -10 12.82 1.29
-1 5 -10 12.57 1.29
-1 5 -11 4.6 0.73
-1 5 -11 3.91 0.7
-1 5 -12 7.15 0.69
1 6 -12 19.18 1.11
-1 6 11 84.67 2.98
1 6 -11 84.05 3.01
-1 6 10 0.23 0.39
1 6 -10 -0.05 0.34
-1 6 9 45.69 2.72
1 6 -9 43.7 2.45
1 6 -9 42.54 2.18
1 6 -8 55.82 2.83
-1 6 8 54.32 3.14
1 6 -8 58.2 2.73
1 6 -7 14.52 1.49
1 6 -7 16.85 1.53
1 6 -7 14.29 1.49
-1 6 7 15.08 1.7
1 6 -7 16.75 1.45
1 6 -6 0.06 0.34
1 6 -6 1.07 0.5
-1 6 6 0.89 0.55
1 6 -6 1.07 0.47
1 6 -5 1081.26 18.97
1 6 -5 1080.98 19.34
-1 6 5 925.31 19.69
1 6 -5 975.25 19.4
-1 6 5 1075.44 19.28
1 6 -5 1006.81 18.8
1 6 -5 889.69 18.31
-1 6 4 584.16 12.87
1 6 -4 607.01 11.54
1 6 -4 685.21 12.82
1 6 -4 616.41 13.06
-1 6 4 620.69 12.85
1 6 -4 657.35 12.5
1 6 -4 542.17 11.78
1 6 -3 223.17 5.91
-1 6 3 211.31 6.35
1 6 -3 223.44 5.83
-1 6 3 244.15 6.49
1 6 -3 232.68 5.52
-1 6 3 208.45 6.35
1 6 -3 243.9 6.01
-1 6 3 230.68 5.98
-1 6 2 18.75 1.62
1 6 -2 23.78 1.57
-1 6 2 17.63 1.54
1 6 -2 18.03 1.34
-1 6 2 25.66 1.82
1 6 -2 27.48 1.6
1 6 -2 19.69 1.32
-1 6 2 22.29 1.6
1 6 -1 321.35 7.34
-1 6 1 298.24 7.92
-1 6 1 314.57 7.91
-1 6 1 323.11 7.77
1 6 -1 320.13 7.21
1 6 -1 315.2 7.03
-1 6 1 336.5 7.92
1 6 0 227.63 5.88
-1 6 0 209.88 6.33
-1 6 0 226.48 6.4
1 6 0 229.81 5.86
-1 6 0 252.27 6.18
1 6 0 236.7 5.52
-1 6 0 268.07 6.74
-1 6 -1 1401.61 26.06
1 6 1 1440.23 25.22
1 6 1 1468.94 25.52
1 6 1 1430.77 24.45
-1 6 -1 1472.82 25.07
-1 6 -1 1438.92 26.27
-1 6 -1 1476.44 26.1
-1 6 -2 191.76 5.95
-1 6 -2 191.56 4.88
-1 6 -2 195.35 5.72
-1 6 -2 192.17 4.79
-1 6 -3 130.01 4.61
1 6 3 145.11 4.75
-1 6 -3 144.8 4.76
-1 6 -3 143.64 4.1
-1 6 -4 108.15 4.15
1 6 4 103.42 4.09
-1 6 -4 119.06 4.29
-1 6 -4 109.91 3.66
-1 6 -5 10.2 1.22
-1 6 -5 7.94 0.99
-1 6 -5 8.32 1.26
1 6 5 7.02 1.08
-1 6 -5 9.08 1.16
-1 6 -6 11.37 1.3
-1 6 -6 10.13 1.16
-1 6 -6 10.73 1.09
1 6 6 10.59 1.28
-1 6 -6 11.99 1.57
1 6 6 11.76 1.4
-1 6 -6 9.45 1.24
-1 6 -7 2.93 0.74
-1 6 -7 2.16 0.59
-1 6 -7 2.72 0.81
1 6 7 2.91 0.76
1 6 7 2.95 0.77
-1 6 -7 2.72 0.67
-1 6 -8 57.42 2.99
-1 6 -8 56.47 2.7
-1 6 -9 230.81 6.64
-1 6 -9 242.89 6.3
-1 6 -9 234.26 6.59
1 6 9 230.9 6.48
-1 6 -10 22.72 1.49
1 6 10 21.73 1.44
-1 6 -10 24.29 1.66
-1 6 -11 4.17 0.61
-1 7 11 103.12 2.89
1 7 -11 97.27 2.91
-1 7 10 59.03 2.55
1 7 -10 60.35 2.48
-1 7 9 147.63 4.95
1 7 -9 152.02 4.66
1 7 -9 143.69 4.29
-1 7 8 61.5 3.24
1 7 -8 59.95 2.87
1 7 -8 57.21 2.73
1 7 -7 197.65 5.92
1 7 -7 200.53 5.93
1 7 -6 264.11 7.04
1 7 -6 257.78 6.93
-1 7 6 231.31 7.46
1 7 -6 224.95 7.07
1 7 -6 257.67 7.31
1 7 -5 485.22 11.01
-1 7 5 493.56 10.95
1 7 -5 491.72 10.94
1 7 -5 495.96 11.75
-1 7 5 474.1 11.91
1 7 -5 492.57 11.3
-1 7 4 101.01 4.14
-1 7 4 110.09 4.16
1 7 -4 111.71 4.05
1 7 -4 109.93 4.16
-1 7 4 95.54 4.37
1 7 -4 111.06 4.52
-1 7 3 60.88 3.18
1 7 -3 67.83 3.08
1 7 -3 64.66 2.92
-1 7 3 57.83 2.98
1 7 -3 66.54 3.02
1 7 -3 64.13 2.65
-1 7 3 58.8 3.23
1 7 -3 59.21 3.15
-1 7 3 60.21 2.92
-1 7 2 171.58 5.85
1 7 -2 193.28 5.58
1 7 -2 170.99 5.15
-1 7 2 188.31 5.88
1 7 -2 171.28 5.18
1 7 -2 171.22 5.01
-1 7 2 178.79 5.81
-1 7 2 186.61 5.72
1 7 -1 1.12 0.45
-1 7 1 1.16 0.6
-1 7 1 1.28 0.57
1 7 -1 0.78 0.39
-1 7 1 1.05 0.49
1 7 -1 0.93 0.4
-1 7 1 1.25 0.51
-1 7 0 61.05 3.27
1 7 0 58.56 2.81
-1 7 0 58.03 3.1
1 7 0 63.36 2.92
1 7 0 63.34 2.62
-1 7 0 59.57 2.85
-1 7 0 63.22 3.21
-1 7 -1 36.71 2.49
1 7 1 33.32 2.1
-1 7 -1 40.64 2.61
1 7 1 39.31 2.36
-1 7 -1 34.77 2.36
1 7 2 183.82 5.5
-1 7 -2 174.97 5.98
-1 7 -2 204.58 6.53
-1 7 -2 193.15 6.07
-1 7 -2 193.42 5
-1 7 -3 418.23 10.24
-1 7 -3 386.92 10.27
1 7 3 385.38 9.77
-1 7 -3 416.74 10.03
-1 7 -3 404.19 8.82
-1 7 -4 50.81 2.95
-1 7 -4 51.42 2.47
-1 7 -4 43.13 2.92
1 7 4 45.67 2.83
-1 7 -4 48.78 2.82
-1 7 -5 148.71 5.28
-1 7 -5 145.41 4.73
1 7 5 139.96 4.79
-1 7 -5 141.64 5.64
1 7 5 141.82 5.36
-1 7 -5 135.12 5.02
-1 7 -6 250.94 7.23
-1 7 -6 253.83 6.9
-1 7 -6 251.03 7.25
-1 7 -7 12.27 1.38
-1 7 -7 12.83 1.37
-1 7 -7 11.71 1.32
-1 7 -8 3.31 0.8
1 7 8 3.67 0.85
-1 7 -8 2.52 0.68
1 7 9 0.97 0.45
1 7 10 9.2 0.81
-1 8 10 78.4 2.49
1 8 -10 82.46 2.49
-1 8 9 86.91 2.86
1 8 -9 89.06 2.68
1 8 -8 2.51 0.59
1 8 -8 2.9 0.63
1 8 -7 29.54 1.9
1 8 -7 29.65 1.97
-1 8 6 0.61 0.54
1 8 -6 0.55 0.41
1 8 -6 0.66 0.49
1 8 -5 68.89 3.14
1 8 -4 384.2 9.49
1 8 -4 386.14 9.16
-1 8 4 381.56 9.09
1 8 -4 383.93 10.03
1 8 -4 389.54 9.59
-1 8 4 375.87 10.03
-1 8 3 1172.12 22.26
1 8 -3 1113.49 21.71
-1 8 3 1139.86 21.6
1 8 -3 1185.16 21.44
1 8 -3 1119.94 21.6
-1 8 3 1106.74 22.38
1 8 -3 1125.96 22.28
1 8 -2 172.63 5.65
-1 8 2 165.41 5.94
-1 8 2 164.13 5.58
-1 8 2 164.45 5.65
1 8 -2 165.03 5.07
-1 8 2 169.65 5.83
1 8 -2 170.17 5.39
1 8 -2 184.95 6.15
-1 8 1 393.92 10.41
1 8 -1 430.19 10.01
-1 8 1 402.93 10.07
-1 8 1 423.56 10.36
1 8 -1 393.97 9.38
-1 8 1 382.02 9.75
1 8 -1 386.87 10.1
-1 8 0 44.83 2.92
1 8 0 41.11 2.53
-1 8 0 49.07 2.89
-1 8 0 44.03 2.86
1 8 0 42.93 2.52
-1 8 0 41.02 2.43
1 8 1 96.34 3.95
-1 8 -1 96.63 4.41
-1 8 -1 93.24 4.12
-1 8 -1 96.28 4.37
1 8 1 87.01 3.87
-1 8 -2 2.65 0.83
-1 8 -2 1.46 0.64
1 8 2 2.25 0.7
-1 8 -2 1.12 0.61
-1 8 -3 6.13 1.17
-1 8 -3 19.96 1.83
-1 8 -4 18.56 1.84
-1 8 -4 18.1 1.74
-1 8 -4 19.79 1.53
-1 8 -5 10.32 1.35
-1 8 -5 10.31 1.31
-1 8 -5 8.09 1.04
-1 8 -6 77.92 3.54
-1 8 -6 68.17 3.31
-1 8 -6 77.49 3.27
-1 8 -7 3.95 0.75
-1 8 -7 5.5 0.92
-1 8 -7 5.33 0.86
1 8 8 86.17 3.06
-1 8 -8 90.25 3.12
1 8 9 34.29 1.67
-1 8 -9 38.52 1.86
-1 9 8 8.15 0.84
1 9 -8 8.48 0.75
1 9 -8 9.05 0.83
-1 9 7 286.99 7.06
1 9 -7 303.57 6.73
1 9 -7 300.06 7.08
1 9 -6 271.38 6.45
1 9 -6 268.76 6.92
-1 9 5 11.87 1.3
1 9 -5 11.14 1.13
1 9 -4 62.62 3.13
1 9 -3 387.8 9.71
-1 9 3 402.83 9.64
-1 9 2 256.06 6.86
1 9 -2 264.47 7.43
-1 9 2 250.21 7.44
-1 9 1 362.26 9.16
-1 9 1 388.58 10.03
1 9 -1 395.46 9.69
-1 9 0 71.63 3.44
-1 9 0 76.97 3.88
1 9 0 78.76 3.58
-1 9 -1 14.5 1.52
-1 9 -1 12.05 1.54
1 9 1 12.29 1.34
-1 9 -2 3.51 0.84
-1 9 -2 11.42 1.47
-1 9 -3 16.09 1.58
-1 9 -4 1.08 0.51
-1 9 -4 1.59 0.65
-1 9 -5 215.27 6.19
-1 9 -5 213.6 6.34
-1 9 -6 24.88 1.73
-1 9 -6 22.61 1.66
1 9 7 3.65 0.67
-1 9 -7 3.73 0.66
-1 9 -7 3.38 0.58
1 9 8 13.07 0.96
-1 9 -8 14.34 1.03
-1 10 6 0.06 0.21
1 10 -6 0.39 0.3
-1 10 5 10.39 0.92
1 10 -5 9.9 1.03
-1 10 4 2.53 0.53
1 10 -4 2.29 0.61
-1 10 3 72.43 2.71
1 10 -3 83.81 3.38
-1 10 2 -0.04 0.14
1 10 -2 4.77 0.85
1 10 -1 604.86 12.56
-1 10 1 594.05 12.73
-1 10 0 57.74 2.5
-1 10 0 60.72 3.05
1 10 0 60.84 2.76
-1 10 -1 9.92 1.05
-1 10 -1 11.67 1.34
-1 10 -2 24.44 1.66
-1 10 -2 26.82 1.97
-1 10 -3 54.44 2.47
-1 10 -3 54.56 2.76
-1 10 -4 64.06 2.6
-1 10 -5 46 2.03
-1 10 -5 46.8 2.19
-1 10 -6 5.29 0.62
-1 10 -6 5.18 0.62
1 11 -3 33.04 1.55
1 11 -2 121.96 3.42
-1 11 0 277.14 6.21
-1 11 -1 34.33 1.74
-1 11 -2 0.22 0.27
-1 11 -3 33.9 1.61
2 -11 -3 83.12 2.37
2 -11 -2 29.39 1.35
2 -11 -1 16.31 1.01
2 -11 0 109.46 2.96
-2 -10 6 33.45 1.56
2 -10 -6 33.56 1.37
-2 -10 5 5.06 0.69
2 -10 -5 5.71 0.66
-2 -10 4 29.33 1.72
2 -10 -4 32.02 1.66
-2 -10 3 84.38 3.22
2 -10 -3 89.12 3.09
-2 -10 2 248.91 6.46
2 -10 -2 254.58 6.24
-2 -10 1 69.95 2.96
-2 -10 1 64.05 2.9
2 -10 -1 71.77 2.85
-2 -10 0 19.48 1.49
2 -10 0 16.98 1.35
-2 -10 0 15.49 1.38
-2 -10 -1 59.84 2.61
-2 -10 -1 55.09 2.44
-2 -10 -1 53.36 2.5
-2 -10 -2 27.29 1.63
-2 -10 -2 29.03 1.51
-2 -10 -2 25.44 1.68
2 -10 2 28.19 1.62
-2 -10 -2 27.19 1.61
-2 -10 -3 30.33 1.81
-2 -10 -3 30.31 1.57
-2 -10 -3 29.52 1.49
2 -10 3 30.87 1.49
-2 -10 -3 26.31 1.39
-2 -10 -4 24.62 1.57
-2 -10 -4 24.04 1.28
-2 -10 -5 4.33 0.63
-2 -9 8 47.08 1.9
2 -9 -8 52.19 1.85
2 -9 -7 1.3 0.38
-2 -9 7 1.25 0.47
2 -9 -7 1.38 0.38
2 -9 -6 94.71 3.12
2 -9 -6 93.94 3
2 -9 -5 59.93 2.54
-2 -9 5 61.69 2.88
2 -9 -5 57.19 2.29
-2 -9 4 2.46 0.7
-2 -9 4 3.9 0.83
2 -9 -4 3.12 0.53
-2 -9 3 487.79 11.07
-2 -9 3 463.82 11.06
2 -9 -3 473.19 10.33
2 -9 -2 289.85 7.38
-2 -9 2 293.47 7.93
-2 -9 1 68.81 2.84
2 -9 -1 74.26 3.23
-2 -9 1 69.35 3.4
-2 -9 0 7.83 0.96
-2 -9 0 6.69 1.02
2 -9 0 8.96 1.12
-2 -9 0 7.31 1.11
-2 -9 0 6.53 1.09
-2 -9 -1 63.59 2.83
-2 -9 -1 62.22 3.2
-2 -9 -1 59.45 3
2 -9 1 66.09 2.98
-2 -9 -1 64.43 3.22
-2 -9 -2 3.99 0.77
-2 -9 -2 4.05 0.92
-2 -9 -2 4.23 0.81
2 -9 2 4.07 0.78
-2 -9 -2 3.51 0.79
-2 -9 -3 215.99 6.01
-2 -9 -3 217.63 6.7
-2 -9 -3 211.63 5.8
2 -9 3 221.51 5.81
-2 -9 -3 211.95 6.12
-2 -9 -4 257.99 7.15
2 -9 4 229.11 5.59
-2 -9 -4 234.94 6.14
-2 -9 -4 248.02 6.37
-2 -9 -5 4.43 0.77
2 -9 5 3.98 0.63
-2 -9 -5 3.96 0.69
-2 -9 -5 4.58 0.91
-2 -9 -6 0.09 0.32
2 -9 6 0.1 0.24
-2 -9 -6 0.08 0.27
-2 -9 -7 23.63 1.33
-2 -9 -7 24.8 1.49
-2 -9 -7 27.24 1.48
2 -8 -10 236.2 5.42
2 -8 -10 267.45 5.5
2 -8 -9 32.97 1.68
-2 -8 9 32.09 1.63
2 -8 -8 85.59 2.73
2 -8 -8 90.29 3.19
-2 -8 8 83.59 3.19
2 -8 -7 0.08 0.3
2 -8 -7 -0.05 0.32
-2 -8 7 0.53 0.43
2 -8 -6 2.07 0.57
2 -8 -6 1.05 0.46
-2 -8 6 1.87 0.69
-2 -8 5 31.98 2.3
2 -8 -5 29.29 1.86
2 -8 -5 31.27 1.9
-2 -8 4 1.21 0.43
-2 -8 4 0.8 0.64
2 -8 -4 0.5 0.39
2 -8 -3 29.7 1.94
2 -8 -3 29.58 1.75
-2 -8 3 29.82 2.23
-2 -8 3 25.96 1.73
2 -8 -3 25.93 1.93
-2 -8 3 29.25 2.26
-2 -8 2 0.39 0.53
2 -8 -2 0.17 0.25
2 -8 -2 0.17 0.4
-2 -8 2 -0.06 0.32
2 -8 -2 0.86 0.48
2 -8 -2 0.18 0.43
-2 -8 1 332.17 8.72
2 -8 -1 314.31 8.69
-2 -8 1 323.16 7.83
-2 -8 1 288.58 7.9
2 -8 -1 319.91 8.07
2 -8 -1 304.97 7.78
-2 -8 1 298.4 8.41
-2 -8 0 234.72 7.06
2 -8 0 224.39 6.3
-2 -8 0 212.71 6.19
2 -8 0 218.29 6.2
-2 -8 0 215.1 6.7
2 -8 0 212.07 6.85
-2 -8 0 231.75 6.36
-2 -8 -1 26.6 2.15
2 -8 1 22.46 1.69
-2 -8 -1 22.16 1.83
-2 -8 -1 23.5 1.93
2 -8 1 26.71 1.89
2 -8 1 22.43 1.98
-2 -8 -1 27 1.93
-2 -8 -2 -0.08 0.46
2 -8 2 0.08 0.31
-2 -8 -2 0.47 0.42
-2 -8 -2 0.15 0.32
2 -8 2 0.17 0.32
2 -8 2 0.18 0.32
-2 -8 -2 -0.13 0.39
-2 -8 -3 145.05 5.11
-2 -8 -3 150.37 5.33
2 -8 3 148.99 4.64
2 -8 3 144.32 4.68
-2 -8 -3 148.72 4.89
-2 -8 -3 154.39 5.19
-2 -8 -4 65.61 3.31
-2 -8 -4 70.25 3.34
-2 -8 -4 65.76 3.24
2 -8 4 61.65 2.8
-2 -8 -4 57.15 2.64
-2 -8 -5 26.54 2.01
-2 -8 -5 22.63 1.94
2 -8 5 25.94 1.73
-2 -8 -5 27.65 1.95
-2 -8 -5 22.06 1.62
-2 -8 -6 76.69 3.46
-2 -8 -6 84.25 3.72
-2 -8 -6 74.03 3.65
2 -8 6 75.13 3
-2 -8 -6 74.57 3.02
-2 -8 -7 338.31 8.12
-2 -8 -7 318.75 8.22
-2 -8 -7 329.67 8.26
2 -8 7 332.89 7.45
-2 -8 -7 313.89 7.43
-2 -8 -8 239.6 5.99
-2 -8 -8 218.58 5.94
-2 -8 -8 221.97 5.7
2 -8 8 241.48 5.48
-2 -8 -8 210.05 5.37
-2 -8 -9 34.18 1.67
-2 -8 -9 34.73 1.7
2 -7 -11 32.27 1.54
-2 -7 10 6.47 0.74
2 -7 -10 7.66 0.87
2 -7 -9 109.56 3.11
-2 -7 9 110.39 3.74
-2 -7 8 -0.12 0.38
2 -7 -8 0.24 0.3
2 -7 -8 0.06 0.41
-2 -7 7 11.39 1.32
2 -7 -7 11.31 1.1
2 -7 -7 11.8 1.27
-2 -7 6 89.7 3.89
2 -7 -6 92.83 3.38
2 -7 -6 82.99 3.47
2 -7 -5 983.25 18.31
2 -7 -5 1040.5 18.76
-2 -7 5 985.51 19.42
-2 -7 5 1014.92 18.42
2 -7 -5 967.89 18.93
2 -7 -5 936.67 18.72
-2 -7 5 921.68 19.53
2 -7 -4 1040.74 18.78
-2 -7 4 1014.11 20.06
-2 -7 4 981.69 18.64
2 -7 -4 969.84 19.13
2 -7 -4 977.1 18.98
2 -7 -4 1000.14 18.58
-2 -7 3 311.13 7.44
2 -7 -3 275.74 8.1
2 -7 -3 293.22 7.09
2 -7 -3 303.89 7.73
2 -7 -3 299.39 7.59
-2 -7 3 264.6 7.9
2 -7 -3 290.93 7.19
-2 -7 2 38.59 2.51
2 -7 -2 31.71 2.31
-2 -7 2 37.69 2.16
2 -7 -2 32.1 1.84
2 -7 -2 36.94 2.2
2 -7 -2 35.35 2.17
2 -7 -2 34.33 2.02
-2 -7 1 9.61 1.28
2 -7 -1 11.18 1.37
-2 -7 1 13.63 1.3
2 -7 -1 9.58 0.95
-2 -7 1 10.85 1.13
2 -7 -1 9.63 1.15
2 -7 -1 11.77 1.17
-2 -7 1 11.53 1.34
-2 -7 0 386.38 9.56
-2 -7 0 370.48 8.79
2 -7 0 366.46 8.84
2 -7 0 355.69 8.4
-2 -7 0 369.6 9.17
2 -7 0 381.6 9.54
-2 -7 0 360.12 8.77
-2 -7 -1 613.24 13.74
2 -7 1 657.29 13.93
-2 -7 -1 682.81 13.45
-2 -7 -1 604.31 13.16
2 -7 1 602.02 12.99
-2 -7 -1 586.45 13.09
2 -7 1 621.65 12.65
2 -7 2 34.23 1.99
-2 -7 -2 36.45 2.47
-2 -7 -2 39.48 2.4
-2 -7 -2 36.06 2.39
-2 -7 -2 36.16 2.38
2 -7 2 36.05 2.24
-2 -7 -2 36.66 2.27
2 -7 2 36.64 2.08
-2 -7 -3 262.43 7.43
2 -7 3 234.38 6.32
-2 -7 -3 223.66 7.1
-2 -7 -3 253 7.11
2 -7 3 245.87 7.21
2 -7 3 237.94 6.69
-2 -7 -3 223.63 6.99
2 -7 3 245.16 6.35
-2 -7 -3 236.77 6.49
2 -7 4 0.34 0.38
-2 -7 -4 2.84 0.77
-2 -7 -4 1.03 0.51
-2 -7 -4 1.2 0.64
2 -7 4 2.26 0.68
-2 -7 -4 1.43 0.6
2 -7 4 1.03 0.48
-2 -7 -4 0.93 0.44
-2 -7 -5 108.94 4.44
-2 -7 -5 105.9 4.69
-2 -7 -5 103.65 4.22
2 -7 5 101.29 3.82
-2 -7 -5 99.67 4.01
-2 -7 -6 289.85 8.19
-2 -7 -6 281.24 8.46
-2 -7 -6 286.51 7.71
2 -7 6 296.07 7.49
-2 -7 -6 299.88 7.92
-2 -7 -7 5.3 0.99
-2 -7 -7 3.35 0.87
-2 -7 -7 4.12 0.99
2 -7 7 3.74 0.76
-2 -7 -7 3.4 0.8
-2 -7 -8 -0.13 0.44
-2 -7 -8 0.08 0.46
-2 -7 -8 -0.31 0.45
2 -7 8 0.2 0.34
-2 -7 -8 0.31 0.44
-2 -7 -9 6.65 0.93
2 -7 9 8.02 0.9
-2 -7 -9 7.51 0.82
-2 -7 -9 7.86 1.09
-2 -7 -9 7.19 0.94
-2 -7 -10 0.37 0.31
2 -7 10 0.38 0.25
2 -6 -11 1.5 0.48
-2 -6 11 0.03 0.11
2 -6 -10 17.7 1.47
-2 -6 10 17.08 1.3
2 -6 -9 5.13 0.87
2 -6 -9 3.76 0.59
-2 -6 9 5.2 0.86
2 -6 -8 25.06 1.91
2 -6 -8 26.04 1.59
-2 -6 8 27.06 1.92
-2 -6 7 202.05 6.05
2 -6 -7 187.36 5.81
2 -6 -7 198.58 5.33
2 -6 -6 1898.83 33.88
-2 -6 6 2064.29 34.54
2 -6 -6 1915.44 33.88
2 -6 -6 2047.34 34.33
2 -6 -6 2067.84 33.38
2 -6 -5 84.11 3.1
-2 -6 5 73.34 3.41
2 -6 -5 74.25 3.21
2 -6 -5 77.88 3.37
-2 -6 5 86.03 3.87
2 -6 -5 78.66 3.25
2 -6 -4 307.44 7.28
2 -6 -4 304.22 7.55
-2 -6 4 340.53 8.46
2 -6 -4 328.52 7.85
2 -6 -4 308.22 7.92
-2 -6 4 330.38 8.59
-2 -6 3 8.09 0.86
2 -6 -3 5.72 0.95
2 -6 -3 6.67 0.87
2 -6 -3 8.01 1.01
-2 -6 3 6.48 1
2 -6 -3 6.7 0.82
2 -6 -2 50.84 2.58
-2 -6 2 49.48 2.14
2 -6 -2 56.08 2.37
-2 -6 2 50.94 2.25
2 -6 -2 51.54 2.76
-2 -6 2 51.08 2.46
-2 -6 1 11.57 1.28
-2 -6 1 11.89 1.09
2 -6 -1 13.12 1.28
-2 -6 1 14.44 1.39
2 -6 -1 12.17 1.07
2 -6 -1 13.53 1.35
-2 -6 1 11.67 1.04
-2 -6 1 13.84 1.25
2 -6 0 6.12 0.94
-2 -6 0 5.55 0.78
-2 -6 0 4.79 0.79
2 -6 0 6.26 0.92
-2 -6 0 6.02 0.83
2 -6 0 5.43 0.74
-2 -6 0 6.49 0.92
-2 -6 -1 605.45 12.52
2 -6 1 564.92 12.2
-2 -6 -1 532.38 11.75
-2 -6 -1 526.21 11.9
-2 -6 -1 587.98 11.99
2 -6 1 605.3 12.27
2 -6 1 565.08 11.24
-2 -6 -1 536.96 11.66
2 -6 2 0.99 0.39
-2 -6 -2 0.89 0.53
-2 -6 -2 0.69 0.46
2 -6 2 0.72 0.44
-2 -6 -2 0.66 0.42
2 -6 2 1.66 0.55
-2 -6 -2 1.25 0.49
-2 -6 -2 0.62 0.41
2 -6 2 0.96 0.39
-2 -6 -3 5.61 0.98
-2 -6 -3 5.86 0.84
-2 -6 -3 5.58 1.02
-2 -6 -3 5.59 0.93
2 -6 3 6.51 1.02
2 -6 3 6.31 0.95
-2 -6 -3 6.43 1.01
-2 -6 -3 6.38 0.88
2 -6 3 6.91 0.85
-2 -6 -4 2.15 0.61
-2 -6 -4 2.03 0.74
-2 -6 -4 1.59 0.59
2 -6 4 2.43 0.66
-2 -6 -4 2.77 0.76
-2 -6 -5 63.82 3.16
-2 -6 -5 60.02 3.51
-2 -6 -5 57.71 3.13
2 -6 5 61.12 3.12
-2 -6 -5 65.58 3.29
-2 -6 -6 45.21 2.75
-2 -6 -6 43.91 3.04
-2 -6 -6 47.42 2.88
2 -6 6 41.38 2.6
-2 -6 -6 46.48 2.72
-2 -6 -7 75.59 3.76
-2 -6 -7 67.79 3.62
-2 -6 -7 76.51 4.05
-2 -6 -7 70.86 3.56
-2 -6 -8 16.66 1.63
-2 -6 -8 16.23 1.82
-2 -6 -8 13.55 1.54
-2 -6 -9 0.81 0.41
-2 -6 -9 0.21 0.5
-2 -6 -10 0.88 0.46
2 -6 10 0.6 0.39
-2 -6 -10 0.06 0.38
2 -6 11 60.19 2.13
-2 -6 -11 68.23 2.45
2 -5 -12 14.53 1.1
2 -5 -11 11.5 1.15
-2 -5 11 7.39 0.78
2 -5 -10 22.32 1.72
-2 -5 10 21.48 1.53
2 -5 -9 310.31 6.92
-2 -5 9 300.95 7.67
2 -5 -8 24.4 1.85
-2 -5 8 25.1 1.82
2 -5 -8 27.53 2.01
-2 -5 8 23.84 1.88
2 -5 -8 24.55 1.54
2 -5 -7 1194.01 22.38
-2 -5 7 1260.24 22.67
2 -5 -7 1149.35 21.89
-2 -5 7 1280.77 22.85
2 -5 -7 1203.73 22.63
2 -5 -7 1283.54 21.74
2 -5 -7 1147.89 22.5
-2 -5 6 116.86 4.2
2 -5 -6 113.23 4.08
-2 -5 6 126.46 4.33
2 -5 -6 124.35 4.04
2 -5 -6 126.27 4.37
2 -5 -6 124.28 3.83
2 -5 -5 9.86 0.95
2 -5 -5 10.53 1.12
-2 -5 5 9.92 1.13
2 -5 -5 11.23 1.09
-2 -5 5 10.68 1.29
-2 -5 4 3.14 0.68
-2 -5 4 2.58 0.48
2 -5 -4 4.33 0.69
2 -5 -4 2.53 0.59
2 -5 -4 2.64 0.54
2 -5 -4 2.34 0.51
-2 -5 4 3.51 0.78
-2 -5 3 1.46 0.48
2 -5 -3 2.99 0.64
-2 -5 3 1.9 0.34
-2 -5 3 2.53 0.62
-2 -5 3 2.04 0.41
2 -5 -3 2.01 0.57
-2 -5 2 9.95 0.84
2 -5 -2 11.93 1.15
-2 -5 2 10.3 1.09
-2 -5 2 9.44 0.81
2 -5 -1 281.37 6.88
-2 -5 1 273 6.11
-2 -5 1 269.44 6.21
2 -5 0 106.91 3.7
-2 -5 0 109.62 3.61
-2 -5 0 115.21 3.34
-2 -5 0 105.43 3.78
-2 -5 0 103.32 3.38
2 -5 0 118 3.9
-2 -5 -1 858.86 15.49
2 -5 1 768.14 15.43
-2 -5 -1 841.63 15.82
-2 -5 -1 758.72 15.16
2 -5 1 848.94 15.73
-2 -5 -2 1994.78 32.52
2 -5 2 1961.14 32.79
-2 -5 -3 267.85 6.72
-2 -5 -3 264.99 7.49
-2 -5 -3 286.54 7.13
2 -5 3 290.23 7.38
-2 -5 -3 285.17 7.25
-2 -5 -3 283.42 7.39
-2 -5 -4 226.86 6.27
-2 -5 -4 249.5 7.26
-2 -5 -4 227.81 6.42
2 -5 4 240.66 6.72
-2 -5 -4 238.4 6.74
-2 -5 -5 39.16 2.4
2 -5 5 41.18 2.53
-2 -5 -5 37.81 2.4
-2 -5 -5 39.16 2.72
-2 -5 -6 38.7 2.54
2 -5 6 45.19 2.75
-2 -5 -6 42.92 2.6
-2 -5 -6 43.15 2.96
-2 -5 -7 22.88 2.01
2 -5 7 20.45 1.91
-2 -5 -7 19.79 1.89
-2 -5 -8 5.16 1.04
-2 -5 -8 6.36 1.22
-2 -5 -8 4.68 0.94
-2 -5 -9 7.79 1.21
-2 -5 -9 11.46 1.52
-2 -5 -9 8.2 1.01
-2 -5 -10 5.57 0.95
-2 -5 -10 5.25 0.98
-2 -5 -10 4.85 0.94
-2 -5 -11 68.34 2.8
-2 -5 -11 62.29 2.78
2 -4 -12 51.05 2.08
-2 -4 12 48.78 1.91
2 -4 -12 -0.03 0.12
2 -4 -12 51.11 2.07
2 -4 -12 -0.07 0.14
-2 -4 11 7.63 1.01
-2 -4 11 5.78 0.72
-2 -4 11 6.89 0.98
2 -4 -11 7.29 0.97
-2 -4 11 7.48 1
2 -4 -11 7.16 0.88
2 -4 -11 8.11 1.02
2 -4 -11 8.35 0.98
-2 -4 10 269.26 6.66
-2 -4 10 250.52 7.05
2 -4 -10 269.71 7.09
-2 -4 10 249.98 7.04
2 -4 -10 272.06 6.79
2 -4 -10 256.71 6.85
2 -4 -10 284.64 7.21
-2 -4 9 93.96 3.54
-2 -4 9 85.53 3.76
2 -4 -9 98.63 3.8
2 -4 -9 91.28 3.07
-2 -4 9 91.76 3.83
2 -4 -9 89.19 3.6
2 -4 -9 93.78 3.5
-2 -4 9 91.4 3.78
2 -4 -9 91.76 3.64
-2 -4 8 308.03 7.38
-2 -4 8 292.71 6.91
-2 -4 8 252.67 7.32
2 -4 -8 289.04 7.35
2 -4 -8 286.56 7.16
-2 -4 8 266.53 7.39
2 -4 -8 284.09 7.06
2 -4 -8 295.4 7.03
-2 -4 8 290.5 7.52
2 -4 -8 275.66 7.13
2 -4 -8 276.81 7.08
2 -4 -7 599.86 11.99
-2 -4 7 604.91 11.9
-2 -4 7 663.13 12.51
2 -4 -7 565.97 12.14
2 -4 -7 577.04 11.76
-2 -4 7 580.97 12.4
2 -4 -7 606.61 12.04
2 -4 -7 621.69 11.88
2 -4 -7 545.68 12.48
-2 -4 7 615.31 12.5
-2 -4 7 566.32 12.44
-2 -4 6 1136.86 20.51
-2 -4 6 1149.37 20.15
2 -4 -6 1094.38 20.44
2 -4 -6 1217.5 20.01
2 -4 -6 1063.29 20.55
2 -4 -6 1087.16 19.86
-2 -4 6 1222.12 20.89
-2 -4 6 1068.46 20.44
-2 -4 5 1296.59 23.97
-2 -4 5 1305.77 23.27
-2 -4 5 1335.68 22.93
2 -4 -5 1306.27 23.2
2 -4 -5 1271.55 23.01
2 -4 -5 1339.06 22.85
-2 -4 5 1344.05 23.45
2 -4 -5 1408.88 22.59
-2 -4 5 1250.44 22.93
-2 -4 4 1344.47 23.03
-2 -4 4 1264.93 23.26
-2 -4 4 1204.39 22.6
-2 -4 4 1544.71 23.89
2 -4 -4 1432.37 23.05
2 -4 -3 922.46 16.14
-2 -4 3 887.21 15.14
-2 -4 3 860.08 15.14
-2 -4 3 817.02 15.12
-2 -4 3 872.82 14.7
2 -4 -3 914.47 16.27
-2 -4 2 372.81 7.12
2 -4 -2 364.22 7.87
-2 -4 2 376.15 7
-2 -4 2 352.93 7
-2 -4 2 357.85 7.08
2 -4 -1 36.08 1.76
-2 -4 1 32.69 1.36
-2 -4 1 32.6 1.2
-2 -4 1 32.57 1.18
-2 -4 1 31.01 1.43
2 -4 -1 36.62 1.87
-2 -4 0 85.62 2.51
2 -4 0 91.5 3.02
-2 -4 0 87.68 2.78
2 -4 0 91.02 3.13
-2 -4 0 90.5 2.23
2 -4 1 141.22 4.16
-2 -4 -1 138.2 3.09
-2 -4 -2 235.35 5.79
-2 -4 -2 219.67 5.24
-2 -4 -2 230.98 5.1
-2 -4 -3 37.22 2.06
-2 -4 -3 34.83 1.65
-2 -4 -3 39.37 1.82
-2 -4 -4 2.57 0.59
-2 -4 -4 3.9 0.75
-2 -4 -4 2.53 0.54
-2 -4 -4 3.17 0.56
-2 -4 -5 175.37 5.27
-2 -4 -5 177.54 5.28
-2 -4 -5 164.43 4.87
-2 -4 -5 163.85 4.76
-2 -4 -6 19.93 1.59
-2 -4 -6 19.51 1.66
-2 -4 -6 18.45 1.68
-2 -4 -6 17.13 1.42
-2 -4 -6 19.7 1.68
-2 -4 -6 15.84 1.46
-2 -4 -6 19.98 1.54
-2 -4 -7 689.06 14.28
-2 -4 -7 696.92 15.72
-2 -4 -7 704.91 14.87
-2 -4 -7 687.54 14.13
-2 -4 -7 765.45 15.31
-2 -4 -7 631.23 14.26
-2 -4 -7 701.64 14.78
-2 -4 -7 708.21 14.51
-2 -4 -8 0.74 0.44
-2 -4 -8 0.85 0.63
-2 -4 -8 0.88 0.45
-2 -4 -8 2.3 0.8
-2 -4 -8 0.79 0.45
-2 -4 -8 0.96 0.54
-2 -4 -8 1.09 0.51
-2 -4 -8 0.72 0.49
-2 -4 -9 51.51 3.14
-2 -4 -9 54.01 3.27
-2 -4 -9 45.59 2.58
-2 -4 -9 53.7 3.08
-2 -4 -9 45.72 2.81
-2 -4 -9 50.25 2.72
-2 -4 -10 24.68 2.07
-2 -4 -10 21.03 1.88
-2 -4 -10 23.08 1.91
-2 -4 -10 19.4 1.56
-2 -4 -10 20.22 1.72
-2 -4 -10 18.25 1.54
-2 -4 -11 123.71 3.99
-2 -4 -11 127.34 3.79
-2 -4 -11 118.48 3.49
-2 -4 -12 2.35 0.52
-2 -3 13 1.23 0.42
-2 -3 13 0.94 0.38
2 -3 -13 0.38 0.27
2 -3 -13 0.2 0.29
2 -3 -13 0.76 0.34
-2 -3 12 182.9 5.63
2 -3 -12 201.38 5.19
-2 -3 12 188.84 5.66
-2 -3 12 198.48 5.73
2 -3 -12 208.68 5.55
2 -3 -12 209.11 5.68
2 -3 -12 222.35 6
-2 -3 11 74.2 3.53
2 -3 -11 76.59 3.13
-2 -3 11 74.39 3.51
2 -3 -11 79.76 3.35
2 -3 -11 80.04 3.44
2 -3 -11 78.96 3.53
2 -3 -10 136.96 4.99
2 -3 -10 148.14 5.07
-2 -3 10 144.43 4.37
2 -3 -10 152.92 4.83
-2 -3 10 146.87 5.34
2 -3 -10 156.71 5.2
2 -3 -10 143.89 4.99
2 -3 -10 146.53 4.9
-2 -3 10 144.74 4.99
-2 -3 10 135.63 5.18
-2 -3 9 164.07 4.79
-2 -3 9 160.21 4.7
-2 -3 9 168.97 5.71
2 -3 -9 149.83 4.86
2 -3 -9 161.54 5.27
2 -3 -9 164.98 5.22
2 -3 -9 164.91 5.13
-2 -3 9 152.82 5.14
-2 -3 9 150.74 5.44
2 -3 -9 150.46 5.15
2 -3 -9 162.05 5.25
-2 -3 8 15.45 1.28
-2 -3 8 17.72 1.67
2 -3 -8 18.78 1.46
2 -3 -8 18.46 1.48
2 -3 -8 15.82 1.43
-2 -3 8 18.53 1.56
2 -3 -8 18.35 1.48
2 -3 -8 16.84 1.49
-2 -3 8 16.07 1.57
-2 -3 7 453.03 9.49
-2 -3 7 446.15 10.32
2 -3 -7 437.66 9.59
2 -3 -7 487.13 9.84
-2 -3 7 448.67 9.93
2 -3 -7 479.78 9.82
2 -3 -7 446.15 9.89
-2 -3 7 435.89 10.19
-2 -3 6 2.29 0.51
-2 -3 6 2.7 0.62
2 -3 -6 2.38 0.5
2 -3 -6 2.64 0.58
2 -3 -6 2.6 0.52
-2 -3 6 2.31 0.58
-2 -3 6 2.58 0.56
2 -3 -6 2.07 0.4
2 -3 -6 3.33 0.63
-2 -3 5 231.2 5.55
2 -3 -5 213.49 4.86
2 -3 -5 228.33 5.57
2 -3 -4 401.18 8.24
-2 -3 4 402.27 8.09
2 -3 -3 646.43 11.2
-2 -3 3 538.45 10.74
-2 -3 3 624.32 11.19
2 -3 -3 558.68 11.14
2 -3 -2 14.35 0.96
-2 -3 2 14.38 0.7
-2 -3 2 13 0.85
-2 -3 2 13.4 0.72
-2 -3 1 1956.56 31.5
-2 -3 1 1980.93 31.94
-2 -3 1 1901.37 31.89
-2 -3 1 1966.05 31.97
-2 -3 0 1570.92 25.52
-2 -3 0 1512.43 25.11
-2 -3 0 1538.89 25.12
-2 -3 -1 0.86 0.28
-2 -3 -1 0.6 0.28
-2 -3 -2 231.69 4.83
-2 -3 -2 221.97 5.06
-2 -3 -2 225.4 5.27
-2 -3 -3 0.33 0.27
-2 -3 -3 0.48 0.28
-2 -3 -4 1202.89 21.01
-2 -3 -4 1213.2 21.17
-2 -3 -4 1180.81 20.72
2 -3 4 1135.82 19.39
-2 -3 -4 1070.37 20.64
-2 -3 -4 1176.07 20.74
-2 -3 -4 1293.14 20.96
-2 -3 -5 249.68 6.44
-2 -3 -5 281.81 6.62
-2 -3 -5 270.64 6.8
2 -3 5 256.2 5.45
-2 -3 -5 230.28 6.13
-2 -3 -5 256.89 6.43
-2 -3 -5 243.02 6.04
-2 -3 -5 264.9 6.76
-2 -3 -5 249.09 6.54
-2 -3 -5 271.56 6.48
-2 -3 -6 457.04 10.15
2 -3 6 452.1 9.05
-2 -3 -6 454.84 10.09
-2 -3 -6 483.09 10.38
-2 -3 -6 449.98 10.46
-2 -3 -6 446.84 10.43
-2 -3 -6 466.58 10.26
-2 -3 -6 456.69 10.24
-2 -3 -7 44.95 2.56
-2 -3 -7 40.31 2.54
-2 -3 -7 36.43 2.62
-2 -3 -7 35.28 2.22
-2 -3 -7 37.81 2.33
-2 -3 -7 44 2.57
-2 -3 -7 44.38 2.69
-2 -3 -7 47.47 2.76
-2 -3 -7 38.17 2.41
-2 -3 -7 42.19 2.51
-2 -3 -8 10.84 1.36
-2 -3 -8 12.24 1.53
-2 -3 -8 12.15 1.58
-2 -3 -8 13.55 1.5
-2 -3 -8 13.31 1.45
-2 -3 -8 13.33 1.6
-2 -3 -8 13.38 1.57
-2 -3 -8 11.52 1.43
-2 -3 -8 12.65 1.5
-2 -3 -9 2.96 0.74
-2 -3 -9 3.27 0.89
-2 -3 -9 2.54 0.81
-2 -3 -9 3 0.8
-2 -3 -9 2.52 0.71
-2 -3 -9 1.97 0.74
-2 -3 -9 2.8 0.77
-2 -3 -9 2.55 0.77
-2 -3 -9 1.71 0.67
-2 -3 -10 0.25 0.5
-2 -3 -10 0.23 0.43
-2 -3 -10 0.22 0.51
-2 -3 -10 -0.07 0.43
-2 -3 -10 -0.17 0.55
-2 -3 -10 0.07 0.42
-2 -3 -11 1.16 0.58
-2 -3 -11 0.78 0.43
-2 -3 -11 0.57 0.48
-2 -3 -11 0.69 0.44
-2 -3 -11 0.67 0.45
-2 -3 -12 1.45 0.51
-2 -3 -12 1.52 0.53
-2 -3 -12 1.12 0.4
-2 -3 -12 1.25 0.43
2 -2 -14 96.19 2.86
-2 -2 14 97.29 2.73
-2 -2 13 0.15 0.43
-2 -2 13 0.45 0.36
-2 -2 13 0.05 0.4
2 -2 -13 0.81 0.38
2 -2 -13 0.88 0.41
2 -2 -13 0.1 0.25
-2 -2 12 419.29 10.45
-2 -2 12 446.35 10.55
2 -2 -12 479.72 10.65
2 -2 -12 459.45 10.38
2 -2 -12 441.03 10.08
2 -2 -11 108.97 4.22
2 -2 -11 107.51 4.32
-2 -2 11 104.34 4.53
2 -2 -11 104.81 3.66
-2 -2 10 33.8 1.93
-2 -2 10 30.24 2.39
2 -2 -10 28.92 1.85
2 -2 -10 33.23 2.28
2 -2 -10 32.83 2.29
-2 -2 10 30.27 2.14
2 -2 -10 32.28 2.18
2 -2 -10 35.35 2.36
2 -2 -10 29.55 2.2
-2 -2 10 27.31 2.28
2 -2 -9 551.47 11.7
2 -2 -9 559.8 12.34
2 -2 -9 590.23 12.7
2 -2 -9 613.44 12.64
-2 -2 9 549.6 12.33
-2 -2 9 608.79 11.92
2 -2 -9 560.6 12.55
2 -2 -9 571.93 12.58
-2 -2 8 13.76 1.32
2 -2 -8 13.15 1.29
2 -2 -8 13.31 1.28
2 -2 -8 13.28 1.16
-2 -2 8 12.38 1.14
2 -2 -7 100.09 3.29
2 -2 -7 106.44 3.57
2 -2 -7 105.2 3.62
-2 -2 7 94.5 3.5
2 -2 -7 104.81 3.58
-2 -2 7 102.34 3.37
2 -2 -6 728.53 12.69
-2 -2 6 752.35 13.62
2 -2 -6 732.3 13.57
2 -2 -5 140.56 3.2
2 -2 -5 139.71 3.07
-2 -2 4 3212.64 53.06
2 -2 -4 3330.14 52.87
-2 -2 3 1306.77 21.55
2 -2 -3 1311.65 21.47
2 -2 -2 111.02 2.81
-2 -2 2 106.93 2.23
2 -2 -1 470.08 7.93
-2 -2 1 425.56 7.1
2 -2 -1 423.53 8.28
-2 -2 1 404.04 7.96
-2 -2 1 462.71 8.12
-2 -2 0 64.27 1.95
-2 -2 0 60.34 1.89
-2 -2 -1 94 2.49
-2 -2 -1 96.81 2.64
-2 -2 -2 57.64 1.92
-2 -2 -2 58.07 2.06
-2 -2 -2 53.27 1.92
2 -2 2 50.44 1.26
-2 -2 -3 732.97 12.8
2 -2 3 705.83 11.9
-2 -2 -3 699.95 13.08
2 -2 4 273.23 5.61
-2 -2 -4 286.78 6.69
-2 -2 -4 282.99 6.54
-2 -2 -5 236.65 6.16
-2 -2 -5 227.5 6
2 -2 5 241.1 5.22
-2 -2 -5 240.08 6.19
-2 -2 -5 243.07 6.12
-2 -2 -5 231.33 6.02
-2 -2 -6 25.43 1.79
-2 -2 -6 26.21 1.83
-2 -2 -6 21.38 1.55
-2 -2 -6 23.59 1.78
2 -2 6 24.89 1.4
-2 -2 -6 26.71 1.74
-2 -2 -6 23.08 1.68
-2 -2 -6 25.92 1.92
-2 -2 -6 27.14 1.78
-2 -2 -6 21.62 1.72
-2 -2 -6 26.17 1.82
-2 -2 -7 309.84 8.16
-2 -2 -7 317.52 8.28
-2 -2 -7 319.03 8.46
-2 -2 -7 317.1 7.36
-2 -2 -7 316.29 7.95
-2 -2 -7 303.87 8.01
2 -2 7 331.4 7.31
-2 -2 -7 314.84 8.49
-2 -2 -7 311.09 8.38
-2 -2 -7 313.19 8.22
-2 -2 -7 288.88 8.01
-2 -2 -8 649.65 14.26
-2 -2 -8 607.65 14.04
-2 -2 -8 610.61 13.01
-2 -2 -8 661.1 14.4
-2 -2 -8 695.09 14.01
-2 -2 -8 671.94 14.24
2 -2 8 665.9 13.08
-2 -2 -8 659.26 14.71
-2 -2 -8 659.76 14.66
-2 -2 -8 633.81 14.25
-2 -2 -8 609.99 14.16
-2 -2 -9 1144.16 22.58
-2 -2 -9 1188.34 22.78
-2 -2 -9 1086.31 21.24
-2 -2 -9 1183.62 22.5
-2 -2 -9 1280.23 22.61
-2 -2 -9 1179.77 22.68
-2 -2 -9 1213.27 23.44
-2 -2 -9 1114.14 23.13
-2 -2 -9 1141.69 22.79
-2 -2 -9 1026.37 22.42
-2 -2 -10 188.63 6.32
-2 -2 -10 187.35 5.92
-2 -2 -10 204.22 6.88
-2 -2 -10 183.64 6.31
-2 -2 -10 197.69 6.43
-2 -2 -11 160.79 5.4
-2 -2 -11 164.55 5.88
-2 -2 -11 167.32 5.6
-2 -2 -11 173.34 5.64
-2 -2 -12 9.07 1
-2 -2 -12 7.87 1
-2 -2 -12 9.28 1.18
-2 -2 -12 8.49 1.04
-2 -2 -13 0.39 0.3
-2 -2 -13 0.45 0.26
-2 -1 14 244.29 5.92
-2 -1 14 240.94 5.88
-2 -1 14 266.17 6.01
2 -1 -14 273.88 5.88
2 -1 -14 266.27 6.09
2 -1 -14 288.75 6.03
-2 -1 13 103.46 4
-2 -1 13 105.43 3.99
2 -1 -13 112.24 3.82
2 -1 -13 116.03 4.08
2 -1 -13 120.07 4
2 -1 -12 46.22 2.6
-2 -1 12 46.92 2.89
2 -1 -12 48.25 2.79
2 -1 -12 47.11 2.68
-2 -1 11 7.66 1.35
-2 -1 11 6.23 0.85
2 -1 -11 7.71 1.22
2 -1 -11 7.18 1.13
2 -1 -10 56.9 3.1
2 -1 -10 61.64 3.17
-2 -1 10 60.06 2.72
2 -1 -10 63.8 3.27
2 -1 -10 62.46 3.28
2 -1 -10 58.95 3.07
-2 -1 10 51.5 2.87
-2 -1 9 407.6 9.69
2 -1 -9 432.15 9.85
2 -1 -9 409.89 9.68
-2 -1 9 425.61 9.24
2 -1 -8 177.49 5.3
-2 -1 8 187 5.36
2 -1 -8 191.7 5.39
2 -1 -8 165.67 4.54
-2 -1 8 168.37 4.88
2 -1 -7 242 6.15
-2 -1 7 254.43 6.18
2 -1 -7 231.5 5.44
2 -1 -7 220.4 5.73
-2 -1 7 245.72 5.88
-2 -1 6 19.37 1.3
2 -1 -6 19.05 0.88
-2 -1 5 305.89 6.59
2 -1 -5 305.78 5.46
2 -1 -5 323.45 5.95
-2 -1 4 55.61 2.02
2 -1 -4 53.81 1.72
2 -1 -4 53.16 1.87
-2 -1 3 72.2 2.1
2 -1 -3 68.77 2.07
2 -1 -2 273.75 5.02
-2 -1 2 288.12 5.7
2 -1 -2 286.19 5.55
2 -1 -1 3152.96 49.58
2 -1 -1 3267.07 50.23
-2 -1 1 3155.63 50.36
-2 -1 0 33.42 1.31
-2 -1 0 33.16 1.32
2 -1 0 35.47 1.39
-2 -1 0 36.52 1.5
-2 -1 -1 1163.09 20.17
-2 -1 -1 1108.93 20.4
-2 -1 -2 2470.18 40.93
-2 -1 -2 2562.61 41.14
2 -1 2 2500.77 40.16
-2 -1 -3 641.29 11.09
-2 -1 -3 572.55 11.19
-2 -1 -3 560.62 11.04
-2 -1 -3 570.47 11.08
2 -1 3 616.81 10.45
-2 -1 -4 48.3 2.01
2 -1 4 48.45 1.74
-2 -1 -4 45.12 2.05
-2 -1 -4 42.09 2.05
2 -1 5 38.24 1.67
-2 -1 -5 33.99 1.99
-2 -1 -5 39.93 2.09
-2 -1 -5 37.88 2.01
-2 -1 -6 102.37 3.83
-2 -1 -6 112.79 4
-2 -1 -6 94.03 3.47
-2 -1 -6 113.2 3.98
-2 -1 -6 94.99 3.65
2 -1 6 104.8 3.27
-2 -1 -6 107.98 3.63
-2 -1 -6 105.41 4.03
-2 -1 -6 106.52 3.96
-2 -1 -6 97.66 3.74
-2 -1 -7 35.89 2.27
-2 -1 -7 35.35 2.24
-2 -1 -7 33.13 2.14
-2 -1 -7 34.36 1.92
-2 -1 -7 31.53 1.97
2 -1 7 36.76 1.95
-2 -1 -7 30.38 2.1
-2 -1 -7 31.39 2.28
-2 -1 -7 28.9 2.18
-2 -1 -7 34.99 2.29
-2 -1 -7 32.38 2.21
-2 -1 -8 26.09 2.09
-2 -1 -8 35.31 2.36
-2 -1 -8 29.02 1.93
-2 -1 -8 27.53 2.02
-2 -1 -8 27.71 1.96
-2 -1 -8 27.15 2.12
2 -1 8 30.55 1.89
-2 -1 -8 27.9 2.32
-2 -1 -8 28.18 2.3
-2 -1 -8 27.4 2.18
-2 -1 -8 21.29 1.95
-2 -1 -9 11.91 1.49
-2 -1 -9 9.9 1.37
-2 -1 -9 12.03 1.34
-2 -1 -9 10.4 1.24
-2 -1 -9 11.23 1.34
-2 -1 -9 14.44 1.63
2 -1 9 11.04 1.23
-2 -1 -9 12.04 1.64
-2 -1 -9 9.3 1.4
-2 -1 -9 8.88 1.38
-2 -1 -9 12.18 1.54
-2 -1 -10 162.29 5.71
-2 -1 -10 166.38 5.44
-2 -1 -10 169.22 6.43
-2 -1 -10 177.18 6.16
-2 -1 -10 172.04 6.05
-2 -1 -11 88.54 3.71
-2 -1 -11 89.72 4.05
-2 -1 -11 92.52 4.13
-2 -1 -11 88.28 4.26
-2 -1 -12 100.43 3.89
-2 -1 -12 102.71 3.93
-2 -1 -12 101.42 4.14
-2 -1 -13 0.04 0.27
-2 -1 -13 0.05 0.35
-2 -1 -13 -0.08 0.29
-2 0 14 101.32 3.34
-2 0 14 109.52 3.46
-2 0 14 107.23 3.37
2 0 -14 100.74 3.15
2 0 -14 112.38 3.45
2 0 -14 118.04 3.36
-2 0 13 0.82 0.54
-2 0 13 0.44 0.53
2 0 -13 0.58 0.45
2 0 -13 0.65 0.47
2 0 -13 0.22 0.35
-2 0 12 380.05 8
2 0 -12 357.59 8.99
-2 0 12 377.04 9.77
2 0 -12 372.39 9.29
2 0 -12 350.71 9.06
-2 0 11 -0.09 0.56
2 0 -11 -0.07 0.48
-2 0 11 0.21 0.36
2 0 -11 -0.08 0.49
2 0 -10 590.33 12.72
-2 0 10 589.62 12.53
-2 0 10 575.02 11.88
2 0 -10 534.11 12.5
2 0 -10 531.17 12.54
2 0 -10 565.73 12.57
2 0 -10 541.76 12.58
2 0 -9 0.13 0.36
2 0 -9 0.27 0.39
2 0 -9 -0.13 0.33
-2 0 9 0.5 0.42
-2 0 9 0.27 0.36
-2 0 8 1396.05 25.95
2 0 -8 1434.16 26.08
-2 0 8 1468.77 25.85
-2 0 7 -0.05 0.27
2 0 -7 0.09 0.14
-2 0 7 -0.04 0.25
2 0 -7 0.19 0.27
2 0 -6 599.26 11.44
2 0 -6 602.35 10.97
-2 0 5 0.21 0.24
2 0 -5 0.1 0.16
-2 0 4 4691.15 73.55
2 0 -4 4705.36 73.42
2 0 -4 4538.7 73.29
-2 0 3 0.29 0.29
2 0 -3 0.14 0.15
2 0 -3 0.77 0.27
-2 0 2 2151.87 34.33
2 0 -2 2114.8 34.35
-2 0 2 2218.85 35.02
2 0 -1 0.13 0.16
-2 0 1 0.29 0.15
-2 0 1 0.11 0.21
-2 0 1 0.55 0.26
-2 0 0 7.32 0.61
-2 0 0 6.72 0.59
-2 0 0 6.62 0.66
-2 0 0 7.98 0.66
-2 0 -1 0.47 0.25
-2 0 -1 0.67 0.27
-2 0 -1 0.35 0.27
-2 0 -1 0.17 0.21
-2 0 -2 22.86 1.15
-2 0 -2 20.58 1.2
-2 0 -2 22.61 1.21
-2 0 -2 21.95 1.21
-2 0 -3 0.23 0.29
-2 0 -3 0.13 0.27
-2 0 -3 0.3 0.29
2 0 3 0.15 0.09
-2 0 -3 0.04 0.27
2 0 4 1049.6 17.83
-2 0 -4 1015.14 18.59
-2 0 -4 1045.69 18.52
-2 0 -5 -0.05 0.3
-2 0 -5 -0.34 0.34
2 0 5 0.37 0.3
-2 0 -5 -0.05 0.33
-2 0 -6 2.16 0.65
-2 0 -6 1.65 0.58
-2 0 -6 1.87 0.54
-2 0 -6 2.24 0.54
-2 0 -6 1.51 0.51
2 0 6 2.07 0.49
-2 0 -6 2.33 0.6
-2 0 -7 0.42 0.44
-2 0 -7 0.35 0.39
-2 0 -7 0.2 0.35
-2 0 -7 0.06 0.32
-2 0 -7 0.2 0.33
-2 0 -7 0.47 0.39
2 0 7 0.4 0.33
-2 0 -7 -0.08 0.45
-2 0 -7 0.44 0.42
-2 0 -8 496.54 11.8
-2 0 -8 550.28 11.82
-2 0 -8 529.33 11.21
2 0 8 503.37 10.93
-2 0 -8 545.98 12.07
-2 0 -8 470.95 12.03
-2 0 -8 452.36 11.8
-2 0 -8 509.67 11.96
-2 0 -8 478.65 11.78
-2 0 -9 -0.09 0.47
-2 0 -9 0.36 0.6
-2 0 -9 0.43 0.53
-2 0 -9 0.07 0.46
-2 0 -9 2.31 0.79
2 0 9 0.13 0.36
-2 0 -9 0.68 0.54
-2 0 -9 0.35 0.44
-2 0 -9 1.46 0.79
-2 0 -10 1397.2 26.08
-2 0 -10 1491.39 26.42
-2 0 -10 1459.64 27.13
-2 0 -10 1358.8 26.77
-2 0 -10 1333.83 27.29
-2 0 -11 -0.08 0.52
-2 0 -11 -0.24 0.53
-2 0 -11 -0.07 0.49
-2 0 -11 0.19 0.67
-2 0 -12 62.51 3.01
-2 0 -12 62.06 3
-2 0 -12 62.44 3.23
-2 0 -13 -0.13 0.32
-2 0 -13 0.05 0.35
-2 0 -13 0.17 0.3
-2 1 14 260.18 6.21
-2 1 14 262.41 6.2
-2 1 14 268.2 6.18
2 1 -14 276.41 5.95
2 1 -14 275.09 6.16
2 1 -14 278.2 5.98
-2 1 13 107.13 4.16
-2 1 13 118.25 4.27
2 1 -13 108.35 3.74
2 1 -13 118.37 4.05
2 1 -13 108.86 3.8
-2 1 12 49.14 2.23
2 1 -12 48.12 2.58
-2 1 12 45.31 2.91
2 1 -12 44.14 2.64
2 1 -12 46.3 2.6
-2 1 11 5.94 1.21
2 1 -11 7.49 1.12
-2 1 11 6.05 0.88
2 1 -11 6.64 1.13
2 1 -10 57.62 3.06
-2 1 10 56.35 2.89
-2 1 10 56.73 2.77
2 1 -10 59.27 3.13
2 1 -10 59.18 3.05
2 1 -10 62.54 3.23
2 1 -10 58.02 3.11
-2 1 9 435.67 9.66
2 1 -9 394.48 9.66
-2 1 9 386.78 9.3
2 1 -9 400.3 9.62
2 1 -9 450.96 9.94
-2 1 8 187.02 5.24
2 1 -8 194.71 5.48
-2 1 8 176.8 5.18
2 1 -8 168.95 4.28
2 1 -8 178.36 5.2
2 1 -7 234.5 5.26
-2 1 7 238.84 6.04
-2 1 7 241.58 5.9
2 1 -7 244.22 6.15
-2 1 6 17.62 1.17
2 1 -6 15.17 0.97
-2 1 5 313.37 6.38
2 1 -5 300.15 5.35
-2 1 4 54.26 1.77
2 1 -4 55.09 1.58
2 1 -4 52.61 1.79
-2 1 4 51.95 1.96
-2 1 3 68.33 2.29
-2 1 3 64.11 2.12
2 1 -3 66.73 1.66
2 1 -2 264.93 4.8
-2 1 2 266.11 5.61
2 1 -1 3156.6 48.67
2 1 -1 2920.39 49.45
-2 1 1 3031.32 49.44
-2 1 1 3224.86 49.57
-2 1 0 29.85 1.24
-2 1 0 30.94 1.26
-2 1 0 34.38 1.48
-2 1 0 30.31 1.31
-2 1 -1 1304.33 20.98
-2 1 -1 1311.44 21.4
-2 1 -1 1275.6 21.16
-2 1 -2 2398.7 38.38
-2 1 -2 2421.1 38.75
-2 1 -2 2292.4 38.53
2 1 3 567.92 9.88
-2 1 -3 578.24 11.11
-2 1 -3 574.05 10.93
-2 1 -3 568.8 10.92
-2 1 -4 51.49 2.03
-2 1 -4 46.79 2.09
-2 1 -4 42.74 2.03
-2 1 -4 45.84 2.15
2 1 4 47.29 1.41
-2 1 -5 33.95 1.99
-2 1 -5 37.96 2.01
-2 1 -5 33.46 1.92
-2 1 -6 108.68 3.93
-2 1 -6 100.54 3.84
-2 1 -6 107.6 3.61
-2 1 -6 107.04 3.76
-2 1 -6 96.71 3.7
2 1 6 103.89 3.58
-2 1 -6 103.36 3.96
-2 1 -6 105.31 3.85
-2 1 -7 35.97 2.29
-2 1 -7 34.48 2.14
-2 1 -7 34.81 1.83
-2 1 -7 34.04 1.96
2 1 7 40.88 2.21
-2 1 -7 34.48 2.23
-2 1 -7 37.65 2.45
-2 1 -7 33.27 2.34
-2 1 -7 34.67 2.29
-2 1 -7 32.99 2.24
-2 1 -8 26.67 2.09
-2 1 -8 24.37 1.9
-2 1 -8 28.36 1.95
-2 1 -8 25.15 1.71
-2 1 -8 25.64 2.06
2 1 8 28.3 1.94
-2 1 -8 27.61 2.29
-2 1 -8 28.14 2.28
-2 1 -8 29.13 2.23
-2 1 -8 24.85 2.07
-2 1 -9 10.99 1.44
-2 1 -9 11.68 1.35
-2 1 -9 9.91 1.39
2 1 9 13.08 1.39
-2 1 -9 10.4 1.15
-2 1 -9 11.4 1.34
-2 1 -9 12.92 1.6
-2 1 -9 9.59 1.47
-2 1 -9 10.17 1.43
-2 1 -9 11.63 1.54
-2 1 -10 162.63 5.91
-2 1 -10 166.38 5.62
-2 1 -10 158.93 6.21
-2 1 -10 173.38 6.04
-2 1 -11 96.06 4.14
-2 1 -11 94.06 3.94
-2 1 -11 95.87 4.41
-2 1 -11 94.5 4.09
-2 1 -12 100.91 4.09
-2 1 -12 103.07 3.89
-2 1 -12 99.72 3.87
-2 1 -13 0.28 0.37
-2 1 -13 0.04 0.27
-2 1 -13 -0.04 0.28
2 2 -14 102.35 2.9
-2 2 14 109.25 3.04
-2 2 13 0.14 0.23
-2 2 13 -0.11 0.41
-2 2 13 0.49 0.35
-2 2 13 -0.22 0.47
2 2 -13 0.98 0.38
2 2 -13 0.5 0.33
2 2 -13 0.5 0.32
-2 2 12 463.31 9.54
-2 2 12 443.07 10.85
-2 2 12 436.87 10.8
2 2 -12 444.99 10.04
2 2 -12 459.74 10.39
2 2 -12 452.97 10.23
-2 2 11 112.71 4.84
2 2 -11 104.41 4.1
2 2 -11 113.16 4.38
-2 2 11 110.97 3.97
-2 2 10 33.86 2.13
-2 2 10 34.01 2.6
-2 2 10 29.68 2.03
2 2 -10 32.68 2.17
-2 2 10 29.95 2.45
2 2 -10 30.12 2.16
2 2 -10 31.41 2.17
2 2 -10 29.49 2.13
2 2 -10 26.59 2.07
-2 2 9 595.8 12.45
2 2 -9 567.21 12.51
-2 2 9 612.24 12.7
2 2 -9 583.84 12.78
2 2 -9 638.04 12.8
2 2 -9 557.44 12.6
2 2 -9 586.63 12.52
-2 2 8 12.55 1.18
-2 2 8 13.35 1.31
2 2 -8 11.43 0.99
2 2 -8 11.9 1.19
2 2 -7 99.77 3.5
-2 2 7 102.13 3.34
-2 2 7 96.79 3.55
2 2 -7 100.25 3.11
2 2 -7 98.43 3.41
-2 2 6 765.39 14.22
-2 2 6 744.91 14.23
-2 2 6 756.68 13.64
-2 2 5 141.15 3.49
2 2 -5 140.48 3.62
-2 2 4 3263.47 49.71
-2 2 4 3028.84 50.54
2 2 -4 2852.98 49.95
-2 2 4 3346.12 50.71
-2 2 3 1201.63 19.86
-2 2 3 1245.45 20.9
-2 2 3 1247.79 20.87
-2 2 2 114.44 2.2
2 2 -2 102.67 2.81
-2 2 2 118.45 2.73
-2 2 2 103.02 2.91
-2 2 2 113.93 2.9
-2 2 1 437.76 8.02
2 2 -1 407.24 7.87
-2 2 1 431.35 7.97
-2 2 1 444.08 7.96
-2 2 1 416.5 7.9
2 2 0 57.27 1.17
2 2 0 54.06 1.75
-2 2 0 56.26 1.75
-2 2 0 60.41 1.84
-2 2 0 58.66 1.8
-2 2 -1 89.54 2.45
-2 2 -1 98.17 2.94
2 2 1 85.1 2.33
-2 2 -1 99.33 2.84
-2 2 -1 96.6 2.67
-2 2 -2 55.05 1.85
-2 2 -2 53.2 2.16
2 2 2 51.66 1.6
-2 2 -2 51.45 2.03
-2 2 -2 49.24 1.92
-2 2 -3 680.63 13.19
-2 2 -3 659.78 13.18
-2 2 -3 709.92 13.38
2 2 3 710.2 12.19
2 2 3 747.47 12.52
-2 2 -4 260.63 6.39
-2 2 -4 267.11 6.44
-2 2 -4 267.46 6.55
-2 2 -5 217.88 5.86
-2 2 -5 217.01 5.86
2 2 5 238.57 4.99
-2 2 -5 230.51 6.11
-2 2 -6 22.23 1.54
-2 2 -6 23.87 1.43
-2 2 -6 24.32 1.74
-2 2 -6 23.86 1.72
2 2 6 26.16 1.73
-2 2 -6 24.68 1.77
-2 2 -6 22.43 1.7
-2 2 -6 22.12 1.79
-2 2 -6 24.31 1.66
-2 2 -6 23.98 1.81
-2 2 -7 321.8 7.38
-2 2 -7 307.57 8.14
-2 2 -7 319.58 8.19
-2 2 -7 311.95 8.18
-2 2 -7 303.48 8.11
-2 2 -7 285.55 8.26
-2 2 -7 299 8.31
-2 2 -8 653.62 12.98
-2 2 -8 631.51 13.81
2 2 8 631.86 13.32
-2 2 -8 603.99 13.66
-2 2 -8 636.47 14.36
-2 2 -8 605.01 14.03
-2 2 -8 626.57 13.88
-2 2 -8 589.32 13.75
-2 2 -9 1150.87 22.35
-2 2 -9 1167.31 22.18
2 2 9 1102.11 21.28
-2 2 -9 1130.69 22.03
-2 2 -9 1077.49 20.9
-2 2 -9 1187 20.67
-2 2 -9 1154.53 22.69
-2 2 -9 1119.14 22.58
-2 2 -10 192.84 6.69
-2 2 -10 190.06 5.25
-2 2 -10 191.14 6.32
-2 2 -10 187.08 6.28
-2 2 -11 165.3 5.8
-2 2 -11 166.11 5.5
-2 2 -11 164.73 5.5
-2 2 -12 9.2 1.04
-2 2 -12 8.26 1.05
-2 2 -12 9 1.04
-2 2 -12 10.37 1.21
-2 2 -13 0.51 0.3
-2 2 -13 0.29 0.26
-2 3 13 3.35 0.62
-2 3 13 0.54 0.24
-2 3 13 2.58 0.52
-2 3 13 2.52 0.55
2 3 -13 -0.07 0.24
2 3 -13 0.15 0.3
2 3 -13 0.13 0.25
-2 3 12 211.51 5.38
-2 3 12 215.51 6.25
-2 3 12 200.95 6.01
-2 3 12 202.63 6.07
2 3 -12 198.03 5.46
2 3 -12 203.44 5.71
2 3 -12 208.33 5.59
-2 3 11 77.94 3.28
-2 3 11 86.94 3.95
-2 3 11 75.57 3.71
2 3 -11 79.48 3.29
2 3 -11 72.98 3.33
2 3 -11 78.5 3.34
-2 3 10 151.1 5.03
-2 3 10 154.69 5.63
2 3 -10 143.03 4.89
2 3 -10 135.07 4.78
-2 3 10 144.96 4.78
2 3 -10 147.03 4.8
-2 3 10 137.02 5.36
2 3 -10 138.72 4.92
2 3 -10 142.41 4.9
2 3 -9 146.17 4.98
2 3 -9 149.04 4.97
-2 3 9 155.02 5.19
-2 3 9 159 5.69
2 3 -9 152.78 4.27
2 3 -9 142.74 4.89
2 3 -9 159.35 4.99
-2 3 9 158.96 4.91
2 3 -9 157.59 4.93
2 3 -9 145.96 4.46
-2 3 9 153.18 5.59
2 3 -8 17.93 1.49
-2 3 8 19.5 1.64
-2 3 8 19.25 1.78
2 3 -8 16.26 1.36
2 3 -8 15.26 1.38
2 3 -8 20.09 1.52
-2 3 8 15.01 1.29
2 3 -8 17.56 1.33
-2 3 8 13.78 1.5
-2 3 7 480.52 10.52
-2 3 7 468.01 10.71
2 3 -7 487.46 9.92
2 3 -7 487.98 10.01
-2 3 7 453.84 9.57
2 3 -7 495.71 9.8
-2 3 7 446.71 10.24
-2 3 7 432.92 10.41
-2 3 6 2.09 0.54
-2 3 6 3.01 0.5
2 3 -6 1.7 0.44
-2 3 6 1.71 0.5
2 3 -6 2.69 0.52
-2 3 6 2.87 0.61
2 3 -6 3.2 0.52
2 3 -6 2.04 0.49
-2 3 5 218.58 5.7
-2 3 5 214.4 4.85
-2 3 5 231.56 5.68
-2 3 5 238.75 5.9
2 3 -5 217.41 5.28
-2 3 5 228.15 5.79
-2 3 4 393.8 7.43
-2 3 4 419.74 8.44
-2 3 4 421.62 8.67
-2 3 3 600.04 10.11
-2 3 3 619.31 11.07
-2 3 3 614.26 10.58
-2 3 2 13.74 0.4
-2 3 2 13.78 0.88
-2 3 2 13.73 1
2 3 -2 13.31 0.89
-2 3 2 14.97 0.89
-2 3 2 14.78 0.88
-2 3 1 2052.58 32.68
-2 3 1 2018.6 32.64
-2 3 1 2101.96 32.2
-2 3 0 1518.17 26.56
2 3 0 1599.99 25.96
-2 3 0 1608.35 26.18
-2 3 0 1600.25 25.85
-2 3 0 1582.08 25.86
-2 3 -1 0.58 0.32
2 3 1 0.58 0.21
-2 3 -1 0.37 0.19
-2 3 -2 236.31 4.86
-2 3 -2 227.89 5.67
2 3 2 221.17 4.41
2 3 2 229.17 4.94
-2 3 -2 211.34 5.14
-2 3 -2 211.28 5
-2 3 -3 0.15 0.2
-2 3 -3 0.11 0.25
-2 3 -3 -0.08 0.22
2 3 3 0.22 0.12
2 3 3 0.09 0.19
-2 3 -4 1148.28 21.1
2 3 4 1138.85 20.36
-2 3 -4 1178.46 21.27
-2 3 -5 263.17 6.86
-2 3 -5 250.61 6.2
-2 3 -5 292.62 6.32
-2 3 -5 263.77 6.31
-2 3 -5 276.69 6.71
-2 3 -5 257.79 6.64
-2 3 -5 294.3 7.49
2 3 5 273.07 6.12
-2 3 -5 279.17 6.5
-2 3 -5 273.04 6.74
-2 3 -5 267.79 6.78
-2 3 -6 413.2 10
-2 3 -6 454.32 10.13
-2 3 -6 435.65 9.33
-2 3 -6 456.98 9.61
-2 3 -6 433.49 9.97
-2 3 -6 463.98 10.15
-2 3 -6 490.32 9.84
2 3 6 448.05 9.21
-2 3 -6 448.22 10.49
-2 3 -6 432.73 10.24
-2 3 -7 39.78 2.47
-2 3 -7 39.03 2.42
-2 3 -7 43.53 2.25
-2 3 -7 39 2.17
-2 3 -7 43.26 2.5
-2 3 -7 37.51 2.34
2 3 7 46.01 2.59
-2 3 -7 37.98 2.14
-2 3 -7 40.26 2.62
-2 3 -7 35.51 2.42
-2 3 -8 13.07 1.34
-2 3 -8 13.9 1.37
-2 3 -8 12.65 1.29
-2 3 -8 16.14 1.6
2 3 8 10.35 1.28
-2 3 -8 11.93 1.37
-2 3 -8 11.27 1.47
-2 3 -8 13.2 1.54
-2 3 -8 11.27 1.41
-2 3 -8 14.43 1.54
-2 3 -9 2.8 0.8
-2 3 -9 2.24 0.74
-2 3 -9 3.33 0.77
-2 3 -9 2.9 0.67
-2 3 -9 1.7 0.55
-2 3 -9 2.82 0.73
2 3 9 2.48 0.7
-2 3 -9 2.37 0.72
-2 3 -9 2.68 0.76
-2 3 -9 3.26 0.83
-2 3 -10 -0.29 0.39
-2 3 -10 0.16 0.28
-2 3 -10 0.07 0.38
-2 3 -10 -0.14 0.46
-2 3 -10 0.33 0.51
-2 3 -11 1.66 0.59
-2 3 -11 0.83 0.46
-2 3 -11 0.24 0.21
-2 3 -11 0.69 0.49
-2 3 -11 0.55 0.45
-2 3 -12 1.37 0.44
-2 3 -12 0.47 0.4
-2 3 -12 1.28 0.49
-2 3 -12 1.44 0.42
2 4 -13 5.93 0.63
-2 4 12 0.04 0.15
-2 4 12 54.83 2.17
2 4 -12 50.51 1.98
-2 4 12 56.76 2.16
-2 4 12 0.04 0.14
-2 4 11 7.94 1.03
-2 4 11 8.19 1.11
-2 4 11 8.45 1.11
-2 4 11 8.19 1.08
2 4 -11 7.47 0.92
2 4 -11 7.48 0.97
2 4 -11 9.26 0.99
-2 4 10 285.02 7.53
-2 4 10 281.56 7.55
-2 4 10 281.57 7.55
2 4 -10 268.58 6.81
2 4 -10 258.68 6.87
2 4 -10 250.52 6.87
2 4 -9 84.81 3.51
-2 4 9 94.34 4
2 4 -9 90.49 3.2
-2 4 9 96.64 4.02
-2 4 9 95.43 4.04
2 4 -9 92.99 3.5
2 4 -9 93.94 3.57
-2 4 9 91.44 4.04
2 4 -8 276.94 6.99
2 4 -8 273.44 7
-2 4 8 295.02 7.86
-2 4 8 308.98 7.8
2 4 -8 270.78 6.73
-2 4 8 295.87 7.7
2 4 -8 274.41 6.85
2 4 -8 278.32 6.86
-2 4 8 283.4 6.83
2 4 -8 265.57 6.91
-2 4 8 282.64 7.63
-2 4 8 265.95 7.44
2 4 -7 564.18 11.6
-2 4 7 585.73 12.67
-2 4 7 621.34 12.47
2 4 -7 535.84 11.62
2 4 -7 577.89 11.45
-2 4 7 570.03 11.33
2 4 -7 610.83 11.95
-2 4 7 592.49 12.69
-2 4 7 574.89 12.26
-2 4 6 1231.38 21.26
-2 4 6 1123.34 20.05
-2 4 6 1231.17 21.37
2 4 -6 1118.24 20.74
-2 4 6 1177.43 21.75
2 4 -6 1130.93 20.7
2 4 -6 1165.63 20.21
2 4 -5 1350.81 22.96
-2 4 5 1317.15 24.35
-2 4 5 1347.19 22.78
-2 4 5 1353.54 24.48
-2 4 5 1390.51 23.81
2 4 -4 1271.78 22.97
-2 4 4 1300.29 21.87
-2 4 4 1347.06 22.75
2 4 -3 944.45 16.34
-2 4 3 881.81 15.92
-2 4 3 903.27 16.87
-2 4 3 914.97 15.8
-2 4 3 923.73 15.82
-2 4 2 381.97 7.88
-2 4 2 393.28 8.31
2 4 -2 394.4 7.8
-2 4 2 392.29 7.29
-2 4 2 376.04 7.23
-2 4 1 34.26 1.73
-2 4 1 34.73 1.7
2 4 -1 36.01 1.53
-2 4 1 34.73 1.24
-2 4 1 34.04 1.23
-2 4 0 85 2.7
2 4 0 82.74 2.45
-2 4 0 85.62 2.2
2 4 1 126.61 3.46
-2 4 -1 119.31 3.16
2 4 1 127.45 3.03
-2 4 -1 125.09 2.9
2 4 2 232.86 4.57
2 4 2 217.11 5.25
-2 4 -2 214.7 4.55
-2 4 -2 229.48 5.05
-2 4 -2 220.69 5.22
-2 4 -3 39.24 1.78
-2 4 -3 43.14 2.08
2 4 3 38.18 1.81
-2 4 -3 37.82 1.82
-2 4 -4 3.23 0.58
-2 4 -4 3.84 0.68
-2 4 -4 3.4 0.63
-2 4 -4 2.43 0.5
-2 4 -4 2.99 0.75
2 4 4 4.65 0.65
-2 4 -4 1.97 0.49
-2 4 -5 163.05 4.77
-2 4 -5 162.31 4.82
-2 4 -5 177.84 5.05
-2 4 -5 164.35 4.64
-2 4 -5 164.31 5.61
2 4 5 170.46 4.79
-2 4 -5 149.62 4.77
-2 4 -6 21.7 1.66
-2 4 -6 23.81 1.61
-2 4 -6 17.91 1.51
2 4 6 19.41 1.47
-2 4 -6 18.3 1.64
-2 4 -6 19.71 1.64
-2 4 -7 705.45 14.61
-2 4 -7 767.38 14.54
-2 4 -7 696.31 14.3
-2 4 -7 695.14 14.98
-2 4 -7 670 14.73
-2 4 -7 755.55 14.76
-2 4 -7 715.51 14.55
-2 4 -8 1.1 0.5
-2 4 -8 0.57 0.47
-2 4 -8 0.84 0.53
-2 4 -8 1.13 0.49
-2 4 -8 1.09 0.51
-2 4 -9 47.44 2.64
-2 4 -9 54.44 2.84
-2 4 -9 51.97 2.78
-2 4 -9 49.53 2.6
-2 4 -9 47.7 2.6
-2 4 -10 20.85 1.64
-2 4 -10 22.84 1.77
-2 4 -10 20.64 1.73
-2 4 -10 20.27 1.55
-2 4 -10 19.7 1.56
-2 4 -11 121.01 3.77
-2 4 -11 119.27 3.87
-2 4 -11 127.41 4.19
-2 4 -11 126.43 3.67
-2 5 12 14.59 1.05
2 5 -12 14.69 1.08
-2 5 11 12.35 1.2
-2 5 10 22.18 1.75
2 5 -10 19.7 1.31
-2 5 9 328.11 8.59
2 5 -9 310.88 7.36
2 5 -8 23.27 1.76
-2 5 8 22.38 1.92
-2 5 8 22.84 1.98
2 5 -8 26.01 1.69
2 5 -7 1163.05 21.95
-2 5 7 1185.91 23.01
2 5 -7 1236.24 21.72
-2 5 6 142.51 4.94
2 5 -6 132.75 4.29
-2 5 6 118.56 4.64
2 5 -6 113.57 4.08
-2 5 6 131.62 4.66
2 5 -6 130.17 4.13
2 5 -5 9.33 0.99
2 5 -5 10.28 1.07
-2 5 5 11.08 1.29
-2 5 5 10.94 1.23
2 5 -4 3.47 0.61
2 5 -4 3.5 0.65
-2 5 4 3.23 0.72
-2 5 4 2.31 0.62
-2 5 3 1.81 0.44
-2 5 3 1.88 0.56
2 5 -3 2.21 0.49
-2 5 3 1.92 0.57
-2 5 3 1.45 0.52
2 5 -2 9.96 0.9
-2 5 2 8.98 1.11
-2 5 2 10.53 1.16
-2 5 2 10.75 1.03
2 5 -2 9.65 0.88
-2 5 2 9.81 1.05
2 5 -1 268.26 6.07
-2 5 1 254.49 7.03
-2 5 1 283.12 7.13
-2 5 1 283.21 6.83
2 5 -1 293.58 6.13
2 5 -1 257.99 6.22
-2 5 1 275.79 6.63
-2 5 0 111.44 4.07
-2 5 0 106.74 3.92
-2 5 0 115.52 3.97
2 5 0 117.03 3.17
-2 5 0 108.71 3.48
-2 5 -1 772.89 15.91
-2 5 -1 793.15 15.73
-2 5 -1 807.01 15.96
2 5 1 826.25 14.24
2 5 1 847.76 15.17
-2 5 -1 806.69 14.58
2 5 2 1761.81 30.42
-2 5 -2 1709.63 31.28
2 5 3 288.04 6.84
-2 5 -3 265.5 7.21
-2 5 -3 276.88 6.45
-2 5 -3 263.63 6.43
-2 5 -4 223.86 6.39
2 5 4 233.57 6.17
-2 5 -4 214.43 6.2
-2 5 -4 227.61 5.72
-2 5 -4 220.81 5.61
-2 5 -5 36.2 2.26
-2 5 -5 44.4 2.92
2 5 5 37.54 2.21
-2 5 -5 37.98 2.31
-2 5 -5 40.36 2.08
-2 5 -5 42.57 2.16
-2 5 -6 52.87 2.7
-2 5 -6 46.1 2.63
-2 5 -6 45.24 2.99
2 5 6 43.54 2.48
-2 5 -6 43.92 2.34
-2 5 -6 44.67 2.32
2 5 7 19.26 1.82
-2 5 -7 18.11 1.65
-2 5 -7 16.59 1.45
-2 5 -8 5.05 0.88
-2 5 -8 5.95 1
-2 5 -9 8.24 1.08
-2 5 -9 9.07 1.16
-2 5 -9 9.96 1.16
-2 5 -10 4.66 0.78
-2 5 -10 6.01 0.84
-2 5 -11 64.35 2.53
-2 5 -11 66.1 2.34
2 6 -12 90.51 2.53
-2 6 12 84.47 2.41
2 6 -11 1.92 0.48
-2 6 11 1.44 0.46
2 6 -10 20.14 1.44
-2 6 10 17.04 1.46
2 6 -9 4.99 0.82
2 6 -9 4.85 0.77
-2 6 9 4.7 0.93
2 6 -8 27.57 1.89
2 6 -8 23.76 1.69
2 6 -7 204.18 5.74
2 6 -7 185.43 5.79
-2 6 7 179.49 6.26
2 6 -7 186.65 5.5
-2 6 7 200.73 6.41
2 6 -6 2032.16 34.08
2 6 -6 1988.33 33.95
-2 6 6 1928.44 35.4
2 6 -6 1937.44 34.46
-2 6 6 2035.69 34.99
-2 6 6 1851.65 35.1
-2 6 5 82.1 3.63
-2 6 5 78.69 3.58
2 6 -5 73.54 2.73
2 6 -5 77.46 3.26
2 6 -5 77.17 3.41
2 6 -4 291.29 7.29
-2 6 4 310.5 8.28
2 6 -4 302.87 7.1
-2 6 4 299.82 8.05
2 6 -4 323.23 7.54
-2 6 4 297.88 8.22
2 6 -4 302.7 6.98
-2 6 3 7.43 1.12
2 6 -3 5.53 0.8
-2 6 3 7.28 1.09
2 6 -3 7.72 0.9
2 6 -3 5.81 0.77
-2 6 3 6.67 1.02
-2 6 2 51.68 2.95
2 6 -2 48.92 2.3
-2 6 2 53.53 2.9
-2 6 2 48.49 2.52
2 6 -2 55.88 2.37
2 6 -2 51.39 2.34
-2 6 2 48.25 2.6
2 6 -1 12.16 1.08
-2 6 1 11.76 1.43
-2 6 1 13.95 1.36
2 6 -1 11.96 1.02
2 6 -1 12.63 1.14
-2 6 1 13.28 1.28
-2 6 1 10.9 1.3
-2 6 0 4.59 0.67
2 6 0 4.16 0.66
-2 6 0 5.51 0.99
-2 6 0 6.28 0.97
2 6 0 5.05 0.76
2 6 0 5.63 0.68
-2 6 0 4.27 0.72
-2 6 0 5.36 0.94
-2 6 -1 549.16 10.77
2 6 1 532.53 10.71
-2 6 -1 505.67 10.59
-2 6 -1 514.46 11.85
-2 6 -2 0.58 0.37
-2 6 -2 0.9 0.53
-2 6 -2 0.47 0.45
-2 6 -2 1.13 0.48
-2 6 -3 7.07 0.87
-2 6 -3 6.38 1.05
-2 6 -3 6.24 1.1
2 6 3 7.36 1.01
-2 6 -3 9.8 1.25
2 6 4 2.67 0.69
-2 6 -4 2.13 0.5
-2 6 -4 2.83 0.62
-2 6 -5 58.24 2.58
-2 6 -5 65.33 2.88
-2 6 -5 54.37 3.42
2 6 5 55.55 2.99
-2 6 -5 57.23 3.09
-2 6 -6 42.09 2.55
2 6 6 44.56 2.74
-2 6 -6 39.89 2.9
2 6 6 41.22 2.57
-2 6 -6 41.81 2.64
-2 6 -6 43.72 2.25
-2 6 -6 47.57 2.53
-2 6 -7 69.24 3.41
-2 6 -7 70.69 3.24
-2 6 -7 69.97 3
-2 6 -8 16.41 1.57
-2 6 -8 16.42 1.53
-2 6 -8 17.79 1.46
2 6 9 0.85 0.37
-2 6 -9 0.46 0.41
-2 6 -9 0.85 0.45
-2 6 -10 0.47 0.32
-2 6 -10 0.48 0.32
-2 7 11 33.76 1.48
2 7 -10 6.25 0.74
-2 7 10 6.5 0.82
2 7 -9 108.32 3.54
2 7 -9 111.93 3.68
2 7 -8 1.41 0.53
2 7 -8 0.22 0.39
-2 7 8 0.68 0.56
2 7 -7 11.29 1.2
2 7 -7 11.22 1.2
-2 7 7 8.17 1.23
2 7 -6 82.04 3.44
2 7 -6 83.69 3.65
2 7 -6 89.6 3.46
-2 7 6 79.49 3.83
2 7 -5 948.5 18.55
-2 7 5 922.98 19.49
2 7 -5 883.36 18.79
2 7 -5 1021.93 18.2
-2 7 5 988.86 19.08
-2 7 5 929.81 19.17
-2 7 4 1022.32 19.71
2 7 -4 1035.2 18.92
-2 7 4 1002.95 19.85
2 7 -4 927.65 17.86
-2 7 4 888.36 19.49
2 7 -4 965.34 18.68
2 7 -4 1049.86 19.54
-2 7 3 275.68 7.93
2 7 -3 307.62 7.45
-2 7 3 284.79 8.3
2 7 -3 274.67 6.92
-2 7 3 265.2 7.8
2 7 -3 297.18 7.27
-2 7 2 35.15 2.48
2 7 -2 36.4 2.12
-2 7 2 36.32 2.61
-2 7 2 33.18 2.24
2 7 -2 34.02 2.02
-2 7 2 34.46 2.32
2 7 -2 34.91 1.99
-2 7 1 12.19 1.48
-2 7 1 9.8 1.41
2 7 -1 9.93 1.1
-2 7 1 11.52 1.37
2 7 -1 10.35 1.12
-2 7 1 9.04 1.15
2 7 -1 10.57 1.05
-2 7 0 372.3 9.68
-2 7 0 361.26 9.51
2 7 0 370.67 8.75
-2 7 0 391.39 10.07
2 7 0 369.09 8.49
-2 7 -1 644.8 12.49
-2 7 -1 651.03 14.33
-2 7 -1 626.1 14.3
-2 7 -1 651.62 14.59
2 7 1 619.62 12.78
-2 7 -2 40.46 2.08
-2 7 -2 35.59 2.54
-2 7 -2 34.41 2.6
2 7 2 40.38 2.48
-2 7 -2 39.8 2.76
-2 7 -3 253.58 6.46
-2 7 -3 237 7.36
2 7 3 237.29 7.08
-2 7 -3 248.58 7.67
-2 7 -4 0.83 0.44
-2 7 -4 0.68 0.5
2 7 4 0.83 0.43
-2 7 -5 109.62 3.97
-2 7 -5 99.02 4.3
-2 7 -5 105.63 4.94
2 7 5 97.47 4.25
-2 7 -6 291.22 7.52
-2 7 -6 283.92 6.81
-2 7 -6 292.24 7.89
-2 7 -7 3.37 0.73
-2 7 -7 4.04 0.85
-2 7 -7 3.84 0.67
-2 7 -7 4.11 0.73
2 7 8 0.11 0.33
-2 7 -8 0.12 0.31
-2 7 -8 0.11 0.46
-2 7 -8 0.18 0.36
-2 7 -9 7.69 0.91
2 7 9 5.77 0.69
-2 7 -10 0.49 0.26
2 8 -9 30.85 1.54
2 8 -9 30.79 1.47
-2 8 9 29.12 1.64
2 8 -8 85.83 3.17
2 8 -8 84.08 2.92
-2 8 8 89.89 3.39
2 8 -7 0.22 0.38
2 8 -7 0.05 0.29
-2 8 7 0.43 0.39
-2 8 6 0.89 0.53
2 8 -5 30.11 2.05
-2 8 5 30.12 2.08
-2 8 5 28.39 2.12
2 8 -4 0.79 0.48
-2 8 4 0.54 0.45
-2 8 4 1.04 0.58
-2 8 3 26.71 2.12
2 8 -3 29.95 2.06
-2 8 3 24.62 2.16
2 8 -3 27.96 1.95
-2 8 3 24.32 2.06
2 8 -3 29.96 2.27
-2 8 2 -0.08 0.49
-2 8 2 0.55 0.61
2 8 -2 0.06 0.38
2 8 -2 0.12 0.29
2 8 -2 -0.12 0.26
-2 8 2 0.8 0.42
-2 8 1 318.86 8.78
-2 8 1 335.46 9.34
2 8 -1 306.78 7.85
-2 8 1 313.32 8.61
2 8 -1 288.71 7.8
-2 8 1 291.41 7.81
-2 8 0 219.66 7.07
-2 8 0 213.7 7.24
2 8 0 214.91 6.22
-2 8 0 223.6 7.16
2 8 0 224.6 6.56
-2 8 -1 23.52 2.09
-2 8 -1 26.56 2.33
2 8 1 24.19 1.93
2 8 1 23.02 1.73
-2 8 -1 27.58 2.4
-2 8 -2 -0.05 0.31
-2 8 -2 0.19 0.46
-2 8 -2 -0.09 0.49
-2 8 -3 157.16 5.67
-2 8 -3 155.27 4.63
-2 8 -3 149.8 5.71
-2 8 -4 70.81 3.59
-2 8 -4 69.83 2.96
-2 8 -4 66.28 3.52
-2 8 -5 29.5 2.21
-2 8 -5 28.83 1.86
-2 8 -5 28.87 2.17
-2 8 -6 80.1 3.55
-2 8 -6 83.79 3.27
-2 8 -6 80.02 3.39
-2 8 -7 349.02 5.93
-2 8 -7 0.04 0.12
2 8 8 213.81 5.27
-2 8 -9 34.28 1.56
2 9 -8 49.89 1.97
-2 9 8 50.07 1.93
2 9 -7 1.21 0.44
-2 9 7 1.03 0.4
-2 9 6 80.42 3.04
2 9 -5 63.19 2.88
-2 9 5 57.14 2.61
2 9 -4 4.02 0.79
-2 9 4 3.29 0.69
-2 9 4 3.91 0.72
-2 9 3 477.27 10.97
2 9 -3 483.99 10.65
-2 9 3 449.82 10.36
-2 9 3 440.07 9.74
-2 9 2 277.42 7.52
-2 9 2 283.89 8.08
2 9 -2 272.97 7.32
-2 9 1 69.51 3.38
2 9 -1 70 3.17
-2 9 1 72.69 3.74
-2 9 0 6.24 1.08
-2 9 0 8.83 1.31
2 9 0 6.38 0.95
-2 9 -1 63.57 3.31
-2 9 -1 65.76 3.59
-2 9 -2 4.34 0.9
-2 9 -3 212.11 6.4
-2 9 -3 210.73 6.62
-2 9 -4 241.45 6.83
-2 9 -4 247.18 5.93
-2 9 -4 243.72 6.99
-2 9 -5 4.36 0.81
-2 9 -5 5.25 0.71
-2 9 -5 5.18 0.88
-2 9 -6 0.4 0.43
-2 9 -6 0.21 0.25
2 9 7 24.56 1.39
-2 9 -7 27.24 1.52
2 10 -6 36.82 1.72
2 10 -5 5.33 0.73
2 10 -4 30.05 1.76
-2 10 3 83.77 2.76
2 10 -3 84.3 3.21
2 10 -2 247.27 6.24
-2 10 2 255.02 6.5
-2 10 1 72.38 2.85
2 10 -1 71.4 2.84
-2 10 1 68.59 3.13
-2 10 0 18.03 1.41
-2 10 0 17.99 1.61
-2 10 -1 60.93 2.7
-2 10 -1 60.46 2.98
-2 10 -2 27.22 1.75
-2 10 -2 29.37 1.97
-2 10 -3 35.99 1.95
-2 10 -4 27.49 1.59
-2 10 -4 25.19 1.59
-2 10 -5 3.27 0.54
-2 10 -5 4.17 0.57
-2 11 -1 6.39 0.69
-3 -10 5 19.19 1.15
3 -10 -4 130.44 3.5
3 -10 -3 25.93 1.43
-3 -10 3 26.03 1.57
3 -10 -2 25.54 1.46
-3 -10 2 24.56 1.58
3 -10 -1 3.68 0.61
-3 -10 1 2.83 0.61
3 -10 0 46.59 1.97
-3 -10 0 47.54 2.23
-3 -10 0 43.83 1.79
-3 -10 -1 20.09 1.24
3 -10 1 24.56 1.31
-3 -10 -1 23.51 1.48
-3 -10 -1 20.77 1.22
-3 -10 -2 68.3 2.35
-3 -10 -2 76.1 2.65
-3 -10 -2 75.14 2.61
-3 -10 -3 72.09 2.31
-3 -10 -3 69.47 2.34
-3 -10 -3 74.31 2.58
-3 -10 -4 11.39 0.88
3 -9 -7 37.28 1.53
-3 -9 7 34.44 1.65
3 -9 -7 35.17 1.5
3 -9 -6 1.75 0.39
-3 -9 6 1.5 0.48
3 -9 -6 1.57 0.42
3 -9 -5 22.34 1.28
-3 -9 5 24.14 1.66
-3 -9 4 11.31 0.97
3 -9 -4 12.57 0.96
3 -9 -3 0.54 0.38
-3 -9 3 0.3 0.32
3 -9 -3 -0.03 0.1
-3 -9 2 288.76 7.64
-3 -9 2 278.04 6.71
-3 -9 1 118.83 4.51
-3 -9 1 115.36 3.86
3 -9 -1 120.78 4
-3 -9 1 110.81 4.26
-3 -9 0 5.14 0.84
3 -9 0 5.65 0.84
-3 -9 0 5.26 0.92
-3 -9 0 5.75 1
-3 -9 0 5.54 0.83
-3 -9 -1 0.19 0.41
-3 -9 -1 0.17 0.36
3 -9 1 0.44 0.34
-3 -9 -1 0.2 0.48
-3 -9 -1 0.11 0.34
-3 -9 -2 0.85 0.55
-3 -9 -2 0.28 0.37
3 -9 2 1.05 0.39
-3 -9 -2 0.44 0.51
-3 -9 -2 0.53 0.4
-3 -9 -3 8.11 0.99
-3 -9 -3 8.56 1.07
-3 -9 -3 9.78 1.21
-3 -9 -4 77.22 3
-3 -9 -4 77.1 2.95
-3 -9 -4 71.95 3.18
-3 -9 -5 38.05 1.96
-3 -9 -5 38.22 2.1
-3 -9 -5 34.54 1.7
-3 -9 -6 18.24 1.2
-3 -9 -6 16.19 1.02
3 -8 -9 109.3 3.08
3 -8 -9 99.61 2.49
3 -8 -8 471.39 9.37
-3 -8 8 453.54 9.25
3 -8 -8 451.3 8.83
3 -8 -7 20.63 1.42
3 -8 -7 20.86 1.33
-3 -8 7 18.15 1.43
-3 -8 6 22.79 1.44
3 -8 -6 22.92 1.55
3 -8 -6 24.41 1.55
-3 -8 6 21.77 1.68
-3 -8 5 19.88 1.45
3 -8 -5 20.9 1.49
-3 -8 5 22.99 1.84
-3 -8 4 57.61 2.66
3 -8 -4 62.58 2.66
3 -8 -4 63 2.78
3 -8 -3 107.76 3.82
3 -8 -3 100.41 3.46
-3 -8 3 102.05 3.76
3 -8 -2 14.56 1.2
-3 -8 2 16.46 1.45
-3 -8 2 13.14 1.53
3 -8 -1 0.04 0.24
-3 -8 1 0.44 0.43
-3 -8 1 0.27 0.4
-3 -8 1 0.77 0.59
3 -8 -1 1.09 0.5
-3 -8 1 0.98 0.65
-3 -8 0 243.76 7.27
-3 -8 0 229.03 6.49
-3 -8 0 223.59 6.81
3 -8 0 231.69 6.25
-3 -8 -1 42.94 2.77
-3 -8 -1 43.71 2.51
-3 -8 -1 36.87 2.59
3 -8 1 47.28 2.4
-3 -8 -1 39.73 2.46
-3 -8 -2 13.6 1.54
-3 -8 -2 13.03 1.38
-3 -8 -2 14.41 1.44
-3 -8 -2 12.87 1.6
3 -8 2 15.51 1.31
-3 -8 -2 12.44 1.31
-3 -8 -3 17.51 1.59
-3 -8 -3 13.89 1.67
-3 -8 -3 15.6 1.55
-3 -8 -3 16.38 1.64
-3 -8 -4 0.73 0.51
-3 -8 -4 0.71 0.49
-3 -8 -4 0.9 0.69
-3 -8 -4 1.44 0.63
-3 -8 -5 1.29 0.58
-3 -8 -5 1.96 0.67
-3 -8 -5 0.72 0.46
-3 -8 -6 117.2 4.09
-3 -8 -6 108.87 4.16
-3 -8 -6 109.67 4.09
3 -8 6 110.53 3.26
-3 -8 -7 31.68 1.82
-3 -8 -7 31.86 1.85
-3 -8 -7 32.1 1.9
3 -8 7 30.42 1.39
-3 -8 -8 47.5 1.96
-3 -8 -8 44.92 1.96
3 -7 -10 20.49 1.29
-3 -7 9 101.03 3.21
3 -7 -9 101.91 3.49
3 -7 -9 102.38 2.95
-3 -7 8 99.8 3.32
3 -7 -8 102.68 3.27
-3 -7 8 107.33 3.71
-3 -7 7 5.04 0.89
3 -7 -7 5.73 0.78
3 -7 -7 5.85 0.88
-3 -7 6 14.16 1.48
3 -7 -6 14.33 1.35
3 -7 -6 14.33 1.26
-3 -7 5 415.58 9.57
-3 -7 5 414.02 10.16
3 -7 -5 419.72 9.54
3 -7 -4 380.06 8.61
3 -7 -4 384.63 8.71
-3 -7 4 332.88 9.18
-3 -7 4 376.08 8.88
3 -7 -4 366.01 8.87
3 -7 -4 351.85 9.01
-3 -7 4 351.8 9.59
-3 -7 3 3.8 0.96
3 -7 -3 6.31 1.08
-3 -7 3 6.14 0.95
3 -7 -3 4.53 0.78
3 -7 -3 4.9 0.87
3 -7 -3 6.47 1.02
3 -7 -3 6.44 0.9
-3 -7 2 0.16 0.42
3 -7 -2 0.39 0.42
-3 -7 2 -0.06 0.33
3 -7 -2 0.07 0.31
-3 -7 2 -0.08 0.44
3 -7 -2 0.11 0.32
-3 -7 1 159.05 5.45
-3 -7 1 157.26 5.6
3 -7 -1 162.91 5.67
-3 -7 1 164.57 5.31
3 -7 -1 156.14 5.41
3 -7 -1 172.06 4.99
3 -7 0 173.47 5.1
-3 -7 0 173.37 5.95
-3 -7 0 176.92 6.06
3 -7 0 182.81 6.02
-3 -7 0 186.94 5.7
3 -7 0 169.29 5.68
-3 -7 -1 2.43 0.79
-3 -7 -1 2.32 0.69
-3 -7 -1 3.13 0.89
3 -7 1 1.87 0.65
-3 -7 -1 4.5 0.87
3 -7 1 3.43 0.78
-3 -7 -1 2.36 0.7
3 -7 1 2.63 0.61
3 -7 2 143.34 4.34
-3 -7 -2 144.86 5.38
3 -7 2 132.72 5.04
-3 -7 -2 140.48 4.99
-3 -7 -2 132.88 5.07
-3 -7 -2 137.66 5.47
3 -7 2 131.09 5.02
-3 -7 -2 122.43 4.51
-3 -7 -3 11.42 1.56
-3 -7 -3 11.32 1.48
3 -7 3 10 1.32
-3 -7 -3 11.23 1.37
3 -7 3 10.36 1.35
-3 -7 -3 12.01 1.49
-3 -7 -4 0.3 0.49
-3 -7 -4 0.09 0.64
-3 -7 -4 0.35 0.55
3 -7 4 1.18 0.43
-3 -7 -4 0.56 0.59
-3 -7 -4 0.36 0.42
-3 -7 -5 43.32 2.67
-3 -7 -5 41.52 2.81
-3 -7 -5 35.96 2.46
3 -7 5 43.41 2.2
-3 -7 -5 34.88 2.23
-3 -7 -6 489.4 11.24
-3 -7 -6 485.88 11.75
-3 -7 -6 471.25 11.46
-3 -7 -6 467.31 10.66
3 -7 6 468.36 10.06
-3 -7 -7 267.78 7.45
-3 -7 -7 236.91 6.82
-3 -7 -7 233.73 6.52
3 -7 7 256.72 6.2
-3 -7 -8 21.8 1.5
-3 -7 -8 22.05 1.73
3 -7 8 21.28 1.35
-3 -7 -8 21.79 1.55
-3 -7 -9 10.16 0.96
3 -7 9 12.38 0.86
-3 -7 -9 13.11 1.13
-3 -7 -9 10.05 0.91
3 -6 -11 38.23 1.76
3 -6 -10 1.51 0.36
3 -6 -10 1.46 0.48
-3 -6 9 38.27 2.02
3 -6 -9 37.2 1.79
3 -6 -9 36.78 2.14
-3 -6 8 86.12 3.47
3 -6 -8 92.76 3.21
3 -6 -8 89.4 3.6
-3 -6 7 891.02 17.65
3 -6 -7 894.4 16.84
3 -6 -7 913.26 17.58
-3 -6 6 512.97 11.37
3 -6 -6 482.73 10.58
3 -6 -6 475.44 11.18
3 -6 -6 494.73 10.45
3 -6 -5 103.89 3.84
3 -6 -5 110.32 4.28
-3 -6 5 102.38 4.18
3 -6 -5 103.3 3.93
-3 -6 4 1.3 0.6
3 -6 -4 1.1 0.49
3 -6 -4 1.84 0.64
3 -6 -4 1.37 0.5
-3 -6 4 2.7 0.88
3 -6 -4 2.48 0.61
-3 -6 3 34.83 2.34
3 -6 -3 30.53 2.16
3 -6 -3 27.58 2.07
3 -6 -3 32.27 1.88
3 -6 -2 13 1.16
-3 -6 2 12.77 1.35
-3 -6 2 12.06 1.39
3 -6 -2 13.18 1.38
-3 -6 2 13.17 1.33
3 -6 -2 10.6 1.29
-3 -6 2 12.45 1.47
3 -6 -1 24.29 1.56
-3 -6 1 22.55 1.85
-3 -6 1 21.82 1.88
3 -6 -1 22.02 1.8
-3 -6 1 24.19 1.8
3 -6 -1 22.61 1.86
-3 -6 1 22.09 1.87
3 -6 0 22.41 1.8
-3 -6 0 26.66 1.88
-3 -6 0 20.65 1.74
-3 -6 0 26.01 2.08
3 -6 0 24.98 1.99
-3 -6 0 20.25 1.74
3 -6 0 20.8 1.45
-3 -6 -1 58.4 3.19
3 -6 1 62.26 3.1
-3 -6 -1 64.88 3.07
-3 -6 -1 63.01 3.24
-3 -6 -1 66.77 3.46
3 -6 1 59.44 3.18
-3 -6 -1 57.61 2.88
3 -6 1 62.55 2.57
-3 -6 -2 100.82 4.32
-3 -6 -2 102.75 4.36
-3 -6 -2 101.08 4.53
-3 -6 -2 114.37 4.27
3 -6 2 105.36 4.21
3 -6 2 103.25 4.31
-3 -6 -2 90.88 3.64
-3 -6 -3 32.96 2.11
-3 -6 -3 33.62 2.6
-3 -6 -3 37.5 2.65
-3 -6 -3 38.6 2.44
3 -6 3 35.67 2.41
3 -6 3 34.08 2.4
-3 -6 -3 36.96 2.52
-3 -6 -4 0.89 0.52
-3 -6 -4 1.3 0.67
3 -6 4 1.22 0.56
3 -6 4 1.04 0.58
-3 -6 -4 1.45 0.65
-3 -6 -5 1369.28 25.57
3 -6 5 1315.56 25.74
-3 -6 -5 1388.39 26.69
-3 -6 -5 1321.98 26.6
-3 -6 -5 1432.69 26.07
-3 -6 -6 207.16 7.16
-3 -6 -6 205.28 6.87
-3 -6 -6 207.94 6.6
-3 -6 -7 1.6 0.64
-3 -6 -7 2.38 0.85
-3 -6 -7 1.94 0.72
-3 -6 -7 2.23 0.75
-3 -6 -8 6.48 1.03
-3 -6 -8 6.78 0.97
-3 -6 -8 5.94 1.03
-3 -6 -9 9.73 1.1
-3 -6 -9 10.74 1.21
3 -6 9 10.16 0.98
-3 -6 -9 9.56 1.17
-3 -6 -10 13.49 1.12
3 -6 10 13.6 0.94
-3 -6 -10 12.81 1.08
3 -5 -12 48.42 1.8
3 -5 -11 1.24 0.46
3 -5 -10 117.55 3.35
3 -5 -10 113.44 3.94
-3 -5 9 0.4 0.34
3 -5 -9 0.47 0.32
3 -5 -9 0.36 0.44
-3 -5 8 11.31 1.21
3 -5 -8 10.91 1.07
3 -5 -8 11.08 1.25
-3 -5 7 545.2 11.78
3 -5 -7 532.46 11.14
3 -5 -7 545.44 11.78
3 -5 -6 542.75 11.45
3 -5 -6 551.81 12.05
-3 -5 5 1151.24 22.11
3 -5 -5 1224.66 21.56
-3 -5 4 6.48 0.96
-3 -5 4 6.55 1.07
3 -5 -3 114.18 3.6
-3 -5 3 107.91 4.05
3 -5 -3 126.17 4.24
3 -5 -3 120.62 4.34
-3 -5 3 100.08 4.19
3 -5 -2 9.82 0.94
-3 -5 2 9.72 1.12
-3 -5 2 9.84 1.14
3 -5 -2 7.8 0.99
3 -5 -2 10.5 1.24
-3 -5 2 8.43 1.13
3 -5 -1 40.66 1.91
-3 -5 1 45.73 2.5
-3 -5 1 36.5 2.23
3 -5 -1 35.46 2.1
-3 -5 1 40.69 2.22
3 -5 -1 44.9 2.54
-3 -5 1 37.49 2.29
-3 -5 0 9.47 1.15
-3 -5 0 8.88 1.18
-3 -5 0 10.1 1.19
3 -5 0 10.17 1.23
-3 -5 0 7.99 1.03
3 -5 0 9.52 0.89
3 -5 0 9.33 1.06
-3 -5 0 9.69 1.09
-3 -5 -1 307.6 8.06
-3 -5 -1 292.72 8.1
-3 -5 -1 317.49 7.63
3 -5 1 312.11 7.67
3 -5 1 319.54 8.08
3 -5 1 308.2 6.66
3 -5 2 182.6 5.44
3 -5 2 171.91 5.58
-3 -5 -2 167.24 5.77
-3 -5 -2 177.65 5.85
-3 -5 -3 68.55 3.14
-3 -5 -3 77.37 3.8
3 -5 3 81.54 3.72
-3 -5 -3 72.84 3.46
-3 -5 -4 1059.13 21.54
-3 -5 -4 1093.86 21.86
3 -5 4 1082.32 21.27
-3 -5 -4 1059.52 20.91
-3 -5 -5 2.01 0.69
-3 -5 -5 2.59 0.8
-3 -5 -5 1.61 0.67
-3 -5 -5 1.67 0.62
3 -5 5 2.55 0.8
-3 -5 -5 2.61 0.76
-3 -5 -6 27.47 2.14
-3 -5 -6 27.58 2.46
-3 -5 -6 26.24 2.23
3 -5 6 27.51 2.28
-3 -5 -6 28.67 2.31
-3 -5 -7 0.94 0.52
-3 -5 -7 1.44 0.63
-3 -5 -7 0.44 0.5
-3 -5 -8 23.01 1.93
-3 -5 -8 20.94 1.73
-3 -5 -8 22.06 2.09
-3 -5 -8 23.68 2.08
-3 -5 -9 3 0.76
-3 -5 -9 3.28 0.86
-3 -5 -10 0.24 0.32
-3 -5 -10 1.27 0.49
3 -5 11 105.9 3.06
-3 -5 -11 115.56 3.09
3 -4 -12 7.34 0.72
3 -4 -12 -0.03 0.07
3 -4 -11 2.42 0.57
-3 -4 11 3.12 0.62
-3 -4 11 2.94 0.62
3 -4 -11 2.45 0.51
3 -4 -11 3.04 0.62
3 -4 -11 4.79 0.71
3 -4 -10 0.89 0.46
-3 -4 10 0.83 0.46
-3 -4 10 0.84 0.47
3 -4 -10 0.84 0.37
3 -4 -10 0.68 0.37
-3 -4 10 1.01 0.48
3 -4 -10 0.92 0.43
-3 -4 9 4.54 0.85
3 -4 -9 7.5 1.01
-3 -4 9 5.08 0.91
3 -4 -9 6.45 0.91
-3 -4 9 5.38 0.96
-3 -4 9 6.57 0.92
3 -4 -9 6.44 0.92
3 -4 -8 582.62 12.36
-3 -4 8 569.56 12.63
-3 -4 8 579.54 12.67
3 -4 -8 572.96 12.24
3 -4 -8 622.01 12.18
-3 -4 8 584.54 12.93
3 -4 -8 627.29 12.9
-3 -4 8 594.72 12.07
-3 -4 8 551.17 12.63
-3 -4 8 590.04 12.19
3 -4 -7 580.22 12.23
-3 -4 7 541.65 12.34
-3 -4 7 567.71 12.44
3 -4 -7 588.38 11.83
3 -4 -7 601.81 11.85
-3 -4 7 633.95 13.06
3 -4 -7 523.27 12.22
-3 -4 7 595.18 12.08
-3 -4 7 619.81 12.21
-3 -4 6 156.24 4.7
-3 -4 6 164.04 4.73
3 -4 -6 161.78 4.85
3 -4 -6 154 4.38
-3 -4 6 168.78 5.19
3 -4 -6 142.13 4.85
-3 -4 6 142.45 4.71
-3 -4 6 133.25 4.56
-3 -4 5 736.69 14.95
-3 -4 5 776.41 14.89
-3 -4 5 745.46 15.06
-3 -4 5 752.97 14.96
3 -4 -5 787.1 14.48
-3 -4 4 135.65 4.33
3 -4 -4 144.74 4.64
-3 -4 4 143.86 4.28
-3 -4 4 142.7 4.2
-3 -4 3 53.46 2.72
-3 -4 3 51.09 2.41
3 -4 -3 54.88 2.62
-3 -4 3 52.42 2.22
-3 -4 3 52.35 2.19
3 -4 -3 58.52 2.45
-3 -4 2 34.41 1.93
3 -4 -2 34.74 2.07
3 -4 -2 32.27 1.76
-3 -4 2 33.87 1.62
-3 -4 2 32.04 1.57
3 -4 -1 231.18 5.67
-3 -4 1 221 5.09
-3 -4 1 225.91 5.12
-3 -4 1 220.55 5.82
3 -4 0 126.55 3.91
-3 -4 0 134.24 3.55
-3 -4 0 135.03 4.25
-3 -4 -1 113.09 3.73
-3 -4 -1 117.62 3.28
-3 -4 -2 24.08 1.6
-3 -4 -2 22.65 1.82
-3 -4 -2 21.79 1.8
-3 -4 -2 23.41 1.59
-3 -4 -2 24.09 1.37
-3 -4 -3 505.88 10.94
-3 -4 -3 492.9 11.08
-3 -4 -3 552.32 12.02
-3 -4 -3 487.85 11.84
-3 -4 -3 538.36 11.07
3 -4 3 556.79 12.01
-3 -4 -3 517.63 10.73
-3 -4 -4 15.49 1.43
-3 -4 -4 15.61 1.36
-3 -4 -4 14.69 1.47
-3 -4 -4 16.09 1.53
-3 -4 -4 15.62 1.62
-3 -4 -4 17.24 1.47
3 -4 4 18.26 1.72
-3 -4 -4 15.85 1.35
-3 -4 -5 387.95 9.27
-3 -4 -5 366.49 9.55
-3 -4 -5 415.02 10.06
-3 -4 -5 411.78 10.2
-3 -4 -5 429.5 9.65
-3 -4 -5 375.86 9.1
-3 -4 -5 414.38 9.07
-3 -4 -5 390.36 9.52
-3 -4 -5 391.71 9.19
-3 -4 -6 964.27 19.09
-3 -4 -6 1033.71 20.37
-3 -4 -6 1098.28 20.99
-3 -4 -6 1052.62 20.15
-3 -4 -6 948.07 19.03
-3 -4 -6 1003.74 19.52
-3 -4 -6 956.02 19.67
-3 -4 -6 963.87 19.22
-3 -4 -7 376.05 9.26
-3 -4 -7 359.5 9.94
-3 -4 -7 376.36 9.23
-3 -4 -7 370.91 10.37
-3 -4 -7 370.22 9.45
-3 -4 -7 349.89 9.53
-3 -4 -7 361.3 9.28
-3 -4 -8 22.69 1.78
-3 -4 -8 23.35 2.18
-3 -4 -8 24.77 2.02
-3 -4 -8 25.37 1.93
-3 -4 -8 22.62 1.99
-3 -4 -8 26.76 1.98
-3 -4 -9 35.27 2.56
-3 -4 -9 36.36 2.53
-3 -4 -9 35.44 2.27
-3 -4 -9 33.63 2.13
-3 -4 -9 32.45 2.28
-3 -4 -9 36.3 2.2
-3 -4 -10 5.06 0.94
-3 -4 -10 4.45 0.82
-3 -4 -10 4.21 0.78
-3 -4 -10 0.05 0.18
-3 -4 -10 3.82 0.73
-3 -4 -10 0.52 0.28
-3 -4 -11 52.87 2.1
-3 -4 -11 61.58 2.67
-3 -3 13 21.41 1.19
-3 -3 13 24.9 1.28
3 -3 -13 24.81 1.23
3 -3 -13 26.92 1.4
3 -3 -13 24.47 1.27
-3 -3 12 11.46 1.17
-3 -3 12 10.42 1.1
-3 -3 12 12.5 1.2
3 -3 -12 14.14 1.16
3 -3 -12 13.1 1.21
3 -3 -12 12.31 1.15
3 -3 -11 1.74 0.51
-3 -3 11 1.32 0.62
-3 -3 11 1.52 0.59
3 -3 -11 1.42 0.36
3 -3 -11 1.47 0.5
3 -3 -11 2.23 0.63
-3 -3 11 0.93 0.38
-3 -3 11 1.39 0.56
3 -3 -10 151.05 4.63
-3 -3 10 138.55 5.24
-3 -3 10 136.55 5.14
3 -3 -10 142.86 4.77
3 -3 -10 146.58 4.95
-3 -3 10 159.8 5.47
-3 -3 10 159.86 4.69
3 -3 -9 196.39 5.59
-3 -3 9 196.57 6.47
3 -3 -9 194.72 5.83
-3 -3 9 203.18 6.5
3 -3 -9 194.32 6.01
3 -3 -9 211.59 5.97
-3 -3 9 191.44 6.4
-3 -3 9 201.83 5.66
-3 -3 9 186.85 6.34
-3 -3 8 888.14 16.72
-3 -3 8 891.43 17.85
3 -3 -8 950.13 16.82
-3 -3 8 829.81 17.64
3 -3 -8 873.19 16.83
-3 -3 8 809.24 17.51
3 -3 -8 954.15 17.12
3 -3 -8 797.48 16.81
-3 -3 8 789.09 17.44
-3 -3 7 157.74 4.68
-3 -3 7 138.35 5.16
3 -3 -7 155.53 4.65
-3 -3 7 147.46 5.24
-3 -3 7 152.01 5.23
3 -3 -7 161.05 4.78
3 -3 -7 150.6 4.76
-3 -3 7 138.83 5.04
-3 -3 6 25.81 1.54
-3 -3 6 22.29 1.76
-3 -3 6 26.16 1.64
-3 -3 6 23.09 1.82
3 -3 -6 26.85 1.8
-3 -3 6 20.48 1.7
-3 -3 6 20.86 1.71
-3 -3 5 0.04 0.27
-3 -3 5 0.44 0.39
-3 -3 5 0.12 0.24
3 -3 -5 0.03 0.18
-3 -3 5 1.02 0.49
-3 -3 5 0.93 0.49
-3 -3 4 442.33 8.89
-3 -3 4 446.2 9.38
3 -3 -4 435.03 9.31
3 -3 -3 894.89 16.04
-3 -3 3 916.49 16.51
3 -3 -3 942.45 16.85
3 -3 -2 4.08 0.55
-3 -3 2 4.41 0.64
-3 -3 2 5.02 0.65
3 -3 -2 3.91 0.7
3 -3 -1 3588.91 59.9
-3 -3 1 3623.19 60.12
-3 -3 1 3733.91 60.21
3 -3 0 149.84 3.91
3 -3 0 145.34 4.38
-3 -3 0 138.02 3.83
3 -3 1 20.59 1.52
-3 -3 -1 20.71 1.26
-3 -3 -2 1.6 0.49
-3 -3 -2 1.59 0.48
-3 -3 -2 1.37 0.4
3 -3 2 2.09 0.59
-3 -3 -2 1.72 0.47
-3 -3 -3 12.49 1.07
-3 -3 -3 9.29 1.09
-3 -3 -3 10.84 1.02
-3 -3 -3 10.58 1.12
-3 -3 -3 11.65 1.11
-3 -3 -4 199.78 5.8
-3 -3 -4 228.31 5.65
-3 -3 -4 197.41 6.04
-3 -3 -4 222.78 5.61
-3 -3 -4 252.69 6.67
-3 -3 -4 199.99 6.43
-3 -3 -4 229.66 5.85
-3 -3 -4 223.06 6.01
-3 -3 -4 237.03 6.36
-3 -3 -4 198.24 5.76
-3 -3 -5 4.15 0.8
-3 -3 -5 5.29 0.81
-3 -3 -5 4.57 0.86
-3 -3 -5 5.47 0.79
-3 -3 -5 5.57 0.97
-3 -3 -5 4.8 0.79
-3 -3 -5 4.07 0.8
-3 -3 -5 4.71 0.85
-3 -3 -5 5.56 0.91
-3 -3 -5 4.41 0.86
-3 -3 -5 4.88 0.93
-3 -3 -5 4.17 0.92
-3 -3 -5 5.66 0.94
-3 -3 -6 188.15 6.05
-3 -3 -6 189.24 5.62
-3 -3 -6 195.81 6.04
-3 -3 -6 172.83 6.35
-3 -3 -6 194.18 6.02
-3 -3 -6 192.55 5.79
-3 -3 -6 201.47 6.49
-3 -3 -6 218.31 6.1
-3 -3 -6 185.1 6.18
-3 -3 -6 185.88 5.97
-3 -3 -7 48 2.89
-3 -3 -7 52.89 3.24
-3 -3 -7 51.37 3.21
-3 -3 -7 48.26 2.68
-3 -3 -7 47.91 2.86
-3 -3 -7 51.33 2.81
-3 -3 -7 49.79 3.06
-3 -3 -7 54.02 3.23
-3 -3 -7 49.17 2.95
-3 -3 -8 255.64 7.62
-3 -3 -8 275.03 8.29
-3 -3 -8 251.75 7.89
-3 -3 -8 283.52 7.52
-3 -3 -8 265.14 7.72
-3 -3 -8 272.39 8.2
-3 -3 -8 235.84 7.75
-3 -3 -8 264.98 7.86
-3 -3 -9 84.48 4.14
-3 -3 -9 83.71 3.94
-3 -3 -9 87.34 3.67
-3 -3 -9 84.35 3.84
-3 -3 -9 81.18 4.09
-3 -3 -9 85.57 3.9
-3 -3 -10 126.23 4.86
-3 -3 -10 120.06 4.33
-3 -3 -10 119.26 4.78
-3 -3 -10 123.58 4.52
-3 -3 -10 132.58 4.63
-3 -3 -11 7.08 1
-3 -3 -11 6.47 0.86
-3 -3 -11 5.81 0.92
-3 -3 -11 7.25 0.92
-3 -2 13 51.71 2.34
-3 -2 13 54.15 2.37
-3 -2 13 58.2 2.45
3 -2 -13 57.87 2.29
3 -2 -13 61.83 2.54
3 -2 -13 59.26 2.4
-3 -2 12 2.27 0.46
-3 -2 12 1.21 0.55
-3 -2 12 0.95 0.47
-3 -2 12 1.59 0.6
3 -2 -12 1.32 0.51
3 -2 -12 1.24 0.57
3 -2 -12 1.07 0.46
-3 -2 11 520.3 12.13
-3 -2 11 528.93 12.25
3 -2 -11 507.14 11.4
-3 -2 11 527.39 10.8
-3 -2 11 506.65 12.21
3 -2 -11 534.71 11.75
3 -2 -10 719.9 15.47
3 -2 -10 798.97 15.7
-3 -2 10 760.56 14.8
-3 -2 10 723.44 16.03
3 -2 -10 722.89 14.24
-3 -2 10 772.4 16.34
3 -2 -10 720.64 15.52
3 -2 -10 753.06 15.39
3 -2 -10 755.61 15.4
-3 -2 10 740.18 15.34
-3 -2 10 735.89 16.29
-3 -2 9 412.07 9.16
-3 -2 9 376.54 10.21
3 -2 -9 386.17 8.64
3 -2 -9 389.68 9.36
-3 -2 9 369.19 10.06
3 -2 -9 417.74 9.62
-3 -2 9 377.52 9.39
-3 -2 9 358.07 10.11
-3 -2 8 15.14 1.34
3 -2 -8 17.67 1.34
-3 -2 8 14.63 1.63
-3 -2 8 18.03 1.77
3 -2 -8 14.35 1.38
-3 -2 8 19.05 1.6
3 -2 -8 15.54 1.44
3 -2 -8 14.58 1.35
-3 -2 8 13.79 1.6
-3 -2 7 11.09 1.11
3 -2 -7 10.01 0.99
-3 -2 7 11.24 1.36
-3 -2 7 13.9 1.48
-3 -2 7 11.12 1.17
3 -2 -7 9.72 1.04
-3 -2 7 11.38 1.4
-3 -2 6 351.55 7.72
-3 -2 6 369.72 8.68
-3 -2 6 369.39 8.1
3 -2 -6 322.85 6.78
3 -2 -6 320.23 7.64
-3 -2 6 345.39 8.56
-3 -2 6 333.11 8.4
-3 -2 5 259.08 6.21
-3 -2 5 257.75 6.86
-3 -2 5 264.18 6.98
-3 -2 5 235.86 6.83
3 -2 -5 268.94 5.38
3 -2 -5 278.09 5.95
-3 -2 5 311.01 6.74
3 -2 -5 298.46 6.67
-3 -2 4 41.32 1.91
3 -2 -4 42.41 1.95
-3 -2 3 234.53 6.01
-3 -2 3 242.47 5.89
-3 -2 3 247.86 5.68
3 -2 -3 244.13 5.77
3 -2 -2 16.77 0.92
-3 -2 2 16.53 1.17
-3 -2 2 15.44 1.14
3 -2 -2 18.63 1.26
3 -2 -1 284.39 5.71
3 -2 -1 276.71 6.38
-3 -2 1 299.46 6.44
-3 -2 1 288.82 6.37
3 -2 0 62.15 2.43
-3 -2 0 59.26 2.25
-3 -2 0 58.29 2.23
-3 -2 -1 53.76 2.16
3 -2 1 55.88 2.39
-3 -2 -1 55.15 2.29
-3 -2 -1 58.36 2.46
-3 -2 -2 290.36 6.49
-3 -2 -2 318.17 7.11
-3 -2 -3 565.04 11.99
-3 -2 -3 559.84 11.63
-3 -2 -4 299.17 7.5
-3 -2 -4 305.37 7.37
-3 -2 -4 321.19 7.11
-3 -2 -4 317.79 7.82
-3 -2 -4 331 7.19
-3 -2 -4 279.54 6.71
-3 -2 -4 298.37 7.41
-3 -2 -4 259.73 7.31
-3 -2 -4 305.04 7.2
-3 -2 -4 304.21 7.45
-3 -2 -5 130.45 4.56
-3 -2 -5 130.67 4.17
-3 -2 -5 127.19 4.12
-3 -2 -5 117.51 4.56
-3 -2 -5 125.74 4.31
-3 -2 -5 115.46 4.28
-3 -2 -5 123.37 3.95
-3 -2 -5 115.44 4.57
-3 -2 -5 137.82 4.56
-3 -2 -5 118.26 4.52
-3 -2 -5 123.79 4.4
-3 -2 -6 262.01 7.56
-3 -2 -6 266.65 7.09
-3 -2 -6 264.8 7.71
-3 -2 -6 260.99 6.99
-3 -2 -6 247.61 7.58
-3 -2 -6 284.5 7.65
-3 -2 -6 266.29 6.92
-3 -2 -6 272.34 7.83
-3 -2 -6 287.17 8.07
-3 -2 -6 255.57 7.38
-3 -2 -7 1143.38 22.94
-3 -2 -7 1153.53 23.32
-3 -2 -7 1222 23.3
-3 -2 -7 1216.09 22.23
-3 -2 -7 1200.62 23.13
-3 -2 -7 1197.1 22.78
-3 -2 -7 1261 23.98
-3 -2 -7 1200.76 23.68
-3 -2 -7 1136.72 23.14
-3 -2 -8 654.01 14.33
-3 -2 -8 591.79 14.2
-3 -2 -8 646.2 14.1
-3 -2 -8 622.87 13.23
-3 -2 -8 612.76 14.12
-3 -2 -8 613.86 14.73
-3 -2 -8 559.43 14.23
-3 -2 -8 671.62 14.71
-3 -2 -9 76.34 3.91
-3 -2 -9 72.72 3.48
-3 -2 -9 77.1 3.37
-3 -2 -9 73.13 3.77
-3 -2 -9 65.4 3.81
-3 -2 -9 75.15 3.79
-3 -2 -10 3.72 0.93
-3 -2 -10 4.3 0.76
-3 -2 -10 4.72 1.06
-3 -2 -10 3.13 0.86
-3 -2 -10 3.07 0.84
-3 -2 -11 77.63 3.33
-3 -2 -11 86.37 3.79
-3 -2 -11 77 3.36
-3 -2 -11 85.63 3.52
-3 -2 -12 1.67 0.52
-3 -2 -12 1.84 0.48
-3 -2 -12 0.93 0.37
3 -1 -14 13.82 0.97
-3 -1 14 14.34 0.96
-3 -1 13 26.23 1.76
-3 -1 13 26.1 1.76
-3 -1 13 27.68 1.79
3 -1 -13 28.32 1.66
3 -1 -13 26.81 1.71
3 -1 -13 26.1 1.64
-3 -1 12 5.82 1.06
-3 -1 12 4.91 0.96
3 -1 -12 4.56 0.84
3 -1 -12 4.99 0.92
-3 -1 12 4.81 0.7
-3 -1 12 4.81 0.99
-3 -1 11 13.51 1.64
-3 -1 11 12.4 1.59
3 -1 -11 12.24 1.36
3 -1 -11 11.72 1.39
-3 -1 11 13.68 1.26
-3 -1 10 16.58 1.85
3 -1 -10 16.56 1.61
-3 -1 10 18.23 1.91
-3 -1 10 15.36 1.52
3 -1 -10 19.39 1.75
-3 -1 10 19.65 1.57
-3 -1 10 16.41 1.89
-3 -1 9 10.29 1.45
3 -1 -9 12.7 1.35
-3 -1 9 12.23 1.55
-3 -1 9 12.66 1.27
-3 -1 9 10.18 1.4
3 -1 -9 15.02 1.49
-3 -1 9 10.86 1.25
-3 -1 8 145.8 5.48
3 -1 -8 153.88 4.96
-3 -1 8 147.16 4.78
-3 -1 8 143.2 4.59
-3 -1 8 135.98 5.3
-3 -1 7 6.22 0.83
-3 -1 7 5.34 0.99
3 -1 -7 5.98 0.72
-3 -1 7 6.37 1.05
-3 -1 7 6.58 0.89
3 -1 -7 5.8 0.6
3 -1 -7 6.2 0.79
-3 -1 7 5.2 0.95
-3 -1 6 367.01 8.24
-3 -1 6 379.86 9.17
3 -1 -6 377.86 7.65
3 -1 -6 381.65 8.11
-3 -1 6 373.8 9.09
-3 -1 5 31.94 1.63
-3 -1 5 30.55 1.63
-3 -1 5 35.84 2.1
3 -1 -5 26.69 1.41
3 -1 -5 25.68 1.44
-3 -1 4 9.06 1
3 -1 -4 8 0.8
-3 -1 4 6.57 0.72
3 -1 -4 6.2 0.68
-3 -1 3 2344.82 40.18
-3 -1 3 2389.64 39.65
-3 -1 2 2155.7 37.67
-3 -1 2 2238.23 37.67
3 -1 -1 12.12 0.6
3 -1 -1 13.17 0.93
-3 -1 1 12.69 1.01
-3 -1 1 12.81 1.02
3 -1 0 1954.89 32.26
-3 -1 0 1910.64 32.34
-3 -1 0 1980.9 32.39
-3 -1 -1 1228.11 21.05
-3 -1 -1 1259.48 21.08
-3 -1 -1 1235.05 21.38
-3 -1 -2 64.42 2.45
-3 -1 -2 68.02 2.76
-3 -1 -3 297.36 6.78
3 -1 3 288.86 5.84
-3 -1 -4 7.07 0.93
-3 -1 -4 6.56 0.95
-3 -1 -4 7.25 0.86
-3 -1 -4 8.72 0.91
-3 -1 -4 6.77 0.92
3 -1 4 8.13 0.73
-3 -1 -4 7.39 1
-3 -1 -4 7.25 0.91
-3 -1 -4 8.21 1
-3 -1 -5 19.43 1.68
-3 -1 -5 22.04 1.55
-3 -1 -5 24.79 1.63
-3 -1 -5 20.53 1.72
3 -1 5 19.32 1.23
-3 -1 -5 19.05 1.61
-3 -1 -5 17.79 1.28
-3 -1 -5 27.16 1.84
-3 -1 -5 20.36 1.72
-3 -1 -5 20.29 1.79
-3 -1 -5 16.8 1.54
-3 -1 -6 141.77 5.22
-3 -1 -6 159.78 4.93
-3 -1 -6 161.76 4.93
-3 -1 -6 159.91 5.48
-3 -1 -6 141.12 4.2
-3 -1 -6 148.53 5.05
-3 -1 -6 136.11 5.05
3 -1 6 145.26 4.2
-3 -1 -6 143.3 4.43
-3 -1 -6 140.25 5.03
-3 -1 -6 154.4 5.58
-3 -1 -6 174.1 5.47
-3 -1 -6 139.61 5.22
-3 -1 -7 0.87 0.41
-3 -1 -7 1.11 0.54
-3 -1 -7 1 0.62
-3 -1 -7 1.22 0.67
-3 -1 -7 0.78 0.48
-3 -1 -7 0.48 0.5
-3 -1 -7 0.75 0.59
-3 -1 -7 1.21 0.52
-3 -1 -7 0.8 0.39
-3 -1 -7 1.14 0.56
3 -1 7 0.55 0.34
-3 -1 -7 0.73 0.53
-3 -1 -8 14.54 1.68
-3 -1 -8 18.33 1.88
-3 -1 -8 18.25 1.65
-3 -1 -8 15.83 1.41
-3 -1 -8 14.92 1.71
-3 -1 -8 13.04 1.75
-3 -1 -8 13.42 1.72
-3 -1 -8 16.54 1.82
-3 -1 -9 262.31 7.81
-3 -1 -9 250.26 6.74
-3 -1 -9 239.91 7.62
-3 -1 -9 223.65 7.76
-3 -1 -9 248.73 8.18
-3 -1 -9 239.59 7.65
-3 -1 -10 26.76 2.14
-3 -1 -10 24.87 1.74
-3 -1 -10 28.68 2.46
-3 -1 -10 27.49 2.24
-3 -1 -10 26.27 2.18
-3 -1 -11 0.94 0.5
-3 -1 -11 0.56 0.49
-3 -1 -11 0.83 0.48
-3 -1 -11 0.73 0.58
-3 -1 -12 0.84 0.38
-3 -1 -12 0.57 0.43
-3 -1 -12 0.38 0.31
-3 0 14 0.03 0.24
-3 0 14 0.1 0.23
-3 0 14 -0.03 0.25
3 0 -14 0.03 0.21
3 0 -14 0.1 0.23
3 0 -14 -0.09 0.2
-3 0 13 628.81 11.39
-3 0 13 626.87 13.05
-3 0 13 637.78 13
-3 0 13 631.29 13.03
3 0 -13 611.98 12.35
3 0 -13 669.74 12.85
3 0 -13 629.02 12.58
-3 0 12 -0.23 0.56
-3 0 12 -0.08 0.5
3 0 -12 0.12 0.41
-3 0 12 0.39 0.54
-3 0 12 -0.09 0.31
3 0 -12 -0.32 0.48
-3 0 11 900.01 18.67
-3 0 11 884.14 18.57
3 0 -11 858.99 17.52
-3 0 11 864.95 16.76
3 0 -11 873 17.69
3 0 -10 0.22 0.41
3 0 -10 0.14 0.36
-3 0 10 0.38 0.51
-3 0 10 0.09 0.61
-3 0 10 0.06 0.35
3 0 -10 0.28 0.37
-3 0 10 0.59 0.42
-3 0 10 0.2 0.5
-3 0 9 362.91 9.92
-3 0 9 370.04 8.63
3 0 -9 336.92 8.79
-3 0 9 346.94 8.64
-3 0 9 341.46 9.62
3 0 -9 346.14 8.75
-3 0 8 0.06 0.36
3 0 -8 0.06 0.36
-3 0 8 0.33 0.49
-3 0 8 0.17 0.36
-3 0 8 0.16 0.46
-3 0 7 91.13 3.36
-3 0 7 96.7 3.41
3 0 -7 97.39 2.89
-3 0 7 83.33 3.78
-3 0 7 85.28 3.83
-3 0 6 0.04 0.25
-3 0 6 0.06 0.37
-3 0 6 0.06 0.44
3 0 -6 0.07 0.19
-3 0 6 0.08 0.29
3 0 -6 0.48 0.27
-3 0 5 73.21 2.56
3 0 -5 78.52 2.41
3 0 -4 0.23 0.27
3 0 -4 0.18 0.2
-3 0 4 0.03 0.22
-3 0 4 -0.14 0.36
-3 0 3 398.69 7.72
3 0 -3 392.64 7.62
-3 0 3 395.95 8.48
3 0 -2 0.53 0.24
-3 0 2 0.22 0.33
-3 0 2 0.07 0.29
-3 0 1 198.88 4.71
-3 0 1 193.17 4.65
3 0 0 0.16 0.2
-3 0 0 0.64 0.34
-3 0 0 0.54 0.34
-3 0 -1 3978.41 63.28
-3 0 -1 3861.38 62.87
-3 0 -1 3898.03 62.9
-3 0 -1 3923.8 63.57
-3 0 -2 -0.04 0.29
-3 0 -2 0.11 0.3
-3 0 -2 0.05 0.34
-3 0 -3 732 13.96
-3 0 -3 729.16 13.43
-3 0 -4 0.51 0.31
-3 0 -4 0.4 0.38
-3 0 -4 3.4 0.67
-3 0 -4 0.17 0.26
-3 0 -4 1.38 0.49
-3 0 -4 0.42 0.37
-3 0 -4 3.42 0.67
-3 0 -4 4.07 0.8
-3 0 -5 3.38 0.79
-3 0 -5 3.6 0.71
-3 0 -5 3.56 0.82
-3 0 -5 3.25 0.63
-3 0 -5 3.19 0.75
-3 0 -5 2.71 0.68
-3 0 -5 3.56 0.68
-3 0 -5 3.79 0.76
3 0 5 2.62 0.54
-3 0 -5 3.27 0.73
-3 0 -6 0.42 0.3
-3 0 -6 0.16 0.43
-3 0 -6 0.15 0.43
-3 0 -6 0.08 0.44
-3 0 -6 0.62 0.52
-3 0 -6 0.31 0.44
-3 0 -6 0.12 0.36
-3 0 -6 0.07 0.39
-3 0 -6 0.06 0.31
-3 0 -6 0.07 0.41
3 0 6 0.34 0.32
-3 0 -6 0.57 0.47
-3 0 -7 676.67 15.55
-3 0 -7 757.23 15.05
-3 0 -7 743.16 15.72
-3 0 -7 678.9 14.06
3 0 7 791.18 14.55
-3 0 -7 746.36 15.72
-3 0 -7 676.99 15.32
-3 0 -7 641.99 15.68
-3 0 -7 655.66 15.58
-3 0 -7 815.23 15.6
-3 0 -8 0.29 0.55
-3 0 -8 -0.09 0.48
-3 0 -8 0.34 0.53
-3 0 -8 0.89 0.63
3 0 8 -0.24 0.38
-3 0 -8 0.06 0.37
-3 0 -8 0.5 0.54
-3 0 -8 0.62 0.63
-3 0 -9 1320.42 24.57
-3 0 -9 1238.83 23.98
-3 0 -9 1278.71 23.16
-3 0 -9 1229.24 24.34
-3 0 -9 1145.34 24.62
-3 0 -9 1111.58 24.43
-3 0 -9 1288.95 24.83
-3 0 -10 0.29 0.43
-3 0 -10 0.35 0.56
-3 0 -10 0.2 0.57
-3 0 -10 0.25 0.5
-3 0 -11 96.46 4.06
-3 0 -11 100.31 3.57
-3 0 -11 107.28 4.51
-3 0 -11 102.5 4.11
-3 0 -12 0.12 0.4
-3 0 -12 0.05 0.31
-3 0 -12 0.15 0.34
3 1 -14 13.82 0.95
-3 1 14 13.66 0.97
-3 1 13 24.38 1.28
-3 1 13 25.19 1.78
-3 1 13 25.98 1.79
-3 1 13 26.26 1.8
3 1 -13 27.15 1.61
3 1 -13 26.42 1.68
3 1 -13 28.55 1.68
-3 1 12 4.06 0.93
-3 1 12 7.26 1.16
3 1 -12 5.34 0.88
3 1 -12 4.5 0.87
-3 1 12 5.13 1.01
-3 1 12 6.11 0.82
-3 1 11 14.04 1.71
-3 1 11 12.09 1.59
3 1 -11 12.95 1.38
3 1 -11 12.4 1.43
-3 1 11 12.9 1.27
-3 1 10 16.17 1.85
3 1 -10 17.72 1.63
-3 1 10 18.94 1.99
3 1 -10 14.82 1.61
3 1 -10 19.29 1.73
-3 1 10 15.86 1.5
-3 1 10 18.16 1.56
-3 1 10 16.54 1.91
-3 1 9 14.72 1.7
3 1 -9 12.51 1.34
-3 1 9 15.57 1.76
3 1 -9 13.79 1.43
-3 1 9 12.65 1.3
-3 1 9 13.22 1.34
-3 1 9 14.54 1.69
-3 1 8 142.19 4.64
-3 1 8 148.73 4.59
3 1 -8 144.15 4.76
-3 1 8 135.63 5.27
3 1 -8 141.56 3.93
-3 1 7 5.73 0.86
-3 1 7 7.34 0.88
-3 1 7 7.24 1.12
3 1 -7 4.88 0.64
-3 1 7 5.39 0.97
-3 1 6 397.63 8.28
-3 1 6 424.65 9.57
-3 1 6 404.13 9.42
-3 1 5 29.07 1.62
-3 1 5 30.66 1.91
-3 1 5 27.65 1.41
3 1 -5 28.25 1.23
3 1 -5 27.97 1.48
-3 1 4 6.45 0.6
3 1 -4 5.58 0.68
3 1 -4 6.51 0.5
-3 1 4 6.36 0.84
-3 1 3 2576.67 40.88
3 1 -3 2524.98 40.64
-3 1 3 2595.1 42.16
3 1 -2 2083.96 35.92
3 1 -2 2158.46 34.69
-3 1 2 2141.61 35.99
3 1 -1 11.87 0.66
-3 1 1 12.6 0.99
-3 1 1 11.48 0.94
3 1 0 1934.13 31.27
-3 1 0 1853.82 32
-3 1 -1 1191.41 21.01
-3 1 -1 1213.89 21.06
-3 1 -1 1192.55 21.44
-3 1 -2 60.48 2.35
-3 1 -2 60.76 2.51
-3 1 -2 57.33 2.59
-3 1 -3 302.07 6.77
-3 1 -3 297.83 7.09
-3 1 -4 8.71 1.04
-3 1 -4 9.86 0.94
-3 1 -4 8.47 0.89
-3 1 -4 9.03 1.09
-3 1 -4 8.54 1.03
-3 1 -4 7.84 1.05
-3 1 -4 7.52 0.88
-3 1 -4 7.26 0.96
-3 1 -5 18.81 1.63
-3 1 -5 21.96 1.53
-3 1 -5 19.16 1.43
-3 1 -5 21.28 1.73
-3 1 -5 21.66 1.43
-3 1 -5 19.39 1.65
-3 1 -5 18.23 1.72
-3 1 -5 21.69 1.64
-3 1 -5 16.21 1.57
-3 1 -5 17.13 1.54
-3 1 -6 152.52 5.35
-3 1 -6 149.09 4.76
-3 1 -6 142.84 4.63
-3 1 -6 140.62 5.08
-3 1 -6 164.63 4.64
-3 1 -6 140 4
-3 1 -6 134.84 5.01
3 1 6 157 4.81
-3 1 -6 146.75 5.16
-3 1 -6 141.81 5.41
-3 1 -6 166.01 5.41
-3 1 -6 131.51 5.16
-3 1 -7 0.18 0.45
-3 1 -7 1.07 0.46
-3 1 -7 0.29 0.43
-3 1 -7 0.38 0.47
-3 1 -7 0.35 0.42
-3 1 -7 0.47 0.45
-3 1 -7 0.08 0.44
-3 1 -7 0.67 0.34
3 1 7 0.61 0.41
-3 1 -7 0.65 0.45
-3 1 -8 15.27 1.7
-3 1 -8 16.13 1.71
-3 1 -8 18.67 1.59
-3 1 -8 16.17 1.31
3 1 8 19.04 1.65
-3 1 -8 20.94 1.99
-3 1 -8 16.87 1.93
-3 1 -8 17.52 1.93
-3 1 -8 16.66 1.85
-3 1 -9 241.98 7.2
-3 1 -9 241.94 6.89
-3 1 -9 256.42 8.3
-3 1 -9 229.39 7.84
-3 1 -9 265.41 7.91
-3 1 -9 249.6 7.76
-3 1 -10 29.09 2.05
-3 1 -10 26.33 2.18
-3 1 -10 30.27 2.31
-3 1 -10 27.75 2.4
-3 1 -11 0.69 0.48
-3 1 -11 0.94 0.52
-3 1 -11 0.44 0.41
-3 1 -11 1.11 0.63
-3 1 -12 1.51 0.47
-3 1 -12 0.61 0.45
-3 1 -12 0.89 0.38
-3 2 13 58.95 2.07
-3 2 13 59.37 2.61
-3 2 13 57.73 2.54
-3 2 13 56.12 2.53
3 2 -13 60.86 2.33
3 2 -13 60.71 2.45
3 2 -13 57.52 2.32
-3 2 12 1.05 0.42
-3 2 12 1.4 0.6
-3 2 12 0.69 0.57
-3 2 12 1.11 0.58
3 2 -12 1.24 0.49
3 2 -12 1.07 0.49
3 2 -12 1.12 0.45
-3 2 11 490.1 12.04
-3 2 11 490.73 12.04
3 2 -11 519.67 11.25
3 2 -11 499.22 11.32
-3 2 11 504.23 12.23
-3 2 11 531.65 11.13
-3 2 10 750.31 15.04
-3 2 10 790.78 16.52
-3 2 10 752.52 16.36
3 2 -10 667.38 14.98
3 2 -10 749.63 15.08
3 2 -10 771.27 15.29
3 2 -10 678.55 15.03
3 2 -10 724.36 15.21
-3 2 10 745.04 16.48
-3 2 9 386.61 10.22
3 2 -9 369.08 9.04
-3 2 9 403.5 10.36
-3 2 9 384.89 8.91
3 2 -9 380.96 9.24
-3 2 9 376.7 9.22
-3 2 9 369.1 10.24
-3 2 8 15.79 1.48
-3 2 8 16.56 1.72
3 2 -8 15.79 1.4
-3 2 8 15.96 1.68
3 2 -8 17.78 1.54
-3 2 8 14.48 1.28
3 2 -8 14.57 1.18
-3 2 8 13.25 1.59
-3 2 7 12.89 1.44
-3 2 7 10.66 1.31
-3 2 7 10.89 1.02
3 2 -7 11.26 1.02
-3 2 7 13.01 1.45
-3 2 6 351.43 8.07
-3 2 6 373.88 8.72
-3 2 6 338.08 8.48
-3 2 6 327.42 7.26
3 2 -6 337.2 7.5
-3 2 6 372.53 8.84
-3 2 5 295.77 6.78
-3 2 5 324.28 7.45
-3 2 5 298.18 7.21
-3 2 5 265.52 5.88
-3 2 5 303.88 7.3
3 2 -5 255 6.23
-3 2 4 41.02 1.44
3 2 -4 37.58 1.78
-3 2 4 41.72 2.08
-3 2 3 251 4.65
-3 2 3 255.36 6.02
-3 2 3 240.98 5.87
3 2 -2 13.79 1.04
-3 2 2 14.87 1.09
-3 2 2 13.75 1.06
3 2 -1 270.63 6.12
-3 2 1 290.36 6.28
-3 2 1 284.98 6.25
3 2 0 54.02 2.09
-3 2 0 57.66 2.17
-3 2 0 55.87 2.11
-3 2 -1 55.52 2.15
3 2 1 54.85 2.11
-3 2 -1 52.82 2.29
-3 2 -2 262.55 6.18
3 2 2 284.73 6.06
-3 2 -2 293.21 6.99
-3 2 -2 261.03 6.53
-3 2 -3 581.59 11
-3 2 -3 528.6 11.28
3 2 3 555.5 10.41
3 2 3 555.03 10.18
-3 2 -3 525.91 11.55
-3 2 -4 259.29 7.27
-3 2 -4 277.94 7.27
-3 2 -4 281.71 6.62
-3 2 -4 282.8 7.39
-3 2 -4 297.91 6.74
-3 2 -4 285.67 7.32
3 2 4 298.41 6.02
-3 2 -4 326.41 7.14
-3 2 -4 272.85 7.19
-3 2 -5 120.88 4.44
-3 2 -5 112.35 3.81
-3 2 -5 124.41 4.42
-3 2 -5 118.65 3.89
-3 2 -5 111.18 3.48
-3 2 -5 110.52 4.24
-3 2 -5 124.33 4.71
-3 2 -5 108.89 4.37
-3 2 -5 104.73 3.43
-3 2 -5 118.27 4.32
-3 2 -6 253.14 7.44
-3 2 -6 256.61 6.8
-3 2 -6 266.61 7.37
-3 2 -6 251.9 7.37
3 2 6 302.07 7.32
-3 2 -6 266.41 6.33
-3 2 -6 257.61 6.62
-3 2 -6 298.48 7.55
-3 2 -6 252.62 7.73
-3 2 -6 251.75 7.61
-3 2 -6 246.2 6.22
-3 2 -6 251.44 7.28
-3 2 -7 1141.06 22.79
-3 2 -7 1104.3 22.69
3 2 7 1203.59 22.27
-3 2 -7 1175.61 21.19
-3 2 -7 1211.86 22.47
-3 2 -7 1165.91 23.48
-3 2 -7 1101.14 23.07
-3 2 -7 1135 22.93
-3 2 -8 636.95 14.31
3 2 8 630.95 13.51
-3 2 -8 624.22 14.22
-3 2 -8 650.53 13.36
-3 2 -8 617.14 12.76
-3 2 -8 631.57 14.85
-3 2 -8 644.21 14.53
-3 2 -9 69.13 3
-3 2 -9 78.77 3.51
-3 2 -9 69.18 3.87
-3 2 -9 72.77 3.71
-3 2 -9 79.53 3.89
-3 2 -10 4.76 0.89
-3 2 -10 3.85 1
-3 2 -10 3.35 0.84
-3 2 -10 4.23 0.93
-3 2 -11 86.22 3.34
-3 2 -11 85.25 3.51
-3 2 -11 84.3 3.46
-3 2 -11 84.88 3.72
-3 2 -12 1.14 0.43
-3 2 -12 1.04 0.44
-3 2 -12 0.87 0.36
-3 3 13 31.79 1.36
-3 3 13 24.27 1.38
-3 3 13 24.31 1.34
-3 3 13 26.26 1.4
3 3 -13 28.29 1.31
3 3 -13 24.37 1.28
3 3 -13 20.78 1.14
-3 3 12 15.77 1.22
-3 3 12 14.53 1.37
-3 3 12 12.75 1.28
-3 3 12 14.2 1.34
3 3 -12 13.7 1.14
3 3 -12 13.92 1.21
3 3 -12 12.77 1.12
-3 3 11 0.94 0.58
-3 3 11 1.31 0.61
3 3 -11 1.71 0.52
-3 3 11 1.47 0.64
-3 3 11 1.42 0.51
3 3 -11 1.26 0.55
3 3 -10 145.84 4.18
-3 3 10 152.01 5.54
-3 3 10 150.35 5.52
3 3 -10 159.08 4.93
-3 3 10 156.29 5.67
-3 3 10 158.35 5.16
3 3 -10 144.94 4.87
-3 3 9 202.1 6.17
-3 3 9 216.62 6.85
-3 3 9 218.69 6.8
3 3 -9 203.38 5.83
-3 3 9 206.14 6.66
3 3 -9 184.05 5.81
3 3 -9 202.04 5.85
3 3 -9 198.74 5.4
-3 3 9 206.49 6.78
-3 3 8 935.87 18.46
-3 3 8 852.08 17.49
-3 3 8 944.41 18.38
3 3 -8 855.84 16.87
-3 3 8 887.52 18.19
3 3 -8 886.53 17.17
3 3 -8 860.2 16.6
-3 3 8 918.57 18.39
-3 3 7 162.33 5.46
-3 3 7 172.56 5.53
-3 3 7 150.95 5.27
3 3 -7 161.32 4.8
3 3 -7 146.05 4.52
-3 3 7 168.74 5.58
-3 3 6 28.61 1.96
-3 3 6 27.99 1.95
-3 3 6 26.68 1.82
-3 3 6 24.02 1.82
3 3 -6 27.37 1.65
-3 3 6 30.62 2.02
-3 3 5 0.87 0.42
-3 3 5 0.61 0.37
-3 3 5 0.05 0.26
-3 3 5 0.96 0.46
3 3 -5 0.04 0.24
-3 3 4 427.15 9.12
-3 3 4 413.31 9
-3 3 3 843.74 15.69
-3 3 3 875.26 15.52
-3 3 3 841.5 15.45
3 3 -2 4.51 0.63
-3 3 2 6.14 0.74
-3 3 2 4.07 0.6
-3 3 2 4.33 0.61
3 3 -1 3883.05 61
-3 3 1 3881.63 61.08
-3 3 1 3771.43 60.99
-3 3 1 3797.02 60.88
-3 3 0 147.47 4.34
3 3 0 143.84 3.74
-3 3 0 132.34 3.65
-3 3 0 138.66 3.71
-3 3 -1 21.22 1.55
3 3 1 20.63 1.18
-3 3 -1 19.19 1.21
-3 3 -2 2.79 0.56
3 3 2 1.12 0.3
-3 3 -2 2.22 0.59
-3 3 -2 2.31 0.59
-3 3 -2 2.31 0.5
-3 3 -3 14.48 1.26
-3 3 -3 9.66 0.97
-3 3 -3 12.4 1.05
3 3 3 11.44 0.92
-3 3 -3 13.31 1.31
-3 3 -4 196.03 6.02
-3 3 -4 212.85 6
-3 3 -4 220.57 5.48
-3 3 -4 222.38 5.49
-3 3 -4 222.27 5.46
-3 3 -4 212.77 5.61
-3 3 -4 207.77 6.03
3 3 4 211.05 5.1
-3 3 -4 198.76 5.45
-3 3 -4 215.39 6.02
-3 3 -5 4.31 0.89
-3 3 -5 8.64 1.1
-3 3 -5 3.88 0.87
-3 3 -5 4.52 0.85
-3 3 -5 6.17 0.85
-3 3 -5 7.45 0.9
-3 3 -5 6.47 0.87
-3 3 -5 5.46 0.76
-3 3 -5 4.92 0.89
3 3 5 4.78 0.65
-3 3 -5 5.32 0.8
-3 3 -5 4.06 0.79
-3 3 -6 193.42 6.12
-3 3 -6 185.25 5.4
-3 3 -6 187.22 5.18
-3 3 -6 178.75 5.4
-3 3 -6 185.16 5.98
-3 3 -6 169.33 6.15
-3 3 -6 217.1 5.98
-3 3 -6 173.25 6.1
-3 3 -6 191.37 5.39
-3 3 -6 200.76 6.13
-3 3 -7 52.53 3
-3 3 -7 49.62 2.51
-3 3 -7 53.6 3.02
3 3 7 52.28 2.92
-3 3 -7 51.87 2.64
-3 3 -7 53.84 2.56
-3 3 -7 52.38 3.22
-3 3 -7 51.42 3.15
-3 3 -7 52.25 3.05
-3 3 -8 253.71 6.66
-3 3 -8 276.92 7.76
3 3 8 266.5 7.44
-3 3 -8 259.91 7.62
-3 3 -8 252.45 7.03
-3 3 -8 279.94 7.05
-3 3 -8 262.4 8.06
-3 3 -8 231.6 7.64
-3 3 -8 264 7.77
-3 3 -9 89.22 3.5
-3 3 -9 79.89 3.72
-3 3 -9 78.11 3.03
-3 3 -9 78.4 3.67
-3 3 -9 74.99 3.87
-3 3 -10 123.75 4.51
-3 3 -10 122.74 4.42
-3 3 -10 127.51 4.81
-3 3 -11 6.66 0.89
-3 3 -11 5.77 0.89
-3 3 -11 7.02 0.85
3 4 -13 88.55 2.46
-3 4 12 0.03 0.09
-3 4 12 0.03 0.12
-3 4 11 4.49 0.77
-3 4 11 2.57 0.64
-3 4 11 2.07 0.56
-3 4 11 2.67 0.64
3 4 -11 2.2 0.52
3 4 -11 3.74 0.66
3 4 -11 3.07 0.58
3 4 -10 0.56 0.31
-3 4 10 0.77 0.47
-3 4 10 1.38 0.54
3 4 -10 0.39 0.31
-3 4 10 0.97 0.53
-3 4 10 1.32 0.58
3 4 -10 0.63 0.38
-3 4 9 4.79 0.89
3 4 -9 7.11 0.88
-3 4 9 5.55 0.99
3 4 -9 4.89 0.77
-3 4 9 7.41 1.11
-3 4 9 7.25 1.11
3 4 -9 4.92 0.84
3 4 -8 598.54 12.05
-3 4 8 610.14 13.05
-3 4 8 603.47 13.04
-3 4 8 595.47 13.03
3 4 -8 591 12.14
3 4 -8 618.39 12.37
-3 4 7 594.47 12.67
3 4 -7 603.32 11.76
-3 4 7 635.86 12.88
-3 4 7 565.21 12.66
3 4 -7 566.39 11.79
3 4 -7 606.34 12.21
-3 4 7 551.2 12.33
-3 4 7 573.61 12.57
-3 4 6 160.7 5.1
-3 4 6 156.2 4.92
3 4 -6 140.58 4.51
-3 4 6 141.6 5.01
-3 4 6 159.46 4.91
-3 4 6 152.21 5.19
-3 4 6 153.74 4.8
-3 4 6 151.82 4.81
-3 4 5 779.47 15.47
-3 4 5 804.73 15.24
-3 4 5 823.94 15.98
-3 4 5 770.81 15.08
-3 4 5 792.29 15.17
-3 4 5 771.45 15.09
-3 4 4 148.28 4.54
-3 4 4 146.98 4.79
3 4 -4 145.13 4.32
-3 4 4 153.16 4.88
-3 4 4 147.29 4.3
-3 4 4 149.91 4.3
-3 4 3 54.23 2.37
-3 4 3 61.96 2.96
-3 4 3 58.32 2.32
-3 4 3 56.03 2.27
-3 4 3 55.23 2.58
3 4 -3 52.74 2.28
-3 4 2 34.46 2.16
-3 4 2 36.22 1.67
-3 4 2 33.51 1.6
-3 4 2 32.05 1.77
-3 4 2 34.95 1.92
3 4 -2 32.97 1.7
-3 4 1 225.68 5.14
-3 4 1 220.15 5.13
-3 4 1 213.76 6.05
-3 4 1 240.17 6.09
3 4 -1 238 5.42
-3 4 1 232.98 5.69
-3 4 0 121.45 4.33
-3 4 0 137.74 4.38
-3 4 0 129.95 3.47
-3 4 0 141.85 4.5
3 4 0 121.65 3.46
-3 4 0 122.56 3.63
-3 4 -1 110.17 4.02
-3 4 -1 117.46 4.21
3 4 1 110.88 3.11
-3 4 -1 103.59 3.15
-3 4 -1 116 3.97
-3 4 -2 22.48 1.69
-3 4 -2 22.64 1.45
-3 4 -2 19.09 1.42
-3 4 -2 23.62 1.85
3 4 2 24.2 1.49
3 4 2 21.47 1.13
-3 4 -2 20.35 1.57
-3 4 -2 22.22 1.32
-3 4 -3 505.45 10.98
-3 4 -3 524.16 11.21
-3 4 -3 516.22 10.69
-3 4 -3 493.74 10.62
-3 4 -3 521.31 10.51
3 4 3 488.27 10.28
-3 4 -3 490.55 10.92
-3 4 -4 22.88 1.77
-3 4 -4 23.24 1.67
-3 4 -4 15.17 1.2
-3 4 -4 17.06 1.49
-3 4 -4 25.12 1.5
-3 4 -4 16.61 1.37
3 4 4 17 1.29
-3 4 -4 16.9 1.48
-3 4 -5 390.42 9.76
-3 4 -5 373.88 9.56
-3 4 -5 404.19 8.81
-3 4 -5 380.83 8.73
-3 4 -5 410.02 9.07
-3 4 -5 399.06 9.4
-3 4 -5 413.77 9.55
3 4 5 409.92 8.88
-3 4 -5 384.88 9.24
-3 4 -6 970.94 19.16
-3 4 -6 1017.16 18.73
-3 4 -6 966.43 18.33
-3 4 -6 953.02 19.6
-3 4 -6 923.85 19.35
-3 4 -6 1016.93 19.06
-3 4 -6 1023.59 19.2
-3 4 -7 384.5 9.4
3 4 7 387.75 9.67
-3 4 -7 374.22 8.85
-3 4 -7 371.41 8.71
-3 4 -7 367.66 8.93
-3 4 -7 363.17 9.16
-3 4 -8 22.87 1.87
-3 4 -8 27.08 1.91
-3 4 -8 24.14 1.79
-3 4 -8 22.91 2
-3 4 -8 24.8 1.8
-3 4 -8 24.36 1.88
-3 4 -9 33.64 2.17
-3 4 -9 37.37 2.17
-3 4 -9 39.18 2.29
-3 4 -9 35.85 2.35
-3 4 -9 33.25 2.08
-3 4 -9 37.61 2.06
-3 4 -10 4.32 0.76
-3 4 -10 5.64 0.85
-3 4 -10 4.34 0.72
-3 4 -11 65.49 2.55
3 5 -12 52.02 1.92
-3 5 12 53.55 2.01
-3 5 11 1.58 0.5
3 5 -10 113.05 3.45
-3 5 10 112.22 4.1
3 5 -9 0.48 0.35
3 5 -8 9.71 1.12
3 5 -8 9.66 1.07
-3 5 8 11.21 1.34
-3 5 7 586.96 12.79
3 5 -7 572.67 11.89
3 5 -7 568.15 12.05
-3 5 7 541.3 12.78
-3 5 6 563.2 12.54
-3 5 6 531.5 12.73
-3 5 5 1299.92 23.49
3 5 -5 1298.8 22.94
-3 5 4 7.68 1.13
-3 5 4 6.27 0.91
-3 5 4 6.32 0.81
3 5 -4 5.7 0.82
-3 5 4 5.88 0.96
-3 5 4 9.31 1.2
-3 5 3 114.09 4.58
-3 5 3 118.25 3.94
-3 5 3 106.68 3.62
3 5 -3 121.21 3.85
-3 5 3 119.78 4.3
-3 5 3 123.41 4.58
-3 5 2 8.09 1.14
-3 5 2 8.65 1.23
3 5 -2 9.3 0.94
-3 5 2 8.77 1.02
-3 5 2 9.18 1.05
-3 5 1 37.86 1.98
3 5 -1 37.62 1.84
-3 5 1 39.88 2.3
-3 5 1 36.19 2.03
3 5 0 9.17 0.84
-3 5 0 7.73 1.12
-3 5 0 9.2 0.97
3 5 0 9.47 0.86
-3 5 0 8.96 1.15
3 5 0 9.88 1
-3 5 0 8.16 0.88
-3 5 0 8.38 0.96
-3 5 -1 295.7 7.09
-3 5 -1 305.85 7.09
-3 5 -1 294.21 7.83
3 5 1 275.44 6.24
-3 5 -1 301.77 8.14
3 5 1 310.65 7.2
-3 5 -1 286.11 7.97
-3 5 -2 149.54 4.5
-3 5 -2 147.04 4.55
-3 5 -2 145.05 5.07
-3 5 -2 162.74 5.75
3 5 2 159.26 4.7
-3 5 -2 156.5 5.36
-3 5 -3 70.73 2.97
-3 5 -3 74.07 2.97
-3 5 -3 73.58 3.44
-3 5 -3 70.95 3.72
3 5 3 76.39 3.09
-3 5 -3 70.02 3.41
-3 5 -4 1106.5 19.88
-3 5 -4 1124.86 19.97
-3 5 -4 1081.58 20.88
3 5 4 1037.42 20.04
-3 5 -4 1045.4 20.78
-3 5 -5 1.9 0.61
-3 5 -5 1.31 0.5
-3 5 -5 1.8 0.66
3 5 5 1.2 0.46
-3 5 -5 1.72 0.55
-3 5 -6 26.64 2.04
-3 5 -6 29.85 1.93
-3 5 -7 0.35 0.37
-3 5 -7 0.07 0.37
-3 5 -7 0.12 0.38
-3 5 -8 21.95 1.72
-3 5 -8 20.68 1.64
-3 5 -8 22.13 1.65
-3 5 -9 3.81 0.74
-3 5 -9 3.52 0.67
-3 5 -9 3.05 0.71
-3 5 -10 0.58 0.38
-3 5 -10 0.06 0.11
-3 5 -11 150.74 3.76
3 6 -11 33.92 1.52
-3 6 11 41.5 1.83
3 6 -10 0.77 0.32
3 6 -10 1.49 0.42
3 6 -9 35.07 1.91
3 6 -9 38.21 2.02
-3 6 9 38.27 2.3
3 6 -8 95.63 3.47
3 6 -8 95.84 3.5
-3 6 8 88.32 3.88
3 6 -7 905.23 17.15
3 6 -7 902.62 17.39
-3 6 7 931.3 18.38
3 6 -6 476.53 10.94
-3 6 6 502.06 11.59
3 6 -5 99.33 3.75
3 6 -5 107.54 3.96
3 6 -5 99.09 3.54
-3 6 5 101.14 4.4
-3 6 5 107.48 4.2
3 6 -4 1.45 0.47
-3 6 4 1.16 0.62
3 6 -4 0.96 0.47
3 6 -4 1.03 0.42
-3 6 4 1.06 0.53
-3 6 4 2.6 0.76
-3 6 4 1.26 0.5
-3 6 3 26.18 2.25
3 6 -3 30.38 1.84
-3 6 3 29.93 1.92
3 6 -3 32.62 1.91
3 6 -3 27.92 1.82
-3 6 3 28.59 2.11
-3 6 3 30.83 2.32
-3 6 2 10.32 1.07
-3 6 2 13.69 1.58
-3 6 2 11.63 1.27
3 6 -2 12.3 1.13
3 6 -2 11.37 1.16
-3 6 2 11.72 1.28
3 6 -2 13.62 1.19
-3 6 2 12.77 1.57
3 6 -1 21.11 1.45
-3 6 1 21.34 2.03
-3 6 1 22.06 2.02
-3 6 1 23.21 1.59
-3 6 1 22.46 1.87
3 6 -1 21.3 1.43
3 6 -1 22.53 1.64
-3 6 1 23.21 1.71
-3 6 1 21.72 1.55
-3 6 0 20.97 1.54
-3 6 0 24.07 1.63
3 6 0 22.78 1.45
-3 6 0 20.93 1.89
3 6 0 22.65 1.39
-3 6 0 22.52 1.55
-3 6 -1 55.36 2.56
-3 6 -1 61.17 2.69
-3 6 -1 61.37 3.41
3 6 1 57.68 2.77
-3 6 -1 58.5 3.34
-3 6 -2 96.8 3.58
-3 6 -2 101.14 3.68
-3 6 -2 111.54 4.56
-3 6 -2 111.7 4.86
3 6 2 98.78 3.83
-3 6 -2 103.31 4.51
-3 6 -3 37.67 2.09
-3 6 -3 30.76 1.92
-3 6 -3 34.59 2.45
-3 6 -3 37.86 2.81
3 6 3 35.31 2.2
-3 6 -3 32.54 2.44
-3 6 -4 2.25 0.69
-3 6 -4 0.97 0.6
-3 6 -4 1.61 0.54
-3 6 -4 1.61 0.69
3 6 4 3.21 0.74
-3 6 -4 1.32 0.51
-3 6 -5 1380.45 24.29
-3 6 -5 1488.29 24.79
-3 6 -5 1366.61 25.7
3 6 5 1225.07 24.65
-3 6 -5 1318.36 25.28
-3 6 -6 202.17 5.58
-3 6 -6 205.11 5.83
-3 6 -6 192.25 6.27
-3 6 -6 189.19 5.76
-3 6 -7 2.05 0.65
-3 6 -7 1.78 0.68
-3 6 -7 3.01 0.65
-3 6 -8 6.1 0.92
-3 6 -8 6.7 0.88
-3 6 -9 9.83 0.97
-3 6 -9 9.95 1.01
-3 6 -9 10.67 1
-3 6 -10 12.68 0.9
3 7 -10 18.71 1.06
-3 7 10 20.99 1.3
3 7 -9 104.19 3.35
-3 7 9 107.2 3.65
3 7 -8 102.07 3.56
-3 7 8 96.09 3.74
3 7 -7 4.76 0.8
-3 7 7 5.57 0.96
-3 7 6 12.27 1.38
3 7 -5 434.1 9.67
-3 7 5 416.09 10.34
3 7 -4 372.79 8.59
-3 7 4 373.36 9.85
3 7 -4 339.69 8.13
3 7 -4 342.63 8.38
-3 7 4 338.35 9.21
-3 7 4 382.32 9.7
-3 7 4 334.89 8.53
3 7 -3 7.76 1
-3 7 3 9.12 1.4
3 7 -3 5.78 0.87
3 7 -3 4.99 0.8
-3 7 3 4.47 0.9
-3 7 3 5.72 1.09
-3 7 3 4.05 0.75
-3 7 2 -0.09 0.49
3 7 -2 0.05 0.25
3 7 -2 -0.06 0.27
-3 7 2 0.07 0.34
-3 7 2 -0.1 0.51
3 7 -2 0.27 0.36
-3 7 1 163.07 4.66
-3 7 1 164.86 5.8
3 7 -1 151.81 5.02
-3 7 1 148.17 4.91
3 7 -1 163.77 4.86
-3 7 1 153.61 6.01
-3 7 0 179.88 5
-3 7 0 167.15 6.17
-3 7 0 176.58 6.23
3 7 0 167.97 5.37
3 7 0 162.61 4.93
-3 7 0 170.8 6.36
-3 7 -1 2.11 0.59
-3 7 -1 2.48 0.78
3 7 1 3.33 0.75
-3 7 -1 3.04 0.86
-3 7 -2 136.69 4.38
-3 7 -2 125.67 5.34
-3 7 -2 142.55 5.77
3 7 2 143.5 5
-3 7 -3 11.04 1.07
-3 7 -3 11.97 1.2
-3 7 -3 10.52 1.54
3 7 3 10.05 1.28
-3 7 -3 9.52 1.38
-3 7 -4 1.5 0.57
-3 7 -4 0.67 0.61
-3 7 -4 0.51 0.35
-3 7 -4 0.42 0.49
-3 7 -5 37.15 2.54
-3 7 -5 45.68 2.17
-3 7 -5 43.1 2.32
-3 7 -5 36.85 2.43
-3 7 -6 496.67 11.3
-3 7 -6 481.47 9.94
-3 7 -6 496.63 10.57
-3 7 -7 254.41 6.86
-3 7 -7 262.02 6.57
-3 7 -7 250.83 6
-3 7 -8 20.3 1.44
-3 7 -8 21.72 1.27
-3 7 -8 20.47 1.41
-3 7 -9 10.49 0.83
3 8 -9 111.18 3.06
-3 8 9 106.4 3.04
3 8 -8 462.34 9.24
-3 8 8 426.17 9.07
-3 8 7 18.94 1.42
3 8 -6 22.09 1.64
-3 8 6 22.71 1.63
3 8 -5 22.78 1.7
-3 8 5 22 1.81
-3 8 5 25.21 1.73
3 8 -4 56.68 2.76
-3 8 4 56.96 3.09
-3 8 4 58.6 2.64
-3 8 3 109.91 4.55
-3 8 3 105.65 4.68
3 8 -3 107.64 4
-3 8 2 15.03 1.69
3 8 -2 15.99 1.42
-3 8 2 13.67 1.69
-3 8 1 -0.09 0.54
3 8 -1 0.78 0.43
-3 8 1 0.1 0.52
-3 8 0 230.29 7.36
-3 8 0 228.81 5.62
-3 8 0 237.98 7.69
3 8 0 217.82 5.97
-3 8 -1 44.63 2.93
-3 8 -1 44.75 2.16
-3 8 -2 12.99 1.6
-3 8 -2 15.04 1.25
-3 8 -2 16.62 1.79
-3 8 -3 15.96 1.7
-3 8 -3 16.47 1.32
-3 8 -3 18.12 1.83
-3 8 -4 0.2 0.34
-3 8 -4 1.35 0.63
-3 8 -5 1.54 0.5
-3 8 -5 2.02 0.6
-3 8 -6 109.22 3.57
-3 8 -6 112.06 3.2
-3 8 -7 33.61 1.71
-3 8 -7 32.83 1.81
3 8 7 29.77 1.54
-3 8 -8 43.51 1.75
3 9 -6 1.52 0.46
-3 9 6 -0.03 0.1
3 9 -5 25.38 1.66
3 9 -4 13.27 1.23
-3 9 4 14.17 1.31
3 9 -3 0.59 0.41
-3 9 3 0.31 0.39
3 9 -2 281.46 7.02
-3 9 2 282.24 7.95
-3 9 2 280.66 7.54
3 9 -1 117.17 3.92
-3 9 1 120.79 4.84
-3 9 1 117.89 4.48
-3 9 0 5.86 1.09
-3 9 0 6.56 1.06
-3 9 -1 -0.07 0.51
-3 9 -2 0.45 0.45
-3 9 -2 0.83 0.55
-3 9 -3 9.34 0.87
-3 9 -3 10.31 1.26
-3 9 -3 8.67 1.16
-3 9 -4 75.97 2.56
-3 9 -4 73.11 3.08
-3 9 -4 72.14 3.12
-3 9 -5 41.09 1.75
-3 9 -5 37.28 1.83
-3 9 -6 16.93 1
3 10 -5 22.93 1.28
3 10 -4 128.82 3.67
3 10 -3 26.32 1.49
-3 10 2 23.3 1.44
3 10 -2 22.4 1.34
-3 10 1 2.76 0.58
-3 10 0 42.56 2.08
-3 10 0 51.27 2.48
-3 10 -1 24.21 1.51
-3 10 -1 24.2 1.66
-3 10 -2 70.56 2.66
-3 10 -3 75.21 2.64
-3 10 -3 75.12 2.71
-3 10 -4 9.51 0.81
4 -10 -4 90.82 2.35
4 -10 -3 91.66 2.44
-4 -10 3 80.05 2.49
4 -10 -2 76.14 2.21
-4 -10 0 129.79 3.49
-4 -10 -1 82.37 2.52
4 -9 -7 37.46 1.33
-4 -9 6 52.56 1.91
4 -9 -6 56.5 1.81
4 -9 -5 30.98 1.35
-4 -9 5 32.75 1.67
4 -9 -5 35.04 1.61
-4 -9 5 29.48 1.34
4 -9 -4 27.41 1.28
-4 -9 4 28.17 1.69
-4 -9 4 27.11 1.42
-4 -9 3 93.09 3.13
-4 -9 3 91.36 2.64
-4 -9 2 102.1 3.79
-4 -9 2 101.84 3.36
4 -9 -1 1.72 0.46
-4 -9 1 1.01 0.41
-4 -9 0 268.61 6.52
-4 -9 0 269.72 6.61
-4 -9 -1 7.89 0.9
-4 -9 -1 8.89 1
-4 -9 -1 8.15 1.03
-4 -9 -2 5.25 0.74
-4 -9 -2 4.53 0.77
-4 -9 -2 5.9 0.87
-4 -9 -3 31.55 1.7
-4 -9 -3 28.45 1.74
-4 -9 -3 29.27 1.69
-4 -9 -4 62.42 2.37
-4 -9 -4 61.28 2.48
-4 -9 -5 14.04 0.95
-4 -9 -5 12.93 0.96
4 -8 -8 272.57 5.64
4 -8 -8 278.24 5.9
4 -8 -7 50.38 2.05
-4 -8 7 48.04 1.98
4 -8 -7 47.52 1.93
-4 -8 7 44.9 1.81
-4 -8 6 15.69 1.27
4 -8 -6 17.8 1.24
-4 -8 6 17.06 1.21
4 -8 -5 17.38 1.26
-4 -8 5 15.86 1.4
4 -8 -5 19.58 1.37
-4 -8 5 16.58 1.3
4 -8 -4 17.45 1.3
-4 -8 4 18.24 1.58
4 -8 -4 16.94 1.33
-4 -8 4 16.27 1.34
4 -8 -3 8.95 0.93
-4 -8 3 7.6 1.12
4 -8 -3 8.24 0.95
-4 -8 3 7 0.93
4 -8 -2 314.46 7.16
-4 -8 2 308.1 7.77
-4 -8 2 322.74 8.49
4 -8 -2 334.74 7.65
4 -8 -1 94.34 3.11
-4 -8 1 87.72 3.62
-4 -8 1 96.66 3.74
-4 -8 1 97 4.16
-4 -8 0 1.05 0.53
-4 -8 0 0.41 0.44
4 -8 0 0.52 0.36
4 -8 0 0.03 0.14
-4 -8 -1 82.51 3.72
-4 -8 -1 87.7 3.56
-4 -8 -2 73.89 3.21
-4 -8 -2 69.42 3.09
-4 -8 -2 67.51 3.39
-4 -8 -2 67.55 3.29
-4 -8 -3 175.95 5.37
-4 -8 -3 179.94 5.42
-4 -8 -3 182.88 5.88
-4 -8 -3 176.53 5.55
-4 -8 -4 5.2 0.86
-4 -8 -4 6.3 1.02
-4 -8 -4 5.89 0.92
-4 -8 -4 5.22 0.87
-4 -8 -5 15.72 1.35
-4 -8 -6 50.6 2.28
-4 -8 -6 50.61 2.25
-4 -8 -7 3.07 0.48
-4 -8 -7 3.14 0.45
4 -7 -10 9.08 0.72
4 -7 -9 78.04 2.38
4 -7 -9 83.02 2.75
-4 -7 9 75.34 2.38
4 -7 -8 5.01 0.73
4 -7 -8 5.41 0.66
-4 -7 8 6.64 0.77
4 -7 -7 285.98 6.5
-4 -7 7 278.88 6.73
-4 -7 6 0.23 0.33
4 -7 -6 0.37 0.4
-4 -7 6 0.66 0.42
4 -7 -5 218.2 5.98
-4 -7 5 204.29 6.19
-4 -7 5 212.81 6.1
4 -7 -4 7.07 0.96
-4 -7 4 7.02 1.11
4 -7 -4 7.09 0.94
-4 -7 4 7.25 1.02
4 -7 -3 99.67 3.72
-4 -7 3 107.17 4.41
4 -7 -3 111.75 3.84
-4 -7 3 105.63 4.11
-4 -7 2 8.2 1.12
4 -7 -2 9.16 1.04
-4 -7 2 9.2 1.18
-4 -7 1 50.29 2.92
-4 -7 1 53.16 3.1
4 -7 -1 58.4 2.62
-4 -7 1 61.64 3.06
-4 -7 0 79.89 3.83
-4 -7 0 78.37 3.55
-4 -7 0 77.18 3.82
4 -7 0 82.1 3.13
-4 -7 0 75.46 3.49
4 -7 1 1.96 0.52
-4 -7 -1 1.52 0.64
-4 -7 -1 1.06 0.57
-4 -7 -2 458.39 11.56
-4 -7 -2 445.37 11.11
-4 -7 -2 475.19 10.92
-4 -7 -3 297.55 8.3
-4 -7 -3 296.63 8.64
-4 -7 -3 302.25 8.47
-4 -7 -4 221.36 6.71
-4 -7 -4 216.61 6.88
-4 -7 -4 219.54 7.04
-4 -7 -5 69.16 3.05
-4 -7 -5 71.45 3.35
-4 -7 -5 67.92 3.27
-4 -7 -6 295.96 6.21
-4 -7 -6 296.43 6.47
-4 -7 -7 231.62 4.67
-4 -7 -7 220.71 5.04
-4 -7 -8 7.32 0.73
-4 -7 -8 8.19 0.86
4 -6 -10 37.18 1.5
4 -6 -10 43.81 1.91
4 -6 -9 91.48 2.93
4 -6 -9 94.2 3.29
4 -6 -8 211.92 4.28
4 -6 -8 208.69 4.76
-4 -6 7 86.73 3.41
4 -6 -7 94.11 3.36
4 -6 -7 94.4 3.63
-4 -6 6 0.75 0.45
4 -6 -5 47.09 2.39
-4 -6 5 52.31 2.8
-4 -6 4 0.36 0.4
4 -6 -4 0.34 0.37
4 -6 -4 1.12 0.48
-4 -6 3 90.06 3.92
-4 -6 3 79.55 3.58
4 -6 -3 75.18 3.71
4 -6 -3 88.21 3.33
-4 -6 2 29.8 2.24
4 -6 -2 26.99 1.97
-4 -6 2 33.44 2.24
-4 -6 2 28.39 2.11
4 -6 -2 31.57 2.33
4 -6 -2 33.18 1.92
-4 -6 1 0.08 0.41
4 -6 -1 1.61 0.53
-4 -6 1 0.28 0.45
-4 -6 1 1.1 0.6
4 -6 -1 0.16 0.38
4 -6 -1 0.05 0.31
-4 -6 0 35.38 2.52
4 -6 0 32.16 2.18
-4 -6 0 30.36 2.16
-4 -6 0 30.74 2.32
-4 -6 0 38.83 2.68
4 -6 0 39.67 2.68
4 -6 0 37.08 1.94
-4 -6 -1 7.79 1.29
-4 -6 -1 8.88 1.31
4 -6 1 9.51 1.37
-4 -6 -1 6.23 1.13
4 -6 1 8.2 1.12
4 -6 2 277.87 7.73
-4 -6 -2 299.59 8.64
-4 -6 -2 290.89 8.73
-4 -6 -3 239.71 6.86
4 -6 3 206.43 6.39
-4 -6 -3 236.06 7.55
-4 -6 -3 209.35 7.14
4 -6 3 218.33 7.08
-4 -6 -3 213.12 6.19
-4 -6 -4 1099.07 21.27
-4 -6 -4 1066.4 22.2
-4 -6 -4 1047.68 20.81
-4 -6 -5 38.04 2.45
-4 -6 -5 39.95 2.76
-4 -6 -5 37.26 2.76
-4 -6 -5 41.02 2.61
-4 -6 -5 38.15 2.46
-4 -6 -6 4.34 0.89
-4 -6 -6 2.32 0.75
-4 -6 -6 3.13 0.91
-4 -6 -6 5.62 0.99
-4 -6 -7 7.73 1.04
-4 -6 -7 7.04 1.03
4 -6 7 7.33 0.83
-4 -6 -7 7.77 1.1
4 -6 8 92.87 2.86
-4 -6 -8 90.18 3.06
-4 -6 -8 95.18 3.51
-4 -6 -9 8.53 0.86
-4 -6 -9 8.02 0.82
4 -5 -11 48.64 1.6
4 -5 -11 56.98 2.07
4 -5 -10 10.55 0.88
4 -5 -10 11.43 1.06
4 -5 -9 39.82 1.96
4 -5 -9 40.84 2.19
4 -5 -8 172.82 5
4 -5 -8 188.81 5.47
-4 -5 7 256.21 6.65
4 -5 -7 263.09 7.01
4 -5 -6 881.84 16.91
4 -5 -6 842.99 17.22
-4 -5 6 822.74 16.5
4 -5 -5 305.21 7.25
4 -5 -5 298.25 8.17
-4 -5 5 310.43 7.85
4 -5 -4 208.92 6.43
-4 -5 4 199.45 6.02
-4 -5 3 488.01 11.36
4 -5 -3 507.17 10.98
4 -5 -3 510.57 11.85
-4 -5 2 46.41 2.63
4 -5 -2 47.63 2.43
-4 -5 2 42.01 2.58
-4 -5 2 45.32 2.66
4 -5 -2 52.44 2.95
4 -5 -2 48.29 2.25
-4 -5 1 4.33 0.95
-4 -5 1 4.11 0.87
-4 -5 1 3.96 0.83
4 -5 -1 4.43 0.68
4 -5 -1 4.62 0.78
-4 -5 0 2.1 0.7
-4 -5 0 3.17 0.78
-4 -5 0 6.29 1.04
4 -5 0 3.31 0.57
4 -5 0 7.57 0.98
4 -5 1 68.7 3.1
-4 -5 -1 81.64 3.48
-4 -5 -1 70.29 3.67
-4 -5 -1 77.02 3.82
-4 -5 -1 74.83 3.61
-4 -5 -2 77.14 3.42
4 -5 2 71.18 3.21
-4 -5 -2 77.23 3.92
-4 -5 -2 70.36 3.75
-4 -5 -2 68.73 3.17
-4 -5 -2 64.56 3.41
4 -5 3 4.13 0.81
-4 -5 -3 5.28 0.93
-4 -5 -3 6.44 1.23
4 -5 3 6.17 1.15
-4 -5 -3 5.34 0.98
-4 -5 -4 369.54 9.31
-4 -5 -4 366.4 10.31
-4 -5 -4 377.98 10.21
4 -5 4 373.67 10.01
-4 -5 -4 363.98 9.54
-4 -5 -5 496.69 12.2
-4 -5 -5 516.37 12.64
-4 -5 -5 560.8 13.36
-4 -5 -5 503.81 11.81
4 -5 5 500.34 12.48
-4 -5 -5 556.35 12.49
-4 -5 -6 279.96 7.66
-4 -5 -6 280.19 8.09
-4 -5 -6 268.91 8.05
-4 -5 -7 26.7 1.97
-4 -5 -7 25.08 1.94
-4 -5 -7 21.57 2.05
-4 -5 -7 22.09 1.99
-4 -5 -8 0.33 0.43
-4 -5 -8 0.44 0.48
-4 -5 -8 0.1 0.3
-4 -5 -8 0.07 0.49
-4 -5 -9 1.66 0.45
-4 -5 -9 2.21 0.6
-4 -5 -9 1.31 0.53
-4 -5 -10 13.72 0.92
4 -4 -11 0.31 0.27
-4 -4 11 0.29 0.35
4 -4 -11 0.4 0.23
4 -4 -11 -0.03 0.11
4 -4 -11 0.25 0.28
4 -4 -11 0.03 0.1
-4 -4 10 44.74 2.25
4 -4 -10 52.61 2.35
4 -4 -10 47.16 2.06
-4 -4 10 47.17 2.35
4 -4 -10 51.21 2.21
-4 -4 10 42.01 2.2
4 -4 -10 49.11 2.3
4 -4 -9 64.87 2.71
-4 -4 9 65.82 2.86
-4 -4 9 58.35 2.84
-4 -4 9 61.2 2.94
-4 -4 9 59.48 2.85
4 -4 -9 70.14 2.93
-4 -4 8 22.41 1.76
4 -4 -8 26.05 1.81
-4 -4 8 19.68 1.7
-4 -4 8 21.05 1.65
4 -4 -8 22.11 1.58
4 -4 -8 24.75 1.87
-4 -4 8 20.34 1.73
-4 -4 7 4.29 0.85
4 -4 -7 4.4 0.84
-4 -4 7 4.67 0.88
4 -4 -7 4.73 0.79
-4 -4 7 4.01 0.84
-4 -4 7 4.15 0.79
4 -4 -7 3.63 0.78
-4 -4 7 4.36 0.87
-4 -4 6 3.63 0.77
-4 -4 6 3.88 0.76
4 -4 -6 3.33 0.77
-4 -4 6 2.94 0.72
-4 -4 6 4.99 0.88
-4 -4 6 5.22 0.88
-4 -4 5 12.42 1.29
4 -4 -5 12.97 1.39
-4 -4 5 12.89 1.32
-4 -4 5 13.17 1.32
-4 -4 5 10.43 1.15
-4 -4 5 11.49 1.18
-4 -4 4 15.13 1.39
-4 -4 4 13.68 1.27
4 -4 -4 16.18 1.53
-4 -4 4 14.04 1.34
-4 -4 4 14.78 1.35
-4 -4 3 78.79 3.23
4 -4 -3 82.22 3.01
-4 -4 3 75.78 3.34
-4 -4 3 81.06 3.6
4 -4 -3 84.18 3.6
-4 -4 3 81.18 3.17
-4 -4 3 79.77 3.13
-4 -4 2 107.17 3.86
4 -4 -2 103.49 3.47
-4 -4 2 109.97 4.18
-4 -4 2 99.48 4.14
-4 -4 2 102.57 3.53
-4 -4 2 106.15 3.59
-4 -4 1 23.13 1.73
4 -4 -1 24.88 1.56
-4 -4 1 21.23 1.81
-4 -4 1 23.54 1.93
4 -4 -1 27.1 2.04
-4 -4 1 26.99 1.64
-4 -4 0 0.74 0.41
-4 -4 0 1.89 0.66
-4 -4 0 0.45 0.39
4 -4 0 2.59 0.71
-4 -4 0 0.6 0.33
-4 -4 -1 60.69 2.98
-4 -4 -1 53.2 2.66
-4 -4 -1 51.78 3.01
-4 -4 -1 60.58 3.27
-4 -4 -1 65.19 2.87
4 -4 1 53.82 2.5
4 -4 1 61.27 3.13
-4 -4 -1 57.65 2.69
-4 -4 -1 59.95 2.54
-4 -4 -2 54.53 2.66
-4 -4 -2 51.68 2.85
-4 -4 -2 52.6 2.79
-4 -4 -2 57.35 3.19
-4 -4 -2 55.36 3.24
-4 -4 -2 54.9 2.7
4 -4 2 49.15 2.49
-4 -4 -2 53.16 2.61
-4 -4 -2 57.85 2.53
-4 -4 -3 772.02 14.55
-4 -4 -3 754.65 14.85
-4 -4 -3 738.89 15.35
-4 -4 -3 717.21 15.31
-4 -4 -3 652.33 15.53
-4 -4 -3 716.16 16.09
-4 -4 -3 767.95 14.91
4 -4 3 721.51 15.8
-4 -4 -3 710.72 14.65
-4 -4 -4 1156.33 23.54
-4 -4 -4 1246.42 23.76
-4 -4 -4 1232.86 22.35
-4 -4 -4 1237.67 24.07
-4 -4 -4 1229.29 22.29
-4 -4 -4 1278.91 24.38
-4 -4 -4 1293.24 23.15
4 -4 4 1139.92 23.89
-4 -4 -4 1163.67 22.91
-4 -4 -5 792.71 16.56
-4 -4 -5 784.35 15.71
-4 -4 -5 776.77 17.28
-4 -4 -5 835.88 17.51
-4 -4 -5 867.03 16.59
-4 -4 -5 768.71 16.96
-4 -4 -5 865.75 16.32
-4 -4 -5 810.63 16.48
-4 -4 -6 460.45 11.48
-4 -4 -6 456.82 11.02
-4 -4 -6 438.88 10.34
-4 -4 -6 446.06 11.01
-4 -4 -6 426.13 10.39
-4 -4 -7 2 0.78
-4 -4 -7 2.72 0.69
-4 -4 -7 4.29 1.05
-4 -4 -7 0.08 0.48
-4 -4 -7 0.27 0.39
-4 -4 -7 0.73 0.5
-4 -4 -8 114.55 3.95
-4 -4 -8 125.78 4.91
-4 -4 -8 117.72 4.52
-4 -4 -8 123.25 4.31
-4 -4 -8 123.78 4.25
-4 -4 -9 3.45 0.74
-4 -4 -9 0.04 0.16
-4 -4 -9 3.39 0.71
-4 -4 -9 0.05 0.17
-4 -4 -10 334.19 7.24
-4 -4 -10 362.15 8.18
-4 -3 12 5.41 0.72
-4 -3 12 5.96 0.73
-4 -3 12 5.66 0.72
4 -3 -12 7.17 0.74
4 -3 -12 7.23 0.82
4 -3 -12 5.92 0.73
-4 -3 11 41.69 2.28
-4 -3 11 43.63 2.36
4 -3 -11 43.17 1.82
4 -3 -11 47.38 2.22
-4 -3 11 48.31 2.13
-4 -3 11 42.67 2.33
4 -3 -11 45.08 2.27
4 -3 -10 63.44 2.64
-4 -3 10 70.92 3.29
-4 -3 10 68.98 3.29
4 -3 -10 69.95 2.99
-4 -3 10 70.43 3.31
-4 -3 10 66.28 2.85
4 -3 -10 68.35 3.04
4 -3 -9 403.89 9.44
-4 -3 9 428.46 10.3
-4 -3 9 406.41 9.4
-4 -3 9 408.79 10.2
4 -3 -9 408.29 9.06
-4 -3 9 404.14 10.09
-4 -3 8 328.61 8.98
4 -3 -8 319.35 8.17
4 -3 -8 358.93 8.18
-4 -3 8 341.73 9.05
-4 -3 8 332.07 9.03
-4 -3 8 357.52 8.43
4 -3 -8 366.56 8.54
-4 -3 8 347.88 8.85
4 -3 -8 325.98 8.3
-4 -3 8 300.07 8.76
-4 -3 8 311.35 8.79
-4 -3 7 465.56 11.15
-4 -3 7 469.09 11.17
-4 -3 7 476.61 10.47
-4 -3 7 451.83 10.81
4 -3 -7 488.69 10.6
-4 -3 7 418.28 10.91
-4 -3 7 436.83 10.98
4 -3 -7 486.51 10.31
-4 -3 7 486.67 11.2
-4 -3 6 31.43 2.22
-4 -3 6 33.76 2.04
-4 -3 6 35.45 2.34
4 -3 -6 33.99 2.11
-4 -3 6 30.22 2.17
-4 -3 6 33.4 2.33
-4 -3 6 31.96 2.21
-4 -3 5 36.07 2.36
-4 -3 5 38.02 2.35
-4 -3 5 38.77 2.39
-4 -3 5 38.17 2.14
4 -3 -5 39.15 2.04
4 -3 -5 41.22 2.33
-4 -3 5 38.2 2.38
-4 -3 5 38.24 2.37
-4 -3 4 15.03 1.45
-4 -3 4 15.24 1.43
-4 -3 4 18.41 1.62
-4 -3 4 13.57 1.34
4 -3 -4 15.8 1.41
-4 -3 4 18.08 1.54
-4 -3 4 16.71 1.52
-4 -3 3 36.11 2.09
-4 -3 3 35.54 1.93
-4 -3 3 36.48 1.91
-4 -3 3 38.17 2.13
-4 -3 3 37.51 2.35
4 -3 -3 38.49 2.21
-4 -3 3 40.24 2.21
-4 -3 3 42.82 2.35
-4 -3 2 687.6 13.36
-4 -3 2 661.27 13.6
-4 -3 2 695.27 13.49
-4 -3 2 669.71 13.58
-4 -3 2 722.47 14.72
4 -3 -2 700.32 12.8
4 -3 -2 721 14.31
-4 -3 2 719.15 13.9
-4 -3 2 745.59 14
-4 -3 1 261.35 6.48
-4 -3 1 255.55 6.57
-4 -3 1 260.27 6.5
-4 -3 1 296.74 7.65
-4 -3 1 265.73 7.24
4 -3 -1 270.05 5.99
4 -3 -1 301.13 7.42
-4 -3 1 267.99 6.64
-4 -3 1 289.8 6.83
-4 -3 0 10.3 0.97
-4 -3 0 7.97 0.98
-4 -3 0 9.04 0.96
-4 -3 0 11.02 1.28
-4 -3 0 9.63 1.24
4 -3 0 9.35 0.84
-4 -3 0 9.41 1
4 -3 0 10.58 1.2
-4 -3 0 11.11 1.07
-4 -3 0 10.61 1.14
-4 -3 -1 67.68 2.94
-4 -3 -1 67.75 2.69
-4 -3 -1 63.29 2.64
-4 -3 -1 67.12 3.01
-4 -3 -1 67.22 3.26
-4 -3 -1 68.47 3.4
-4 -3 -1 67.7 2.77
4 -3 1 63.14 2.46
4 -3 1 62.88 3.06
-4 -3 -1 68.8 2.98
-4 -3 -1 74.83 2.98
-4 -3 -2 214.34 5.76
-4 -3 -2 218.14 6.43
-4 -3 -2 194.83 5.84
-4 -3 -2 211.67 5.47
-4 -3 -2 192.13 5.76
-4 -3 -2 196.89 5.37
-4 -3 -2 200.8 6.03
-4 -3 -2 192.51 6.41
-4 -3 -2 205.87 5.49
4 -3 2 201.05 6.19
-4 -3 -2 187.39 5.7
-4 -3 -2 220 5.79
-4 -3 -3 600.38 14.28
-4 -3 -3 596 14.1
-4 -3 -3 680.32 13.66
-4 -3 -3 690.54 14.11
-4 -3 -3 660.5 14.03
-4 -3 -3 705.15 13.37
-4 -3 -3 707.64 14.17
-4 -3 -3 669.57 14.4
-4 -3 -3 675.3 13.3
-4 -3 -3 702.13 14.67
-4 -3 -3 668.97 13.28
4 -3 3 632.85 14.26
-4 -3 -3 679.78 13.95
-4 -3 -3 667.39 13.51
-4 -3 -4 12.73 1.54
-4 -3 -4 11.89 1.46
-4 -3 -4 8.58 1.12
-4 -3 -4 8.31 1.18
-4 -3 -4 16.65 1.6
-4 -3 -4 9.87 1.12
-4 -3 -4 7.08 1.09
-4 -3 -4 8.6 1.04
-4 -3 -4 8.73 1.29
-4 -3 -4 7.37 1.2
-4 -3 -4 7.37 1.26
-4 -3 -4 7.94 1
-4 -3 -4 7.22 1.13
4 -3 4 8.16 1.2
-4 -3 -4 17.24 1.6
-4 -3 -5 442.1 11.27
-4 -3 -5 406.71 10.98
-4 -3 -5 434.13 10.79
-4 -3 -5 432.21 10.03
-4 -3 -5 402.1 10.99
-4 -3 -5 465 10.16
-4 -3 -5 418.08 10.69
-4 -3 -5 447.74 11.57
-4 -3 -5 421.74 10.67
-4 -3 -5 448.27 10.08
4 -3 5 439.09 11.05
-4 -3 -5 451.15 10.77
-4 -3 -6 117.26 4.84
-4 -3 -6 110.65 4.24
-4 -3 -6 125.37 5.3
-4 -3 -6 118.54 4.68
-4 -3 -6 119.67 5.14
-4 -3 -6 120.66 5.16
-4 -3 -6 100.55 4.81
-4 -3 -6 122.81 4.61
-4 -3 -6 114.07 4.68
-4 -3 -6 119.51 4.81
-4 -3 -6 118.77 4.31
-4 -3 -7 2.01 0.73
-4 -3 -7 1.44 0.58
-4 -3 -7 1.88 0.62
-4 -3 -7 2.88 0.82
-4 -3 -7 2.14 0.82
-4 -3 -7 2.68 0.77
-4 -3 -8 25.19 2.26
-4 -3 -8 24.97 2.08
-4 -3 -8 23.77 1.73
-4 -3 -8 23.57 1.98
-4 -3 -8 24.42 2.19
-4 -3 -8 24.14 1.99
-4 -3 -9 54.78 3.12
-4 -3 -9 53.42 2.74
-4 -3 -9 58.07 2.92
-4 -3 -9 57.57 3.14
-4 -3 -9 53.18 2.8
-4 -3 -10 372.71 7.16
-4 -3 -10 367.86 6.93
-4 -2 13 104.85 3.13
-4 -2 13 116.27 3.22
-4 -2 13 116.89 3.27
4 -2 -13 131.36 3.26
4 -2 -13 129.06 3.45
4 -2 -13 104.64 3.15
-4 -2 12 32.78 1.92
-4 -2 12 30.97 1.89
4 -2 -12 31.54 1.76
-4 -2 12 30.42 1.89
-4 -2 12 31.85 1.56
4 -2 -12 33.76 1.9
-4 -2 11 206.87 6.3
-4 -2 11 213.32 6.44
4 -2 -11 220 6.02
-4 -2 11 220.01 6.5
-4 -2 11 218.5 5.68
4 -2 -11 224.1 6.17
4 -2 -10 178.65 5.5
-4 -2 10 166.64 5.89
-4 -2 10 177.51 5.27
-4 -2 10 173.73 6
-4 -2 10 168.53 5.89
-4 -2 9 336.15 9.07
4 -2 -9 322.76 8.18
4 -2 -9 290.36 7.08
-4 -2 9 332.58 9
-4 -2 9 296.78 7.77
-4 -2 9 315.9 8.91
4 -2 -9 317.09 8.15
-4 -2 9 323.14 8.3
-4 -2 9 294.07 8.57
-4 -2 8 2.84 0.8
4 -2 -8 0.05 0.35
-4 -2 8 2.82 0.82
-4 -2 8 -0.12 0.41
-4 -2 8 3.52 0.89
4 -2 -8 0.13 0.33
4 -2 -8 0.45 0.34
-4 -2 8 1.51 0.6
-4 -2 8 2.6 0.78
-4 -2 7 4.49 0.99
4 -2 -7 4.36 0.74
-4 -2 7 3.86 0.93
-4 -2 7 4.23 0.96
-4 -2 7 3.37 0.73
-4 -2 7 3.48 0.77
4 -2 -7 3.71 0.7
-4 -2 7 2.93 0.82
-4 -2 6 0.3 0.47
-4 -2 6 0.22 0.46
-4 -2 6 0.67 0.49
-4 -2 6 0.16 0.33
-4 -2 6 0.23 0.5
4 -2 -6 0.21 0.3
-4 -2 6 0.97 0.46
-4 -2 6 0.07 0.37
-4 -2 5 4.44 0.9
-4 -2 5 3.39 0.77
-4 -2 5 3.74 0.83
-4 -2 5 4.41 0.87
-4 -2 5 3.64 0.71
4 -2 -5 4.36 0.7
4 -2 -5 4.27 0.71
-4 -2 5 4.3 0.86
-4 -2 4 10.97 1.26
-4 -2 4 11.08 1.24
-4 -2 4 10.4 1.02
-4 -2 4 11.1 1.27
4 -2 -4 11.47 1.12
-4 -2 4 10.35 1.21
-4 -2 4 9.79 1.17
-4 -2 4 11.12 1.21
-4 -2 3 413.42 8.76
-4 -2 3 411.85 9.45
-4 -2 3 421.96 9.61
-4 -2 3 418.68 9.55
-4 -2 3 394.84 9.32
-4 -2 2 83.89 3.22
-4 -2 2 83.28 2.85
4 -2 -2 83.24 3.2
-4 -2 2 84.15 3.31
-4 -2 2 92.44 3.44
-4 -2 2 84.37 3.23
-4 -2 1 329.74 7.99
-4 -2 1 375.44 8.3
4 -2 -1 374.8 8.42
-4 -2 1 394.99 8.55
-4 -2 1 386.63 8.7
-4 -2 1 349.1 8.22
-4 -2 0 889.83 17.03
4 -2 0 888.23 15.85
-4 -2 0 951.23 17.25
4 -2 0 970.66 17.59
-4 -2 0 982.73 17.48
-4 -2 0 961.98 17.68
-4 -2 0 906.65 17.26
-4 -2 -1 1116.17 19.09
-4 -2 -1 997.9 18.83
-4 -2 -1 941.2 19.38
-4 -2 -1 1084.72 19.07
-4 -2 -1 1005.56 18.49
4 -2 1 1071.52 19.6
-4 -2 -1 1019.05 19.42
-4 -2 -1 1124.56 19.42
-4 -2 -2 747.13 14.91
-4 -2 -2 793.27 15
-4 -2 -2 668.73 13.66
-4 -2 -2 729.28 14.25
-4 -2 -2 636.52 13.91
-4 -2 -2 701.58 13.48
-4 -2 -2 651.92 13.47
-4 -2 -2 703.5 13.52
-4 -2 -2 663.1 14.15
-4 -2 -2 748.76 14.56
-4 -2 -2 691.82 14.63
-4 -2 -2 674.17 12.94
4 -2 2 642.8 13.88
-4 -2 -2 632.26 13.8
-4 -2 -2 694.03 13.79
-4 -2 -3 38.8 2.55
-4 -2 -3 38.82 2.53
-4 -2 -3 35.6 2.13
-4 -2 -3 32.82 2.18
-4 -2 -3 33.33 2.22
-4 -2 -3 34.74 1.99
-4 -2 -3 36.63 2.16
-4 -2 -3 30.68 2.21
-4 -2 -3 37.26 2.06
-4 -2 -3 33.2 2.24
-4 -2 -3 31.36 2.31
-4 -2 -3 30.74 1.73
-4 -2 -3 35.29 2.28
4 -2 3 34.63 2.23
-4 -2 -3 33.43 2.18
-4 -2 -3 36.56 2.15
-4 -2 -4 238.42 7.02
-4 -2 -4 227.26 6.86
-4 -2 -4 245.06 6.38
-4 -2 -4 219.28 7.06
-4 -2 -4 234.03 6.33
-4 -2 -4 236.82 7.21
-4 -2 -4 245.81 6.95
-4 -2 -4 223.35 5.83
-4 -2 -4 227.93 6.89
-4 -2 -4 225.7 7.23
-4 -2 -4 249.14 6.73
-4 -2 -4 218.83 7.07
-4 -2 -4 236.51 6.89
-4 -2 -4 247.14 6.67
-4 -2 -5 229.5 7.36
-4 -2 -5 274.08 7.09
-4 -2 -5 267.11 7.04
-4 -2 -5 246.11 7.19
-4 -2 -5 255.61 7.78
-4 -2 -5 266.83 7.71
-4 -2 -5 250.93 6.48
-4 -2 -5 258.44 8.03
-4 -2 -5 277.12 7.55
-4 -2 -5 254.2 7.93
-4 -2 -5 243.02 7.4
-4 -2 -6 2.06 0.74
-4 -2 -6 2.55 0.71
-4 -2 -6 1.99 0.89
-4 -2 -6 2.39 0.69
-4 -2 -6 2.36 0.77
-4 -2 -6 2.33 0.6
-4 -2 -6 1.31 0.68
-4 -2 -6 2.09 0.81
-4 -2 -6 1.93 0.73
-4 -2 -6 2.43 0.9
-4 -2 -6 2.31 0.75
-4 -2 -7 274.11 8.13
-4 -2 -7 272.36 8.41
-4 -2 -7 257.49 7.8
-4 -2 -7 259.61 6.92
-4 -2 -7 250.8 6.63
-4 -2 -7 242.09 7.81
-4 -2 -7 253.86 8.38
-4 -2 -7 272.81 7.66
-4 -2 -7 230.81 8.03
-4 -2 -7 288.92 8.39
-4 -2 -8 219.99 7.35
-4 -2 -8 212.78 6.65
-4 -2 -8 209.12 7.02
-4 -2 -8 208.91 7.4
-4 -2 -8 233.07 7.2
-4 -2 -9 10.35 1.42
-4 -2 -9 6.91 0.98
-4 -2 -9 8.48 1.39
-4 -2 -9 8.41 1.21
-4 -2 -9 10.65 1.38
-4 -2 -10 82.13 3.56
-4 -2 -10 83.2 3.5
-4 -2 -10 79.98 3.68
-4 -2 -10 79.85 3.41
-4 -2 -11 4.54 0.78
-4 -2 -11 3.91 0.65
-4 -1 13 19.75 1.31
-4 -1 13 17.43 0.91
-4 -1 13 17.64 1.25
-4 -1 13 18.84 1.3
4 -1 -13 20.5 1.24
4 -1 -13 18.66 1.27
4 -1 -13 17.41 1.21
-4 -1 12 0.6 0.4
-4 -1 12 0.06 0.45
4 -1 -12 0.1 0.34
-4 -1 12 0.67 0.43
-4 -1 12 0.3 0.28
4 -1 -12 1.58 0.5
-4 -1 11 107.71 4.46
-4 -1 11 111.31 4.54
4 -1 -11 111 4.09
-4 -1 11 115.42 4.61
-4 -1 11 108.53 3.77
4 -1 -11 107.73 4.17
4 -1 -10 200.85 6.11
-4 -1 10 189.67 6.53
-4 -1 10 186.91 6.57
-4 -1 10 185.06 5.63
-4 -1 10 202.69 6.74
-4 -1 9 252.86 6.72
-4 -1 9 229.72 7.6
-4 -1 9 233.84 7.59
-4 -1 9 229.35 7.47
4 -1 -9 222.01 6.64
4 -1 -9 255.76 7.06
-4 -1 9 229.45 6.64
-4 -1 9 220.87 7.38
-4 -1 8 31.19 2.04
-4 -1 8 30.94 2.44
-4 -1 8 34.65 2.57
-4 -1 8 29.27 2.39
-4 -1 8 30.78 2.02
-4 -1 8 29.88 2.39
-4 -1 7 32.37 2.41
-4 -1 7 32.38 2.01
-4 -1 7 29.18 2.29
4 -1 -7 25.88 1.59
-4 -1 7 32.76 2.41
-4 -1 7 31.76 1.99
4 -1 -7 29.67 1.58
4 -1 -7 28.64 1.72
-4 -1 7 30.28 2.31
-4 -1 6 226.81 6.72
-4 -1 6 219.46 6.65
-4 -1 6 221.48 6.68
-4 -1 6 215.39 5.81
4 -1 -6 204.87 5.32
4 -1 -6 205.5 5.37
-4 -1 6 197.59 6.31
-4 -1 5 667.33 12.79
-4 -1 5 611.96 13.6
-4 -1 5 639.86 13.76
-4 -1 5 707.2 12.97
4 -1 -5 595.99 12.43
4 -1 -5 665.01 12.45
-4 -1 5 613.59 13.64
-4 -1 5 614.32 13.55
-4 -1 5 650.31 13.69
-4 -1 4 1104.77 20.88
-4 -1 4 1222 22.19
4 -1 -4 1208.4 21.56
4 -1 -4 1257.35 20.91
-4 -1 4 1221.95 22.21
-4 -1 4 1127.53 21.99
-4 -1 4 1188.15 22.04
-4 -1 3 236.88 5.7
-4 -1 3 257.16 6.56
4 -1 -3 242.06 5.77
-4 -1 3 237.27 6.48
-4 -1 3 255.64 6.63
-4 -1 3 234.84 6.35
-4 -1 2 49.59 2.4
4 -1 -2 47.83 2.14
-4 -1 2 46.15 2.39
-4 -1 2 49.24 2.49
-4 -1 2 50.08 2.39
4 -1 -1 15.19 1.17
-4 -1 1 12.28 1.18
-4 -1 1 14.87 1.29
-4 -1 0 108.64 3.57
4 -1 0 104.21 3.44
-4 -1 0 109.83 3.7
-4 -1 0 100.24 3.72
-4 -1 0 102.26 3.61
-4 -1 0 109.1 3.61
-4 -1 -1 20.51 1.44
-4 -1 -1 19 1.58
-4 -1 -1 17.96 1.36
4 -1 1 22.45 1.5
-4 -1 -1 22.63 1.59
-4 -1 -1 18.68 1.53
-4 -1 -2 49.86 2.85
-4 -1 -2 56.99 2.84
-4 -1 -2 57.88 2.52
-4 -1 -2 51.81 2.34
-4 -1 -2 56.87 2.51
-4 -1 -2 59.73 2.96
-4 -1 -2 53.59 2.73
4 -1 2 51.33 2.49
-4 -1 -2 56.83 2.8
-4 -1 -2 54.17 2.6
-4 -1 -3 204.4 6.14
-4 -1 -3 196.98 6.01
-4 -1 -3 216.48 5.66
-4 -1 -3 193.24 6.18
-4 -1 -3 207.49 5.6
-4 -1 -3 183.68 5.95
-4 -1 -3 205.44 6.08
-4 -1 -3 193.55 5.69
-4 -1 -3 187.91 6.29
-4 -1 -3 193.52 6.35
-4 -1 -3 203.68 5.8
-4 -1 -3 214.75 6.05
-4 -1 -3 209.73 6.25
-4 -1 -4 1.84 0.62
-4 -1 -4 0.45 0.46
-4 -1 -4 2.58 0.61
-4 -1 -4 0.58 0.4
-4 -1 -4 0.66 0.43
-4 -1 -4 0.34 0.38
-4 -1 -4 0.82 0.49
-4 -1 -4 1 0.33
-4 -1 -4 0.17 0.5
-4 -1 -4 0.25 0.34
-4 -1 -4 0.17 0.47
-4 -1 -4 -0.19 0.33
-4 -1 -4 -0.07 0.37
-4 -1 -5 552.27 13.42
-4 -1 -5 633.19 12.94
-4 -1 -5 609.49 12.81
-4 -1 -5 650.84 14.22
-4 -1 -5 578.67 12.77
-4 -1 -5 601.73 11.75
-4 -1 -5 599.84 13.45
-4 -1 -5 561.9 13.51
-4 -1 -5 620.42 14.39
-4 -1 -5 574.51 13.97
-4 -1 -5 687.83 13.58
-4 -1 -5 559.78 13.34
-4 -1 -6 28.77 2.37
-4 -1 -6 30.08 2.13
-4 -1 -6 30.29 2.5
-4 -1 -6 29.5 2.08
-4 -1 -6 30.64 1.76
-4 -1 -6 25.91 2.12
-4 -1 -6 29.13 1.99
-4 -1 -6 29.46 2.37
-4 -1 -6 28.3 2.51
-4 -1 -6 36.17 2.57
-4 -1 -6 28.11 2.46
-4 -1 -6 30.61 2.39
-4 -1 -7 803.25 17.35
-4 -1 -7 762.81 16.1
-4 -1 -7 800.87 17.34
-4 -1 -7 776.49 16.16
-4 -1 -7 773.35 14.96
-4 -1 -7 782.85 17.1
-4 -1 -7 718.74 17.37
-4 -1 -7 835.11 16.71
-4 -1 -7 695.51 17.07
-4 -1 -7 815.26 17.28
-4 -1 -8 78.53 4.09
-4 -1 -8 82.78 3.5
-4 -1 -8 78.98 3.15
-4 -1 -8 79.91 4.09
-4 -1 -8 77.45 4.35
-4 -1 -8 79.85 4.08
-4 -1 -9 7.66 1.25
-4 -1 -9 7.3 0.89
-4 -1 -9 6.23 1.3
-4 -1 -9 7.33 1.19
-4 -1 -9 6.57 1.17
-4 -1 -10 12.68 1.4
-4 -1 -10 12.56 1.42
-4 -1 -10 12.78 1.4
-4 -1 -10 10.23 1.4
-4 -1 -11 190.7 5.26
-4 -1 -11 182.8 5.49
-4 -1 -11 186.95 5.23
-4 0 13 0.4 0.35
-4 0 13 0.22 0.21
-4 0 13 -0.09 0.29
-4 0 13 -0.04 0.35
4 0 -13 0.04 0.27
4 0 -13 -0.04 0.32
4 0 -13 0.23 0.28
-4 0 12 502.68 11.44
-4 0 12 531.9 11.63
4 0 -12 519.76 10.86
-4 0 12 528.35 11.58
-4 0 12 517.34 10.35
4 0 -12 518.11 11.08
-4 0 11 4.07 0.95
-4 0 11 2.45 0.84
4 0 -11 0.3 0.44
-4 0 11 0.05 0.35
-4 0 11 4.91 1.06
4 0 -11 1.46 0.5
4 0 -10 123.6 4.55
-4 0 10 111.63 4.97
-4 0 10 121.14 4.29
-4 0 10 112.1 4.91
-4 0 10 115.69 4.98
4 0 -9 0.07 0.4
-4 0 9 -0.19 0.55
-4 0 9 0.09 0.57
-4 0 9 0.06 0.41
-4 0 9 -0.09 0.54
4 0 -9 0.14 0.44
-4 0 9 0.3 0.34
-4 0 9 0.09 0.46
-4 0 8 142.25 5.55
-4 0 8 139.16 5.55
-4 0 8 158.94 5.01
-4 0 8 149.32 4.73
-4 0 8 132.67 5.41
-4 0 8 146.85 5.68
-4 0 7 -0.34 0.47
-4 0 7 0.59 0.5
4 0 -7 -0.04 0.22
-4 0 7 0.17 0.33
-4 0 7 0.75 0.43
-4 0 6 56.74 3.09
-4 0 6 55.9 3.06
-4 0 6 60.87 3.2
-4 0 6 56.68 2.63
-4 0 6 61.68 2.55
4 0 -6 57.77 2.44
4 0 -6 57.84 2.24
-4 0 6 52.44 2.95
-4 0 5 0.07 0.43
-4 0 5 0.09 0.27
-4 0 5 0.14 0.43
-4 0 5 -0.07 0.4
4 0 -5 1.34 0.49
4 0 -5 0.13 0.19
-4 0 5 0.69 0.34
-4 0 5 -0.07 0.39
-4 0 5 -0.14 0.38
-4 0 4 186.48 5.54
-4 0 4 180.98 4.78
-4 0 4 177.63 5.39
-4 0 4 180.19 4.56
4 0 -4 168.64 4.9
4 0 -4 171.75 4.31
-4 0 4 180.79 5.5
-4 0 4 183.73 5.59
-4 0 3 0.06 0.33
-4 0 3 0.44 0.37
4 0 -3 0.06 0.19
4 0 -3 0.05 0.33
-4 0 3 0.23 0.35
-4 0 3 0.57 0.49
-4 0 2 539.09 11.31
-4 0 2 552.13 11.35
4 0 -2 550.81 10.41
-4 0 2 564.11 11.59
-4 0 2 543.58 11.46
-4 0 1 0.3 0.31
-4 0 1 0.35 0.32
4 0 0 858.95 15.47
-4 0 0 864.86 16.24
-4 0 0 852.73 16.17
-4 0 -1 0.45 0.31
-4 0 -1 0.19 0.29
4 0 1 -0.12 0.26
-4 0 -1 -0.2 0.35
-4 0 -1 0.06 0.32
-4 0 -2 3223.8 54.88
-4 0 -2 3334.99 54.07
-4 0 -2 3209.27 53.8
-4 0 -2 3244.42 54.97
-4 0 -2 3248.91 55.53
-4 0 -2 3413.49 54.83
-4 0 -2 3347.04 54.48
-4 0 -3 -0.07 0.33
-4 0 -3 0.14 0.42
-4 0 -3 -0.1 0.29
-4 0 -3 0.29 0.45
-4 0 -3 -0.1 0.32
-4 0 -3 0.21 0.41
-4 0 -3 0.62 0.55
-4 0 -3 0.57 0.38
-4 0 -3 -0.08 0.39
-4 0 -3 0.27 0.37
-4 0 -3 0.29 0.34
-4 0 -4 33.17 2.34
-4 0 -4 38.64 2.47
-4 0 -4 38.39 2.15
-4 0 -4 38.78 2.2
-4 0 -4 33.22 1.85
-4 0 -4 34.26 2.12
-4 0 -4 36.32 2.27
-4 0 -4 35.01 2.41
4 0 4 38.81 1.92
-4 0 -4 40.16 2.33
-4 0 -4 34.77 2.38
-4 0 -4 37.54 2.7
-4 0 -4 36.09 2.56
-4 0 -4 40.89 2.37
-4 0 -5 0.28 0.5
-4 0 -5 0.1 0.32
-4 0 -5 -0.14 0.39
-4 0 -5 0.68 0.65
-4 0 -5 0.16 0.48
-4 0 -5 0.59 0.45
-4 0 -5 0.06 0.39
-4 0 -5 -0.09 0.49
-4 0 -5 0.99 0.47
-4 0 -5 0.39 0.35
-4 0 -5 -0.06 0.34
-4 0 -5 0.58 0.52
4 0 5 -0.05 0.24
-4 0 -5 0.57 0.51
-4 0 -6 8.23 1.3
-4 0 -6 9.24 1.18
-4 0 -6 7.19 1.28
-4 0 -6 8.08 1.11
-4 0 -6 8.81 1.01
-4 0 -6 10.08 1.45
-4 0 -6 9.47 1.51
-4 0 -6 11.74 1.5
-4 0 -6 9.89 1.49
-4 0 -6 9.36 1.37
-4 0 -7 0.59 0.56
-4 0 -7 0.07 0.37
-4 0 -7 0.09 0.56
-4 0 -7 0.67 0.55
-4 0 -7 0.06 0.34
-4 0 -7 0.21 0.52
-4 0 -7 0.91 0.55
-4 0 -7 0.66 0.66
-4 0 -7 0.28 0.52
-4 0 -8 185.08 6.52
-4 0 -8 190.28 5.5
-4 0 -8 182.95 7.04
-4 0 -8 185.04 6.57
-4 0 -8 173.56 6.46
-4 0 -9 0.96 0.65
-4 0 -9 0.22 0.36
-4 0 -9 4.07 1.09
-4 0 -9 3.79 0.94
-4 0 -9 4.35 1.06
-4 0 -10 119.69 3.84
-4 0 -10 127.6 4.77
-4 0 -10 131.74 4.77
-4 0 -10 130.19 5.11
-4 0 -11 0.53 0.43
-4 0 -11 0.99 0.51
-4 0 -11 1.08 0.46
-4 0 -12 71.53 2.43
-4 1 13 20.62 1.39
-4 1 13 19.12 1.05
-4 1 13 19.35 1.34
-4 1 13 19.86 1.38
4 1 -13 20.29 1.23
4 1 -13 19.97 1.29
4 1 -13 18.87 1.21
-4 1 12 0.44 0.5
-4 1 12 0.13 0.45
4 1 -12 0.19 0.34
4 1 -12 0.87 0.43
-4 1 12 0.5 0.36
-4 1 12 0.39 0.43
-4 1 11 106.2 4.49
-4 1 11 103.32 4.45
4 1 -11 111.37 4.02
4 1 -11 113.31 4.17
-4 1 11 100.06 4.4
-4 1 11 110.85 3.87
4 1 -10 199.93 6.05
-4 1 10 197.99 6.72
-4 1 10 191.9 6.67
-4 1 10 185.62 5.67
-4 1 10 188.27 6.57
-4 1 9 221.96 7.38
-4 1 9 204.49 7.14
4 1 -9 253.64 6.82
4 1 -9 237.07 6.82
-4 1 9 217.04 7.34
-4 1 9 241.05 6.63
-4 1 9 198.09 7.05
-4 1 8 36.25 2.64
-4 1 8 34.21 2.57
-4 1 8 29.47 2.38
4 1 -8 28.65 1.68
-4 1 8 27.38 1.76
-4 1 8 29.79 2.38
-4 1 7 30.52 2.37
-4 1 7 32.63 2.04
-4 1 7 34.47 2.48
-4 1 7 35 2.49
-4 1 7 27.92 1.7
4 1 -7 31.13 1.77
-4 1 7 32 2.38
-4 1 6 220.82 6.73
-4 1 6 226.42 5.99
-4 1 6 230.21 6.82
-4 1 6 228.64 6.8
-4 1 6 203.75 5.26
4 1 -6 212.83 5.6
-4 1 6 220.71 6.63
-4 1 5 661.99 13.84
-4 1 5 673.68 12.87
-4 1 5 633.24 13.69
-4 1 5 659.14 12.07
4 1 -5 603.11 12.6
-4 1 5 687.2 14.01
-4 1 5 622.16 13.58
-4 1 5 631.99 13.63
-4 1 4 1167.94 22.16
-4 1 4 1162.64 21.09
4 1 -4 1135.04 21.37
-4 1 4 1241.83 22.38
-4 1 4 1289.11 22.52
-4 1 4 1257.61 22.33
-4 1 3 240.92 6.49
-4 1 3 258.62 6.7
-4 1 3 255.73 6.72
-4 1 3 256.64 6.58
-4 1 2 50.79 2.41
4 1 -2 49.89 2.41
-4 1 2 46.99 2.38
-4 1 2 55.43 2.61
-4 1 2 45.27 2.28
4 1 -1 12.99 1.21
-4 1 1 10.71 1.11
-4 1 0 107.22 3.52
4 1 0 99.55 2.84
-4 1 0 107.09 3.61
-4 1 0 113.98 3.98
-4 1 0 97 3.55
-4 1 0 98.48 3.44
-4 1 -1 19.95 1.4
-4 1 -1 20.06 1.42
4 1 1 18.47 1.14
-4 1 -1 21.52 1.53
-4 1 -1 22.32 1.71
-4 1 -2 50.74 2.71
-4 1 -2 50.92 2.35
-4 1 -2 51.91 2.38
-4 1 -2 49.4 2.68
-4 1 -2 55.55 2.98
-4 1 -2 51.65 2.71
-4 1 -2 51.6 2.53
-4 1 -3 177.9 5.82
-4 1 -3 209.12 6
-4 1 -3 203.55 5.41
-4 1 -3 183.38 5.25
-4 1 -3 190.73 5.22
-4 1 -3 189.39 6
-4 1 -3 186.53 6.28
-4 1 -3 195.39 5.58
-4 1 -3 197.41 6.4
-4 1 -3 178.65 5.75
-4 1 -3 187.99 5.56
-4 1 -4 0.08 0.39
-4 1 -4 0.14 0.39
-4 1 -4 0.82 0.46
-4 1 -4 0.63 0.55
-4 1 -4 0.54 0.28
-4 1 -4 0.05 0.31
-4 1 -4 0.56 0.41
-4 1 -4 0.39 0.44
-4 1 -4 0.2 0.29
-4 1 -4 -0.09 0.44
-4 1 -4 0.06 0.38
-4 1 -4 0.18 0.52
-4 1 -4 0.24 0.41
-4 1 -4 0.08 0.36
-4 1 -5 575.96 13.7
-4 1 -5 634.64 13.01
-4 1 -5 651.31 13.1
-4 1 -5 630.1 14.16
-4 1 -5 608.93 11.81
-4 1 -5 640.36 12.62
-4 1 -5 568.53 13.71
4 1 5 641.6 12.8
-4 1 -5 577.31 14.35
-4 1 -5 538.42 13.91
-4 1 -5 698.56 13.69
-4 1 -5 575.57 13.6
-4 1 -6 23.68 2.18
-4 1 -6 28.99 2.06
-4 1 -6 30.88 2.44
-4 1 -6 28.7 2.04
-4 1 -6 27.82 1.83
-4 1 -6 29.68 1.64
-4 1 -6 27.79 2.32
4 1 6 28.05 1.93
-4 1 -6 24.32 2.36
-4 1 -6 30.87 2.37
-4 1 -6 25.12 2.31
-4 1 -6 25.56 2.21
-4 1 -7 717.18 16.78
-4 1 -7 812.28 16.15
-4 1 -7 727.78 16.73
-4 1 -7 794.76 15.38
-4 1 -7 763.8 17.66
-4 1 -7 893.72 16.83
-4 1 -7 688.06 16.97
-4 1 -7 727.23 16.75
4 1 7 787.86 15.63
-4 1 -7 775.36 17.07
-4 1 -8 90.14 3.57
-4 1 -8 82.09 4.43
-4 1 -8 75.64 3.97
-4 1 -8 82.58 4.16
-4 1 -9 6.44 0.96
-4 1 -9 7.46 1.34
-4 1 -9 6.17 1.11
-4 1 -9 6.06 1.15
-4 1 -10 12.14 1.19
-4 1 -10 10.06 1.37
-4 1 -10 9.49 1.23
-4 1 -10 13.18 1.43
-4 1 -11 175.48 4.47
-4 1 -11 193.46 5.25
-4 1 -11 192.09 5.53
-4 1 -11 182.22 5.12
-4 2 13 127.22 3.14
-4 2 13 133.06 3.61
-4 2 13 122.08 3.46
-4 2 13 131.79 3.61
4 2 -13 131.76 3.31
4 2 -13 130.64 3.42
-4 2 12 31.52 1.96
-4 2 12 29.59 1.94
4 2 -12 33.95 1.79
4 2 -12 30.13 1.78
-4 2 12 32.32 1.71
-4 2 12 30.39 1.97
-4 2 11 222.95 6.6
-4 2 11 211.16 6.54
4 2 -11 210.19 5.88
4 2 -11 216.07 6
-4 2 11 220.29 6.65
-4 2 11 210.84 5.81
4 2 -10 178.14 5.47
-4 2 10 178.44 6.2
-4 2 10 169.74 5.37
-4 2 10 174.68 6.14
-4 2 10 183.58 6.21
-4 2 9 324.43 8.96
-4 2 9 310.82 8.86
-4 2 9 291.32 7.78
4 2 -9 291.86 7.92
-4 2 9 276.81 8.41
-4 2 9 307.19 8.81
4 2 -9 330.09 8.05
-4 2 8 8.47 1.24
-4 2 8 3.32 0.89
-4 2 8 6.19 1.13
4 2 -8 0.57 0.42
4 2 -8 0.05 0.28
-4 2 8 2.06 0.76
-4 2 7 7.7 1.23
-4 2 7 3.76 0.76
-4 2 7 5.28 1
-4 2 7 7.35 1.17
4 2 -7 5.31 0.79
-4 2 7 5.59 1.01
-4 2 6 -0.08 0.43
-4 2 6 0.68 0.41
-4 2 6 0.22 0.45
-4 2 6 0.68 0.54
-4 2 6 0.3 0.4
4 2 -6 0.4 0.33
-4 2 6 -0.22 0.42
-4 2 5 6.63 0.85
-4 2 5 3.99 0.82
-4 2 5 3.98 0.84
-4 2 5 3.78 0.78
4 2 -5 4.34 0.71
-4 2 5 4.32 0.83
-4 2 5 5.21 0.91
-4 2 4 10.46 1.2
-4 2 4 10.66 1.02
-4 2 4 10.57 1.21
-4 2 4 9.43 1.05
-4 2 4 11.13 1.21
-4 2 4 9.42 1.12
-4 2 4 10.79 1.2
-4 2 3 434.92 9.88
4 2 -3 441.35 9.62
-4 2 3 457.69 10.06
-4 2 3 447.34 9.59
-4 2 3 462.91 10.09
-4 2 3 474.46 10
-4 2 2 83.84 3.17
4 2 -2 84 3.13
-4 2 2 87.38 3.31
-4 2 2 77.34 3.17
-4 2 2 78.77 3.08
-4 2 1 358.88 7.95
4 2 -1 368.25 8.1
-4 2 1 340.72 8.02
-4 2 1 340.97 8.39
-4 2 1 372.79 8.15
-4 2 1 326.42 7.78
-4 2 0 981.31 17.57
4 2 0 1067.08 17.94
-4 2 0 885.18 17.53
-4 2 0 919.63 18.16
-4 2 0 1001.26 17.84
-4 2 0 899.88 17.41
-4 2 -1 1053.23 20.11
-4 2 -1 1024.74 19.39
-4 2 -2 670.74 14.44
-4 2 -2 654.32 14.25
-4 2 -2 663.68 13.15
-4 2 -2 604.87 13.57
-4 2 -2 691.99 13.6
-4 2 -2 648.66 12.79
-4 2 -2 632.17 12.76
-4 2 -2 709.45 13.16
-4 2 -2 618.66 12.54
4 2 2 690.81 13.04
-4 2 -2 607.01 13.51
-4 2 -2 676.93 13.23
-4 2 -3 30.09 2.37
-4 2 -3 30.84 2.34
-4 2 -3 38.54 2.18
-4 2 -3 29.88 2.15
-4 2 -3 36.07 2.23
-4 2 -3 34.67 1.95
-4 2 -3 35.18 1.97
-4 2 -3 37.11 2.08
-4 2 -3 33.25 1.95
-4 2 -3 36.45 1.87
-4 2 -3 31.41 2.25
4 2 3 37.57 1.95
4 2 3 34.27 1.62
-4 2 -3 32.03 2.21
-4 2 -3 33.91 2.04
-4 2 -4 228.45 7.05
-4 2 -4 230.24 6.78
-4 2 -4 238.41 6.29
-4 2 -4 260.01 6.48
-4 2 -4 235.83 6.26
-4 2 -4 239.26 5.92
-4 2 -4 225.03 7.03
-4 2 -4 211.18 7.24
-4 2 -4 212.02 7.16
-4 2 -4 264.16 6.81
-4 2 -4 232.99 6.99
-4 2 -4 256.22 6.7
-4 2 -5 235.34 7.5
-4 2 -5 254 6.83
-4 2 -5 276.71 7.04
-4 2 -5 285.74 6.99
-4 2 -5 264.49 6.34
-4 2 -5 245.45 7.64
-4 2 -5 241.15 7.49
-4 2 -5 221.96 7.79
-4 2 -5 225.01 7.7
-4 2 -5 305.85 7.67
-4 2 -6 3.79 0.73
-4 2 -6 2.74 0.89
-4 2 -6 2.89 0.78
-4 2 -6 2.4 0.88
-4 2 -6 1.79 0.65
-4 2 -6 2.3 0.54
-4 2 -6 2.45 0.77
-4 2 -6 2.09 0.82
4 2 6 1.89 0.61
-4 2 -6 2.29 0.78
-4 2 -7 268.24 8.11
-4 2 -7 246.4 7.97
4 2 7 269.24 7.36
-4 2 -7 287.21 7.26
-4 2 -7 275.36 6.62
-4 2 -7 260.02 8.54
-4 2 -7 286.58 7.8
-4 2 -7 240.44 8.22
-4 2 -7 262.26 8.16
-4 2 -8 226.6 6.32
-4 2 -8 221.78 5.77
-4 2 -8 207.24 7.34
-4 2 -8 226.25 7.14
-4 2 -8 217.43 7.15
-4 2 -9 11.01 1.19
-4 2 -9 8.69 1.4
-4 2 -9 7.63 1.14
-4 2 -9 10.16 1.35
-4 2 -10 85.46 3.21
-4 2 -10 83.66 3.74
-4 2 -10 82.05 3.43
-4 2 -10 87.08 3.56
-4 2 -11 3.74 0.58
-4 2 -11 2.52 0.61
-4 2 -11 3.49 0.6
-4 3 12 7.29 0.85
-4 3 12 7.9 0.82
-4 3 12 8.28 0.89
-4 3 12 6.14 0.8
4 3 -12 6.99 0.72
4 3 -12 6.44 0.76
4 3 -12 6.1 0.72
-4 3 11 45.99 2.36
-4 3 11 47 2.43
4 3 -11 45.64 2.05
-4 3 11 45.83 2.39
-4 3 11 45.31 2.18
4 3 -11 49.63 2.21
-4 3 10 70.25 3.4
-4 3 10 68.31 3.41
4 3 -10 72.57 3
-4 3 10 67.18 3.36
-4 3 10 65.1 3.03
4 3 -10 64.05 2.94
4 3 -9 408.42 9.49
-4 3 9 441.63 10.65
-4 3 9 416.83 10.47
-4 3 9 402.44 10.28
-4 3 8 332.97 9.11
4 3 -8 336.7 8.26
-4 3 8 376.78 9.38
-4 3 8 357.26 9.31
-4 3 8 333.04 8.56
4 3 -8 320.16 8.25
4 3 -8 340.59 8.03
-4 3 8 347.63 9.26
-4 3 8 341.68 9.15
-4 3 7 491.25 11.46
-4 3 7 489.39 10.89
-4 3 7 463.87 11.3
-4 3 7 499.72 11.44
-4 3 7 491.46 11.51
-4 3 7 485.11 11.45
-4 3 6 35.46 2.33
-4 3 6 34.79 2.13
-4 3 6 33.8 2.31
-4 3 6 31.13 2.18
4 3 -6 32.71 1.97
-4 3 6 32.02 2.24
-4 3 6 34.85 2.32
-4 3 5 39.46 2.37
-4 3 5 38.3 2.14
-4 3 5 40.59 2.43
-4 3 5 40.26 2.37
4 3 -5 35.83 2.06
-4 3 5 42.15 2.43
-4 3 5 37.6 2.33
-4 3 5 40.09 2.4
-4 3 4 19.28 1.56
-4 3 4 17.64 1.35
-4 3 4 16.6 1.48
4 3 -4 16.71 1.34
-4 3 4 15.71 1.41
-4 3 4 18.06 1.53
-4 3 4 18.57 1.56
-4 3 4 16.11 1.44
-4 3 3 39.99 2.15
4 3 -3 39.53 2.1
-4 3 3 36.63 2.14
-4 3 3 42.19 2.25
-4 3 3 41.4 2.24
-4 3 3 37.22 2.11
-4 3 3 38.29 1.87
-4 3 2 688.17 13.47
-4 3 2 671.72 13.45
4 3 -2 655.66 13.37
-4 3 2 737.54 13.84
-4 3 2 686.1 13.8
-4 3 2 710.83 13.69
-4 3 1 273.34 6.54
-4 3 1 270.56 6.54
-4 3 1 262.28 6.55
4 3 -1 266.87 6.56
-4 3 1 288.65 6.74
-4 3 1 271.88 6.64
-4 3 1 267.85 6.83
-4 3 0 10.5 0.99
4 3 0 9.31 0.97
-4 3 0 9.28 0.98
-4 3 0 9.71 1.13
-4 3 0 10.45 1.09
-4 3 0 10.01 1.2
-4 3 0 9.75 0.98
-4 3 -1 64.9 2.83
-4 3 -1 63.07 2.58
-4 3 -1 66.71 3.06
-4 3 -1 63.45 2.6
4 3 1 64.24 2.58
-4 3 -1 66.47 3.04
-4 3 -1 63.95 2.81
-4 3 -1 73.43 2.9
-4 3 -2 200.69 5.51
-4 3 -2 202.98 6.47
-4 3 -2 195.12 5.27
-4 3 -2 193.18 5.25
-4 3 -2 213.14 5.97
-4 3 -2 213.34 5.88
-4 3 -2 186.96 5.49
-4 3 -2 182.53 5.2
4 3 2 203.59 5.14
-4 3 -2 205.55 6.01
-4 3 -2 193.16 5.49
-4 3 -2 203.37 5.54
-4 3 -3 660.86 14.79
-4 3 -3 622.53 14.42
-4 3 -3 713.76 13.64
-4 3 -3 615.24 13.93
-4 3 -3 659.88 13.85
-4 3 -3 708.6 13.27
-4 3 -3 649.01 13.46
-4 3 -3 693.39 13.22
-4 3 -3 700.98 13.68
-4 3 -3 626.5 12.92
4 3 3 676.37 12.74
-4 3 -3 607.04 13.88
-4 3 -3 639.62 13.24
-4 3 -3 701.24 13.54
-4 3 -4 8.36 1.15
-4 3 -4 8.79 1.24
-4 3 -4 7.68 0.96
-4 3 -4 8.89 1.04
-4 3 -4 7.99 1.02
-4 3 -4 6.65 0.88
-4 3 -4 8.6 1.35
-4 3 -4 9.14 1.37
-4 3 -4 7.04 1.02
-4 3 -4 7.18 1.11
-4 3 -4 8.09 0.99
-4 3 -5 424.02 10.81
-4 3 -5 447.8 10.04
-4 3 -5 447.66 9.98
-4 3 -5 457.84 11.11
-4 3 -5 416.51 10.72
-4 3 -5 405.86 9.57
-4 3 -5 444.41 11.48
-4 3 -5 425.18 11.27
-4 3 -5 439.17 9.56
-4 3 -6 118.85 4.89
-4 3 -6 117.54 4.28
-4 3 -6 112.63 4.75
4 3 6 120.98 4.6
-4 3 -6 120.9 3.97
-4 3 -6 104.43 4.91
-4 3 -6 102.13 4.87
-4 3 -6 123.24 4.55
-4 3 -6 120.9 4.82
-4 3 -7 2.32 0.79
-4 3 -7 2.64 0.61
-4 3 -7 1.96 0.82
-4 3 -7 2.37 0.75
-4 3 -8 25.13 2.06
-4 3 -8 24.79 1.66
-4 3 -8 23.34 2.14
-4 3 -8 24 1.97
-4 3 -9 56.67 2.91
-4 3 -9 56.28 3.09
-4 3 -9 58.54 2.87
-4 3 -9 54.24 2.35
-4 3 -10 384.57 9.01
-4 3 -10 391.54 8.64
-4 3 -11 34.92 1.57
-4 4 12 163.94 4.1
4 4 -11 0.03 0.1
-4 4 11 0.04 0.14
-4 4 11 0.64 0.37
-4 4 11 -0.04 0.14
4 4 -11 0.03 0.33
-4 4 10 52.5 2.52
4 4 -10 49.9 2.14
-4 4 10 54.69 2.62
4 4 -10 47.94 2.17
-4 4 10 54.63 2.61
4 4 -10 45.67 2.22
-4 4 9 65.34 3.05
-4 4 9 66.69 3.14
4 4 -9 66.26 2.77
-4 4 9 68.03 3.15
-4 4 9 63.79 3.07
4 4 -9 65.46 2.81
4 4 -8 21.98 1.59
-4 4 8 22.57 1.84
-4 4 8 20.97 1.78
-4 4 8 22.89 1.86
-4 4 8 24.04 1.85
-4 4 7 4.95 0.91
-4 4 7 4.45 0.88
4 4 -7 3.74 0.73
-4 4 7 5.53 0.96
-4 4 7 4.13 0.82
4 4 -7 4.53 0.81
-4 4 7 4.38 0.88
-4 4 6 4.12 0.83
-4 4 6 3.54 0.77
-4 4 6 4.62 0.85
-4 4 6 3.08 0.71
4 4 -6 5.32 0.85
-4 4 6 3.13 0.71
-4 4 5 12.77 1.28
-4 4 5 11.66 1.22
-4 4 5 14.89 1.4
-4 4 5 12.74 1.3
-4 4 5 11.63 1.22
-4 4 4 14.12 1.29
-4 4 4 14.72 1.27
4 4 -4 16.36 1.4
-4 4 4 15.37 1.51
-4 4 4 14.51 1.33
-4 4 4 14.34 1.33
-4 4 4 17.62 1.43
-4 4 3 75.27 3.01
-4 4 3 73.46 2.81
-4 4 3 81.29 3.09
4 4 -3 78.88 3.13
-4 4 3 83.27 3.21
-4 4 3 82.2 3.55
-4 4 3 79.25 3.11
-4 4 2 98.71 3.43
-4 4 2 100.63 3.68
-4 4 2 98.96 3.42
4 4 -2 99.61 3.51
-4 4 2 101.44 3.51
-4 4 2 105.14 3.57
-4 4 2 112.2 4.19
-4 4 1 22.53 1.46
-4 4 1 24.7 2.01
-4 4 1 21.6 1.46
-4 4 1 25.46 1.7
4 4 -1 23.84 1.54
-4 4 1 22.53 1.51
-4 4 1 24.29 1.87
-4 4 0 0.55 0.43
-4 4 0 1.11 0.36
-4 4 0 1.39 0.6
-4 4 0 0.56 0.38
-4 4 0 0.45 0.3
4 4 0 0.9 0.39
-4 4 0 0.45 0.41
-4 4 0 0.83 0.37
-4 4 -1 54.77 2.69
-4 4 -1 48.55 2.21
-4 4 -1 56.06 3.03
-4 4 -1 54.82 2.33
-4 4 -1 52.18 2.52
4 4 1 55.21 2.26
-4 4 -1 56.78 2.87
-4 4 -1 58.76 2.52
-4 4 -2 56.88 3.06
-4 4 -2 58.67 3.09
-4 4 -2 57.86 2.45
-4 4 -2 57.62 2.79
4 4 2 56.12 2.56
-4 4 -2 49.5 2.72
-4 4 -2 57.93 2.56
-4 4 -3 695.52 15.01
-4 4 -3 658.7 14.52
-4 4 -3 741.94 13.64
-4 4 -3 707.24 13.52
-4 4 -3 671.5 14.02
4 4 3 674.47 13.53
-4 4 -3 665.92 14.32
-4 4 -3 723.38 13.83
-4 4 -4 1345.46 22.62
-4 4 -4 1156.31 23.19
-4 4 -4 1174.51 22.23
-4 4 -4 1253.99 21.66
-4 4 -4 1203.57 21.6
4 4 4 1135.75 21.33
-4 4 -4 1148.35 22.48
-4 4 -4 1098.7 22.15
-4 4 -4 1180.23 22.09
-4 4 -4 1259.76 21.94
-4 4 -5 811.71 15.69
-4 4 -5 874.8 15.84
-4 4 -5 809.7 15.97
-4 4 -5 702.56 16.67
-4 4 -5 887.27 16.34
-4 4 -5 738.29 16.89
-4 4 -5 839.36 16.67
-4 4 -5 763.38 16.01
-4 4 -6 449.53 9.93
-4 4 -6 439.65 9.58
-4 4 -6 404.95 10.67
-4 4 -6 417.82 10.22
-4 4 -6 412.09 9.73
4 4 6 434.9 10.44
-4 4 -7 0.38 0.37
-4 4 -7 0.54 0.43
-4 4 -7 0.66 0.39
-4 4 -7 0.53 0.44
-4 4 -7 0.24 0.45
-4 4 -8 134.49 4.37
-4 4 -8 128.97 4.12
-4 4 -8 117.41 4.19
-4 4 -8 118.99 4.53
-4 4 -9 2.35 0.62
-4 4 -9 3.66 0.64
-4 4 -9 4.19 0.72
-4 4 -10 356.45 7.64
4 5 -11 53.39 1.67
4 5 -11 -0.02 0.06
-4 5 10 12.56 1.17
4 5 -10 10.55 0.91
-4 5 9 36.01 2.18
4 5 -9 38.75 1.99
-4 5 8 164 5.33
4 5 -8 174.93 5.09
-4 5 7 257.89 7.13
-4 5 7 261.47 6.39
-4 5 6 882.18 16.92
-4 5 6 819.43 16.01
4 5 -5 303.63 7.69
-4 5 5 304.29 7.62
-4 5 5 295.21 7.33
4 5 -4 207.28 5.8
-4 5 4 188.05 5.42
-4 5 4 195.42 5.57
-4 5 3 487.18 10.62
4 5 -3 466.45 10.49
-4 5 2 45.26 2.37
-4 5 2 43.44 2.72
4 5 -2 44.01 2.26
-4 5 2 41.85 2.81
-4 5 1 3.97 0.9
-4 5 1 6.22 0.88
4 5 -1 3.47 0.62
-4 5 1 4.41 0.8
-4 5 0 6.27 1.17
-4 5 0 4.11 0.91
-4 5 0 3.13 0.68
4 5 0 6.02 0.89
4 5 0 2.73 0.56
-4 5 0 3.08 0.7
-4 5 -1 67.01 3.09
-4 5 -1 79.1 3.21
-4 5 -1 76.03 3.71
4 5 1 72.16 3.11
-4 5 -1 77.5 3.83
-4 5 -2 67.17 3.11
-4 5 -2 70.23 3.02
-4 5 -2 74 3.6
4 5 2 69.09 3.04
-4 5 -2 78.9 3.79
-4 5 -3 3.85 0.9
-4 5 -3 5.97 1.04
-4 5 -3 5.17 0.85
4 5 3 4.47 0.78
-4 5 -3 4.63 0.87
-4 5 -4 346.88 9.19
4 5 4 346.25 8.52
-4 5 -4 351.23 9.07
-4 5 -5 483.22 11.52
-4 5 -5 532.77 11.2
-4 5 -6 273.51 7.44
-4 5 -6 289.47 7.25
-4 5 -6 279.23 7.04
-4 5 -7 21.5 1.61
-4 5 -7 21.8 1.6
-4 5 -7 21.53 1.59
-4 5 -8 0.67 0.42
-4 5 -8 0.3 0.37
-4 5 -9 1.48 0.45
-4 5 -9 3.03 0.57
-4 5 -10 14.69 0.97
-4 6 11 17.89 1
-4 6 10 39.84 1.85
4 6 -10 37.39 1.61
-4 6 9 86.64 3.22
4 6 -9 90.69 3.07
-4 6 8 205.06 5.83
4 6 -8 212.28 5.63
-4 6 7 88.24 3.56
-4 6 6 0.66 0.44
4 6 -6 0.9 0.47
4 6 -5 48.99 2.52
-4 6 5 44.75 2.4
-4 6 5 49 2.29
4 6 -5 48.8 2.55
4 6 -5 42.68 2.34
-4 6 5 44.8 2.85
4 6 -4 0.28 0.39
-4 6 4 0.36 0.34
-4 6 4 0.25 0.36
4 6 -4 0.29 0.31
4 6 -4 0.59 0.39
-4 6 4 0.33 0.49
-4 6 3 80.37 3.24
4 6 -3 91.39 3.47
4 6 -3 79.62 3.42
4 6 -3 84.01 3.32
-4 6 2 29.66 1.9
-4 6 2 28.9 1.98
4 6 -2 29.4 1.85
4 6 -2 31.4 2.07
4 6 -2 30.28 1.83
-4 6 2 33.01 2.61
4 6 -1 0.51 0.34
-4 6 1 -0.09 0.56
-4 6 1 -0.11 0.36
4 6 -1 -0.1 0.3
-4 6 1 1.35 0.52
-4 6 0 34.1 2.12
-4 6 0 35.15 2.13
-4 6 0 36.67 2.71
4 6 0 36.58 2.25
-4 6 0 33.85 2.67
-4 6 -1 8.18 1.06
-4 6 -1 7.24 1.26
4 6 1 7.94 1.05
-4 6 -1 7.37 1.26
-4 6 -2 312.51 7.72
-4 6 -2 321.67 7.76
-4 6 -2 303 8.72
4 6 2 304.76 7.88
-4 6 -2 295.35 8.77
-4 6 -3 232.49 6.22
-4 6 -3 240.79 6.32
-4 6 -3 224.39 7.12
-4 6 -3 219.84 7.03
-4 6 -4 1216.99 21.28
-4 6 -4 1200.34 21.16
-4 6 -4 1090.54 22.18
-4 6 -4 1053.92 21.79
-4 6 -5 41.51 2.2
-4 6 -5 38.18 2.16
-4 6 -5 36.61 2.18
-4 6 -5 37.62 2.47
-4 6 -6 2.67 0.73
-4 6 -6 3.66 0.68
-4 6 -7 7.23 0.9
-4 6 -7 6.59 0.84
-4 6 -8 100.23 2.88
-4 6 -8 105.86 2.82
-4 6 -9 7.98 0.72
-4 7 9 79.5 2.61
4 7 -9 79.05 2.61
-4 7 8 6.43 0.78
4 7 -8 6.01 0.77
-4 7 7 265.31 6.5
-4 7 6 0.3 0.29
4 7 -6 0.79 0.44
-4 7 5 200.33 5.44
-4 7 5 212.65 6.63
4 7 -5 214.01 5.85
-4 7 4 9.03 1.33
4 7 -4 7.84 1.01
-4 7 3 105.14 3.5
-4 7 3 107.25 4.61
4 7 -3 109.31 3.84
-4 7 2 9.39 1.05
-4 7 2 10.15 1.06
-4 7 2 11.78 1.5
4 7 -2 11.27 1.14
-4 7 2 9.31 1.42
-4 7 1 55.28 2.57
-4 7 1 61.33 2.68
4 7 -1 54.73 2.51
-4 7 1 53.91 3.41
-4 7 0 72.01 2.99
-4 7 0 77.76 3.12
-4 7 -1 1.38 0.51
-4 7 -1 0.89 0.66
-4 7 -1 0.91 0.42
-4 7 -1 1.41 0.69
-4 7 -2 441.31 11.39
-4 7 -2 461.6 9.75
-4 7 -2 467.66 9.96
-4 7 -2 433.25 11.31
-4 7 -3 312.85 8.69
-4 7 -3 321.15 7.38
-4 7 -3 318.06 7.59
-4 7 -3 314.99 8.7
-4 7 -4 220.64 6.82
-4 7 -4 237.05 5.86
-4 7 -4 236.78 6.1
-4 7 -4 228.85 6.64
-4 7 -5 70.25 3.24
-4 7 -5 71.63 2.89
-4 7 -5 69.44 2.64
-4 7 -6 310.03 7.53
-4 7 -6 307.78 6.81
-4 7 -6 318.2 7.23
-4 7 -7 222.09 5.35
-4 7 -7 218.82 5.35
-4 7 -7 218.36 5.03
4 8 -8 274.47 6
4 8 -7 49.39 2.04
-4 8 7 0.03 0.1
4 8 -6 18.17 1.36
4 8 -5 17.39 1.37
4 8 -4 15.91 1.34
-4 8 4 16.95 1.61
4 8 -3 7.77 0.96
-4 8 3 8.32 1.2
4 8 -2 314.49 7.37
-4 8 2 307.6 8.43
4 8 -1 92.26 3.29
-4 8 1 92.22 4.37
-4 8 1 97.04 4.22
-4 8 1 99.28 3.13
-4 8 0 0.81 0.38
-4 8 -1 84.96 4.05
-4 8 -1 92.9 3.13
-4 8 -2 70.07 3.51
-4 8 -2 73.67 3.56
-4 8 -2 75.88 2.79
-4 8 -3 178.03 5.67
-4 8 -3 183.79 5.83
-4 8 -3 187.52 4.91
-4 8 -4 5.39 0.89
-4 8 -4 6.02 0.77
-4 8 -5 14.7 1.27
-4 8 -5 13.73 1.08
-4 8 -6 50.77 2.11
-4 8 -6 53.78 2.06
-4 8 -7 3.33 0.46
4 9 -6 62.63 2.26
4 9 -5 36.89 1.77
4 9 -4 31.19 1.66
4 9 -3 98.96 3.22
-4 9 3 98.41 3.59
4 9 -2 101.8 3.21
-4 9 2 100.13 3.73
-4 9 1 0.92 0.54
-4 9 0 269.39 7
-4 9 -1 7.29 1
-4 9 -2 4.34 0.55
-4 9 -3 27.61 1.67
-4 9 -3 27.4 1.29
-4 9 -4 60.11 2.34
-4 9 -4 60.67 1.97
-4 10 2 71.93 2.35
-4 10 1 0.47 0.28
-4 10 0 141.98 3.71
-4 10 -1 80.76 2.52
5 -9 -5 9.25 0.61
5 -9 -4 2.47 0.37
-5 -9 3 17.35 1.04
5 -9 -3 20.59 1.01
-5 -9 3 17.62 1.04
-5 -9 2 17.16 1.11
5 -9 -2 15.83 0.86
-5 -9 2 17.97 1.09
-5 -9 1 37.82 1.68
-5 -9 1 36.2 1.7
-5 -9 0 3.18 0.52
-5 -9 0 2.88 0.51
-5 -9 -1 127.51 3.35
-5 -9 -1 117.6 3.32
-5 -9 -2 28.58 1.37
-5 -9 -2 29.9 1.36
5 -8 -7 134.2 3.22
5 -8 -7 131.7 3.24
5 -8 -6 120.67 3.25
-5 -8 6 114.64 3.22
5 -8 -5 57.99 1.94
5 -8 -5 60.68 2.01
-5 -8 5 57.62 2.05
5 -8 -4 3.84 0.58
-5 -8 4 4.16 0.66
5 -8 -4 4.88 0.64
-5 -8 4 4.27 0.65
5 -8 -3 19.39 1.22
-5 -8 3 20.89 1.49
5 -8 -3 21.19 1.32
-5 -8 3 20.14 1.42
5 -8 -2 23.96 1.36
-5 -8 2 23.46 1.58
-5 -8 2 23.94 1.68
5 -8 -2 28.64 1.51
5 -8 -1 222.38 5.24
-5 -8 1 220.71 5.76
-5 -8 1 235.06 6.08
-5 -8 1 250.55 6.43
5 -8 -1 256.14 5.52
-5 -8 0 335.24 5.83
-5 -8 0 332.36 5.9
-5 -8 0 337.37 6.19
-5 -8 -1 726.54 14.51
-5 -8 -1 702.35 13.66
-5 -8 -1 746.85 14.28
-5 -8 -2 164.26 4.79
-5 -8 -2 150.53 4.78
-5 -8 -2 157.52 4.4
-5 -8 -3 56.37 2.57
-5 -8 -3 53.74 2.27
-5 -8 -4 10.68 1.02
-5 -8 -4 10.52 0.93
-5 -8 -4 10.73 0.94
-5 -8 -5 11.98 0.86
5 -7 -9 7.94 0.56
5 -7 -8 184.14 4.25
5 -7 -8 185.95 4.44
-5 -7 8 181.39 4.35
5 -7 -7 15.14 1.06
-5 -7 7 14.98 1.14
5 -7 -6 2.39 0.52
-5 -7 6 2.38 0.57
5 -7 -5 168.43 4.8
-5 -7 5 170.62 4.79
5 -7 -5 173.77 4.68
-5 -7 5 166.11 4.97
5 -7 -4 103.43 3.62
-5 -7 4 102.87 3.77
5 -7 -4 107.76 3.54
-5 -7 4 107.1 3.87
-5 -7 3 3.85 0.8
5 -7 -3 3.46 0.64
-5 -7 3 4.59 0.84
-5 -7 2 40.04 2.27
-5 -7 2 38.51 2.41
5 -7 -2 42.45 2.06
-5 -7 2 37.35 2.26
-5 -7 1 92.53 3.88
-5 -7 1 95.41 3.68
-5 -7 1 97.54 4.02
-5 -7 1 100.36 3.9
-5 -7 0 44.55 2.63
-5 -7 0 41.64 2.6
-5 -7 0 42.8 2.47
-5 -7 -1 23.2 1.89
-5 -7 -1 24.78 2.04
-5 -7 -1 23.9 1.89
-5 -7 -2 364.2 8.9
-5 -7 -2 361.49 8.96
-5 -7 -2 334.92 9.01
-5 -7 -2 343.37 8.46
-5 -7 -3 2.06 0.65
-5 -7 -3 2.85 0.74
-5 -7 -3 2.01 0.72
-5 -7 -3 1.49 0.55
-5 -7 -4 77.45 3.37
-5 -7 -4 75.25 3.08
-5 -7 -5 107.77 3.84
-5 -7 -5 111.23 3.92
-5 -7 -5 105.27 3.54
-5 -7 -6 0.71 0.38
-5 -7 -6 1.14 0.39
-5 -7 -6 0.71 0.33
-5 -7 -7 0.12 0.21
5 -6 -10 59.81 1.72
5 -6 -9 15.75 0.99
5 -6 -9 13.81 1.01
-5 -6 9 13.8 1.03
5 -6 -8 14.36 1.15
5 -6 -7 1.52 0.45
5 -6 -7 1.33 0.46
5 -6 -6 3.74 0.68
5 -6 -6 3.41 0.71
-5 -6 5 39.28 2.16
5 -6 -5 41.3 2.15
-5 -6 5 39.21 2.37
-5 -6 4 50.02 2.63
5 -6 -4 53.67 2.49
-5 -6 4 47.35 2.66
-5 -6 3 596.8 13.14
-5 -6 3 574.41 13.13
-5 -6 2 64.55 3.21
-5 -6 2 63.26 3.24
-5 -6 2 60.26 3.15
-5 -6 1 141.57 5.16
-5 -6 1 137.14 5.05
5 -6 -1 148.14 4.25
-5 -6 0 53.87 2.88
-5 -6 0 45.25 2.94
-5 -6 0 48.21 2.95
-5 -6 0 51.96 2.95
-5 -6 -1 162.64 5.4
-5 -6 -1 161.15 5.96
-5 -6 -1 166.93 5.93
-5 -6 -1 158.6 5.57
-5 -6 -2 477.85 10.89
-5 -6 -2 470.8 11.75
-5 -6 -2 454.73 11.54
-5 -6 -2 475.06 11.27
-5 -6 -3 845.41 16.7
-5 -6 -3 810.78 17.58
-5 -6 -3 820.16 17.6
-5 -6 -3 838.02 17.06
-5 -6 -4 160.87 5.72
-5 -6 -4 150.71 4.98
-5 -6 -5 0.21 0.46
-5 -6 -5 0.99 0.6
-5 -6 -5 0.44 0.45
-5 -6 -6 2.73 0.75
-5 -6 -6 3.03 0.73
-5 -6 -6 2.84 0.59
-5 -6 -7 43.26 1.88
-5 -6 -7 35.45 1.66
-5 -6 -8 2.35 0.43
5 -5 -10 -0.05 0.2
5 -5 -10 0.18 0.24
5 -5 -9 131.52 3.7
5 -5 -9 126.71 3.79
5 -5 -8 4.18 0.71
5 -5 -7 25.99 1.68
5 -5 -7 31.04 1.96
5 -5 -6 91.95 3.4
5 -5 -6 84.03 3.53
5 -5 -5 69.24 2.95
-5 -5 4 12.57 1.3
5 -5 -4 14.49 1.54
5 -5 -4 13.26 1.23
-5 -5 3 78.13 3.49
-5 -5 3 90.46 3.83
-5 -5 3 89.52 3.93
-5 -5 3 82.83 3.71
5 -5 -3 83.13 3.9
5 -5 -3 91.79 3.37
-5 -5 2 2.14 0.66
-5 -5 2 1.75 0.6
-5 -5 2 2.37 0.72
-5 -5 2 2.16 0.79
5 -5 -2 2.2 0.7
5 -5 -2 2.71 0.59
-5 -5 1 6.77 1.08
-5 -5 1 7.09 1.07
-5 -5 1 6.39 1.13
-5 -5 1 8.08 1.26
5 -5 -1 6.59 1.16
5 -5 -1 6.09 0.8
-5 -5 0 190.88 6.61
-5 -5 0 189.63 6.58
5 -5 0 202.32 6.72
-5 -5 0 193.84 6.17
-5 -5 0 185.61 5.88
-5 -5 -1 5.64 1.12
-5 -5 -1 5.6 1.17
5 -5 1 5.89 1.13
-5 -5 -1 5.06 0.99
-5 -5 -1 5.37 0.94
-5 -5 -2 762.12 16.71
-5 -5 -2 784.15 16.95
-5 -5 -2 757.16 15.48
5 -5 2 715.31 16.21
-5 -5 -2 728.97 15.79
-5 -5 -3 1128.05 21.39
-5 -5 -3 1184.66 23.19
-5 -5 -3 1142.28 22.01
-5 -5 -4 6.87 1.04
-5 -5 -4 7.67 1.29
-5 -5 -4 7.43 1.37
-5 -5 -4 5.82 1.04
-5 -5 -5 244.89 6.59
-5 -5 -5 231.27 7.18
-5 -5 -5 235.58 7.01
-5 -5 -6 3.3 0.69
-5 -5 -6 3.85 0.87
-5 -5 -6 4.73 0.93
-5 -5 -7 62.62 2.9
-5 -5 -7 63.13 3.01
-5 -5 -7 61.52 2.6
-5 -5 -8 23.12 1.52
5 -4 -11 2.77 0.39
5 -4 -10 16.46 1.1
-5 -4 10 14.75 1.06
5 -4 -10 15.18 1.04
-5 -4 10 15.71 1.11
5 -4 -10 16.41 1.06
5 -4 -9 38.07 1.85
-5 -4 9 35.44 1.99
-5 -4 9 35.71 1.97
-5 -4 9 35.33 1.91
5 -4 -9 36.15 1.87
5 -4 -8 27.06 1.68
-5 -4 8 26.25 1.83
-5 -4 8 26.94 1.8
-5 -4 8 24.79 1.72
5 -4 -8 28.29 1.8
-5 -4 7 8.31 1.06
5 -4 -7 6.66 0.96
-5 -4 7 7.24 1.08
5 -4 -7 6.39 0.88
-5 -4 7 7.09 1
-5 -4 7 5.75 0.98
-5 -4 6 9.34 1.15
-5 -4 6 11.16 1.24
-5 -4 6 8.79 1.18
-5 -4 6 10.49 1.27
-5 -4 5 98.48 3.96
-5 -4 5 101.32 3.87
-5 -4 5 102.02 3.88
-5 -4 5 94.21 3.93
5 -4 -5 105 4.16
-5 -4 5 95.84 3.94
-5 -4 4 48.62 2.66
-5 -4 4 49.43 2.54
-5 -4 4 47.9 2.52
-5 -4 4 50.27 2.73
-5 -4 4 50.59 2.95
5 -4 -4 50.87 2.84
-5 -4 4 45.12 2.54
-5 -4 3 10.79 1.25
-5 -4 3 9.38 1.1
-5 -4 3 10.58 1.17
-5 -4 3 10.65 1.16
-5 -4 3 9.45 1.19
-5 -4 3 13.35 1.49
-5 -4 3 12.03 1.47
5 -4 -3 12.48 1.41
-5 -4 3 9.49 1.16
-5 -4 2 546.28 11.89
-5 -4 2 560.68 12.23
-5 -4 2 552.98 11.55
-5 -4 2 524.96 11.95
-5 -4 2 567.75 11.75
-5 -4 2 565.71 12.97
-5 -4 2 581.1 13.32
5 -4 -2 589.76 12.97
-5 -4 2 572.87 12
-5 -4 1 657.03 13.46
5 -4 -1 672.39 12.69
-5 -4 1 648.26 13.71
-5 -4 1 660.78 13.08
-5 -4 1 630.79 13.62
-5 -4 1 649.59 13.1
-5 -4 1 640.22 14.64
-5 -4 1 648.85 14.84
-5 -4 1 691.44 13.92
5 -4 -1 647.52 14.47
-5 -4 1 651.02 13.41
-5 -4 0 16.41 1.44
-5 -4 0 15.45 1.5
-5 -4 0 17.42 1.38
-5 -4 0 18.44 1.65
-5 -4 0 17.82 1.4
-5 -4 0 17.17 1.88
-5 -4 0 16.39 1.81
-5 -4 0 16.62 1.52
-5 -4 0 19.39 1.56
-5 -4 -1 574.25 12.03
-5 -4 -1 589.23 12.48
-5 -4 -1 556.6 11.56
-5 -4 -1 544.05 12.49
-5 -4 -1 578.59 11.71
-5 -4 -1 575.37 13.56
-5 -4 -1 576.72 13.76
-5 -4 -1 588.88 12.31
5 -4 1 544.08 13.03
-5 -4 -1 544.6 11.84
-5 -4 -2 429.63 9.66
-5 -4 -2 396.22 10.37
-5 -4 -2 430.25 10.04
-5 -4 -2 431.7 9.31
-5 -4 -2 440.11 10.46
-5 -4 -2 392.96 10.1
-5 -4 -2 421.83 9.32
-5 -4 -2 393.45 10.88
-5 -4 -2 433.5 11.32
-5 -4 -2 428.79 9.85
5 -4 2 406.27 10.54
-5 -4 -2 414.72 10
-5 -4 -2 421.75 9.56
-5 -4 -3 27.08 1.9
-5 -4 -3 21.66 2
-5 -4 -3 24.07 1.68
-5 -4 -3 23.96 2
-5 -4 -3 26.79 1.77
-5 -4 -3 24.08 2.08
-5 -4 -3 23.33 2.21
-5 -4 -3 25.84 2.35
-5 -4 -3 23.38 1.78
5 -4 3 23.57 2.09
-5 -4 -3 23.9 1.91
-5 -4 -4 22.23 1.79
-5 -4 -4 14.66 1.67
-5 -4 -4 17.07 1.42
-5 -4 -4 15.48 1.72
-5 -4 -4 18.57 1.46
-5 -4 -4 18.41 1.91
-5 -4 -4 16.9 1.48
5 -4 4 14.91 1.69
-5 -4 -4 15.95 1.57
-5 -4 -5 20.32 1.55
-5 -4 -5 21.54 2.03
-5 -4 -5 20.63 1.95
-5 -4 -5 21.69 2.13
-5 -4 -5 21.81 1.68
-5 -4 -5 23.8 1.71
-5 -4 -5 17.21 1.76
-5 -4 -5 20.63 1.75
-5 -4 -6 12.57 1.58
-5 -4 -6 13.66 1.5
-5 -4 -6 14.26 1.67
-5 -4 -6 10.78 1.16
-5 -4 -6 13.14 1.48
-5 -4 -6 11.84 1.29
-5 -4 -7 79.19 3.51
-5 -4 -7 77.64 2.93
-5 -4 -7 81.85 3.53
-5 -4 -7 76.28 3.11
-5 -4 -7 78.53 2.92
-5 -4 -8 1.48 0.55
-5 -4 -8 0.04 0.09
-5 -4 -8 1.33 0.57
-5 -4 -9 23.6 1.25
-5 -3 11 9.04 0.88
5 -3 -11 6.82 0.67
-5 -3 11 7.23 0.84
5 -3 -11 7.63 0.77
-5 -3 11 7.62 0.82
5 -3 -11 7.78 0.81
5 -3 -10 84.9 3.06
-5 -3 10 84 3.08
-5 -3 10 79.51 3.2
-5 -3 10 78.02 3.16
-5 -3 10 81.34 3.3
5 -3 -9 366.12 8.33
-5 -3 9 347.5 8.67
-5 -3 9 356.07 8.3
-5 -3 9 342.02 8.64
5 -3 -9 347.42 7.7
-5 -3 9 336.76 8.72
5 -3 -8 970.66 18.25
-5 -3 8 974.5 18.9
-5 -3 8 925.6 18.19
-5 -3 8 937.84 18.97
-5 -3 8 952.99 18.8
5 -3 -8 927.96 17.64
-5 -3 7 611.49 13.53
-5 -3 7 601.13 13.29
-5 -3 7 621.64 12.81
5 -3 -7 580.89 12.42
-5 -3 7 585.78 13.56
-5 -3 7 616.91 13.59
-5 -3 7 612.56 13.34
5 -3 -7 557.49 12.23
-5 -3 6 44.18 2.8
-5 -3 6 46.64 2.76
-5 -3 6 44.03 2.7
5 -3 -6 46.13 2.52
-5 -3 6 42.88 2.78
-5 -3 6 43.58 2.76
-5 -3 5 2.33 0.73
-5 -3 5 1.49 0.55
-5 -3 5 1.72 0.62
-5 -3 5 5.54 0.97
5 -3 -5 1.04 0.45
5 -3 -5 1.09 0.45
-5 -3 5 5.33 0.99
-5 -3 5 0.95 0.61
-5 -3 4 108.55 4.4
-5 -3 4 118.78 4.13
-5 -3 4 114.91 4.37
-5 -3 4 114.58 4.35
-5 -3 4 115.81 4.59
-5 -3 4 107.95 4.26
5 -3 -4 107.18 4.14
-5 -3 4 109.06 4.4
-5 -3 4 115.2 4.51
-5 -3 3 10.45 1.28
-5 -3 3 9.26 1.18
-5 -3 3 12.05 1.31
-5 -3 3 8.95 1.22
-5 -3 3 9 1.24
5 -3 -3 11.97 1.31
-5 -3 3 12.01 1.36
-5 -3 3 11.77 1.36
-5 -3 2 21.66 1.78
-5 -3 2 22.24 1.87
-5 -3 2 21.1 1.68
-5 -3 2 22.18 1.72
-5 -3 2 21.05 1.98
-5 -3 2 20.64 1.92
5 -3 -2 23.42 1.85
-5 -3 2 20.41 1.72
-5 -3 2 21.95 1.78
-5 -3 1 32.8 2.18
-5 -3 1 34.97 2.35
-5 -3 1 38.46 2.23
-5 -3 1 31.99 1.99
-5 -3 1 37.25 2.21
-5 -3 1 37.5 2.59
-5 -3 1 35.35 2.61
-5 -3 1 38.24 2.2
5 -3 -1 38.1 2.46
-5 -3 1 36.39 2.26
-5 -3 0 340.33 8.52
-5 -3 0 385.64 9.68
-5 -3 0 346.76 8.86
-5 -3 0 339.14 8.19
-5 -3 0 364.89 8.45
-5 -3 0 332.11 8.2
-5 -3 0 316.37 9.13
-5 -3 0 320.89 9.37
-5 -3 0 343.36 8.21
5 -3 0 336.64 8.88
-5 -3 0 341.15 8.53
-5 -3 -1 337.33 8.38
-5 -3 -1 347.48 9.31
-5 -3 -1 330.95 8.67
-5 -3 -1 347.58 8.14
-5 -3 -1 314.05 8.13
-5 -3 -1 324.14 7.98
-5 -3 -1 358.71 9.51
-5 -3 -1 307.15 9.2
-5 -3 -1 341.95 7.99
5 -3 1 294.69 8.39
-5 -3 -1 316.03 8.53
-5 -3 -1 332.84 8.41
-5 -3 -2 115.73 4.38
-5 -3 -2 117.76 4.95
-5 -3 -2 116.3 4.6
-5 -3 -2 116.02 4.13
-5 -3 -2 118.58 4.41
-5 -3 -2 126.4 4.27
-5 -3 -2 117.56 4.02
5 -3 2 107.06 4.46
-5 -3 -2 114.83 4.56
-5 -3 -2 115.08 4.3
-5 -3 -3 71.31 3.3
-5 -3 -3 60.51 3.58
-5 -3 -3 71.89 3.55
-5 -3 -3 69.18 3.09
-5 -3 -3 64.4 3.58
-5 -3 -3 72.72 3.19
-5 -3 -3 66.37 3.67
-5 -3 -3 64 3.75
-5 -3 -3 64.98 2.9
5 -3 3 59.44 3.3
-5 -3 -3 73.54 3.57
-5 -3 -3 67.17 3.21
-5 -3 -4 706.46 14.1
-5 -3 -4 586.34 14.58
-5 -3 -4 674.28 13.45
-5 -3 -4 635.18 13.3
-5 -3 -4 613.6 14.57
-5 -3 -4 642.61 14.6
-5 -3 -4 608.45 14.83
-5 -3 -4 624.96 12.9
5 -3 4 556.11 13.7
-5 -3 -4 679.96 14.35
-5 -3 -5 154.1 5.29
-5 -3 -5 113.87 5.1
-5 -3 -5 137.08 4.61
-5 -3 -5 113.92 5.14
-5 -3 -5 120.19 4.35
-5 -3 -5 128.19 5.03
-5 -3 -5 119.85 5.22
-5 -3 -5 114.97 4.05
5 -3 5 101.8 4.53
-5 -3 -5 126.9 4.96
-5 -3 -6 192.92 5.88
-5 -3 -6 189.72 6.86
-5 -3 -6 225.59 6.37
-5 -3 -6 197.61 6.91
-5 -3 -6 203.21 6.53
-5 -3 -6 218.84 6.51
-5 -3 -6 210.82 6.92
-5 -3 -7 12.23 1.58
-5 -3 -7 14.63 1.51
-5 -3 -7 12.84 1.28
-5 -3 -7 12.95 1.48
-5 -3 -7 11.91 1.54
-5 -3 -8 57.44 2.76
-5 -3 -8 52.79 2.62
-5 -3 -8 50.64 2.83
-5 -3 -9 303.83 5.05
-5 -3 -9 300.23 5.48
-5 -2 12 0.97 0.38
5 -2 -12 1.06 0.22
-5 -2 12 1.12 0.37
5 -2 -12 1.21 0.39
-5 -2 12 1.19 0.34
5 -2 -12 1.34 0.37
-5 -2 11 2.63 0.62
-5 -2 11 2.33 0.62
5 -2 -11 2.45 0.55
-5 -2 11 3.43 0.61
-5 -2 11 2.63 0.64
5 -2 -11 2.33 0.57
5 -2 -10 26.66 1.79
-5 -2 10 25.02 1.89
-5 -2 10 22.46 1.58
-5 -2 10 22.93 1.8
-5 -2 10 23.2 1.87
5 -2 -9 8.06 1.09
-5 -2 9 7.74 1.02
-5 -2 9 6.26 1.06
-5 -2 9 8.99 1.29
-5 -2 9 8.71 1.26
-5 -2 8 0.08 0.46
-5 -2 8 0.31 0.45
-5 -2 8 0.08 0.49
-5 -2 8 0.26 0.5
5 -2 -8 0.19 0.3
-5 -2 7 28.86 2.32
-5 -2 7 28.44 2.26
5 -2 -7 28.1 1.78
-5 -2 7 29.57 2.34
5 -2 -7 26.26 1.75
-5 -2 7 27.88 2.35
-5 -2 7 28.48 2.33
-5 -2 6 1.72 0.68
-5 -2 6 1.95 0.6
-5 -2 6 2.47 0.73
-5 -2 6 2.59 0.77
5 -2 -6 3.31 0.64
5 -2 -6 2.27 0.55
-5 -2 6 2.35 0.76
-5 -2 5 5.89 0.9
-5 -2 5 4.93 1.01
-5 -2 5 6.24 1.08
-5 -2 5 6.86 1.18
5 -2 -5 7.04 0.97
5 -2 -5 7.11 0.94
-5 -2 5 7.74 1.23
-5 -2 5 5.22 1.04
-5 -2 4 43.01 2.28
-5 -2 4 42.06 2.59
-5 -2 4 42.83 2.61
-5 -2 4 40.97 2.65
-5 -2 4 37.86 2.42
5 -2 -4 44.79 2.58
5 -2 -4 38.32 2.18
-5 -2 4 37.25 2.54
-5 -2 4 41.8 2.66
-5 -2 3 355.25 9.09
-5 -2 3 369.86 9.1
-5 -2 3 369.95 8.24
-5 -2 3 362.7 9.04
-5 -2 3 357.78 9.29
-5 -2 3 353.26 9.15
-5 -2 3 351.63 9.55
5 -2 -3 343.19 8.4
-5 -2 3 347.17 9.1
-5 -2 3 361.13 9.22
-5 -2 2 132.6 4.85
-5 -2 2 151.83 4.36
-5 -2 2 144.39 4.9
-5 -2 2 147.59 4.94
-5 -2 2 146.49 5.16
-5 -2 2 138.83 5.36
-5 -2 2 138.71 5.15
5 -2 -2 135.53 4.62
-5 -2 2 145.52 5.04
-5 -2 2 137.18 4.92
-5 -2 1 256.46 7.14
-5 -2 1 260.11 7.37
-5 -2 1 263.88 6.99
-5 -2 1 259.21 7.01
-5 -2 1 257.08 7.6
-5 -2 1 264.93 7.89
5 -2 -1 248.86 6.91
-5 -2 1 250.76 7.07
-5 -2 1 259.11 7.15
-5 -2 0 1732.87 30.14
-5 -2 0 1755.18 31.18
-5 -2 0 1561.06 30.17
-5 -2 0 1731.36 29.57
-5 -2 0 1591.8 28.91
-5 -2 0 1603.21 29.53
-5 -2 0 1654.4 30.72
-5 -2 0 1691.47 31.18
-5 -2 0 1699.02 28.93
5 -2 0 1666.2 29.81
-5 -2 0 1771.27 30.26
-5 -2 0 1672.12 30.43
-5 -2 -1 54.46 2.87
-5 -2 -1 53.59 3.23
-5 -2 -1 53.86 3.02
-5 -2 -1 58 2.78
-5 -2 -1 49.08 2.48
-5 -2 -1 42.19 2.14
5 -2 1 41.97 2.53
-5 -2 -1 47.19 2.82
-5 -2 -1 57.33 2.96
-5 -2 -2 124.07 4.55
-5 -2 -2 121.12 5.12
-5 -2 -2 111.58 4.59
-5 -2 -2 109.78 4.12
-5 -2 -2 117 4.23
-5 -2 -2 110.37 4.71
-5 -2 -2 114.24 4.77
-5 -2 -2 115.45 4.96
-5 -2 -2 110.98 3.65
5 -2 2 102.44 4.19
-5 -2 -2 119.87 4.71
-5 -2 -2 117.34 4.45
-5 -2 -3 0.22 0.47
-5 -2 -3 0.6 0.67
-5 -2 -3 0.25 0.46
-5 -2 -3 1.09 0.53
-5 -2 -3 0.36 0.52
-5 -2 -3 0.34 0.51
-5 -2 -3 0.46 0.45
-5 -2 -3 -0.06 0.34
5 -2 3 0.73 0.47
-5 -2 -3 0.17 0.45
-5 -2 -3 -0.07 0.39
-5 -2 -4 5.88 1.03
-5 -2 -4 5.85 1.25
-5 -2 -4 5.74 0.94
-5 -2 -4 4.36 1.08
-5 -2 -4 6.33 1.01
-5 -2 -4 6.67 1.18
-5 -2 -4 6.1 1.11
-5 -2 -4 5.51 1.14
5 -2 4 4.61 0.92
-5 -2 -4 5.69 1.01
-5 -2 -4 4.01 0.97
-5 -2 -5 10.65 1.63
-5 -2 -5 10.82 1.61
-5 -2 -5 12.32 1.5
-5 -2 -5 11.86 1.35
-5 -2 -5 11.03 1.63
-5 -2 -5 11.69 1.33
-5 -2 -5 8.87 1.28
-5 -2 -5 12.34 1.58
-5 -2 -5 10.46 1.47
5 -2 5 8.95 1.25
-5 -2 -5 9.26 1.41
-5 -2 -6 3.38 0.84
-5 -2 -6 3.65 0.88
-5 -2 -6 2.78 1.02
-5 -2 -6 3.73 0.95
-5 -2 -6 3.06 0.74
-5 -2 -6 2.64 0.78
-5 -2 -7 33.23 2.58
-5 -2 -7 35.38 2.75
-5 -2 -7 36.14 2.54
-5 -2 -7 31.55 2.25
-5 -2 -8 62.76 3.4
-5 -2 -8 69.18 3.34
-5 -2 -8 63.64 2.81
-5 -2 -8 63.18 3.47
-5 -2 -9 372.23 9.32
-5 -2 -9 404.97 9.09
-5 -2 -10 134.97 3.95
-5 -2 -10 125.14 3.61
-5 -1 13 167.51 3.8
-5 -1 12 0.27 0.37
-5 -1 12 0.09 0.33
5 -1 -12 0.04 0.25
5 -1 -12 0.08 0.29
-5 -1 12 0.15 0.24
-5 -1 12 0.77 0.45
-5 -1 11 696.12 14.51
-5 -1 11 712.41 14.65
5 -1 -11 741.68 14.06
5 -1 -11 715.13 14.19
-5 -1 11 719.79 14.64
-5 -1 11 714.22 13.64
5 -1 -10 344.92 8.3
-5 -1 10 327.98 8.78
-5 -1 10 340.22 7.98
-5 -1 10 318.09 8.76
-5 -1 10 324.43 8.71
5 -1 -9 36.53 2.33
-5 -1 9 31.25 2.44
-5 -1 9 29.11 2.33
-5 -1 9 32.89 2.51
-5 -1 9 33.71 2.12
-5 -1 8 31.99 2.47
-5 -1 8 32.02 2.51
-5 -1 8 33.13 2.59
-5 -1 8 32.88 2.59
-5 -1 8 28.78 2.42
-5 -1 7 0.44 0.54
-5 -1 7 -0.06 0.38
-5 -1 7 4.03 0.94
-5 -1 7 4.83 1.03
-5 -1 7 0.47 0.51
-5 -1 7 0.46 0.57
-5 -1 6 587.07 13.47
-5 -1 6 580.91 13.19
-5 -1 6 575.55 12.16
-5 -1 6 587.52 13.36
5 -1 -6 527.03 11.61
-5 -1 6 536.35 13.15
-5 -1 6 575.52 13.38
-5 -1 5 342.73 9.29
-5 -1 5 320.58 8.97
-5 -1 5 358.51 9.32
-5 -1 5 338.45 8.22
-5 -1 5 351.42 8.68
5 -1 -5 349.68 8.38
5 -1 -5 348.54 7.83
-5 -1 5 371.86 9.66
-5 -1 5 336.41 9.26
-5 -1 4 220 6.82
-5 -1 4 209.28 6.59
-5 -1 4 218.26 5.8
-5 -1 4 219.17 6.66
-5 -1 4 218.59 6.45
5 -1 -4 202.89 6.07
5 -1 -4 209.04 5.51
-5 -1 4 211.85 6.75
-5 -1 4 216.7 6.78
-5 -1 3 0.44 0.48
-5 -1 3 0.23 0.45
-5 -1 3 0.23 0.3
-5 -1 3 0.07 0.39
-5 -1 3 0.33 0.48
-5 -1 3 0.87 0.54
-5 -1 3 0.14 0.38
5 -1 -3 0.38 0.26
-5 -1 3 0.82 0.57
-5 -1 3 -0.08 0.36
-5 -1 2 75.27 3.46
-5 -1 2 67.05 3.36
-5 -1 2 66.25 3.17
-5 -1 2 68.18 2.64
-5 -1 2 72.71 3.34
-5 -1 2 71.55 3.46
-5 -1 2 75.84 3.77
5 -1 -2 71.44 2.91
-5 -1 2 67.4 3.32
-5 -1 2 74.41 3.42
-5 -1 1 0.98 0.64
-5 -1 1 1.49 0.57
-5 -1 1 2.28 0.64
-5 -1 1 1.32 0.49
-5 -1 1 1.13 0.56
-5 -1 1 1.48 0.54
5 -1 -1 0.68 0.39
-5 -1 1 1.43 0.53
-5 -1 1 1.22 0.5
-5 -1 0 140.98 4.25
-5 -1 0 137.19 4.91
-5 -1 0 142.97 5.62
-5 -1 0 148.99 4.87
-5 -1 0 151.07 4.92
-5 -1 0 151.31 5.28
-5 -1 0 145.93 5.47
-5 -1 0 158.73 5.45
5 -1 0 134.34 4.43
-5 -1 0 136.67 4.84
-5 -1 0 144.95 5.2
-5 -1 -1 73.56 3.39
-5 -1 -1 73.44 3.91
-5 -1 -1 73.05 3.23
-5 -1 -1 77.93 3.36
-5 -1 -1 79.36 3.7
-5 -1 -1 74.04 3.6
-5 -1 -1 68.96 2.73
-5 -1 -1 72.64 3.71
5 -1 1 65.45 2.97
-5 -1 -1 77.5 3.66
-5 -1 -1 76.5 3.48
-5 -1 -2 226.33 6.75
-5 -1 -2 212.81 7.43
-5 -1 -2 236.6 6.5
-5 -1 -2 234.9 6.5
-5 -1 -2 235.45 7.08
-5 -1 -2 229.3 7.22
-5 -1 -2 249.79 7.21
-5 -1 -2 219.87 5.64
5 -1 2 196.58 6.04
-5 -1 -2 237.23 7.17
-5 -1 -2 233.6 6.79
-5 -1 -3 11.29 1.35
-5 -1 -3 12.95 1.73
-5 -1 -3 11.44 1.28
-5 -1 -3 11.71 1.57
-5 -1 -3 12.76 1.36
-5 -1 -3 11.03 1.44
-5 -1 -3 11.29 1.03
-5 -1 -3 12.11 1.53
-5 -1 -3 13.39 1.52
5 -1 3 9.62 1.16
-5 -1 -3 12.78 1.57
-5 -1 -3 12.58 1.43
-5 -1 -4 138.96 5.89
-5 -1 -4 131.28 5.72
-5 -1 -4 150.9 5.25
-5 -1 -4 140.82 4.87
-5 -1 -4 146.39 4.97
-5 -1 -4 130.19 5.38
-5 -1 -4 144.59 5.5
-5 -1 -4 138.71 5.14
-5 -1 -4 137.23 5.34
-5 -1 -4 128.53 3.93
5 -1 4 116.36 4.52
-5 -1 -4 132.02 5.33
-5 -1 -4 147.92 5.18
-5 -1 -5 204.84 7.48
-5 -1 -5 194.47 7.32
-5 -1 -5 213.81 6.7
-5 -1 -5 195.46 6.9
-5 -1 -5 201.65 6.19
-5 -1 -5 207.11 6.24
-5 -1 -5 205.64 6.33
-5 -1 -5 195.58 5.12
-5 -1 -5 205.06 6.68
-5 -1 -5 199.11 6.82
-5 -1 -6 585.79 12.48
-5 -1 -6 574.71 12.36
-5 -1 -6 539.12 13.44
-5 -1 -6 508.66 10.64
-5 -1 -6 539.55 12.37
-5 -1 -6 515.18 11.62
-5 -1 -6 509.09 13.08
-5 -1 -6 502.96 13.53
-5 -1 -6 475.65 13.31
-5 -1 -6 653.51 13.48
-5 -1 -6 539.82 13.08
-5 -1 -7 203.04 6.23
-5 -1 -7 203.3 7.06
-5 -1 -7 200.95 6.95
-5 -1 -7 205.78 7.42
-5 -1 -7 225.28 6.69
-5 -1 -7 197.8 5.97
-5 -1 -7 204.52 6.89
-5 -1 -8 409.19 10.08
-5 -1 -8 364.33 10.26
-5 -1 -9 19.62 1.67
-5 -1 -9 18.52 1.77
-5 -1 -10 90.05 3.13
-5 -1 -10 76.82 3.17
5 0 -13 259.04 5.36
-5 0 13 254.48 5.44
-5 0 12 0.14 0.33
-5 0 12 0.54 0.3
-5 0 12 -0.05 0.32
5 0 -12 0.19 0.3
5 0 -12 0.12 0.32
-5 0 12 0.15 0.35
-5 0 11 595.36 12.78
-5 0 11 604.41 12.96
-5 0 11 603.49 12.87
-5 0 11 582.09 11.82
5 0 -11 608.49 12.17
-5 0 10 -0.23 0.52
-5 0 10 0.08 0.48
-5 0 10 0.08 0.55
-5 0 10 -0.11 0.36
5 0 -10 0.24 0.42
-5 0 9 40 2.76
5 0 -9 39.83 2.49
-5 0 9 37.59 2.74
-5 0 9 38.35 2.77
-5 0 8 0.63 0.6
-5 0 8 -0.09 0.59
-5 0 8 -0.1 0.42
-5 0 8 0.19 0.44
-5 0 8 0.09 0.54
-5 0 7 3.34 0.89
-5 0 7 3.34 0.75
-5 0 7 3.37 0.97
-5 0 7 2.58 0.84
-5 0 7 4.69 1.03
5 0 -7 3.29 0.65
-5 0 7 3.51 0.98
-5 0 6 0.09 0.5
-5 0 6 0.12 0.35
-5 0 6 0.17 0.45
-5 0 6 0.17 0.44
5 0 -6 1.89 0.53
-5 0 6 0.36 0.42
-5 0 6 -0.09 0.47
-5 0 5 1095.64 22.53
-5 0 5 1156.04 22.61
-5 0 5 1137.45 22.48
5 0 -5 1187.69 21.59
-5 0 5 1129.69 22.67
-5 0 5 1099.33 22.57
-5 0 4 -0.08 0.46
-5 0 4 -0.08 0.42
-5 0 4 0.28 0.45
-5 0 4 0.22 0.49
5 0 -4 0.49 0.49
-5 0 4 0.32 0.44
-5 0 4 0.16 0.4
-5 0 3 318.19 8.55
-5 0 3 332.84 8.81
-5 0 3 319.53 7.42
-5 0 3 341.21 8.65
-5 0 3 319.56 8.44
5 0 -3 333.1 8.4
-5 0 3 337.08 8.81
-5 0 3 324.95 8.71
-5 0 2 2.79 0.76
-5 0 2 0.15 0.19
-5 0 2 0.93 0.45
-5 0 2 0.07 0.43
-5 0 2 3.18 0.73
-5 0 2 2.57 0.67
-5 0 2 3.31 0.77
-5 0 2 2.22 0.68
-5 0 1 318 8.32
-5 0 1 346.65 9.43
-5 0 1 337.71 8.6
-5 0 1 317.8 8.08
-5 0 1 293.16 7.9
-5 0 1 350.83 9.02
-5 0 1 334.87 8.61
5 0 -1 313.47 7.14
-5 0 1 298.32 8.13
-5 0 1 319.55 8.25
-5 0 0 0.2 0.29
-5 0 0 -0.18 0.46
-5 0 0 -0.13 0.46
-5 0 0 -0.15 0.41
-5 0 0 0.18 0.34
-5 0 0 0.08 0.39
-5 0 0 0.27 0.27
-5 0 0 0.12 0.35
5 0 0 0.13 0.25
-5 0 0 0.33 0.33
-5 0 0 0.26 0.33
-5 0 0 -0.15 0.45
-5 0 -1 24.43 1.67
-5 0 -1 24.63 1.93
-5 0 -1 28.64 2.41
-5 0 -1 28.75 2.15
-5 0 -1 26.99 1.88
-5 0 -1 26.25 1.88
-5 0 -1 25.9 1.58
-5 0 -1 26.46 2.12
-5 0 -1 24.63 2
5 0 1 23.54 1.56
-5 0 -1 25.12 2.06
-5 0 -1 25.16 1.92
-5 0 -2 0.15 0.33
-5 0 -2 0.8 0.64
-5 0 -2 -0.07 0.38
-5 0 -2 0.24 0.4
-5 0 -2 0.25 0.36
-5 0 -2 0.31 0.41
-5 0 -2 0.29 0.25
-5 0 -2 -0.15 0.39
-5 0 -2 0.06 0.37
5 0 2 -0.05 0.3
-5 0 -2 0.08 0.46
-5 0 -2 0.07 0.36
-5 0 -3 102.49 4.16
-5 0 -3 100.1 4.86
-5 0 -3 94.58 4.26
-5 0 -3 100.62 3.93
-5 0 -3 108.94 4.09
-5 0 -3 107.02 4.27
-5 0 -3 101.51 4.3
-5 0 -3 93.01 3.46
-5 0 -3 100.06 4.46
-5 0 -3 105.4 4.2
-5 0 -4 0.44 0.59
-5 0 -4 -0.05 0.32
-5 0 -4 -0.23 0.5
-5 0 -4 0.11 0.61
-5 0 -4 0.35 0.47
-5 0 -4 0.38 0.55
-5 0 -4 0.13 0.39
-5 0 -4 -0.08 0.34
-5 0 -4 -0.07 0.41
-5 0 -4 -0.14 0.41
5 0 4 -0.06 0.27
-5 0 -4 -0.08 0.35
-5 0 -4 0.65 0.61
-5 0 -5 152.27 6.47
-5 0 -5 147.41 6.35
-5 0 -5 191.11 6.19
-5 0 -5 174.52 6.46
-5 0 -5 176.32 5.67
-5 0 -5 200.27 5.96
-5 0 -5 167.63 5.6
-5 0 -5 170.77 4.92
-5 0 -5 170.46 5.45
-5 0 -5 174.01 6.45
5 0 5 133.4 4.89
-5 0 -5 170.11 6.25
-5 0 -6 -0.3 0.58
-5 0 -6 -0.29 0.47
-5 0 -6 0.07 0.42
-5 0 -6 0.3 0.51
-5 0 -6 0.15 0.32
-5 0 -6 -0.35 0.7
-5 0 -6 0.18 0.65
-5 0 -6 0.23 0.62
-5 0 -6 0.77 0.5
-5 0 -7 230.54 5.96
-5 0 -7 222.17 6.69
-5 0 -7 207.87 7.28
-5 0 -7 213.43 7.71
-5 0 -7 250.68 7.18
-5 0 -7 239.99 7.52
-5 0 -8 0.05 0.33
-5 0 -8 0.98 0.66
-5 0 -8 0.9 0.6
-5 0 -9 27.64 2.17
-5 0 -9 27.78 1.46
-5 0 -9 30.28 2.1
-5 0 -10 0.05 0.3
-5 0 -10 0.17 0.42
-5 1 13 176.36 4.04
-5 1 12 0.05 0.33
-5 1 12 0.31 0.32
5 1 -12 0.46 0.32
-5 1 12 0.32 0.29
-5 1 12 0.32 0.37
-5 1 11 691.5 14.4
-5 1 11 695.97 14.56
5 1 -11 709.25 13.77
-5 1 11 731.55 13.65
-5 1 11 661.46 14.36
5 1 -11 725.19 13.96
-5 1 10 300.93 8.54
-5 1 10 302.96 8.49
-5 1 10 321.68 8.76
5 1 -9 34.77 2.29
-5 1 9 32.77 2.5
-5 1 9 35.64 2.6
-5 1 9 31.04 2.41
-5 1 8 37.23 2.71
-5 1 8 35.87 2.65
-5 1 8 35.85 2.25
5 1 -8 29.97 1.82
-5 1 8 32.77 2.57
-5 1 8 32.38 2.56
-5 1 8 35.44 2.6
-5 1 7 0.37 0.54
-5 1 7 -0.06 0.41
-5 1 7 0.27 0.55
5 1 -7 1.23 0.45
-5 1 7 0.37 0.47
-5 1 7 0.09 0.45
-5 1 7 1.67 0.69
-5 1 6 557.02 13.2
-5 1 6 557.61 13.12
-5 1 6 552.93 11.9
5 1 -6 517.46 11.6
-5 1 6 607.14 13.57
-5 1 6 568.14 13.27
-5 1 6 587.19 13.21
-5 1 5 374.06 9.7
-5 1 5 371.6 9.56
-5 1 5 350.61 8.36
5 1 -5 357.6 8.62
-5 1 5 345.74 9.43
-5 1 5 377.05 9.73
-5 1 5 345.9 9.28
-5 1 4 209.34 6.67
-5 1 4 220.59 6.69
-5 1 4 213.32 5.67
-5 1 4 211.64 6.59
5 1 -4 219.35 6.22
-5 1 4 220.26 6.83
-5 1 4 210.21 6.66
-5 1 3 0.6 0.5
-5 1 3 1.66 0.44
-5 1 3 0.42 0.49
-5 1 3 0.34 0.43
-5 1 3 0.29 0.38
-5 1 3 0.59 0.48
-5 1 3 0.21 0.39
-5 1 2 71.01 3.36
-5 1 2 77.21 3.56
-5 1 2 73.57 3.34
-5 1 2 71.32 3.3
-5 1 2 71.97 3.42
5 1 -2 70.75 3.26
-5 1 2 73.01 3.43
-5 1 2 69.38 3.29
-5 1 1 0.92 0.69
-5 1 1 1.07 0.47
-5 1 1 0.65 0.48
-5 1 1 1.05 0.49
-5 1 1 0.52 0.4
-5 1 1 1.13 0.54
-5 1 1 0.69 0.45
5 1 -1 1.21 0.58
-5 1 1 0.87 0.43
-5 1 1 1.27 0.53
-5 1 0 139.91 4.91
-5 1 0 140.32 4.56
-5 1 0 151.65 5.83
-5 1 0 142.4 4.76
-5 1 0 140.9 4.76
-5 1 0 135.77 5.01
-5 1 0 149.01 5.11
-5 1 0 138.85 4.32
-5 1 0 159.17 5.39
5 1 0 152 5.14
-5 1 0 141.22 4.9
-5 1 0 135.2 4.84
-5 1 0 149.99 5.37
-5 1 -1 70.62 3.09
-5 1 -1 76.32 3.42
-5 1 -1 71.66 3.93
-5 1 -1 71.84 3.2
-5 1 -1 76.39 3.3
-5 1 -1 73.29 3.54
-5 1 -1 70.71 2.9
-5 1 -1 78.98 3.57
-5 1 -1 72.52 3.49
5 1 1 89.58 3.76
-5 1 -1 73.19 3.64
-5 1 -1 78.51 3.47
-5 1 -2 209.87 6.16
-5 1 -2 232.41 6.42
-5 1 -2 216.2 6.79
-5 1 -2 222.21 6.63
-5 1 -2 217.72 6.61
-5 1 -2 227.91 6.2
-5 1 -2 230.88 5.86
-5 1 -2 210.6 6.94
-5 1 -2 223.39 6.59
-5 1 -2 229.88 6.67
-5 1 -2 227.65 7.69
-5 1 -3 11.95 1.39
-5 1 -3 11.25 1.63
-5 1 -3 11.91 1.3
-5 1 -3 12.24 1.31
-5 1 -3 13.73 1.56
-5 1 -3 11.72 1.36
-5 1 -3 12.7 1.4
-5 1 -3 12.78 1.26
-5 1 -3 12.12 1.1
5 1 3 13.59 1.42
-5 1 -3 12.51 1.56
-5 1 -3 12.57 1.39
-5 1 -4 128.49 5.43
-5 1 -4 137.97 5.34
-5 1 -4 147.86 4.94
-5 1 -4 140.69 4.84
-5 1 -4 126.2 4.63
-5 1 -4 138.66 4.53
-5 1 -4 132.78 4.01
-5 1 -4 131.58 5.84
-5 1 -4 117.2 5.54
-5 1 -4 147.55 5.18
-5 1 -4 129.42 5.39
-5 1 -4 144.49 5.09
-5 1 -5 193.84 6.98
-5 1 -5 221.86 6.41
-5 1 -5 209.17 6.27
-5 1 -5 199.97 5.13
-5 1 -5 212.65 5.88
-5 1 -5 205.1 5.84
-5 1 -5 173.64 7.09
-5 1 -5 185.1 7.26
-5 1 -5 226.17 6.83
-5 1 -5 200.61 6.95
-5 1 -6 543.72 12.1
-5 1 -6 559.39 12.09
-5 1 -6 481.91 12.81
-5 1 -6 489.81 12.72
-5 1 -6 491.19 13.4
-5 1 -6 637.32 13.47
-5 1 -6 438.43 12.96
-5 1 -6 578.67 11.51
-5 1 -7 215.95 5.83
-5 1 -7 211.45 6.33
-5 1 -7 206.36 7.03
-5 1 -7 200.34 6.85
-5 1 -7 200.54 7.35
-5 1 -7 224.69 6.69
-5 1 -8 386.73 9.83
-5 1 -8 384.34 8.54
-5 1 -8 369.84 10.27
-5 1 -9 19.81 1.65
-5 1 -9 18.8 1.29
-5 1 -9 20.96 1.85
-5 1 -10 83.64 2.96
-5 1 -10 90.31 3.3
-5 2 12 0.84 0.37
-5 2 12 1.6 0.42
5 2 -12 0.95 0.32
-5 2 12 1.38 0.38
-5 2 12 1.21 0.42
5 2 -12 1.1 0.36
5 2 -11 -0.03 0.08
-5 2 11 2.12 0.62
-5 2 11 2.39 0.63
5 2 -11 2.08 0.5
-5 2 11 2.33 0.55
-5 2 11 2.51 0.65
5 2 -11 1.91 0.53
5 2 -10 24.27 1.69
-5 2 10 20.79 1.83
-5 2 10 24.32 1.9
-5 2 10 22.04 1.83
5 2 -9 6.36 0.97
-5 2 9 9.56 1.34
-5 2 9 8.76 1.28
-5 2 9 7.32 1.02
-5 2 8 0.42 0.46
5 2 -8 0.32 0.43
-5 2 8 -0.09 0.55
-5 2 8 0.25 0.4
-5 2 8 0.26 0.55
-5 2 7 27.82 2.26
-5 2 7 24.67 1.83
-5 2 7 25.56 2.14
-5 2 7 27.65 2.27
5 2 -7 24.84 1.74
-5 2 7 27.31 2.27
-5 2 7 24.91 2.2
-5 2 6 2.27 0.63
-5 2 6 5.88 1.06
-5 2 6 2.5 0.79
-5 2 6 6.1 1.13
5 2 -6 1.46 0.53
-5 2 6 1.91 0.71
-5 2 6 1.99 0.7
-5 2 5 6.23 1.08
-5 2 5 5.97 0.86
-5 2 5 7.28 1.17
-5 2 5 5.25 0.98
5 2 -5 5.59 0.89
-5 2 5 6.35 1.09
-5 2 5 6.79 1.12
-5 2 4 39.78 2.6
-5 2 4 46.01 2.7
-5 2 4 42.31 2.14
-5 2 4 43.87 2.71
-5 2 4 40.69 2.6
-5 2 4 40.54 2.53
-5 2 3 348.67 8.87
-5 2 3 365.42 8.85
-5 2 3 340.55 8.77
-5 2 3 360.23 9.08
5 2 -3 330.51 8.47
-5 2 3 325.1 8.07
-5 2 3 351.95 8.94
-5 2 3 365.64 9.11
-5 2 2 150.5 5.03
-5 2 2 149.25 4.92
-5 2 2 139.29 4.78
-5 2 2 146.76 5.1
5 2 -2 135.51 4.76
-5 2 2 143.27 5
-5 2 2 146.7 5
-5 2 2 129.72 4.25
-5 2 1 247.46 6.85
-5 2 1 246.72 6.69
-5 2 1 254.22 6.75
-5 2 1 248.09 7.06
-5 2 1 225.47 6.25
5 2 -1 250.93 6.8
-5 2 1 253.13 6.93
-5 2 1 236.47 6.76
-5 2 1 231.9 6.04
-5 2 0 1599.87 29.64
-5 2 0 1682.84 30.25
-5 2 0 1745.1 32.07
-5 2 0 1626.14 29.74
-5 2 0 1780.68 29.96
-5 2 0 1567.07 30.21
-5 2 0 1740.55 29.51
-5 2 0 1741.86 30.72
5 2 0 1868.19 30.3
-5 2 0 1662.49 30.22
-5 2 0 1694.75 30.9
-5 2 -1 47.22 2.55
-5 2 -1 46.54 2.63
-5 2 -1 48.7 3.24
-5 2 -1 47.76 2.51
-5 2 -1 53.14 2.63
-5 2 -1 48.12 2.8
-5 2 -1 53.02 2.5
-5 2 -1 49.99 2.78
5 2 1 45.97 2.54
-5 2 -1 53.59 3.09
-5 2 -1 47.19 2.66
-5 2 -2 118.85 4.42
-5 2 -2 115.27 5.22
-5 2 -2 106.76 4.44
-5 2 -2 113.75 4.12
-5 2 -2 120.78 4.22
-5 2 -2 111.93 4.15
-5 2 -2 120.81 4.47
-5 2 -2 117.58 4.23
-5 2 -2 109.23 3.89
5 2 2 115.99 4.16
-5 2 -2 112.16 4.73
-5 2 -2 121.38 4.48
-5 2 -3 0.4 0.54
-5 2 -3 0.6 0.41
-5 2 -3 0.8 0.46
-5 2 -3 0.37 0.47
-5 2 -3 0.56 0.42
-5 2 -3 0.68 0.46
-5 2 -3 0.91 0.52
-5 2 -3 0.96 0.77
-5 2 -3 0.97 0.64
-5 2 -3 0.63 0.43
-5 2 -4 4.58 0.98
-5 2 -4 5.39 0.91
-5 2 -4 6.03 0.93
-5 2 -4 6.79 0.98
-5 2 -4 5.07 0.79
-5 2 -4 5.31 0.9
-5 2 -4 6.38 1.05
-5 2 -4 4.41 1.13
-5 2 -4 6.68 1.04
-5 2 -4 5.66 1.15
-5 2 -5 9.88 1.49
-5 2 -5 12.79 1.37
-5 2 -5 12.25 1.11
-5 2 -5 13.91 1.36
-5 2 -5 11.53 1.3
-5 2 -5 7.94 1.45
-5 2 -5 14.22 1.57
-5 2 -5 10.67 1.65
-5 2 -5 10.45 1.49
-5 2 -6 3.62 0.8
-5 2 -6 3.16 0.73
-5 2 -6 3.63 0.91
-5 2 -6 2.28 0.93
-5 2 -6 4.43 1.05
-5 2 -6 3.1 0.6
-5 2 -7 30.58 2.58
-5 2 -7 36.55 2.33
-5 2 -7 32.75 2.44
-5 2 -7 34.53 2.07
-5 2 -7 35.51 1.78
-5 2 -8 63.01 3.48
-5 2 -8 67.48 3.29
-5 2 -8 66.37 2.77
-5 2 -9 381.2 9.27
-5 2 -9 393.22 8.87
-5 2 -9 377.22 8.16
-5 2 -10 127.1 3.75
-5 2 -10 123.73 3.21
-5 2 -10 116.12 3.41
-5 3 12 3.84 0.49
-5 3 11 7.69 0.86
-5 3 11 8.49 0.92
5 3 -11 9.95 0.85
-5 3 11 8.27 0.91
5 3 -11 7 0.77
5 3 -10 82.53 3.02
-5 3 10 80.48 3.41
-5 3 10 83.39 3.36
-5 3 10 86.13 3.43
-5 3 10 81.93 3.16
5 3 -9 367.12 8.4
-5 3 9 360.7 9.19
-5 3 9 351.63 8.95
-5 3 9 381.03 9.25
-5 3 9 360.71 8.59
5 3 -8 913.21 17.85
-5 3 8 949.79 18.95
-5 3 8 946.55 18.69
-5 3 8 961.36 18.87
-5 3 8 897.47 17.91
-5 3 7 627.49 13.62
-5 3 7 619.43 12.83
-5 3 7 598.83 13.61
-5 3 7 615.1 13.5
-5 3 7 628.22 13.84
-5 3 7 610.34 13.71
-5 3 6 51.48 2.92
-5 3 6 46.79 2.48
-5 3 6 51.14 2.88
-5 3 6 46.9 2.87
5 3 -6 46.13 2.5
-5 3 6 45.59 2.85
-5 3 6 40.87 2.71
-5 3 5 0.77 0.52
-5 3 5 1.36 0.58
-5 3 5 1.47 0.49
-5 3 5 0.87 0.47
-5 3 5 0.47 0.45
-5 3 4 119.04 4.48
-5 3 4 110.9 4.29
-5 3 4 118.97 4.44
-5 3 4 112.95 3.72
-5 3 4 110.56 4.47
5 3 -4 114.66 4.16
-5 3 4 110.21 4.21
-5 3 4 116.19 4.51
-5 3 4 115.19 4.52
-5 3 3 10.45 1.27
-5 3 3 11.06 1.27
-5 3 3 9.14 1.18
-5 3 3 11.07 1.36
5 3 -3 9.26 1.14
-5 3 3 9.76 1.23
-5 3 3 11.61 1.3
-5 3 3 10.86 1.23
-5 3 2 20.92 1.74
-5 3 2 24.29 1.78
-5 3 2 19.39 1.6
-5 3 2 22.93 1.86
-5 3 2 21.41 1.66
5 3 -2 21.11 1.67
-5 3 2 20.64 1.72
-5 3 2 20.37 1.7
-5 3 2 23.18 1.75
-5 3 1 38.44 2.34
-5 3 1 34.56 2.1
-5 3 1 32.56 2.05
-5 3 1 40.39 2.47
5 3 -1 40.1 2.27
-5 3 1 38.57 2.31
-5 3 1 32.95 2.16
-5 3 1 35.71 2.15
-5 3 0 335.91 8.44
-5 3 0 348.92 9.75
-5 3 0 326.79 8.1
-5 3 0 353.83 8.25
-5 3 0 342.47 8.76
-5 3 0 324.65 8.09
-5 3 0 322.15 8.08
-5 3 0 334.95 8.42
-5 3 -1 336.25 8.31
-5 3 -1 326.53 9.47
-5 3 -1 314.36 7.86
-5 3 -1 300.94 7.8
-5 3 -1 328.79 8.6
-5 3 -1 339.27 8.02
5 3 1 351.48 8.07
-5 3 -1 327.99 8.89
-5 3 -1 323.76 7.91
-5 3 -1 336.17 8.36
-5 3 -2 118.44 4.32
-5 3 -2 104.52 4.91
-5 3 -2 119.74 4.14
-5 3 -2 122.22 4.15
-5 3 -2 104.51 4.37
-5 3 -2 110.79 3.97
5 3 2 107.05 3.71
-5 3 -2 114.84 4.71
-5 3 -2 117.96 4.3
-5 3 -3 71.54 3.5
-5 3 -3 71.73 3.12
-5 3 -3 66.34 2.91
-5 3 -3 70.19 3.09
-5 3 -3 71.55 3.29
-5 3 -3 67.13 3.86
-5 3 -3 72.36 3.68
-5 3 -3 61.74 3.08
-5 3 -4 690.21 13.74
-5 3 -4 646.1 13.18
-5 3 -4 683.01 13.71
-5 3 -4 667.39 14.13
-5 3 -4 664.43 14.78
-5 3 -5 122.15 4.37
-5 3 -5 127.4 4.08
-5 3 -5 125.95 4.41
-5 3 -5 122.47 4.35
-5 3 -5 111.91 5.2
-5 3 -5 127.69 5.09
-5 3 -6 201.82 5.96
-5 3 -6 207.24 7.1
-5 3 -6 195.32 6.49
-5 3 -6 207.47 5.91
-5 3 -6 211.6 5.52
-5 3 -7 13.89 1.64
-5 3 -7 11.79 1.37
-5 3 -7 13.21 1.24
-5 3 -7 12.83 1.09
-5 3 -8 50.83 2.81
-5 3 -8 49.28 2.52
-5 3 -8 56.28 2.47
-5 3 -8 47.85 1.99
-5 3 -9 306.34 6.64
-5 3 -9 301.5 6.66
-5 3 -10 25.96 1.2
-5 4 11 3.69 0.54
5 4 -10 17.88 1.12
-5 4 10 16.87 1.2
-5 4 10 -0.04 0.14
-5 4 10 -0.04 0.13
-5 4 10 17.28 1.25
5 4 -10 14.68 1.01
-5 4 9 37.79 2.04
-5 4 9 38.22 2.13
5 4 -9 35.04 1.8
-5 4 9 38.76 2.09
-5 4 9 37.49 2.08
-5 4 9 39.04 2.07
-5 4 8 28.45 1.88
-5 4 8 26.8 1.9
5 4 -8 28.22 1.73
-5 4 8 25.57 1.82
-5 4 8 27.21 1.84
-5 4 8 29.53 1.94
-5 4 7 7.13 1.01
-5 4 7 5.54 0.93
5 4 -7 5.84 0.9
-5 4 7 6.86 1
-5 4 7 6.14 0.92
-5 4 7 8.04 1.08
-5 4 6 10.77 1.22
-5 4 6 10.11 1.21
-5 4 6 9.29 1.09
-5 4 6 9.94 1.24
5 4 -6 10.44 1.21
-5 4 6 10.89 1.27
-5 4 5 101.17 3.96
-5 4 5 104.17 3.93
-5 4 5 103.71 3.95
-5 4 5 99.99 3.58
-5 4 5 99.2 4.01
5 4 -5 96.15 3.83
-5 4 5 100.08 4.02
-5 4 4 49.78 2.64
-5 4 4 48.13 2.55
-5 4 4 49.64 2.57
-5 4 4 47.84 2.67
5 4 -4 46.91 2.57
-5 4 4 51.61 2.73
-5 4 4 52.48 2.91
-5 4 3 9.32 1.17
-5 4 3 10.21 1.15
-5 4 3 10.61 1.16
-5 4 3 9.03 1.18
-5 4 3 11.16 1.27
5 4 -3 11.88 1.26
-5 4 3 10.01 1.18
-5 4 3 11.08 1.36
-5 4 2 592.92 12.3
-5 4 2 566.53 11.95
-5 4 2 585.46 12.03
-5 4 2 559.96 12.44
-5 4 2 577.86 12.22
5 4 -2 580.43 12.24
-5 4 2 587.58 12.29
-5 4 2 582.96 12.76
-5 4 1 627.17 13.66
-5 4 1 641.4 13.27
-5 4 1 624.69 12.93
-5 4 1 642 12.97
-5 4 1 665.23 13.67
-5 4 1 662.94 13.53
5 4 -1 681.02 13.21
-5 4 1 657.85 13.93
-5 4 1 628.14 13.23
-5 4 0 18.47 1.65
-5 4 0 14.86 1.37
-5 4 0 17.28 1.38
-5 4 0 23.83 1.62
-5 4 0 22.36 1.77
-5 4 0 15.85 1.45
5 4 0 15.96 1.37
-5 4 0 15.92 1.55
-5 4 0 17.49 1.51
-5 4 -1 572.36 11.96
-5 4 -1 538.43 11.47
-5 4 -1 549.48 11.51
-5 4 -1 568.82 12.26
5 4 1 541.14 11.73
-5 4 -1 543.48 12.22
-5 4 -2 446.16 9.7
-5 4 -2 407.76 10.62
-5 4 -2 413.96 9.15
-5 4 -2 430.22 9.26
-5 4 -2 416.61 9.84
-5 4 -2 393.83 9.7
-5 4 -2 403.57 9.45
5 4 2 400.8 9.25
-5 4 -2 392.5 10.08
-5 4 -2 402.2 9.73
-5 4 -3 24.57 1.68
-5 4 -3 26.28 1.74
-5 4 -3 23.69 1.83
-5 4 -3 22.81 1.71
-5 4 -3 24.08 1.79
-5 4 -3 24.45 2.19
-5 4 -3 26.74 2.09
-5 4 -3 24.78 1.84
-5 4 -4 18.5 1.45
-5 4 -4 18.98 1.5
-5 4 -4 20.8 1.74
-5 4 -4 14.81 1.76
-5 4 -4 18.99 1.74
-5 4 -4 20.33 1.68
-5 4 -4 18.38 1.48
-5 4 -5 20.43 1.56
-5 4 -5 22.31 1.69
-5 4 -5 23.36 1.61
-5 4 -5 21.38 1.81
-5 4 -5 22.48 1.72
-5 4 -5 20.46 1.95
-5 4 -6 12.57 1.26
-5 4 -6 12.35 1.12
-5 4 -6 12.46 1.35
-5 4 -6 11.64 1.44
-5 4 -7 79.05 2.84
-5 4 -7 77.56 3.09
-5 4 -7 71.04 3.2
-5 4 -8 0.38 0.3
-5 4 -8 0.37 0.3
-5 5 10 -0.07 0.23
5 5 -10 0.11 0.2
-5 5 9 122.22 3.78
5 5 -9 128.98 3.76
-5 5 8 3.69 0.6
5 5 -8 2.97 0.65
-5 5 7 25.97 1.63
-5 5 7 29.89 1.83
-5 5 6 88.76 3.34
-5 5 6 83.63 3.22
-5 5 5 61.93 2.86
-5 5 5 66.04 2.7
5 5 -4 13.59 1.37
-5 5 4 14.57 1.58
-5 5 4 13.04 1.33
5 5 -3 83.61 3.46
-5 5 3 85.72 3.97
-5 5 3 87.94 3.59
-5 5 2 1.93 0.7
5 5 -2 1.81 0.55
-5 5 2 3.79 0.84
-5 5 2 2 0.61
-5 5 1 6.58 1.12
5 5 -1 7.1 0.95
-5 5 1 6.2 1.03
-5 5 1 6.98 1.02
5 5 0 187.52 5.71
-5 5 0 180.74 6.1
-5 5 0 186.04 5.81
-5 5 0 199.68 5.76
-5 5 -1 5.3 1.01
5 5 1 4.81 0.84
-5 5 -1 4.22 0.84
-5 5 -1 4.78 0.86
5 5 2 753.4 14.79
-5 5 -2 733.84 14.93
-5 5 -2 746.29 14.72
-5 5 -3 1052.27 20.59
-5 5 -3 1089.47 20.42
-5 5 -4 6.81 1.01
-5 5 -4 7.85 0.99
-5 5 -4 10.16 1.15
-5 5 -5 241.54 5.87
-5 5 -5 251.97 5.78
-5 5 -6 4.04 0.7
-5 5 -6 3.95 0.66
-5 5 -7 67.18 2.59
-5 5 -7 62.17 2.42
-5 5 -8 24.8 1.29
-5 5 -8 24.97 1.38
-5 5 -9 0.18 0.19
5 6 -9 15.26 1.03
-5 6 9 13.16 0.93
-5 6 8 13.85 1.05
5 6 -7 1.54 0.48
-5 6 7 1.6 0.43
-5 6 6 3.78 0.62
5 6 -6 3.93 0.74
-5 6 6 3.22 0.56
5 6 -5 41.67 2.24
-5 6 5 37.42 1.98
5 6 -4 52.93 2.53
-5 6 4 47.13 2.5
-5 6 4 45.79 2.83
-5 6 4 48.63 2.37
5 6 -3 624.63 12.29
-5 6 3 578.79 12.59
-5 6 3 571.37 13.44
-5 6 3 611.43 12.41
5 6 -2 70.6 2.79
-5 6 2 64.77 3.01
-5 6 2 59.92 3.36
-5 6 2 62.47 2.88
5 6 -1 140.21 4.06
-5 6 1 142.4 4.71
-5 6 1 134.18 4.5
-5 6 0 49.83 2.99
-5 6 0 51.04 2.63
-5 6 0 52.71 2.62
-5 6 -1 141.46 5.36
-5 6 -1 152.09 4.8
-5 6 -2 500.72 10.75
-5 6 -2 525.93 10.79
-5 6 -3 836.83 16.09
-5 6 -3 871.14 16.13
-5 6 -4 144.92 4.79
-5 6 -4 144.5 4.44
-5 6 -5 0.49 0.35
-5 6 -5 0.09 0.25
-5 6 -6 3.45 0.59
-5 6 -6 3.74 0.61
-5 6 -7 42.14 1.79
-5 6 -7 41.9 1.76
-5 6 -8 2.27 0.35
-5 6 -8 2.68 0.38
5 7 -7 13.55 1.07
5 7 -6 2.83 0.58
5 7 -5 168.02 4.7
-5 7 5 156.02 4.24
5 7 -4 109.17 3.61
-5 7 4 97.53 3.3
-5 7 4 105.48 3.21
5 7 -3 4.56 0.71
-5 7 3 2.71 0.57
-5 7 3 3.46 0.85
-5 7 3 2.92 0.58
5 7 -2 41.03 2
-5 7 2 39.12 2.55
-5 7 2 38 2.01
-5 7 2 39.51 2.02
-5 7 1 90.08 3.99
-5 7 1 98.61 3.42
-5 7 1 96.15 3.4
-5 7 0 43.01 2.65
-5 7 0 45.11 2.2
-5 7 0 43.11 2.17
-5 7 -1 23.06 1.91
-5 7 -1 26.11 1.64
-5 7 -1 24.13 1.56
-5 7 -2 371 8.01
-5 7 -2 356.22 7.8
-5 7 -3 1.94 0.48
-5 7 -3 2.53 0.67
-5 7 -3 2.24 0.56
-5 7 -4 74.06 2.96
-5 7 -4 77.98 2.66
-5 7 -4 83.01 2.87
-5 7 -5 114.89 2.89
-5 7 -5 113.38 2.62
-5 7 -6 0.67 0.26
-5 7 -7 0.06 0.17
5 8 -7 142.1 3.55
5 8 -6 131.08 3.59
5 8 -5 58.3 2.26
5 8 -4 4.17 0.62
5 8 -3 20.59 1.3
-5 8 2 22.82 1.19
-5 8 1 235.44 6.55
-5 8 1 247.44 5.43
-5 8 0 332.46 8.19
-5 8 0 346.26 7.12
-5 8 -1 732.85 14.79
-5 8 -1 776.34 13.81
-5 8 -2 153.09 4.62
-5 8 -2 162.29 4.07
-5 8 -3 55.86 2.33
-5 8 -3 60.08 2.14
-5 8 -4 9.21 0.79
-5 8 -4 11.64 0.85
-5 8 -5 12.69 0.8
-5 9 0 3.12 0.54
-5 9 -1 120.11 3.38
-6 -8 4 9.87 0.75
-6 -8 3 3.52 0.5
-6 -8 0 61.15 2.14
-6 -8 0 51.36 1.81
-6 -8 -1 428.58 8.21
-6 -8 -1 416.61 8.1
-6 -8 -2 139.76 3.46
6 -7 -7 221.57 4.35
-6 -7 7 209.2 4.48
6 -7 -6 27.13 1.23
-6 -7 6 27.22 1.38
6 -7 -5 7.97 0.7
6 -7 -5 7.48 0.75
-6 -7 5 7.69 0.79
6 -7 -4 0.09 0.21
6 -7 -4 -0.07 0.26
6 -7 -3 52.84 1.92
6 -7 -3 53.04 2.18
-6 -7 2 -0.04 0.14
-6 -7 2 3.84 0.67
-6 -7 1 26.42 1.65
-6 -7 1 25.26 1.51
-6 -7 1 22.8 1.53
-6 -7 0 2.69 0.6
-6 -7 0 3.63 0.64
-6 -7 0 2.7 0.58
-6 -7 0 2.95 0.66
-6 -7 -1 20.9 1.41
-6 -7 -1 21.02 1.56
-6 -7 -1 20.46 1.45
-6 -7 -2 8.12 0.86
-6 -7 -2 7.76 0.98
-6 -7 -2 8.75 0.97
-6 -7 -3 490.62 9.49
-6 -7 -3 476.83 10.04
-6 -7 -3 489.6 9.93
-6 -7 -4 7.73 0.78
-6 -6 8 98.94 2.9
6 -6 -8 102.32 2.78
6 -6 -8 102.34 2.72
-6 -6 7 9.68 0.9
6 -6 -7 9.88 0.86
6 -6 -7 10.72 0.84
6 -6 -6 18.78 1.29
6 -6 -6 19.61 1.21
6 -6 -5 32.93 1.84
6 -6 -5 34.28 1.69
6 -6 -4 138.11 3.86
-6 -6 4 134.94 4.4
6 -6 -3 1.29 0.41
-6 -6 3 1.52 0.55
-6 -6 2 185.02 5.5
-6 -6 2 174.68 5.32
6 -6 -2 189.96 4.54
-6 -6 2 185.96 5.43
-6 -6 1 8.62 1.05
-6 -6 1 7.18 0.93
-6 -6 1 8.55 1.15
-6 -6 1 9.38 1.2
-6 -6 0 52.87 2.62
-6 -6 0 53.61 2.58
-6 -6 0 58.14 3.03
-6 -6 0 56.95 2.98
-6 -6 -1 56.94 2.7
-6 -6 -1 58.49 2.72
-6 -6 -1 60.17 3.11
-6 -6 -1 65.45 3.21
-6 -6 -2 1 0.46
-6 -6 -2 0.55 0.48
-6 -6 -2 0.83 0.57
-6 -6 -3 67.24 2.69
-6 -6 -3 69.95 3.21
-6 -6 -3 72.69 3.29
-6 -6 -4 23.71 1.4
-6 -6 -4 26.62 1.82
-6 -6 -5 0.37 0.33
-6 -6 -5 0.21 0.3
6 -5 -9 312.01 6.35
-6 -5 9 352.74 6.97
6 -5 -8 9.14 0.83
6 -5 -8 10.51 0.87
6 -5 -7 180.44 4.87
6 -5 -7 186.98 4.75
-6 -5 6 7.71 1
6 -5 -6 7.53 0.93
6 -5 -6 7.31 0.85
6 -5 -5 241.08 5.93
-6 -5 5 232.31 6.49
6 -5 -4 38.91 1.99
-6 -5 4 41.23 2.4
6 -5 -3 32.34 1.75
-6 -5 3 30.86 2.08
-6 -5 3 29.24 2.03
-6 -5 2 -0.08 0.49
-6 -5 2 -0.07 0.47
6 -5 -2 0.46 0.3
-6 -5 2 -0.05 0.26
-6 -5 2 0.06 0.38
-6 -5 1 38.43 2.6
-6 -5 1 40.59 2.69
-6 -5 1 33.41 2.06
-6 -5 1 37.53 2.28
-6 -5 0 64.84 3.51
-6 -5 0 66.34 3.58
-6 -5 0 64.38 2.99
-6 -5 0 65.52 3.04
-6 -5 -1 55.11 3.23
-6 -5 -1 60.22 3.41
-6 -5 -1 57.81 2.84
-6 -5 -1 58.54 2.79
-6 -5 -2 0.09 0.48
-6 -5 -2 0.25 0.58
-6 -5 -2 0.33 0.38
-6 -5 -3 182.98 6.14
-6 -5 -3 167.03 4.92
-6 -5 -4 197.01 6.05
-6 -5 -4 201.49 6.31
-6 -5 -4 191.99 5.11
-6 -5 -5 38.55 2.18
-6 -5 -6 310.27 6.83
-6 -5 -6 310.79 7.37
-6 -5 -7 127.43 3.43
6 -4 -10 88.14 2.44
6 -4 -9 24.37 1.18
-6 -4 9 -0.03 0.09
6 -4 -8 -0.03 0.12
6 -4 -8 0.11 0.29
-6 -4 8 0.25 0.31
-6 -4 8 0.28 0.29
-6 -4 7 31.94 1.77
6 -4 -7 33.83 1.79
-6 -4 7 34.17 1.98
-6 -4 7 34.53 1.94
-6 -4 7 33.66 1.85
6 -4 -7 34.57 1.92
-6 -4 6 104.13 3.63
-6 -4 6 102.6 3.84
-6 -4 6 106.96 3.82
-6 -4 6 108.66 3.72
-6 -4 5 133.26 4.3
-6 -4 5 130.16 4.28
-6 -4 5 134.12 4.6
-6 -4 5 128.77 4.41
-6 -4 4 292.01 7.26
-6 -4 4 299.68 7.36
-6 -4 4 288.52 7.6
-6 -4 4 301.66 7.82
-6 -4 4 290.33 7.5
-6 -4 3 60.99 2.75
-6 -4 3 58.65 2.73
-6 -4 3 63.51 3.27
-6 -4 3 58.99 3.35
-6 -4 3 63.02 3.07
-6 -4 3 57.6 2.97
-6 -4 3 59.75 2.88
-6 -4 2 69.67 2.94
-6 -4 2 67.08 2.9
-6 -4 2 63.82 3.07
-6 -4 2 76.62 3.76
-6 -4 2 64.1 3.58
6 -4 -2 64.25 2.54
-6 -4 2 65.11 3.16
-6 -4 2 65.04 3.01
-6 -4 1 5 0.76
-6 -4 1 2.11 0.56
-6 -4 1 2.36 0.8
-6 -4 1 1.87 0.77
-6 -4 1 2.97 0.6
-6 -4 1 2.69 0.68
-6 -4 1 2.58 0.71
-6 -4 1 2.35 0.6
-6 -4 0 249.11 6.34
-6 -4 0 235.93 6.5
-6 -4 0 250.07 6.38
-6 -4 0 234.78 7.61
-6 -4 0 240.99 7.87
-6 -4 0 237.16 6.56
-6 -4 0 246.97 6.91
-6 -4 0 251.81 6.66
-6 -4 -1 26.46 1.72
-6 -4 -1 28.8 1.81
-6 -4 -1 30.11 1.94
-6 -4 -1 26.72 2.32
-6 -4 -1 28.77 2.47
-6 -4 -1 26.65 1.96
-6 -4 -1 27.14 1.85
-6 -4 -2 2.04 0.54
-6 -4 -2 2.1 0.84
-6 -4 -2 1.55 0.8
-6 -4 -2 1.63 0.49
-6 -4 -2 2.95 0.62
-6 -4 -2 1.43 0.57
-6 -4 -2 1.48 0.51
-6 -4 -3 13.69 1.19
-6 -4 -3 11.16 1.13
-6 -4 -3 11.74 1.53
-6 -4 -3 11.42 1.1
-6 -4 -3 14.17 1.33
-6 -4 -4 5.43 0.76
-6 -4 -4 6.16 0.85
-6 -4 -4 5 1.05
-6 -4 -4 5.5 1.06
-6 -4 -5 14.85 1.42
-6 -4 -5 16.47 1.54
-6 -4 -5 16.41 1.63
-6 -4 -6 6.92 0.88
-6 -4 -6 7.38 1.02
-6 -4 -7 11.76 1.04
6 -3 -11 1.53 0.27
-6 -3 10 7.05 0.68
6 -3 -10 1.22 0.34
-6 -3 10 7.12 0.71
-6 -3 10 4.24 0.61
6 -3 -10 1.67 0.4
-6 -3 10 1.92 0.44
-6 -3 9 16.88 1.29
6 -3 -9 15.69 1.19
-6 -3 9 15.23 1.24
-6 -3 9 15.17 1.3
-6 -3 9 16.82 1.34
-6 -3 8 93.95 3.57
6 -3 -8 95.82 3.42
-6 -3 8 95.2 3.73
-6 -3 8 96.13 3.7
-6 -3 8 94.59 3.58
6 -3 -8 89.96 3.03
-6 -3 7 348.72 8.51
-6 -3 7 345.59 8.52
6 -3 -7 329.57 7.76
-6 -3 7 340.92 8.74
-6 -3 7 333.54 8.58
-6 -3 6 2.55 0.73
-6 -3 6 2.27 0.68
-6 -3 6 3.04 0.77
-6 -3 6 2.5 0.77
-6 -3 5 125.85 4.68
-6 -3 5 127.98 4.96
-6 -3 5 126.87 4.65
-6 -3 5 123.25 4.77
-6 -3 4 40.79 2.59
-6 -3 4 41 2.7
-6 -3 4 42.83 2.57
-6 -3 4 41.59 2.54
-6 -3 4 39.37 2.51
6 -3 -4 42.78 2.55
6 -3 -4 38.53 2.32
-6 -3 4 44.17 2.72
-6 -3 4 41.62 2.65
-6 -3 3 2.24 0.71
-6 -3 3 8.14 1.22
-6 -3 3 7.45 1.12
-6 -3 3 1.88 0.79
-6 -3 3 2.79 0.82
-6 -3 3 2.98 0.72
6 -3 -3 2.1 0.6
-6 -3 3 2.1 0.67
-6 -3 3 3.37 0.8
-6 -3 2 133.85 4.86
-6 -3 2 125.83 5
-6 -3 2 132.69 4.64
-6 -3 2 126.55 4.59
-6 -3 2 115.79 4.98
-6 -3 2 132.42 5.47
-6 -3 2 116.76 4.27
6 -3 -2 113.12 4.4
-6 -3 2 124.17 4.77
-6 -3 1 6.9 1.05
-6 -3 1 6.24 1.06
-6 -3 1 6.45 1.01
-6 -3 1 5.49 0.9
-6 -3 1 7.29 1.3
-6 -3 1 4.55 1.05
-6 -3 1 6.86 0.95
6 -3 -1 3.9 0.85
-6 -3 1 4.1 0.87
-6 -3 0 378.27 9.17
-6 -3 0 355.72 9.34
-6 -3 0 351.84 8.62
-6 -3 0 366.26 8.77
-6 -3 0 329.79 9.7
-6 -3 0 364.64 10.21
-6 -3 0 340.89 8.2
6 -3 0 307.77 8.7
-6 -3 0 346.81 8.99
-6 -3 -1 1513.76 25.78
-6 -3 -1 1467.89 26.43
-6 -3 -1 1408.09 25.18
-6 -3 -1 1457.57 25.22
-6 -3 -1 1409.27 27.02
-6 -3 -1 1333.04 27.06
-6 -3 -1 1301.41 24.44
6 -3 1 1199.04 25.26
-6 -3 -1 1377.44 25.59
-6 -3 -2 315.05 7.92
-6 -3 -2 335.43 8.11
-6 -3 -2 286.14 7.21
-6 -3 -2 335.26 8.39
-6 -3 -2 291.01 8.91
-6 -3 -2 330.59 8.8
-6 -3 -3 57.93 3.17
-6 -3 -3 58.49 2.8
-6 -3 -3 52.61 3.25
-6 -3 -3 47.6 3.2
-6 -3 -3 58.37 2.83
-6 -3 -3 63.52 3.1
-6 -3 -3 58.4 3.47
-6 -3 -3 57.1 3.16
-6 -3 -4 510.68 10.94
-6 -3 -4 491.62 11.87
-6 -3 -4 491.02 10.82
-6 -3 -4 483.7 12.1
-6 -3 -4 494.89 11.62
-6 -3 -5 40.15 2.47
-6 -3 -5 42.86 2.71
-6 -3 -5 46.15 2.45
-6 -3 -5 43.07 2.77
-6 -3 -5 42.65 2.54
-6 -3 -5 41.71 2.24
-6 -3 -6 56.65 2.77
-6 -3 -6 53.61 2.5
-6 -3 -6 57.08 2.87
-6 -3 -6 56.01 2.95
-6 -3 -7 3.9 0.68
-6 -3 -7 4.21 0.7
-6 -3 -7 3.13 0.73
-6 -3 -8 78.58 2.54
-6 -2 11 1.92 0.41
-6 -2 11 1.95 0.42
6 -2 -11 2.11 0.4
-6 -2 11 1.8 0.41
6 -2 -11 1.65 0.37
-6 -2 11 1.69 0.41
-6 -2 10 185.02 4.74
-6 -2 10 181.63 4.99
6 -2 -10 194.77 4.88
-6 -2 10 191.25 5.08
-6 -2 10 183.31 5.16
-6 -2 10 180.63 5.08
-6 -2 9 0.06 0.36
-6 -2 9 0.12 0.34
6 -2 -9 0.65 0.42
-6 -2 9 0.13 0.41
-6 -2 9 0.31 0.44
-6 -2 8 119.59 4.5
-6 -2 8 123.04 4.18
6 -2 -8 130.43 4.4
-6 -2 8 123.08 4.66
-6 -2 8 121.89 4.53
-6 -2 8 118.74 4.65
-6 -2 7 25.99 2.06
6 -2 -7 26.43 1.64
-6 -2 7 26.94 2.08
-6 -2 7 27.14 1.88
-6 -2 7 27.96 2.21
-6 -2 7 31.38 2.35
-6 -2 6 466.36 11.08
-6 -2 6 460.62 11.34
-6 -2 6 453.18 10.97
-6 -2 6 445.04 10.18
-6 -2 6 432.31 11.01
-6 -2 5 44.31 2.86
-6 -2 5 43.61 2.78
-6 -2 5 43.5 2.39
-6 -2 5 47.48 2.87
-6 -2 5 45.84 2.97
-6 -2 5 40.67 2.5
6 -2 -5 40.71 2.39
-6 -2 5 42.34 2.84
-6 -2 5 45.72 2.93
-6 -2 4 921.59 18.95
-6 -2 4 894.95 17.54
-6 -2 4 954.96 18.87
-6 -2 4 955.73 18.9
-6 -2 4 959.98 19.36
-6 -2 4 921.72 18.65
6 -2 -4 878.47 18.13
-6 -2 4 952.8 19.16
-6 -2 4 875.03 18.8
-6 -2 3 237.9 7.4
-6 -2 3 262.96 7.87
-6 -2 3 254.93 7.34
-6 -2 3 246.5 7.29
-6 -2 3 238.76 7.51
-6 -2 3 276.66 8.36
6 -2 -3 240.91 7.28
-6 -2 3 258.33 7.63
-6 -2 3 237.35 7.4
-6 -2 2 133.86 5.14
-6 -2 2 130.15 5.23
-6 -2 2 129.92 4.83
-6 -2 2 137.91 4.99
-6 -2 2 116.91 5.04
-6 -2 2 137.24 5.65
-6 -2 2 127.28 4.27
6 -2 -2 115.68 4.24
-6 -2 2 130.26 5.05
-6 -2 2 126.67 4.96
-6 -2 1 241.65 7.26
-6 -2 1 259.33 7.74
-6 -2 1 231.75 6.83
-6 -2 1 244.93 7.04
-6 -2 1 247.18 7.75
-6 -2 1 252.34 8.07
-6 -2 1 233.08 6.12
6 -2 -1 216.39 6.45
-6 -2 1 232.34 7.17
-6 -2 0 591.86 13.39
-6 -2 0 625.7 13.14
-6 -2 0 603.11 13.08
-6 -2 0 615.04 13.75
-6 -2 0 629.23 14.32
-6 -2 0 592.16 13.51
-6 -2 -1 16.36 1.67
-6 -2 -1 15.56 1.91
-6 -2 -1 15.89 1.54
-6 -2 -1 17.82 1.66
-6 -2 -1 19.47 1.94
-6 -2 -1 17.23 1.98
6 -2 1 14.61 1.48
-6 -2 -1 13.57 1.56
-6 -2 -2 19.41 1.82
-6 -2 -2 16.93 2.02
-6 -2 -2 19.75 1.71
-6 -2 -2 22.28 1.81
-6 -2 -2 21.42 2.03
-6 -2 -2 22.38 2.15
-6 -2 -2 17.97 2
6 -2 2 16.38 1.56
-6 -2 -2 18.87 1.93
-6 -2 -2 17.14 1.71
-6 -2 -3 12.39 1.56
-6 -2 -3 14.08 1.42
-6 -2 -3 11.63 1.35
-6 -2 -3 10.9 1.49
-6 -2 -3 10.44 1.54
-6 -2 -3 15.3 1.61
-6 -2 -3 10.79 1.61
-6 -2 -3 11.47 1.51
-6 -2 -4 2.05 0.65
-6 -2 -4 1.87 0.73
-6 -2 -4 2.44 0.8
-6 -2 -4 2.66 0.72
-6 -2 -4 3.21 1.04
-6 -2 -4 3.89 0.89
-6 -2 -4 1.47 0.69
-6 -2 -5 6.84 1.02
-6 -2 -5 7.33 1.1
-6 -2 -5 7.38 1.19
-6 -2 -5 7.36 1.02
-6 -2 -5 8.86 1.27
-6 -2 -5 4.87 1.14
-6 -2 -5 7.17 1.17
-6 -2 -6 83.97 3.36
-6 -2 -6 77.53 3.11
-6 -2 -6 82.52 3.49
-6 -2 -6 78.92 3.66
-6 -2 -6 77.21 3.88
-6 -2 -7 5.55 0.76
-6 -2 -7 5.74 1
-6 -2 -7 6.19 0.96
-6 -2 -8 11.84 1.18
-6 -2 -8 11.58 1.07
-6 -1 11 65.22 2.45
-6 -1 11 62.27 2.49
6 -1 -11 57.31 2.16
6 -1 -11 63.63 2.34
-6 -1 11 61.45 2.44
-6 -1 11 63.58 2.42
-6 -1 11 61.87 2.17
-6 -1 10 53.99 2.58
-6 -1 10 54.63 2.69
6 -1 -10 56.33 2.43
-6 -1 10 55.51 2.66
-6 -1 10 54.81 2.61
6 -1 -9 6.89 0.95
-6 -1 9 6.75 1.07
-6 -1 9 6.56 1.03
-6 -1 9 6.35 0.88
-6 -1 9 6.54 1.03
-6 -1 8 22.88 2.03
-6 -1 8 25.14 2.05
-6 -1 8 24.53 1.75
-6 -1 8 24.28 2
-6 -1 7 99.71 4.5
-6 -1 7 99.16 4.36
-6 -1 7 101.47 3.85
-6 -1 7 94.73 4.28
-6 -1 6 16.85 1.79
-6 -1 6 17 1.82
-6 -1 6 17.38 1.5
-6 -1 6 19.78 1.98
-6 -1 6 14.67 1.75
-6 -1 6 17.43 1.83
-6 -1 5 200.27 6.77
-6 -1 5 195.48 6.7
-6 -1 5 219.04 5.96
-6 -1 5 194.74 6.61
-6 -1 5 200.86 6.87
6 -1 -5 193.67 5.99
-6 -1 5 211.56 7
-6 -1 5 200.46 6.82
-6 -1 4 24.39 2.17
-6 -1 4 29.55 2.27
-6 -1 4 24.77 1.72
-6 -1 4 29.28 2.3
-6 -1 4 27.55 2.34
-6 -1 4 27.86 2.21
6 -1 -4 28.45 2.1
-6 -1 4 28.47 2.34
-6 -1 4 25.09 2.17
-6 -1 3 10.12 1.43
-6 -1 3 13.95 1.23
-6 -1 3 11.97 1.51
-6 -1 3 12.44 1.5
-6 -1 3 12.7 1.63
-6 -1 3 11.78 1.51
6 -1 -3 11.37 1.4
-6 -1 3 11.21 1.48
-6 -1 3 11.08 1.47
-6 -1 2 637.72 14.95
-6 -1 2 647.62 14.55
-6 -1 2 640.22 14.34
-6 -1 2 641.65 15.47
-6 -1 2 702.98 14.97
-6 -1 2 649.11 14.65
-6 -1 2 666.3 14.8
-6 -1 1 395.14 10.31
-6 -1 1 376.84 9.49
-6 -1 1 392.88 9.56
-6 -1 1 343.25 8.24
-6 -1 1 359.23 9.92
-6 -1 1 342.54 8.27
-6 -1 1 367.24 9.72
-6 -1 1 377.42 9.74
-6 -1 0 547.09 13.52
-6 -1 0 587.82 13
-6 -1 0 556.92 12.87
-6 -1 0 640.54 14.15
-6 -1 0 556.18 11.66
-6 -1 0 609.03 14.21
-6 -1 0 554.18 13.07
-6 -1 0 619.06 14.79
-6 -1 0 588.89 13.3
-6 -1 -1 6.56 1.23
-6 -1 -1 8.76 1.2
-6 -1 -1 8.25 1.15
-6 -1 -1 3.41 0.98
-6 -1 -1 3.98 1.09
-6 -1 -1 5.9 1.1
-6 -1 -1 2.34 0.83
-6 -1 -1 4.83 1.03
-6 -1 -2 26.44 2.31
-6 -1 -2 24.09 1.95
-6 -1 -2 26.29 2.03
-6 -1 -2 23.19 2.16
-6 -1 -2 27.98 2.39
-6 -1 -2 27.26 2.18
-6 -1 -2 24.95 2.47
-6 -1 -2 26.13 2.32
-6 -1 -2 23.83 2.06
-6 -1 -3 353.81 9.85
-6 -1 -3 373.26 9.13
-6 -1 -3 365.28 9.14
-6 -1 -3 356.81 9.94
-6 -1 -3 344.8 9.26
-6 -1 -3 365.33 9.48
-6 -1 -3 356.6 9.62
-6 -1 -3 351.17 9.75
-6 -1 -4 2.88 0.89
-6 -1 -4 3.35 0.86
-6 -1 -4 2.03 0.71
-6 -1 -4 1.67 0.64
-6 -1 -4 2.46 0.74
-6 -1 -4 2.46 0.77
-6 -1 -4 2.45 0.98
-6 -1 -4 2.05 0.83
-6 -1 -5 2.69 0.76
-6 -1 -5 0.59 0.46
-6 -1 -5 2.57 0.72
-6 -1 -5 1.07 0.57
-6 -1 -5 1.99 0.75
-6 -1 -5 1.7 0.89
-6 -1 -5 2.65 0.93
-6 -1 -6 291.23 7.6
-6 -1 -6 283.87 8.68
-6 -1 -6 286.11 6.92
-6 -1 -6 288.6 7.38
-6 -1 -6 304.57 8.36
-6 -1 -7 9.84 1.23
-6 -1 -7 8.96 1.32
-6 -1 -8 3.81 0.71
-6 -1 -8 2.86 0.76
-6 -1 -9 23.93 1.43
6 0 -12 148.66 3.46
-6 0 12 150.51 3.59
-6 0 12 147.41 3.6
-6 0 11 0.05 0.33
-6 0 11 0.08 0.33
6 0 -11 -0.03 0.27
-6 0 11 0.17 0.34
6 0 -11 0.04 0.28
-6 0 11 0.04 0.32
6 0 -10 70.32 2.81
-6 0 10 66.91 3.08
-6 0 10 65.19 2.95
-6 0 10 63.35 2.92
-6 0 9 0.35 0.43
6 0 -9 0.4 0.39
-6 0 9 0.2 0.35
-6 0 9 0.21 0.42
-6 0 9 -0.08 0.42
-6 0 8 13.9 1.63
-6 0 8 12.73 1.47
-6 0 8 13.41 1.54
-6 0 8 14 1.33
-6 0 7 -0.08 0.54
-6 0 7 0.18 0.49
-6 0 7 0.18 0.36
-6 0 7 0.43 0.62
-6 0 6 76.34 3.91
-6 0 6 74.54 3.82
-6 0 6 75.03 3.23
-6 0 6 79.91 3.94
-6 0 6 79.83 4.09
-6 0 6 82.12 4.13
6 0 -6 68.75 3.11
-6 0 6 78.68 4.04
-6 0 5 -0.18 0.55
-6 0 5 0.09 0.5
-6 0 5 0.06 0.36
-6 0 5 0.34 0.56
-6 0 5 0.17 0.52
6 0 -5 0.4 0.41
-6 0 5 0.09 0.39
-6 0 5 -0.09 0.41
-6 0 4 663.13 14.64
-6 0 4 640.93 14.74
-6 0 4 645.88 14.4
-6 0 4 622.47 12.72
-6 0 4 632.8 14.28
-6 0 4 656.05 14.47
-6 0 4 653.41 14.73
-6 0 4 650.74 14.65
-6 0 3 0.26 0.47
-6 0 3 0.73 0.62
-6 0 3 0.27 0.31
-6 0 3 0.24 0.37
-6 0 3 0.26 0.58
-6 0 3 0.24 0.41
6 0 -3 0.37 0.42
-6 0 3 0.18 0.5
-6 0 3 0.43 0.47
-6 0 2 3891.68 67.22
-6 0 2 3835.56 67.51
-6 0 2 3776.34 66.69
-6 0 2 3974.55 66.99
-6 0 2 4118.96 67.67
6 0 -2 4387.34 67.09
-6 0 2 3899.88 67.11
-6 0 2 4124.2 67.24
-6 0 1 0.99 0.5
-6 0 1 1.37 0.55
-6 0 1 1.28 0.52
-6 0 1 0.29 0.51
-6 0 1 0.22 0.39
-6 0 1 0.27 0.59
-6 0 1 -0.08 0.44
6 0 -1 0.24 0.53
-6 0 1 0.92 0.42
-6 0 0 9.66 1.33
-6 0 0 7.54 1.44
-6 0 0 9.74 1.4
-6 0 0 9.64 1.27
-6 0 0 7.83 1.16
-6 0 0 8.37 1.02
-6 0 0 9.38 1.45
-6 0 0 8.93 1.11
6 0 0 9.41 1.35
-6 0 0 8.09 1.22
-6 0 -1 -0.06 0.32
-6 0 -1 0.68 0.73
-6 0 -1 0.24 0.54
-6 0 -1 0.86 0.57
-6 0 -1 0.09 0.49
-6 0 -1 -0.05 0.29
-6 0 -1 0.09 0.55
-6 0 -1 0.91 0.63
-6 0 -1 1.46 0.67
6 0 1 0.17 0.38
-6 0 -1 0.58 0.67
-6 0 -1 -0.17 0.4
-6 0 -2 3.67 0.86
-6 0 -2 1.23 0.66
-6 0 -2 1.63 0.69
-6 0 -2 2.12 0.78
-6 0 -2 2.31 0.76
-6 0 -2 1.55 0.74
-6 0 -2 1.9 0.68
-6 0 -2 2.17 0.6
-6 0 -2 2.66 1.03
-6 0 -2 1.78 0.71
-6 0 -3 0.05 0.31
-6 0 -3 0.7 0.86
-6 0 -3 0.16 0.49
-6 0 -3 0.28 0.59
-6 0 -3 0.21 0.45
-6 0 -3 -0.08 0.46
-6 0 -3 -0.16 0.54
-6 0 -3 0.5 0.51
6 0 3 -0.15 0.33
-6 0 -3 0.08 0.39
-6 0 -3 0.1 0.57
-6 0 -4 26.44 2.28
-6 0 -4 28.3 2.09
-6 0 -4 30.13 2.15
-6 0 -4 29.44 2.17
-6 0 -4 27.75 2.14
-6 0 -4 30.62 1.77
-6 0 -4 29.22 2.24
-6 0 -4 25.63 2.54
-6 0 -4 28.19 2.42
-6 0 -5 0.61 0.53
-6 0 -5 -0.2 0.46
-6 0 -5 0.17 0.3
-6 0 -5 -0.08 0.5
-6 0 -5 -0.11 0.76
-6 0 -5 0.18 0.61
-6 0 -5 -0.12 0.37
-6 0 -5 0.12 0.34
-6 0 -6 169.77 5.37
-6 0 -6 161.17 4.39
-6 0 -6 164.19 6.33
-6 0 -6 174.14 6.05
-6 0 -7 -0.17 0.64
-6 0 -7 0.21 0.47
-6 0 -8 11.26 1.28
-6 0 -8 15.5 1.35
-6 0 -9 -0.17 0.34
-6 0 -9 0.11 0.24
-6 1 11 59.6 2.38
-6 1 11 58.63 2.47
6 1 -11 65 2.26
6 1 -11 58.87 2.22
-6 1 11 60.37 2.43
-6 1 11 58.44 2.37
-6 1 10 49.19 2.49
-6 1 10 50.62 2.62
6 1 -10 56.04 2.39
-6 1 10 50.12 2.55
-6 1 10 50.71 2.55
-6 1 10 51.07 2.21
6 1 -9 7.46 1
-6 1 9 5.95 1.04
-6 1 9 6.73 1.08
-6 1 9 8.02 0.97
-6 1 9 6.47 1.01
-6 1 8 24.28 2.08
-6 1 8 25.47 1.76
-6 1 8 22.19 1.96
-6 1 8 24.27 2
-6 1 7 88.46 4.29
-6 1 7 100.59 3.72
-6 1 7 88.06 4.13
-6 1 7 97.73 4.28
-6 1 6 17.75 1.82
-6 1 6 18.65 1.52
-6 1 6 16.44 1.77
-6 1 6 18.39 1.9
-6 1 6 17.51 1.88
-6 1 6 17.16 1.83
-6 1 5 200.63 6.76
-6 1 5 206.97 6.72
-6 1 5 215.39 5.76
-6 1 5 212.67 6.89
-6 1 5 212.1 7.04
6 1 -5 194.89 5.99
-6 1 5 200.19 6.86
-6 1 5 208.54 6.97
-6 1 4 27.18 2.27
-6 1 4 29.46 2.31
-6 1 4 29.16 2.29
-6 1 4 25.58 1.64
-6 1 4 27.35 2.34
6 1 -4 28.22 2.06
-6 1 4 27.27 2.28
-6 1 4 25.65 2.2
-6 1 3 13.33 1.58
-6 1 3 12.41 1.5
-6 1 3 13.38 1.54
-6 1 3 10.18 1.45
6 1 -3 10.99 1.36
-6 1 3 11.66 1.49
-6 1 3 11.6 1.49
-6 1 2 677.11 15.1
-6 1 2 676.62 14.84
-6 1 2 659.05 14.83
-6 1 2 698.35 15.6
6 1 -2 726.95 15.04
-6 1 2 687.62 15.16
-6 1 2 662.96 15.03
-6 1 1 370.96 9.01
-6 1 1 390.17 9.73
-6 1 1 332.41 9.06
-6 1 1 371.91 9.38
-6 1 1 341.25 9.75
-6 1 1 331.12 8.43
6 1 -1 366.4 9.37
-6 1 1 384.5 9.71
-6 1 0 560.61 12.51
-6 1 0 553.56 13.15
-6 1 0 600.66 14.88
-6 1 0 601.3 13.82
-6 1 0 617.66 13.13
-6 1 0 546.97 12.79
-6 1 0 588.15 12.29
-6 1 0 641.04 13.96
6 1 0 585.59 13.15
-6 1 0 580.23 13.25
-6 1 -1 3.73 0.78
-6 1 -1 3.1 1.05
-6 1 -1 4.13 0.93
-6 1 -1 3.66 1
-6 1 -1 3.04 0.82
-6 1 -1 2.82 0.86
-6 1 -1 3.28 0.68
-6 1 -1 2.76 0.82
-6 1 -1 3.76 0.86
6 1 1 2.71 0.75
-6 1 -1 3.22 0.96
-6 1 -1 6.46 1.12
-6 1 -2 26.72 2.13
-6 1 -2 26.2 2.57
-6 1 -2 26.06 2
-6 1 -2 23.67 1.92
-6 1 -2 26.07 2.26
-6 1 -2 27.73 2.18
-6 1 -2 26.31 2.11
-6 1 -2 26.76 1.9
-6 1 -2 24.14 1.62
6 1 2 23.87 1.94
-6 1 -2 24.94 2.29
-6 1 -2 28.36 2.2
-6 1 -3 337.32 9.4
-6 1 -3 345.61 8.73
-6 1 -3 347.8 8.76
-6 1 -3 345.9 9.82
-6 1 -3 315.55 8.81
-6 1 -3 348.01 9.17
-6 1 -3 305.73 9.95
-6 1 -3 360.55 9.09
-6 1 -3 350.48 8.8
-6 1 -3 336.32 8.24
-6 1 -3 333.78 7.59
-6 1 -4 2.72 0.84
-6 1 -4 1.77 0.43
-6 1 -4 2.04 0.65
-6 1 -4 2.32 0.71
-6 1 -4 2.91 0.66
-6 1 -4 2.1 0.75
-6 1 -4 2.84 1.1
-6 1 -4 2.09 0.77
-6 1 -4 3.37 0.81
-6 1 -5 0.8 0.55
-6 1 -5 1.14 0.49
-6 1 -5 3.2 0.86
-6 1 -5 0.97 0.86
-6 1 -5 1.26 0.71
-6 1 -6 314.97 7.12
-6 1 -6 340.15 8.34
-6 1 -6 264.93 8.59
-6 1 -6 293.34 8.37
-6 1 -6 308.7 7.79
-6 1 -7 10.8 1.27
-6 1 -7 9.14 0.87
-6 1 -7 10.16 1.38
-6 1 -8 3.2 0.66
-6 1 -8 2.9 0.43
-6 1 -8 3.75 0.8
-6 1 -9 20.08 1.29
-6 2 11 1.99 0.42
-6 2 11 2.29 0.44
6 2 -11 1.29 0.34
-6 2 11 2.28 0.4
-6 2 11 1.99 0.43
6 2 -11 1.96 0.39
-6 2 11 1.78 0.41
-6 2 10 183.53 5.07
-6 2 10 180.82 5.2
-6 2 10 172.91 4.6
-6 2 10 184.44 5.09
-6 2 10 185.47 5.13
6 2 -10 175.49 4.66
-6 2 9 0.4 0.47
-6 2 9 0.06 0.39
6 2 -9 0.39 0.38
-6 2 9 0.05 0.31
-6 2 9 0.31 0.43
-6 2 9 -0.06 0.41
-6 2 8 135.18 4.77
-6 2 8 128.84 4.87
6 2 -8 117.87 4.22
-6 2 8 122.52 4.07
-6 2 8 131.25 4.76
-6 2 8 117.68 4.58
-6 2 7 29.26 2.27
-6 2 7 30.76 1.9
-6 2 7 30.28 2.26
-6 2 7 27.13 2.12
-6 2 7 30.38 2.27
-6 2 6 466.27 11.53
-6 2 6 446.85 9.95
-6 2 6 483.64 11.38
-6 2 6 475.17 11.38
-6 2 6 452.66 11.11
-6 2 5 41.5 2.73
-6 2 5 45.62 2.8
-6 2 5 41.57 2.14
-6 2 5 42.97 2.74
-6 2 5 45.93 2.95
6 2 -5 38.74 2.34
-6 2 5 43.15 2.86
-6 2 5 41.43 2.78
-6 2 4 901.46 18.88
-6 2 4 965.97 19.15
-6 2 4 948.96 19.57
-6 2 4 910.7 19.34
-6 2 4 967.46 19.38
-6 2 4 995.74 19.48
-6 2 3 266.23 7.68
-6 2 3 262 7.45
-6 2 3 267.24 7.56
-6 2 3 261.27 7.91
6 2 -3 247.56 7.19
-6 2 3 242.73 7.49
-6 2 3 255.95 7.62
-6 2 2 126.75 4.91
-6 2 2 120.82 4.65
-6 2 2 137.63 4.92
-6 2 2 127.09 5.15
-6 2 2 117.29 4.41
6 2 -2 138.11 4.92
-6 2 2 129.39 4.99
-6 2 2 137.17 5.07
-6 2 1 254.19 7.25
-6 2 1 256.88 7.47
-6 2 1 267.53 7.29
-6 2 1 260.63 7.29
-6 2 1 245.87 7.65
-6 2 1 231.83 6.74
6 2 -1 264.39 7.39
-6 2 1 262.12 7.54
-6 2 0 611.6 13.06
-6 2 0 579.72 13.02
-6 2 0 566.32 12.78
-6 2 0 583.56 12.81
-6 2 0 624.57 13.66
-6 2 0 577.42 12.41
6 2 0 618.62 13.2
-6 2 0 564.35 13.17
-6 2 -1 19.66 1.79
-6 2 -1 17.19 2.08
-6 2 -1 19.49 1.68
-6 2 -1 15.62 1.53
-6 2 -1 16.63 1.78
-6 2 -1 13.44 1.43
-6 2 -1 16.25 1.43
6 2 1 18.4 1.66
-6 2 -1 16.64 1.69
-6 2 -2 20.7 1.95
-6 2 -2 19.46 1.67
-6 2 -2 17.77 1.61
-6 2 -2 20.91 1.55
-6 2 -2 19.53 1.68
-6 2 -2 17.34 1.69
-6 2 -2 16.33 2.07
-6 2 -2 18.95 1.98
-6 2 -2 17.46 1.7
-6 2 -3 12.81 1.57
-6 2 -3 13.48 1.4
-6 2 -3 14.39 1.44
-6 2 -3 13.77 1.37
-6 2 -3 10.74 1.08
-6 2 -3 14.18 1.51
-6 2 -3 12.59 1.81
-6 2 -3 10.31 1.52
-6 2 -4 2.69 0.71
-6 2 -4 2.03 0.49
-6 2 -4 2.37 0.66
-6 2 -4 2.24 0.62
-6 2 -4 2.8 0.99
-6 2 -4 2.53 0.79
-6 2 -4 1.98 0.8
-6 2 -5 6.28 0.98
-6 2 -5 7.27 0.93
-6 2 -5 7.52 0.79
-6 2 -5 5.72 0.89
-6 2 -5 7.98 1.2
-6 2 -5 6.49 1.36
-6 2 -5 7.44 1.22
-6 2 -6 80.73 3.28
-6 2 -6 82.39 3.06
-6 2 -6 87.04 3.82
-6 2 -6 89.97 3.54
-6 2 -6 81.1 4.01
-6 2 -7 5.17 0.69
-6 2 -7 5.14 0.9
-6 2 -7 5.13 1.01
-6 2 -8 11.79 0.88
-6 2 -8 11.1 1.13
-6 2 -8 11.19 1.03
-6 3 10 2 0.43
-6 3 10 1.6 0.39
6 3 -10 1.59 0.36
-6 3 10 2.25 0.43
-6 3 10 1.71 0.42
6 3 -10 1.53 0.36
-6 3 10 1.69 0.45
6 3 -10 1.59 0.38
-6 3 9 14.31 1.13
-6 3 9 17.49 1.37
6 3 -9 13.78 1.11
-6 3 9 14.9 1.26
-6 3 9 16.55 1.38
-6 3 9 16.01 1.32
-6 3 8 92.37 3.27
-6 3 8 94.9 3.68
6 3 -8 92.02 3.38
-6 3 8 96.01 3.84
-6 3 8 101.11 3.8
-6 3 8 99.56 3.75
-6 3 7 330.17 7.81
-6 3 7 364.54 8.82
-6 3 7 350.77 8.71
-6 3 7 364.39 9.07
-6 3 7 341.37 8.72
-6 3 6 3.07 0.61
-6 3 6 3.66 0.82
-6 3 6 2.71 0.72
-6 3 6 2.94 0.77
-6 3 6 3.3 0.83
-6 3 5 122.57 4.58
-6 3 5 112.68 4.62
-6 3 5 111.74 3.63
-6 3 5 124.84 4.62
-6 3 5 123.63 4.66
-6 3 4 44.12 2.68
-6 3 4 40.25 2.66
-6 3 4 45.27 2.63
-6 3 4 45.57 2.65
-6 3 4 38.15 2.39
6 3 -4 42.77 2.49
-6 3 4 41.99 2.66
-6 3 4 43.06 2.67
-6 3 3 2.34 0.74
-6 3 3 4.01 0.93
-6 3 3 2.39 0.69
-6 3 3 3.38 0.79
-6 3 3 4.02 0.84
6 3 -3 2.09 0.62
-6 3 3 3.2 0.8
-6 3 3 2.37 0.69
-6 3 2 123.03 4.63
-6 3 2 121.62 4.45
-6 3 2 121.24 4.45
-6 3 2 125.71 4.91
6 3 -2 121.23 4.51
-6 3 2 121.77 4.67
-6 3 2 118.36 4.13
-6 3 1 6.12 0.98
-6 3 1 6.19 0.99
-6 3 1 6.14 0.93
-6 3 1 6.96 1.1
-6 3 1 4.87 0.9
6 3 -1 6.71 1.03
-6 3 1 4.67 0.93
-6 3 0 357.14 8.92
-6 3 0 359.5 8.63
-6 3 0 359.06 8.63
-6 3 0 326.33 9.04
-6 3 0 331.37 8.38
6 3 0 350.54 8.61
-6 3 0 342.94 8.89
-6 3 -1 1394.66 26.16
-6 3 -1 1425.1 25.14
-6 3 -1 1399.74 25.09
-6 3 -1 1371.21 25.54
-6 3 -1 1379.14 25.06
-6 3 -1 1421.18 25.57
-6 3 -1 1311.87 25.49
-6 3 -2 328.5 8.03
-6 3 -2 318.44 7.93
-6 3 -2 331.76 7.85
-6 3 -2 329.59 8.34
-6 3 -2 316.45 9.48
-6 3 -2 306.89 8.55
-6 3 -3 56.8 3.1
-6 3 -3 55.99 2.73
-6 3 -3 55.44 2.81
-6 3 -3 54.91 2.54
-6 3 -3 53.39 2.68
-6 3 -3 62.29 3.04
-6 3 -3 52.89 3.39
-6 3 -3 51.25 3.11
-6 3 -4 490.53 10.95
-6 3 -4 509.18 10.48
-6 3 -4 532.4 11.15
-6 3 -4 501.13 10.99
-6 3 -4 470.79 12.33
-6 3 -4 521.75 12.13
-6 3 -5 40.74 2.21
-6 3 -5 45.02 2.27
-6 3 -5 43.41 1.96
-6 3 -5 42.48 2.59
-6 3 -5 46.69 2.47
-6 3 -5 39.97 2.71
-6 3 -6 59 2.48
-6 3 -6 57.18 2.13
-6 3 -6 55.64 2.75
-6 3 -6 51.74 2.86
-6 3 -7 4.09 0.62
-6 3 -7 3.79 0.66
-6 3 -7 4.4 0.78
-6 3 -8 96.86 2.73
6 4 -10 81.82 2.31
-6 4 10 85.32 2.36
-6 4 9 -0.03 0.06
-6 4 9 25.92 1.27
6 4 -9 26.53 1.36
-6 4 9 23.98 1.24
-6 4 9 0.03 0.09
-6 4 8 0.82 0.34
-6 4 8 0.16 0.25
-6 4 8 0.67 0.36
-6 4 8 0.04 0.18
-6 4 8 0.37 0.34
-6 4 8 0.14 0.32
-6 4 7 31.94 1.69
-6 4 7 36.21 1.97
-6 4 7 31.7 1.83
-6 4 7 36.05 2
6 4 -7 30.27 1.71
-6 4 7 34.94 1.95
-6 4 7 36.14 2.08
-6 4 6 111.61 3.81
-6 4 6 104.28 3.71
-6 4 6 106.79 3.83
-6 4 6 105.66 3.8
-6 4 6 111.24 4.02
-6 4 5 133.23 4.37
-6 4 5 131.22 4.35
-6 4 5 131.6 4.53
-6 4 5 130.9 4.44
-6 4 5 135.75 4.67
-6 4 4 306.5 7.52
-6 4 4 301.56 7.5
-6 4 4 310.06 7.85
-6 4 4 299.6 7.64
-6 4 4 296.35 7.88
-6 4 3 63.54 2.83
-6 4 3 62.2 2.82
-6 4 3 60.75 2.99
-6 4 3 57.02 2.81
-6 4 3 60.59 3.05
-6 4 2 68.9 3.23
-6 4 2 60.85 2.78
-6 4 2 60.22 2.75
-6 4 2 62.19 2.99
-6 4 2 61.84 3.17
-6 4 2 64.33 2.97
-6 4 2 61.9 3.01
-6 4 1 2.98 0.77
-6 4 1 2.54 0.57
-6 4 1 3.23 0.63
-6 4 1 2.04 0.68
-6 4 1 2.42 0.6
-6 4 1 3.09 0.67
-6 4 0 242.24 6.81
-6 4 0 237.96 6.21
-6 4 0 237.17 6.25
-6 4 0 247.14 7.01
-6 4 0 249.1 6.58
-6 4 0 220.54 6.18
-6 4 -1 30.34 1.84
-6 4 -1 27.01 1.74
-6 4 -1 28.95 2.07
-6 4 -1 29.24 1.93
-6 4 -1 31.87 2.01
-6 4 -1 26.98 1.99
-6 4 -2 1.87 0.55
-6 4 -2 1.76 0.58
-6 4 -2 1.55 0.49
-6 4 -2 1.14 0.52
-6 4 -2 2.08 0.61
-6 4 -2 1.8 0.61
-6 4 -3 13.8 1.23
-6 4 -3 11.63 1.12
-6 4 -3 10.19 1.05
-6 4 -3 14.62 1.36
-6 4 -4 6.31 0.81
-6 4 -4 5.49 0.77
-6 4 -4 6.01 0.86
-6 4 -5 18.3 1.24
-6 4 -6 8.15 0.77
-6 4 -7 13.45 0.96
-6 4 -7 9.37 0.66
-6 4 -8 339.65 6.49
6 5 -9 354 7.04
-6 5 8 10.2 0.77
-6 5 8 0.02 0.08
6 5 -7 189.83 4.98
-6 5 7 180.39 4.66
-6 5 6 8.38 0.93
-6 5 5 227.11 5.97
-6 5 4 39.71 2.37
-6 5 4 39.98 2.2
-6 5 3 30.95 2.1
-6 5 3 30.45 2.09
-6 5 3 29.98 1.96
6 5 -2 0.21 0.26
-6 5 2 0.19 0.37
-6 5 2 0.32 0.39
-6 5 2 0.12 0.37
-6 5 1 35.32 2.24
-6 5 1 38.78 2.37
-6 5 1 35.12 2.16
-6 5 0 53.42 2.7
-6 5 0 60.82 2.95
-6 5 0 62.55 2.86
-6 5 -1 53.49 2.54
-6 5 -1 57.02 2.82
-6 5 -2 -0.06 0.44
-6 5 -3 186.37 5.28
-6 5 -3 192.59 5.13
-6 5 -4 223.82 5.63
-6 5 -4 211.67 5.34
-6 5 -5 39.43 1.88
-6 5 -5 38.66 1.77
-6 5 -6 322.63 6.69
-6 5 -6 308.34 6.39
-6 5 -7 139.36 3.37
-6 6 8 93.7 2.5
6 6 -8 113.74 2.92
-6 6 7 9.64 0.82
6 6 -7 10.91 0.9
-6 6 6 18.84 1.27
6 6 -6 20.05 1.31
-6 6 6 18.14 1.1
-6 6 5 30.65 1.76
6 6 -5 31.68 1.7
-6 6 5 31.62 1.63
-6 6 4 133.39 4.21
6 6 -4 140.82 4.03
-6 6 4 135.41 4.02
6 6 -3 1.52 0.42
-6 6 3 1.9 0.58
-6 6 3 1.37 0.57
-6 6 3 1.24 0.5
-6 6 2 164.29 5.27
-6 6 2 175.89 5.1
-6 6 1 7.4 0.99
-6 6 1 8.84 1.04
-6 6 1 9.44 1.03
-6 6 0 48.06 2.45
-6 6 0 56.06 2.57
-6 6 0 55.11 2.46
-6 6 -1 58.52 2.55
-6 6 -1 62.03 2.57
-6 6 -2 0.49 0.36
-6 6 -2 0.04 0.17
-6 6 -3 70.97 2.62
-6 6 -4 23.52 1.33
-6 6 -5 0.37 0.25
-6 6 -5 0.11 0.25
-6 6 -6 253.33 5.17
-6 6 -6 276.26 5.32
6 7 -6 25.81 1.29
6 7 -5 7.27 0.71
-6 7 5 7.5 0.64
-6 7 4 0.76 0.3
6 7 -4 0.15 0.23
-6 7 4 0.13 0.21
-6 7 3 51.24 2.02
-6 7 3 51.79 1.96
-6 7 2 4.51 0.61
-6 7 2 3.33 0.66
-6 7 2 3.19 0.56
-6 7 1 24.13 1.36
-6 7 1 26.35 1.43
-6 7 0 2.49 0.49
-6 7 0 2.51 0.56
-6 7 0 1.88 0.44
-6 7 -1 20.29 1.3
-6 7 -1 20.67 1.24
-6 7 -1 21.53 1.23
-6 7 -2 8.58 0.74
-6 7 -2 8.22 0.76
-6 7 -3 507.73 9.24
-6 7 -3 495.71 9.42
-6 7 -4 8.85 0.63
-6 7 -4 9.28 0.7
-6 8 1 7.84 0.57
-6 8 0 56.32 1.72
-6 8 -1 460.68 8.27
-6 8 -2 150.11 3.26
-7 -6 5 184.12 4.3
7 -6 -5 194.58 4.33
-7 -6 4 2.47 0.45
7 -6 -4 2.21 0.44
-7 -6 3 157.2 4.04
-7 -6 2 52.66 2.04
-7 -6 2 48.91 1.89
-7 -6 1 205.53 4.77
-7 -6 1 194.13 4.91
-7 -6 0 12.07 0.88
-7 -6 0 10.94 1
-7 -6 -1 178.44 4.74
-7 -6 -1 184.47 4.77
-7 -6 -2 136.39 3.73
-7 -6 -2 119.8 3.58
-7 -6 -3 24.41 1.29
-7 -5 7 3 0.44
7 -5 -7 2.96 0.41
7 -5 -7 3.09 0.39
-7 -5 6 11.61 0.91
7 -5 -6 12.03 0.78
-7 -5 5 23.07 1.37
7 -5 -5 21.57 1.33
7 -5 -5 23.87 1.14
-7 -5 4 2.38 0.51
7 -5 -4 3.25 0.44
-7 -5 3 3.21 0.57
-7 -5 3 4.65 0.67
-7 -5 2 24.87 1.65
-7 -5 2 24.64 1.49
-7 -5 1 73.13 3.09
-7 -5 1 72.26 2.66
-7 -5 0 2.21 0.66
-7 -5 0 2.5 0.68
-7 -5 0 2.2 0.46
-7 -5 -1 310.76 6.02
-7 -5 -1 334.69 6.37
-7 -5 -2 24.2 1.69
-7 -5 -2 22.29 1.65
-7 -5 -3 0.19 0.31
-7 -5 -4 1.36 0.39
7 -4 -9 147.02 3.08
7 -4 -8 64.74 1.96
-7 -4 8 63.72 2.08
7 -4 -7 2.85 0.45
7 -4 -7 1.78 0.38
-7 -4 7 2.06 0.45
7 -4 -6 491.69 5.99
7 -4 -6 545.66 5.73
-7 -4 6 119.17 2.82
-7 -4 6 505.15 5.59
-7 -4 6 526.27 6.47
7 -4 -5 246.63 5.52
-7 -4 5 251.1 5.96
-7 -4 5 248.13 5.81
-7 -4 5 255.68 6.1
-7 -4 4 0.54 0.35
-7 -4 4 0.23 0.3
-7 -4 4 0.46 0.39
7 -4 -4 0.18 0.27
-7 -4 4 0.13 0.3
-7 -4 3 242.88 5.87
-7 -4 3 255.72 6.67
-7 -4 3 242.11 6.27
-7 -4 3 257.98 6.17
-7 -4 3 252.34 6.16
-7 -4 2 2.28 0.72
-7 -4 2 1.58 0.45
-7 -4 2 1.52 0.45
-7 -4 2 2.11 0.53
-7 -4 2 2.67 0.53
-7 -4 1 288.7 6.59
-7 -4 1 292.99 6.68
-7 -4 1 301.98 8
-7 -4 1 312.78 8.33
-7 -4 1 276.02 6.69
-7 -4 1 310.1 7.29
-7 -4 1 306.96 6.97
-7 -4 0 10.18 0.93
-7 -4 0 9.78 1.31
-7 -4 0 9.82 1.27
-7 -4 0 10.73 1.07
-7 -4 0 9.88 0.98
-7 -4 -1 48.51 2.03
-7 -4 -1 49.93 2.18
-7 -4 -1 46.19 2.7
-7 -4 -1 50.96 2.87
-7 -4 -2 71.42 2.61
-7 -4 -2 60.55 3.12
-7 -4 -3 0.09 0.14
-7 -4 -3 7.31 0.98
-7 -4 -4 162.81 4.7
-7 -4 -4 182.73 5.09
-7 -4 -5 324.45 6.62
-7 -4 -5 323.22 7.04
7 -3 -9 3.8 0.44
-7 -3 8 83.75 2.56
-7 -3 8 77.66 2.58
7 -3 -8 82.7 2.56
-7 -3 8 82.54 2.59
-7 -3 8 85.39 2.79
-7 -3 8 86.72 2.74
-7 -3 7 3.24 0.57
-7 -3 7 2.7 0.55
7 -3 -7 3.64 0.61
-7 -3 7 3.43 0.57
7 -3 -7 2.89 0.47
-7 -3 7 3.76 0.68
-7 -3 7 3.12 0.59
-7 -3 6 293.66 6.89
-7 -3 6 288.14 6.7
-7 -3 6 301.39 6.98
-7 -3 6 311.07 7.42
-7 -3 6 297.02 7.15
-7 -3 5 3.69 0.69
-7 -3 5 3.07 0.66
-7 -3 5 2.98 0.6
-7 -3 5 3.66 0.82
-7 -3 5 3 0.7
-7 -3 4 30.89 1.92
-7 -3 4 31.51 1.96
-7 -3 4 30.78 2
-7 -3 4 31.3 1.81
-7 -3 4 34.66 2.26
-7 -3 4 34.25 2.13
-7 -3 3 23.43 1.69
-7 -3 3 22.78 1.68
-7 -3 3 22.59 1.85
-7 -3 3 20.46 1.45
-7 -3 3 24.23 1.93
-7 -3 3 22.6 1.78
-7 -3 2 21.83 1.64
-7 -3 2 19.8 1.59
-7 -3 2 20.21 1.38
-7 -3 2 21.11 1.87
-7 -3 2 20.17 1.76
-7 -3 2 21.49 1.73
-7 -3 1 0.99 0.44
-7 -3 1 1.75 0.77
-7 -3 1 0.8 0.57
-7 -3 1 1.75 0.54
-7 -3 1 1 0.52
-7 -3 0 8.2 1
-7 -3 0 7.48 1.25
-7 -3 0 7.77 1.28
-7 -3 0 8.28 1
-7 -3 0 7.43 1.12
-7 -3 0 9.16 1.14
-7 -3 -1 10.68 1.1
-7 -3 -1 9.61 1.35
-7 -3 -1 8.99 1.03
-7 -3 -1 8.81 1.16
-7 -3 -1 9.49 1.1
-7 -3 -2 389.09 8.67
-7 -3 -2 383.14 8.59
-7 -3 -2 374.07 9.84
-7 -3 -3 154.91 4.5
-7 -3 -3 160.38 5.26
-7 -3 -3 163.09 5.45
-7 -3 -3 161.43 4.57
-7 -3 -4 8.03 1.01
-7 -3 -4 8.3 1.06
-7 -3 -4 9.43 0.9
-7 -3 -5 0.56 0.35
-7 -3 -5 0.4 0.31
-7 -2 9 24.29 1.31
7 -2 -9 22.33 1.23
-7 -2 9 25.11 1.34
-7 -2 9 23.7 1.4
-7 -2 9 23.7 1.36
-7 -2 8 217.21 5.51
7 -2 -8 221.2 5.38
-7 -2 8 220.22 5.81
-7 -2 8 212.67 5.62
-7 -2 8 212.67 5.47
-7 -2 7 93.72 3.48
-7 -2 7 92.82 3.48
-7 -2 7 97.46 3.79
-7 -2 7 96.48 3.66
-7 -2 6 0.53 0.44
-7 -2 6 0.21 0.47
-7 -2 6 0.52 0.43
-7 -2 6 0.72 0.47
-7 -2 5 6.91 1.04
-7 -2 5 5.11 0.91
-7 -2 5 5.25 0.74
-7 -2 5 4.47 0.97
-7 -2 5 5.15 0.98
-7 -2 4 431.7 9.8
-7 -2 4 418.57 9.79
-7 -2 4 404.2 9.78
-7 -2 4 415.03 10.35
-7 -2 4 415.17 9.98
-7 -2 3 521.39 11.39
-7 -2 3 524.42 11.93
-7 -2 3 513.2 11.51
-7 -2 3 497.28 11.95
-7 -2 3 522.81 11.79
-7 -2 2 48.85 2.66
-7 -2 2 45.34 2.88
-7 -2 2 46.38 2.64
-7 -2 2 45.11 2.88
-7 -2 2 51.13 2.89
-7 -2 1 81.26 3.51
-7 -2 1 78.79 3.93
-7 -2 1 80.61 4.17
-7 -2 1 88.71 3.68
-7 -2 1 78.34 3.85
-7 -2 1 84.02 3.77
-7 -2 0 12.14 1.29
-7 -2 0 10.06 1.19
-7 -2 0 10.25 1.48
-7 -2 0 13.48 1.57
-7 -2 0 11.6 1.35
-7 -2 -1 4.05 0.79
-7 -2 -1 3.93 0.78
-7 -2 -1 3.92 0.93
-7 -2 -1 3.19 0.78
-7 -2 -2 1.57 0.56
-7 -2 -2 1.48 0.71
-7 -2 -2 2.63 0.84
-7 -2 -2 1.6 0.59
-7 -2 -2 1.67 0.7
-7 -2 -2 0.73 0.5
-7 -2 -3 202.04 5.66
-7 -2 -3 197.24 5.61
-7 -2 -3 192.99 6.06
-7 -2 -3 197.46 6.25
-7 -2 -4 68.3 2.79
-7 -2 -4 65.54 2.92
-7 -2 -4 69.51 3.1
-7 -2 -4 66.03 2.78
-7 -2 -5 1.53 0.46
-7 -2 -5 1.58 0.45
-7 -2 -5 1.12 0.43
-7 -2 -5 1.82 0.52
-7 -1 10 42.63 1.64
7 -1 -10 41.07 1.55
-7 -1 10 40.12 1.61
-7 -1 10 42.98 1.76
-7 -1 10 39.57 1.65
-7 -1 9 3.35 0.58
-7 -1 9 2.16 0.51
7 -1 -9 2.94 0.53
-7 -1 9 2.44 0.59
-7 -1 9 3.24 0.61
-7 -1 8 211.02 5.79
7 -1 -8 219.58 5.62
-7 -1 8 215.8 6.07
-7 -1 8 223.14 5.99
-7 -1 8 213.25 5.79
-7 -1 7 12.15 1.29
-7 -1 7 13.52 1.44
-7 -1 7 13.62 1.42
-7 -1 7 15.04 1.42
-7 -1 6 303.34 8
-7 -1 6 293.32 8.27
-7 -1 6 321.38 8.33
-7 -1 6 309.28 8.13
-7 -1 5 23.16 1.9
-7 -1 5 21.83 2
-7 -1 5 22.94 1.98
-7 -1 5 22.33 1.89
-7 -1 4 574.68 12.88
-7 -1 4 585.74 13.04
-7 -1 4 595.92 13.7
-7 -1 4 566.1 11.64
-7 -1 4 621.18 13.51
-7 -1 3 565.71 12.66
-7 -1 3 538.21 11.46
-7 -1 3 595.33 13.28
-7 -1 3 558.5 12.74
-7 -1 3 587.56 13.54
-7 -1 3 556.96 11.38
-7 -1 3 586.77 13.1
-7 -1 2 17.5 1.62
-7 -1 2 16.21 1.3
-7 -1 2 17.49 1.83
-7 -1 2 18.62 1.69
-7 -1 2 17.49 1.83
-7 -1 2 18.68 1.78
-7 -1 1 1046.03 20.42
-7 -1 1 1097.66 21.55
-7 -1 1 1014.51 20.37
-7 -1 1 1018.97 21.16
-7 -1 1 1092.24 21.05
-7 -1 0 681.35 14.39
-7 -1 0 705.93 15.35
-7 -1 0 704.74 15.61
-7 -1 0 689.95 14.45
-7 -1 0 642.89 15.12
-7 -1 0 660.33 14.68
-7 -1 -1 39.54 2.41
-7 -1 -1 39.91 2.7
-7 -1 -1 42.58 2.87
-7 -1 -1 42.29 2.51
-7 -1 -1 44.33 2.89
-7 -1 -1 45.56 2.75
-7 -1 -2 453.86 10.41
-7 -1 -2 440.21 10.96
-7 -1 -2 465.25 11.24
-7 -1 -2 447.56 10.4
-7 -1 -2 454.26 11.22
-7 -1 -2 488.5 10.98
-7 -1 -3 33.96 2.1
-7 -1 -3 31.56 2.19
-7 -1 -3 36.91 2.38
-7 -1 -3 34.62 2.13
-7 -1 -3 31.83 2.33
-7 -1 -3 36.15 2.31
-7 -1 -3 34.02 2.63
-7 -1 -4 263.23 6.78
-7 -1 -4 265.17 6.86
-7 -1 -4 269.44 6.91
-7 -1 -4 265.41 6.83
-7 -1 -4 252.14 7.71
-7 -1 -5 13.97 1.22
-7 -1 -5 17.84 1.43
-7 -1 -5 15.03 1.55
-7 -1 -6 4.43 0.82
-7 0 10 0.09 0.22
-7 0 10 -0.03 0.23
7 0 -10 0.08 0.19
-7 0 10 0.17 0.28
-7 0 10 0.06 0.25
-7 0 9 192.47 4.57
-7 0 9 194.27 5.13
7 0 -9 194.59 4.89
-7 0 9 201.64 5.2
-7 0 9 200.18 5.4
-7 0 9 197.56 5.26
-7 0 8 0.69 0.33
-7 0 8 -0.11 0.37
-7 0 8 0.06 0.31
7 0 -8 0.18 0.27
-7 0 8 0.12 0.46
-7 0 8 -0.06 0.39
-7 0 7 52.12 2.77
-7 0 7 60.41 2.41
-7 0 7 58.31 2.91
-7 0 7 58.39 3.08
-7 0 7 59.79 3.01
-7 0 6 -0.04 0.27
-7 0 6 0.14 0.49
-7 0 6 -0.07 0.46
-7 0 6 -0.08 0.48
-7 0 6 0.15 0.47
-7 0 5 53.4 3
-7 0 5 58.03 3.07
-7 0 5 54.42 3.23
-7 0 5 54.77 3.12
-7 0 4 -0.08 0.53
-7 0 4 0.45 0.55
-7 0 4 0.53 0.52
-7 0 4 0.57 0.56
-7 0 3 94.24 4.24
-7 0 3 94.55 4.14
-7 0 3 93.87 3.61
-7 0 3 100.5 4.65
-7 0 3 98.09 3.7
-7 0 3 102.5 4.47
-7 0 2 0.59 0.48
-7 0 2 0.64 0.41
-7 0 2 0.52 0.71
-7 0 2 0.89 0.55
-7 0 2 0.36 0.42
-7 0 2 0.5 0.44
-7 0 2 0.57 0.48
-7 0 1 41.86 2.67
-7 0 1 48.35 2.82
-7 0 1 47.52 2.31
-7 0 1 44.46 2.32
-7 0 1 50.04 3.12
-7 0 1 43.49 2.98
-7 0 1 46.46 2.9
-7 0 0 0.35 0.53
-7 0 0 0.64 0.42
-7 0 0 0.09 0.27
-7 0 0 0.45 0.58
-7 0 0 -0.1 0.32
-7 0 0 0.48 0.59
-7 0 -1 0.07 0.47
-7 0 -1 0.41 0.51
-7 0 -1 0.57 0.61
-7 0 -1 0.09 0.54
-7 0 -1 0.5 0.35
-7 0 -1 0.31 0.56
-7 0 -2 0.52 0.53
-7 0 -2 0.22 0.51
-7 0 -2 1.6 0.79
-7 0 -2 0.08 0.3
-7 0 -2 1.39 0.65
-7 0 -3 2.13 0.66
-7 0 -3 1.9 0.61
-7 0 -3 2.35 0.7
-7 0 -3 1.02 0.61
-7 0 -3 1.45 0.4
-7 0 -3 2.15 0.84
-7 0 -3 2.15 0.66
-7 0 -4 -0.06 0.39
-7 0 -4 0.22 0.42
-7 0 -4 0.53 0.65
-7 0 -4 0.2 0.43
-7 0 -5 179.64 5.07
-7 0 -5 158.9 5.64
-7 0 -6 0.54 0.48
-7 1 10 40.31 1.62
-7 1 10 40.06 1.61
-7 1 10 38.98 1.51
-7 1 10 38.2 1.7
-7 1 10 40.37 1.67
-7 1 9 2.47 0.54
-7 1 9 2.92 0.45
-7 1 9 2.43 0.54
7 1 -9 2.41 0.49
-7 1 9 2.9 0.61
-7 1 9 1.9 0.51
-7 1 8 209.64 5.77
-7 1 8 213.92 5.01
7 1 -8 206.24 5.43
-7 1 8 212.99 6.05
-7 1 8 205.45 5.83
-7 1 8 217.32 5.86
-7 1 7 13.82 1.39
-7 1 7 13.5 1.05
-7 1 7 14.78 1.51
-7 1 7 14.4 1.44
-7 1 7 13.77 1.38
-7 1 6 286.94 7.8
-7 1 6 288.06 6.6
-7 1 6 317.35 8.46
-7 1 6 311.44 8.27
-7 1 6 318.99 8.13
-7 1 5 20.56 1.82
-7 1 5 22.83 1.88
-7 1 5 21.7 2
-7 1 5 22.13 1.94
-7 1 4 608.58 13.49
-7 1 4 608.64 12.82
-7 1 4 612.36 13.48
-7 1 4 593.94 13.64
-7 1 3 569.62 12.02
-7 1 3 595.46 12.86
-7 1 3 584.55 13.45
-7 1 3 550.31 12.15
-7 1 3 577.62 13.05
-7 1 2 17.2 1.65
-7 1 2 16.84 1.47
-7 1 2 18.73 1.73
-7 1 2 18.86 1.9
-7 1 2 19.23 1.64
-7 1 2 17.33 1.73
-7 1 1 1081.07 21.02
-7 1 1 1088.05 20.14
-7 1 1 1136.83 20.52
-7 1 1 1069.43 21.01
-7 1 1 1123.99 22.07
-7 1 1 1070.08 21.43
-7 1 0 665.72 14.09
-7 1 0 662.75 13.58
-7 1 0 672.16 13.15
-7 1 0 639.95 14.02
-7 1 0 688.91 15.08
-7 1 0 670.68 14.54
-7 1 -1 42.49 2.51
-7 1 -1 45.98 2.34
-7 1 -1 41.18 2.01
-7 1 -1 40.78 2.44
-7 1 -1 42.7 2.83
-7 1 -1 43.27 2.68
-7 1 -2 442.84 10.23
-7 1 -2 433.6 9.5
-7 1 -2 433.94 8.92
-7 1 -2 461.14 10.37
-7 1 -2 469.57 11.22
-7 1 -2 489.8 10.91
-7 1 -3 33.91 2.09
-7 1 -3 33.62 1.78
-7 1 -3 36.4 2.17
-7 1 -3 32.87 2.32
-7 1 -3 35.79 2.28
-7 1 -3 31.26 2.56
-7 1 -4 259.84 6.63
-7 1 -4 259.24 5.87
-7 1 -4 256.13 6.64
-7 1 -5 14.23 0.94
-7 1 -5 16.87 1.37
-7 1 -5 13.24 1.47
-7 1 -5 14.73 1.23
-7 1 -6 3.18 0.73
-7 2 10 9.52 0.65
-7 2 9 24.19 1.36
-7 2 9 25.22 1.38
-7 2 9 24.75 1.33
7 2 -9 20.09 1.16
-7 2 9 23.75 1.45
-7 2 9 22.73 1.35
-7 2 8 198.76 5.29
-7 2 8 212.12 5.4
-7 2 8 203.51 5.18
-7 2 8 201.16 5.58
-7 2 8 207.67 5.46
-7 2 7 97.26 3.29
-7 2 7 88.24 3.12
-7 2 7 94.15 3.49
-7 2 7 97.17 3.36
-7 2 6 0.3 0.41
-7 2 6 0.37 0.42
-7 2 6 0.42 0.49
-7 2 6 0.45 0.47
-7 2 5 6.99 1.02
-7 2 5 5.69 0.92
-7 2 5 5.23 1.02
-7 2 5 4.77 0.93
-7 2 4 394.36 9.57
-7 2 4 395.29 9.31
-7 2 4 416.29 9.73
-7 2 4 413.48 10.25
-7 2 4 401.25 9.54
-7 2 4 380.41 9.74
-7 2 3 502.15 11.47
-7 2 3 513.05 11.24
-7 2 3 544.45 11.73
-7 2 3 509.95 12.22
-7 2 3 507.39 11.5
-7 2 3 509.37 11.77
-7 2 2 47.41 2.64
-7 2 2 45.11 2.43
-7 2 2 45.79 2.57
-7 2 2 44.57 2.83
-7 2 2 46.76 2.62
-7 2 2 51.75 2.87
-7 2 1 82.23 3.52
-7 2 1 86.02 3.36
-7 2 1 82.52 3.52
-7 2 1 79.49 3.48
-7 2 1 85.79 3.97
-7 2 1 82.57 3.7
-7 2 0 12.56 1.32
-7 2 0 9.27 1.17
-7 2 0 12.65 1.21
-7 2 0 12.94 1.31
-7 2 0 11.85 1.47
-7 2 0 9.93 1.26
-7 2 -1 3.61 0.77
-7 2 -1 5.09 0.89
-7 2 -1 4.65 0.76
-7 2 -1 5.44 1.02
-7 2 -1 3.2 0.7
-7 2 -1 3.34 0.81
-7 2 -2 1.31 0.5
-7 2 -2 1.78 0.47
-7 2 -2 1.32 0.51
-7 2 -2 1.32 0.61
-7 2 -2 2.86 0.65
-7 2 -2 1.36 0.57
-7 2 -3 201.32 5.55
-7 2 -3 198.12 5.54
-7 2 -3 192.38 4.7
-7 2 -3 195.6 5.22
-7 2 -4 63.37 2.66
-7 2 -4 67.94 2.53
-7 2 -4 63.9 2.71
-7 2 -5 1.84 0.4
-7 2 -5 1.89 0.53
-7 2 -5 1.18 0.41
-7 2 -6 94.65 2.51
-7 3 9 4.25 0.5
7 3 -9 3.78 0.45
-7 3 8 89.11 2.75
-7 3 8 94.48 2.81
-7 3 8 90.48 2.82
-7 3 8 87.5 2.91
-7 3 8 89.93 2.82
-7 3 7 4.44 0.68
-7 3 7 3.25 0.64
-7 3 7 3.59 0.64
7 3 -7 3.17 0.56
-7 3 7 3.94 0.72
-7 3 7 4.09 0.67
-7 3 6 298.34 7.16
-7 3 6 302.9 7.16
-7 3 6 292.14 7.13
-7 3 6 303.76 7.59
-7 3 6 305.8 7.33
-7 3 5 4.12 0.79
-7 3 5 4.11 0.74
-7 3 5 4.81 0.89
-7 3 5 3.75 0.78
-7 3 4 32.1 1.98
-7 3 4 32.17 2.2
-7 3 4 31.72 2.05
-7 3 4 33.6 2.05
-7 3 3 22.58 1.67
-7 3 3 23.57 1.7
-7 3 3 19.4 1.75
-7 3 3 21.12 1.74
-7 3 3 22.5 1.76
-7 3 2 19.47 1.56
-7 3 2 21.39 1.63
-7 3 2 19.48 1.58
-7 3 2 18.45 1.72
-7 3 2 21.1 1.73
-7 3 2 20.22 1.67
-7 3 1 1.28 0.49
-7 3 1 0.97 0.46
-7 3 1 1.27 0.47
-7 3 1 1.26 0.62
-7 3 1 1.11 0.52
-7 3 0 7.95 1
-7 3 0 8.69 1.09
-7 3 0 8.54 0.98
-7 3 0 7.33 0.98
-7 3 0 7.96 1.12
-7 3 0 7.06 1.01
-7 3 -1 9.44 1.04
-7 3 -1 10.11 1.13
-7 3 -1 8.26 0.96
-7 3 -1 9.57 1.06
-7 3 -1 7.75 1.09
-7 3 -1 9.69 1.11
-7 3 -2 387.37 8.61
-7 3 -2 395.98 8.78
-7 3 -2 379.88 8.29
-7 3 -2 390.17 8.62
-7 3 -2 386.15 9.2
-7 3 -3 154.37 4.44
-7 3 -3 162.57 4.56
-7 3 -3 159.54 4.15
-7 3 -3 163.09 4.58
-7 3 -4 9.17 0.89
-7 3 -4 11.14 0.96
-7 3 -4 10.18 0.77
-7 3 -4 10.47 1.01
-7 3 -5 0.12 0.25
-7 3 -6 0.57 0.23
-7 4 8 65.32 2.03
7 4 -8 60.84 2.03
-7 4 8 64.4 2.26
-7 4 7 2.4 0.55
-7 4 7 2.07 0.46
-7 4 6 574.83 6.86
-7 4 6 565.5 7.31
-7 4 5 41.49 1.73
-7 4 5 253.22 4.85
-7 4 5 256.42 4.72
-7 4 5 260.84 5.23
-7 4 5 234.63 4.26
-7 4 4 0.16 0.26
-7 4 4 0.83 0.44
-7 4 4 0.43 0.3
-7 4 4 0.43 0.38
-7 4 4 0.33 0.42
-7 4 4 -0.09 0.29
-7 4 3 239.3 5.83
-7 4 3 244.64 5.85
-7 4 3 254.82 6.39
-7 4 3 228.23 6.16
-7 4 3 259.91 6.67
-7 4 3 246.84 6.09
-7 4 2 2.29 0.46
-7 4 2 1.96 0.49
-7 4 2 2.88 0.58
-7 4 2 1.89 0.61
-7 4 2 2.35 0.51
-7 4 1 296.84 6.7
-7 4 1 293.25 7.1
-7 4 1 300 6.69
-7 4 1 283.4 7.1
-7 4 1 286.91 6.88
-7 4 0 7.95 0.85
-7 4 0 9.98 1.03
-7 4 0 9.33 0.91
-7 4 0 8.5 0.98
-7 4 0 8.87 0.96
-7 4 -1 48.12 2.12
-7 4 -1 47.57 1.96
-7 4 -1 53.06 2.21
-7 4 -2 60.47 2.16
-7 4 -2 0.17 0.17
-7 4 -2 72.01 2.47
-7 4 -2 0.1 0.13
-7 4 -3 7.52 0.81
-7 4 -3 7.5 0.73
-7 4 -4 182.32 4.41
-7 4 -4 173.1 4.03
-7 4 -5 352.85 6.91
-7 5 7 3.82 0.44
7 5 -7 2.87 0.42
-7 5 7 3.87 0.51
-7 5 6 12.82 0.9
7 5 -6 13.2 0.9
-7 5 6 11.15 0.94
-7 5 5 26.86 1.44
7 5 -5 23.84 1.29
-7 5 5 25.53 1.51
-7 5 4 2.49 0.51
7 5 -4 2.35 0.43
-7 5 4 2.56 0.59
-7 5 3 3.3 0.62
-7 5 3 3.39 0.64
-7 5 2 23.67 1.58
-7 5 2 25.51 1.55
-7 5 1 76.1 2.94
-7 5 1 75.82 2.79
-7 5 0 3.02 0.61
-7 5 -1 335.12 7.36
-7 5 -1 331.01 7.13
-7 5 -2 24.89 1.33
-7 5 -2 25.09 1.41
-7 5 -3 0.26 0.25
-7 5 -3 0.09 0.24
-7 5 -4 1.07 0.26
-7 5 -4 1.35 0.32
-7 6 5 194.58 4.36
-7 6 5 198.38 4.15
-7 6 4 2.99 0.48
-7 6 4 2.59 0.42
-7 6 3 177.67 4.4
-7 6 3 182.61 4.29
-7 6 2 53.69 2.08
-7 6 2 54.65 2.02
-7 6 1 197.4 4.78
-7 6 1 204 4.72
-7 6 0 14.02 0.98
-7 6 0 13.14 0.92
-7 6 -1 165.76 3.98
-7 6 -1 175.91 4.09
-7 6 -2 133.9 3.27
-7 6 -3 25.82 1.06
-7 6 -3 24.03 1.03
-7 7 1 3.93 0.4
-7 7 0 10.1 0.61
8 -4 -4 82.46 2.31
-8 -4 1 106.78 3.21
-8 -4 0 120.48 3.48
-8 -4 -1 8.88 0.81
-8 -3 5 334.22 6.82
-8 -3 5 348.66 6.74
-8 -3 4 114.41 3.05
-8 -3 4 119.36 3.38
-8 -3 4 122.78 3.29
-8 -3 4 115.74 3.09
-8 -3 3 193.08 4.55
-8 -3 3 190.28 4.89
-8 -3 3 198.68 4.62
-8 -3 2 142.64 3.65
-8 -3 2 140.32 3.68
-8 -3 2 134.71 3.93
-8 -3 2 145.94 3.85
-8 -3 1 19.66 1.13
-8 -3 1 19.14 1.41
-8 -3 1 19.73 1.15
-8 -3 1 19.11 1.27
-8 -3 1 22.3 1.28
-8 -3 0 45.03 2.2
-8 -3 0 46.45 1.79
-8 -3 0 44.88 1.74
-8 -3 0 50.34 1.96
-8 -3 -1 3.4 0.63
-8 -3 -1 2.79 0.42
-8 -3 -1 3.56 0.52
-8 -3 -2 66.53 2.43
-8 -2 7 2.54 0.42
-8 -2 7 2.75 0.42
-8 -2 6 111.47 2.91
-8 -2 6 114.17 3.21
-8 -2 6 120.28 3.16
-8 -2 6 115.44 2.98
-8 -2 5 97.44 3.03
-8 -2 5 103.53 3.39
-8 -2 5 99.88 3.22
-8 -2 5 98.69 3.06
-8 -2 4 4.18 0.65
-8 -2 4 3.24 0.68
-8 -2 4 3.42 0.64
-8 -2 4 4.21 0.65
-8 -2 3 54.17 2.3
-8 -2 3 54.53 2.56
-8 -2 3 53.32 2.4
-8 -2 3 57.64 2.36
-8 -2 2 30.32 1.69
-8 -2 2 31.74 1.72
-8 -2 2 30.58 1.91
-8 -2 2 30.14 1.78
-8 -2 1 19.27 1.31
-8 -2 1 17.46 1.48
-8 -2 1 19.25 1.33
-8 -2 1 19.43 1.52
-8 -2 1 19.07 1.39
-8 -2 0 22.65 1.39
-8 -2 0 22.63 1.63
-8 -2 0 20.25 1.52
-8 -2 0 21.47 1.38
-8 -2 0 21.1 1.45
-8 -2 -1 6.19 0.73
-8 -2 -1 5.04 0.66
-8 -2 -1 5.88 0.78
-8 -2 -2 236.83 5.51
-8 -2 -2 242.14 5.98
-8 -2 -2 246.91 5.57
-8 -2 -3 71.15 2.28
-8 -2 -3 89.77 2.59
-8 -1 7 121.51 3.14
-8 -1 7 123.02 3.19
-8 -1 7 96.79 2.56
8 -1 -7 92.11 2.85
-8 -1 7 119.18 3.41
-8 -1 7 125.4 3.33
-8 -1 6 33.73 1.65
-8 -1 6 27.72 1.24
-8 -1 6 31.34 1.61
-8 -1 6 33.02 1.81
-8 -1 6 33.19 1.74
-8 -1 5 22.86 1.45
-8 -1 5 23.7 1.16
-8 -1 5 23.86 1.5
-8 -1 5 22.47 1.61
-8 -1 5 23.53 1.55
-8 -1 4 129.4 3.74
-8 -1 4 124.74 4.08
-8 -1 4 131.94 3.98
-8 -1 4 124.78 3.72
-8 -1 3 281.32 6.84
-8 -1 3 282.83 7.39
-8 -1 3 285.88 7.14
-8 -1 3 285.6 6.89
-8 -1 2 391.36 8.64
-8 -1 2 383.95 8.62
-8 -1 2 374.93 9.17
-8 -1 2 395.81 9
-8 -1 1 1.4 0.43
-8 -1 1 1.02 0.46
-8 -1 1 2.48 0.59
-8 -1 1 1.19 0.44
-8 -1 0 49.5 2.3
-8 -1 0 50.19 2.33
-8 -1 0 53.15 2.68
-8 -1 0 57.16 2.59
-8 -1 -1 1.46 0.48
-8 -1 -1 1.11 0.51
-8 -1 -1 1.7 0.52
-8 -1 -1 1.78 0.5
-8 -1 -2 -0.04 0.28
-8 -1 -2 0.4 0.37
-8 -1 -2 0.16 0.27
-8 -1 -3 0.39 0.35
-8 -1 -3 0.43 0.28
-8 -1 -4 0.78 0.28
-8 0 8 3.18 0.48
-8 0 8 4.12 0.5
-8 0 7 0.38 0.27
-8 0 7 -0.05 0.18
-8 0 7 1.52 0.39
8 0 -7 0.65 0.28
-8 0 7 0.24 0.3
-8 0 7 1.88 0.43
-8 0 6 66.07 2.54
-8 0 6 70.71 2.62
-8 0 6 72.12 2.32
-8 0 6 71.69 2.87
-8 0 6 70.48 2.72
-8 0 5 0.27 0.35
-8 0 5 0.06 0.24
-8 0 5 0.05 0.3
-8 0 5 -0.11 0.4
-8 0 5 0.02 0.1
-8 0 5 0.25 0.37
-8 0 4 14.03 1.21
-8 0 4 13.96 1.2
-8 0 4 11.29 0.89
-8 0 4 10.88 1.22
-8 0 4 13.57 1.26
-8 0 3 0.85 0.39
-8 0 3 0.03 0.25
-8 0 3 0.15 0.35
-8 0 3 0.38 0.49
-8 0 3 0.03 0.15
-8 0 3 0.68 0.46
-8 0 2 189.27 5.33
-8 0 2 193.07 5.33
-8 0 2 178.69 4.27
-8 0 2 182.26 5.74
-8 0 2 197.84 5.61
-8 0 1 0.3 0.3
-8 0 1 0.2 0.29
-8 0 1 0.64 0.44
-8 0 1 0.45 0.34
-8 0 0 78.78 3.04
-8 0 0 82.43 3.1
-8 0 0 79.59 3.43
-8 0 0 81.47 3.26
-8 0 -1 0.13 0.33
-8 0 -1 -0.14 0.32
-8 0 -1 0.17 0.41
-8 0 -1 0.1 0.39
-8 0 -2 21.95 1.4
-8 0 -2 22.84 1.53
-8 0 -2 21.2 1.37
-8 0 -3 4.54 0.59
-8 0 -3 1.09 0.36
-8 0 -4 49.16 1.89
-8 1 8 3.72 0.4
-8 1 8 3.68 0.48
-8 1 8 3.48 0.43
-8 1 7 118.79 3.14
-8 1 7 118.16 3.14
-8 1 7 112.38 2.92
-8 1 7 121.5 3.44
-8 1 7 112.89 3.21
-8 1 6 31.99 1.63
-8 1 6 30.76 1.48
-8 1 6 30.13 1.6
-8 1 6 32.41 1.83
-8 1 6 28.94 1.37
-8 1 6 32.76 1.73
-8 1 5 21.39 1.43
-8 1 5 23.08 1.33
-8 1 5 20.41 1.21
-8 1 5 22.03 1.44
-8 1 5 23.86 1.66
-8 1 5 23.57 1.56
-8 1 4 116.19 3.85
-8 1 4 125.05 3.57
-8 1 4 129.76 3.59
-8 1 4 126.09 3.98
-8 1 4 124.85 4.29
-8 1 4 130.47 4.17
-8 1 3 278.35 6.81
-8 1 3 264.44 6.19
-8 1 3 297.56 6.35
-8 1 3 274.72 6.8
-8 1 3 294.63 7.45
-8 1 3 291.21 7.15
-8 1 2 385.71 8.6
-8 1 2 369.3 8.52
-8 1 2 392.08 8
-8 1 2 383.91 7.82
-8 1 2 391.15 9.26
-8 1 2 393.55 8.93
-8 1 1 0.86 0.31
-8 1 1 0.77 0.4
-8 1 1 1.54 0.51
-8 1 1 0.89 0.34
-8 1 1 0.7 0.38
-8 1 0 50.67 2.17
-8 1 0 54.6 2.26
-8 1 0 48.4 1.68
-8 1 0 49.27 2.45
-8 1 0 53.06 2.37
-8 1 -1 1.53 0.45
-8 1 -1 1.42 0.55
-8 1 -1 1.39 0.3
-8 1 -1 1.69 0.52
-8 1 -1 1.28 0.45
-8 1 -2 0.12 0.29
-8 1 -2 0.13 0.35
-8 1 -2 0.04 0.27
-8 1 -3 0.5 0.31
-8 1 -3 1.75 0.4
-8 1 -4 1.28 0.33
-8 2 7 2.47 0.42
-8 2 7 2.07 0.35
-8 2 7 2.79 0.43
-8 2 6 111.96 3.14
-8 2 6 114.15 3.11
-8 2 6 114.79 3.16
-8 2 6 112.09 3.39
-8 2 6 103.52 3
-8 2 6 110.68 3.24
-8 2 5 92.33 3
-8 2 5 97.18 2.94
-8 2 5 91.12 2.9
-8 2 5 92.88 2.98
-8 2 5 100.98 3.36
-8 2 5 91.16 3.09
-8 2 4 3.34 0.59
-8 2 4 3.66 0.58
-8 2 4 3.44 0.57
-8 2 4 3.96 0.65
-8 2 4 1.94 0.55
-8 2 4 2.47 0.58
-8 2 3 51.81 2.27
-8 2 3 54.08 2.22
-8 2 3 55.44 2.17
-8 2 3 52.09 2.27
-8 2 3 56.04 2.59
-8 2 3 53.47 2.4
-8 2 2 27.47 1.62
-8 2 2 30.3 1.62
-8 2 2 33.55 1.61
-8 2 2 31.81 1.73
-8 2 2 31.7 1.93
-8 2 2 29.72 1.77
-8 2 1 18.79 1.31
-8 2 1 17.71 1.18
-8 2 1 17.76 1.12
-8 2 1 17.92 1.29
-8 2 1 20.34 1.53
-8 2 1 19.37 1.4
-8 2 0 20.45 1.34
-8 2 0 21.84 1.25
-8 2 0 20.33 1.1
-8 2 0 23.74 1.43
-8 2 0 19.11 1.47
-8 2 0 22.96 1.49
-8 2 -1 5.28 0.58
-8 2 -1 6.28 0.74
-8 2 -1 5.41 0.67
-8 2 -1 5.94 0.77
-8 2 -2 250.74 5.45
-8 2 -2 241.43 5.44
-8 2 -3 66.94 2.25
-8 2 -3 91.68 2.62
-8 3 7 6.95 0.53
-8 3 6 220.05 4.81
-8 3 5 329.67 6.95
-8 3 5 340.24 6.82
-8 3 4 116.49 3.17
-8 3 4 121.06 3.45
-8 3 4 126.14 3.4
-8 3 4 110.7 3.11
-8 3 4 123.37 3.49
-8 3 4 122.03 3.34
-8 3 3 197.45 4.7
-8 3 3 214.94 5.06
-8 3 3 213.49 4.91
-8 3 3 200.54 4.7
-8 3 3 195.33 5.01
-8 3 3 197.66 4.84
-8 3 2 144.51 3.8
-8 3 2 156.96 3.93
-8 3 2 149.04 4.02
-8 3 2 136.64 3.71
-8 3 2 139.75 4.05
-8 3 2 153.82 4
-8 3 1 20.12 1.18
-8 3 1 20.26 1.25
-8 3 1 20.52 1.17
-8 3 1 20.48 1.17
-8 3 1 20.56 1.33
-8 3 1 21.49 1.28
-8 3 0 46.18 1.8
-8 3 0 48.22 1.84
-8 3 0 50.86 2
-8 3 0 51.65 1.97
-8 3 0 50.89 1.8
-8 3 -1 3.42 0.46
-8 3 -1 3.47 0.42
-8 3 -1 3.23 0.47
-8 3 -1 3.69 0.55
-8 3 -1 3.05 0.45
-8 3 -2 68.93 2.01
-8 3 -2 62.62 1.98
-8 4 5 48.36 1.63
-8 4 2 0.24 0.25
-8 4 2 0.24 0.25
-8 4 1 123.8 3.22
-8 4 1 108.75 2.94
-8 4 0 128.82 3.3
-8 4 0 135.21 3.17
-8 4 -1 9.01 0.66
-8 4 -1 8.01 0.55
-8 5 3 2.06 0.3
-8 5 3 1.85 0.3
-8 5 2 0.77 0.24
-8 5 1 1.84 0.32
-8 5 1 2.18 0.31
0 -11 0 0.04 0.3
0 -11 1 528.92 10.41
0 -11 -2 30.43 1.49
0 -11 2 27.72 1.47
0 -11 -3 4.48 0.54
0 -11 -3 3.62 0.49
0 -11 -4 0.17 0.18
0 -10 0 139.06 4.19
0 -10 0 146.44 4.71
0 -10 1 355.9 8.13
0 -10 1 371.55 8.71
0 -10 2 399.04 8.83
0 -10 -2 419.59 9.22
0 -10 2 406.11 9.36
0 -10 3 14.72 1.23
0 -10 3 15.66 1.35
0 -10 -3 15.56 1.29
0 -10 4 23.54 1.49
0 -10 4 21.57 1.48
0 -10 -4 19.39 1.32
0 -10 -5 -0.03 0.24
0 -10 5 0.15 0.28
0 -10 6 0.48 0.29
0 -10 -7 38.58 1.62
0 -9 0 0.06 0.36
0 -9 0 -0.2 0.46
0 -9 1 153.17 5.06
0 -9 -1 159.28 5.04
0 -9 1 155.07 5.24
0 -9 -2 0.17 0.33
0 -9 2 0.97 0.53
0 -9 2 0.9 0.63
0 -9 -2 1.9 0.61
0 -9 3 0.69 0.5
0 -9 3 1.1 0.58
0 -9 -3 0.72 0.44
0 -9 4 97.02 3.79
0 -9 -4 101.88 3.68
0 -9 4 93.82 3.85
0 -9 5 2.08 0.62
0 -9 5 1.92 0.59
0 -9 -5 2.77 0.61
0 -9 -6 51.17 2.26
0 -9 -6 54.01 2.22
0 -9 6 50.77 2.32
0 -9 -6 48.36 1.91
0 -9 -7 140.23 3.89
0 -9 7 150.35 4.26
0 -9 -7 138.88 3.79
0 -9 -8 1.19 0.36
0 -9 -8 1.15 0.42
0 -9 -8 0.61 0.25
0 -9 8 1.27 0.4
0 -8 0 139.49 4.89
0 -8 0 155.13 4.94
0 -8 0 153.6 5.06
0 -8 0 146.21 5.25
0 -8 -1 39.07 2.36
0 -8 1 33.42 2.24
0 -8 -1 41.53 2.43
0 -8 1 40.06 2.24
0 -8 1 34.94 2.27
0 -8 1 40.19 2.56
0 -8 -1 39.5 2.58
0 -8 2 54.44 2.85
0 -8 -2 46.06 2.59
0 -8 2 52.1 2.48
0 -8 -2 52.14 2.84
0 -8 2 45.4 2.73
0 -8 -2 59.04 2.85
0 -8 2 49.36 2.75
0 -8 -3 422.59 9.53
0 -8 3 401.25 10.02
0 -8 3 424.17 10.03
0 -8 -3 414.04 9.63
0 -8 -3 417.74 9.68
0 -8 3 439.06 10.27
0 -8 4 55.29 2.88
0 -8 -4 59.55 2.64
0 -8 -4 58.21 2.97
0 -8 4 51.55 2.85
0 -8 -4 58.93 2.86
0 -8 -4 50.57 2.95
0 -8 4 57.11 3
0 -8 -4 52.92 2.66
0 -8 5 266.44 7.28
0 -8 -5 274.68 6.93
0 -8 -5 265.05 7.52
0 -8 -5 278.33 7.32
0 -8 -5 275.53 6.91
0 -8 5 246.87 7.11
0 -8 -6 0.74 0.46
0 -8 -6 1.4 0.61
0 -8 -6 0.33 0.41
0 -8 6 0.77 0.5
0 -8 6 -0.12 0.37
0 -8 -6 0.1 0.33
0 -8 -7 4 0.79
0 -8 -7 4.49 0.9
0 -8 -7 3.92 0.78
0 -8 7 5.3 0.89
0 -8 -8 39.15 2.21
0 -8 -8 40.17 2.36
0 -8 8 35.63 2.02
0 -8 -8 37.05 2.07
0 -8 -9 8.22 0.88
0 -8 -9 9.44 1.05
0 -8 9 7.9 0.88
0 -8 -9 9.3 0.96
0 -8 -10 134.88 3.71
0 -8 -10 131.55 3.49
0 -7 0 -0.12 0.3
0 -7 0 -0.16 0.35
0 -7 0 -0.17 0.38
0 -7 0 0.07 0.32
0 -7 1 64.51 3.03
0 -7 -1 66.49 3.02
0 -7 -1 65.76 2.97
0 -7 1 73.71 2.97
0 -7 1 63.88 2.9
0 -7 1 76.71 3.37
0 -7 -1 69.67 3.29
0 -7 -2 102.82 3.92
0 -7 2 103.11 3.96
0 -7 -2 119.13 4.48
0 -7 -2 105.88 3.64
0 -7 2 115.75 4.27
0 -7 2 104.29 3.6
0 -7 -2 116.83 4.18
0 -7 -2 108.78 3.84
0 -7 2 106.1 3.94
0 -7 -3 21.7 1.48
0 -7 -3 20.28 1.61
0 -7 3 20.02 1.64
0 -7 -3 23.03 1.68
0 -7 3 19.33 1.66
0 -7 -3 20.32 1.56
0 -7 3 21.23 1.7
0 -7 -4 17.8 1.45
0 -7 4 15.41 1.5
0 -7 -4 15.98 1.47
0 -7 -4 18.03 1.68
0 -7 -4 19.66 1.51
0 -7 4 16.5 1.52
0 -7 -5 804.49 15.48
0 -7 -5 847.95 16.06
0 -7 5 824.84 16.24
0 -7 -5 784.23 16.3
0 -7 5 777.42 16.21
0 -7 -5 773.57 16.52
0 -7 5 786.81 16.15
0 -7 -6 254.29 6.33
0 -7 -6 271.7 7.11
0 -7 6 249.74 6.97
0 -7 6 223.14 6.77
0 -7 -6 263.96 7.37
0 -7 -6 244.49 7.24
0 -7 6 236.65 6.71
0 -7 -7 438.44 10.15
0 -7 7 407.62 9.84
0 -7 -7 422.89 8.86
0 -7 -7 419.04 10.3
0 -7 -8 24.3 1.96
0 -7 -8 23.83 1.86
0 -7 8 24.31 1.8
0 -7 -9 116.63 4.27
0 -7 -9 120.84 4.46
0 -7 -9 127.95 4.77
0 -7 -10 4.78 0.84
0 -7 10 3.9 0.66
0 -7 11 0.14 0.2
0 -6 0 44.53 2.28
0 -6 0 50.85 1.91
0 -6 0 53.75 2.34
0 -6 0 51.92 2.27
0 -6 0 52.61 2.52
0 -6 1 78.79 3.05
0 -6 -1 73.27 2.97
0 -6 -1 80.94 3.24
0 -6 1 79.4 3.12
0 -6 -1 79.08 2.52
0 -6 -1 82.88 3.05
0 -6 1 79.01 2.82
0 -6 1 72.27 2.39
0 -6 -1 68.38 2.71
0 -6 1 79.82 2.97
0 -6 2 97.07 3.47
0 -6 -2 89.94 3.33
0 -6 -2 86.34 3.07
0 -6 -2 93.17 3.61
0 -6 2 90.96 3.45
0 -6 -2 93.78 2.97
0 -6 2 91.58 3.02
0 -6 -2 96.06 2.96
0 -6 2 95.92 3.37
0 -6 -2 86.94 3.09
0 -6 -3 0.87 0.38
0 -6 3 1 0.45
0 -6 3 1.11 0.45
0 -6 -3 1.45 0.44
0 -6 -3 1.6 0.43
0 -6 3 0.79 0.32
0 -6 -3 0.65 0.29
0 -6 3 0.77 0.4
0 -6 4 14.51 1.32
0 -6 -4 13.63 1.29
0 -6 -4 14.17 1.23
0 -6 4 14.22 1.01
0 -6 -4 14.63 1.39
0 -6 -4 14.88 1.15
0 -6 4 11.13 1.19
0 -6 -4 16.84 1.25
0 -6 5 104.81 3.97
0 -6 -5 114.28 4.23
0 -6 -5 119.41 4.09
0 -6 -5 113.19 4.27
0 -6 -5 114.38 3.74
0 -6 5 101.2 3.9
0 -6 -5 107.16 3.52
0 -6 6 2.78 0.7
0 -6 -6 3.08 0.78
0 -6 -6 1.85 0.63
0 -6 -6 1.9 0.62
0 -6 -6 2.78 0.55
0 -6 6 1.97 0.6
0 -6 -7 265.53 7.52
0 -6 -7 263.83 7.53
0 -6 7 290.49 7.5
0 -6 -7 278.33 7.9
0 -6 -8 79.31 3.83
0 -6 9 85.4 3.55
0 -6 -9 95.53 4.16
0 -6 10 0.31 0.39
0 -6 -10 0.82 0.51
0 -6 -11 1.72 0.56
0 -6 11 0.74 0.36
0 -6 -11 1.27 0.5
0 -6 -12 53.14 2.07
0 -6 -12 50.43 1.99
0 -5 0 0.03 0.21
0 -5 0 -0.03 0.19
0 -5 -1 91.6 2.74
0 -5 -1 109.17 3.22
0 -5 1 97.09 2.8
0 -5 1 100.02 3.25
0 -5 -1 106.05 3.39
0 -5 -2 135.55 3.49
0 -5 2 124.6 3.37
0 -5 -2 135.53 4.06
0 -5 -3 1433 24.61
0 -5 -3 1504.14 25.26
0 -5 3 1413.81 24.39
0 -5 -3 1483.65 25.69
0 -5 4 66.95 2.46
0 -5 -4 72.03 2.59
0 -5 4 71.95 2.5
0 -5 -4 73.89 2.9
0 -5 -4 69.27 2.8
0 -5 -4 74.13 2.76
0 -5 -5 1081.23 19.7
0 -5 -5 1115.5 19.44
0 -5 5 1041.11 18.66
0 -5 -5 1157.77 19.19
0 -5 -5 975.51 19.37
0 -5 5 1006.9 18.74
0 -5 5 1016.58 19.22
0 -5 -5 1046.45 18.46
0 -5 -6 27.65 2
0 -5 -6 30.1 1.95
0 -5 -6 27.1 1.5
0 -5 -6 28.52 1.94
0 -5 6 27.59 1.63
0 -5 7 452.78 9.66
0 -5 -7 427.68 10.24
0 -5 -8 1286.22 23.63
0 -5 -8 1124.87 22.6
0 -5 -9 56.47 3.21
0 -5 -9 45.62 2.79
0 -5 -10 -0.08 0.52
0 -5 -10 1.35 0.56
0 -5 11 9.82 1.03
0 -5 -11 10.97 1.23
0 -5 -12 7.8 0.91
0 -5 -12 6.76 0.86
0 -5 12 6.27 0.69
0 -4 0 184.56 4.06
0 -4 0 187.28 4.43
0 -4 1 101.16 2.66
0 -4 -1 102.37 2.68
0 -4 -1 103.02 3.01
0 -4 -2 1043.27 17.97
0 -4 2 1057.25 17.67
0 -4 -2 1038.15 16.47
0 -4 -3 1353.18 21.62
0 -4 -3 1281.58 21.53
0 -4 -3 1324.38 21.56
0 -4 -3 1386.36 22.43
0 -4 -3 1419.88 22.79
0 -4 3 1275.96 22.11
0 -4 -4 79.85 2.26
0 -4 -4 70.48 2.43
0 -4 4 68.81 2.29
0 -4 -4 76.66 2.67
0 -4 -4 71.69 2.11
0 -4 -4 66.92 2.08
0 -4 -5 68.41 2.65
0 -4 -5 68.21 2.39
0 -4 -5 72.77 2.77
0 -4 -5 74.01 2.63
0 -4 -5 68.27 2.33
0 -4 -5 69.14 2.34
0 -4 5 69.59 2.45
0 -4 -5 65.15 2.74
0 -4 -6 0.77 0.29
0 -4 -6 0.7 0.41
0 -4 6 0.04 0.26
0 -4 -6 0.15 0.28
0 -4 -6 0.4 0.27
0 -4 -6 0.95 0.32
0 -4 -7 31.75 1.89
0 -4 -7 31.86 1.87
0 -4 -7 37.82 2.2
0 -4 -7 32.85 1.9
0 -4 -7 31.26 1.8
0 -4 -7 38.59 2.4
0 -4 7 31.24 1.83
0 -4 -7 30.65 1.93
0 -4 -7 34.85 1.99
0 -4 -8 17.74 1.6
0 -4 -8 16.53 1.45
0 -4 -8 16.22 1.37
0 -4 8 18.54 1.49
0 -4 -8 17.19 1.68
0 -4 -8 15.54 1.47
0 -4 -8 17.23 1.56
0 -4 -8 16.6 1.48
0 -4 -8 14.66 1.39
0 -4 -9 -0.07 0.36
0 -4 -9 -0.06 0.31
0 -4 -9 -0.09 0.52
0 -4 -9 0.06 0.29
0 -4 -9 0.07 0.41
0 -4 9 1.36 0.5
0 -4 -9 0.07 0.4
0 -4 -10 136.98 4.94
0 -4 -10 126.2 4.7
0 -4 -10 131.27 4.55
0 -4 -10 127.02 4.37
0 -4 -11 2.76 0.75
0 -4 -11 2.16 0.58
0 -4 -11 2.66 0.7
0 -4 -11 3.73 0.72
0 -4 12 110.18 2.89
0 -4 12 120.37 3.09
0 -4 -12 122.87 3.57
0 -4 -12 131.64 3.8
0 -4 -12 123.35 3.32
0 -3 0 0.02 0.15
0 -3 0 -0.02 0.18
0 -3 1 178.01 3.8
0 -3 -1 196.32 3.88
0 -3 -2 1358.81 21.27
0 -3 2 1347.43 21.67
0 -3 -2 1285.74 21.81
0 -3 -2 1337.71 21.24
0 -3 -2 1358.59 21.25
0 -3 -3 4966.51 76.76
0 -3 -3 4927.91 77.15
0 -3 -3 4786.75 77.22
0 -3 -3 4985.57 76.73
0 -3 -3 4865.93 76.7
0 -3 3 4691.13 76.94
0 -3 -4 183.6 4.05
0 -3 -4 179.87 4.18
0 -3 -4 172.37 4.22
0 -3 -4 176.51 3.99
0 -3 -4 178.29 3.98
0 -3 4 172.82 4.05
0 -3 -5 451.25 8.61
0 -3 5 434.11 8.52
0 -3 -5 411.31 8.62
0 -3 -5 458.3 8.73
0 -3 -5 418.69 8.44
0 -3 -5 419 8.41
0 -3 -6 1547.54 25.27
0 -3 -6 1546.78 25.21
0 -3 -6 1364.16 25.49
0 -3 6 1405.21 24.82
0 -3 -6 1353.46 24.81
0 -3 -6 1492.12 24.97
0 -3 -6 1436.41 24.94
0 -3 -7 57.12 2.58
0 -3 -7 49.82 2.65
0 -3 -7 52.02 2.4
0 -3 7 47.79 2.28
0 -3 -7 53.88 2.51
0 -3 -7 50.66 2.5
0 -3 -7 51.66 2.49
0 -3 -7 53.86 2.53
0 -3 -7 53.85 2.49
0 -3 -8 217.79 6.21
0 -3 8 200.16 5.78
0 -3 -8 224.71 6.1
0 -3 -8 199.9 5.97
0 -3 -8 219.61 6.31
0 -3 -8 216.65 6.26
0 -3 -8 213.7 6.17
0 -3 -8 225.99 6.24
0 -3 -9 19.47 1.72
0 -3 9 15 1.43
0 -3 -9 16.95 1.56
0 -3 -9 16.47 1.58
0 -3 -9 16.58 1.64
0 -3 -9 16.32 1.64
0 -3 -9 19.04 1.71
0 -3 -9 13.97 1.49
0 -3 -10 544.36 12.34
0 -3 -10 533.33 12.07
0 -3 10 567.03 12.01
0 -3 -10 507.49 12.01
0 -3 -10 527.42 12.51
0 -3 -10 591.13 12.84
0 -3 -10 545.99 12.52
0 -3 -10 526.92 12.38
0 -3 -11 17.49 1.61
0 -3 -11 18.78 1.64
0 -3 -11 20.38 1.86
0 -3 -11 20.36 1.73
0 -3 -12 43.55 2.29
0 -3 -12 44.45 2.33
0 -3 -12 42.84 2.29
0 -3 -12 45.39 2.52
0 -3 -12 43.79 2.36
0 -3 -13 22.85 1.31
0 -3 13 22.21 1.31
0 -3 -13 20.78 1.37
0 -3 -13 23.61 1.35
0 -2 0 705.29 11.59
0 -2 -1 1632.1 24.9
0 -2 -1 1591.82 24.88
0 -2 -1 1632.26 24.89
0 -2 -2 6616.35 108.24
0 -2 -2 7143.93 108.01
0 -2 -3 552.78 9.73
0 -2 -3 552.26 9.83
0 -2 -3 587.07 9.92
0 -2 -3 561.8 9.77
0 -2 -3 549.23 9.68
0 -2 3 587.36 9.84
0 -2 -4 801.68 13.39
0 -2 -4 795.19 13.38
0 -2 -4 821.22 13.37
0 -2 -4 746.93 13.27
0 -2 -4 771.58 13.25
0 -2 -5 813.62 14.14
0 -2 -5 769.19 13.84
0 -2 5 812.11 13.99
0 -2 -5 761.66 14
0 -2 -5 780.55 13.98
0 -2 -6 576.16 11.59
0 -2 -6 588.48 11.56
0 -2 -6 606.33 11.74
0 -2 -7 46.99 2.47
0 -2 7 48.61 2.22
0 -2 -7 47.66 2.28
0 -2 -7 48.48 2.39
0 -2 -7 49.07 2.35
0 -2 -7 49.7 2.41
0 -2 -7 48.86 2.26
0 -2 -8 272.3 6.86
0 -2 -8 267.66 7.18
0 -2 8 295.64 6.98
0 -2 -8 264.65 7.02
0 -2 -8 280.37 7.56
0 -2 -8 261.84 7.09
0 -2 -8 253.44 6.94
0 -2 -8 269.95 7.24
0 -2 -8 250.92 7.07
0 -2 -9 30.48 2.04
0 -2 -9 34.59 2.33
0 -2 9 28.28 1.94
0 -2 -9 26.86 2
0 -2 -9 34.33 2.45
0 -2 -9 32.2 2.24
0 -2 -9 29.85 2.19
0 -2 -9 26.8 2.12
0 -2 -9 28.9 2.19
0 -2 -10 136.32 4.76
0 -2 -10 144.24 5.21
0 -2 -10 130.43 4.94
0 -2 10 140.08 4.84
0 -2 -10 136.02 5.13
0 -2 -10 124.03 4.94
0 -2 -10 126.29 5.11
0 -2 -10 129.95 5.17
0 -2 -11 176.69 5.88
0 -2 -11 187.5 6.11
0 -2 -11 184.36 5.69
0 -2 -11 186.39 6.35
0 -2 -12 94.54 3.84
0 -2 -12 103.15 4.05
0 -2 -12 94.41 3.48
0 -2 -12 97.56 4.13
0 -2 -13 516.43 10.57
0 -2 -13 540.62 10.73
0 -2 -13 493.82 10.84
0 -2 13 473.17 10.59
0 -2 14 77.62 2.32
0 -2 -14 76.91 2.48
0 -1 0 3.07 0.2
0 -1 -1 992.67 14.68
0 -1 -1 945.21 14.52
0 -1 1 870.53 14.59
0 -1 -1 846.67 14.7
0 -1 -2 392.21 6.61
0 -1 -2 375.24 6.6
0 -1 2 395.26 6.65
0 -1 -3 63.61 1.65
0 -1 -3 65.76 1.73
0 -1 3 62.43 1.71
0 -1 -4 14.91 0.77
0 -1 -4 14.16 0.85
0 -1 -4 15.13 0.85
0 -1 4 13.82 0.82
0 -1 -5 1047.12 17.56
0 -1 -5 1040.73 17.54
0 -1 5 1000.27 17.28
0 -1 -6 393.16 8.21
0 -1 -6 381.83 8.18
0 -1 6 405.61 7.97
0 -1 -7 7.04 0.8
0 -1 7 8.85 0.9
0 -1 -7 8.45 1.03
0 -1 -7 10.34 1.02
0 -1 -7 8.78 0.96
0 -1 -7 7.13 0.9
0 -1 -7 8.54 0.97
0 -1 -8 295.28 7.24
0 -1 -8 294.91 7.62
0 -1 -8 336.16 7.9
0 -1 -8 332.15 8.38
0 -1 8 325.93 7.56
0 -1 -8 319.57 7.92
0 -1 -8 294.46 7.68
0 -1 -8 310.52 7.97
0 -1 -8 301.61 7.88
0 -1 -9 60.83 3.12
0 -1 -9 60.3 2.85
0 -1 -9 56.43 2.98
0 -1 -9 62.41 3.1
0 -1 9 64.26 2.97
0 -1 -9 62.47 3.17
0 -1 -9 60.42 3.14
0 -1 -9 62.8 3.26
0 -1 -9 59.18 3.16
0 -1 -10 524.65 11.68
0 -1 -10 541.56 12.61
0 -1 -10 562.69 12.52
0 -1 10 536.79 11.92
0 -1 -10 534.2 12.49
0 -1 -10 543.46 12.6
0 -1 -10 516.21 12.65
0 -1 -10 548.18 12.81
0 -1 -11 117.22 4.68
0 -1 -11 120.09 4.81
0 -1 -11 107.24 3.99
0 -1 -11 113.22 4.88
0 -1 -12 7.53 1.12
0 -1 -12 8.74 1.28
0 -1 -12 8.89 1.25
0 -1 -13 2.37 0.6
0 -1 -13 2.62 0.62
0 -1 -13 3.16 0.72
0 -1 14 0.21 0.3
0 -1 -14 0.34 0.27
0 -1 -14 0.14 0.27
0 -1 -14 0.44 0.33
0 -1 14 0.69 0.33
0 0 1 0.2 0.05
0 0 -1 0.2 0.06
0 0 -1 0.02 0.04
0 0 -1 0.07 0.04
0 0 -1 0.11 0.06
0 0 2 734.02 11.43
0 0 -2 728.25 11.33
0 0 -2 731.27 11.46
0 0 -2 666.06 11.6
0 0 2 659.68 11.63
0 0 3 0.07 0.17
0 0 -3 0.04 0.09
0 0 3 0.01 0.1
0 0 -3 0.01 0.15
0 0 -4 130.45 2.53
0 0 -4 124.85 3.01
0 0 4 127.41 3.02
0 0 5 -0.03 0.23
0 0 -5 0.11 0.13
0 0 5 0.18 0.13
0 0 -5 0.44 0.26
0 0 -5 0.14 0.23
0 0 -6 320.83 6.82
0 0 -6 313.53 6.76
0 0 -6 284.26 6.56
0 0 6 273.02 6.31
0 0 -7 0.05 0.29
0 0 -7 0.66 0.35
0 0 7 0.85 0.4
0 0 -7 0.14 0.26
0 0 -7 -0.05 0.27
0 0 -8 444.26 9.76
0 0 8 465.35 9.55
0 0 -8 436.78 10
0 0 -8 432.03 9.91
0 0 -8 412.41 9.78
0 0 -8 445.62 9.87
0 0 -9 0.14 0.37
0 0 -9 0.07 0.39
0 0 -9 0.36 0.37
0 0 -9 0.34 0.37
0 0 9 -0.18 0.34
0 0 -9 0.23 0.35
0 0 -9 0.53 0.51
0 0 -9 0.35 0.48
0 0 -10 9.6 1.3
0 0 -10 7.42 1.13
0 0 10 5.68 0.96
0 0 -10 9.26 1.28
0 0 -10 10.21 1.33
0 0 -10 7.69 1.21
0 0 -10 9.45 1.33
0 0 -10 8.88 1.35
0 0 -11 0.31 0.44
0 0 -11 0.71 0.54
0 0 -11 0.41 0.45
0 0 -12 177.26 5.85
0 0 -12 191.29 6.32
0 0 -12 193.62 6.08
0 0 -13 0.06 0.4
0 0 -13 0.91 0.51
0 0 -13 0.13 0.44
0 0 -14 0.07 0.25
0 0 -14 0.14 0.25
0 0 -14 0.04 0.31
0 0 14 0.04 0.29
0 1 0 0.1 0.06
0 1 1 970.07 15.1
0 1 -1 979.35 15.4
0 1 -2 363.25 6.41
0 1 -2 344.45 6.38
0 1 -3 63.39 1.75
0 1 -3 64.27 1.62
0 1 -3 62.87 1.71
0 1 -4 13.62 0.84
0 1 -4 15.1 0.85
0 1 -4 12.96 0.74
0 1 4 14.96 0.79
0 1 -4 16.57 0.76
0 1 -5 1058.46 17.32
0 1 -5 947.69 17.04
0 1 -5 1000.94 17.23
0 1 5 940.37 16.66
0 1 -5 1013.46 16.77
0 1 -5 998.58 16.58
0 1 -6 386.04 8.17
0 1 -6 383.5 8.13
0 1 6 380.09 7.43
0 1 -6 405.68 7.56
0 1 -6 398.01 8.28
0 1 -7 9.52 1
0 1 -7 7.89 0.91
0 1 -7 9.58 1.01
0 1 7 7.27 0.67
0 1 -7 9.25 0.78
0 1 -7 8.82 0.98
0 1 -8 296.31 7.56
0 1 -8 314.89 7.65
0 1 -8 299.17 7.66
0 1 -8 299.74 7.72
0 1 8 296.11 6.89
0 1 -9 66.24 3.24
0 1 -9 67.54 3.31
0 1 -9 57.85 3.05
0 1 -9 64.74 3.27
0 1 -9 65.35 3.31
0 1 -9 58.72 3.03
0 1 -10 587.64 12.99
0 1 -10 568.36 12.84
0 1 -10 565.97 12.72
0 1 -10 551.12 12.95
0 1 -10 558.32 13.02
0 1 -11 119.04 4.67
0 1 -11 114.39 4.85
0 1 -11 114.15 4.64
0 1 -12 7.71 1.13
0 1 -12 9.71 1.34
0 1 -12 7.75 1.15
0 1 -13 1.74 0.53
0 1 -13 2.23 0.58
0 1 -13 1.35 0.53
0 1 14 0.07 0.3
0 1 -14 0.5 0.3
0 1 -14 0.63 0.29
0 1 -14 0.69 0.34
0 1 14 0.54 0.35
0 2 0 627.89 10.85
0 2 0 712.68 11
0 2 -1 1519.6 23.84
0 2 -1 1485.76 23.85
0 2 -1 1542.94 23.86
0 2 1 1460.48 23.96
0 2 1 1556.14 24.34
0 2 -1 1507.87 24.28
0 2 -1 1594.05 24.14
0 2 -2 7666.27 118.23
0 2 2 7448.41 118.57
0 2 -3 558.7 9.7
0 2 -3 519.77 9.59
0 2 -3 547.24 9.7
0 2 3 604.12 9.94
0 2 -3 534.99 9.96
0 2 -3 620.19 9.88
0 2 -4 731.52 13.33
0 2 -4 742.44 13.33
0 2 4 777.59 13.49
0 2 -4 805.11 13.65
0 2 -4 820.47 13.36
0 2 -4 768.01 13.41
0 2 -5 795.81 14
0 2 -5 757.69 13.86
0 2 -5 783.55 13.96
0 2 -5 821.06 13.79
0 2 5 766.82 13.86
0 2 -5 788.89 14.01
0 2 5 751.28 14.08
0 2 -6 592.7 11.44
0 2 -6 572.6 11.32
0 2 -6 562.19 11.27
0 2 -6 588.07 11.04
0 2 6 564.02 11.02
0 2 -6 597.62 11.48
0 2 7 52.31 2.37
0 2 -7 43.47 2.18
0 2 -7 44.92 2.18
0 2 -7 49.82 2.37
0 2 -7 50.73 2.35
0 2 -7 47.1 2.27
0 2 7 47.39 2.24
0 2 -7 46.86 2.05
0 2 7 48.98 2.06
0 2 -7 50.77 2.43
0 2 -8 258.04 6.92
0 2 -8 279.52 7.04
0 2 -8 228.1 6.59
0 2 -8 224.56 6.48
0 2 8 287.09 6.8
0 2 -8 260.4 6.85
0 2 8 287.87 6.95
0 2 -8 270.87 7.16
0 2 -8 270.01 7.13
0 2 -8 264.86 7.03
0 2 -9 29.71 2.11
0 2 -9 30.74 2.15
0 2 -9 28.87 2.06
0 2 9 34.07 2.01
0 2 -9 30.24 2.11
0 2 9 32.42 2.11
0 2 -9 29.98 2.21
0 2 -9 30.83 2.23
0 2 -9 30.87 2.17
0 2 -10 135.91 5.07
0 2 -10 118.81 4.77
0 2 10 140.98 4.38
0 2 -10 131.17 4.98
0 2 -10 141.22 5.1
0 2 -10 129.81 5.1
0 2 -10 145.11 5.34
0 2 -10 139.24 4.98
0 2 10 135.45 4.82
0 2 -11 181.64 6.04
0 2 -11 187.06 5.98
0 2 -11 191.75 6.32
0 2 -11 190.84 6.11
0 2 -12 96.8 3.83
0 2 -12 92.77 3.77
0 2 -12 96.71 4.03
0 2 13 489.86 10.83
0 2 -13 514.63 10.48
0 2 -13 506.22 9.73
0 2 -13 493.69 10.72
0 2 -13 520.37 10.54
0 2 -14 80.23 2.46
0 2 14 80.42 2.47
0 3 0 0.09 0.14
0 3 0 0.02 0.14
0 3 -1 176.25 3.78
0 3 1 179.09 3.55
0 3 -2 1295.96 20.98
0 3 -2 1329.65 21.01
0 3 -2 1349.96 21.04
0 3 2 1298.26 21.79
0 3 -2 1323.94 21.22
0 3 -3 4920.54 75.79
0 3 -3 4656.25 75.79
0 3 -3 4944.37 75.86
0 3 -3 4696.46 75.5
0 3 3 4990.18 76.49
0 3 -3 4837.32 76.65
0 3 -4 173.91 3.91
0 3 -4 161.73 3.82
0 3 -4 181.56 4.17
0 3 -4 169.45 3.26
0 3 -4 180.14 4.49
0 3 4 167.3 4.24
0 3 -4 175.86 3.98
0 3 -5 425.28 8.33
0 3 -5 421.88 8.26
0 3 5 453.9 8.82
0 3 -5 416.25 8.4
0 3 -5 380.53 8.57
0 3 -5 408.79 8.31
0 3 5 444.43 8.68
0 3 -6 1420.15 24.64
0 3 -6 1461.55 24.68
0 3 6 1509.66 25.06
0 3 6 1408.54 24.83
0 3 -6 1375.93 24.92
0 3 -6 1468.74 24.77
0 3 -6 1386.1 24.71
0 3 -7 50.8 2.41
0 3 -7 43.54 2.18
0 3 -7 56.18 2.5
0 3 -7 49.04 2.35
0 3 -7 45.01 2.25
0 3 7 53.53 2.48
0 3 7 46.73 2.26
0 3 -7 52.44 2.38
0 3 -7 59.38 2.56
0 3 -7 48.76 2.42
0 3 -7 50.33 2.42
0 3 -8 208.16 6.12
0 3 -8 215.76 6.16
0 3 8 206.99 6
0 3 -8 196.21 5.8
0 3 -8 197.44 5.96
0 3 -8 244.01 6.29
0 3 -8 220.09 6.07
0 3 8 195.79 5.82
0 3 -8 208.48 5.88
0 3 8 195.21 5.49
0 3 -8 254.21 6.42
0 3 -9 15.36 1.52
0 3 -9 16.85 1.57
0 3 -9 14.82 1.49
0 3 9 17.2 1.51
0 3 -9 16.17 1.5
0 3 9 18.15 1.61
0 3 -9 14 1.49
0 3 -9 13.23 1.46
0 3 -9 17.22 1.58
0 3 -10 515.56 12.11
0 3 -10 557.95 12.37
0 3 10 568.17 11.67
0 3 -10 566.44 12.15
0 3 10 523.05 11.99
0 3 -10 534.35 12.27
0 3 -10 545.97 12.48
0 3 -10 513.6 12.25
0 3 -10 545.98 12.19
0 3 11 19.47 1.41
0 3 -11 20.43 1.78
0 3 -11 18.6 1.63
0 3 -11 18.31 1.71
0 3 -11 18.44 1.62
0 3 -12 43.83 2.29
0 3 -12 43.58 2.26
0 3 -12 40.53 2.35
0 3 -13 24.49 1.39
0 3 -13 24.07 1.28
0 3 -13 23.8 1.34
0 3 -13 22.4 1.42
0 3 13 19.24 1.37
0 4 0 178.67 3.91
0 4 0 173.05 3.98
0 4 1 97.27 2.51
0 4 1 96.26 2.8
0 4 -1 104.62 2.76
0 4 -1 109.27 2.71
0 4 -2 1108.29 15.7
0 4 -2 1132.86 16.28
0 4 -3 1275.88 20.95
0 4 -3 1237.02 20.86
0 4 -3 1287.33 20.91
0 4 3 1375.73 22.35
0 4 -3 1344.92 22.01
0 4 -3 1280.26 21.11
0 4 -3 1322.25 22.48
0 4 -4 70.69 2.14
0 4 4 67.77 2.64
0 4 -4 69.72 1.83
0 4 -4 67.26 2.05
0 4 -4 69.05 2.08
0 4 -5 66.69 2.33
0 4 -5 68.88 2.46
0 4 5 68.94 2.62
0 4 5 68.13 2.79
0 4 -5 68.3 2.66
0 4 -5 65.16 2.79
0 4 -5 66.31 2.27
0 4 -5 64.09 2.24
0 4 -6 -0.04 0.23
0 4 -6 0.04 0.24
0 4 -6 0.04 0.19
0 4 -6 0.28 0.31
0 4 -6 1.92 0.52
0 4 6 0.3 0.36
0 4 -6 1.66 0.5
0 4 6 0.22 0.29
0 4 -6 0.83 0.31
0 4 -6 2.61 0.49
0 4 -7 32.54 1.92
0 4 -7 34.2 1.79
0 4 7 35.89 2.1
0 4 -7 32.88 1.86
0 4 -7 29.88 1.79
0 4 -7 34.24 2.14
0 4 -7 37.32 2.16
0 4 7 34.41 2.11
0 4 -7 31.57 1.98
0 4 -7 30.66 1.85
0 4 -8 16.08 1.48
0 4 -8 15.82 1.45
0 4 8 16.24 1.57
0 4 -8 17.28 1.51
0 4 8 19.36 1.62
0 4 -8 15.28 1.35
0 4 -8 16.11 1.41
0 4 8 14.22 1.38
0 4 -8 15.96 1.41
0 4 -9 0.28 0.44
0 4 -9 0.4 0.39
0 4 9 0.2 0.4
0 4 -9 0.18 0.36
0 4 9 0.13 0.34
0 4 -9 -0.06 0.3
0 4 10 131.04 4.44
0 4 -10 125.25 4.34
0 4 -10 122.6 4.55
0 4 -10 122.14 4.5
0 4 -10 120.93 4.26
0 4 11 3.41 0.65
0 4 -11 2.8 0.62
0 4 -11 3 0.64
0 4 -11 2.69 0.7
0 4 -12 131.87 3.39
0 4 -12 118.03 3.14
0 4 -13 119.3 3.12
0 5 0 0.06 0.24
0 5 0 3.94 0.55
0 5 1 96.4 2.8
0 5 -1 101.36 3.05
0 5 -1 103.11 2.97
0 5 1 95.46 3.15
0 5 -2 130.11 3.39
0 5 -2 131.64 3.77
0 5 -3 1464.89 25.13
0 5 -3 1505.34 25.22
0 5 3 1482.32 25.55
0 5 -3 1360.83 25.07
0 5 -3 1586.57 26.07
0 5 -3 1416.8 24.16
0 5 -4 68.69 2.76
0 5 -4 70.81 2.86
0 5 -4 71.18 3.09
0 5 4 72.08 3.05
0 5 -4 72.38 2.74
0 5 5 1018.48 18.87
0 5 -5 981.6 18.45
0 5 -5 1020.26 19.56
0 5 -5 999.29 18.7
0 5 6 32.2 1.98
0 5 -6 27.42 1.63
0 5 -6 27.34 1.79
0 5 -6 28.65 2.02
0 5 -6 31.78 2.06
0 5 6 28.42 2.03
0 5 -6 26.98 1.72
0 5 7 440.55 10.03
0 5 -7 465.68 10.28
0 5 -7 405.1 9.43
0 5 -7 438.81 10.59
0 5 -7 445.69 10.42
0 5 7 420.38 10.33
0 5 -7 465.56 9.77
0 5 -8 1140.31 20.58
0 5 8 1157.42 21.32
0 5 8 1092.21 21.34
0 5 8 1130.31 21.94
0 5 -8 1106.9 21.44
0 5 -8 1104.71 20.88
0 5 9 47.5 2.74
0 5 -9 44.76 2.5
0 5 10 -0.06 0.37
0 5 -10 0.24 0.41
0 5 11 10.07 0.99
0 5 -11 10.89 1.11
0 5 -12 5.16 0.69
0 6 0 49.2 2.42
0 6 0 51.17 2.43
0 6 0 55.76 2.44
0 6 0 52.02 2.27
0 6 1 73.35 3.08
0 6 -1 88.75 3.29
0 6 1 78.89 3.09
0 6 -1 79.01 3.1
0 6 -1 76.94 2.84
0 6 -1 81.46 3.01
0 6 1 77.63 3.08
0 6 -2 99.53 3.56
0 6 -2 85.54 2.95
0 6 -2 98.76 3.46
0 6 -2 102.46 3.82
0 6 2 90.73 3.49
0 6 -2 94.47 3.41
0 6 -3 0.87 0.3
0 6 -3 1.22 0.51
0 6 -3 1.27 0.46
0 6 -3 1 0.35
0 6 -4 14.19 1.32
0 6 -4 11.34 1.05
0 6 4 13.65 1.43
0 6 -4 14.12 1.38
0 6 -4 12.05 1.36
0 6 -4 12.82 1.26
0 6 -5 114.71 4.07
0 6 -5 106.22 3.75
0 6 5 101.71 3.74
0 6 -5 114.76 4.3
0 6 5 109.84 4.43
0 6 -5 96.34 4.17
0 6 -5 105.42 3.94
0 6 -6 2.54 0.64
0 6 -6 4.21 0.8
0 6 6 2.47 0.65
0 6 -6 1.56 0.62
0 6 6 4.14 0.9
0 6 -6 3.53 0.78
0 6 -7 270.56 7.08
0 6 -7 273.64 7.35
0 6 7 250.29 6.83
0 6 7 243.8 7.48
0 6 -7 262.56 7.7
0 6 -7 261.84 7.19
0 6 -8 76.9 3.52
0 6 -8 71.55 3.11
0 6 -8 77.27 3.46
0 6 8 75.48 3.69
0 6 -9 82.65 3.23
0 6 9 84.42 3.71
0 6 -9 86.99 3.59
0 6 10 0.59 0.4
0 6 -10 -0.05 0.36
0 6 11 0.94 0.35
0 6 -12 48.66 1.8
0 7 0 0.13 0.4
0 7 0 -0.19 0.36
0 7 0 0.23 0.31
0 7 -1 66.98 3.2
0 7 1 66.72 3.16
0 7 -1 68.06 3.1
0 7 1 64.52 2.98
0 7 -1 67.52 2.87
0 7 1 61.72 3.03
0 7 -1 62.23 3.16
0 7 -2 117.88 4.33
0 7 2 96.57 4.05
0 7 -2 110.57 4.44
0 7 -2 103.79 3.57
0 7 2 103.18 4.16
0 7 -2 105.61 4.04
0 7 3 22.01 1.9
0 7 -3 19.82 1.7
0 7 -3 23.2 1.78
0 7 -4 18.25 1.44
0 7 -4 17.47 1.63
0 7 -4 16.01 1.71
0 7 -4 17.25 1.58
0 7 -5 797.68 15.7
0 7 -5 784.25 16.21
0 7 -5 835.09 17.2
0 7 5 782.12 16.91
0 7 -5 772.08 16
0 7 -6 238.65 6.7
0 7 -6 251.09 7.02
0 7 6 230.15 7.36
0 7 -6 233.19 7.32
0 7 -6 235.89 6.84
0 7 -7 384.71 9.62
0 7 -7 411.41 9.69
0 7 -7 411.21 9.71
0 7 8 25.54 2.06
0 7 -8 24.88 1.85
0 7 -8 22.53 1.67
0 7 9 105.68 3.99
0 7 -9 108.1 3.9
0 7 10 2.58 0.57
0 7 -10 3.63 0.66
0 7 -11 0.37 0.26
0 8 0 147.8 5.35
0 8 0 144.43 4.94
0 8 0 129.03 4.74
0 8 0 143.08 5.34
0 8 -1 41.07 2.65
0 8 1 41.44 2.67
0 8 -1 37.92 2.41
0 8 -1 45.09 2.86
0 8 -1 36.55 2.24
0 8 1 39.02 2.58
0 8 1 37.13 2.46
0 8 -2 53.05 3.01
0 8 2 41.31 2.68
0 8 -2 50.71 2.83
0 8 -2 46.03 2.95
0 8 2 46.96 2.87
0 8 -3 422.05 10.57
0 8 3 437.15 10.96
0 8 -3 435.81 10.36
0 8 -4 52.24 3.19
0 8 -4 56.16 2.95
0 8 -5 259.44 7.41
0 8 -5 249.15 7.09
0 8 -5 259.49 6.72
0 8 -6 0.35 0.49
0 8 -6 0.07 0.4
0 8 -7 4.87 0.86
0 8 -7 4.43 0.82
0 8 7 4.32 0.9
0 8 -8 37.77 1.99
0 8 -8 37.75 2.11
0 8 8 34.14 2.13
0 8 -9 8.55 0.91
0 8 9 7.42 0.86
0 8 -10 120.44 3.2
0 8 10 109.76 2.98
0 9 0 -0.16 0.52
0 9 -1 174.25 5.95
0 9 -1 164.29 5.24
0 9 2 0.63 0.51
0 9 -2 0.49 0.58
0 9 -2 0.39 0.41
0 9 -3 1.56 0.74
0 9 -3 1.69 0.6
0 9 -4 101.85 3.96
0 9 -5 3.59 0.81
0 9 -5 2.8 0.7
0 9 -6 54.66 2.7
0 9 -6 51.66 2.53
0 9 -7 146.07 4.35
0 9 -7 150 4.37
0 9 -8 1.34 0.39
0 9 8 1.31 0.42
0 10 0 139.19 4.74
0 10 1 368.73 8.64
0 10 -1 358.92 8.93
0 10 -2 407.88 9.68
0 10 -3 15.15 1.45
0 10 -4 23.62 1.7
0 10 -4 20.13 1.34
0 10 -5 0.69 0.39
0 10 -5 0.25 0.26
0 10 5 -0.04 0.3
0 10 6 0.42 0.29
0 10 -6 0.15 0.28
0 11 0 0.1 0.25
0 11 -1 533.32 10.42
0 11 -2 27.24 1.52
0 11 -3 4.76 0.62
1 -11 -4 7.94 0.61
1 -11 -3 35.43 1.48
1 -11 -3 23.4 1.16
-1 -11 2 116.81 3.38
-1 -11 2 111.1 2.98
1 -11 -1 75.75 2.6
-1 -11 0 244.59 5.92
1 -11 0 281.02 6.06
1 -11 1 37.2 1.71
-1 -11 -1 34.24 1.64
1 -11 2 0.12 0.25
-1 -11 -2 0.14 0.21
-1 -10 6 0.24 0.27
1 -10 -6 0.62 0.24
-1 -10 5 10.12 0.98
1 -10 -5 11.52 0.93
-1 -10 4 2.7 0.6
-1 -10 4 3.24 0.67
1 -10 -4 4.05 0.65
-1 -10 3 79.38 3.12
-1 -10 3 82.22 3.31
1 -10 -3 85.3 3.13
-1 -10 2 4.52 0.83
-1 -10 2 3.76 0.73
-1 -10 1 548.23 12.17
-1 -10 1 575.81 11.98
-1 -10 0 59.79 2.85
1 -10 0 66.75 2.93
-1 -10 0 59.54 2.69
1 -10 1 10.33 1.14
-1 -10 -1 14.15 1.32
-1 -10 -1 11.91 1.14
-1 -10 -1 10.09 1.11
-1 -10 -2 26.2 1.73
1 -10 2 26.1 1.72
-1 -10 -2 22.51 1.47
-1 -10 -2 23.11 1.7
1 -10 3 53.67 2.13
-1 -10 -3 47.26 2.24
1 -10 3 54.24 2.42
-1 -10 -3 54.69 2.67
1 -10 4 62.29 2.27
-1 -10 -4 59.29 2.25
-1 -10 -4 65.3 2.86
1 -10 4 61.31 2.33
-1 -10 -5 47.29 2.25
1 -10 5 43.56 1.76
-1 -10 -6 5.95 0.72
1 -9 -8 8.85 0.79
1 -9 -8 9.65 0.8
1 -9 -7 267.58 6.35
1 -9 -7 277.02 5.91
-1 -9 7 290.14 6.78
1 -9 -7 288.19 6.3
1 -9 -6 261.91 6.18
-1 -9 6 264.96 6.8
1 -9 -6 264.37 6.14
-1 -9 5 12.5 1.3
1 -9 -5 13.07 1.19
-1 -9 5 12.79 1.33
1 -9 -5 12.86 1.08
-1 -9 4 58.45 2.8
1 -9 -4 63.19 2.65
-1 -9 4 54.67 2.8
-1 -9 3 398.09 9.78
-1 -9 3 389.48 9.84
-1 -9 2 248.96 7.26
-1 -9 2 260.61 7.2
1 -9 -1 381.03 9.01
-1 -9 1 372.11 9.16
1 -9 0 73.97 3.33
-1 -9 0 71.35 3.41
-1 -9 0 77.04 3.5
1 -9 1 13.14 1.39
-1 -9 -1 15.55 1.52
1 -9 1 12.41 1.22
-1 -9 -1 14.96 1.49
1 -9 2 4.12 0.85
-1 -9 -2 3.87 0.82
1 -9 2 3.77 0.72
-1 -9 -2 3.76 0.79
-1 -9 -2 3.64 0.69
1 -9 3 19.33 1.63
-1 -9 -3 16.76 1.47
1 -9 3 15.69 1.38
-1 -9 -3 15.3 1.4
-1 -9 -3 16.82 1.42
-1 -9 -4 1.44 0.5
1 -9 4 2.91 0.7
-1 -9 -4 1.26 0.47
1 -9 4 1.18 0.51
-1 -9 -4 1.98 0.56
-1 -9 -5 197.26 5.52
-1 -9 -5 193.6 5.1
1 -9 5 207.03 5.57
-1 -9 -6 23.14 1.56
1 -9 6 24.98 1.58
-1 -9 -6 22.19 1.54
-1 -9 -7 3.77 0.63
1 -9 7 4.1 0.64
-1 -9 -7 3.01 0.58
-1 -9 -7 2.69 0.65
1 -9 8 13.94 0.94
-1 -9 -8 13.14 0.99
-1 -9 -8 11.44 0.87
1 -8 -10 82.21 2.63
-1 -8 10 84.06 2.53
1 -8 -10 86.14 2.8
1 -8 -9 90.73 3.12
-1 -8 9 91.15 3.11
1 -8 -9 92.22 3.35
1 -8 -8 2.53 0.6
1 -8 -8 2.24 0.42
1 -8 -7 32.88 1.96
1 -8 -7 30.34 1.67
1 -8 -7 32.1 1.97
1 -8 -6 0.59 0.35
-1 -8 6 0.61 0.49
1 -8 -6 0.61 0.42
-1 -8 5 72.48 3.4
-1 -8 5 66.14 3.35
1 -8 -5 71.64 3.02
1 -8 -5 70.03 2.99
1 -8 -4 391.61 9.09
1 -8 -4 407.68 8.87
-1 -8 4 387.66 9.68
1 -8 -4 380.64 9.56
-1 -8 4 381.81 9.77
-1 -8 3 1144.74 22
-1 -8 3 1108.48 21.35
1 -8 -3 1139.6 20.48
1 -8 -3 1174.58 21.91
1 -8 -3 1128.26 21.23
-1 -8 3 1175.46 22.26
-1 -8 2 160.35 5.5
1 -8 -2 162.37 5.33
-1 -8 2 170.78 5.65
1 -8 -2 163.86 5.82
-1 -8 2 161.56 5.28
-1 -8 1 425.7 10.13
-1 -8 1 404.09 9.29
1 -8 -1 406.22 9.59
1 -8 -1 405.41 9.49
-1 -8 1 406.79 9.93
-1 -8 1 390.72 9.61
1 -8 -1 397.46 10.25
1 -8 0 44.07 2.38
-1 -8 0 42.1 2.61
-1 -8 0 43.96 2.48
1 -8 0 46.98 2.53
1 -8 0 44.17 2.47
-1 -8 0 41.62 2.56
-1 -8 0 43.88 2.28
-1 -8 0 42.68 2.55
1 -8 0 48.04 2.89
1 -8 1 96.69 3.74
-1 -8 -1 88.24 3.9
-1 -8 -1 99.24 3.99
1 -8 1 96.48 3.73
1 -8 1 98.65 3.87
-1 -8 -1 94.11 3.92
-1 -8 -1 93.12 3.59
1 -8 1 95.3 4.18
1 -8 2 1.9 0.59
-1 -8 -2 1.9 0.68
-1 -8 -2 2.35 0.66
1 -8 2 1.89 0.55
-1 -8 -2 2.57 0.69
1 -8 2 1.59 0.6
-1 -8 -2 2.63 0.66
1 -8 2 1.84 0.66
-1 -8 -3 6.09 1.01
1 -8 3 7.12 1
1 -8 3 4.79 0.93
-1 -8 -3 5.7 0.94
1 -8 3 5.68 0.81
-1 -8 -3 4.08 0.89
1 -8 3 7.44 1.03
-1 -8 -3 6.37 0.96
-1 -8 -4 15.2 1.33
-1 -8 -4 16.77 1.65
-1 -8 -4 16.71 1.59
-1 -8 -4 18.99 1.56
1 -8 4 16.19 1.51
1 -8 4 17.42 1.53
-1 -8 -4 15.92 1.52
1 -8 5 7.97 1.04
-1 -8 -5 7.29 1
-1 -8 -5 7.13 0.98
-1 -8 -5 6.99 1.12
-1 -8 -5 10.67 1.31
-1 -8 -5 8.01 0.98
1 -8 5 9.3 1.1
-1 -8 -6 76.09 3.47
-1 -8 -6 74.65 3.59
1 -8 6 68.41 3.07
-1 -8 -6 75.33 3.17
-1 -8 -7 4.64 0.88
-1 -8 -7 5.86 1.01
1 -8 7 4.39 0.78
-1 -8 -7 4.84 0.82
-1 -8 -8 94.62 3.53
-1 -8 -8 88 3.46
-1 -8 -8 93.44 3.67
1 -8 8 91.34 3.26
-1 -8 -8 82.11 3.19
-1 -8 -9 37.3 1.9
-1 -8 -9 31.27 1.55
-1 -8 -9 37.75 1.97
-1 -8 -9 35.34 1.73
1 -8 9 34.5 1.69
-1 -8 -10 2 0.38
1 -7 -11 98.47 3.08
-1 -7 11 95.58 2.72
-1 -7 10 60.14 2.45
-1 -7 9 150.84 4.71
1 -7 -8 67.5 3.21
-1 -7 8 58.21 2.91
1 -7 -8 63.95 2.43
1 -7 -8 62.16 3.01
1 -7 -7 191.96 6.01
1 -7 -7 202.29 5.34
1 -7 -6 259.1 6.87
-1 -7 6 236.19 7.01
-1 -7 6 226.87 6.45
1 -7 -6 241.65 6.77
1 -7 -6 250.32 6.56
1 -7 -6 244.27 7.07
1 -7 -6 259.31 6.38
1 -7 -5 507.8 10.48
1 -7 -5 526.51 10.86
-1 -7 5 496.9 11.25
1 -7 -5 458.12 10.53
-1 -7 5 445.07 10.5
1 -7 -5 488.36 11.18
1 -7 -5 502.45 10.5
-1 -7 5 453.55 11.13
-1 -7 4 120.4 4.47
-1 -7 4 106.06 3.99
1 -7 -4 116.56 3.94
1 -7 -4 116.86 4.35
1 -7 -4 109.75 3.78
-1 -7 4 117.12 4.49
1 -7 -4 105.11 3.78
-1 -7 3 67.23 3.22
-1 -7 3 61.09 2.89
1 -7 -3 63.3 2.66
1 -7 -3 63.04 3.03
1 -7 -3 67.73 2.79
1 -7 -3 67.35 2.86
-1 -7 3 60.29 3.08
-1 -7 2 173.63 5.62
-1 -7 2 185.48 5.5
1 -7 -2 183.78 4.82
-1 -7 2 174.67 4.88
1 -7 -2 177.44 5.01
-1 -7 2 192.11 5.78
-1 -7 1 1.15 0.52
-1 -7 1 1.18 0.45
1 -7 -1 1.72 0.46
1 -7 -1 1.28 0.49
1 -7 -1 1.37 0.51
-1 -7 1 1.64 0.54
-1 -7 1 2.46 0.54
-1 -7 0 54.23 2.89
1 -7 0 58.94 2.69
1 -7 0 58.62 2.71
1 -7 0 61.25 2.57
-1 -7 0 67.27 2.91
1 -7 0 61.5 2.74
-1 -7 0 52.85 2.72
-1 -7 0 60.96 2.91
-1 -7 0 65.61 2.77
1 -7 1 36.43 2.11
-1 -7 -1 34.69 2.27
-1 -7 -1 35.6 2.2
1 -7 1 35.71 1.94
1 -7 1 37.45 2.08
1 -7 1 39.65 2.16
-1 -7 -1 37.76 2.21
1 -7 1 42.79 2.55
-1 -7 -1 39.47 2.36
-1 -7 -1 38.25 2.16
1 -7 2 178.98 5.4
-1 -7 -2 195.37 6
1 -7 2 172.97 5.77
-1 -7 -2 192.31 5.61
-1 -7 -2 205.95 6.07
1 -7 2 191.29 5.48
-1 -7 -2 191.35 5.59
1 -7 3 406.91 9.38
-1 -7 -3 386.55 9.71
-1 -7 -3 409.88 9
-1 -7 -3 426.21 10.08
-1 -7 -3 421.82 9.73
1 -7 3 419.59 10.02
-1 -7 -3 400.52 9.92
-1 -7 -3 401.78 9.25
1 -7 3 390.52 9.25
-1 -7 -4 46.32 2.44
-1 -7 -4 51.79 3.01
1 -7 4 45.79 2.72
-1 -7 -4 45.31 2.65
-1 -7 -4 53 2.83
1 -7 4 48.23 2.56
-1 -7 -4 44.05 2.33
1 -7 4 48.04 2.51
-1 -7 -5 141.01 4.91
1 -7 5 143.09 4.79
-1 -7 -5 156.29 5.02
-1 -7 -5 138.18 5.37
-1 -7 -5 147.17 5.23
1 -7 5 139.28 5.11
-1 -7 -5 143.71 5.31
-1 -7 -5 140.76 4.41
-1 -7 -6 257.44 7.5
1 -7 6 234.64 7.09
-1 -7 -6 245.8 7.68
-1 -7 -6 233.75 6.62
1 -7 6 247.16 6.82
-1 -7 -6 264.7 7.21
-1 -7 -7 17.41 1.72
-1 -7 -7 12.51 1.59
1 -7 7 12.55 1.33
-1 -7 -7 14.38 1.5
-1 -7 -8 3.32 0.85
-1 -7 -8 3.04 0.87
1 -7 8 2.55 0.7
-1 -7 -8 2.89 0.75
-1 -7 -9 0.51 0.51
-1 -7 -9 0.7 0.52
-1 -7 -9 0.87 0.41
-1 -7 -9 1.43 0.58
1 -7 9 1.7 0.54
-1 -7 -10 11.33 1.16
-1 -7 -10 9.19 1
1 -7 10 11.09 0.98
1 -6 -12 17.63 1.14
1 -6 -12 17.49 1.21
1 -6 -11 84.19 3.18
-1 -6 11 84.56 2.85
1 -6 -10 0.36 0.42
-1 -6 10 0.35 0.38
1 -6 -9 45.82 2.65
-1 -6 9 46.96 2.52
1 -6 -8 57.83 3.12
-1 -6 8 56.18 2.89
1 -6 -8 56.4 2.33
1 -6 -7 17.42 1.59
-1 -6 7 15.26 1.5
1 -6 -7 15.28 1.56
1 -6 -7 14.12 1.45
1 -6 -7 15.39 1.21
1 -6 -6 0.33 0.42
-1 -6 6 0.56 0.47
1 -6 -6 0.18 0.3
1 -6 -6 0.91 0.49
1 -6 -5 1155.56 19.7
-1 -6 5 1040.37 20.06
1 -6 -5 924.99 19.14
1 -6 -5 1068.86 19.74
1 -6 -5 1075.22 19.36
1 -6 -5 1003.04 18.71
-1 -6 4 718.06 13.5
1 -6 -4 600.62 12.46
-1 -6 4 605.62 12.64
1 -6 -4 673.25 12.73
1 -6 -4 605.93 12.59
1 -6 -4 631.68 12.97
-1 -6 4 669.09 13.54
1 -6 -4 599.79 12.22
-1 -6 3 214.13 6.18
1 -6 -3 247.76 6.77
-1 -6 3 218.62 5.91
1 -6 -3 242.38 5.86
1 -6 -3 237.63 6.02
-1 -6 3 239.68 5.38
1 -6 -3 242.76 6.31
1 -6 -3 219.34 5.65
-1 -6 3 238.06 6.42
-1 -6 2 17.78 1.49
1 -6 -2 19.63 1.6
-1 -6 2 19.67 1.35
-1 -6 2 20.17 1.47
1 -6 -2 18.29 1.25
-1 -6 2 17.83 1.23
1 -6 -2 23.64 1.52
1 -6 -2 23.02 1.56
-1 -6 2 19.39 1.52
-1 -6 1 318.63 7.87
-1 -6 1 327 7.32
-1 -6 1 329.22 7.62
1 -6 -1 326.04 6.92
1 -6 -1 325.36 7.4
-1 -6 1 336.7 7.3
1 -6 -1 310.45 7.14
-1 -6 0 233.4 6.39
1 -6 0 240.98 5.93
1 -6 0 257.92 6.12
-1 -6 0 253.88 6.1
-1 -6 0 244.31 6.22
1 -6 0 220.06 5.7
-1 -6 0 242.55 6.25
-1 -6 0 260.8 6.12
1 -6 1 1423.86 24.74
-1 -6 -1 1494.61 25.56
-1 -6 -1 1508.29 25.16
1 -6 1 1441.55 24.81
-1 -6 -1 1341.48 24.67
1 -6 1 1370.79 24.49
-1 -6 -1 1362.9 24.76
-1 -6 -1 1427.06 25.14
-1 -6 -2 202.64 5.77
1 -6 2 198.01 5.33
-1 -6 -2 192.18 5.41
-1 -6 -2 192.36 5.56
1 -6 2 182.53 5.19
1 -6 2 210.74 5.34
-1 -6 -2 204.04 5.36
1 -6 3 135.8 4.31
-1 -6 -3 138.64 4.69
-1 -6 -3 136.91 4.49
-1 -6 -3 140.06 4.19
1 -6 3 139.09 4.25
-1 -6 -3 139.08 4.16
1 -6 3 127.94 4.1
-1 -6 -4 103.96 4
-1 -6 -4 108.69 4.08
-1 -6 -4 110.31 3.86
-1 -6 -4 106.04 4.15
1 -6 4 100.03 3.62
1 -6 4 100.6 3.59
-1 -6 -4 102.74 3.49
-1 -6 -5 9.04 1.16
-1 -6 -5 9.47 1.21
-1 -6 -5 10.1 1.18
1 -6 5 7.61 0.98
-1 -6 -5 8.81 1.21
-1 -6 -5 7.74 0.89
-1 -6 -6 12.76 1.38
-1 -6 -6 7.68 1.17
-1 -6 -6 10.33 1.21
-1 -6 -6 10.33 1.34
-1 -6 -7 2.32 0.76
-1 -6 -7 2.34 0.77
-1 -6 -8 57.9 3.16
-1 -6 -8 58.11 3.28
-1 -6 -9 234.89 6.64
-1 -6 -9 275.72 7.66
-1 -6 -10 25.29 1.92
-1 -6 -11 3.42 0.67
-1 -6 -11 4.25 0.71
-1 -5 12 65.17 2.22
1 -5 -12 77.67 2.81
-1 -5 11 -0.09 0.3
1 -5 -11 3.49 0.73
-1 -5 10 6.62 0.93
1 -5 -10 6.21 1.01
1 -5 -9 163.55 5.83
-1 -5 9 171.72 5.31
1 -5 -9 162.26 5.47
1 -5 -8 82.19 3.6
-1 -5 8 90.39 3.68
1 -5 -8 87.83 3.97
-1 -5 8 80.63 3.39
1 -5 -8 88.81 2.94
1 -5 -7 67.34 3.24
1 -5 -7 64.17 2.48
1 -5 -7 63.32 2.97
-1 -5 7 61.42 2.84
1 -5 -7 68.04 3.02
1 -5 -7 57.86 2.87
-1 -5 6 274.95 7.43
1 -5 -6 298.51 7.52
-1 -5 6 298.04 7.15
1 -5 -6 294.79 7.23
1 -5 -6 272.63 7.1
1 -5 -6 298.59 6.67
1 -5 -5 502.6 10.05
1 -5 -5 511.11 10.64
-1 -5 5 546.58 11.01
1 -5 -5 468.73 10.56
-1 -5 5 545.09 10.69
1 -5 -5 549.82 10.86
1 -5 -5 499.89 10.64
-1 -5 5 475.96 10.99
1 -5 -4 1416.44 23.55
1 -5 -4 1314.61 23.51
-1 -5 4 1379.18 23.43
1 -5 -4 1393.11 23.6
1 -5 -4 1313.54 22.94
-1 -5 4 1416 24.14
1 -5 -3 1.58 0.42
-1 -5 3 1.66 0.32
1 -5 -3 1.1 0.4
1 -5 -3 1.75 0.45
1 -5 -3 1.5 0.45
1 -5 -2 130.05 3.76
-1 -5 2 124.01 3.28
1 -5 -2 119.27 3.91
-1 -5 2 127.02 3.68
1 -5 -1 1.66 0.44
-1 -5 1 1.9 0.46
1 -5 -1 1.29 0.42
-1 -5 0 328.71 7.17
1 -5 0 352.44 7.56
1 -5 0 357.62 7.8
-1 -5 0 344.01 7.44
1 -5 1 725.9 13.65
-1 -5 -1 734.14 12.27
-1 -5 -1 744.84 13.66
-1 -5 -1 713.38 13.66
-1 -5 -2 175.26 4.89
1 -5 2 187.51 4.91
-1 -5 -2 192.7 4.06
-1 -5 -2 188.33 5.13
-1 -5 -2 180.65 4.86
-1 -5 -2 201.15 5.19
-1 -5 -3 1230.93 22.17
-1 -5 -3 1272.62 22.85
-1 -5 -3 1232.21 22.54
-1 -5 -4 19.54 1.42
1 -5 4 18.31 1.42
-1 -5 -4 17.64 1.47
-1 -5 -4 16.76 1.42
-1 -5 -4 20.36 1.53
-1 -5 -5 28.71 1.88
1 -5 5 31.7 1.97
-1 -5 -5 32.01 2.07
-1 -5 -5 28.73 1.93
-1 -5 -5 28.74 1.97
-1 -5 -6 45.06 2.52
-1 -5 -6 40.5 2.48
-1 -5 -6 42.99 2.4
-1 -5 -6 44.1 2.6
-1 -5 -7 305.46 8.53
-1 -5 -7 372.49 9.32
-1 -5 -8 188.46 6.37
-1 -5 -9 24.69 1.83
-1 -5 -9 30.65 2.31
-1 -5 -10 13.32 1.58
-1 -5 -10 13.87 1.5
-1 -5 -11 5.11 0.91
-1 -5 -11 5.05 0.92
-1 -5 -12 7.22 0.77
1 -5 12 7.01 0.7
-1 -5 -12 7.76 0.86
1 -4 -13 5.16 0.59
-1 -4 12 15.69 1.06
1 -4 -12 16.1 1.3
-1 -4 12 15.54 1.15
1 -4 -12 -0.04 0.11
1 -4 -12 16.19 1.24
1 -4 -12 0.04 0.12
-1 -4 11 70.78 2.85
1 -4 -11 71.21 3.2
-1 -4 11 61.34 2.91
-1 -4 11 66.29 2.96
1 -4 -11 69.33 2.96
1 -4 -11 75.38 3.22
1 -4 -11 68.33 2.84
-1 -4 10 139.88 4.97
1 -4 -10 165.17 5.32
1 -4 -10 159.59 4.92
1 -4 -10 151.87 5
1 -4 -10 172.41 5.36
1 -4 -9 3.59 0.76
1 -4 -9 5.5 0.93
1 -4 -9 4.44 0.81
1 -4 -9 4.99 1.07
1 -4 -9 5.21 0.85
-1 -4 9 4.17 0.81
1 -4 -9 3.18 0.73
1 -4 -8 23.48 1.97
1 -4 -8 25.07 1.68
1 -4 -8 24.09 1.72
1 -4 -8 24.4 1.73
1 -4 -8 23.31 1.77
1 -4 -8 22.48 1.69
1 -4 -8 24.1 1.76
1 -4 -7 7.52 0.96
1 -4 -7 6.7 0.83
1 -4 -7 5.93 0.7
1 -4 -7 6.13 0.8
1 -4 -7 6.47 0.98
1 -4 -7 7.49 0.86
-1 -4 7 7.17 0.92
1 -4 -7 6.19 0.91
1 -4 -7 5.36 0.78
1 -4 -7 7.37 0.91
1 -4 -6 45.73 2.25
-1 -4 6 50.14 2.3
1 -4 -6 45.21 2.39
1 -4 -6 53.61 2.16
1 -4 -6 51.46 2.15
1 -4 -6 50.62 2.26
1 -4 -6 52.07 2.4
1 -4 -6 52.18 2.16
1 -4 -5 39.09 1.98
1 -4 -5 41.87 1.92
-1 -4 5 35.15 1.78
1 -4 -5 38.8 1.93
1 -4 -5 39.4 1.67
1 -4 -5 37.76 1.59
1 -4 -5 42.55 1.71
1 -4 -4 4346 66.53
1 -4 -4 4490.85 66.64
1 -4 -4 4411.25 67.48
-1 -4 4 4454.16 67.47
-1 -4 4 4324.86 66.1
1 -4 -4 4380.89 66.6
1 -4 -3 1742.69 27.95
1 -4 -3 1728.38 26.25
-1 -4 3 1466.06 26.33
1 -4 -3 1757.58 27.38
-1 -4 3 1550.13 26.41
1 -4 -3 1779.73 27.64
-1 -4 3 1657.32 27.31
-1 -4 3 1586.24 26.17
1 -4 -2 330.94 6.85
-1 -4 2 296.91 5.38
-1 -4 2 308.11 5.95
1 -4 -2 348.26 6.77
-1 -4 2 299.15 5.28
-1 -4 1 601.91 10.23
1 -4 -1 684.81 11.93
-1 -4 1 695.65 11.37
-1 -4 1 634.64 11.48
1 -4 -1 700.5 12.04
-1 -4 0 939.65 15.48
1 -4 0 826.92 15.63
-1 -4 0 866.17 14.35
-1 -4 0 933.76 15.6
1 -4 0 948.25 15.97
-1 -4 -1 213.07 4.18
-1 -4 -1 219.71 4.98
-1 -4 -2 141.06 3.02
-1 -4 -2 131.39 3.04
-1 -4 -3 1258.49 20.64
-1 -4 -3 1190.78 21.56
1 -4 3 1272.27 20.47
-1 -4 -3 1214.8 20.65
-1 -4 -4 220.01 5.66
-1 -4 -4 248.31 5.33
-1 -4 -4 230.63 5.27
-1 -4 -4 264.63 6.12
1 -4 4 242.93 5.07
-1 -4 -4 257.32 6.14
-1 -4 -4 235.22 5.36
-1 -4 -5 140.31 4.36
-1 -4 -5 142.24 4.34
-1 -4 -5 150.7 4.58
1 -4 5 146.91 3.68
-1 -4 -5 135.68 4.04
-1 -4 -5 127.77 4.29
-1 -4 -5 144.9 3.98
-1 -4 -5 137.55 3.92
-1 -4 -6 153.5 4.48
-1 -4 -6 141.87 4.42
-1 -4 -6 147.41 4.75
-1 -4 -6 157.78 5.05
1 -4 6 157.04 4.15
-1 -4 -6 161.25 4.68
-1 -4 -6 147.55 4.39
-1 -4 -7 317.38 7.62
1 -4 7 313.1 7.12
-1 -4 -7 299.53 7.39
-1 -4 -7 316.22 8.1
-1 -4 -7 294.16 7.68
-1 -4 -7 325.86 7.76
-1 -4 -7 288.93 7.51
-1 -4 -8 19.4 1.65
-1 -4 -8 20.96 1.66
-1 -4 -8 23.62 1.96
-1 -4 -8 22.52 1.87
-1 -4 -8 23.77 1.83
-1 -4 -9 0.8 0.55
-1 -4 -9 1.71 0.58
-1 -4 -9 0.17 0.51
-1 -4 -9 1.35 0.59
-1 -4 -9 1.24 0.51
-1 -4 -10 0.16 0.53
-1 -4 -10 0.17 0.43
-1 -4 -10 0.36 0.38
-1 -4 -10 0.5 0.57
-1 -4 -10 0.14 0.41
-1 -4 -10 0.06 0.35
-1 -4 -11 77 3.45
-1 -4 -11 80.88 3.56
-1 -4 -11 68.88 2.85
-1 -4 -11 73.06 3.19
-1 -4 -11 74.22 3.01
-1 -4 -12 7.48 0.86
-1 -4 -12 8.53 0.97
1 -3 -13 56 2.11
1 -3 -13 52.33 1.98
1 -3 -13 54.01 2.22
-1 -3 13 52.47 2.06
1 -3 -12 136.53 4.02
1 -3 -12 150.04 4.29
1 -3 -12 141 3.92
-1 -3 12 132.62 4.19
1 -3 -12 153.39 4.58
1 -3 -11 185.8 5.68
1 -3 -11 178.27 5.73
1 -3 -11 194.72 6.08
1 -3 -11 184.26 5.62
1 -3 -10 157.57 5.14
1 -3 -10 161.09 5.37
1 -3 -10 152.85 5.12
-1 -3 10 153.17 5.14
1 -3 -10 158.4 5.43
1 -3 -10 147.01 5.34
1 -3 -10 151.54 5.28
1 -3 -10 155.56 5.37
-1 -3 9 39.62 2.37
1 -3 -9 44.91 2.48
1 -3 -9 42.12 2.53
1 -3 -9 46.13 2.61
1 -3 -9 45.66 2.48
1 -3 -9 39.2 2.41
1 -3 -9 38.16 2.35
1 -3 -8 429.1 9.46
1 -3 -8 400.25 10.16
-1 -3 8 429.05 9.59
1 -3 -8 422.35 9.68
1 -3 -8 432.45 9.72
1 -3 -8 406.39 9.54
1 -3 -8 420.39 9.53
1 -3 -8 431.66 9.53
1 -3 -7 40.02 2.06
1 -3 -7 36.77 2.01
1 -3 -7 38.2 2.04
1 -3 -7 41.26 2.38
1 -3 -7 40.95 2.04
-1 -3 7 34.95 1.99
1 -3 -7 36.77 1.79
1 -3 -7 41.22 2.07
1 -3 -7 39.41 2.08
1 -3 -6 1107.09 19.84
1 -3 -6 1134.1 19.27
1 -3 -6 1111.41 19.14
1 -3 -6 1065.44 18.88
1 -3 -6 1082.1 19.26
1 -3 -5 155.73 3.89
-1 -3 5 150.26 4.06
1 -3 -5 159.08 3.88
1 -3 -4 211.09 4.57
1 -3 -4 185.9 4.66
-1 -3 4 195.79 3.6
-1 -3 4 217.35 4.77
1 -3 -4 209.7 4.41
-1 -3 3 108.29 2.86
-1 -3 3 100.69 2.22
1 -3 -3 104.17 2.96
1 -3 -3 111.67 3.1
-1 -3 2 239.64 4.97
-1 -3 2 229.11 4.16
1 -3 -2 249.19 5.2
-1 -3 2 246.13 4.49
1 -3 -2 255.82 5.22
-1 -3 2 223.51 4.51
-1 -3 1 6.63 0.49
1 -3 -1 8.66 0.7
-1 -3 1 7.25 0.26
1 -3 -1 8.36 0.66
-1 -3 1 7.34 0.55
-1 -3 1 6.9 0.4
-1 -3 1 7 0.39
-1 -3 0 87.4 2.22
1 -3 0 86.3 2.44
-1 -3 0 80.96 1.62
-1 -3 0 92.02 2.28
-1 -3 0 80.92 1.7
-1 -3 -1 1227.46 20.09
-1 -3 -1 1229.97 19.9
1 -3 1 1259.59 20.99
-1 -3 -1 1254.33 20.7
-1 -3 -1 1234.79 19.95
-1 -3 -1 1237.81 20.22
-1 -3 -2 691.41 12.01
-1 -3 -2 672.82 11.94
-1 -3 -2 695.89 11.92
1 -3 2 696.85 11.63
-1 -3 -3 11.5 0.77
-1 -3 -3 10.67 0.87
-1 -3 -3 10.5 0.72
-1 -3 -3 10.48 0.73
1 -3 3 10.28 0.62
-1 -3 -4 1733.37 28.42
-1 -3 -4 1777.24 28.79
-1 -3 -4 1702.54 28.3
-1 -3 -4 1703.4 28.29
1 -3 4 1639.83 27.79
-1 -3 -5 1929.3 33.65
1 -3 5 2037.11 33.1
-1 -3 -5 1966.51 33.88
-1 -3 -5 2065.03 33.66
-1 -3 -5 2062.96 33.71
-1 -3 -6 904.07 17.18
-1 -3 -6 926.11 17.6
1 -3 6 933.17 16.54
-1 -3 -6 881.42 16.97
-1 -3 -6 976.37 17.58
-1 -3 -6 883.42 17.1
-1 -3 -6 947.75 17.29
-1 -3 -6 1000.22 17.57
-1 -3 -7 32.62 2.03
-1 -3 -7 31.88 2.14
-1 -3 -7 29.78 1.89
1 -3 7 31.88 1.77
-1 -3 -7 29.96 2
-1 -3 -7 30.72 2
-1 -3 -7 28.8 1.93
-1 -3 -7 28.21 1.95
-1 -3 -7 28.44 1.99
-1 -3 -8 85.3 3.64
-1 -3 -8 91.46 3.96
-1 -3 -8 83.16 3.53
1 -3 8 80.4 3.21
-1 -3 -8 77.21 3.58
-1 -3 -8 86.18 3.73
-1 -3 -8 85.11 3.72
-1 -3 -8 75.75 3.66
-1 -3 -8 80.11 3.68
-1 -3 -9 6.28 1.04
-1 -3 -9 5.52 1.05
1 -3 9 5.26 0.87
-1 -3 -9 5.16 0.95
-1 -3 -9 5.01 0.97
-1 -3 -9 4.97 0.96
-1 -3 -9 4.56 0.94
-1 -3 -9 5.77 1.08
-1 -3 -9 5.51 1.03
-1 -3 -10 25.87 2.08
-1 -3 -10 28.34 2.27
-1 -3 -10 25.55 2.02
-1 -3 -10 26.86 2.08
-1 -3 -10 25.54 2.16
-1 -3 -11 16.63 1.6
-1 -3 -11 16.25 1.55
-1 -3 -11 16.57 1.53
-1 -3 -11 18.52 1.64
-1 -3 -11 17.34 1.73
-1 -3 -12 49.67 2.44
-1 -3 -12 51.85 2.44
-1 -3 -12 49.27 2.44
-1 -3 -12 51.02 2.64
-1 -3 -12 50.7 2.26
-1 -3 -13 74.39 2.57
-1 -3 -13 69.92 2.34
1 -2 -14 12.35 0.89
-1 -2 14 12.15 0.89
1 -2 -14 13.06 0.99
-1 -2 13 140.56 4.64
1 -2 -13 164.17 4.75
1 -2 -13 159.04 4.62
-1 -2 13 145.88 4.64
1 -2 -13 161.08 4.92
1 -2 -12 6.32 0.98
1 -2 -12 7.3 1.08
-1 -2 12 5.11 0.99
1 -2 -12 7.28 1.12
1 -2 -11 138.18 4.93
1 -2 -11 130.5 4.95
1 -2 -11 122.16 4.29
1 -2 -11 148.75 5.29
-1 -2 10 44.06 2.58
1 -2 -10 45.25 2.64
1 -2 -10 39.39 2.6
1 -2 -10 43.07 2.71
1 -2 -10 41.87 2.36
1 -2 -10 41.97 2.65
1 -2 -10 42.82 2.64
1 -2 -9 250.71 6.91
-1 -2 9 232.61 6.69
1 -2 -9 254.42 7.16
1 -2 -9 261.53 7.22
1 -2 -9 248.6 6.54
1 -2 -9 244.59 7.01
1 -2 -9 263.75 7.14
-1 -2 8 60.93 2.78
1 -2 -8 56.26 3.02
1 -2 -8 56.82 2.69
1 -2 -8 55.89 2.74
1 -2 -8 56.82 2.77
1 -2 -8 65.22 2.93
1 -2 -8 66.15 2.89
1 -2 -8 54.89 2.49
1 -2 -7 4.88 0.85
1 -2 -7 5.03 0.73
-1 -2 7 4.87 0.73
1 -2 -7 4.75 0.71
1 -2 -7 5.74 0.8
1 -2 -7 5.72 0.73
1 -2 -6 810.51 15.2
1 -2 -6 825.81 14.61
1 -2 -6 841.53 15.2
1 -2 -5 381.26 7.24
1 -2 -5 364.96 7.65
-1 -2 5 404.32 7.84
1 -2 -5 389.15 7.64
1 -2 -4 50.57 1.61
1 -2 -4 54.44 1.15
1 -2 -4 51.5 1.85
-1 -2 4 56.07 1.93
-1 -2 3 1704.08 27.37
-1 -2 3 1987.18 28.63
1 -2 -2 8873.45 138.84
-1 -2 1 5726.93 86.44
-1 -2 1 5676.04 86.07
-1 -2 0 79.6 1.92
-1 -2 0 77.77 1.85
-1 -2 0 83.45 1.8
1 -2 1 598.33 9.71
-1 -2 -1 625.91 10.3
-1 -2 -1 608.48 10.08
-1 -2 -1 616.81 10.24
-1 -2 -1 584.18 10.15
-1 -2 -2 119.07 2.67
-1 -2 -2 114.63 2.65
1 -2 2 109.49 2.32
-1 -2 -2 110.2 2.53
-1 -2 -2 110.26 2.78
-1 -2 -3 100.4 2.68
-1 -2 -3 100.44 2.74
-1 -2 -3 107.17 2.68
-1 -2 -3 112.83 2.73
1 -2 3 89.69 2.27
-1 -2 -4 98.44 2.85
-1 -2 -4 85.58 2.72
-1 -2 -4 93.32 2.74
-1 -2 -4 89.94 2.71
1 -2 4 97.85 2.48
-1 -2 -5 183.81 4.76
-1 -2 -5 188.61 4.7
-1 -2 -5 196.37 4.77
-1 -2 -6 137.49 4.22
-1 -2 -6 154.72 4.49
1 -2 6 125.09 3.69
-1 -2 -6 143.15 4.19
-1 -2 -6 146.66 4.28
-1 -2 -6 145.82 4.39
-1 -2 -6 143.75 4.29
-1 -2 -6 134.17 4.18
-1 -2 -7 108.72 4.04
-1 -2 -7 116.92 4.07
-1 -2 -7 127.77 4.34
-1 -2 -7 123.35 4.15
1 -2 7 129.68 3.85
-1 -2 -7 125.09 4.37
-1 -2 -7 123.94 4.33
-1 -2 -7 106.97 4.02
-1 -2 -7 118.75 4.14
-1 -2 -8 175.32 5.56
-1 -2 -8 161.49 5.31
-1 -2 -8 157.05 5.01
1 -2 8 174.27 5.03
-1 -2 -8 158.55 5.4
-1 -2 -8 169.25 5.42
-1 -2 -8 166.19 5.67
-1 -2 -8 165.01 5.65
-1 -2 -8 175.78 5.63
-1 -2 -8 156.46 5.36
-1 -2 -9 58.48 3.2
-1 -2 -9 63.57 3.21
-1 -2 -9 58.08 2.93
-1 -2 -9 66.53 3.34
-1 -2 -9 61.24 3.29
1 -2 9 64.5 2.96
-1 -2 -9 62.87 3.45
-1 -2 -9 58.57 3.32
-1 -2 -9 58.2 3.24
-1 -2 -9 61.06 3.33
-1 -2 -10 24.28 2.08
-1 -2 -10 20.6 1.85
-1 -2 -10 25.61 2.04
-1 -2 -10 24.94 2.07
1 -2 10 21.59 1.75
-1 -2 -10 24.81 2.22
-1 -2 -10 26.03 2.24
-1 -2 -10 22.77 2.06
-1 -2 -10 21.91 2.05
-1 -2 -11 210.34 6.44
-1 -2 -11 223.91 6.25
-1 -2 -11 217.97 7.04
-1 -2 -11 211.84 6.66
-1 -2 -11 221.01 6.74
-1 -2 -12 267.35 6.82
-1 -2 -12 277.2 7.34
-1 -2 -12 283.43 7.39
-1 -2 -12 271.59 7.63
-1 -2 -13 280.41 6.57
-1 -2 -13 274.32 6.87
-1 -2 -13 283.36 6.65
-1 -1 14 4.54 0.69
-1 -1 14 5.95 0.73
1 -1 -14 5.35 0.73
1 -1 -14 6 0.71
1 -1 -14 5.79 0.68
-1 -1 13 8.02 1.16
1 -1 -13 9.19 1.07
1 -1 -13 10.66 1.14
1 -1 -13 8.88 1.14
1 -1 -12 539.68 12.04
1 -1 -12 539.19 12.17
1 -1 -12 530.96 12.53
1 -1 -11 -0.22 0.46
1 -1 -11 0.33 0.53
1 -1 -11 0.08 0.43
-1 -1 10 337.95 8.73
1 -1 -10 346.74 9.01
1 -1 -10 364.93 9.24
1 -1 -10 348.98 9.17
1 -1 -10 375.14 9.46
1 -1 -10 357.31 9.35
1 -1 -10 337.67 8.11
-1 -1 9 350.63 8.58
1 -1 -9 353.94 8.81
1 -1 -9 363.07 9.01
1 -1 -9 372.25 9.01
1 -1 -9 362.25 9.09
1 -1 -9 386.5 9.28
1 -1 -9 336.67 8.01
1 -1 -8 265.65 6.51
-1 -1 8 269.95 6.93
1 -1 -8 320.73 7.42
-1 -1 8 273.22 6.48
1 -1 -8 290.06 7.36
1 -1 -8 290.91 7.35
1 -1 -8 300.18 7.43
1 -1 -8 293.65 7.2
-1 -1 7 419.79 8.89
1 -1 -7 436.65 9.01
1 -1 -6 104.71 3.16
-1 -1 6 111.01 3.3
1 -1 -6 103.42 3.23
1 -1 -5 129.68 2.51
1 -1 -5 124.87 2.8
1 -1 -5 132.12 3.33
1 -1 -4 602.46 10.21
1 -1 -4 577.33 10.76
-1 -1 4 584.86 10.79
1 -1 -3 54.5 1.66
1 -1 -3 57.09 1.37
1 -1 -3 56.02 1.37
-1 -1 3 51.79 1.63
1 -1 -2 1413.53 22.86
-1 -1 2 1412.83 22.8
1 -1 -2 1411.61 22.72
1 -1 -1 1159.49 19.24
1 -1 -1 1195.81 19.02
-1 -1 0 187.1 3.38
-1 -1 0 168.35 3.01
-1 -1 0 191.99 3.36
-1 -1 0 162.54 3.28
1 -1 0 178.57 3.49
-1 -1 0 173.06 3.25
-1 -1 0 176.06 3.48
1 -1 1 3516.27 53.06
-1 -1 -1 3440.35 53.44
-1 -1 -1 3409.22 53.6
-1 -1 -1 3516.68 53.56
-1 -1 -2 1223.97 18.95
-1 -1 -2 1277.03 18.99
1 -1 2 1098.47 18.49
-1 -1 -2 1052.12 18.71
-1 -1 -2 1098.81 18.85
-1 -1 -2 1248.71 19.06
1 -1 3 1498.79 24.78
-1 -1 -3 1469.15 25.14
-1 -1 -3 1599.35 25.24
-1 -1 -3 1604.34 25.32
1 -1 4 3749.87 59.69
-1 -1 -4 3760.62 60.14
-1 -1 -4 3787.58 60.09
-1 -1 -4 3741.34 60.18
1 -1 5 106.09 2.89
-1 -1 -5 106.78 3.22
-1 -1 -5 102.43 3.23
-1 -1 -6 1781.23 28.99
-1 -1 -6 1720.68 28.77
-1 -1 -6 1685.1 28.7
-1 -1 -7 0.51 0.37
-1 -1 -7 1.25 0.49
-1 -1 -7 0.34 0.33
-1 -1 -7 0.87 0.39
-1 -1 -7 0.6 0.36
-1 -1 -7 0.65 0.39
1 -1 7 0.79 0.38
-1 -1 -7 0.98 0.46
-1 -1 -7 0.36 0.32
-1 -1 -8 793.41 15.47
-1 -1 -8 701.53 14.73
-1 -1 -8 677.72 14.59
1 -1 8 793.58 14.63
-1 -1 -8 758.48 15.22
-1 -1 -8 787.34 15.46
-1 -1 -8 753.58 15.38
-1 -1 -8 684.91 15.07
-1 -1 -8 725.28 15.46
-1 -1 -8 745.63 15.57
-1 -1 -9 197.65 6.37
-1 -1 -9 191.25 5.94
-1 -1 -9 176.61 5.8
-1 -1 -9 206.77 6.4
-1 -1 -9 192.36 6.17
1 -1 9 192.23 5.71
-1 -1 -9 181.49 6.24
-1 -1 -9 198.74 6.47
-1 -1 -9 198.77 6.58
-1 -1 -9 184.04 6.39
-1 -1 -10 1.77 0.69
-1 -1 -10 4.82 0.91
-1 -1 -10 4.3 0.99
-1 -1 -10 4.35 0.98
-1 -1 -10 3.12 0.86
1 -1 10 3.28 0.74
-1 -1 -10 2.64 0.86
-1 -1 -10 2.36 0.74
-1 -1 -10 2.42 0.8
-1 -1 -11 3.8 0.79
-1 -1 -11 4.76 1
-1 -1 -11 5.61 1.1
-1 -1 -11 3.59 0.98
-1 -1 -12 0.21 0.53
-1 -1 -12 2.09 0.72
-1 -1 -12 1.6 0.68
-1 -1 -13 7.86 0.95
-1 -1 -13 9.53 1.12
-1 -1 -13 8.21 0.98
-1 -1 -14 12.42 0.92
-1 0 14 0.25 0.34
-1 0 14 0.04 0.32
1 0 -14 -0.13 0.37
1 0 -14 0.04 0.26
1 0 -14 0.38 0.29
-1 0 13 153.18 5.28
1 0 -13 165.95 5.03
1 0 -13 166.35 5.08
1 0 -13 160.95 5.22
1 0 -12 0.41 0.42
1 0 -12 -0.08 0.63
1 0 -12 0.14 0.5
1 0 -11 237.63 7.03
1 0 -11 236.45 7.13
1 0 -11 237.41 7.16
1 0 -11 239.61 7.3
1 0 -11 214.97 7.05
1 0 -10 -0.07 0.45
-1 0 10 0.35 0.33
1 0 -10 0.38 0.42
1 0 -10 0.08 0.32
1 0 -10 0.08 0.44
1 0 -10 0.16 0.5
1 0 -9 272.41 7.18
-1 0 9 270.16 6.5
1 0 -9 255.29 7.15
1 0 -9 251.57 7.03
1 0 -9 250.66 7.16
1 0 -9 252.47 7.16
1 0 -8 27.53 1.74
-1 0 8 0.09 0.25
1 0 -8 18.6 1.49
1 0 -8 14.71 1.33
1 0 -8 0.71 0.43
1 0 -8 1.7 0.5
1 0 -7 2304.59 37.7
1 0 -7 2350.26 39.42
1 0 -6 0.79 0.2
1 0 -6 0.07 0.25
1 0 -5 14.7 0.7
1 0 -4 0.05 0.16
1 0 -4 0.16 0.12
1 0 -3 2561.89 40.26
1 0 -3 2555.31 40.88
-1 0 3 2525.27 40.97
1 0 -2 0.32 0.14
-1 0 2 0.14 0.15
1 0 -1 3124.99 50.91
-1 0 1 3238 50.86
-1 0 0 0.24 0.14
-1 0 0 0.18 0.16
-1 0 0 0.37 0.14
-1 0 0 0.01 0.11
-1 0 -1 4424.89 67.62
-1 0 -1 4281.76 67.61
-1 0 -1 4382.73 67.68
-1 0 -1 4164.18 67.52
-1 0 -2 0.1 0.19
-1 0 -2 0.08 0.17
1 0 2 0.17 0.07
-1 0 -2 0.07 0.18
-1 0 -2 0.01 0.17
-1 0 -3 16.2 0.88
-1 0 -3 14.87 0.85
1 0 3 14.92 0.49
-1 0 -3 15.97 0.9
-1 0 -3 14.89 0.82
-1 0 -4 0.29 0.25
1 0 4 0.77 0.27
1 0 4 0.19 0.09
-1 0 -4 0.87 0.29
-1 0 -4 0.14 0.23
-1 0 -5 349.83 7.47
-1 0 -5 355.98 7.47
-1 0 -5 344.55 7.39
1 0 5 350.65 7.13
1 0 6 0.18 0.29
-1 0 -6 0.27 0.32
-1 0 -6 0.6 0.34
-1 0 -7 241.03 6.56
-1 0 -7 256.01 6.31
-1 0 -7 230.96 6.07
-1 0 -7 265.08 6.6
1 0 7 240.19 6.04
-1 0 -7 263.58 6.64
-1 0 -7 242.38 6.64
-1 0 -7 258.92 6.82
-1 0 -7 236.37 6.48
-1 0 -7 272.42 6.73
-1 0 -8 -0.07 0.38
-1 0 -8 0.14 0.36
-1 0 -8 -0.07 0.34
-1 0 -8 -0.06 0.32
-1 0 -8 0.26 0.43
1 0 8 0.27 0.3
-1 0 -8 0.22 0.39
-1 0 -8 0.07 0.37
-1 0 -8 0.18 0.32
-1 0 -9 1195.17 22.93
-1 0 -9 1211.04 22.14
-1 0 -9 1143.24 22.42
-1 0 -9 1289 23.13
1 0 9 1163.51 21.93
-1 0 -9 1154.02 23.02
-1 0 -9 1097.75 22.95
-1 0 -9 1261.78 23.1
-1 0 -9 1161.22 22.89
-1 0 -10 0.36 0.46
-1 0 -10 0.09 0.47
-1 0 -10 0.42 0.47
-1 0 -10 -0.06 0.36
-1 0 -10 0.17 0.49
1 0 10 -0.13 0.35
-1 0 -10 0.19 0.54
-1 0 -10 0.08 0.46
-1 0 -10 0.19 0.45
-1 0 -11 2206.34 39.03
-1 0 -11 2230.25 39.52
-1 0 -11 2251.89 39.53
-1 0 -11 2207.22 40.06
-1 0 -12 0.49 0.5
-1 0 -12 0.78 0.57
-1 0 -12 0.73 0.58
-1 0 -13 14.48 1.31
-1 0 -13 14.77 1.4
-1 0 -13 17.12 1.39
-1 0 -14 0.03 0.24
-1 1 14 4.47 0.68
1 1 -14 5.29 0.66
1 1 -14 6.13 0.69
1 1 -14 5.53 0.73
-1 1 14 6.44 0.77
1 1 -13 8.53 1.02
1 1 -13 10.69 1.13
1 1 -13 8.09 1.1
-1 1 13 10.13 1.26
1 1 -12 547.57 12.56
1 1 -12 558.91 12.36
1 1 -12 560.12 12.25
-1 1 11 0.05 0.28
1 1 -11 -0.07 0.47
1 1 -11 0.08 0.49
1 1 -11 0.23 0.49
1 1 -10 381.71 9.47
1 1 -10 360.39 9.23
-1 1 10 346.4 8.88
1 1 -10 341.92 9
-1 1 10 374.75 8.51
1 1 -10 356.04 9.39
1 1 -10 381.16 9.64
1 1 -9 369.68 8.74
1 1 -9 351.35 8.72
-1 1 9 340.37 8.3
1 1 -9 366.75 8.68
-1 1 9 330.95 8.02
1 1 -9 340.77 8.71
1 1 -9 349.76 8.76
-1 1 8 262.67 6.63
1 1 -8 239.89 6.73
-1 1 8 287.04 6.93
1 1 -8 293.28 7.15
1 1 -8 267.88 7.04
1 1 -8 280.16 7.13
1 1 -8 277.54 5.95
1 1 -8 275.2 7.09
1 1 -8 304.31 7.16
1 1 -7 384 8.45
-1 1 7 364.11 8.19
1 1 -7 381.4 7.48
1 1 -7 392.39 8.44
1 1 -6 107.22 2.74
-1 1 6 103.66 3.12
1 1 -6 106.37 3.2
1 1 -5 132.4 2.83
1 1 -5 142.05 3.15
-1 1 5 135.15 3.4
-1 1 4 630.94 10.89
1 1 -4 606.88 10.2
-1 1 4 616.77 10.67
1 1 -3 55.66 1.54
-1 1 3 56.21 1.7
-1 1 3 55.62 1.55
1 1 -2 1392.97 22.62
-1 1 2 1426.08 22.51
-1 1 2 1475.88 23.19
-1 1 2 1468 22.8
-1 1 1 1269.81 19.84
1 1 -1 1217.66 20
1 1 -1 1241.28 19.43
-1 1 1 1249.47 19.57
-1 1 1 1232.66 20.05
-1 1 0 174.61 3.39
1 1 0 183.14 3.4
-1 1 0 171 3.42
-1 1 0 177.11 3.27
-1 1 0 196.34 3.56
-1 1 0 165.21 3.31
-1 1 0 183.18 3.37
-1 1 -1 3540.61 56.23
-1 1 -1 3503.94 56.21
-1 1 -1 3448.34 56.41
-1 1 -1 3550.23 56.13
-1 1 -2 1108.46 18.64
1 1 2 1108.37 18.23
-1 1 -2 1143.02 18.72
-1 1 -2 1137.76 18.54
-1 1 -3 1483.57 24.04
-1 1 -3 1345.47 23.8
-1 1 -3 1429.56 23.88
-1 1 -3 1301.62 23.93
-1 1 -4 3933.05 61.96
-1 1 -4 3841.83 61.99
1 1 4 3950.98 61.01
-1 1 -4 3882.34 61.83
1 1 5 111.65 3.2
-1 1 -5 106.55 3.31
1 1 5 100.09 2.51
-1 1 -5 94.6 3.09
-1 1 -5 109.6 3.26
1 1 6 1578.21 27.54
-1 1 -6 1631.83 27.94
-1 1 -7 0.63 0.43
-1 1 -7 0.68 0.42
-1 1 -7 0.39 0.35
-1 1 -7 0.49 0.36
1 1 7 0.67 0.38
-1 1 -7 0.18 0.32
-1 1 -7 0.66 0.41
-1 1 -8 677.36 14.06
-1 1 -8 658.93 13.86
-1 1 -8 712.11 14.67
-1 1 -8 718.07 14.6
-1 1 -8 725.85 14.78
-1 1 -8 687.33 14.67
-1 1 -8 698.24 14.86
-1 1 -8 671.68 14.78
-1 1 -9 185.69 5.82
1 1 9 187.34 5.63
-1 1 -9 178.37 5.92
-1 1 -9 180.29 6.09
-1 1 -9 186.26 6.18
-1 1 -9 177.19 6.02
-1 1 -9 180.44 6.24
-1 1 -9 176.07 6.16
-1 1 -10 3.06 0.82
-1 1 -10 2.44 0.81
-1 1 -10 2.9 0.85
-1 1 -10 3.05 0.83
1 1 10 3.17 0.76
-1 1 -10 4.39 1.01
-1 1 -10 3 0.82
-1 1 -10 3.71 0.96
-1 1 -11 3.65 0.91
-1 1 -11 3.7 1
-1 1 -11 4.32 0.94
-1 1 -11 4.39 0.96
-1 1 -12 1.09 0.65
-1 1 -12 0.95 0.54
-1 1 -12 0.04 0.11
-1 1 -12 0.14 0.43
-1 1 -13 9.27 1.09
-1 1 -13 8.71 0.98
-1 1 -13 7.8 0.97
-1 1 -14 12.45 0.9
1 2 -14 10.95 0.88
-1 2 14 13.06 0.97
1 2 -13 153.78 4.57
1 2 -13 161.56 4.64
1 2 -13 157.42 4.82
-1 2 13 152.45 4.87
1 2 -12 5.57 0.91
1 2 -12 8.11 1.11
1 2 -12 8.01 1.15
-1 2 12 6.54 1.14
-1 2 11 137.75 4.35
1 2 -11 133.16 4.79
1 2 -11 138.1 5.08
1 2 -11 125.19 4.77
1 2 -10 40.66 2.55
1 2 -10 45.51 2.67
1 2 -10 42.81 2.54
-1 2 10 42.82 2.5
-1 2 10 46.45 2.46
1 2 -10 47.5 2.8
1 2 -10 43.4 2.69
1 2 -9 236.58 6.65
1 2 -9 242.81 6.78
1 2 -9 250.98 6.77
-1 2 9 248.82 6.56
-1 2 9 248.02 6.56
1 2 -9 230.97 6.72
1 2 -9 239.61 6.88
-1 2 8 55.6 2.63
1 2 -8 56.5 2.7
1 2 -8 59.63 2.7
1 2 -8 61.05 2.74
-1 2 8 52.24 2.49
1 2 -8 55.18 2.26
1 2 -8 56.47 2.72
1 2 -8 54.74 2.7
-1 2 7 4.38 0.73
1 2 -7 3.84 0.65
1 2 -7 4.45 0.71
-1 2 7 6.49 0.8
1 2 -7 5.8 0.76
-1 2 7 4.72 0.67
1 2 -7 5.48 0.64
1 2 -7 4.93 0.72
1 2 -7 5.46 0.75
1 2 -6 830.91 14.9
1 2 -6 886.65 15.2
-1 2 6 853.08 15.63
-1 2 6 858.15 15.48
1 2 -6 900.03 15.63
1 2 -5 364.94 7.13
1 2 -5 378.8 7.27
-1 2 5 390.53 7.69
-1 2 5 366.82 7.36
1 2 -5 368.42 7.43
1 2 -4 52.79 1.76
-1 2 4 55.61 2
-1 2 4 56.26 1.81
-1 2 3 1822.15 29.58
-1 2 3 1870.39 30.6
-1 2 2 9999 152.01
-1 2 2 9561.42 151.39
-1 2 1 5748.66 94.07
1 2 -1 6084.52 93.94
-1 2 1 5863.24 93.93
-1 2 1 6205.03 93.74
1 2 0 90.77 1.98
-1 2 0 87.69 2.05
-1 2 0 89.12 2.22
-1 2 0 82.79 1.84
-1 2 0 81.49 1.82
-1 2 -1 615.65 10.42
-1 2 -1 660.4 10.93
1 2 1 596.41 10.18
-1 2 -1 615.8 10.25
-1 2 -1 642.76 10.5
-1 2 -1 603.02 10.26
-1 2 -2 104.18 2.58
-1 2 -2 107.36 2.6
1 2 2 118.98 2.58
-1 2 -2 104.72 2.03
1 2 2 113.02 2.14
-1 2 -2 111.79 2.66
-1 2 -2 108.09 2.47
-1 2 -3 101.7 2.72
-1 2 -3 102.72 2.67
-1 2 -3 98.75 2.63
-1 2 -3 91.24 2.82
1 2 3 97.02 1.74
1 2 3 103.95 2.47
-1 2 -3 110.28 2.81
-1 2 -4 97.13 2.86
-1 2 -4 94.03 2.78
-1 2 -4 90.98 2.74
-1 2 -4 96.3 3.02
1 2 4 89.93 2.47
-1 2 -5 176.13 4.64
1 2 5 184.53 4.17
-1 2 -5 178.95 4.76
-1 2 -5 172.58 4.55
-1 2 -5 168.83 4.51
-1 2 -6 135.72 4.18
-1 2 -6 142.46 4.28
-1 2 -6 141.37 4.28
-1 2 -6 143.01 4.22
1 2 6 151.62 4.34
1 2 6 138.36 3.67
-1 2 -6 139.16 4.32
-1 2 -7 116.95 4.08
1 2 7 112.68 3.88
-1 2 -7 114.99 3.99
-1 2 -7 123.57 3.9
-1 2 -7 111.65 3.69
-1 2 -7 111.87 4.1
-1 2 -7 110.6 4.13
-1 2 -7 106.25 3.94
-1 2 -7 110.87 4.02
-1 2 -8 174.55 5.48
-1 2 -8 172.48 5.41
1 2 8 172.5 5.24
-1 2 -8 157.31 4.95
-1 2 -8 148.44 4.91
-1 2 -8 162.32 5.52
-1 2 -8 167.68 5.59
-1 2 -8 150.28 5.18
-1 2 -8 172.83 5.54
-1 2 -9 58.02 3.13
-1 2 -9 58.35 3.12
1 2 9 62.73 3.07
-1 2 -9 57.12 2.93
-1 2 -9 59.76 3.06
-1 2 -9 55.33 3.22
-1 2 -9 55.56 3.19
-1 2 -9 59.26 3.23
-1 2 -9 62.9 3.31
-1 2 -10 23.38 1.99
-1 2 -10 23.13 1.99
1 2 10 22.42 1.84
-1 2 -10 25.68 2.07
-1 2 -10 23.65 2.13
-1 2 -10 22.53 2.06
-1 2 -10 22.34 2.02
-1 2 -10 24.26 2.08
-1 2 -11 224.46 6.72
-1 2 -11 210.65 6.55
-1 2 -11 217.63 6.95
-1 2 -12 288.7 7.43
-1 2 -12 287.37 7.33
-1 2 -12 271.66 6.28
-1 2 -12 279.85 7.65
-1 2 -13 284.38 6.52
-1 2 -13 266.76 6.66
-1 2 -13 272.04 6.4
1 3 -13 56.17 2.18
1 3 -13 55.91 2.2
1 3 -13 56.57 2.33
-1 3 13 52.06 2.32
-1 3 12 146.24 5.01
-1 3 12 148.58 4.1
1 3 -12 142.99 4.72
1 3 -12 148.4 4.57
1 3 -12 136.21 4.44
-1 3 11 196.15 5.5
1 3 -11 181.83 5.6
1 3 -11 181.97 5.81
1 3 -11 191.89 5.76
-1 3 10 159.67 5.07
1 3 -10 136.67 4.94
1 3 -10 138.01 4.94
-1 3 10 155.79 5.06
1 3 -10 166 5.18
1 3 -10 155.79 5.19
1 3 -10 147.04 5.16
1 3 -10 136.22 5.02
1 3 -9 40.12 2.35
1 3 -9 41.27 2.42
-1 3 9 47.26 2.59
1 3 -9 35.9 2.3
1 3 -9 43.18 2.4
-1 3 9 40.45 2.31
1 3 -9 39.68 2.16
1 3 -9 40.25 2.43
1 3 -9 39.45 2.4
1 3 -8 385.82 9.01
1 3 -8 429.88 9.17
-1 3 8 412.14 9.47
1 3 -8 413.18 8.19
1 3 -8 355.92 8.85
-1 3 8 396.22 9.02
1 3 -8 379.05 8.86
1 3 -8 379.75 8.62
-1 3 8 371.87 8.9
1 3 -8 412.88 9.27
1 3 -8 415.61 9.14
1 3 -7 36.55 1.91
1 3 -7 40.56 2.03
-1 3 7 38.65 2.22
1 3 -7 37.53 1.72
1 3 -7 31.72 1.85
1 3 -7 38.17 1.96
-1 3 7 42.08 2.06
1 3 -7 37.3 1.83
1 3 -7 40.61 1.94
-1 3 7 37.71 2.06
1 3 -7 34.44 1.93
1 3 -7 35.21 1.92
-1 3 6 1154.4 19.46
1 3 -6 1093.95 19.26
1 3 -6 1044.45 19.29
1 3 -6 1076.37 19.25
1 3 -6 1072.3 19.2
-1 3 6 1120.51 19.87
1 3 -6 1141.6 19.44
1 3 -5 167.09 4.1
-1 3 5 161.31 4.42
1 3 -5 151.84 4.05
-1 3 5 160.44 4.02
1 3 -5 154.98 3.86
-1 3 4 195.21 3.88
-1 3 4 198.42 4.94
-1 3 4 201.93 4.5
1 3 -4 206 4.31
-1 3 3 114.55 2.76
1 3 -3 111.97 2.97
1 3 -2 247.42 5.03
-1 3 2 249.74 4.78
-1 3 1 7.8 0.64
1 3 -1 6.3 0.52
-1 3 1 7.3 0.41
-1 3 1 7.8 0.42
-1 3 0 82.99 2.22
-1 3 0 81.2 2.39
1 3 0 80.87 2.04
-1 3 0 81.3 1.7
-1 3 -1 1229.15 19.66
-1 3 -1 1207.07 19.83
-1 3 -1 1260.3 20
-1 3 -1 1163.88 20.02
1 3 1 1339.13 20.44
-1 3 -1 1152.2 20.44
-1 3 -1 1200.04 20.74
1 3 1 1257.32 19.87
-1 3 -2 666.55 11.8
-1 3 -2 684.63 11.83
-1 3 -2 677.64 11.87
1 3 2 696.36 11.32
-1 3 -2 690.01 12.39
-1 3 -2 678.05 11.5
-1 3 -3 12.32 0.8
-1 3 -3 10.48 0.75
-1 3 -3 10.86 0.79
-1 3 -3 9.52 0.91
-1 3 -3 10.15 0.41
1 3 3 11.3 0.79
-1 3 -4 1627.9 27.36
-1 3 -4 1615.01 27.37
-1 3 -4 1640.63 27.47
-1 3 -4 1712.31 28.3
-1 3 -4 1564.73 27.65
1 3 4 1694.05 27.41
-1 3 -5 1934.43 32.18
-1 3 -5 1879.06 32.12
-1 3 -5 1829.56 32.76
1 3 5 1939.28 31.98
-1 3 -5 1986.68 32.38
-1 3 -6 889.74 17.14
-1 3 -6 946.55 16.87
-1 3 -6 937.73 16.85
-1 3 -6 951.22 17.28
-1 3 -6 891.12 17.15
-1 3 -6 922.37 17.14
1 3 6 968.06 16.96
-1 3 -6 938.57 17.76
-1 3 -6 904.34 17.32
-1 3 -7 33.26 2.03
-1 3 -7 31.17 1.85
-1 3 -7 33.41 1.91
-1 3 -7 32.74 2.04
-1 3 -7 34.76 2.09
-1 3 -7 29.87 1.91
1 3 7 31.02 1.75
-1 3 -7 30.37 2.01
-1 3 -7 29.81 2.04
1 3 8 81.6 3.31
-1 3 -8 76.51 3.34
-1 3 -8 85.21 3.47
-1 3 -8 79.85 3.49
-1 3 -8 82.11 3.49
-1 3 -8 81.65 3.55
-1 3 -8 75.11 3.45
-1 3 -8 76.36 3.62
-1 3 -8 71.16 3.43
-1 3 -9 4.88 0.95
-1 3 -9 6.21 1.02
-1 3 -9 5.96 0.99
-1 3 -9 5.39 0.98
-1 3 -9 5.41 0.97
-1 3 -9 5.02 0.99
-1 3 -9 4.86 0.98
-1 3 -9 5.04 0.96
-1 3 -10 24.63 1.95
-1 3 -10 26.34 2.07
-1 3 -10 26.36 2.01
-1 3 -10 26.23 2.16
-1 3 -11 15.4 1.46
-1 3 -11 15.47 1.47
-1 3 -11 16.35 1.57
-1 3 -11 16.21 1.35
-1 3 -11 15.62 1.59
-1 3 -12 51.16 2.44
-1 3 -12 55.34 2.22
-1 3 -12 51.06 2.38
-1 3 -12 49.08 2.52
-1 3 -13 69.28 2.32
-1 3 -13 73.07 2.44
1 4 -13 5.98 0.66
-1 4 12 15.9 1.24
1 4 -12 17.54 1.19
1 4 -12 14.93 1.16
-1 4 12 19.3 1.22
-1 4 11 67 3.14
-1 4 11 76.62 3.11
1 4 -11 67.16 2.84
1 4 -11 68.76 3.01
1 4 -11 69.94 2.88
-1 4 10 160.93 5.4
1 4 -10 156.66 4.89
-1 4 10 159.07 5.21
1 4 -10 159.09 4.93
1 4 -10 151.92 5.04
1 4 -9 6.84 1
1 4 -9 5.48 0.9
1 4 -9 3.19 0.76
-1 4 9 4.12 0.87
-1 4 9 5.44 0.87
1 4 -9 3.84 0.72
-1 4 9 5.11 0.87
1 4 -9 4.05 0.76
1 4 -9 5.83 0.89
1 4 -8 23.15 1.63
-1 4 8 26.19 2
1 4 -8 23.38 1.49
1 4 -8 22.08 1.68
-1 4 8 24.24 1.71
1 4 -8 22.37 1.58
1 4 -8 24.77 1.75
-1 4 8 24 1.83
1 4 -8 22.75 1.66
1 4 -8 23.91 1.71
1 4 -7 6.7 0.82
1 4 -7 5.91 0.79
-1 4 7 4.41 0.89
1 4 -7 6.19 0.76
1 4 -7 3.87 0.74
1 4 -7 5.37 0.77
-1 4 7 6.85 0.85
1 4 -7 6.33 0.85
1 4 -7 6.53 0.86
-1 4 7 7.58 1.01
1 4 -7 5.69 0.78
1 4 -6 48.66 2.12
1 4 -6 53.3 2.2
1 4 -6 49.32 2.35
-1 4 6 51.99 2.24
1 4 -6 52.8 2.42
1 4 -6 54.35 2.36
-1 4 6 59.39 2.75
1 4 -6 52.87 2.13
1 4 -6 52.34 2.1
1 4 -5 39.11 1.64
1 4 -5 39.39 1.61
1 4 -5 38.11 1.78
-1 4 5 39.44 1.78
-1 4 5 38.67 2.02
-1 4 5 45.31 2.29
1 4 -5 40.94 2.03
1 4 -5 37.77 1.61
1 4 -4 4648.48 68.44
1 4 -4 4697.31 68.38
-1 4 4 4395.15 68.93
-1 4 4 4170.33 68.66
-1 4 4 4521.22 70.03
-1 4 4 3907.83 68.35
1 4 -4 4033.91 68.32
-1 4 3 1686.02 27.7
1 4 -3 1716.96 28.2
1 4 -3 1650.55 27.09
1 4 -3 1731.62 27.19
-1 4 3 1694.38 27.48
1 4 -2 338.95 6.62
-1 4 2 327.22 7
1 4 -2 323.98 5.45
-1 4 2 318.3 5.66
1 4 -1 677.76 11.72
-1 4 1 675 12.17
-1 4 0 868.66 15.81
1 4 0 904.58 15.47
1 4 0 906.86 15.85
1 4 1 203 4.8
-1 4 -1 210.83 4.64
-1 4 -1 213.91 5.26
-1 4 -2 135.63 3.09
1 4 2 151.53 3.82
1 4 2 146.25 3.01
-1 4 -2 140.86 3.28
-1 4 -2 132.8 3.87
-1 4 -3 1178.32 20.28
-1 4 -3 1242.88 20.25
-1 4 -3 1277.21 21.45
-1 4 -3 1163.58 19.71
1 4 3 1293.36 21.09
-1 4 -4 227.48 6.37
1 4 4 257.1 6.05
-1 4 -4 224.2 5.46
-1 4 -4 267.84 5.62
-1 4 -5 140.29 4.04
-1 4 -5 131.69 3.95
-1 4 -5 142.98 3.96
-1 4 -5 157.26 4.95
1 4 5 148.93 4.29
-1 4 -5 142.5 3.96
-1 4 -5 126.73 3.79
-1 4 -6 140.13 4.43
-1 4 -6 142.84 4.23
1 4 6 169.97 5.04
-1 4 -6 152.2 4.42
-1 4 -6 132.85 4.24
-1 4 -6 149.42 5.08
1 4 6 158.99 4.73
-1 4 -6 153.85 4.43
-1 4 -6 145.34 4.27
-1 4 -7 321.76 7.48
-1 4 -7 311.14 7.5
-1 4 -7 276.18 7.26
-1 4 -7 289.56 7.33
-1 4 -7 281.55 7.92
1 4 7 299.58 7.47
-1 4 -7 290.89 7.63
-1 4 -7 296.13 7.57
-1 4 -8 22.21 1.73
-1 4 -8 25.4 1.92
-1 4 -8 19.8 1.67
1 4 8 20.31 1.77
-1 4 -8 21.38 1.68
-1 4 -8 21.9 1.7
-1 4 -8 18.68 1.68
-1 4 -8 20.48 1.77
-1 4 -9 0.76 0.52
-1 4 -9 0.94 0.54
-1 4 -9 0.73 0.54
-1 4 -9 2.39 0.65
1 4 9 0.61 0.47
1 4 9 0.28 0.4
-1 4 -9 0.82 0.46
-1 4 -9 2.58 0.69
-1 4 -10 -0.07 0.41
-1 4 -10 0.07 0.37
-1 4 -10 0.18 0.32
-1 4 -10 -0.06 0.35
-1 4 -10 0.19 0.42
-1 4 -11 80.05 3.36
-1 4 -11 75.06 3.01
-1 4 -11 69.35 3.05
-1 4 -11 70.63 2.86
-1 4 -11 76.78 3.01
1 4 12 -0.03 0.09
-1 4 -12 8.79 0.83
1 5 -12 76.77 2.74
-1 5 12 80.3 2.56
1 5 -11 0.16 0.31
-1 5 11 -0.1 0.31
-1 5 10 5.44 0.94
1 5 -9 154.52 4.56
-1 5 9 156.5 5.45
1 5 -8 80.8 3.13
1 5 -8 87.06 3.63
-1 5 8 79.06 3.64
-1 5 8 87.78 3.93
-1 5 8 80.4 3.24
-1 5 7 62.75 2.72
1 5 -7 60.87 2.92
1 5 -7 65.83 3.04
-1 5 7 61.97 3.19
1 5 -7 66.45 2.77
-1 5 6 293.74 6.85
1 5 -6 304.43 7.58
-1 5 6 297.11 7.91
1 5 -6 315.29 7.45
1 5 -6 301.19 7.03
1 5 -5 485.95 10.16
-1 5 5 562.57 11.52
1 5 -5 499.69 9.24
1 5 -5 548.1 11.1
-1 5 5 518.07 10.73
-1 5 5 509.96 9.91
1 5 -4 1451.88 24.69
1 5 -4 1357.2 23.84
1 5 -4 1431.68 24.76
-1 5 4 1455.41 25.66
-1 5 4 1440.28 25.21
-1 5 4 1449.01 24.17
1 5 -3 1.28 0.38
-1 5 3 1.21 0.43
1 5 -3 1.39 0.43
1 5 -3 1.28 0.33
-1 5 3 1.2 0.28
-1 5 3 2.05 0.49
1 5 -2 109.68 3.36
1 5 -2 116.91 3.3
1 5 -2 118.24 3.4
-1 5 2 120.88 3.86
-1 5 2 121.48 3.61
1 5 -1 0.99 0.31
-1 5 1 1.35 0.43
1 5 -1 1.48 0.37
-1 5 1 1.88 0.45
1 5 0 353.31 7.45
1 5 0 361.92 7.05
-1 5 0 364.9 7.96
-1 5 -1 699.5 13.86
-1 5 -1 717.75 13.23
1 5 1 735.25 12.71
-1 5 -1 744.99 14.17
-1 5 -2 181.94 5.05
-1 5 -2 186.29 5.04
-1 5 -2 174.07 4.29
-1 5 -2 180.3 5.26
-1 5 -3 1341.73 23.21
-1 5 -3 1313.64 23.18
-1 5 -4 18.17 1.45
-1 5 -4 18.82 1.63
1 5 4 21.57 1.57
-1 5 -4 20.19 1.52
-1 5 -4 20.15 1.31
-1 5 -5 31.47 1.92
-1 5 -5 28.93 1.6
-1 5 -5 28.87 1.7
-1 5 -5 28.27 2.11
1 5 5 31.49 2.01
-1 5 -5 29.06 1.88
1 5 6 45.77 2.53
-1 5 -6 41.59 2.22
-1 5 -6 39.98 2.07
-1 5 -6 39.83 2.62
1 5 6 37.26 2.32
-1 5 -6 39.23 2.21
1 5 7 310.71 8.34
-1 5 -7 307.79 7.89
-1 5 -7 308.84 7.61
-1 5 -7 303 8.61
1 5 7 303.51 8.09
-1 5 -8 171.86 5.55
1 5 8 171.05 5.65
-1 5 -8 168.07 5.25
-1 5 -8 167.93 5.52
1 5 9 27.28 1.97
-1 5 -9 26.97 1.97
-1 5 -9 27.35 1.95
1 5 10 12.75 1.18
-1 5 -10 12.82 1.29
-1 5 -10 12.57 1.29
-1 5 -11 4.6 0.73
-1 5 -11 3.91 0.7
-1 5 -12 7.15 0.69
1 6 -12 19.18 1.11
-1 6 11 84.67 2.98
1 6 -11 84.05 3.01
-1 6 10 0.23 0.39
1 6 -10 -0.05 0.34
-1 6 9 45.69 2.72
1 6 -9 43.7 2.45
1 6 -9 42.54 2.18
1 6 -8 55.82 2.83
-1 6 8 54.32 3.14
1 6 -8 58.2 2.73
1 6 -7 14.52 1.49
1 6 -7 16.85 1.53
1 6 -7 14.29 1.49
-1 6 7 15.08 1.7
1 6 -7 16.75 1.45
1 6 -6 0.06 0.34
1 6 -6 1.07 0.5
-1 6 6 0.89 0.55
1 6 -6 1.07 0.47
1 6 -5 1081.26 18.97
1 6 -5 1080.98 19.34
-1 6 5 925.31 19.69
1 6 -5 975.25 19.4
-1 6 5 1075.44 19.28
1 6 -5 1006.81 18.8
1 6 -5 889.69 18.31
-1 6 4 584.16 12.87
1 6 -4 607.01 11.54
1 6 -4 685.21 12.82
1 6 -4 616.41 13.06
-1 6 4 620.69 12.85
1 6 -4 657.35 12.5
1 6 -4 542.17 11.78
1 6 -3 223.17 5.91
-1 6 3 211.31 6.35
1 6 -3 223.44 5.83
-1 6 3 244.15 6.49
1 6 -3 232.68 5.52
-1 6 3 208.45 6.35
1 6 -3 243.9 6.01
-1 6 3 230.68 5.98
-1 6 2 18.75 1.62
1 6 -2 23.78 1.57
-1 6 2 17.63 1.54
1 6 -2 18.03 1.34
-1 6 2 25.66 1.82
1 6 -2 27.48 1.6
1 6 -2 19.69 1.32
-1 6 2 22.29 1.6
1 6 -1 321.35 7.34
-1 6 1 298.24 7.92
-1 6 1 314.57 7.91
-1 6 1 323.11 7.77
1 6 -1 320.13 7.21
1 6 -1 315.2 7.03
-1 6 1 336.5 7.92
1 6 0 227.63 5.88
-1 6 0 209.88 6.33
-1 6 0 226.48 6.4
1 6 0 229.81 5.86
-1 6 0 252.27 6.18
1 6 0 236.7 5.52
-1 6 0 268.07 6.74
-1 6 -1 1401.61 26.06
1 6 1 1440.23 25.22
1 6 1 1468.94 25.52
1 6 1 1430.77 24.45
-1 6 -1 1472.82 25.07
-1 6 -1 1438.92 26.27
-1 6 -1 1476.44 26.1
-1 6 -2 191.76 5.95
-1 6 -2 191.56 4.88
-1 6 -2 195.35 5.72
-1 6 -2 192.17 4.79
-1 6 -3 130.01 4.61
1 6 3 145.11 4.75
-1 6 -3 144.8 4.76
-1 6 -3 143.64 4.1
-1 6 -4 108.15 4.15
1 6 4 103.42 4.09
-1 6 -4 119.06 4.29
-1 6 -4 109.91 3.66
-1 6 -5 10.2 1.22
-1 6 -5 7.94 0.99
-1 6 -5 8.32 1.26
1 6 5 7.02 1.08
-1 6 -5 9.08 1.16
-1 6 -6 11.37 1.3
-1 6 -6 10.13 1.16
-1 6 -6 10.73 1.09
1 6 6 10.59 1.28
-1 6 -6 11.99 1.57
1 6 6 11.76 1.4
-1 6 -6 9.45 1.24
-1 6 -7 2.93 0.74
-1 6 -7 2.16 0.59
-1 6 -7 2.72 0.81
1 6 7 2.91 0.76
1 6 7 2.95 0.77
-1 6 -7 2.72 0.67
-1 6 -8 57.42 2.99
-1 6 -8 56.47 2.7
-1 6 -9 230.81 6.64
-1 6 -9 242.89 6.3
-1 6 -9 234.26 6.59
1 6 9 230.9 6.48
-1 6 -10 22.72 1.49
1 6 10 21.73 1.44
-1 6 -10 24.29 1.66
-1 6 -11 4.17 0.61
-1 7 11 103.12 2.89
1 7 -11 97.27 2.91
-1 7 10 59.03 2.55
1 7 -10 60.35 2.48
-1 7 9 147.63 4.95
1 7 -9 152.02 4.66
1 7 -9 143.69 4.29
-1 7 8 61.5 3.24
1 7 -8 59.95 2.87
1 7 -8 57.21 2.73
1 7 -7 197.65 5.92
1 7 -7 200.53 5.93
1 7 -6 264.11 7.04
1 7 -6 257.78 6.93
-1 7 6 231.31 7.46
1 7 -6 224.95 7.07
1 7 -6 257.67 7.31
1 7 -5 485.22 11.01
-1 7 5 493.56 10.95
1 7 -5 491.72 10.94
1 7 -5 495.96 11.75
-1 7 5 474.1 11.91
1 7 -5 492.57 11.3
-1 7 4 101.01 4.14
-1 7 4 110.09 4.16
1 7 -4 111.71 4.05
1 7 -4 109.93 4.16
-1 7 4 95.54 4.37
1 7 -4 111.06 4.52
-1 7 3 60.88 3.18
1 7 -3 67.83 3.08
1 7 -3 64.66 2.92
-1 7 3 57.83 2.98
1 7 -3 66.54 3.02
1 7 -3 64.13 2.65
-1 7 3 58.8 3.23
1 7 -3 59.21 3.15
-1 7 3 60.21 2.92
-1 7 2 171.58 5.85
1 7 -2 193.28 5.58
1 7 -2 170.99 5.15
-1 7 2 188.31 5.88
1 7 -2 171.28 5.18
1 7 -2 171.22 5.01
-1 7 2 178.79 5.81
-1 7 2 186.61 5.72
1 7 -1 1.12 0.45
-1 7 1 1.16 0.6
-1 7 1 1.28 0.57
1 7 -1 0.78 0.39
-1 7 1 1.05 0.49
1 7 -1 0.93 0.4
-1 7 1 1.25 0.51
-1 7 0 61.05 3.27
1 7 0 58.56 2.81
-1 7 0 58.03 3.1
1 7 0 63.36 2.92
1 7 0 63.34 2.62
-1 7 0 59.57 2.85
-1 7 0 63.22 3.21
-1 7 -1 36.71 2.49
1 7 1 33.32 2.1
-1 7 -1 40.64 2.61
1 7 1 39.31 2.36
-1 7 -1 34.77 2.36
1 7 2 183.82 5.5
-1 7 -2 174.97 5.98
-1 7 -2 204.58 6.53
-1 7 -2 193.15 6.07
-1 7 -2 193.42 5
-1 7 -3 418.23 10.24
-1 7 -3 386.92 10.27
1 7 3 385.38 9.77
-1 7 -3 416.74 10.03
-1 7 -3 404.19 8.82
-1 7 -4 50.81 2.95
-1 7 -4 51.42 2.47
-1 7 -4 43.13 2.92
1 7 4 45.67 2.83
-1 7 -4 48.78 2.82
-1 7 -5 148.71 5.28
-1 7 -5 145.41 4.73
1 7 5 139.96 4.79
-1 7 -5 141.64 5.64
1 7 5 141.82 5.36
-1 7 -5 135.12 5.02
-1 7 -6 250.94 7.23
-1 7 -6 253.83 6.9
-1 7 -6 251.03 7.25
-1 7 -7 12.27 1.38
-1 7 -7 12.83 1.37
-1 7 -7 11.71 1.32
-1 7 -8 3.31 0.8
1 7 8 3.67 0.85
-1 7 -8 2.52 0.68
1 7 9 0.97 0.45
1 7 10 9.2 0.81
-1 8 10 78.4 2.49
1 8 -10 82.46 2.49
-1 8 9 86.91 2.86
1 8 -9 89.06 2.68
1 8 -8 2.51 0.59
1 8 -8 2.9 0.63
1 8 -7 29.54 1.9
1 8 -7 29.65 1.97
-1 8 6 0.61 0.54
1 8 -6 0.55 0.41
1 8 -6 0.66 0.49
1 8 -5 68.89 3.14
1 8 -4 384.2 9.49
1 8 -4 386.14 9.16
-1 8 4 381.56 9.09
1 8 -4 383.93 10.03
1 8 -4 389.54 9.59
-1 8 4 375.87 10.03
-1 8 3 1172.12 22.26
1 8 -3 1113.49 21.71
-1 8 3 1139.86 21.6
1 8 -3 1185.16 21.44
1 8 -3 1119.94 21.6
-1 8 3 1106.74 22.38
1 8 -3 1125.96 22.28
1 8 -2 172.63 5.65
-1 8 2 165.41 5.94
-1 8 2 164.13 5.58
-1 8 2 164.45 5.65
1 8 -2 165.03 5.07
-1 8 2 169.65 5.83
1 8 -2 170.17 5.39
1 8 -2 184.95 6.15
-1 8 1 393.92 10.41
1 8 -1 430.19 10.01
-1 8 1 402.93 10.07
-1 8 1 423.56 10.36
1 8 -1 393.97 9.38
-1 8 1 382.02 9.75
1 8 -1 386.87 10.1
-1 8 0 44.83 2.92
1 8 0 41.11 2.53
-1 8 0 49.07 2.89
-1 8 0 44.03 2.86
1 8 0 42.93 2.52
-1 8 0 41.02 2.43
1 8 1 96.34 3.95
-1 8 -1 96.63 4.41
-1 8 -1 93.24 4.12
-1 8 -1 96.28 4.37
1 8 1 87.01 3.87
-1 8 -2 2.65 0.83
-1 8 -2 1.46 0.64
1 8 2 2.25 0.7
-1 8 -2 1.12 0.61
-1 8 -3 6.13 1.17
-1 8 -3 19.96 1.83
-1 8 -4 18.56 1.84
-1 8 -4 18.1 1.74
-1 8 -4 19.79 1.53
-1 8 -5 10.32 1.35
-1 8 -5 10.31 1.31
-1 8 -5 8.09 1.04
-1 8 -6 77.92 3.54
-1 8 -6 68.17 3.31
-1 8 -6 77.49 3.27
-1 8 -7 3.95 0.75
-1 8 -7 5.5 0.92
-1 8 -7 5.33 0.86
1 8 8 86.17 3.06
-1 8 -8 90.25 3.12
1 8 9 34.29 1.67
-1 8 -9 38.52 1.86
-1 9 8 8.15 0.84
1 9 -8 8.48 0.75
1 9 -8 9.05 0.83
-1 9 7 286.99 7.06
1 9 -7 303.57 6.73
1 9 -7 300.06 7.08
1 9 -6 271.38 6.45
1 9 -6 268.76 6.92
-1 9 5 11.87 1.3
1 9 -5 11.14 1.13
1 9 -4 62.62 3.13
1 9 -3 387.8 9.71
-1 9 3 402.83 9.64
-1 9 2 256.06 6.86
1 9 -2 264.47 7.43
-1 9 2 250.21 7.44
-1 9 1 362.26 9.16
-1 9 1 388.58 10.03
1 9 -1 395.46 9.69
-1 9 0 71.63 3.44
-1 9 0 76.97 3.88
1 9 0 78.76 3.58
-1 9 -1 14.5 1.52
-1 9 -1 12.05 1.54
1 9 1 12.29 1.34
-1 9 -2 3.51 0.84
-1 9 -2 11.42 1.47
-1 9 -3 16.09 1.58
-1 9 -4 1.08 0.51
-1 9 -4 1.59 0.65
-1 9 -5 215.27 6.19
-1 9 -5 213.6 6.34
-1 9 -6 24.88 1.73
-1 9 -6 22.61 1.66
1 9 7 3.65 0.67
-1 9 -7 3.73 0.66
-1 9 -7 3.38 0.58
1 9 8 13.07 0.96
-1 9 -8 14.34 1.03
-1 10 6 0.06 0.21
1 10 -6 0.39 0.3
-1 10 5 10.39 0.92
1 10 -5 9.9 1.03
-1 10 4 2.53 0.53
1 10 -4 2.29 0.61
-1 10 3 72.43 2.71
1 10 -3 83.81 3.38
-1 10 2 -0.04 0.14
1 10 -2 4.77 0.85
1 10 -1 604.86 12.56
-1 10 1 594.05 12.73
-1 10 0 57.74 2.5
-1 10 0 60.72 3.05
1 10 0 60.84 2.76
-1 10 -1 9.92 1.05
-1 10 -1 11.67 1.34
-1 10 -2 24.44 1.66
-1 10 -2 26.82 1.97
-1 10 -3 54.44 2.47
-1 10 -3 54.56 2.76
-1 10 -4 64.06 2.6
-1 10 -5 46 2.03
-1 10 -5 46.8 2.19
-1 10 -6 5.29 0.62
-1 10 -6 5.18 0.62
1 11 -3 33.04 1.55
1 11 -2 121.96 3.42
-1 11 0 277.14 6.21
-1 11 -1 34.33 1.74
-1 11 -2 0.22 0.27
-1 11 -3 33.9 1.61
2 -11 -3 83.12 2.37
2 -11 -2 29.39 1.35
2 -11 -1 16.31 1.01
2 -11 0 109.46 2.96
-2 -10 6 33.45 1.56
2 -10 -6 33.56 1.37
-2 -10 5 5.06 0.69
2 -10 -5 5.71 0.66
-2 -10 4 29.33 1.72
2 -10 -4 32.02 1.66
-2 -10 3 84.38 3.22
2 -10 -3 89.12 3.09
-2 -10 2 248.91 6.46
2 -10 -2 254.58 6.24
-2 -10 1 69.95 2.96
-2 -10 1 64.05 2.9
2 -10 -1 71.77 2.85
-2 -10 0 19.48 1.49
2 -10 0 16.98 1.35
-2 -10 0 15.49 1.38
-2 -10 -1 59.84 2.61
-2 -10 -1 55.09 2.44
-2 -10 -1 53.36 2.5
-2 -10 -2 27.29 1.63
-2 -10 -2 29.03 1.51
-2 -10 -2 25.44 1.68
2 -10 2 28.19 1.62
-2 -10 -2 27.19 1.61
-2 -10 -3 30.33 1.81
-2 -10 -3 30.31 1.57
-2 -10 -3 29.52 1.49
2 -10 3 30.87 1.49
-2 -10 -3 26.31 1.39
-2 -10 -4 24.62 1.57
-2 -10 -4 24.04 1.28
-2 -10 -5 4.33 0.63
-2 -9 8 47.08 1.9
2 -9 -8 52.19 1.85
2 -9 -7 1.3 0.38
-2 -9 7 1.25 0.47
2 -9 -7 1.38 0.38
2 -9 -6 94.71 3.12
2 -9 -6 93.94 3
2 -9 -5 59.93 2.54
-2 -9 5 61.69 2.88
2 -9 -5 57.19 2.29
-2 -9 4 2.46 0.7
-2 -9 4 3.9 0.83
2 -9 -4 3.12 0.53
-2 -9 3 487.79 11.07
-2 -9 3 463.82 11.06
2 -9 -3 473.19 10.33
2 -9 -2 289.85 7.38
-2 -9 2 293.47 7.93
-2 -9 1 68.81 2.84
2 -9 -1 74.26 3.23
-2 -9 1 69.35 3.4
-2 -9 0 7.83 0.96
-2 -9 0 6.69 1.02
2 -9 0 8.96 1.12
-2 -9 0 7.31 1.11
-2 -9 0 6.53 1.09
-2 -9 -1 63.59 2.83
-2 -9 -1 62.22 3.2
-2 -9 -1 59.45 3
2 -9 1 66.09 2.98
-2 -9 -1 64.43 3.22
-2 -9 -2 3.99 0.77
-2 -9 -2 4.05 0.92
-2 -9 -2 4.23 0.81
2 -9 2 4.07 0.78
-2 -9 -2 3.51 0.79
-2 -9 -3 215.99 6.01
-2 -9 -3 217.63 6.7
-2 -9 -3 211.63 5.8
2 -9 3 221.51 5.81
-2 -9 -3 211.95 6.12
-2 -9 -4 257.99 7.15
2 -9 4 229.11 5.59
-2 -9 -4 234.94 6.14
-2 -9 -4 248.02 6.37
-2 -9 -5 4.43 0.77
2 -9 5 3.98 0.63
-2 -9 -5 3.96 0.69
-2 -9 -5 4.58 0.91
-2 -9 -6 0.09 0.32
2 -9 6 0.1 0.24
-2 -9 -6 0.08 0.27
-2 -9 -7 23.63 1.33
-2 -9 -7 24.8 1.49
-2 -9 -7 27.24 1.48
2 -8 -10 236.2 5.42
2 -8 -10 267.45 5.5
2 -8 -9 32.97 1.68
-2 -8 9 32.09 1.63
2 -8 -8 85.59 2.73
2 -8 -8 90.29 3.19
-2 -8 8 83.59 3.19
2 -8 -7 0.08 0.3
2 -8 -7 -0.05 0.32
-2 -8 7 0.53 0.43
2 -8 -6 2.07 0.57
2 -8 -6 1.05 0.46
-2 -8 6 1.87 0.69
-2 -8 5 31.98 2.3
2 -8 -5 29.29 1.86
2 -8 -5 31.27 1.9
-2 -8 4 1.21 0.43
-2 -8 4 0.8 0.64
2 -8 -4 0.5 0.39
2 -8 -3 29.7 1.94
2 -8 -3 29.58 1.75
-2 -8 3 29.82 2.23
-2 -8 3 25.96 1.73
2 -8 -3 25.93 1.93
-2 -8 3 29.25 2.26
-2 -8 2 0.39 0.53
2 -8 -2 0.17 0.25
2 -8 -2 0.17 0.4
-2 -8 2 -0.06 0.32
2 -8 -2 0.86 0.48
2 -8 -2 0.18 0.43
-2 -8 1 332.17 8.72
2 -8 -1 314.31 8.69
-2 -8 1 323.16 7.83
-2 -8 1 288.58 7.9
2 -8 -1 319.91 8.07
2 -8 -1 304.97 7.78
-2 -8 1 298.4 8.41
-2 -8 0 234.72 7.06
2 -8 0 224.39 6.3
-2 -8 0 212.71 6.19
2 -8 0 218.29 6.2
-2 -8 0 215.1 6.7
2 -8 0 212.07 6.85
-2 -8 0 231.75 6.36
-2 -8 -1 26.6 2.15
2 -8 1 22.46 1.69
-2 -8 -1 22.16 1.83
-2 -8 -1 23.5 1.93
2 -8 1 26.71 1.89
2 -8 1 22.43 1.98
-2 -8 -1 27 1.93
-2 -8 -2 -0.08 0.46
2 -8 2 0.08 0.31
-2 -8 -2 0.47 0.42
-2 -8 -2 0.15 0.32
2 -8 2 0.17 0.32
2 -8 2 0.18 0.32
-2 -8 -2 -0.13 0.39
-2 -8 -3 145.05 5.11
-2 -8 -3 150.37 5.33
2 -8 3 148.99 4.64
2 -8 3 144.32 4.68
-2 -8 -3 148.72 4.89
-2 -8 -3 154.39 5.19
-2 -8 -4 65.61 3.31
-2 -8 -4 70.25 3.34
-2 -8 -4 65.76 3.24
2 -8 4 61.65 2.8
-2 -8 -4 57.15 2.64
-2 -8 -5 26.54 2.01
-2 -8 -5 22.63 1.94
2 -8 5 25.94 1.73
-2 -8 -5 27.65 1.95
-2 -8 -5 22.06 1.62
-2 -8 -6 76.69 3.46
-2 -8 -6 84.25 3.72
-2 -8 -6 74.03 3.65
2 -8 6 75.13 3
-2 -8 -6 74.57 3.02
-2 -8 -7 338.31 8.12
-2 -8 -7 318.75 8.22
-2 -8 -7 329.67 8.26
2 -8 7 332.89 7.45
-2 -8 -7 313.89 7.43
-2 -8 -8 239.6 5.99
-2 -8 -8 218.58 5.94
-2 -8 -8 221.97 5.7
2 -8 8 241.48 5.48
-2 -8 -8 210.05 5.37
-2 -8 -9 34.18 1.67
-2 -8 -9 34.73 1.7
2 -7 -11 32.27 1.54
-2 -7 10 6.47 0.74
2 -7 -10 7.66 0.87
2 -7 -9 109.56 3.11
-2 -7 9 110.39 3.74
-2 -7 8 -0.12 0.38
2 -7 -8 0.24 0.3
2 -7 -8 0.06 0.41
-2 -7 7 11.39 1.32
2 -7 -7 11.31 1.1
2 -7 -7 11.8 1.27
-2 -7 6 89.7 3.89
2 -7 -6 92.83 3.38
2 -7 -6 82.99 3.47
2 -7 -5 983.25 18.31
2 -7 -5 1040.5 18.76
-2 -7 5 985.51 19.42
-2 -7 5 1014.92 18.42
2 -7 -5 967.89 18.93
2 -7 -5 936.67 18.72
-2 -7 5 921.68 19.53
2 -7 -4 1040.74 18.78
-2 -7 4 1014.11 20.06
-2 -7 4 981.69 18.64
2 -7 -4 969.84 19.13
2 -7 -4 977.1 18.98
2 -7 -4 1000.14 18.58
-2 -7 3 311.13 7.44
2 -7 -3 275.74 8.1
2 -7 -3 293.22 7.09
2 -7 -3 303.89 7.73
2 -7 -3 299.39 7.59
-2 -7 3 264.6 7.9
2 -7 -3 290.93 7.19
-2 -7 2 38.59 2.51
2 -7 -2 31.71 2.31
-2 -7 2 37.69 2.16
2 -7 -2 32.1 1.84
2 -7 -2 36.94 2.2
2 -7 -2 35.35 2.17
2 -7 -2 34.33 2.02
-2 -7 1 9.61 1.28
2 -7 -1 11.18 1.37
-2 -7 1 13.63 1.3
2 -7 -1 9.58 0.95
-2 -7 1 10.85 1.13
2 -7 -1 9.63 1.15
2 -7 -1 11.77 1.17
-2 -7 1 11.53 1.34
-2 -7 0 386.38 9.56
-2 -7 0 370.48 8.79
2 -7 0 366.46 8.84
2 -7 0 355.69 8.4
-2 -7 0 369.6 9.17
2 -7 0 381.6 9.54
-2 -7 0 360.12 8.77
-2 -7 -1 613.24 13.74
2 -7 1 657.29 13.93
-2 -7 -1 682.81 13.45
-2 -7 -1 604.31 13.16
2 -7 1 602.02 12.99
-2 -7 -1 586.45 13.09
2 -7 1 621.65 12.65
2 -7 2 34.23 1.99
-2 -7 -2 36.45 2.47
-2 -7 -2 39.48 2.4
-2 -7 -2 36.06 2.39
-2 -7 -2 36.16 2.38
2 -7 2 36.05 2.24
-2 -7 -2 36.66 2.27
2 -7 2 36.64 2.08
-2 -7 -3 262.43 7.43
2 -7 3 234.38 6.32
-2 -7 -3 223.66 7.1
-2 -7 -3 253 7.11
2 -7 3 245.87 7.21
2 -7 3 237.94 6.69
-2 -7 -3 223.63 6.99
2 -7 3 245.16 6.35
-2 -7 -3 236.77 6.49
2 -7 4 0.34 0.38
-2 -7 -4 2.84 0.77
-2 -7 -4 1.03 0.51
-2 -7 -4 1.2 0.64
2 -7 4 2.26 0.68
-2 -7 -4 1.43 0.6
2 -7 4 1.03 0.48
-2 -7 -4 0.93 0.44
-2 -7 -5 108.94 4.44
-2 -7 -5 105.9 4.69
-2 -7 -5 103.65 4.22
2 -7 5 101.29 3.82
-2 -7 -5 99.67 4.01
-2 -7 -6 289.85 8.19
-2 -7 -6 281.24 8.46
-2 -7 -6 286.51 7.71
2 -7 6 296.07 7.49
-2 -7 -6 299.88 7.92
-2 -7 -7 5.3 0.99
-2 -7 -7 3.35 0.87
-2 -7 -7 4.12 0.99
2 -7 7 3.74 0.76
-2 -7 -7 3.4 0.8
-2 -7 -8 -0.13 0.44
-2 -7 -8 0.08 0.46
-2 -7 -8 -0.31 0.45
2 -7 8 0.2 0.34
-2 -7 -8 0.31 0.44
-2 -7 -9 6.65 0.93
2 -7 9 8.02 0.9
-2 -7 -9 7.51 0.82
-2 -7 -9 7.86 1.09
-2 -7 -9 7.19 0.94
-2 -7 -10 0.37 0.31
2 -7 10 0.38 0.25
2 -6 -11 1.5 0.48
-2 -6 11 0.03 0.11
2 -6 -10 17.7 1.47
-2 -6 10 17.08 1.3
2 -6 -9 5.13 0.87
2 -6 -9 3.76 0.59
-2 -6 9 5.2 0.86
2 -6 -8 25.06 1.91
2 -6 -8 26.04 1.59
-2 -6 8 27.06 1.92
-2 -6 7 202.05 6.05
2 -6 -7 187.36 5.81
2 -6 -7 198.58 5.33
2 -6 -6 1898.83 33.88
-2 -6 6 2064.29 34.54
2 -6 -6 1915.44 33.88
2 -6 -6 2047.34 34.33
2 -6 -6 2067.84 33.38
2 -6 -5 84.11 3.1
-2 -6 5 73.34 3.41
2 -6 -5 74.25 3.21
2 -6 -5 77.88 3.37
-2 -6 5 86.03 3.87
2 -6 -5 78.66 3.25
2 -6 -4 307.44 7.28
2 -6 -4 304.22 7.55
-2 -6 4 340.53 8.46
2 -6 -4 328.52 7.85
2 -6 -4 308.22 7.92
-2 -6 4 330.38 8.59
-2 -6 3 8.09 0.86
2 -6 -3 5.72 0.95
2 -6 -3 6.67 0.87
2 -6 -3 8.01 1.01
-2 -6 3 6.48 1
2 -6 -3 6.7 0.82
2 -6 -2 50.84 2.58
-2 -6 2 49.48 2.14
2 -6 -2 56.08 2.37
-2 -6 2 50.94 2.25
2 -6 -2 51.54 2.76
-2 -6 2 51.08 2.46
-2 -6 1 11.57 1.28
-2 -6 1 11.89 1.09
2 -6 -1 13.12 1.28
-2 -6 1 14.44 1.39
2 -6 -1 12.17 1.07
2 -6 -1 13.53 1.35
-2 -6 1 11.67 1.04
-2 -6 1 13.84 1.25
2 -6 0 6.12 0.94
-2 -6 0 5.55 0.78
-2 -6 0 4.79 0.79
2 -6 0 6.26 0.92
-2 -6 0 6.02 0.83
2 -6 0 5.43 0.74
-2 -6 0 6.49 0.92
-2 -6 -1 605.45 12.52
2 -6 1 564.92 12.2
-2 -6 -1 532.38 11.75
-2 -6 -1 526.21 11.9
-2 -6 -1 587.98 11.99
2 -6 1 605.3 12.27
2 -6 1 565.08 11.24
-2 -6 -1 536.96 11.66
2 -6 2 0.99 0.39
-2 -6 -2 0.89 0.53
-2 -6 -2 0.69 0.46
2 -6 2 0.72 0.44
-2 -6 -2 0.66 0.42
2 -6 2 1.66 0.55
-2 -6 -2 1.25 0.49
-2 -6 -2 0.62 0.41
2 -6 2 0.96 0.39
-2 -6 -3 5.61 0.98
-2 -6 -3 5.86 0.84
-2 -6 -3 5.58 1.02
-2 -6 -3 5.59 0.93
2 -6 3 6.51 1.02
2 -6 3 6.31 0.95
-2 -6 -3 6.43 1.01
-2 -6 -3 6.38 0.88
2 -6 3 6.91 0.85
-2 -6 -4 2.15 0.61
-2 -6 -4 2.03 0.74
-2 -6 -4 1.59 0.59
2 -6 4 2.43 0.66
-2 -6 -4 2.77 0.76
-2 -6 -5 63.82 3.16
-2 -6 -5 60.02 3.51
-2 -6 -5 57.71 3.13
2 -6 5 61.12 3.12
-2 -6 -5 65.58 3.29
-2 -6 -6 45.21 2.75
-2 -6 -6 43.91 3.04
-2 -6 -6 47.42 2.88
2 -6 6 41.38 2.6
-2 -6 -6 46.48 2.72
-2 -6 -7 75.59 3.76
-2 -6 -7 67.79 3.62
-2 -6 -7 76.51 4.05
-2 -6 -7 70.86 3.56
-2 -6 -8 16.66 1.63
-2 -6 -8 16.23 1.82
-2 -6 -8 13.55 1.54
-2 -6 -9 0.81 0.41
-2 -6 -9 0.21 0.5
-2 -6 -10 0.88 0.46
2 -6 10 0.6 0.39
-2 -6 -10 0.06 0.38
2 -6 11 60.19 2.13
-2 -6 -11 68.23 2.45
2 -5 -12 14.53 1.1
2 -5 -11 11.5 1.15
-2 -5 11 7.39 0.78
2 -5 -10 22.32 1.72
-2 -5 10 21.48 1.53
2 -5 -9 310.31 6.92
-2 -5 9 300.95 7.67
2 -5 -8 24.4 1.85
-2 -5 8 25.1 1.82
2 -5 -8 27.53 2.01
-2 -5 8 23.84 1.88
2 -5 -8 24.55 1.54
2 -5 -7 1194.01 22.38
-2 -5 7 1260.24 22.67
2 -5 -7 1149.35 21.89
-2 -5 7 1280.77 22.85
2 -5 -7 1203.73 22.63
2 -5 -7 1283.54 21.74
2 -5 -7 1147.89 22.5
-2 -5 6 116.86 4.2
2 -5 -6 113.23 4.08
-2 -5 6 126.46 4.33
2 -5 -6 124.35 4.04
2 -5 -6 126.27 4.37
2 -5 -6 124.28 3.83
2 -5 -5 9.86 0.95
2 -5 -5 10.53 1.12
-2 -5 5 9.92 1.13
2 -5 -5 11.23 1.09
-2 -5 5 10.68 1.29
-2 -5 4 3.14 0.68
-2 -5 4 2.58 0.48
2 -5 -4 4.33 0.69
2 -5 -4 2.53 0.59
2 -5 -4 2.64 0.54
2 -5 -4 2.34 0.51
-2 -5 4 3.51 0.78
-2 -5 3 1.46 0.48
2 -5 -3 2.99 0.64
-2 -5 3 1.9 0.34
-2 -5 3 2.53 0.62
-2 -5 3 2.04 0.41
2 -5 -3 2.01 0.57
-2 -5 2 9.95 0.84
2 -5 -2 11.93 1.15
-2 -5 2 10.3 1.09
-2 -5 2 9.44 0.81
2 -5 -1 281.37 6.88
-2 -5 1 273 6.11
-2 -5 1 269.44 6.21
2 -5 0 106.91 3.7
-2 -5 0 109.62 3.61
-2 -5 0 115.21 3.34
-2 -5 0 105.43 3.78
-2 -5 0 103.32 3.38
2 -5 0 118 3.9
-2 -5 -1 858.86 15.49
2 -5 1 768.14 15.43
-2 -5 -1 841.63 15.82
-2 -5 -1 758.72 15.16
2 -5 1 848.94 15.73
-2 -5 -2 1994.78 32.52
2 -5 2 1961.14 32.79
-2 -5 -3 267.85 6.72
-2 -5 -3 264.99 7.49
-2 -5 -3 286.54 7.13
2 -5 3 290.23 7.38
-2 -5 -3 285.17 7.25
-2 -5 -3 283.42 7.39
-2 -5 -4 226.86 6.27
-2 -5 -4 249.5 7.26
-2 -5 -4 227.81 6.42
2 -5 4 240.66 6.72
-2 -5 -4 238.4 6.74
-2 -5 -5 39.16 2.4
2 -5 5 41.18 2.53
-2 -5 -5 37.81 2.4
-2 -5 -5 39.16 2.72
-2 -5 -6 38.7 2.54
2 -5 6 45.19 2.75
-2 -5 -6 42.92 2.6
-2 -5 -6 43.15 2.96
-2 -5 -7 22.88 2.01
2 -5 7 20.45 1.91
-2 -5 -7 19.79 1.89
-2 -5 -8 5.16 1.04
-2 -5 -8 6.36 1.22
-2 -5 -8 4.68 0.94
-2 -5 -9 7.79 1.21
-2 -5 -9 11.46 1.52
-2 -5 -9 8.2 1.01
-2 -5 -10 5.57 0.95
-2 -5 -10 5.25 0.98
-2 -5 -10 4.85 0.94
-2 -5 -11 68.34 2.8
-2 -5 -11 62.29 2.78
2 -4 -12 51.05 2.08
-2 -4 12 48.78 1.91
2 -4 -12 -0.03 0.12
2 -4 -12 51.11 2.07
2 -4 -12 -0.07 0.14
-2 -4 11 7.63 1.01
-2 -4 11 5.78 0.72
-2 -4 11 6.89 0.98
2 -4 -11 7.29 0.97
-2 -4 11 7.48 1
2 -4 -11 7.16 0.88
2 -4 -11 8.11 1.02
2 -4 -11 8.35 0.98
-2 -4 10 269.26 6.66
-2 -4 10 250.52 7.05
2 -4 -10 269.71 7.09
-2 -4 10 249.98 7.04
2 -4 -10 272.06 6.79
2 -4 -10 256.71 6.85
2 -4 -10 284.64 7.21
-2 -4 9 93.96 3.54
-2 -4 9 85.53 3.76
2 -4 -9 98.63 3.8
2 -4 -9 91.28 3.07
-2 -4 9 91.76 3.83
2 -4 -9 89.19 3.6
2 -4 -9 93.78 3.5
-2 -4 9 91.4 3.78
2 -4 -9 91.76 3.64
-2 -4 8 308.03 7.38
-2 -4 8 292.71 6.91
-2 -4 8 252.67 7.32
2 -4 -8 289.04 7.35
2 -4 -8 286.56 7.16
-2 -4 8 266.53 7.39
2 -4 -8 284.09 7.06
2 -4 -8 295.4 7.03
-2 -4 8 290.5 7.52
2 -4 -8 275.66 7.13
2 -4 -8 276.81 7.08
2 -4 -7 599.86 11.99
-2 -4 7 604.91 11.9
-2 -4 7 663.13 12.51
2 -4 -7 565.97 12.14
2 -4 -7 577.04 11.76
-2 -4 7 580.97 12.4
2 -4 -7 606.61 12.04
2 -4 -7 621.69 11.88
2 -4 -7 545.68 12.48
-2 -4 7 615.31 12.5
-2 -4 7 566.32 12.44
-2 -4 6 1136.86 20.51
-2 -4 6 1149.37 20.15
2 -4 -6 1094.38 20.44
2 -4 -6 1217.5 20.01
2 -4 -6 1063.29 20.55
2 -4 -6 1087.16 19.86
-2 -4 6 1222.12 20.89
-2 -4 6 1068.46 20.44
-2 -4 5 1296.59 23.97
-2 -4 5 1305.77 23.27
-2 -4 5 1335.68 22.93
2 -4 -5 1306.27 23.2
2 -4 -5 1271.55 23.01
2 -4 -5 1339.06 22.85
-2 -4 5 1344.05 23.45
2 -4 -5 1408.88 22.59
-2 -4 5 1250.44 22.93
-2 -4 4 1344.47 23.03
-2 -4 4 1264.93 23.26
-2 -4 4 1204.39 22.6
-2 -4 4 1544.71 23.89
2 -4 -4 1432.37 23.05
2 -4 -3 922.46 16.14
-2 -4 3 887.21 15.14
-2 -4 3 860.08 15.14
-2 -4 3 817.02 15.12
-2 -4 3 872.82 14.7
2 -4 -3 914.47 16.27
-2 -4 2 372.81 7.12
2 -4 -2 364.22 7.87
-2 -4 2 376.15 7
-2 -4 2 352.93 7
-2 -4 2 357.85 7.08
2 -4 -1 36.08 1.76
-2 -4 1 32.69 1.36
-2 -4 1 32.6 1.2
-2 -4 1 32.57 1.18
-2 -4 1 31.01 1.43
2 -4 -1 36.62 1.87
-2 -4 0 85.62 2.51
2 -4 0 91.5 3.02
-2 -4 0 87.68 2.78
2 -4 0 91.02 3.13
-2 -4 0 90.5 2.23
2 -4 1 141.22 4.16
-2 -4 -1 138.2 3.09
-2 -4 -2 235.35 5.79
-2 -4 -2 219.67 5.24
-2 -4 -2 230.98 5.1
-2 -4 -3 37.22 2.06
-2 -4 -3 34.83 1.65
-2 -4 -3 39.37 1.82
-2 -4 -4 2.57 0.59
-2 -4 -4 3.9 0.75
-2 -4 -4 2.53 0.54
-2 -4 -4 3.17 0.56
-2 -4 -5 175.37 5.27
-2 -4 -5 177.54 5.28
-2 -4 -5 164.43 4.87
-2 -4 -5 163.85 4.76
-2 -4 -6 19.93 1.59
-2 -4 -6 19.51 1.66
-2 -4 -6 18.45 1.68
-2 -4 -6 17.13 1.42
-2 -4 -6 19.7 1.68
-2 -4 -6 15.84 1.46
-2 -4 -6 19.98 1.54
-2 -4 -7 689.06 14.28
-2 -4 -7 696.92 15.72
-2 -4 -7 704.91 14.87
-2 -4 -7 687.54 14.13
-2 -4 -7 765.45 15.31
-2 -4 -7 631.23 14.26
-2 -4 -7 701.64 14.78
-2 -4 -7 708.21 14.51
-2 -4 -8 0.74 0.44
-2 -4 -8 0.85 0.63
-2 -4 -8 0.88 0.45
-2 -4 -8 2.3 0.8
-2 -4 -8 0.79 0.45
-2 -4 -8 0.96 0.54
-2 -4 -8 1.09 0.51
-2 -4 -8 0.72 0.49
-2 -4 -9 51.51 3.14
-2 -4 -9 54.01 3.27
-2 -4 -9 45.59 2.58
-2 -4 -9 53.7 3.08
-2 -4 -9 45.72 2.81
-2 -4 -9 50.25 2.72
-2 -4 -10 24.68 2.07
-2 -4 -10 21.03 1.88
-2 -4 -10 23.08 1.91
-2 -4 -10 19.4 1.56
-2 -4 -10 20.22 1.72
-2 -4 -10 18.25 1.54
-2 -4 -11 123.71 3.99
-2 -4 -11 127.34 3.79
-2 -4 -11 118.48 3.49
-2 -4 -12 2.35 0.52
-2 -3 13 1.23 0.42
-2 -3 13 0.94 0.38
2 -3 -13 0.38 0.27
2 -3 -13 0.2 0.29
2 -3 -13 0.76 0.34
-2 -3 12 182.9 5.63
2 -3 -12 201.38 5.19
-2 -3 12 188.84 5.66
-2 -3 12 198.48 5.73
2 -3 -12 208.68 5.55
2 -3 -12 209.11 5.68
2 -3 -12 222.35 6
-2 -3 11 74.2 3.53
2 -3 -11 76.59 3.13
-2 -3 11 74.39 3.51
2 -3 -11 79.76 3.35
2 -3 -11 80.04 3.44
2 -3 -11 78.96 3.53
2 -3 -10 136.96 4.99
2 -3 -10 148.14 5.07
-2 -3 10 144.43 4.37
2 -3 -10 152.92 4.83
-2 -3 10 146.87 5.34
2 -3 -10 156.71 5.2
2 -3 -10 143.89 4.99
2 -3 -10 146.53 4.9
-2 -3 10 144.74 4.99
-2 -3 10 135.63 5.18
-2 -3 9 164.07 4.79
-2 -3 9 160.21 4.7
-2 -3 9 168.97 5.71
2 -3 -9 149.83 4.86
2 -3 -9 161.54 5.27
2 -3 -9 164.98 5.22
2 -3 -9 164.91 5.13
-2 -3 9 152.82 5.14
-2 -3 9 150.74 5.44
2 -3 -9 150.46 5.15
2 -3 -9 162.05 5.25
-2 -3 8 15.45 1.28
-2 -3 8 17.72 1.67
2 -3 -8 18.78 1.46
2 -3 -8 18.46 1.48
2 -3 -8 15.82 1.43
-2 -3 8 18.53 1.56
2 -3 -8 18.35 1.48
2 -3 -8 16.84 1.49
-2 -3 8 16.07 1.57
-2 -3 7 453.03 9.49
-2 -3 7 446.15 10.32
2 -3 -7 437.66 9.59
2 -3 -7 487.13 9.84
-2 -3 7 448.67 9.93
2 -3 -7 479.78 9.82
2 -3 -7 446.15 9.89
-2 -3 7 435.89 10.19
-2 -3 6 2.29 0.51
-2 -3 6 2.7 0.62
2 -3 -6 2.38 0.5
2 -3 -6 2.64 0.58
2 -3 -6 2.6 0.52
-2 -3 6 2.31 0.58
-2 -3 6 2.58 0.56
2 -3 -6 2.07 0.4
2 -3 -6 3.33 0.63
-2 -3 5 231.2 5.55
2 -3 -5 213.49 4.86
2 -3 -5 228.33 5.57
2 -3 -4 401.18 8.24
-2 -3 4 402.27 8.09
2 -3 -3 646.43 11.2
-2 -3 3 538.45 10.74
-2 -3 3 624.32 11.19
2 -3 -3 558.68 11.14
2 -3 -2 14.35 0.96
-2 -3 2 14.38 0.7
-2 -3 2 13 0.85
-2 -3 2 13.4 0.72
-2 -3 1 1956.56 31.5
-2 -3 1 1980.93 31.94
-2 -3 1 1901.37 31.89
-2 -3 1 1966.05 31.97
-2 -3 0 1570.92 25.52
-2 -3 0 1512.43 25.11
-2 -3 0 1538.89 25.12
-2 -3 -1 0.86 0.28
-2 -3 -1 0.6 0.28
-2 -3 -2 231.69 4.83
-2 -3 -2 221.97 5.06
-2 -3 -2 225.4 5.27
-2 -3 -3 0.33 0.27
-2 -3 -3 0.48 0.28
-2 -3 -4 1202.89 21.01
-2 -3 -4 1213.2 21.17
-2 -3 -4 1180.81 20.72
2 -3 4 1135.82 19.39
-2 -3 -4 1070.37 20.64
-2 -3 -4 1176.07 20.74
-2 -3 -4 1293.14 20.96
-2 -3 -5 249.68 6.44
-2 -3 -5 281.81 6.62
-2 -3 -5 270.64 6.8
2 -3 5 256.2 5.45
-2 -3 -5 230.28 6.13
-2 -3 -5 256.89 6.43
-2 -3 -5 243.02 6.04
-2 -3 -5 264.9 6.76
-2 -3 -5 249.09 6.54
-2 -3 -5 271.56 6.48
-2 -3 -6 457.04 10.15
2 -3 6 452.1 9.05
-2 -3 -6 454.84 10.09
-2 -3 -6 483.09 10.38
-2 -3 -6 449.98 10.46
-2 -3 -6 446.84 10.43
-2 -3 -6 466.58 10.26
-2 -3 -6 456.69 10.24
-2 -3 -7 44.95 2.56
-2 -3 -7 40.31 2.54
-2 -3 -7 36.43 2.62
-2 -3 -7 35.28 2.22
-2 -3 -7 37.81 2.33
-2 -3 -7 44 2.57
-2 -3 -7 44.38 2.69
-2 -3 -7 47.47 2.76
-2 -3 -7 38.17 2.41
-2 -3 -7 42.19 2.51
-2 -3 -8 10.84 1.36
-2 -3 -8 12.24 1.53
-2 -3 -8 12.15 1.58
-2 -3 -8 13.55 1.5
-2 -3 -8 13.31 1.45
-2 -3 -8 13.33 1.6
-2 -3 -8 13.38 1.57
-2 -3 -8 11.52 1.43
-2 -3 -8 12.65 1.5
-2 -3 -9 2.96 0.74
-2 -3 -9 3.27 0.89
-2 -3 -9 2.54 0.81
-2 -3 -9 3 0.8
-2 -3 -9 2.52 0.71
-2 -3 -9 1.97 0.74
-2 -3 -9 2.8 0.77
-2 -3 -9 2.55 0.77
-2 -3 -9 1.71 0.67
-2 -3 -10 0.25 0.5
-2 -3 -10 0.23 0.43
-2 -3 -10 0.22 0.51
-2 -3 -10 -0.07 0.43
-2 -3 -10 -0.17 0.55
-2 -3 -10 0.07 0.42
-2 -3 -11 1.16 0.58
-2 -3 -11 0.78 0.43
-2 -3 -11 0.57 0.48
-2 -3 -11 0.69 0.44
-2 -3 -11 0.67 0.45
-2 -3 -12 1.45 0.51
-2 -3 -12 1.52 0.53
-2 -3 -12 1.12 0.4
-2 -3 -12 1.25 0.43
2 -2 -14 96.19 2.86
-2 -2 14 97.29 2.73
-2 -2 13 0.15 0.43
-2 -2 13 0.45 0.36
-2 -2 13 0.05 0.4
2 -2 -13 0.81 0.38
2 -2 -13 0.88 0.41
2 -2 -13 0.1 0.25
-2 -2 12 419.29 10.45
-2 -2 12 446.35 10.55
2 -2 -12 479.72 10.65
2 -2 -12 459.45 10.38
2 -2 -12 441.03 10.08
2 -2 -11 108.97 4.22
2 -2 -11 107.51 4.32
-2 -2 11 104.34 4.53
2 -2 -11 104.81 3.66
-2 -2 10 33.8 1.93
-2 -2 10 30.24 2.39
2 -2 -10 28.92 1.85
2 -2 -10 33.23 2.28
2 -2 -10 32.83 2.29
-2 -2 10 30.27 2.14
2 -2 -10 32.28 2.18
2 -2 -10 35.35 2.36
2 -2 -10 29.55 2.2
-2 -2 10 27.31 2.28
2 -2 -9 551.47 11.7
2 -2 -9 559.8 12.34
2 -2 -9 590.23 12.7
2 -2 -9 613.44 12.64
-2 -2 9 549.6 12.33
-2 -2 9 608.79 11.92
2 -2 -9 560.6 12.55
2 -2 -9 571.93 12.58
-2 -2 8 13.76 1.32
2 -2 -8 13.15 1.29
2 -2 -8 13.31 1.28
2 -2 -8 13.28 1.16
-2 -2 8 12.38 1.14
2 -2 -7 100.09 3.29
2 -2 -7 106.44 3.57
2 -2 -7 105.2 3.62
-2 -2 7 94.5 3.5
2 -2 -7 104.81 3.58
-2 -2 7 102.34 3.37
2 -2 -6 728.53 12.69
-2 -2 6 752.35 13.62
2 -2 -6 732.3 13.57
2 -2 -5 140.56 3.2
2 -2 -5 139.71 3.07
-2 -2 4 3212.64 53.06
2 -2 -4 3330.14 52.87
-2 -2 3 1306.77 21.55
2 -2 -3 1311.65 21.47
2 -2 -2 111.02 2.81
-2 -2 2 106.93 2.23
2 -2 -1 470.08 7.93
-2 -2 1 425.56 7.1
2 -2 -1 423.53 8.28
-2 -2 1 404.04 7.96
-2 -2 1 462.71 8.12
-2 -2 0 64.27 1.95
-2 -2 0 60.34 1.89
-2 -2 -1 94 2.49
-2 -2 -1 96.81 2.64
-2 -2 -2 57.64 1.92
-2 -2 -2 58.07 2.06
-2 -2 -2 53.27 1.92
2 -2 2 50.44 1.26
-2 -2 -3 732.97 12.8
2 -2 3 705.83 11.9
-2 -2 -3 699.95 13.08
2 -2 4 273.23 5.61
-2 -2 -4 286.78 6.69
-2 -2 -4 282.99 6.54
-2 -2 -5 236.65 6.16
-2 -2 -5 227.5 6
2 -2 5 241.1 5.22
-2 -2 -5 240.08 6.19
-2 -2 -5 243.07 6.12
-2 -2 -5 231.33 6.02
-2 -2 -6 25.43 1.79
-2 -2 -6 26.21 1.83
-2 -2 -6 21.38 1.55
-2 -2 -6 23.59 1.78
2 -2 6 24.89 1.4
-2 -2 -6 26.71 1.74
-2 -2 -6 23.08 1.68
-2 -2 -6 25.92 1.92
-2 -2 -6 27.14 1.78
-2 -2 -6 21.62 1.72
-2 -2 -6 26.17 1.82
-2 -2 -7 309.84 8.16
-2 -2 -7 317.52 8.28
-2 -2 -7 319.03 8.46
-2 -2 -7 317.1 7.36
-2 -2 -7 316.29 7.95
-2 -2 -7 303.87 8.01
2 -2 7 331.4 7.31
-2 -2 -7 314.84 8.49
-2 -2 -7 311.09 8.38
-2 -2 -7 313.19 8.22
-2 -2 -7 288.88 8.01
-2 -2 -8 649.65 14.26
-2 -2 -8 607.65 14.04
-2 -2 -8 610.61 13.01
-2 -2 -8 661.1 14.4
-2 -2 -8 695.09 14.01
-2 -2 -8 671.94 14.24
2 -2 8 665.9 13.08
-2 -2 -8 659.26 14.71
-2 -2 -8 659.76 14.66
-2 -2 -8 633.81 14.25
-2 -2 -8 609.99 14.16
-2 -2 -9 1144.16 22.58
-2 -2 -9 1188.34 22.78
-2 -2 -9 1086.31 21.24
-2 -2 -9 1183.62 22.5
-2 -2 -9 1280.23 22.61
-2 -2 -9 1179.77 22.68
-2 -2 -9 1213.27 23.44
-2 -2 -9 1114.14 23.13
-2 -2 -9 1141.69 22.79
-2 -2 -9 1026.37 22.42
-2 -2 -10 188.63 6.32
-2 -2 -10 187.35 5.92
-2 -2 -10 204.22 6.88
-2 -2 -10 183.64 6.31
-2 -2 -10 197.69 6.43
-2 -2 -11 160.79 5.4
-2 -2 -11 164.55 5.88
-2 -2 -11 167.32 5.6
-2 -2 -11 173.34 5.64
-2 -2 -12 9.07 1
-2 -2 -12 7.87 1
-2 -2 -12 9.28 1.18
-2 -2 -12 8.49 1.04
-2 -2 -13 0.39 0.3
-2 -2 -13 0.45 0.26
-2 -1 14 244.29 5.92
-2 -1 14 240.94 5.88
-2 -1 14 266.17 6.01
2 -1 -14 273.88 5.88
2 -1 -14 266.27 6.09
2 -1 -14 288.75 6.03
-2 -1 13 103.46 4
-2 -1 13 105.43 3.99
2 -1 -13 112.24 3.82
2 -1 -13 116.03 4.08
2 -1 -13 120.07 4
2 -1 -12 46.22 2.6
-2 -1 12 46.92 2.89
2 -1 -12 48.25 2.79
2 -1 -12 47.11 2.68
-2 -1 11 7.66 1.35
-2 -1 11 6.23 0.85
2 -1 -11 7.71 1.22
2 -1 -11 7.18 1.13
2 -1 -10 56.9 3.1
2 -1 -10 61.64 3.17
-2 -1 10 60.06 2.72
2 -1 -10 63.8 3.27
2 -1 -10 62.46 3.28
2 -1 -10 58.95 3.07
-2 -1 10 51.5 2.87
-2 -1 9 407.6 9.69
2 -1 -9 432.15 9.85
2 -1 -9 409.89 9.68
-2 -1 9 425.61 9.24
2 -1 -8 177.49 5.3
-2 -1 8 187 5.36
2 -1 -8 191.7 5.39
2 -1 -8 165.67 4.54
-2 -1 8 168.37 4.88
2 -1 -7 242 6.15
-2 -1 7 254.43 6.18
2 -1 -7 231.5 5.44
2 -1 -7 220.4 5.73
-2 -1 7 245.72 5.88
-2 -1 6 19.37 1.3
2 -1 -6 19.05 0.88
-2 -1 5 305.89 6.59
2 -1 -5 305.78 5.46
2 -1 -5 323.45 5.95
-2 -1 4 55.61 2.02
2 -1 -4 53.81 1.72
2 -1 -4 53.16 1.87
-2 -1 3 72.2 2.1
2 -1 -3 68.77 2.07
2 -1 -2 273.75 5.02
-2 -1 2 288.12 5.7
2 -1 -2 286.19 5.55
2 -1 -1 3152.96 49.58
2 -1 -1 3267.07 50.23
-2 -1 1 3155.63 50.36
-2 -1 0 33.42 1.31
-2 -1 0 33.16 1.32
2 -1 0 35.47 1.39
-2 -1 0 36.52 1.5
-2 -1 -1 1163.09 20.17
-2 -1 -1 1108.93 20.4
-2 -1 -2 2470.18 40.93
-2 -1 -2 2562.61 41.14
2 -1 2 2500.77 40.16
-2 -1 -3 641.29 11.09
-2 -1 -3 572.55 11.19
-2 -1 -3 560.62 11.04
-2 -1 -3 570.47 11.08
2 -1 3 616.81 10.45
-2 -1 -4 48.3 2.01
2 -1 4 48.45 1.74
-2 -1 -4 45.12 2.05
-2 -1 -4 42.09 2.05
2 -1 5 38.24 1.67
-2 -1 -5 33.99 1.99
-2 -1 -5 39.93 2.09
-2 -1 -5 37.88 2.01
-2 -1 -6 102.37 3.83
-2 -1 -6 112.79 4
-2 -1 -6 94.03 3.47
-2 -1 -6 113.2 3.98
-2 -1 -6 94.99 3.65
2 -1 6 104.8 3.27
-2 -1 -6 107.98 3.63
-2 -1 -6 105.41 4.03
-2 -1 -6 106.52 3.96
-2 -1 -6 97.66 3.74
-2 -1 -7 35.89 2.27
-2 -1 -7 35.35 2.24
-2 -1 -7 33.13 2.14
-2 -1 -7 34.36 1.92
-2 -1 -7 31.53 1.97
2 -1 7 36.76 1.95
-2 -1 -7 30.38 2.1
-2 -1 -7 31.39 2.28
-2 -1 -7 28.9 2.18
-2 -1 -7 34.99 2.29
-2 -1 -7 32.38 2.21
-2 -1 -8 26.09 2.09
-2 -1 -8 35.31 2.36
-2 -1 -8 29.02 1.93
-2 -1 -8 27.53 2.02
-2 -1 -8 27.71 1.96
-2 -1 -8 27.15 2.12
2 -1 8 30.55 1.89
-2 -1 -8 27.9 2.32
-2 -1 -8 28.18 2.3
-2 -1 -8 27.4 2.18
-2 -1 -8 21.29 1.95
-2 -1 -9 11.91 1.49
-2 -1 -9 9.9 1.37
-2 -1 -9 12.03 1.34
-2 -1 -9 10.4 1.24
-2 -1 -9 11.23 1.34
-2 -1 -9 14.44 1.63
2 -1 9 11.04 1.23
-2 -1 -9 12.04 1.64
-2 -1 -9 9.3 1.4
-2 -1 -9 8.88 1.38
-2 -1 -9 12.18 1.54
-2 -1 -10 162.29 5.71
-2 -1 -10 166.38 5.44
-2 -1 -10 169.22 6.43
-2 -1 -10 177.18 6.16
-2 -1 -10 172.04 6.05
-2 -1 -11 88.54 3.71
-2 -1 -11 89.72 4.05
-2 -1 -11 92.52 4.13
-2 -1 -11 88.28 4.26
-2 -1 -12 100.43 3.89
-2 -1 -12 102.71 3.93
-2 -1 -12 101.42 4.14
-2 -1 -13 0.04 0.27
-2 -1 -13 0.05 0.35
-2 -1 -13 -0.08 0.29
-2 0 14 101.32 3.34
-2 0 14 109.52 3.46
-2 0 14 107.23 3.37
2 0 -14 100.74 3.15
2 0 -14 112.38 3.45
2 0 -14 118.04 3.36
-2 0 13 0.82 0.54
-2 0 13 0.44 0.53
2 0 -13 0.58 0.45
2 0 -13 0.65 0.47
2 0 -13 0.22 0.35
-2 0 12 380.05 8
2 0 -12 357.59 8.99
-2 0 12 377.04 9.77
2 0 -12 372.39 9.29
2 0 -12 350.71 9.06
-2 0 11 -0.09 0.56
2 0 -11 -0.07 0.48
-2 0 11 0.21 0.36
2 0 -11 -0.08 0.49
2 0 -10 590.33 12.72
-2 0 10 589.62 12.53
-2 0 10 575.02 11.88
2 0 -10 534.11 12.5
2 0 -10 531.17 12.54
2 0 -10 565.73 12.57
2 0 -10 541.76 12.58
2 0 -9 0.13 0.36
2 0 -9 0.27 0.39
2 0 -9 -0.13 0.33
-2 0 9 0.5 0.42
-2 0 9 0.27 0.36
-2 0 8 1396.05 25.95
2 0 -8 1434.16 26.08
-2 0 8 1468.77 25.85
-2 0 7 -0.05 0.27
2 0 -7 0.09 0.14
-2 0 7 -0.04 0.25
2 0 -7 0.19 0.27
2 0 -6 599.26 11.44
2 0 -6 602.35 10.97
-2 0 5 0.21 0.24
2 0 -5 0.1 0.16
-2 0 4 4691.15 73.55
2 0 -4 4705.36 73.42
2 0 -4 4538.7 73.29
-2 0 3 0.29 0.29
2 0 -3 0.14 0.15
2 0 -3 0.77 0.27
-2 0 2 2151.87 34.33
2 0 -2 2114.8 34.35
-2 0 2 2218.85 35.02
2 0 -1 0.13 0.16
-2 0 1 0.29 0.15
-2 0 1 0.11 0.21
-2 0 1 0.55 0.26
-2 0 0 7.32 0.61
-2 0 0 6.72 0.59
-2 0 0 6.62 0.66
-2 0 0 7.98 0.66
-2 0 -1 0.47 0.25
-2 0 -1 0.67 0.27
-2 0 -1 0.35 0.27
-2 0 -1 0.17 0.21
-2 0 -2 22.86 1.15
-2 0 -2 20.58 1.2
-2 0 -2 22.61 1.21
-2 0 -2 21.95 1.21
-2 0 -3 0.23 0.29
-2 0 -3 0.13 0.27
-2 0 -3 0.3 0.29
2 0 3 0.15 0.09
-2 0 -3 0.04 0.27
2 0 4 1049.6 17.83
-2 0 -4 1015.14 18.59
-2 0 -4 1045.69 18.52
-2 0 -5 -0.05 0.3
-2 0 -5 -0.34 0.34
2 0 5 0.37 0.3
-2 0 -5 -0.05 0.33
-2 0 -6 2.16 0.65
-2 0 -6 1.65 0.58
-2 0 -6 1.87 0.54
-2 0 -6 2.24 0.54
-2 0 -6 1.51 0.51
2 0 6 2.07 0.49
-2 0 -6 2.33 0.6
-2 0 -7 0.42 0.44
-2 0 -7 0.35 0.39
-2 0 -7 0.2 0.35
-2 0 -7 0.06 0.32
-2 0 -7 0.2 0.33
-2 0 -7 0.47 0.39
2 0 7 0.4 0.33
-2 0 -7 -0.08 0.45
-2 0 -7 0.44 0.42
-2 0 -8 496.54 11.8
-2 0 -8 550.28 11.82
-2 0 -8 529.33 11.21
2 0 8 503.37 10.93
-2 0 -8 545.98 12.07
-2 0 -8 470.95 12.03
-2 0 -8 452.36 11.8
-2 0 -8 509.67 11.96
-2 0 -8 478.65 11.78
-2 0 -9 -0.09 0.47
-2 0 -9 0.36 0.6
-2 0 -9 0.43 0.53
-2 0 -9 0.07 0.46
-2 0 -9 2.31 0.79
2 0 9 0.13 0.36
-2 0 -9 0.68 0.54
-2 0 -9 0.35 0.44
-2 0 -9 1.46 0.79
-2 0 -10 1397.2 26.08
-2 0 -10 1491.39 26.42
-2 0 -10 1459.64 27.13
-2 0 -10 1358.8 26.77
-2 0 -10 1333.83 27.29
-2 0 -11 -0.08 0.52
-2 0 -11 -0.24 0.53
-2 0 -11 -0.07 0.49
-2 0 -11 0.19 0.67
-2 0 -12 62.51 3.01
-2 0 -12 62.06 3
-2 0 -12 62.44 3.23
-2 0 -13 -0.13 0.32
-2 0 -13 0.05 0.35
-2 0 -13 0.17 0.3
-2 1 14 260.18 6.21
-2 1 14 262.41 6.2
-2 1 14 268.2 6.18
2 1 -14 276.41 5.95
2 1 -14 275.09 6.16
2 1 -14 278.2 5.98
-2 1 13 107.13 4.16
-2 1 13 118.25 4.27
2 1 -13 108.35 3.74
2 1 -13 118.37 4.05
2 1 -13 108.86 3.8
-2 1 12 49.14 2.23
2 1 -12 48.12 2.58
-2 1 12 45.31 2.91
2 1 -12 44.14 2.64
2 1 -12 46.3 2.6
-2 1 11 5.94 1.21
2 1 -11 7.49 1.12
-2 1 11 6.05 0.88
2 1 -11 6.64 1.13
2 1 -10 57.62 3.06
-2 1 10 56.35 2.89
-2 1 10 56.73 2.77
2 1 -10 59.27 3.13
2 1 -10 59.18 3.05
2 1 -10 62.54 3.23
2 1 -10 58.02 3.11
-2 1 9 435.67 9.66
2 1 -9 394.48 9.66
-2 1 9 386.78 9.3
2 1 -9 400.3 9.62
2 1 -9 450.96 9.94
-2 1 8 187.02 5.24
2 1 -8 194.71 5.48
-2 1 8 176.8 5.18
2 1 -8 168.95 4.28
2 1 -8 178.36 5.2
2 1 -7 234.5 5.26
-2 1 7 238.84 6.04
-2 1 7 241.58 5.9
2 1 -7 244.22 6.15
-2 1 6 17.62 1.17
2 1 -6 15.17 0.97
-2 1 5 313.37 6.38
2 1 -5 300.15 5.35
-2 1 4 54.26 1.77
2 1 -4 55.09 1.58
2 1 -4 52.61 1.79
-2 1 4 51.95 1.96
-2 1 3 68.33 2.29
-2 1 3 64.11 2.12
2 1 -3 66.73 1.66
2 1 -2 264.93 4.8
-2 1 2 266.11 5.61
2 1 -1 3156.6 48.67
2 1 -1 2920.39 49.45
-2 1 1 3031.32 49.44
-2 1 1 3224.86 49.57
-2 1 0 29.85 1.24
-2 1 0 30.94 1.26
-2 1 0 34.38 1.48
-2 1 0 30.31 1.31
-2 1 -1 1304.33 20.98
-2 1 -1 1311.44 21.4
-2 1 -1 1275.6 21.16
-2 1 -2 2398.7 38.38
-2 1 -2 2421.1 38.75
-2 1 -2 2292.4 38.53
2 1 3 567.92 9.88
-2 1 -3 578.24 11.11
-2 1 -3 574.05 10.93
-2 1 -3 568.8 10.92
-2 1 -4 51.49 2.03
-2 1 -4 46.79 2.09
-2 1 -4 42.74 2.03
-2 1 -4 45.84 2.15
2 1 4 47.29 1.41
-2 1 -5 33.95 1.99
-2 1 -5 37.96 2.01
-2 1 -5 33.46 1.92
-2 1 -6 108.68 3.93
-2 1 -6 100.54 3.84
-2 1 -6 107.6 3.61
-2 1 -6 107.04 3.76
-2 1 -6 96.71 3.7
2 1 6 103.89 3.58
-2 1 -6 103.36 3.96
-2 1 -6 105.31 3.85
-2 1 -7 35.97 2.29
-2 1 -7 34.48 2.14
-2 1 -7 34.81 1.83
-2 1 -7 34.04 1.96
2 1 7 40.88 2.21
-2 1 -7 34.48 2.23
-2 1 -7 37.65 2.45
-2 1 -7 33.27 2.34
-2 1 -7 34.67 2.29
-2 1 -7 32.99 2.24
-2 1 -8 26.67 2.09
-2 1 -8 24.37 1.9
-2 1 -8 28.36 1.95
-2 1 -8 25.15 1.71
-2 1 -8 25.64 2.06
2 1 8 28.3 1.94
-2 1 -8 27.61 2.29
-2 1 -8 28.14 2.28
-2 1 -8 29.13 2.23
-2 1 -8 24.85 2.07
-2 1 -9 10.99 1.44
-2 1 -9 11.68 1.35
-2 1 -9 9.91 1.39
2 1 9 13.08 1.39
-2 1 -9 10.4 1.15
-2 1 -9 11.4 1.34
-2 1 -9 12.92 1.6
-2 1 -9 9.59 1.47
-2 1 -9 10.17 1.43
-2 1 -9 11.63 1.54
-2 1 -10 162.63 5.91
-2 1 -10 166.38 5.62
-2 1 -10 158.93 6.21
-2 1 -10 173.38 6.04
-2 1 -11 96.06 4.14
-2 1 -11 94.06 3.94
-2 1 -11 95.87 4.41
-2 1 -11 94.5 4.09
-2 1 -12 100.91 4.09
-2 1 -12 103.07 3.89
-2 1 -12 99.72 3.87
-2 1 -13 0.28 0.37
-2 1 -13 0.04 0.27
-2 1 -13 -0.04 0.28
2 2 -14 102.35 2.9
-2 2 14 109.25 3.04
-2 2 13 0.14 0.23
-2 2 13 -0.11 0.41
-2 2 13 0.49 0.35
-2 2 13 -0.22 0.47
2 2 -13 0.98 0.38
2 2 -13 0.5 0.33
2 2 -13 0.5 0.32
-2 2 12 463.31 9.54
-2 2 12 443.07 10.85
-2 2 12 436.87 10.8
2 2 -12 444.99 10.04
2 2 -12 459.74 10.39
2 2 -12 452.97 10.23
-2 2 11 112.71 4.84
2 2 -11 104.41 4.1
2 2 -11 113.16 4.38
-2 2 11 110.97 3.97
-2 2 10 33.86 2.13
-2 2 10 34.01 2.6
-2 2 10 29.68 2.03
2 2 -10 32.68 2.17
-2 2 10 29.95 2.45
2 2 -10 30.12 2.16
2 2 -10 31.41 2.17
2 2 -10 29.49 2.13
2 2 -10 26.59 2.07
-2 2 9 595.8 12.45
2 2 -9 567.21 12.51
-2 2 9 612.24 12.7
2 2 -9 583.84 12.78
2 2 -9 638.04 12.8
2 2 -9 557.44 12.6
2 2 -9 586.63 12.52
-2 2 8 12.55 1.18
-2 2 8 13.35 1.31
2 2 -8 11.43 0.99
2 2 -8 11.9 1.19
2 2 -7 99.77 3.5
-2 2 7 102.13 3.34
-2 2 7 96.79 3.55
2 2 -7 100.25 3.11
2 2 -7 98.43 3.41
-2 2 6 765.39 14.22
-2 2 6 744.91 14.23
-2 2 6 756.68 13.64
-2 2 5 141.15 3.49
2 2 -5 140.48 3.62
-2 2 4 3263.47 49.71
-2 2 4 3028.84 50.54
2 2 -4 2852.98 49.95
-2 2 4 3346.12 50.71
-2 2 3 1201.63 19.86
-2 2 3 1245.45 20.9
-2 2 3 1247.79 20.87
-2 2 2 114.44 2.2
2 2 -2 102.67 2.81
-2 2 2 118.45 2.73
-2 2 2 103.02 2.91
-2 2 2 113.93 2.9
-2 2 1 437.76 8.02
2 2 -1 407.24 7.87
-2 2 1 431.35 7.97
-2 2 1 444.08 7.96
-2 2 1 416.5 7.9
2 2 0 57.27 1.17
2 2 0 54.06 1.75
-2 2 0 56.26 1.75
-2 2 0 60.41 1.84
-2 2 0 58.66 1.8
-2 2 -1 89.54 2.45
-2 2 -1 98.17 2.94
2 2 1 85.1 2.33
-2 2 -1 99.33 2.84
-2 2 -1 96.6 2.67
-2 2 -2 55.05 1.85
-2 2 -2 53.2 2.16
2 2 2 51.66 1.6
-2 2 -2 51.45 2.03
-2 2 -2 49.24 1.92
-2 2 -3 680.63 13.19
-2 2 -3 659.78 13.18
-2 2 -3 709.92 13.38
2 2 3 710.2 12.19
2 2 3 747.47 12.52
-2 2 -4 260.63 6.39
-2 2 -4 267.11 6.44
-2 2 -4 267.46 6.55
-2 2 -5 217.88 5.86
-2 2 -5 217.01 5.86
2 2 5 238.57 4.99
-2 2 -5 230.51 6.11
-2 2 -6 22.23 1.54
-2 2 -6 23.87 1.43
-2 2 -6 24.32 1.74
-2 2 -6 23.86 1.72
2 2 6 26.16 1.73
-2 2 -6 24.68 1.77
-2 2 -6 22.43 1.7
-2 2 -6 22.12 1.79
-2 2 -6 24.31 1.66
-2 2 -6 23.98 1.81
-2 2 -7 321.8 7.38
-2 2 -7 307.57 8.14
-2 2 -7 319.58 8.19
-2 2 -7 311.95 8.18
-2 2 -7 303.48 8.11
-2 2 -7 285.55 8.26
-2 2 -7 299 8.31
-2 2 -8 653.62 12.98
-2 2 -8 631.51 13.81
2 2 8 631.86 13.32
-2 2 -8 603.99 13.66
-2 2 -8 636.47 14.36
-2 2 -8 605.01 14.03
-2 2 -8 626.57 13.88
-2 2 -8 589.32 13.75
-2 2 -9 1150.87 22.35
-2 2 -9 1167.31 22.18
2 2 9 1102.11 21.28
-2 2 -9 1130.69 22.03
-2 2 -9 1077.49 20.9
-2 2 -9 1187 20.67
-2 2 -9 1154.53 22.69
-2 2 -9 1119.14 22.58
-2 2 -10 192.84 6.69
-2 2 -10 190.06 5.25
-2 2 -10 191.14 6.32
-2 2 -10 187.08 6.28
-2 2 -11 165.3 5.8
-2 2 -11 166.11 5.5
-2 2 -11 164.73 5.5
-2 2 -12 9.2 1.04
-2 2 -12 8.26 1.05
-2 2 -12 9 1.04
-2 2 -12 10.37 1.21
-2 2 -13 0.51 0.3
-2 2 -13 0.29 0.26
-2 3 13 3.35 0.62
-2 3 13 0.54 0.24
-2 3 13 2.58 0.52
-2 3 13 2.52 0.55
2 3 -13 -0.07 0.24
2 3 -13 0.15 0.3
2 3 -13 0.13 0.25
-2 3 12 211.51 5.38
-2 3 12 215.51 6.25
-2 3 12 200.95 6.01
-2 3 12 202.63 6.07
2 3 -12 198.03 5.46
2 3 -12 203.44 5.71
2 3 -12 208.33 5.59
-2 3 11 77.94 3.28
-2 3 11 86.94 3.95
-2 3 11 75.57 3.71
2 3 -11 79.48 3.29
2 3 -11 72.98 3.33
2 3 -11 78.5 3.34
-2 3 10 151.1 5.03
-2 3 10 154.69 5.63
2 3 -10 143.03 4.89
2 3 -10 135.07 4.78
-2 3 10 144.96 4.78
2 3 -10 147.03 4.8
-2 3 10 137.02 5.36
2 3 -10 138.72 4.92
2 3 -10 142.41 4.9
2 3 -9 146.17 4.98
2 3 -9 149.04 4.97
-2 3 9 155.02 5.19
-2 3 9 159 5.69
2 3 -9 152.78 4.27
2 3 -9 142.74 4.89
2 3 -9 159.35 4.99
-2 3 9 158.96 4.91
2 3 -9 157.59 4.93
2 3 -9 145.96 4.46
-2 3 9 153.18 5.59
2 3 -8 17.93 1.49
-2 3 8 19.5 1.64
-2 3 8 19.25 1.78
2 3 -8 16.26 1.36
2 3 -8 15.26 1.38
2 3 -8 20.09 1.52
-2 3 8 15.01 1.29
2 3 -8 17.56 1.33
-2 3 8 13.78 1.5
-2 3 7 480.52 10.52
-2 3 7 468.01 10.71
2 3 -7 487.46 9.92
2 3 -7 487.98 10.01
-2 3 7 453.84 9.57
2 3 -7 495.71 9.8
-2 3 7 446.71 10.24
-2 3 7 432.92 10.41
-2 3 6 2.09 0.54
-2 3 6 3.01 0.5
2 3 -6 1.7 0.44
-2 3 6 1.71 0.5
2 3 -6 2.69 0.52
-2 3 6 2.87 0.61
2 3 -6 3.2 0.52
2 3 -6 2.04 0.49
-2 3 5 218.58 5.7
-2 3 5 214.4 4.85
-2 3 5 231.56 5.68
-2 3 5 238.75 5.9
2 3 -5 217.41 5.28
-2 3 5 228.15 5.79
-2 3 4 393.8 7.43
-2 3 4 419.74 8.44
-2 3 4 421.62 8.67
-2 3 3 600.04 10.11
-2 3 3 619.31 11.07
-2 3 3 614.26 10.58
-2 3 2 13.74 0.4
-2 3 2 13.78 0.88
-2 3 2 13.73 1
2 3 -2 13.31 0.89
-2 3 2 14.97 0.89
-2 3 2 14.78 0.88
-2 3 1 2052.58 32.68
-2 3 1 2018.6 32.64
-2 3 1 2101.96 32.2
-2 3 0 1518.17 26.56
2 3 0 1599.99 25.96
-2 3 0 1608.35 26.18
-2 3 0 1600.25 25.85
-2 3 0 1582.08 25.86
-2 3 -1 0.58 0.32
2 3 1 0.58 0.21
-2 3 -1 0.37 0.19
-2 3 -2 236.31 4.86
-2 3 -2 227.89 5.67
2 3 2 221.17 4.41
2 3 2 229.17 4.94
-2 3 -2 211.34 5.14
-2 3 -2 211.28 5
-2 3 -3 0.15 0.2
-2 3 -3 0.11 0.25
-2 3 -3 -0.08 0.22
2 3 3 0.22 0.12
2 3 3 0.09 0.19
-2 3 -4 1148.28 21.1
2 3 4 1138.85 20.36
-2 3 -4 1178.46 21.27
-2 3 -5 263.17 6.86
-2 3 -5 250.61 6.2
-2 3 -5 292.62 6.32
-2 3 -5 263.77 6.31
-2 3 -5 276.69 6.71
-2 3 -5 257.79 6.64
-2 3 -5 294.3 7.49
2 3 5 273.07 6.12
-2 3 -5 279.17 6.5
-2 3 -5 273.04 6.74
-2 3 -5 267.79 6.78
-2 3 -6 413.2 10
-2 3 -6 454.32 10.13
-2 3 -6 435.65 9.33
-2 3 -6 456.98 9.61
-2 3 -6 433.49 9.97
-2 3 -6 463.98 10.15
-2 3 -6 490.32 9.84
2 3 6 448.05 9.21
-2 3 -6 448.22 10.49
-2 3 -6 432.73 10.24
-2 3 -7 39.78 2.47
-2 3 -7 39.03 2.42
-2 3 -7 43.53 2.25
-2 3 -7 39 2.17
-2 3 -7 43.26 2.5
-2 3 -7 37.51 2.34
2 3 7 46.01 2.59
-2 3 -7 37.98 2.14
-2 3 -7 40.26 2.62
-2 3 -7 35.51 2.42
-2 3 -8 13.07 1.34
-2 3 -8 13.9 1.37
-2 3 -8 12.65 1.29
-2 3 -8 16.14 1.6
2 3 8 10.35 1.28
-2 3 -8 11.93 1.37
-2 3 -8 11.27 1.47
-2 3 -8 13.2 1.54
-2 3 -8 11.27 1.41
-2 3 -8 14.43 1.54
-2 3 -9 2.8 0.8
-2 3 -9 2.24 0.74
-2 3 -9 3.33 0.77
-2 3 -9 2.9 0.67
-2 3 -9 1.7 0.55
-2 3 -9 2.82 0.73
2 3 9 2.48 0.7
-2 3 -9 2.37 0.72
-2 3 -9 2.68 0.76
-2 3 -9 3.26 0.83
-2 3 -10 -0.29 0.39
-2 3 -10 0.16 0.28
-2 3 -10 0.07 0.38
-2 3 -10 -0.14 0.46
-2 3 -10 0.33 0.51
-2 3 -11 1.66 0.59
-2 3 -11 0.83 0.46
-2 3 -11 0.24 0.21
-2 3 -11 0.69 0.49
-2 3 -11 0.55 0.45
-2 3 -12 1.37 0.44
-2 3 -12 0.47 0.4
-2 3 -12 1.28 0.49
-2 3 -12 1.44 0.42
2 4 -13 5.93 0.63
-2 4 12 0.04 0.15
-2 4 12 54.83 2.17
2 4 -12 50.51 1.98
-2 4 12 56.76 2.16
-2 4 12 0.04 0.14
-2 4 11 7.94 1.03
-2 4 11 8.19 1.11
-2 4 11 8.45 1.11
-2 4 11 8.19 1.08
2 4 -11 7.47 0.92
2 4 -11 7.48 0.97
2 4 -11 9.26 0.99
-2 4 10 285.02 7.53
-2 4 10 281.56 7.55
-2 4 10 281.57 7.55
2 4 -10 268.58 6.81
2 4 -10 258.68 6.87
2 4 -10 250.52 6.87
2 4 -9 84.81 3.51
-2 4 9 94.34 4
2 4 -9 90.49 3.2
-2 4 9 96.64 4.02
-2 4 9 95.43 4.04
2 4 -9 92.99 3.5
2 4 -9 93.94 3.57
-2 4 9 91.44 4.04
2 4 -8 276.94 6.99
2 4 -8 273.44 7
-2 4 8 295.02 7.86
-2 4 8 308.98 7.8
2 4 -8 270.78 6.73
-2 4 8 295.87 7.7
2 4 -8 274.41 6.85
2 4 -8 278.32 6.86
-2 4 8 283.4 6.83
2 4 -8 265.57 6.91
-2 4 8 282.64 7.63
-2 4 8 265.95 7.44
2 4 -7 564.18 11.6
-2 4 7 585.73 12.67
-2 4 7 621.34 12.47
2 4 -7 535.84 11.62
2 4 -7 577.89 11.45
-2 4 7 570.03 11.33
2 4 -7 610.83 11.95
-2 4 7 592.49 12.69
-2 4 7 574.89 12.26
-2 4 6 1231.38 21.26
-2 4 6 1123.34 20.05
-2 4 6 1231.17 21.37
2 4 -6 1118.24 20.74
-2 4 6 1177.43 21.75
2 4 -6 1130.93 20.7
2 4 -6 1165.63 20.21
2 4 -5 1350.81 22.96
-2 4 5 1317.15 24.35
-2 4 5 1347.19 22.78
-2 4 5 1353.54 24.48
-2 4 5 1390.51 23.81
2 4 -4 1271.78 22.97
-2 4 4 1300.29 21.87
-2 4 4 1347.06 22.75
2 4 -3 944.45 16.34
-2 4 3 881.81 15.92
-2 4 3 903.27 16.87
-2 4 3 914.97 15.8
-2 4 3 923.73 15.82
-2 4 2 381.97 7.88
-2 4 2 393.28 8.31
2 4 -2 394.4 7.8
-2 4 2 392.29 7.29
-2 4 2 376.04 7.23
-2 4 1 34.26 1.73
-2 4 1 34.73 1.7
2 4 -1 36.01 1.53
-2 4 1 34.73 1.24
-2 4 1 34.04 1.23
-2 4 0 85 2.7
2 4 0 82.74 2.45
-2 4 0 85.62 2.2
2 4 1 126.61 3.46
-2 4 -1 119.31 3.16
2 4 1 127.45 3.03
-2 4 -1 125.09 2.9
2 4 2 232.86 4.57
2 4 2 217.11 5.25
-2 4 -2 214.7 4.55
-2 4 -2 229.48 5.05
-2 4 -2 220.69 5.22
-2 4 -3 39.24 1.78
-2 4 -3 43.14 2.08
2 4 3 38.18 1.81
-2 4 -3 37.82 1.82
-2 4 -4 3.23 0.58
-2 4 -4 3.84 0.68
-2 4 -4 3.4 0.63
-2 4 -4 2.43 0.5
-2 4 -4 2.99 0.75
2 4 4 4.65 0.65
-2 4 -4 1.97 0.49
-2 4 -5 163.05 4.77
-2 4 -5 162.31 4.82
-2 4 -5 177.84 5.05
-2 4 -5 164.35 4.64
-2 4 -5 164.31 5.61
2 4 5 170.46 4.79
-2 4 -5 149.62 4.77
-2 4 -6 21.7 1.66
-2 4 -6 23.81 1.61
-2 4 -6 17.91 1.51
2 4 6 19.41 1.47
-2 4 -6 18.3 1.64
-2 4 -6 19.71 1.64
-2 4 -7 705.45 14.61
-2 4 -7 767.38 14.54
-2 4 -7 696.31 14.3
-2 4 -7 695.14 14.98
-2 4 -7 670 14.73
-2 4 -7 755.55 14.76
-2 4 -7 715.51 14.55
-2 4 -8 1.1 0.5
-2 4 -8 0.57 0.47
-2 4 -8 0.84 0.53
-2 4 -8 1.13 0.49
-2 4 -8 1.09 0.51
-2 4 -9 47.44 2.64
-2 4 -9 54.44 2.84
-2 4 -9 51.97 2.78
-2 4 -9 49.53 2.6
-2 4 -9 47.7 2.6
-2 4 -10 20.85 1.64
-2 4 -10 22.84 1.77
-2 4 -10 20.64 1.73
-2 4 -10 20.27 1.55
-2 4 -10 19.7 1.56
-2 4 -11 121.01 3.77
-2 4 -11 119.27 3.87
-2 4 -11 127.41 4.19
-2 4 -11 126.43 3.67
-2 5 12 14.59 1.05
2 5 -12 14.69 1.08
-2 5 11 12.35 1.2
-2 5 10 22.18 1.75
2 5 -10 19.7 1.31
-2 5 9 328.11 8.59
2 5 -9 310.88 7.36
2 5 -8 23.27 1.76
-2 5 8 22.38 1.92
-2 5 8 22.84 1.98
2 5 -8 26.01 1.69
2 5 -7 1163.05 21.95
-2 5 7 1185.91 23.01
2 5 -7 1236.24 21.72
-2 5 6 142.51 4.94
2 5 -6 132.75 4.29
-2 5 6 118.56 4.64
2 5 -6 113.57 4.08
-2 5 6 131.62 4.66
2 5 -6 130.17 4.13
2 5 -5 9.33 0.99
2 5 -5 10.28 1.07
-2 5 5 11.08 1.29
-2 5 5 10.94 1.23
2 5 -4 3.47 0.61
2 5 -4 3.5 0.65
-2 5 4 3.23 0.72
-2 5 4 2.31 0.62
-2 5 3 1.81 0.44
-2 5 3 1.88 0.56
2 5 -3 2.21 0.49
-2 5 3 1.92 0.57
-2 5 3 1.45 0.52
2 5 -2 9.96 0.9
-2 5 2 8.98 1.11
-2 5 2 10.53 1.16
-2 5 2 10.75 1.03
2 5 -2 9.65 0.88
-2 5 2 9.81 1.05
2 5 -1 268.26 6.07
-2 5 1 254.49 7.03
-2 5 1 283.12 7.13
-2 5 1 283.21 6.83
2 5 -1 293.58 6.13
2 5 -1 257.99 6.22
-2 5 1 275.79 6.63
-2 5 0 111.44 4.07
-2 5 0 106.74 3.92
-2 5 0 115.52 3.97
2 5 0 117.03 3.17
-2 5 0 108.71 3.48
-2 5 -1 772.89 15.91
-2 5 -1 793.15 15.73
-2 5 -1 807.01 15.96
2 5 1 826.25 14.24
2 5 1 847.76 15.17
-2 5 -1 806.69 14.58
2 5 2 1761.81 30.42
-2 5 -2 1709.63 31.28
2 5 3 288.04 6.84
-2 5 -3 265.5 7.21
-2 5 -3 276.88 6.45
-2 5 -3 263.63 6.43
-2 5 -4 223.86 6.39
2 5 4 233.57 6.17
-2 5 -4 214.43 6.2
-2 5 -4 227.61 5.72
-2 5 -4 220.81 5.61
-2 5 -5 36.2 2.26
-2 5 -5 44.4 2.92
2 5 5 37.54 2.21
-2 5 -5 37.98 2.31
-2 5 -5 40.36 2.08
-2 5 -5 42.57 2.16
-2 5 -6 52.87 2.7
-2 5 -6 46.1 2.63
-2 5 -6 45.24 2.99
2 5 6 43.54 2.48
-2 5 -6 43.92 2.34
-2 5 -6 44.67 2.32
2 5 7 19.26 1.82
-2 5 -7 18.11 1.65
-2 5 -7 16.59 1.45
-2 5 -8 5.05 0.88
-2 5 -8 5.95 1
-2 5 -9 8.24 1.08
-2 5 -9 9.07 1.16
-2 5 -9 9.96 1.16
-2 5 -10 4.66 0.78
-2 5 -10 6.01 0.84
-2 5 -11 64.35 2.53
-2 5 -11 66.1 2.34
2 6 -12 90.51 2.53
-2 6 12 84.47 2.41
2 6 -11 1.92 0.48
-2 6 11 1.44 0.46
2 6 -10 20.14 1.44
-2 6 10 17.04 1.46
2 6 -9 4.99 0.82
2 6 -9 4.85 0.77
-2 6 9 4.7 0.93
2 6 -8 27.57 1.89
2 6 -8 23.76 1.69
2 6 -7 204.18 5.74
2 6 -7 185.43 5.79
-2 6 7 179.49 6.26
2 6 -7 186.65 5.5
-2 6 7 200.73 6.41
2 6 -6 2032.16 34.08
2 6 -6 1988.33 33.95
-2 6 6 1928.44 35.4
2 6 -6 1937.44 34.46
-2 6 6 2035.69 34.99
-2 6 6 1851.65 35.1
-2 6 5 82.1 3.63
-2 6 5 78.69 3.58
2 6 -5 73.54 2.73
2 6 -5 77.46 3.26
2 6 -5 77.17 3.41
2 6 -4 291.29 7.29
-2 6 4 310.5 8.28
2 6 -4 302.87 7.1
-2 6 4 299.82 8.05
2 6 -4 323.23 7.54
-2 6 4 297.88 8.22
2 6 -4 302.7 6.98
-2 6 3 7.43 1.12
2 6 -3 5.53 0.8
-2 6 3 7.28 1.09
2 6 -3 7.72 0.9
2 6 -3 5.81 0.77
-2 6 3 6.67 1.02
-2 6 2 51.68 2.95
2 6 -2 48.92 2.3
-2 6 2 53.53 2.9
-2 6 2 48.49 2.52
2 6 -2 55.88 2.37
2 6 -2 51.39 2.34
-2 6 2 48.25 2.6
2 6 -1 12.16 1.08
-2 6 1 11.76 1.43
-2 6 1 13.95 1.36
2 6 -1 11.96 1.02
2 6 -1 12.63 1.14
-2 6 1 13.28 1.28
-2 6 1 10.9 1.3
-2 6 0 4.59 0.67
2 6 0 4.16 0.66
-2 6 0 5.51 0.99
-2 6 0 6.28 0.97
2 6 0 5.05 0.76
2 6 0 5.63 0.68
-2 6 0 4.27 0.72
-2 6 0 5.36 0.94
-2 6 -1 549.16 10.77
2 6 1 532.53 10.71
-2 6 -1 505.67 10.59
-2 6 -1 514.46 11.85
-2 6 -2 0.58 0.37
-2 6 -2 0.9 0.53
-2 6 -2 0.47 0.45
-2 6 -2 1.13 0.48
-2 6 -3 7.07 0.87
-2 6 -3 6.38 1.05
-2 6 -3 6.24 1.1
2 6 3 7.36 1.01
-2 6 -3 9.8 1.25
2 6 4 2.67 0.69
-2 6 -4 2.13 0.5
-2 6 -4 2.83 0.62
-2 6 -5 58.24 2.58
-2 6 -5 65.33 2.88
-2 6 -5 54.37 3.42
2 6 5 55.55 2.99
-2 6 -5 57.23 3.09
-2 6 -6 42.09 2.55
2 6 6 44.56 2.74
-2 6 -6 39.89 2.9
2 6 6 41.22 2.57
-2 6 -6 41.81 2.64
-2 6 -6 43.72 2.25
-2 6 -6 47.57 2.53
-2 6 -7 69.24 3.41
-2 6 -7 70.69 3.24
-2 6 -7 69.97 3
-2 6 -8 16.41 1.57
-2 6 -8 16.42 1.53
-2 6 -8 17.79 1.46
2 6 9 0.85 0.37
-2 6 -9 0.46 0.41
-2 6 -9 0.85 0.45
-2 6 -10 0.47 0.32
-2 6 -10 0.48 0.32
-2 7 11 33.76 1.48
2 7 -10 6.25 0.74
-2 7 10 6.5 0.82
2 7 -9 108.32 3.54
2 7 -9 111.93 3.68
2 7 -8 1.41 0.53
2 7 -8 0.22 0.39
-2 7 8 0.68 0.56
2 7 -7 11.29 1.2
2 7 -7 11.22 1.2
-2 7 7 8.17 1.23
2 7 -6 82.04 3.44
2 7 -6 83.69 3.65
2 7 -6 89.6 3.46
-2 7 6 79.49 3.83
2 7 -5 948.5 18.55
-2 7 5 922.98 19.49
2 7 -5 883.36 18.79
2 7 -5 1021.93 18.2
-2 7 5 988.86 19.08
-2 7 5 929.81 19.17
-2 7 4 1022.32 19.71
2 7 -4 1035.2 18.92
-2 7 4 1002.95 19.85
2 7 -4 927.65 17.86
-2 7 4 888.36 19.49
2 7 -4 965.34 18.68
2 7 -4 1049.86 19.54
-2 7 3 275.68 7.93
2 7 -3 307.62 7.45
-2 7 3 284.79 8.3
2 7 -3 274.67 6.92
-2 7 3 265.2 7.8
2 7 -3 297.18 7.27
-2 7 2 35.15 2.48
2 7 -2 36.4 2.12
-2 7 2 36.32 2.61
-2 7 2 33.18 2.24
2 7 -2 34.02 2.02
-2 7 2 34.46 2.32
2 7 -2 34.91 1.99
-2 7 1 12.19 1.48
-2 7 1 9.8 1.41
2 7 -1 9.93 1.1
-2 7 1 11.52 1.37
2 7 -1 10.35 1.12
-2 7 1 9.04 1.15
2 7 -1 10.57 1.05
-2 7 0 372.3 9.68
-2 7 0 361.26 9.51
2 7 0 370.67 8.75
-2 7 0 391.39 10.07
2 7 0 369.09 8.49
-2 7 -1 644.8 12.49
-2 7 -1 651.03 14.33
-2 7 -1 626.1 14.3
-2 7 -1 651.62 14.59
2 7 1 619.62 12.78
-2 7 -2 40.46 2.08
-2 7 -2 35.59 2.54
-2 7 -2 34.41 2.6
2 7 2 40.38 2.48
-2 7 -2 39.8 2.76
-2 7 -3 253.58 6.46
-2 7 -3 237 7.36
2 7 3 237.29 7.08
-2 7 -3 248.58 7.67
-2 7 -4 0.83 0.44
-2 7 -4 0.68 0.5
2 7 4 0.83 0.43
-2 7 -5 109.62 3.97
-2 7 -5 99.02 4.3
-2 7 -5 105.63 4.94
2 7 5 97.47 4.25
-2 7 -6 291.22 7.52
-2 7 -6 283.92 6.81
-2 7 -6 292.24 7.89
-2 7 -7 3.37 0.73
-2 7 -7 4.04 0.85
-2 7 -7 3.84 0.67
-2 7 -7 4.11 0.73
2 7 8 0.11 0.33
-2 7 -8 0.12 0.31
-2 7 -8 0.11 0.46
-2 7 -8 0.18 0.36
-2 7 -9 7.69 0.91
2 7 9 5.77 0.69
-2 7 -10 0.49 0.26
2 8 -9 30.85 1.54
2 8 -9 30.79 1.47
-2 8 9 29.12 1.64
2 8 -8 85.83 3.17
2 8 -8 84.08 2.92
-2 8 8 89.89 3.39
2 8 -7 0.22 0.38
2 8 -7 0.05 0.29
-2 8 7 0.43 0.39
-2 8 6 0.89 0.53
2 8 -5 30.11 2.05
-2 8 5 30.12 2.08
-2 8 5 28.39 2.12
2 8 -4 0.79 0.48
-2 8 4 0.54 0.45
-2 8 4 1.04 0.58
-2 8 3 26.71 2.12
2 8 -3 29.95 2.06
-2 8 3 24.62 2.16
2 8 -3 27.96 1.95
-2 8 3 24.32 2.06
2 8 -3 29.96 2.27
-2 8 2 -0.08 0.49
-2 8 2 0.55 0.61
2 8 -2 0.06 0.38
2 8 -2 0.12 0.29
2 8 -2 -0.12 0.26
-2 8 2 0.8 0.42
-2 8 1 318.86 8.78
-2 8 1 335.46 9.34
2 8 -1 306.78 7.85
-2 8 1 313.32 8.61
2 8 -1 288.71 7.8
-2 8 1 291.41 7.81
-2 8 0 219.66 7.07
-2 8 0 213.7 7.24
2 8 0 214.91 6.22
-2 8 0 223.6 7.16
2 8 0 224.6 6.56
-2 8 -1 23.52 2.09
-2 8 -1 26.56 2.33
2 8 1 24.19 1.93
2 8 1 23.02 1.73
-2 8 -1 27.58 2.4
-2 8 -2 -0.05 0.31
-2 8 -2 0.19 0.46
-2 8 -2 -0.09 0.49
-2 8 -3 157.16 5.67
-2 8 -3 155.27 4.63
-2 8 -3 149.8 5.71
-2 8 -4 70.81 3.59
-2 8 -4 69.83 2.96
-2 8 -4 66.28 3.52
-2 8 -5 29.5 2.21
-2 8 -5 28.83 1.86
-2 8 -5 28.87 2.17
-2 8 -6 80.1 3.55
-2 8 -6 83.79 3.27
-2 8 -6 80.02 3.39
-2 8 -7 349.02 5.93
-2 8 -7 0.04 0.12
2 8 8 213.81 5.27
-2 8 -9 34.28 1.56
2 9 -8 49.89 1.97
-2 9 8 50.07 1.93
2 9 -7 1.21 0.44
-2 9 7 1.03 0.4
-2 9 6 80.42 3.04
2 9 -5 63.19 2.88
-2 9 5 57.14 2.61
2 9 -4 4.02 0.79
-2 9 4 3.29 0.69
-2 9 4 3.91 0.72
-2 9 3 477.27 10.97
2 9 -3 483.99 10.65
-2 9 3 449.82 10.36
-2 9 3 440.07 9.74
-2 9 2 277.42 7.52
-2 9 2 283.89 8.08
2 9 -2 272.97 7.32
-2 9 1 69.51 3.38
2 9 -1 70 3.17
-2 9 1 72.69 3.74
-2 9 0 6.24 1.08
-2 9 0 8.83 1.31
2 9 0 6.38 0.95
-2 9 -1 63.57 3.31
-2 9 -1 65.76 3.59
-2 9 -2 4.34 0.9
-2 9 -3 212.11 6.4
-2 9 -3 210.73 6.62
-2 9 -4 241.45 6.83
-2 9 -4 247.18 5.93
-2 9 -4 243.72 6.99
-2 9 -5 4.36 0.81
-2 9 -5 5.25 0.71
-2 9 -5 5.18 0.88
-2 9 -6 0.4 0.43
-2 9 -6 0.21 0.25
2 9 7 24.56 1.39
-2 9 -7 27.24 1.52
2 10 -6 36.82 1.72
2 10 -5 5.33 0.73
2 10 -4 30.05 1.76
-2 10 3 83.77 2.76
2 10 -3 84.3 3.21
2 10 -2 247.27 6.24
-2 10 2 255.02 6.5
-2 10 1 72.38 2.85
2 10 -1 71.4 2.84
-2 10 1 68.59 3.13
-2 10 0 18.03 1.41
-2 10 0 17.99 1.61
-2 10 -1 60.93 2.7
-2 10 -1 60.46 2.98
-2 10 -2 27.22 1.75
-2 10 -2 29.37 1.97
-2 10 -3 35.99 1.95
-2 10 -4 27.49 1.59
-2 10 -4 25.19 1.59
-2 10 -5 3.27 0.54
-2 10 -5 4.17 0.57
-2 11 -1 6.39 0.69
-3 -10 5 19.19 1.15
3 -10 -4 130.44 3.5
3 -10 -3 25.93 1.43
-3 -10 3 26.03 1.57
3 -10 -2 25.54 1.46
-3 -10 2 24.56 1.58
3 -10 -1 3.68 0.61
-3 -10 1 2.83 0.61
3 -10 0 46.59 1.97
-3 -10 0 47.54 2.23
-3 -10 0 43.83 1.79
-3 -10 -1 20.09 1.24
3 -10 1 24.56 1.31
-3 -10 -1 23.51 1.48
-3 -10 -1 20.77 1.22
-3 -10 -2 68.3 2.35
-3 -10 -2 76.1 2.65
-3 -10 -2 75.14 2.61
-3 -10 -3 72.09 2.31
-3 -10 -3 69.47 2.34
-3 -10 -3 74.31 2.58
-3 -10 -4 11.39 0.88
3 -9 -7 37.28 1.53
-3 -9 7 34.44 1.65
3 -9 -7 35.17 1.5
3 -9 -6 1.75 0.39
-3 -9 6 1.5 0.48
3 -9 -6 1.57 0.42
3 -9 -5 22.34 1.28
-3 -9 5 24.14 1.66
-3 -9 4 11.31 0.97
3 -9 -4 12.57 0.96
3 -9 -3 0.54 0.38
-3 -9 3 0.3 0.32
3 -9 -3 -0.03 0.1
-3 -9 2 288.76 7.64
-3 -9 2 278.04 6.71
-3 -9 1 118.83 4.51
-3 -9 1 115.36 3.86
3 -9 -1 120.78 4
-3 -9 1 110.81 4.26
-3 -9 0 5.14 0.84
3 -9 0 5.65 0.84
-3 -9 0 5.26 0.92
-3 -9 0 5.75 1
-3 -9 0 5.54 0.83
-3 -9 -1 0.19 0.41
-3 -9 -1 0.17 0.36
3 -9 1 0.44 0.34
-3 -9 -1 0.2 0.48
-3 -9 -1 0.11 0.34
-3 -9 -2 0.85 0.55
-3 -9 -2 0.28 0.37
3 -9 2 1.05 0.39
-3 -9 -2 0.44 0.51
-3 -9 -2 0.53 0.4
-3 -9 -3 8.11 0.99
-3 -9 -3 8.56 1.07
-3 -9 -3 9.78 1.21
-3 -9 -4 77.22 3
-3 -9 -4 77.1 2.95
-3 -9 -4 71.95 3.18
-3 -9 -5 38.05 1.96
-3 -9 -5 38.22 2.1
-3 -9 -5 34.54 1.7
-3 -9 -6 18.24 1.2
-3 -9 -6 16.19 1.02
3 -8 -9 109.3 3.08
3 -8 -9 99.61 2.49
3 -8 -8 471.39 9.37
-3 -8 8 453.54 9.25
3 -8 -8 451.3 8.83
3 -8 -7 20.63 1.42
3 -8 -7 20.86 1.33
-3 -8 7 18.15 1.43
-3 -8 6 22.79 1.44
3 -8 -6 22.92 1.55
3 -8 -6 24.41 1.55
-3 -8 6 21.77 1.68
-3 -8 5 19.88 1.45
3 -8 -5 20.9 1.49
-3 -8 5 22.99 1.84
-3 -8 4 57.61 2.66
3 -8 -4 62.58 2.66
3 -8 -4 63 2.78
3 -8 -3 107.76 3.82
3 -8 -3 100.41 3.46
-3 -8 3 102.05 3.76
3 -8 -2 14.56 1.2
-3 -8 2 16.46 1.45
-3 -8 2 13.14 1.53
3 -8 -1 0.04 0.24
-3 -8 1 0.44 0.43
-3 -8 1 0.27 0.4
-3 -8 1 0.77 0.59
3 -8 -1 1.09 0.5
-3 -8 1 0.98 0.65
-3 -8 0 243.76 7.27
-3 -8 0 229.03 6.49
-3 -8 0 223.59 6.81
3 -8 0 231.69 6.25
-3 -8 -1 42.94 2.77
-3 -8 -1 43.71 2.51
-3 -8 -1 36.87 2.59
3 -8 1 47.28 2.4
-3 -8 -1 39.73 2.46
-3 -8 -2 13.6 1.54
-3 -8 -2 13.03 1.38
-3 -8 -2 14.41 1.44
-3 -8 -2 12.87 1.6
3 -8 2 15.51 1.31
-3 -8 -2 12.44 1.31
-3 -8 -3 17.51 1.59
-3 -8 -3 13.89 1.67
-3 -8 -3 15.6 1.55
-3 -8 -3 16.38 1.64
-3 -8 -4 0.73 0.51
-3 -8 -4 0.71 0.49
-3 -8 -4 0.9 0.69
-3 -8 -4 1.44 0.63
-3 -8 -5 1.29 0.58
-3 -8 -5 1.96 0.67
-3 -8 -5 0.72 0.46
-3 -8 -6 117.2 4.09
-3 -8 -6 108.87 4.16
-3 -8 -6 109.67 4.09
3 -8 6 110.53 3.26
-3 -8 -7 31.68 1.82
-3 -8 -7 31.86 1.85
-3 -8 -7 32.1 1.9
3 -8 7 30.42 1.39
-3 -8 -8 47.5 1.96
-3 -8 -8 44.92 1.96
3 -7 -10 20.49 1.29
-3 -7 9 101.03 3.21
3 -7 -9 101.91 3.49
3 -7 -9 102.38 2.95
-3 -7 8 99.8 3.32
3 -7 -8 102.68 3.27
-3 -7 8 107.33 3.71
-3 -7 7 5.04 0.89
3 -7 -7 5.73 0.78
3 -7 -7 5.85 0.88
-3 -7 6 14.16 1.48
3 -7 -6 14.33 1.35
3 -7 -6 14.33 1.26
-3 -7 5 415.58 9.57
-3 -7 5 414.02 10.16
3 -7 -5 419.72 9.54
3 -7 -4 380.06 8.61
3 -7 -4 384.63 8.71
-3 -7 4 332.88 9.18
-3 -7 4 376.08 8.88
3 -7 -4 366.01 8.87
3 -7 -4 351.85 9.01
-3 -7 4 351.8 9.59
-3 -7 3 3.8 0.96
3 -7 -3 6.31 1.08
-3 -7 3 6.14 0.95
3 -7 -3 4.53 0.78
3 -7 -3 4.9 0.87
3 -7 -3 6.47 1.02
3 -7 -3 6.44 0.9
-3 -7 2 0.16 0.42
3 -7 -2 0.39 0.42
-3 -7 2 -0.06 0.33
3 -7 -2 0.07 0.31
-3 -7 2 -0.08 0.44
3 -7 -2 0.11 0.32
-3 -7 1 159.05 5.45
-3 -7 1 157.26 5.6
3 -7 -1 162.91 5.67
-3 -7 1 164.57 5.31
3 -7 -1 156.14 5.41
3 -7 -1 172.06 4.99
3 -7 0 173.47 5.1
-3 -7 0 173.37 5.95
-3 -7 0 176.92 6.06
3 -7 0 182.81 6.02
-3 -7 0 186.94 5.7
3 -7 0 169.29 5.68
-3 -7 -1 2.43 0.79
-3 -7 -1 2.32 0.69
-3 -7 -1 3.13 0.89
3 -7 1 1.87 0.65
-3 -7 -1 4.5 0.87
3 -7 1 3.43 0.78
-3 -7 -1 2.36 0.7
3 -7 1 2.63 0.61
3 -7 2 143.34 4.34
-3 -7 -2 144.86 5.38
3 -7 2 132.72 5.04
-3 -7 -2 140.48 4.99
-3 -7 -2 132.88 5.07
-3 -7 -2 137.66 5.47
3 -7 2 131.09 5.02
-3 -7 -2 122.43 4.51
-3 -7 -3 11.42 1.56
-3 -7 -3 11.32 1.48
3 -7 3 10 1.32
-3 -7 -3 11.23 1.37
3 -7 3 10.36 1.35
-3 -7 -3 12.01 1.49
-3 -7 -4 0.3 0.49
-3 -7 -4 0.09 0.64
-3 -7 -4 0.35 0.55
3 -7 4 1.18 0.43
-3 -7 -4 0.56 0.59
-3 -7 -4 0.36 0.42
-3 -7 -5 43.32 2.67
-3 -7 -5 41.52 2.81
-3 -7 -5 35.96 2.46
3 -7 5 43.41 2.2
-3 -7 -5 34.88 2.23
-3 -7 -6 489.4 11.24
-3 -7 -6 485.88 11.75
-3 -7 -6 471.25 11.46
-3 -7 -6 467.31 10.66
3 -7 6 468.36 10.06
-3 -7 -7 267.78 7.45
-3 -7 -7 236.91 6.82
-3 -7 -7 233.73 6.52
3 -7 7 256.72 6.2
-3 -7 -8 21.8 1.5
-3 -7 -8 22.05 1.73
3 -7 8 21.28 1.35
-3 -7 -8 21.79 1.55
-3 -7 -9 10.16 0.96
3 -7 9 12.38 0.86
-3 -7 -9 13.11 1.13
-3 -7 -9 10.05 0.91
3 -6 -11 38.23 1.76
3 -6 -10 1.51 0.36
3 -6 -10 1.46 0.48
-3 -6 9 38.27 2.02
3 -6 -9 37.2 1.79
3 -6 -9 36.78 2.14
-3 -6 8 86.12 3.47
3 -6 -8 92.76 3.21
3 -6 -8 89.4 3.6
-3 -6 7 891.02 17.65
3 -6 -7 894.4 16.84
3 -6 -7 913.26 17.58
-3 -6 6 512.97 11.37
3 -6 -6 482.73 10.58
3 -6 -6 475.44 11.18
3 -6 -6 494.73 10.45
3 -6 -5 103.89 3.84
3 -6 -5 110.32 4.28
-3 -6 5 102.38 4.18
3 -6 -5 103.3 3.93
-3 -6 4 1.3 0.6
3 -6 -4 1.1 0.49
3 -6 -4 1.84 0.64
3 -6 -4 1.37 0.5
-3 -6 4 2.7 0.88
3 -6 -4 2.48 0.61
-3 -6 3 34.83 2.34
3 -6 -3 30.53 2.16
3 -6 -3 27.58 2.07
3 -6 -3 32.27 1.88
3 -6 -2 13 1.16
-3 -6 2 12.77 1.35
-3 -6 2 12.06 1.39
3 -6 -2 13.18 1.38
-3 -6 2 13.17 1.33
3 -6 -2 10.6 1.29
-3 -6 2 12.45 1.47
3 -6 -1 24.29 1.56
-3 -6 1 22.55 1.85
-3 -6 1 21.82 1.88
3 -6 -1 22.02 1.8
-3 -6 1 24.19 1.8
3 -6 -1 22.61 1.86
-3 -6 1 22.09 1.87
3 -6 0 22.41 1.8
-3 -6 0 26.66 1.88
-3 -6 0 20.65 1.74
-3 -6 0 26.01 2.08
3 -6 0 24.98 1.99
-3 -6 0 20.25 1.74
3 -6 0 20.8 1.45
-3 -6 -1 58.4 3.19
3 -6 1 62.26 3.1
-3 -6 -1 64.88 3.07
-3 -6 -1 63.01 3.24
-3 -6 -1 66.77 3.46
3 -6 1 59.44 3.18
-3 -6 -1 57.61 2.88
3 -6 1 62.55 2.57
-3 -6 -2 100.82 4.32
-3 -6 -2 102.75 4.36
-3 -6 -2 101.08 4.53
-3 -6 -2 114.37 4.27
3 -6 2 105.36 4.21
3 -6 2 103.25 4.31
-3 -6 -2 90.88 3.64
-3 -6 -3 32.96 2.11
-3 -6 -3 33.62 2.6
-3 -6 -3 37.5 2.65
-3 -6 -3 38.6 2.44
3 -6 3 35.67 2.41
3 -6 3 34.08 2.4
-3 -6 -3 36.96 2.52
-3 -6 -4 0.89 0.52
-3 -6 -4 1.3 0.67
3 -6 4 1.22 0.56
3 -6 4 1.04 0.58
-3 -6 -4 1.45 0.65
-3 -6 -5 1369.28 25.57
3 -6 5 1315.56 25.74
-3 -6 -5 1388.39 26.69
-3 -6 -5 1321.98 26.6
-3 -6 -5 1432.69 26.07
-3 -6 -6 207.16 7.16
-3 -6 -6 205.28 6.87
-3 -6 -6 207.94 6.6
-3 -6 -7 1.6 0.64
-3 -6 -7 2.38 0.85
-3 -6 -7 1.94 0.72
-3 -6 -7 2.23 0.75
-3 -6 -8 6.48 1.03
-3 -6 -8 6.78 0.97
-3 -6 -8 5.94 1.03
-3 -6 -9 9.73 1.1
-3 -6 -9 10.74 1.21
3 -6 9 10.16 0.98
-3 -6 -9 9.56 1.17
-3 -6 -10 13.49 1.12
3 -6 10 13.6 0.94
-3 -6 -10 12.81 1.08
3 -5 -12 48.42 1.8
3 -5 -11 1.24 0.46
3 -5 -10 117.55 3.35
3 -5 -10 113.44 3.94
-3 -5 9 0.4 0.34
3 -5 -9 0.47 0.32
3 -5 -9 0.36 0.44
-3 -5 8 11.31 1.21
3 -5 -8 10.91 1.07
3 -5 -8 11.08 1.25
-3 -5 7 545.2 11.78
3 -5 -7 532.46 11.14
3 -5 -7 545.44 11.78
3 -5 -6 542.75 11.45
3 -5 -6 551.81 12.05
-3 -5 5 1151.24 22.11
3 -5 -5 1224.66 21.56
-3 -5 4 6.48 0.96
-3 -5 4 6.55 1.07
3 -5 -3 114.18 3.6
-3 -5 3 107.91 4.05
3 -5 -3 126.17 4.24
3 -5 -3 120.62 4.34
-3 -5 3 100.08 4.19
3 -5 -2 9.82 0.94
-3 -5 2 9.72 1.12
-3 -5 2 9.84 1.14
3 -5 -2 7.8 0.99
3 -5 -2 10.5 1.24
-3 -5 2 8.43 1.13
3 -5 -1 40.66 1.91
-3 -5 1 45.73 2.5
-3 -5 1 36.5 2.23
3 -5 -1 35.46 2.1
-3 -5 1 40.69 2.22
3 -5 -1 44.9 2.54
-3 -5 1 37.49 2.29
-3 -5 0 9.47 1.15
-3 -5 0 8.88 1.18
-3 -5 0 10.1 1.19
3 -5 0 10.17 1.23
-3 -5 0 7.99 1.03
3 -5 0 9.52 0.89
3 -5 0 9.33 1.06
-3 -5 0 9.69 1.09
-3 -5 -1 307.6 8.06
-3 -5 -1 292.72 8.1
-3 -5 -1 317.49 7.63
3 -5 1 312.11 7.67
3 -5 1 319.54 8.08
3 -5 1 308.2 6.66
3 -5 2 182.6 5.44
3 -5 2 171.91 5.58
-3 -5 -2 167.24 5.77
-3 -5 -2 177.65 5.85
-3 -5 -3 68.55 3.14
-3 -5 -3 77.37 3.8
3 -5 3 81.54 3.72
-3 -5 -3 72.84 3.46
-3 -5 -4 1059.13 21.54
-3 -5 -4 1093.86 21.86
3 -5 4 1082.32 21.27
-3 -5 -4 1059.52 20.91
-3 -5 -5 2.01 0.69
-3 -5 -5 2.59 0.8
-3 -5 -5 1.61 0.67
-3 -5 -5 1.67 0.62
3 -5 5 2.55 0.8
-3 -5 -5 2.61 0.76
-3 -5 -6 27.47 2.14
-3 -5 -6 27.58 2.46
-3 -5 -6 26.24 2.23
3 -5 6 27.51 2.28
-3 -5 -6 28.67 2.31
-3 -5 -7 0.94 0.52
-3 -5 -7 1.44 0.63
-3 -5 -7 0.44 0.5
-3 -5 -8 23.01 1.93
-3 -5 -8 20.94 1.73
-3 -5 -8 22.06 2.09
-3 -5 -8 23.68 2.08
-3 -5 -9 3 0.76
-3 -5 -9 3.28 0.86
-3 -5 -10 0.24 0.32
-3 -5 -10 1.27 0.49
3 -5 11 105.9 3.06
-3 -5 -11 115.56 3.09
3 -4 -12 7.34 0.72
3 -4 -12 -0.03 0.07
3 -4 -11 2.42 0.57
-3 -4 11 3.12 0.62
-3 -4 11 2.94 0.62
3 -4 -11 2.45 0.51
3 -4 -11 3.04 0.62
3 -4 -11 4.79 0.71
3 -4 -10 0.89 0.46
-3 -4 10 0.83 0.46
-3 -4 10 0.84 0.47
3 -4 -10 0.84 0.37
3 -4 -10 0.68 0.37
-3 -4 10 1.01 0.48
3 -4 -10 0.92 0.43
-3 -4 9 4.54 0.85
3 -4 -9 7.5 1.01
-3 -4 9 5.08 0.91
3 -4 -9 6.45 0.91
-3 -4 9 5.38 0.96
-3 -4 9 6.57 0.92
3 -4 -9 6.44 0.92
3 -4 -8 582.62 12.36
-3 -4 8 569.56 12.63
-3 -4 8 579.54 12.67
3 -4 -8 572.96 12.24
3 -4 -8 622.01 12.18
-3 -4 8 584.54 12.93
3 -4 -8 627.29 12.9
-3 -4 8 594.72 12.07
-3 -4 8 551.17 12.63
-3 -4 8 590.04 12.19
3 -4 -7 580.22 12.23
-3 -4 7 541.65 12.34
-3 -4 7 567.71 12.44
3 -4 -7 588.38 11.83
3 -4 -7 601.81 11.85
-3 -4 7 633.95 13.06
3 -4 -7 523.27 12.22
-3 -4 7 595.18 12.08
-3 -4 7 619.81 12.21
-3 -4 6 156.24 4.7
-3 -4 6 164.04 4.73
3 -4 -6 161.78 4.85
3 -4 -6 154 4.38
-3 -4 6 168.78 5.19
3 -4 -6 142.13 4.85
-3 -4 6 142.45 4.71
-3 -4 6 133.25 4.56
-3 -4 5 736.69 14.95
-3 -4 5 776.41 14.89
-3 -4 5 745.46 15.06
-3 -4 5 752.97 14.96
3 -4 -5 787.1 14.48
-3 -4 4 135.65 4.33
3 -4 -4 144.74 4.64
-3 -4 4 143.86 4.28
-3 -4 4 142.7 4.2
-3 -4 3 53.46 2.72
-3 -4 3 51.09 2.41
3 -4 -3 54.88 2.62
-3 -4 3 52.42 2.22
-3 -4 3 52.35 2.19
3 -4 -3 58.52 2.45
-3 -4 2 34.41 1.93
3 -4 -2 34.74 2.07
3 -4 -2 32.27 1.76
-3 -4 2 33.87 1.62
-3 -4 2 32.04 1.57
3 -4 -1 231.18 5.67
-3 -4 1 221 5.09
-3 -4 1 225.91 5.12
-3 -4 1 220.55 5.82
3 -4 0 126.55 3.91
-3 -4 0 134.24 3.55
-3 -4 0 135.03 4.25
-3 -4 -1 113.09 3.73
-3 -4 -1 117.62 3.28
-3 -4 -2 24.08 1.6
-3 -4 -2 22.65 1.82
-3 -4 -2 21.79 1.8
-3 -4 -2 23.41 1.59
-3 -4 -2 24.09 1.37
-3 -4 -3 505.88 10.94
-3 -4 -3 492.9 11.08
-3 -4 -3 552.32 12.02
-3 -4 -3 487.85 11.84
-3 -4 -3 538.36 11.07
3 -4 3 556.79 12.01
-3 -4 -3 517.63 10.73
-3 -4 -4 15.49 1.43
-3 -4 -4 15.61 1.36
-3 -4 -4 14.69 1.47
-3 -4 -4 16.09 1.53
-3 -4 -4 15.62 1.62
-3 -4 -4 17.24 1.47
3 -4 4 18.26 1.72
-3 -4 -4 15.85 1.35
-3 -4 -5 387.95 9.27
-3 -4 -5 366.49 9.55
-3 -4 -5 415.02 10.06
-3 -4 -5 411.78 10.2
-3 -4 -5 429.5 9.65
-3 -4 -5 375.86 9.1
-3 -4 -5 414.38 9.07
-3 -4 -5 390.36 9.52
-3 -4 -5 391.71 9.19
-3 -4 -6 964.27 19.09
-3 -4 -6 1033.71 20.37
-3 -4 -6 1098.28 20.99
-3 -4 -6 1052.62 20.15
-3 -4 -6 948.07 19.03
-3 -4 -6 1003.74 19.52
-3 -4 -6 956.02 19.67
-3 -4 -6 963.87 19.22
-3 -4 -7 376.05 9.26
-3 -4 -7 359.5 9.94
-3 -4 -7 376.36 9.23
-3 -4 -7 370.91 10.37
-3 -4 -7 370.22 9.45
-3 -4 -7 349.89 9.53
-3 -4 -7 361.3 9.28
-3 -4 -8 22.69 1.78
-3 -4 -8 23.35 2.18
-3 -4 -8 24.77 2.02
-3 -4 -8 25.37 1.93
-3 -4 -8 22.62 1.99
-3 -4 -8 26.76 1.98
-3 -4 -9 35.27 2.56
-3 -4 -9 36.36 2.53
-3 -4 -9 35.44 2.27
-3 -4 -9 33.63 2.13
-3 -4 -9 32.45 2.28
-3 -4 -9 36.3 2.2
-3 -4 -10 5.06 0.94
-3 -4 -10 4.45 0.82
-3 -4 -10 4.21 0.78
-3 -4 -10 0.05 0.18
-3 -4 -10 3.82 0.73
-3 -4 -10 0.52 0.28
-3 -4 -11 52.87 2.1
-3 -4 -11 61.58 2.67
-3 -3 13 21.41 1.19
-3 -3 13 24.9 1.28
3 -3 -13 24.81 1.23
3 -3 -13 26.92 1.4
3 -3 -13 24.47 1.27
-3 -3 12 11.46 1.17
-3 -3 12 10.42 1.1
-3 -3 12 12.5 1.2
3 -3 -12 14.14 1.16
3 -3 -12 13.1 1.21
3 -3 -12 12.31 1.15
3 -3 -11 1.74 0.51
-3 -3 11 1.32 0.62
-3 -3 11 1.52 0.59
3 -3 -11 1.42 0.36
3 -3 -11 1.47 0.5
3 -3 -11 2.23 0.63
-3 -3 11 0.93 0.38
-3 -3 11 1.39 0.56
3 -3 -10 151.05 4.63
-3 -3 10 138.55 5.24
-3 -3 10 136.55 5.14
3 -3 -10 142.86 4.77
3 -3 -10 146.58 4.95
-3 -3 10 159.8 5.47
-3 -3 10 159.86 4.69
3 -3 -9 196.39 5.59
-3 -3 9 196.57 6.47
3 -3 -9 194.72 5.83
-3 -3 9 203.18 6.5
3 -3 -9 194.32 6.01
3 -3 -9 211.59 5.97
-3 -3 9 191.44 6.4
-3 -3 9 201.83 5.66
-3 -3 9 186.85 6.34
-3 -3 8 888.14 16.72
-3 -3 8 891.43 17.85
3 -3 -8 950.13 16.82
-3 -3 8 829.81 17.64
3 -3 -8 873.19 16.83
-3 -3 8 809.24 17.51
3 -3 -8 954.15 17.12
3 -3 -8 797.48 16.81
-3 -3 8 789.09 17.44
-3 -3 7 157.74 4.68
-3 -3 7 138.35 5.16
3 -3 -7 155.53 4.65
-3 -3 7 147.46 5.24
-3 -3 7 152.01 5.23
3 -3 -7 161.05 4.78
3 -3 -7 150.6 4.76
-3 -3 7 138.83 5.04
-3 -3 6 25.81 1.54
-3 -3 6 22.29 1.76
-3 -3 6 26.16 1.64
-3 -3 6 23.09 1.82
3 -3 -6 26.85 1.8
-3 -3 6 20.48 1.7
-3 -3 6 20.86 1.71
-3 -3 5 0.04 0.27
-3 -3 5 0.44 0.39
-3 -3 5 0.12 0.24
3 -3 -5 0.03 0.18
-3 -3 5 1.02 0.49
-3 -3 5 0.93 0.49
-3 -3 4 442.33 8.89
-3 -3 4 446.2 9.38
3 -3 -4 435.03 9.31
3 -3 -3 894.89 16.04
-3 -3 3 916.49 16.51
3 -3 -3 942.45 16.85
3 -3 -2 4.08 0.55
-3 -3 2 4.41 0.64
-3 -3 2 5.02 0.65
3 -3 -2 3.91 0.7
3 -3 -1 3588.91 59.9
-3 -3 1 3623.19 60.12
-3 -3 1 3733.91 60.21
3 -3 0 149.84 3.91
3 -3 0 145.34 4.38
-3 -3 0 138.02 3.83
3 -3 1 20.59 1.52
-3 -3 -1 20.71 1.26
-3 -3 -2 1.6 0.49
-3 -3 -2 1.59 0.48
-3 -3 -2 1.37 0.4
3 -3 2 2.09 0.59
-3 -3 -2 1.72 0.47
-3 -3 -3 12.49 1.07
-3 -3 -3 9.29 1.09
-3 -3 -3 10.84 1.02
-3 -3 -3 10.58 1.12
-3 -3 -3 11.65 1.11
-3 -3 -4 199.78 5.8
-3 -3 -4 228.31 5.65
-3 -3 -4 197.41 6.04
-3 -3 -4 222.78 5.61
-3 -3 -4 252.69 6.67
-3 -3 -4 199.99 6.43
-3 -3 -4 229.66 5.85
-3 -3 -4 223.06 6.01
-3 -3 -4 237.03 6.36
-3 -3 -4 198.24 5.76
-3 -3 -5 4.15 0.8
-3 -3 -5 5.29 0.81
-3 -3 -5 4.57 0.86
-3 -3 -5 5.47 0.79
-3 -3 -5 5.57 0.97
-3 -3 -5 4.8 0.79
-3 -3 -5 4.07 0.8
-3 -3 -5 4.71 0.85
-3 -3 -5 5.56 0.91
-3 -3 -5 4.41 0.86
-3 -3 -5 4.88 0.93
-3 -3 -5 4.17 0.92
-3 -3 -5 5.66 0.94
-3 -3 -6 188.15 6.05
-3 -3 -6 189.24 5.62
-3 -3 -6 195.81 6.04
-3 -3 -6 172.83 6.35
-3 -3 -6 194.18 6.02
-3 -3 -6 192.55 5.79
-3 -3 -6 201.47 6.49
-3 -3 -6 218.31 6.1
-3 -3 -6 185.1 6.18
-3 -3 -6 185.88 5.97
-3 -3 -7 48 2.89
-3 -3 -7 52.89 3.24
-3 -3 -7 51.37 3.21
-3 -3 -7 48.26 2.68
-3 -3 -7 47.91 2.86
-3 -3 -7 51.33 2.81
-3 -3 -7 49.79 3.06
-3 -3 -7 54.02 3.23
-3 -3 -7 49.17 2.95
-3 -3 -8 255.64 7.62
-3 -3 -8 275.03 8.29
-3 -3 -8 251.75 7.89
-3 -3 -8 283.52 7.52
-3 -3 -8 265.14 7.72
-3 -3 -8 272.39 8.2
-3 -3 -8 235.84 7.75
-3 -3 -8 264.98 7.86
-3 -3 -9 84.48 4.14
-3 -3 -9 83.71 3.94
-3 -3 -9 87.34 3.67
-3 -3 -9 84.35 3.84
-3 -3 -9 81.18 4.09
-3 -3 -9 85.57 3.9
-3 -3 -10 126.23 4.86
-3 -3 -10 120.06 4.33
-3 -3 -10 119.26 4.78
-3 -3 -10 123.58 4.52
-3 -3 -10 132.58 4.63
-3 -3 -11 7.08 1
-3 -3 -11 6.47 0.86
-3 -3 -11 5.81 0.92
-3 -3 -11 7.25 0.92
-3 -2 13 51.71 2.34
-3 -2 13 54.15 2.37
-3 -2 13 58.2 2.45
3 -2 -13 57.87 2.29
3 -2 -13 61.83 2.54
3 -2 -13 59.26 2.4
-3 -2 12 2.27 0.46
-3 -2 12 1.21 0.55
-3 -2 12 0.95 0.47
-3 -2 12 1.59 0.6
3 -2 -12 1.32 0.51
3 -2 -12 1.24 0.57
3 -2 -12 1.07 0.46
-3 -2 11 520.3 12.13
-3 -2 11 528.93 12.25
3 -2 -11 507.14 11.4
-3 -2 11 527.39 10.8
-3 -2 11 506.65 12.21
3 -2 -11 534.71 11.75
3 -2 -10 719.9 15.47
3 -2 -10 798.97 15.7
-3 -2 10 760.56 14.8
-3 -2 10 723.44 16.03
3 -2 -10 722.89 14.24
-3 -2 10 772.4 16.34
3 -2 -10 720.64 15.52
3 -2 -10 753.06 15.39
3 -2 -10 755.61 15.4
-3 -2 10 740.18 15.34
-3 -2 10 735.89 16.29
-3 -2 9 412.07 9.16
-3 -2 9 376.54 10.21
3 -2 -9 386.17 8.64
3 -2 -9 389.68 9.36
-3 -2 9 369.19 10.06
3 -2 -9 417.74 9.62
-3 -2 9 377.52 9.39
-3 -2 9 358.07 10.11
-3 -2 8 15.14 1.34
3 -2 -8 17.67 1.34
-3 -2 8 14.63 1.63
-3 -2 8 18.03 1.77
3 -2 -8 14.35 1.38
-3 -2 8 19.05 1.6
3 -2 -8 15.54 1.44
3 -2 -8 14.58 1.35
-3 -2 8 13.79 1.6
-3 -2 7 11.09 1.11
3 -2 -7 10.01 0.99
-3 -2 7 11.24 1.36
-3 -2 7 13.9 1.48
-3 -2 7 11.12 1.17
3 -2 -7 9.72 1.04
-3 -2 7 11.38 1.4
-3 -2 6 351.55 7.72
-3 -2 6 369.72 8.68
-3 -2 6 369.39 8.1
3 -2 -6 322.85 6.78
3 -2 -6 320.23 7.64
-3 -2 6 345.39 8.56
-3 -2 6 333.11 8.4
-3 -2 5 259.08 6.21
-3 -2 5 257.75 6.86
-3 -2 5 264.18 6.98
-3 -2 5 235.86 6.83
3 -2 -5 268.94 5.38
3 -2 -5 278.09 5.95
-3 -2 5 311.01 6.74
3 -2 -5 298.46 6.67
-3 -2 4 41.32 1.91
3 -2 -4 42.41 1.95
-3 -2 3 234.53 6.01
-3 -2 3 242.47 5.89
-3 -2 3 247.86 5.68
3 -2 -3 244.13 5.77
3 -2 -2 16.77 0.92
-3 -2 2 16.53 1.17
-3 -2 2 15.44 1.14
3 -2 -2 18.63 1.26
3 -2 -1 284.39 5.71
3 -2 -1 276.71 6.38
-3 -2 1 299.46 6.44
-3 -2 1 288.82 6.37
3 -2 0 62.15 2.43
-3 -2 0 59.26 2.25
-3 -2 0 58.29 2.23
-3 -2 -1 53.76 2.16
3 -2 1 55.88 2.39
-3 -2 -1 55.15 2.29
-3 -2 -1 58.36 2.46
-3 -2 -2 290.36 6.49
-3 -2 -2 318.17 7.11
-3 -2 -3 565.04 11.99
-3 -2 -3 559.84 11.63
-3 -2 -4 299.17 7.5
-3 -2 -4 305.37 7.37
-3 -2 -4 321.19 7.11
-3 -2 -4 317.79 7.82
-3 -2 -4 331 7.19
-3 -2 -4 279.54 6.71
-3 -2 -4 298.37 7.41
-3 -2 -4 259.73 7.31
-3 -2 -4 305.04 7.2
-3 -2 -4 304.21 7.45
-3 -2 -5 130.45 4.56
-3 -2 -5 130.67 4.17
-3 -2 -5 127.19 4.12
-3 -2 -5 117.51 4.56
-3 -2 -5 125.74 4.31
-3 -2 -5 115.46 4.28
-3 -2 -5 123.37 3.95
-3 -2 -5 115.44 4.57
-3 -2 -5 137.82 4.56
-3 -2 -5 118.26 4.52
-3 -2 -5 123.79 4.4
-3 -2 -6 262.01 7.56
-3 -2 -6 266.65 7.09
-3 -2 -6 264.8 7.71
-3 -2 -6 260.99 6.99
-3 -2 -6 247.61 7.58
-3 -2 -6 284.5 7.65
-3 -2 -6 266.29 6.92
-3 -2 -6 272.34 7.83
-3 -2 -6 287.17 8.07
-3 -2 -6 255.57 7.38
-3 -2 -7 1143.38 22.94
-3 -2 -7 1153.53 23.32
-3 -2 -7 1222 23.3
-3 -2 -7 1216.09 22.23
-3 -2 -7 1200.62 23.13
-3 -2 -7 1197.1 22.78
-3 -2 -7 1261 23.98
-3 -2 -7 1200.76 23.68
-3 -2 -7 1136.72 23.14
-3 -2 -8 654.01 14.33
-3 -2 -8 591.79 14.2
-3 -2 -8 646.2 14.1
-3 -2 -8 622.87 13.23
-3 -2 -8 612.76 14.12
-3 -2 -8 613.86 14.73
-3 -2 -8 559.43 14.23
-3 -2 -8 671.62 14.71
-3 -2 -9 76.34 3.91
-3 -2 -9 72.72 3.48
-3 -2 -9 77.1 3.37
-3 -2 -9 73.13 3.77
-3 -2 -9 65.4 3.81
-3 -2 -9 75.15 3.79
-3 -2 -10 3.72 0.93
-3 -2 -10 4.3 0.76
-3 -2 -10 4.72 1.06
-3 -2 -10 3.13 0.86
-3 -2 -10 3.07 0.84
-3 -2 -11 77.63 3.33
-3 -2 -11 86.37 3.79
-3 -2 -11 77 3.36
-3 -2 -11 85.63 3.52
-3 -2 -12 1.67 0.52
-3 -2 -12 1.84 0.48
-3 -2 -12 0.93 0.37
3 -1 -14 13.82 0.97
-3 -1 14 14.34 0.96
-3 -1 13 26.23 1.76
-3 -1 13 26.1 1.76
-3 -1 13 27.68 1.79
3 -1 -13 28.32 1.66
3 -1 -13 26.81 1.71
3 -1 -13 26.1 1.64
-3 -1 12 5.82 1.06
-3 -1 12 4.91 0.96
3 -1 -12 4.56 0.84
3 -1 -12 4.99 0.92
-3 -1 12 4.81 0.7
-3 -1 12 4.81 0.99
-3 -1 11 13.51 1.64
-3 -1 11 12.4 1.59
3 -1 -11 12.24 1.36
3 -1 -11 11.72 1.39
-3 -1 11 13.68 1.26
-3 -1 10 16.58 1.85
3 -1 -10 16.56 1.61
-3 -1 10 18.23 1.91
-3 -1 10 15.36 1.52
3 -1 -10 19.39 1.75
-3 -1 10 19.65 1.57
-3 -1 10 16.41 1.89
-3 -1 9 10.29 1.45
3 -1 -9 12.7 1.35
-3 -1 9 12.23 1.55
-3 -1 9 12.66 1.27
-3 -1 9 10.18 1.4
3 -1 -9 15.02 1.49
-3 -1 9 10.86 1.25
-3 -1 8 145.8 5.48
3 -1 -8 153.88 4.96
-3 -1 8 147.16 4.78
-3 -1 8 143.2 4.59
-3 -1 8 135.98 5.3
-3 -1 7 6.22 0.83
-3 -1 7 5.34 0.99
3 -1 -7 5.98 0.72
-3 -1 7 6.37 1.05
-3 -1 7 6.58 0.89
3 -1 -7 5.8 0.6
3 -1 -7 6.2 0.79
-3 -1 7 5.2 0.95
-3 -1 6 367.01 8.24
-3 -1 6 379.86 9.17
3 -1 -6 377.86 7.65
3 -1 -6 381.65 8.11
-3 -1 6 373.8 9.09
-3 -1 5 31.94 1.63
-3 -1 5 30.55 1.63
-3 -1 5 35.84 2.1
3 -1 -5 26.69 1.41
3 -1 -5 25.68 1.44
-3 -1 4 9.06 1
3 -1 -4 8 0.8
-3 -1 4 6.57 0.72
3 -1 -4 6.2 0.68
-3 -1 3 2344.82 40.18
-3 -1 3 2389.64 39.65
-3 -1 2 2155.7 37.67
-3 -1 2 2238.23 37.67
3 -1 -1 12.12 0.6
3 -1 -1 13.17 0.93
-3 -1 1 12.69 1.01
-3 -1 1 12.81 1.02
3 -1 0 1954.89 32.26
-3 -1 0 1910.64 32.34
-3 -1 0 1980.9 32.39
-3 -1 -1 1228.11 21.05
-3 -1 -1 1259.48 21.08
-3 -1 -1 1235.05 21.38
-3 -1 -2 64.42 2.45
-3 -1 -2 68.02 2.76
-3 -1 -3 297.36 6.78
3 -1 3 288.86 5.84
-3 -1 -4 7.07 0.93
-3 -1 -4 6.56 0.95
-3 -1 -4 7.25 0.86
-3 -1 -4 8.72 0.91
-3 -1 -4 6.77 0.92
3 -1 4 8.13 0.73
-3 -1 -4 7.39 1
-3 -1 -4 7.25 0.91
-3 -1 -4 8.21 1
-3 -1 -5 19.43 1.68
-3 -1 -5 22.04 1.55
-3 -1 -5 24.79 1.63
-3 -1 -5 20.53 1.72
3 -1 5 19.32 1.23
-3 -1 -5 19.05 1.61
-3 -1 -5 17.79 1.28
-3 -1 -5 27.16 1.84
-3 -1 -5 20.36 1.72
-3 -1 -5 20.29 1.79
-3 -1 -5 16.8 1.54
-3 -1 -6 141.77 5.22
-3 -1 -6 159.78 4.93
-3 -1 -6 161.76 4.93
-3 -1 -6 159.91 5.48
-3 -1 -6 141.12 4.2
-3 -1 -6 148.53 5.05
-3 -1 -6 136.11 5.05
3 -1 6 145.26 4.2
-3 -1 -6 143.3 4.43
-3 -1 -6 140.25 5.03
-3 -1 -6 154.4 5.58
-3 -1 -6 174.1 5.47
-3 -1 -6 139.61 5.22
-3 -1 -7 0.87 0.41
-3 -1 -7 1.11 0.54
-3 -1 -7 1 0.62
-3 -1 -7 1.22 0.67
-3 -1 -7 0.78 0.48
-3 -1 -7 0.48 0.5
-3 -1 -7 0.75 0.59
-3 -1 -7 1.21 0.52
-3 -1 -7 0.8 0.39
-3 -1 -7 1.14 0.56
3 -1 7 0.55 0.34
-3 -1 -7 0.73 0.53
-3 -1 -8 14.54 1.68
-3 -1 -8 18.33 1.88
-3 -1 -8 18.25 1.65
-3 -1 -8 15.83 1.41
-3 -1 -8 14.92 1.71
-3 -1 -8 13.04 1.75
-3 -1 -8 13.42 1.72
-3 -1 -8 16.54 1.82
-3 -1 -9 262.31 7.81
-3 -1 -9 250.26 6.74
-3 -1 -9 239.91 7.62
-3 -1 -9 223.65 7.76
-3 -1 -9 248.73 8.18
-3 -1 -9 239.59 7.65
-3 -1 -10 26.76 2.14
-3 -1 -10 24.87 1.74
-3 -1 -10 28.68 2.46
-3 -1 -10 27.49 2.24
-3 -1 -10 26.27 2.18
-3 -1 -11 0.94 0.5
-3 -1 -11 0.56 0.49
-3 -1 -11 0.83 0.48
-3 -1 -11 0.73 0.58
-3 -1 -12 0.84 0.38
-3 -1 -12 0.57 0.43
-3 -1 -12 0.38 0.31
-3 0 14 0.03 0.24
-3 0 14 0.1 0.23
-3 0 14 -0.03 0.25
3 0 -14 0.03 0.21
3 0 -14 0.1 0.23
3 0 -14 -0.09 0.2
-3 0 13 628.81 11.39
-3 0 13 626.87 13.05
-3 0 13 637.78 13
-3 0 13 631.29 13.03
3 0 -13 611.98 12.35
3 0 -13 669.74 12.85
3 0 -13 629.02 12.58
-3 0 12 -0.23 0.56
-3 0 12 -0.08 0.5
3 0 -12 0.12 0.41
-3 0 12 0.39 0.54
-3 0 12 -0.09 0.31
3 0 -12 -0.32 0.48
-3 0 11 900.01 18.67
-3 0 11 884.14 18.57
3 0 -11 858.99 17.52
-3 0 11 864.95 16.76
3 0 -11 873 17.69
3 0 -10 0.22 0.41
3 0 -10 0.14 0.36
-3 0 10 0.38 0.51
-3 0 10 0.09 0.61
-3 0 10 0.06 0.35
3 0 -10 0.28 0.37
-3 0 10 0.59 0.42
-3 0 10 0.2 0.5
-3 0 9 362.91 9.92
-3 0 9 370.04 8.63
3 0 -9 336.92 8.79
-3 0 9 346.94 8.64
-3 0 9 341.46 9.62
3 0 -9 346.14 8.75
-3 0 8 0.06 0.36
3 0 -8 0.06 0.36
-3 0 8 0.33 0.49
-3 0 8 0.17 0.36
-3 0 8 0.16 0.46
-3 0 7 91.13 3.36
-3 0 7 96.7 3.41
3 0 -7 97.39 2.89
-3 0 7 83.33 3.78
-3 0 7 85.28 3.83
-3 0 6 0.04 0.25
-3 0 6 0.06 0.37
-3 0 6 0.06 0.44
3 0 -6 0.07 0.19
-3 0 6 0.08 0.29
3 0 -6 0.48 0.27
-3 0 5 73.21 2.56
3 0 -5 78.52 2.41
3 0 -4 0.23 0.27
3 0 -4 0.18 0.2
-3 0 4 0.03 0.22
-3 0 4 -0.14 0.36
-3 0 3 398.69 7.72
3 0 -3 392.64 7.62
-3 0 3 395.95 8.48
3 0 -2 0.53 0.24
-3 0 2 0.22 0.33
-3 0 2 0.07 0.29
-3 0 1 198.88 4.71
-3 0 1 193.17 4.65
3 0 0 0.16 0.2
-3 0 0 0.64 0.34
-3 0 0 0.54 0.34
-3 0 -1 3978.41 63.28
-3 0 -1 3861.38 62.87
-3 0 -1 3898.03 62.9
-3 0 -1 3923.8 63.57
-3 0 -2 -0.04 0.29
-3 0 -2 0.11 0.3
-3 0 -2 0.05 0.34
-3 0 -3 732 13.96
-3 0 -3 729.16 13.43
-3 0 -4 0.51 0.31
-3 0 -4 0.4 0.38
-3 0 -4 3.4 0.67
-3 0 -4 0.17 0.26
-3 0 -4 1.38 0.49
-3 0 -4 0.42 0.37
-3 0 -4 3.42 0.67
-3 0 -4 4.07 0.8
-3 0 -5 3.38 0.79
-3 0 -5 3.6 0.71
-3 0 -5 3.56 0.82
-3 0 -5 3.25 0.63
-3 0 -5 3.19 0.75
-3 0 -5 2.71 0.68
-3 0 -5 3.56 0.68
-3 0 -5 3.79 0.76
3 0 5 2.62 0.54
-3 0 -5 3.27 0.73
-3 0 -6 0.42 0.3
-3 0 -6 0.16 0.43
-3 0 -6 0.15 0.43
-3 0 -6 0.08 0.44
-3 0 -6 0.62 0.52
-3 0 -6 0.31 0.44
-3 0 -6 0.12 0.36
-3 0 -6 0.07 0.39
-3 0 -6 0.06 0.31
-3 0 -6 0.07 0.41
3 0 6 0.34 0.32
-3 0 -6 0.57 0.47
-3 0 -7 676.67 15.55
-3 0 -7 757.23 15.05
-3 0 -7 743.16 15.72
-3 0 -7 678.9 14.06
3 0 7 791.18 14.55
-3 0 -7 746.36 15.72
-3 0 -7 676.99 15.32
-3 0 -7 641.99 15.68
-3 0 -7 655.66 15.58
-3 0 -7 815.23 15.6
-3 0 -8 0.29 0.55
-3 0 -8 -0.09 0.48
-3 0 -8 0.34 0.53
-3 0 -8 0.89 0.63
3 0 8 -0.24 0.38
-3 0 -8 0.06 0.37
-3 0 -8 0.5 0.54
-3 0 -8 0.62 0.63
-3 0 -9 1320.42 24.57
-3 0 -9 1238.83 23.98
-3 0 -9 1278.71 23.16
-3 0 -9 1229.24 24.34
-3 0 -9 1145.34 24.62
-3 0 -9 1111.58 24.43
-3 0 -9 1288.95 24.83
-3 0 -10 0.29 0.43
-3 0 -10 0.35 0.56
-3 0 -10 0.2 0.57
-3 0 -10 0.25 0.5
-3 0 -11 96.46 4.06
-3 0 -11 100.31 3.57
-3 0 -11 107.28 4.51
-3 0 -11 102.5 4.11
-3 0 -12 0.12 0.4
-3 0 -12 0.05 0.31
-3 0 -12 0.15 0.34
3 1 -14 13.82 0.95
-3 1 14 13.66 0.97
-3 1 13 24.38 1.28
-3 1 13 25.19 1.78
-3 1 13 25.98 1.79
-3 1 13 26.26 1.8
3 1 -13 27.15 1.61
3 1 -13 26.42 1.68
3 1 -13 28.55 1.68
-3 1 12 4.06 0.93
-3 1 12 7.26 1.16
3 1 -12 5.34 0.88
3 1 -12 4.5 0.87
-3 1 12 5.13 1.01
-3 1 12 6.11 0.82
-3 1 11 14.04 1.71
-3 1 11 12.09 1.59
3 1 -11 12.95 1.38
3 1 -11 12.4 1.43
-3 1 11 12.9 1.27
-3 1 10 16.17 1.85
3 1 -10 17.72 1.63
-3 1 10 18.94 1.99
3 1 -10 14.82 1.61
3 1 -10 19.29 1.73
-3 1 10 15.86 1.5
-3 1 10 18.16 1.56
-3 1 10 16.54 1.91
-3 1 9 14.72 1.7
3 1 -9 12.51 1.34
-3 1 9 15.57 1.76
3 1 -9 13.79 1.43
-3 1 9 12.65 1.3
-3 1 9 13.22 1.34
-3 1 9 14.54 1.69
-3 1 8 142.19 4.64
-3 1 8 148.73 4.59
3 1 -8 144.15 4.76
-3 1 8 135.63 5.27
3 1 -8 141.56 3.93
-3 1 7 5.73 0.86
-3 1 7 7.34 0.88
-3 1 7 7.24 1.12
3 1 -7 4.88 0.64
-3 1 7 5.39 0.97
-3 1 6 397.63 8.28
-3 1 6 424.65 9.57
-3 1 6 404.13 9.42
-3 1 5 29.07 1.62
-3 1 5 30.66 1.91
-3 1 5 27.65 1.41
3 1 -5 28.25 1.23
3 1 -5 27.97 1.48
-3 1 4 6.45 0.6
3 1 -4 5.58 0.68
3 1 -4 6.51 0.5
-3 1 4 6.36 0.84
-3 1 3 2576.67 40.88
3 1 -3 2524.98 40.64
-3 1 3 2595.1 42.16
3 1 -2 2083.96 35.92
3 1 -2 2158.46 34.69
-3 1 2 2141.61 35.99
3 1 -1 11.87 0.66
-3 1 1 12.6 0.99
-3 1 1 11.48 0.94
3 1 0 1934.13 31.27
-3 1 0 1853.82 32
-3 1 -1 1191.41 21.01
-3 1 -1 1213.89 21.06
-3 1 -1 1192.55 21.44
-3 1 -2 60.48 2.35
-3 1 -2 60.76 2.51
-3 1 -2 57.33 2.59
-3 1 -3 302.07 6.77
-3 1 -3 297.83 7.09
-3 1 -4 8.71 1.04
-3 1 -4 9.86 0.94
-3 1 -4 8.47 0.89
-3 1 -4 9.03 1.09
-3 1 -4 8.54 1.03
-3 1 -4 7.84 1.05
-3 1 -4 7.52 0.88
-3 1 -4 7.26 0.96
-3 1 -5 18.81 1.63
-3 1 -5 21.96 1.53
-3 1 -5 19.16 1.43
-3 1 -5 21.28 1.73
-3 1 -5 21.66 1.43
-3 1 -5 19.39 1.65
-3 1 -5 18.23 1.72
-3 1 -5 21.69 1.64
-3 1 -5 16.21 1.57
-3 1 -5 17.13 1.54
-3 1 -6 152.52 5.35
-3 1 -6 149.09 4.76
-3 1 -6 142.84 4.63
-3 1 -6 140.62 5.08
-3 1 -6 164.63 4.64
-3 1 -6 140 4
-3 1 -6 134.84 5.01
3 1 6 157 4.81
-3 1 -6 146.75 5.16
-3 1 -6 141.81 5.41
-3 1 -6 166.01 5.41
-3 1 -6 131.51 5.16
-3 1 -7 0.18 0.45
-3 1 -7 1.07 0.46
-3 1 -7 0.29 0.43
-3 1 -7 0.38 0.47
-3 1 -7 0.35 0.42
-3 1 -7 0.47 0.45
-3 1 -7 0.08 0.44
-3 1 -7 0.67 0.34
3 1 7 0.61 0.41
-3 1 -7 0.65 0.45
-3 1 -8 15.27 1.7
-3 1 -8 16.13 1.71
-3 1 -8 18.67 1.59
-3 1 -8 16.17 1.31
3 1 8 19.04 1.65
-3 1 -8 20.94 1.99
-3 1 -8 16.87 1.93
-3 1 -8 17.52 1.93
-3 1 -8 16.66 1.85
-3 1 -9 241.98 7.2
-3 1 -9 241.94 6.89
-3 1 -9 256.42 8.3
-3 1 -9 229.39 7.84
-3 1 -9 265.41 7.91
-3 1 -9 249.6 7.76
-3 1 -10 29.09 2.05
-3 1 -10 26.33 2.18
-3 1 -10 30.27 2.31
-3 1 -10 27.75 2.4
-3 1 -11 0.69 0.48
-3 1 -11 0.94 0.52
-3 1 -11 0.44 0.41
-3 1 -11 1.11 0.63
-3 1 -12 1.51 0.47
-3 1 -12 0.61 0.45
-3 1 -12 0.89 0.38
-3 2 13 58.95 2.07
-3 2 13 59.37 2.61
-3 2 13 57.73 2.54
-3 2 13 56.12 2.53
3 2 -13 60.86 2.33
3 2 -13 60.71 2.45
3 2 -13 57.52 2.32
-3 2 12 1.05 0.42
-3 2 12 1.4 0.6
-3 2 12 0.69 0.57
-3 2 12 1.11 0.58
3 2 -12 1.24 0.49
3 2 -12 1.07 0.49
3 2 -12 1.12 0.45
-3 2 11 490.1 12.04
-3 2 11 490.73 12.04
3 2 -11 519.67 11.25
3 2 -11 499.22 11.32
-3 2 11 504.23 12.23
-3 2 11 531.65 11.13
-3 2 10 750.31 15.04
-3 2 10 790.78 16.52
-3 2 10 752.52 16.36
3 2 -10 667.38 14.98
3 2 -10 749.63 15.08
3 2 -10 771.27 15.29
3 2 -10 678.55 15.03
3 2 -10 724.36 15.21
-3 2 10 745.04 16.48
-3 2 9 386.61 10.22
3 2 -9 369.08 9.04
-3 2 9 403.5 10.36
-3 2 9 384.89 8.91
3 2 -9 380.96 9.24
-3 2 9 376.7 9.22
-3 2 9 369.1 10.24
-3 2 8 15.79 1.48
-3 2 8 16.56 1.72
3 2 -8 15.79 1.4
-3 2 8 15.96 1.68
3 2 -8 17.78 1.54
-3 2 8 14.48 1.28
3 2 -8 14.57 1.18
-3 2 8 13.25 1.59
-3 2 7 12.89 1.44
-3 2 7 10.66 1.31
-3 2 7 10.89 1.02
3 2 -7 11.26 1.02
-3 2 7 13.01 1.45
-3 2 6 351.43 8.07
-3 2 6 373.88 8.72
-3 2 6 338.08 8.48
-3 2 6 327.42 7.26
3 2 -6 337.2 7.5
-3 2 6 372.53 8.84
-3 2 5 295.77 6.78
-3 2 5 324.28 7.45
-3 2 5 298.18 7.21
-3 2 5 265.52 5.88
-3 2 5 303.88 7.3
3 2 -5 255 6.23
-3 2 4 41.02 1.44
3 2 -4 37.58 1.78
-3 2 4 41.72 2.08
-3 2 3 251 4.65
-3 2 3 255.36 6.02
-3 2 3 240.98 5.87
3 2 -2 13.79 1.04
-3 2 2 14.87 1.09
-3 2 2 13.75 1.06
3 2 -1 270.63 6.12
-3 2 1 290.36 6.28
-3 2 1 284.98 6.25
3 2 0 54.02 2.09
-3 2 0 57.66 2.17
-3 2 0 55.87 2.11
-3 2 -1 55.52 2.15
3 2 1 54.85 2.11
-3 2 -1 52.82 2.29
-3 2 -2 262.55 6.18
3 2 2 284.73 6.06
-3 2 -2 293.21 6.99
-3 2 -2 261.03 6.53
-3 2 -3 581.59 11
-3 2 -3 528.6 11.28
3 2 3 555.5 10.41
3 2 3 555.03 10.18
-3 2 -3 525.91 11.55
-3 2 -4 259.29 7.27
-3 2 -4 277.94 7.27
-3 2 -4 281.71 6.62
-3 2 -4 282.8 7.39
-3 2 -4 297.91 6.74
-3 2 -4 285.67 7.32
3 2 4 298.41 6.02
-3 2 -4 326.41 7.14
-3 2 -4 272.85 7.19
-3 2 -5 120.88 4.44
-3 2 -5 112.35 3.81
-3 2 -5 124.41 4.42
-3 2 -5 118.65 3.89
-3 2 -5 111.18 3.48
-3 2 -5 110.52 4.24
-3 2 -5 124.33 4.71
-3 2 -5 108.89 4.37
-3 2 -5 104.73 3.43
-3 2 -5 118.27 4.32
-3 2 -6 253.14 7.44
-3 2 -6 256.61 6.8
-3 2 -6 266.61 7.37
-3 2 -6 251.9 7.37
3 2 6 302.07 7.32
-3 2 -6 266.41 6.33
-3 2 -6 257.61 6.62
-3 2 -6 298.48 7.55
-3 2 -6 252.62 7.73
-3 2 -6 251.75 7.61
-3 2 -6 246.2 6.22
-3 2 -6 251.44 7.28
-3 2 -7 1141.06 22.79
-3 2 -7 1104.3 22.69
3 2 7 1203.59 22.27
-3 2 -7 1175.61 21.19
-3 2 -7 1211.86 22.47
-3 2 -7 1165.91 23.48
-3 2 -7 1101.14 23.07
-3 2 -7 1135 22.93
-3 2 -8 636.95 14.31
3 2 8 630.95 13.51
-3 2 -8 624.22 14.22
-3 2 -8 650.53 13.36
-3 2 -8 617.14 12.76
-3 2 -8 631.57 14.85
-3 2 -8 644.21 14.53
-3 2 -9 69.13 3
-3 2 -9 78.77 3.51
-3 2 -9 69.18 3.87
-3 2 -9 72.77 3.71
-3 2 -9 79.53 3.89
-3 2 -10 4.76 0.89
-3 2 -10 3.85 1
-3 2 -10 3.35 0.84
-3 2 -10 4.23 0.93
-3 2 -11 86.22 3.34
-3 2 -11 85.25 3.51
-3 2 -11 84.3 3.46
-3 2 -11 84.88 3.72
-3 2 -12 1.14 0.43
-3 2 -12 1.04 0.44
-3 2 -12 0.87 0.36
-3 3 13 31.79 1.36
-3 3 13 24.27 1.38
-3 3 13 24.31 1.34
-3 3 13 26.26 1.4
3 3 -13 28.29 1.31
3 3 -13 24.37 1.28
3 3 -13 20.78 1.14
-3 3 12 15.77 1.22
-3 3 12 14.53 1.37
-3 3 12 12.75 1.28
-3 3 12 14.2 1.34
3 3 -12 13.7 1.14
3 3 -12 13.92 1.21
3 3 -12 12.77 1.12
-3 3 11 0.94 0.58
-3 3 11 1.31 0.61
3 3 -11 1.71 0.52
-3 3 11 1.47 0.64
-3 3 11 1.42 0.51
3 3 -11 1.26 0.55
3 3 -10 145.84 4.18
-3 3 10 152.01 5.54
-3 3 10 150.35 5.52
3 3 -10 159.08 4.93
-3 3 10 156.29 5.67
-3 3 10 158.35 5.16
3 3 -10 144.94 4.87
-3 3 9 202.1 6.17
-3 3 9 216.62 6.85
-3 3 9 218.69 6.8
3 3 -9 203.38 5.83
-3 3 9 206.14 6.66
3 3 -9 184.05 5.81
3 3 -9 202.04 5.85
3 3 -9 198.74 5.4
-3 3 9 206.49 6.78
-3 3 8 935.87 18.46
-3 3 8 852.08 17.49
-3 3 8 944.41 18.38
3 3 -8 855.84 16.87
-3 3 8 887.52 18.19
3 3 -8 886.53 17.17
3 3 -8 860.2 16.6
-3 3 8 918.57 18.39
-3 3 7 162.33 5.46
-3 3 7 172.56 5.53
-3 3 7 150.95 5.27
3 3 -7 161.32 4.8
3 3 -7 146.05 4.52
-3 3 7 168.74 5.58
-3 3 6 28.61 1.96
-3 3 6 27.99 1.95
-3 3 6 26.68 1.82
-3 3 6 24.02 1.82
3 3 -6 27.37 1.65
-3 3 6 30.62 2.02
-3 3 5 0.87 0.42
-3 3 5 0.61 0.37
-3 3 5 0.05 0.26
-3 3 5 0.96 0.46
3 3 -5 0.04 0.24
-3 3 4 427.15 9.12
-3 3 4 413.31 9
-3 3 3 843.74 15.69
-3 3 3 875.26 15.52
-3 3 3 841.5 15.45
3 3 -2 4.51 0.63
-3 3 2 6.14 0.74
-3 3 2 4.07 0.6
-3 3 2 4.33 0.61
3 3 -1 3883.05 61
-3 3 1 3881.63 61.08
-3 3 1 3771.43 60.99
-3 3 1 3797.02 60.88
-3 3 0 147.47 4.34
3 3 0 143.84 3.74
-3 3 0 132.34 3.65
-3 3 0 138.66 3.71
-3 3 -1 21.22 1.55
3 3 1 20.63 1.18
-3 3 -1 19.19 1.21
-3 3 -2 2.79 0.56
3 3 2 1.12 0.3
-3 3 -2 2.22 0.59
-3 3 -2 2.31 0.59
-3 3 -2 2.31 0.5
-3 3 -3 14.48 1.26
-3 3 -3 9.66 0.97
-3 3 -3 12.4 1.05
3 3 3 11.44 0.92
-3 3 -3 13.31 1.31
-3 3 -4 196.03 6.02
-3 3 -4 212.85 6
-3 3 -4 220.57 5.48
-3 3 -4 222.38 5.49
-3 3 -4 222.27 5.46
-3 3 -4 212.77 5.61
-3 3 -4 207.77 6.03
3 3 4 211.05 5.1
-3 3 -4 198.76 5.45
-3 3 -4 215.39 6.02
-3 3 -5 4.31 0.89
-3 3 -5 8.64 1.1
-3 3 -5 3.88 0.87
-3 3 -5 4.52 0.85
-3 3 -5 6.17 0.85
-3 3 -5 7.45 0.9
-3 3 -5 6.47 0.87
-3 3 -5 5.46 0.76
-3 3 -5 4.92 0.89
3 3 5 4.78 0.65
-3 3 -5 5.32 0.8
-3 3 -5 4.06 0.79
-3 3 -6 193.42 6.12
-3 3 -6 185.25 5.4
-3 3 -6 187.22 5.18
-3 3 -6 178.75 5.4
-3 3 -6 185.16 5.98
-3 3 -6 169.33 6.15
-3 3 -6 217.1 5.98
-3 3 -6 173.25 6.1
-3 3 -6 191.37 5.39
-3 3 -6 200.76 6.13
-3 3 -7 52.53 3
-3 3 -7 49.62 2.51
-3 3 -7 53.6 3.02
3 3 7 52.28 2.92
-3 3 -7 51.87 2.64
-3 3 -7 53.84 2.56
-3 3 -7 52.38 3.22
-3 3 -7 51.42 3.15
-3 3 -7 52.25 3.05
-3 3 -8 253.71 6.66
-3 3 -8 276.92 7.76
3 3 8 266.5 7.44
-3 3 -8 259.91 7.62
-3 3 -8 252.45 7.03
-3 3 -8 279.94 7.05
-3 3 -8 262.4 8.06
-3 3 -8 231.6 7.64
-3 3 -8 264 7.77
-3 3 -9 89.22 3.5
-3 3 -9 79.89 3.72
-3 3 -9 78.11 3.03
-3 3 -9 78.4 3.67
-3 3 -9 74.99 3.87
-3 3 -10 123.75 4.51
-3 3 -10 122.74 4.42
-3 3 -10 127.51 4.81
-3 3 -11 6.66 0.89
-3 3 -11 5.77 0.89
-3 3 -11 7.02 0.85
3 4 -13 88.55 2.46
-3 4 12 0.03 0.09
-3 4 12 0.03 0.12
-3 4 11 4.49 0.77
-3 4 11 2.57 0.64
-3 4 11 2.07 0.56
-3 4 11 2.67 0.64
3 4 -11 2.2 0.52
3 4 -11 3.74 0.66
3 4 -11 3.07 0.58
3 4 -10 0.56 0.31
-3 4 10 0.77 0.47
-3 4 10 1.38 0.54
3 4 -10 0.39 0.31
-3 4 10 0.97 0.53
-3 4 10 1.32 0.58
3 4 -10 0.63 0.38
-3 4 9 4.79 0.89
3 4 -9 7.11 0.88
-3 4 9 5.55 0.99
3 4 -9 4.89 0.77
-3 4 9 7.41 1.11
-3 4 9 7.25 1.11
3 4 -9 4.92 0.84
3 4 -8 598.54 12.05
-3 4 8 610.14 13.05
-3 4 8 603.47 13.04
-3 4 8 595.47 13.03
3 4 -8 591 12.14
3 4 -8 618.39 12.37
-3 4 7 594.47 12.67
3 4 -7 603.32 11.76
-3 4 7 635.86 12.88
-3 4 7 565.21 12.66
3 4 -7 566.39 11.79
3 4 -7 606.34 12.21
-3 4 7 551.2 12.33
-3 4 7 573.61 12.57
-3 4 6 160.7 5.1
-3 4 6 156.2 4.92
3 4 -6 140.58 4.51
-3 4 6 141.6 5.01
-3 4 6 159.46 4.91
-3 4 6 152.21 5.19
-3 4 6 153.74 4.8
-3 4 6 151.82 4.81
-3 4 5 779.47 15.47
-3 4 5 804.73 15.24
-3 4 5 823.94 15.98
-3 4 5 770.81 15.08
-3 4 5 792.29 15.17
-3 4 5 771.45 15.09
-3 4 4 148.28 4.54
-3 4 4 146.98 4.79
3 4 -4 145.13 4.32
-3 4 4 153.16 4.88
-3 4 4 147.29 4.3
-3 4 4 149.91 4.3
-3 4 3 54.23 2.37
-3 4 3 61.96 2.96
-3 4 3 58.32 2.32
-3 4 3 56.03 2.27
-3 4 3 55.23 2.58
3 4 -3 52.74 2.28
-3 4 2 34.46 2.16
-3 4 2 36.22 1.67
-3 4 2 33.51 1.6
-3 4 2 32.05 1.77
-3 4 2 34.95 1.92
3 4 -2 32.97 1.7
-3 4 1 225.68 5.14
-3 4 1 220.15 5.13
-3 4 1 213.76 6.05
-3 4 1 240.17 6.09
3 4 -1 238 5.42
-3 4 1 232.98 5.69
-3 4 0 121.45 4.33
-3 4 0 137.74 4.38
-3 4 0 129.95 3.47
-3 4 0 141.85 4.5
3 4 0 121.65 3.46
-3 4 0 122.56 3.63
-3 4 -1 110.17 4.02
-3 4 -1 117.46 4.21
3 4 1 110.88 3.11
-3 4 -1 103.59 3.15
-3 4 -1 116 3.97
-3 4 -2 22.48 1.69
-3 4 -2 22.64 1.45
-3 4 -2 19.09 1.42
-3 4 -2 23.62 1.85
3 4 2 24.2 1.49
3 4 2 21.47 1.13
-3 4 -2 20.35 1.57
-3 4 -2 22.22 1.32
-3 4 -3 505.45 10.98
-3 4 -3 524.16 11.21
-3 4 -3 516.22 10.69
-3 4 -3 493.74 10.62
-3 4 -3 521.31 10.51
3 4 3 488.27 10.28
-3 4 -3 490.55 10.92
-3 4 -4 22.88 1.77
-3 4 -4 23.24 1.67
-3 4 -4 15.17 1.2
-3 4 -4 17.06 1.49
-3 4 -4 25.12 1.5
-3 4 -4 16.61 1.37
3 4 4 17 1.29
-3 4 -4 16.9 1.48
-3 4 -5 390.42 9.76
-3 4 -5 373.88 9.56
-3 4 -5 404.19 8.81
-3 4 -5 380.83 8.73
-3 4 -5 410.02 9.07
-3 4 -5 399.06 9.4
-3 4 -5 413.77 9.55
3 4 5 409.92 8.88
-3 4 -5 384.88 9.24
-3 4 -6 970.94 19.16
-3 4 -6 1017.16 18.73
-3 4 -6 966.43 18.33
-3 4 -6 953.02 19.6
-3 4 -6 923.85 19.35
-3 4 -6 1016.93 19.06
-3 4 -6 1023.59 19.2
-3 4 -7 384.5 9.4
3 4 7 387.75 9.67
-3 4 -7 374.22 8.85
-3 4 -7 371.41 8.71
-3 4 -7 367.66 8.93
-3 4 -7 363.17 9.16
-3 4 -8 22.87 1.87
-3 4 -8 27.08 1.91
-3 4 -8 24.14 1.79
-3 4 -8 22.91 2
-3 4 -8 24.8 1.8
-3 4 -8 24.36 1.88
-3 4 -9 33.64 2.17
-3 4 -9 37.37 2.17
-3 4 -9 39.18 2.29
-3 4 -9 35.85 2.35
-3 4 -9 33.25 2.08
-3 4 -9 37.61 2.06
-3 4 -10 4.32 0.76
-3 4 -10 5.64 0.85
-3 4 -10 4.34 0.72
-3 4 -11 65.49 2.55
3 5 -12 52.02 1.92
-3 5 12 53.55 2.01
-3 5 11 1.58 0.5
3 5 -10 113.05 3.45
-3 5 10 112.22 4.1
3 5 -9 0.48 0.35
3 5 -8 9.71 1.12
3 5 -8 9.66 1.07
-3 5 8 11.21 1.34
-3 5 7 586.96 12.79
3 5 -7 572.67 11.89
3 5 -7 568.15 12.05
-3 5 7 541.3 12.78
-3 5 6 563.2 12.54
-3 5 6 531.5 12.73
-3 5 5 1299.92 23.49
3 5 -5 1298.8 22.94
-3 5 4 7.68 1.13
-3 5 4 6.27 0.91
-3 5 4 6.32 0.81
3 5 -4 5.7 0.82
-3 5 4 5.88 0.96
-3 5 4 9.31 1.2
-3 5 3 114.09 4.58
-3 5 3 118.25 3.94
-3 5 3 106.68 3.62
3 5 -3 121.21 3.85
-3 5 3 119.78 4.3
-3 5 3 123.41 4.58
-3 5 2 8.09 1.14
-3 5 2 8.65 1.23
3 5 -2 9.3 0.94
-3 5 2 8.77 1.02
-3 5 2 9.18 1.05
-3 5 1 37.86 1.98
3 5 -1 37.62 1.84
-3 5 1 39.88 2.3
-3 5 1 36.19 2.03
3 5 0 9.17 0.84
-3 5 0 7.73 1.12
-3 5 0 9.2 0.97
3 5 0 9.47 0.86
-3 5 0 8.96 1.15
3 5 0 9.88 1
-3 5 0 8.16 0.88
-3 5 0 8.38 0.96
-3 5 -1 295.7 7.09
-3 5 -1 305.85 7.09
-3 5 -1 294.21 7.83
3 5 1 275.44 6.24
-3 5 -1 301.77 8.14
3 5 1 310.65 7.2
-3 5 -1 286.11 7.97
-3 5 -2 149.54 4.5
-3 5 -2 147.04 4.55
-3 5 -2 145.05 5.07
-3 5 -2 162.74 5.75
3 5 2 159.26 4.7
-3 5 -2 156.5 5.36
-3 5 -3 70.73 2.97
-3 5 -3 74.07 2.97
-3 5 -3 73.58 3.44
-3 5 -3 70.95 3.72
3 5 3 76.39 3.09
-3 5 -3 70.02 3.41
-3 5 -4 1106.5 19.88
-3 5 -4 1124.86 19.97
-3 5 -4 1081.58 20.88
3 5 4 1037.42 20.04
-3 5 -4 1045.4 20.78
-3 5 -5 1.9 0.61
-3 5 -5 1.31 0.5
-3 5 -5 1.8 0.66
3 5 5 1.2 0.46
-3 5 -5 1.72 0.55
-3 5 -6 26.64 2.04
-3 5 -6 29.85 1.93
-3 5 -7 0.35 0.37
-3 5 -7 0.07 0.37
-3 5 -7 0.12 0.38
-3 5 -8 21.95 1.72
-3 5 -8 20.68 1.64
-3 5 -8 22.13 1.65
-3 5 -9 3.81 0.74
-3 5 -9 3.52 0.67
-3 5 -9 3.05 0.71
-3 5 -10 0.58 0.38
-3 5 -10 0.06 0.11
-3 5 -11 150.74 3.76
3 6 -11 33.92 1.52
-3 6 11 41.5 1.83
3 6 -10 0.77 0.32
3 6 -10 1.49 0.42
3 6 -9 35.07 1.91
3 6 -9 38.21 2.02
-3 6 9 38.27 2.3
3 6 -8 95.63 3.47
3 6 -8 95.84 3.5
-3 6 8 88.32 3.88
3 6 -7 905.23 17.15
3 6 -7 902.62 17.39
-3 6 7 931.3 18.38
3 6 -6 476.53 10.94
-3 6 6 502.06 11.59
3 6 -5 99.33 3.75
3 6 -5 107.54 3.96
3 6 -5 99.09 3.54
-3 6 5 101.14 4.4
-3 6 5 107.48 4.2
3 6 -4 1.45 0.47
-3 6 4 1.16 0.62
3 6 -4 0.96 0.47
3 6 -4 1.03 0.42
-3 6 4 1.06 0.53
-3 6 4 2.6 0.76
-3 6 4 1.26 0.5
-3 6 3 26.18 2.25
3 6 -3 30.38 1.84
-3 6 3 29.93 1.92
3 6 -3 32.62 1.91
3 6 -3 27.92 1.82
-3 6 3 28.59 2.11
-3 6 3 30.83 2.32
-3 6 2 10.32 1.07
-3 6 2 13.69 1.58
-3 6 2 11.63 1.27
3 6 -2 12.3 1.13
3 6 -2 11.37 1.16
-3 6 2 11.72 1.28
3 6 -2 13.62 1.19
-3 6 2 12.77 1.57
3 6 -1 21.11 1.45
-3 6 1 21.34 2.03
-3 6 1 22.06 2.02
-3 6 1 23.21 1.59
-3 6 1 22.46 1.87
3 6 -1 21.3 1.43
3 6 -1 22.53 1.64
-3 6 1 23.21 1.71
-3 6 1 21.72 1.55
-3 6 0 20.97 1.54
-3 6 0 24.07 1.63
3 6 0 22.78 1.45
-3 6 0 20.93 1.89
3 6 0 22.65 1.39
-3 6 0 22.52 1.55
-3 6 -1 55.36 2.56
-3 6 -1 61.17 2.69
-3 6 -1 61.37 3.41
3 6 1 57.68 2.77
-3 6 -1 58.5 3.34
-3 6 -2 96.8 3.58
-3 6 -2 101.14 3.68
-3 6 -2 111.54 4.56
-3 6 -2 111.7 4.86
3 6 2 98.78 3.83
-3 6 -2 103.31 4.51
-3 6 -3 37.67 2.09
-3 6 -3 30.76 1.92
-3 6 -3 34.59 2.45
-3 6 -3 37.86 2.81
3 6 3 35.31 2.2
-3 6 -3 32.54 2.44
-3 6 -4 2.25 0.69
-3 6 -4 0.97 0.6
-3 6 -4 1.61 0.54
-3 6 -4 1.61 0.69
3 6 4 3.21 0.74
-3 6 -4 1.32 0.51
-3 6 -5 1380.45 24.29
-3 6 -5 1488.29 24.79
-3 6 -5 1366.61 25.7
3 6 5 1225.07 24.65
-3 6 -5 1318.36 25.28
-3 6 -6 202.17 5.58
-3 6 -6 205.11 5.83
-3 6 -6 192.25 6.27
-3 6 -6 189.19 5.76
-3 6 -7 2.05 0.65
-3 6 -7 1.78 0.68
-3 6 -7 3.01 0.65
-3 6 -8 6.1 0.92
-3 6 -8 6.7 0.88
-3 6 -9 9.83 0.97
-3 6 -9 9.95 1.01
-3 6 -9 10.67 1
-3 6 -10 12.68 0.9
3 7 -10 18.71 1.06
-3 7 10 20.99 1.3
3 7 -9 104.19 3.35
-3 7 9 107.2 3.65
3 7 -8 102.07 3.56
-3 7 8 96.09 3.74
3 7 -7 4.76 0.8
-3 7 7 5.57 0.96
-3 7 6 12.27 1.38
3 7 -5 434.1 9.67
-3 7 5 416.09 10.34
3 7 -4 372.79 8.59
-3 7 4 373.36 9.85
3 7 -4 339.69 8.13
3 7 -4 342.63 8.38
-3 7 4 338.35 9.21
-3 7 4 382.32 9.7
-3 7 4 334.89 8.53
3 7 -3 7.76 1
-3 7 3 9.12 1.4
3 7 -3 5.78 0.87
3 7 -3 4.99 0.8
-3 7 3 4.47 0.9
-3 7 3 5.72 1.09
-3 7 3 4.05 0.75
-3 7 2 -0.09 0.49
3 7 -2 0.05 0.25
3 7 -2 -0.06 0.27
-3 7 2 0.07 0.34
-3 7 2 -0.1 0.51
3 7 -2 0.27 0.36
-3 7 1 163.07 4.66
-3 7 1 164.86 5.8
3 7 -1 151.81 5.02
-3 7 1 148.17 4.91
3 7 -1 163.77 4.86
-3 7 1 153.61 6.01
-3 7 0 179.88 5
-3 7 0 167.15 6.17
-3 7 0 176.58 6.23
3 7 0 167.97 5.37
3 7 0 162.61 4.93
-3 7 0 170.8 6.36
-3 7 -1 2.11 0.59
-3 7 -1 2.48 0.78
3 7 1 3.33 0.75
-3 7 -1 3.04 0.86
-3 7 -2 136.69 4.38
-3 7 -2 125.67 5.34
-3 7 -2 142.55 5.77
3 7 2 143.5 5
-3 7 -3 11.04 1.07
-3 7 -3 11.97 1.2
-3 7 -3 10.52 1.54
3 7 3 10.05 1.28
-3 7 -3 9.52 1.38
-3 7 -4 1.5 0.57
-3 7 -4 0.67 0.61
-3 7 -4 0.51 0.35
-3 7 -4 0.42 0.49
-3 7 -5 37.15 2.54
-3 7 -5 45.68 2.17
-3 7 -5 43.1 2.32
-3 7 -5 36.85 2.43
-3 7 -6 496.67 11.3
-3 7 -6 481.47 9.94
-3 7 -6 496.63 10.57
-3 7 -7 254.41 6.86
-3 7 -7 262.02 6.57
-3 7 -7 250.83 6
-3 7 -8 20.3 1.44
-3 7 -8 21.72 1.27
-3 7 -8 20.47 1.41
-3 7 -9 10.49 0.83
3 8 -9 111.18 3.06
-3 8 9 106.4 3.04
3 8 -8 462.34 9.24
-3 8 8 426.17 9.07
-3 8 7 18.94 1.42
3 8 -6 22.09 1.64
-3 8 6 22.71 1.63
3 8 -5 22.78 1.7
-3 8 5 22 1.81
-3 8 5 25.21 1.73
3 8 -4 56.68 2.76
-3 8 4 56.96 3.09
-3 8 4 58.6 2.64
-3 8 3 109.91 4.55
-3 8 3 105.65 4.68
3 8 -3 107.64 4
-3 8 2 15.03 1.69
3 8 -2 15.99 1.42
-3 8 2 13.67 1.69
-3 8 1 -0.09 0.54
3 8 -1 0.78 0.43
-3 8 1 0.1 0.52
-3 8 0 230.29 7.36
-3 8 0 228.81 5.62
-3 8 0 237.98 7.69
3 8 0 217.82 5.97
-3 8 -1 44.63 2.93
-3 8 -1 44.75 2.16
-3 8 -2 12.99 1.6
-3 8 -2 15.04 1.25
-3 8 -2 16.62 1.79
-3 8 -3 15.96 1.7
-3 8 -3 16.47 1.32
-3 8 -3 18.12 1.83
-3 8 -4 0.2 0.34
-3 8 -4 1.35 0.63
-3 8 -5 1.54 0.5
-3 8 -5 2.02 0.6
-3 8 -6 109.22 3.57
-3 8 -6 112.06 3.2
-3 8 -7 33.61 1.71
-3 8 -7 32.83 1.81
3 8 7 29.77 1.54
-3 8 -8 43.51 1.75
3 9 -6 1.52 0.46
-3 9 6 -0.03 0.1
3 9 -5 25.38 1.66
3 9 -4 13.27 1.23
-3 9 4 14.17 1.31
3 9 -3 0.59 0.41
-3 9 3 0.31 0.39
3 9 -2 281.46 7.02
-3 9 2 282.24 7.95
-3 9 2 280.66 7.54
3 9 -1 117.17 3.92
-3 9 1 120.79 4.84
-3 9 1 117.89 4.48
-3 9 0 5.86 1.09
-3 9 0 6.56 1.06
-3 9 -1 -0.07 0.51
-3 9 -2 0.45 0.45
-3 9 -2 0.83 0.55
-3 9 -3 9.34 0.87
-3 9 -3 10.31 1.26
-3 9 -3 8.67 1.16
-3 9 -4 75.97 2.56
-3 9 -4 73.11 3.08
-3 9 -4 72.14 3.12
-3 9 -5 41.09 1.75
-3 9 -5 37.28 1.83
-3 9 -6 16.93 1
3 10 -5 22.93 1.28
3 10 -4 128.82 3.67
3 10 -3 26.32 1.49
-3 10 2 23.3 1.44
3 10 -2 22.4 1.34
-3 10 1 2.76 0.58
-3 10 0 42.56 2.08
-3 10 0 51.27 2.48
-3 10 -1 24.21 1.51
-3 10 -1 24.2 1.66
-3 10 -2 70.56 2.66
-3 10 -3 75.21 2.64
-3 10 -3 75.12 2.71
-3 10 -4 9.51 0.81
4 -10 -4 90.82 2.35
4 -10 -3 91.66 2.44
-4 -10 3 80.05 2.49
4 -10 -2 76.14 2.21
-4 -10 0 129.79 3.49
-4 -10 -1 82.37 2.52
4 -9 -7 37.46 1.33
-4 -9 6 52.56 1.91
4 -9 -6 56.5 1.81
4 -9 -5 30.98 1.35
-4 -9 5 32.75 1.67
4 -9 -5 35.04 1.61
-4 -9 5 29.48 1.34
4 -9 -4 27.41 1.28
-4 -9 4 28.17 1.69
-4 -9 4 27.11 1.42
-4 -9 3 93.09 3.13
-4 -9 3 91.36 2.64
-4 -9 2 102.1 3.79
-4 -9 2 101.84 3.36
4 -9 -1 1.72 0.46
-4 -9 1 1.01 0.41
-4 -9 0 268.61 6.52
-4 -9 0 269.72 6.61
-4 -9 -1 7.89 0.9
-4 -9 -1 8.89 1
-4 -9 -1 8.15 1.03
-4 -9 -2 5.25 0.74
-4 -9 -2 4.53 0.77
-4 -9 -2 5.9 0.87
-4 -9 -3 31.55 1.7
-4 -9 -3 28.45 1.74
-4 -9 -3 29.27 1.69
-4 -9 -4 62.42 2.37
-4 -9 -4 61.28 2.48
-4 -9 -5 14.04 0.95
-4 -9 -5 12.93 0.96
4 -8 -8 272.57 5.64
4 -8 -8 278.24 5.9
4 -8 -7 50.38 2.05
-4 -8 7 48.04 1.98
4 -8 -7 47.52 1.93
-4 -8 7 44.9 1.81
-4 -8 6 15.69 1.27
4 -8 -6 17.8 1.24
-4 -8 6 17.06 1.21
4 -8 -5 17.38 1.26
-4 -8 5 15.86 1.4
4 -8 -5 19.58 1.37
-4 -8 5 16.58 1.3
4 -8 -4 17.45 1.3
-4 -8 4 18.24 1.58
4 -8 -4 16.94 1.33
-4 -8 4 16.27 1.34
4 -8 -3 8.95 0.93
-4 -8 3 7.6 1.12
4 -8 -3 8.24 0.95
-4 -8 3 7 0.93
4 -8 -2 314.46 7.16
-4 -8 2 308.1 7.77
-4 -8 2 322.74 8.49
4 -8 -2 334.74 7.65
4 -8 -1 94.34 3.11
-4 -8 1 87.72 3.62
-4 -8 1 96.66 3.74
-4 -8 1 97 4.16
-4 -8 0 1.05 0.53
-4 -8 0 0.41 0.44
4 -8 0 0.52 0.36
4 -8 0 0.03 0.14
-4 -8 -1 82.51 3.72
-4 -8 -1 87.7 3.56
-4 -8 -2 73.89 3.21
-4 -8 -2 69.42 3.09
-4 -8 -2 67.51 3.39
-4 -8 -2 67.55 3.29
-4 -8 -3 175.95 5.37
-4 -8 -3 179.94 5.42
-4 -8 -3 182.88 5.88
-4 -8 -3 176.53 5.55
-4 -8 -4 5.2 0.86
-4 -8 -4 6.3 1.02
-4 -8 -4 5.89 0.92
-4 -8 -4 5.22 0.87
-4 -8 -5 15.72 1.35
-4 -8 -6 50.6 2.28
-4 -8 -6 50.61 2.25
-4 -8 -7 3.07 0.48
-4 -8 -7 3.14 0.45
4 -7 -10 9.08 0.72
4 -7 -9 78.04 2.38
4 -7 -9 83.02 2.75
-4 -7 9 75.34 2.38
4 -7 -8 5.01 0.73
4 -7 -8 5.41 0.66
-4 -7 8 6.64 0.77
4 -7 -7 285.98 6.5
-4 -7 7 278.88 6.73
-4 -7 6 0.23 0.33
4 -7 -6 0.37 0.4
-4 -7 6 0.66 0.42
4 -7 -5 218.2 5.98
-4 -7 5 204.29 6.19
-4 -7 5 212.81 6.1
4 -7 -4 7.07 0.96
-4 -7 4 7.02 1.11
4 -7 -4 7.09 0.94
-4 -7 4 7.25 1.02
4 -7 -3 99.67 3.72
-4 -7 3 107.17 4.41
4 -7 -3 111.75 3.84
-4 -7 3 105.63 4.11
-4 -7 2 8.2 1.12
4 -7 -2 9.16 1.04
-4 -7 2 9.2 1.18
-4 -7 1 50.29 2.92
-4 -7 1 53.16 3.1
4 -7 -1 58.4 2.62
-4 -7 1 61.64 3.06
-4 -7 0 79.89 3.83
-4 -7 0 78.37 3.55
-4 -7 0 77.18 3.82
4 -7 0 82.1 3.13
-4 -7 0 75.46 3.49
4 -7 1 1.96 0.52
-4 -7 -1 1.52 0.64
-4 -7 -1 1.06 0.57
-4 -7 -2 458.39 11.56
-4 -7 -2 445.37 11.11
-4 -7 -2 475.19 10.92
-4 -7 -3 297.55 8.3
-4 -7 -3 296.63 8.64
-4 -7 -3 302.25 8.47
-4 -7 -4 221.36 6.71
-4 -7 -4 216.61 6.88
-4 -7 -4 219.54 7.04
-4 -7 -5 69.16 3.05
-4 -7 -5 71.45 3.35
-4 -7 -5 67.92 3.27
-4 -7 -6 295.96 6.21
-4 -7 -6 296.43 6.47
-4 -7 -7 231.62 4.67
-4 -7 -7 220.71 5.04
-4 -7 -8 7.32 0.73
-4 -7 -8 8.19 0.86
4 -6 -10 37.18 1.5
4 -6 -10 43.81 1.91
4 -6 -9 91.48 2.93
4 -6 -9 94.2 3.29
4 -6 -8 211.92 4.28
4 -6 -8 208.69 4.76
-4 -6 7 86.73 3.41
4 -6 -7 94.11 3.36
4 -6 -7 94.4 3.63
-4 -6 6 0.75 0.45
4 -6 -5 47.09 2.39
-4 -6 5 52.31 2.8
-4 -6 4 0.36 0.4
4 -6 -4 0.34 0.37
4 -6 -4 1.12 0.48
-4 -6 3 90.06 3.92
-4 -6 3 79.55 3.58
4 -6 -3 75.18 3.71
4 -6 -3 88.21 3.33
-4 -6 2 29.8 2.24
4 -6 -2 26.99 1.97
-4 -6 2 33.44 2.24
-4 -6 2 28.39 2.11
4 -6 -2 31.57 2.33
4 -6 -2 33.18 1.92
-4 -6 1 0.08 0.41
4 -6 -1 1.61 0.53
-4 -6 1 0.28 0.45
-4 -6 1 1.1 0.6
4 -6 -1 0.16 0.38
4 -6 -1 0.05 0.31
-4 -6 0 35.38 2.52
4 -6 0 32.16 2.18
-4 -6 0 30.36 2.16
-4 -6 0 30.74 2.32
-4 -6 0 38.83 2.68
4 -6 0 39.67 2.68
4 -6 0 37.08 1.94
-4 -6 -1 7.79 1.29
-4 -6 -1 8.88 1.31
4 -6 1 9.51 1.37
-4 -6 -1 6.23 1.13
4 -6 1 8.2 1.12
4 -6 2 277.87 7.73
-4 -6 -2 299.59 8.64
-4 -6 -2 290.89 8.73
-4 -6 -3 239.71 6.86
4 -6 3 206.43 6.39
-4 -6 -3 236.06 7.55
-4 -6 -3 209.35 7.14
4 -6 3 218.33 7.08
-4 -6 -3 213.12 6.19
-4 -6 -4 1099.07 21.27
-4 -6 -4 1066.4 22.2
-4 -6 -4 1047.68 20.81
-4 -6 -5 38.04 2.45
-4 -6 -5 39.95 2.76
-4 -6 -5 37.26 2.76
-4 -6 -5 41.02 2.61
-4 -6 -5 38.15 2.46
-4 -6 -6 4.34 0.89
-4 -6 -6 2.32 0.75
-4 -6 -6 3.13 0.91
-4 -6 -6 5.62 0.99
-4 -6 -7 7.73 1.04
-4 -6 -7 7.04 1.03
4 -6 7 7.33 0.83
-4 -6 -7 7.77 1.1
4 -6 8 92.87 2.86
-4 -6 -8 90.18 3.06
-4 -6 -8 95.18 3.51
-4 -6 -9 8.53 0.86
-4 -6 -9 8.02 0.82
4 -5 -11 48.64 1.6
4 -5 -11 56.98 2.07
4 -5 -10 10.55 0.88
4 -5 -10 11.43 1.06
4 -5 -9 39.82 1.96
4 -5 -9 40.84 2.19
4 -5 -8 172.82 5
4 -5 -8 188.81 5.47
-4 -5 7 256.21 6.65
4 -5 -7 263.09 7.01
4 -5 -6 881.84 16.91
4 -5 -6 842.99 17.22
-4 -5 6 822.74 16.5
4 -5 -5 305.21 7.25
4 -5 -5 298.25 8.17
-4 -5 5 310.43 7.85
4 -5 -4 208.92 6.43
-4 -5 4 199.45 6.02
-4 -5 3 488.01 11.36
4 -5 -3 507.17 10.98
4 -5 -3 510.57 11.85
-4 -5 2 46.41 2.63
4 -5 -2 47.63 2.43
-4 -5 2 42.01 2.58
-4 -5 2 45.32 2.66
4 -5 -2 52.44 2.95
4 -5 -2 48.29 2.25
-4 -5 1 4.33 0.95
-4 -5 1 4.11 0.87
-4 -5 1 3.96 0.83
4 -5 -1 4.43 0.68
4 -5 -1 4.62 0.78
-4 -5 0 2.1 0.7
-4 -5 0 3.17 0.78
-4 -5 0 6.29 1.04
4 -5 0 3.31 0.57
4 -5 0 7.57 0.98
4 -5 1 68.7 3.1
-4 -5 -1 81.64 3.48
-4 -5 -1 70.29 3.67
-4 -5 -1 77.02 3.82
-4 -5 -1 74.83 3.61
-4 -5 -2 77.14 3.42
4 -5 2 71.18 3.21
-4 -5 -2 77.23 3.92
-4 -5 -2 70.36 3.75
-4 -5 -2 68.73 3.17
-4 -5 -2 64.56 3.41
4 -5 3 4.13 0.81
-4 -5 -3 5.28 0.93
-4 -5 -3 6.44 1.23
4 -5 3 6.17 1.15
-4 -5 -3 5.34 0.98
-4 -5 -4 369.54 9.31
-4 -5 -4 366.4 10.31
-4 -5 -4 377.98 10.21
4 -5 4 373.67 10.01
-4 -5 -4 363.98 9.54
-4 -5 -5 496.69 12.2
-4 -5 -5 516.37 12.64
-4 -5 -5 560.8 13.36
-4 -5 -5 503.81 11.81
4 -5 5 500.34 12.48
-4 -5 -5 556.35 12.49
-4 -5 -6 279.96 7.66
-4 -5 -6 280.19 8.09
-4 -5 -6 268.91 8.05
-4 -5 -7 26.7 1.97
-4 -5 -7 25.08 1.94
-4 -5 -7 21.57 2.05
-4 -5 -7 22.09 1.99
-4 -5 -8 0.33 0.43
-4 -5 -8 0.44 0.48
-4 -5 -8 0.1 0.3
-4 -5 -8 0.07 0.49
-4 -5 -9 1.66 0.45
-4 -5 -9 2.21 0.6
-4 -5 -9 1.31 0.53
-4 -5 -10 13.72 0.92
4 -4 -11 0.31 0.27
-4 -4 11 0.29 0.35
4 -4 -11 0.4 0.23
4 -4 -11 -0.03 0.11
4 -4 -11 0.25 0.28
4 -4 -11 0.03 0.1
-4 -4 10 44.74 2.25
4 -4 -10 52.61 2.35
4 -4 -10 47.16 2.06
-4 -4 10 47.17 2.35
4 -4 -10 51.21 2.21
-4 -4 10 42.01 2.2
4 -4 -10 49.11 2.3
4 -4 -9 64.87 2.71
-4 -4 9 65.82 2.86
-4 -4 9 58.35 2.84
-4 -4 9 61.2 2.94
-4 -4 9 59.48 2.85
4 -4 -9 70.14 2.93
-4 -4 8 22.41 1.76
4 -4 -8 26.05 1.81
-4 -4 8 19.68 1.7
-4 -4 8 21.05 1.65
4 -4 -8 22.11 1.58
4 -4 -8 24.75 1.87
-4 -4 8 20.34 1.73
-4 -4 7 4.29 0.85
4 -4 -7 4.4 0.84
-4 -4 7 4.67 0.88
4 -4 -7 4.73 0.79
-4 -4 7 4.01 0.84
-4 -4 7 4.15 0.79
4 -4 -7 3.63 0.78
-4 -4 7 4.36 0.87
-4 -4 6 3.63 0.77
-4 -4 6 3.88 0.76
4 -4 -6 3.33 0.77
-4 -4 6 2.94 0.72
-4 -4 6 4.99 0.88
-4 -4 6 5.22 0.88
-4 -4 5 12.42 1.29
4 -4 -5 12.97 1.39
-4 -4 5 12.89 1.32
-4 -4 5 13.17 1.32
-4 -4 5 10.43 1.15
-4 -4 5 11.49 1.18
-4 -4 4 15.13 1.39
-4 -4 4 13.68 1.27
4 -4 -4 16.18 1.53
-4 -4 4 14.04 1.34
-4 -4 4 14.78 1.35
-4 -4 3 78.79 3.23
4 -4 -3 82.22 3.01
-4 -4 3 75.78 3.34
-4 -4 3 81.06 3.6
4 -4 -3 84.18 3.6
-4 -4 3 81.18 3.17
-4 -4 3 79.77 3.13
-4 -4 2 107.17 3.86
4 -4 -2 103.49 3.47
-4 -4 2 109.97 4.18
-4 -4 2 99.48 4.14
-4 -4 2 102.57 3.53
-4 -4 2 106.15 3.59
-4 -4 1 23.13 1.73
4 -4 -1 24.88 1.56
-4 -4 1 21.23 1.81
-4 -4 1 23.54 1.93
4 -4 -1 27.1 2.04
-4 -4 1 26.99 1.64
-4 -4 0 0.74 0.41
-4 -4 0 1.89 0.66
-4 -4 0 0.45 0.39
4 -4 0 2.59 0.71
-4 -4 0 0.6 0.33
-4 -4 -1 60.69 2.98
-4 -4 -1 53.2 2.66
-4 -4 -1 51.78 3.01
-4 -4 -1 60.58 3.27
-4 -4 -1 65.19 2.87
4 -4 1 53.82 2.5
4 -4 1 61.27 3.13
-4 -4 -1 57.65 2.69
-4 -4 -1 59.95 2.54
-4 -4 -2 54.53 2.66
-4 -4 -2 51.68 2.85
-4 -4 -2 52.6 2.79
-4 -4 -2 57.35 3.19
-4 -4 -2 55.36 3.24
-4 -4 -2 54.9 2.7
4 -4 2 49.15 2.49
-4 -4 -2 53.16 2.61
-4 -4 -2 57.85 2.53
-4 -4 -3 772.02 14.55
-4 -4 -3 754.65 14.85
-4 -4 -3 738.89 15.35
-4 -4 -3 717.21 15.31
-4 -4 -3 652.33 15.53
-4 -4 -3 716.16 16.09
-4 -4 -3 767.95 14.91
4 -4 3 721.51 15.8
-4 -4 -3 710.72 14.65
-4 -4 -4 1156.33 23.54
-4 -4 -4 1246.42 23.76
-4 -4 -4 1232.86 22.35
-4 -4 -4 1237.67 24.07
-4 -4 -4 1229.29 22.29
-4 -4 -4 1278.91 24.38
-4 -4 -4 1293.24 23.15
4 -4 4 1139.92 23.89
-4 -4 -4 1163.67 22.91
-4 -4 -5 792.71 16.56
-4 -4 -5 784.35 15.71
-4 -4 -5 776.77 17.28
-4 -4 -5 835.88 17.51
-4 -4 -5 867.03 16.59
-4 -4 -5 768.71 16.96
-4 -4 -5 865.75 16.32
-4 -4 -5 810.63 16.48
-4 -4 -6 460.45 11.48
-4 -4 -6 456.82 11.02
-4 -4 -6 438.88 10.34
-4 -4 -6 446.06 11.01
-4 -4 -6 426.13 10.39
-4 -4 -7 2 0.78
-4 -4 -7 2.72 0.69
-4 -4 -7 4.29 1.05
-4 -4 -7 0.08 0.48
-4 -4 -7 0.27 0.39
-4 -4 -7 0.73 0.5
-4 -4 -8 114.55 3.95
-4 -4 -8 125.78 4.91
-4 -4 -8 117.72 4.52
-4 -4 -8 123.25 4.31
-4 -4 -8 123.78 4.25
-4 -4 -9 3.45 0.74
-4 -4 -9 0.04 0.16
-4 -4 -9 3.39 0.71
-4 -4 -9 0.05 0.17
-4 -4 -10 334.19 7.24
-4 -4 -10 362.15 8.18
-4 -3 12 5.41 0.72
-4 -3 12 5.96 0.73
-4 -3 12 5.66 0.72
4 -3 -12 7.17 0.74
4 -3 -12 7.23 0.82
4 -3 -12 5.92 0.73
-4 -3 11 41.69 2.28
-4 -3 11 43.63 2.36
4 -3 -11 43.17 1.82
4 -3 -11 47.38 2.22
-4 -3 11 48.31 2.13
-4 -3 11 42.67 2.33
4 -3 -11 45.08 2.27
4 -3 -10 63.44 2.64
-4 -3 10 70.92 3.29
-4 -3 10 68.98 3.29
4 -3 -10 69.95 2.99
-4 -3 10 70.43 3.31
-4 -3 10 66.28 2.85
4 -3 -10 68.35 3.04
4 -3 -9 403.89 9.44
-4 -3 9 428.46 10.3
-4 -3 9 406.41 9.4
-4 -3 9 408.79 10.2
4 -3 -9 408.29 9.06
-4 -3 9 404.14 10.09
-4 -3 8 328.61 8.98
4 -3 -8 319.35 8.17
4 -3 -8 358.93 8.18
-4 -3 8 341.73 9.05
-4 -3 8 332.07 9.03
-4 -3 8 357.52 8.43
4 -3 -8 366.56 8.54
-4 -3 8 347.88 8.85
4 -3 -8 325.98 8.3
-4 -3 8 300.07 8.76
-4 -3 8 311.35 8.79
-4 -3 7 465.56 11.15
-4 -3 7 469.09 11.17
-4 -3 7 476.61 10.47
-4 -3 7 451.83 10.81
4 -3 -7 488.69 10.6
-4 -3 7 418.28 10.91
-4 -3 7 436.83 10.98
4 -3 -7 486.51 10.31
-4 -3 7 486.67 11.2
-4 -3 6 31.43 2.22
-4 -3 6 33.76 2.04
-4 -3 6 35.45 2.34
4 -3 -6 33.99 2.11
-4 -3 6 30.22 2.17
-4 -3 6 33.4 2.33
-4 -3 6 31.96 2.21
-4 -3 5 36.07 2.36
-4 -3 5 38.02 2.35
-4 -3 5 38.77 2.39
-4 -3 5 38.17 2.14
4 -3 -5 39.15 2.04
4 -3 -5 41.22 2.33
-4 -3 5 38.2 2.38
-4 -3 5 38.24 2.37
-4 -3 4 15.03 1.45
-4 -3 4 15.24 1.43
-4 -3 4 18.41 1.62
-4 -3 4 13.57 1.34
4 -3 -4 15.8 1.41
-4 -3 4 18.08 1.54
-4 -3 4 16.71 1.52
-4 -3 3 36.11 2.09
-4 -3 3 35.54 1.93
-4 -3 3 36.48 1.91
-4 -3 3 38.17 2.13
-4 -3 3 37.51 2.35
4 -3 -3 38.49 2.21
-4 -3 3 40.24 2.21
-4 -3 3 42.82 2.35
-4 -3 2 687.6 13.36
-4 -3 2 661.27 13.6
-4 -3 2 695.27 13.49
-4 -3 2 669.71 13.58
-4 -3 2 722.47 14.72
4 -3 -2 700.32 12.8
4 -3 -2 721 14.31
-4 -3 2 719.15 13.9
-4 -3 2 745.59 14
-4 -3 1 261.35 6.48
-4 -3 1 255.55 6.57
-4 -3 1 260.27 6.5
-4 -3 1 296.74 7.65
-4 -3 1 265.73 7.24
4 -3 -1 270.05 5.99
4 -3 -1 301.13 7.42
-4 -3 1 267.99 6.64
-4 -3 1 289.8 6.83
-4 -3 0 10.3 0.97
-4 -3 0 7.97 0.98
-4 -3 0 9.04 0.96
-4 -3 0 11.02 1.28
-4 -3 0 9.63 1.24
4 -3 0 9.35 0.84
-4 -3 0 9.41 1
4 -3 0 10.58 1.2
-4 -3 0 11.11 1.07
-4 -3 0 10.61 1.14
-4 -3 -1 67.68 2.94
-4 -3 -1 67.75 2.69
-4 -3 -1 63.29 2.64
-4 -3 -1 67.12 3.01
-4 -3 -1 67.22 3.26
-4 -3 -1 68.47 3.4
-4 -3 -1 67.7 2.77
4 -3 1 63.14 2.46
4 -3 1 62.88 3.06
-4 -3 -1 68.8 2.98
-4 -3 -1 74.83 2.98
-4 -3 -2 214.34 5.76
-4 -3 -2 218.14 6.43
-4 -3 -2 194.83 5.84
-4 -3 -2 211.67 5.47
-4 -3 -2 192.13 5.76
-4 -3 -2 196.89 5.37
-4 -3 -2 200.8 6.03
-4 -3 -2 192.51 6.41
-4 -3 -2 205.87 5.49
4 -3 2 201.05 6.19
-4 -3 -2 187.39 5.7
-4 -3 -2 220 5.79
-4 -3 -3 600.38 14.28
-4 -3 -3 596 14.1
-4 -3 -3 680.32 13.66
-4 -3 -3 690.54 14.11
-4 -3 -3 660.5 14.03
-4 -3 -3 705.15 13.37
-4 -3 -3 707.64 14.17
-4 -3 -3 669.57 14.4
-4 -3 -3 675.3 13.3
-4 -3 -3 702.13 14.67
-4 -3 -3 668.97 13.28
4 -3 3 632.85 14.26
-4 -3 -3 679.78 13.95
-4 -3 -3 667.39 13.51
-4 -3 -4 12.73 1.54
-4 -3 -4 11.89 1.46
-4 -3 -4 8.58 1.12
-4 -3 -4 8.31 1.18
-4 -3 -4 16.65 1.6
-4 -3 -4 9.87 1.12
-4 -3 -4 7.08 1.09
-4 -3 -4 8.6 1.04
-4 -3 -4 8.73 1.29
-4 -3 -4 7.37 1.2
-4 -3 -4 7.37 1.26
-4 -3 -4 7.94 1
-4 -3 -4 7.22 1.13
4 -3 4 8.16 1.2
-4 -3 -4 17.24 1.6
-4 -3 -5 442.1 11.27
-4 -3 -5 406.71 10.98
-4 -3 -5 434.13 10.79
-4 -3 -5 432.21 10.03
-4 -3 -5 402.1 10.99
-4 -3 -5 465 10.16
-4 -3 -5 418.08 10.69
-4 -3 -5 447.74 11.57
-4 -3 -5 421.74 10.67
-4 -3 -5 448.27 10.08
4 -3 5 439.09 11.05
-4 -3 -5 451.15 10.77
-4 -3 -6 117.26 4.84
-4 -3 -6 110.65 4.24
-4 -3 -6 125.37 5.3
-4 -3 -6 118.54 4.68
-4 -3 -6 119.67 5.14
-4 -3 -6 120.66 5.16
-4 -3 -6 100.55 4.81
-4 -3 -6 122.81 4.61
-4 -3 -6 114.07 4.68
-4 -3 -6 119.51 4.81
-4 -3 -6 118.77 4.31
-4 -3 -7 2.01 0.73
-4 -3 -7 1.44 0.58
-4 -3 -7 1.88 0.62
-4 -3 -7 2.88 0.82
-4 -3 -7 2.14 0.82
-4 -3 -7 2.68 0.77
-4 -3 -8 25.19 2.26
-4 -3 -8 24.97 2.08
-4 -3 -8 23.77 1.73
-4 -3 -8 23.57 1.98
-4 -3 -8 24.42 2.19
-4 -3 -8 24.14 1.99
-4 -3 -9 54.78 3.12
-4 -3 -9 53.42 2.74
-4 -3 -9 58.07 2.92
-4 -3 -9 57.57 3.14
-4 -3 -9 53.18 2.8
-4 -3 -10 372.71 7.16
-4 -3 -10 367.86 6.93
-4 -2 13 104.85 3.13
-4 -2 13 116.27 3.22
-4 -2 13 116.89 3.27
4 -2 -13 131.36 3.26
4 -2 -13 129.06 3.45
4 -2 -13 104.64 3.15
-4 -2 12 32.78 1.92
-4 -2 12 30.97 1.89
4 -2 -12 31.54 1.76
-4 -2 12 30.42 1.89
-4 -2 12 31.85 1.56
4 -2 -12 33.76 1.9
-4 -2 11 206.87 6.3
-4 -2 11 213.32 6.44
4 -2 -11 220 6.02
-4 -2 11 220.01 6.5
-4 -2 11 218.5 5.68
4 -2 -11 224.1 6.17
4 -2 -10 178.65 5.5
-4 -2 10 166.64 5.89
-4 -2 10 177.51 5.27
-4 -2 10 173.73 6
-4 -2 10 168.53 5.89
-4 -2 9 336.15 9.07
4 -2 -9 322.76 8.18
4 -2 -9 290.36 7.08
-4 -2 9 332.58 9
-4 -2 9 296.78 7.77
-4 -2 9 315.9 8.91
4 -2 -9 317.09 8.15
-4 -2 9 323.14 8.3
-4 -2 9 294.07 8.57
-4 -2 8 2.84 0.8
4 -2 -8 0.05 0.35
-4 -2 8 2.82 0.82
-4 -2 8 -0.12 0.41
-4 -2 8 3.52 0.89
4 -2 -8 0.13 0.33
4 -2 -8 0.45 0.34
-4 -2 8 1.51 0.6
-4 -2 8 2.6 0.78
-4 -2 7 4.49 0.99
4 -2 -7 4.36 0.74
-4 -2 7 3.86 0.93
-4 -2 7 4.23 0.96
-4 -2 7 3.37 0.73
-4 -2 7 3.48 0.77
4 -2 -7 3.71 0.7
-4 -2 7 2.93 0.82
-4 -2 6 0.3 0.47
-4 -2 6 0.22 0.46
-4 -2 6 0.67 0.49
-4 -2 6 0.16 0.33
-4 -2 6 0.23 0.5
4 -2 -6 0.21 0.3
-4 -2 6 0.97 0.46
-4 -2 6 0.07 0.37
-4 -2 5 4.44 0.9
-4 -2 5 3.39 0.77
-4 -2 5 3.74 0.83
-4 -2 5 4.41 0.87
-4 -2 5 3.64 0.71
4 -2 -5 4.36 0.7
4 -2 -5 4.27 0.71
-4 -2 5 4.3 0.86
-4 -2 4 10.97 1.26
-4 -2 4 11.08 1.24
-4 -2 4 10.4 1.02
-4 -2 4 11.1 1.27
4 -2 -4 11.47 1.12
-4 -2 4 10.35 1.21
-4 -2 4 9.79 1.17
-4 -2 4 11.12 1.21
-4 -2 3 413.42 8.76
-4 -2 3 411.85 9.45
-4 -2 3 421.96 9.61
-4 -2 3 418.68 9.55
-4 -2 3 394.84 9.32
-4 -2 2 83.89 3.22
-4 -2 2 83.28 2.85
4 -2 -2 83.24 3.2
-4 -2 2 84.15 3.31
-4 -2 2 92.44 3.44
-4 -2 2 84.37 3.23
-4 -2 1 329.74 7.99
-4 -2 1 375.44 8.3
4 -2 -1 374.8 8.42
-4 -2 1 394.99 8.55
-4 -2 1 386.63 8.7
-4 -2 1 349.1 8.22
-4 -2 0 889.83 17.03
4 -2 0 888.23 15.85
-4 -2 0 951.23 17.25
4 -2 0 970.66 17.59
-4 -2 0 982.73 17.48
-4 -2 0 961.98 17.68
-4 -2 0 906.65 17.26
-4 -2 -1 1116.17 19.09
-4 -2 -1 997.9 18.83
-4 -2 -1 941.2 19.38
-4 -2 -1 1084.72 19.07
-4 -2 -1 1005.56 18.49
4 -2 1 1071.52 19.6
-4 -2 -1 1019.05 19.42
-4 -2 -1 1124.56 19.42
-4 -2 -2 747.13 14.91
-4 -2 -2 793.27 15
-4 -2 -2 668.73 13.66
-4 -2 -2 729.28 14.25
-4 -2 -2 636.52 13.91
-4 -2 -2 701.58 13.48
-4 -2 -2 651.92 13.47
-4 -2 -2 703.5 13.52
-4 -2 -2 663.1 14.15
-4 -2 -2 748.76 14.56
-4 -2 -2 691.82 14.63
-4 -2 -2 674.17 12.94
4 -2 2 642.8 13.88
-4 -2 -2 632.26 13.8
-4 -2 -2 694.03 13.79
-4 -2 -3 38.8 2.55
-4 -2 -3 38.82 2.53
-4 -2 -3 35.6 2.13
-4 -2 -3 32.82 2.18
-4 -2 -3 33.33 2.22
-4 -2 -3 34.74 1.99
-4 -2 -3 36.63 2.16
-4 -2 -3 30.68 2.21
-4 -2 -3 37.26 2.06
-4 -2 -3 33.2 2.24
-4 -2 -3 31.36 2.31
-4 -2 -3 30.74 1.73
-4 -2 -3 35.29 2.28
4 -2 3 34.63 2.23
-4 -2 -3 33.43 2.18
-4 -2 -3 36.56 2.15
-4 -2 -4 238.42 7.02
-4 -2 -4 227.26 6.86
-4 -2 -4 245.06 6.38
-4 -2 -4 219.28 7.06
-4 -2 -4 234.03 6.33
-4 -2 -4 236.82 7.21
-4 -2 -4 245.81 6.95
-4 -2 -4 223.35 5.83
-4 -2 -4 227.93 6.89
-4 -2 -4 225.7 7.23
-4 -2 -4 249.14 6.73
-4 -2 -4 218.83 7.07
-4 -2 -4 236.51 6.89
-4 -2 -4 247.14 6.67
-4 -2 -5 229.5 7.36
-4 -2 -5 274.08 7.09
-4 -2 -5 267.11 7.04
-4 -2 -5 246.11 7.19
-4 -2 -5 255.61 7.78
-4 -2 -5 266.83 7.71
-4 -2 -5 250.93 6.48
-4 -2 -5 258.44 8.03
-4 -2 -5 277.12 7.55
-4 -2 -5 254.2 7.93
-4 -2 -5 243.02 7.4
-4 -2 -6 2.06 0.74
-4 -2 -6 2.55 0.71
-4 -2 -6 1.99 0.89
-4 -2 -6 2.39 0.69
-4 -2 -6 2.36 0.77
-4 -2 -6 2.33 0.6
-4 -2 -6 1.31 0.68
-4 -2 -6 2.09 0.81
-4 -2 -6 1.93 0.73
-4 -2 -6 2.43 0.9
-4 -2 -6 2.31 0.75
-4 -2 -7 274.11 8.13
-4 -2 -7 272.36 8.41
-4 -2 -7 257.49 7.8
-4 -2 -7 259.61 6.92
-4 -2 -7 250.8 6.63
-4 -2 -7 242.09 7.81
-4 -2 -7 253.86 8.38
-4 -2 -7 272.81 7.66
-4 -2 -7 230.81 8.03
-4 -2 -7 288.92 8.39
-4 -2 -8 219.99 7.35
-4 -2 -8 212.78 6.65
-4 -2 -8 209.12 7.02
-4 -2 -8 208.91 7.4
-4 -2 -8 233.07 7.2
-4 -2 -9 10.35 1.42
-4 -2 -9 6.91 0.98
-4 -2 -9 8.48 1.39
-4 -2 -9 8.41 1.21
-4 -2 -9 10.65 1.38
-4 -2 -10 82.13 3.56
-4 -2 -10 83.2 3.5
-4 -2 -10 79.98 3.68
-4 -2 -10 79.85 3.41
-4 -2 -11 4.54 0.78
-4 -2 -11 3.91 0.65
-4 -1 13 19.75 1.31
-4 -1 13 17.43 0.91
-4 -1 13 17.64 1.25
-4 -1 13 18.84 1.3
4 -1 -13 20.5 1.24
4 -1 -13 18.66 1.27
4 -1 -13 17.41 1.21
-4 -1 12 0.6 0.4
-4 -1 12 0.06 0.45
4 -1 -12 0.1 0.34
-4 -1 12 0.67 0.43
-4 -1 12 0.3 0.28
4 -1 -12 1.58 0.5
-4 -1 11 107.71 4.46
-4 -1 11 111.31 4.54
4 -1 -11 111 4.09
-4 -1 11 115.42 4.61
-4 -1 11 108.53 3.77
4 -1 -11 107.73 4.17
4 -1 -10 200.85 6.11
-4 -1 10 189.67 6.53
-4 -1 10 186.91 6.57
-4 -1 10 185.06 5.63
-4 -1 10 202.69 6.74
-4 -1 9 252.86 6.72
-4 -1 9 229.72 7.6
-4 -1 9 233.84 7.59
-4 -1 9 229.35 7.47
4 -1 -9 222.01 6.64
4 -1 -9 255.76 7.06
-4 -1 9 229.45 6.64
-4 -1 9 220.87 7.38
-4 -1 8 31.19 2.04
-4 -1 8 30.94 2.44
-4 -1 8 34.65 2.57
-4 -1 8 29.27 2.39
-4 -1 8 30.78 2.02
-4 -1 8 29.88 2.39
-4 -1 7 32.37 2.41
-4 -1 7 32.38 2.01
-4 -1 7 29.18 2.29
4 -1 -7 25.88 1.59
-4 -1 7 32.76 2.41
-4 -1 7 31.76 1.99
4 -1 -7 29.67 1.58
4 -1 -7 28.64 1.72
-4 -1 7 30.28 2.31
-4 -1 6 226.81 6.72
-4 -1 6 219.46 6.65
-4 -1 6 221.48 6.68
-4 -1 6 215.39 5.81
4 -1 -6 204.87 5.32
4 -1 -6 205.5 5.37
-4 -1 6 197.59 6.31
-4 -1 5 667.33 12.79
-4 -1 5 611.96 13.6
-4 -1 5 639.86 13.76
-4 -1 5 707.2 12.97
4 -1 -5 595.99 12.43
4 -1 -5 665.01 12.45
-4 -1 5 613.59 13.64
-4 -1 5 614.32 13.55
-4 -1 5 650.31 13.69
-4 -1 4 1104.77 20.88
-4 -1 4 1222 22.19
4 -1 -4 1208.4 21.56
4 -1 -4 1257.35 20.91
-4 -1 4 1221.95 22.21
-4 -1 4 1127.53 21.99
-4 -1 4 1188.15 22.04
-4 -1 3 236.88 5.7
-4 -1 3 257.16 6.56
4 -1 -3 242.06 5.77
-4 -1 3 237.27 6.48
-4 -1 3 255.64 6.63
-4 -1 3 234.84 6.35
-4 -1 2 49.59 2.4
4 -1 -2 47.83 2.14
-4 -1 2 46.15 2.39
-4 -1 2 49.24 2.49
-4 -1 2 50.08 2.39
4 -1 -1 15.19 1.17
-4 -1 1 12.28 1.18
-4 -1 1 14.87 1.29
-4 -1 0 108.64 3.57
4 -1 0 104.21 3.44
-4 -1 0 109.83 3.7
-4 -1 0 100.24 3.72
-4 -1 0 102.26 3.61
-4 -1 0 109.1 3.61
-4 -1 -1 20.51 1.44
-4 -1 -1 19 1.58
-4 -1 -1 17.96 1.36
4 -1 1 22.45 1.5
-4 -1 -1 22.63 1.59
-4 -1 -1 18.68 1.53
-4 -1 -2 49.86 2.85
-4 -1 -2 56.99 2.84
-4 -1 -2 57.88 2.52
-4 -1 -2 51.81 2.34
-4 -1 -2 56.87 2.51
-4 -1 -2 59.73 2.96
-4 -1 -2 53.59 2.73
4 -1 2 51.33 2.49
-4 -1 -2 56.83 2.8
-4 -1 -2 54.17 2.6
-4 -1 -3 204.4 6.14
-4 -1 -3 196.98 6.01
-4 -1 -3 216.48 5.66
-4 -1 -3 193.24 6.18
-4 -1 -3 207.49 5.6
-4 -1 -3 183.68 5.95
-4 -1 -3 205.44 6.08
-4 -1 -3 193.55 5.69
-4 -1 -3 187.91 6.29
-4 -1 -3 193.52 6.35
-4 -1 -3 203.68 5.8
-4 -1 -3 214.75 6.05
-4 -1 -3 209.73 6.25
-4 -1 -4 1.84 0.62
-4 -1 -4 0.45 0.46
-4 -1 -4 2.58 0.61
-4 -1 -4 0.58 0.4
-4 -1 -4 0.66 0.43
-4 -1 -4 0.34 0.38
-4 -1 -4 0.82 0.49
-4 -1 -4 1 0.33
-4 -1 -4 0.17 0.5
-4 -1 -4 0.25 0.34
-4 -1 -4 0.17 0.47
-4 -1 -4 -0.19 0.33
-4 -1 -4 -0.07 0.37
-4 -1 -5 552.27 13.42
-4 -1 -5 633.19 12.94
-4 -1 -5 609.49 12.81
-4 -1 -5 650.84 14.22
-4 -1 -5 578.67 12.77
-4 -1 -5 601.73 11.75
-4 -1 -5 599.84 13.45
-4 -1 -5 561.9 13.51
-4 -1 -5 620.42 14.39
-4 -1 -5 574.51 13.97
-4 -1 -5 687.83 13.58
-4 -1 -5 559.78 13.34
-4 -1 -6 28.77 2.37
-4 -1 -6 30.08 2.13
-4 -1 -6 30.29 2.5
-4 -1 -6 29.5 2.08
-4 -1 -6 30.64 1.76
-4 -1 -6 25.91 2.12
-4 -1 -6 29.13 1.99
-4 -1 -6 29.46 2.37
-4 -1 -6 28.3 2.51
-4 -1 -6 36.17 2.57
-4 -1 -6 28.11 2.46
-4 -1 -6 30.61 2.39
-4 -1 -7 803.25 17.35
-4 -1 -7 762.81 16.1
-4 -1 -7 800.87 17.34
-4 -1 -7 776.49 16.16
-4 -1 -7 773.35 14.96
-4 -1 -7 782.85 17.1
-4 -1 -7 718.74 17.37
-4 -1 -7 835.11 16.71
-4 -1 -7 695.51 17.07
-4 -1 -7 815.26 17.28
-4 -1 -8 78.53 4.09
-4 -1 -8 82.78 3.5
-4 -1 -8 78.98 3.15
-4 -1 -8 79.91 4.09
-4 -1 -8 77.45 4.35
-4 -1 -8 79.85 4.08
-4 -1 -9 7.66 1.25
-4 -1 -9 7.3 0.89
-4 -1 -9 6.23 1.3
-4 -1 -9 7.33 1.19
-4 -1 -9 6.57 1.17
-4 -1 -10 12.68 1.4
-4 -1 -10 12.56 1.42
-4 -1 -10 12.78 1.4
-4 -1 -10 10.23 1.4
-4 -1 -11 190.7 5.26
-4 -1 -11 182.8 5.49
-4 -1 -11 186.95 5.23
-4 0 13 0.4 0.35
-4 0 13 0.22 0.21
-4 0 13 -0.09 0.29
-4 0 13 -0.04 0.35
4 0 -13 0.04 0.27
4 0 -13 -0.04 0.32
4 0 -13 0.23 0.28
-4 0 12 502.68 11.44
-4 0 12 531.9 11.63
4 0 -12 519.76 10.86
-4 0 12 528.35 11.58
-4 0 12 517.34 10.35
4 0 -12 518.11 11.08
-4 0 11 4.07 0.95
-4 0 11 2.45 0.84
4 0 -11 0.3 0.44
-4 0 11 0.05 0.35
-4 0 11 4.91 1.06
4 0 -11 1.46 0.5
4 0 -10 123.6 4.55
-4 0 10 111.63 4.97
-4 0 10 121.14 4.29
-4 0 10 112.1 4.91
-4 0 10 115.69 4.98
4 0 -9 0.07 0.4
-4 0 9 -0.19 0.55
-4 0 9 0.09 0.57
-4 0 9 0.06 0.41
-4 0 9 -0.09 0.54
4 0 -9 0.14 0.44
-4 0 9 0.3 0.34
-4 0 9 0.09 0.46
-4 0 8 142.25 5.55
-4 0 8 139.16 5.55
-4 0 8 158.94 5.01
-4 0 8 149.32 4.73
-4 0 8 132.67 5.41
-4 0 8 146.85 5.68
-4 0 7 -0.34 0.47
-4 0 7 0.59 0.5
4 0 -7 -0.04 0.22
-4 0 7 0.17 0.33
-4 0 7 0.75 0.43
-4 0 6 56.74 3.09
-4 0 6 55.9 3.06
-4 0 6 60.87 3.2
-4 0 6 56.68 2.63
-4 0 6 61.68 2.55
4 0 -6 57.77 2.44
4 0 -6 57.84 2.24
-4 0 6 52.44 2.95
-4 0 5 0.07 0.43
-4 0 5 0.09 0.27
-4 0 5 0.14 0.43
-4 0 5 -0.07 0.4
4 0 -5 1.34 0.49
4 0 -5 0.13 0.19
-4 0 5 0.69 0.34
-4 0 5 -0.07 0.39
-4 0 5 -0.14 0.38
-4 0 4 186.48 5.54
-4 0 4 180.98 4.78
-4 0 4 177.63 5.39
-4 0 4 180.19 4.56
4 0 -4 168.64 4.9
4 0 -4 171.75 4.31
-4 0 4 180.79 5.5
-4 0 4 183.73 5.59
-4 0 3 0.06 0.33
-4 0 3 0.44 0.37
4 0 -3 0.06 0.19
4 0 -3 0.05 0.33
-4 0 3 0.23 0.35
-4 0 3 0.57 0.49
-4 0 2 539.09 11.31
-4 0 2 552.13 11.35
4 0 -2 550.81 10.41
-4 0 2 564.11 11.59
-4 0 2 543.58 11.46
-4 0 1 0.3 0.31
-4 0 1 0.35 0.32
4 0 0 858.95 15.47
-4 0 0 864.86 16.24
-4 0 0 852.73 16.17
-4 0 -1 0.45 0.31
-4 0 -1 0.19 0.29
4 0 1 -0.12 0.26
-4 0 -1 -0.2 0.35
-4 0 -1 0.06 0.32
-4 0 -2 3223.8 54.88
-4 0 -2 3334.99 54.07
-4 0 -2 3209.27 53.8
-4 0 -2 3244.42 54.97
-4 0 -2 3248.91 55.53
-4 0 -2 3413.49 54.83
-4 0 -2 3347.04 54.48
-4 0 -3 -0.07 0.33
-4 0 -3 0.14 0.42
-4 0 -3 -0.1 0.29
-4 0 -3 0.29 0.45
-4 0 -3 -0.1 0.32
-4 0 -3 0.21 0.41
-4 0 -3 0.62 0.55
-4 0 -3 0.57 0.38
-4 0 -3 -0.08 0.39
-4 0 -3 0.27 0.37
-4 0 -3 0.29 0.34
-4 0 -4 33.17 2.34
-4 0 -4 38.64 2.47
-4 0 -4 38.39 2.15
-4 0 -4 38.78 2.2
-4 0 -4 33.22 1.85
-4 0 -4 34.26 2.12
-4 0 -4 36.32 2.27
-4 0 -4 35.01 2.41
4 0 4 38.81 1.92
-4 0 -4 40.16 2.33
-4 0 -4 34.77 2.38
-4 0 -4 37.54 2.7
-4 0 -4 36.09 2.56
-4 0 -4 40.89 2.37
-4 0 -5 0.28 0.5
-4 0 -5 0.1 0.32
-4 0 -5 -0.14 0.39
-4 0 -5 0.68 0.65
-4 0 -5 0.16 0.48
-4 0 -5 0.59 0.45
-4 0 -5 0.06 0.39
-4 0 -5 -0.09 0.49
-4 0 -5 0.99 0.47
-4 0 -5 0.39 0.35
-4 0 -5 -0.06 0.34
-4 0 -5 0.58 0.52
4 0 5 -0.05 0.24
-4 0 -5 0.57 0.51
-4 0 -6 8.23 1.3
-4 0 -6 9.24 1.18
-4 0 -6 7.19 1.28
-4 0 -6 8.08 1.11
-4 0 -6 8.81 1.01
-4 0 -6 10.08 1.45
-4 0 -6 9.47 1.51
-4 0 -6 11.74 1.5
-4 0 -6 9.89 1.49
-4 0 -6 9.36 1.37
-4 0 -7 0.59 0.56
-4 0 -7 0.07 0.37
-4 0 -7 0.09 0.56
-4 0 -7 0.67 0.55
-4 0 -7 0.06 0.34
-4 0 -7 0.21 0.52
-4 0 -7 0.91 0.55
-4 0 -7 0.66 0.66
-4 0 -7 0.28 0.52
-4 0 -8 185.08 6.52
-4 0 -8 190.28 5.5
-4 0 -8 182.95 7.04
-4 0 -8 185.04 6.57
-4 0 -8 173.56 6.46
-4 0 -9 0.96 0.65
-4 0 -9 0.22 0.36
-4 0 -9 4.07 1.09
-4 0 -9 3.79 0.94
-4 0 -9 4.35 1.06
-4 0 -10 119.69 3.84
-4 0 -10 127.6 4.77
-4 0 -10 131.74 4.77
-4 0 -10 130.19 5.11
-4 0 -11 0.53 0.43
-4 0 -11 0.99 0.51
-4 0 -11 1.08 0.46
-4 0 -12 71.53 2.43
-4 1 13 20.62 1.39
-4 1 13 19.12 1.05
-4 1 13 19.35 1.34
-4 1 13 19.86 1.38
4 1 -13 20.29 1.23
4 1 -13 19.97 1.29
4 1 -13 18.87 1.21
-4 1 12 0.44 0.5
-4 1 12 0.13 0.45
4 1 -12 0.19 0.34
4 1 -12 0.87 0.43
-4 1 12 0.5 0.36
-4 1 12 0.39 0.43
-4 1 11 106.2 4.49
-4 1 11 103.32 4.45
4 1 -11 111.37 4.02
4 1 -11 113.31 4.17
-4 1 11 100.06 4.4
-4 1 11 110.85 3.87
4 1 -10 199.93 6.05
-4 1 10 197.99 6.72
-4 1 10 191.9 6.67
-4 1 10 185.62 5.67
-4 1 10 188.27 6.57
-4 1 9 221.96 7.38
-4 1 9 204.49 7.14
4 1 -9 253.64 6.82
4 1 -9 237.07 6.82
-4 1 9 217.04 7.34
-4 1 9 241.05 6.63
-4 1 9 198.09 7.05
-4 1 8 36.25 2.64
-4 1 8 34.21 2.57
-4 1 8 29.47 2.38
4 1 -8 28.65 1.68
-4 1 8 27.38 1.76
-4 1 8 29.79 2.38
-4 1 7 30.52 2.37
-4 1 7 32.63 2.04
-4 1 7 34.47 2.48
-4 1 7 35 2.49
-4 1 7 27.92 1.7
4 1 -7 31.13 1.77
-4 1 7 32 2.38
-4 1 6 220.82 6.73
-4 1 6 226.42 5.99
-4 1 6 230.21 6.82
-4 1 6 228.64 6.8
-4 1 6 203.75 5.26
4 1 -6 212.83 5.6
-4 1 6 220.71 6.63
-4 1 5 661.99 13.84
-4 1 5 673.68 12.87
-4 1 5 633.24 13.69
-4 1 5 659.14 12.07
4 1 -5 603.11 12.6
-4 1 5 687.2 14.01
-4 1 5 622.16 13.58
-4 1 5 631.99 13.63
-4 1 4 1167.94 22.16
-4 1 4 1162.64 21.09
4 1 -4 1135.04 21.37
-4 1 4 1241.83 22.38
-4 1 4 1289.11 22.52
-4 1 4 1257.61 22.33
-4 1 3 240.92 6.49
-4 1 3 258.62 6.7
-4 1 3 255.73 6.72
-4 1 3 256.64 6.58
-4 1 2 50.79 2.41
4 1 -2 49.89 2.41
-4 1 2 46.99 2.38
-4 1 2 55.43 2.61
-4 1 2 45.27 2.28
4 1 -1 12.99 1.21
-4 1 1 10.71 1.11
-4 1 0 107.22 3.52
4 1 0 99.55 2.84
-4 1 0 107.09 3.61
-4 1 0 113.98 3.98
-4 1 0 97 3.55
-4 1 0 98.48 3.44
-4 1 -1 19.95 1.4
-4 1 -1 20.06 1.42
4 1 1 18.47 1.14
-4 1 -1 21.52 1.53
-4 1 -1 22.32 1.71
-4 1 -2 50.74 2.71
-4 1 -2 50.92 2.35
-4 1 -2 51.91 2.38
-4 1 -2 49.4 2.68
-4 1 -2 55.55 2.98
-4 1 -2 51.65 2.71
-4 1 -2 51.6 2.53
-4 1 -3 177.9 5.82
-4 1 -3 209.12 6
-4 1 -3 203.55 5.41
-4 1 -3 183.38 5.25
-4 1 -3 190.73 5.22
-4 1 -3 189.39 6
-4 1 -3 186.53 6.28
-4 1 -3 195.39 5.58
-4 1 -3 197.41 6.4
-4 1 -3 178.65 5.75
-4 1 -3 187.99 5.56
-4 1 -4 0.08 0.39
-4 1 -4 0.14 0.39
-4 1 -4 0.82 0.46
-4 1 -4 0.63 0.55
-4 1 -4 0.54 0.28
-4 1 -4 0.05 0.31
-4 1 -4 0.56 0.41
-4 1 -4 0.39 0.44
-4 1 -4 0.2 0.29
-4 1 -4 -0.09 0.44
-4 1 -4 0.06 0.38
-4 1 -4 0.18 0.52
-4 1 -4 0.24 0.41
-4 1 -4 0.08 0.36
-4 1 -5 575.96 13.7
-4 1 -5 634.64 13.01
-4 1 -5 651.31 13.1
-4 1 -5 630.1 14.16
-4 1 -5 608.93 11.81
-4 1 -5 640.36 12.62
-4 1 -5 568.53 13.71
4 1 5 641.6 12.8
-4 1 -5 577.31 14.35
-4 1 -5 538.42 13.91
-4 1 -5 698.56 13.69
-4 1 -5 575.57 13.6
-4 1 -6 23.68 2.18
-4 1 -6 28.99 2.06
-4 1 -6 30.88 2.44
-4 1 -6 28.7 2.04
-4 1 -6 27.82 1.83
-4 1 -6 29.68 1.64
-4 1 -6 27.79 2.32
4 1 6 28.05 1.93
-4 1 -6 24.32 2.36
-4 1 -6 30.87 2.37
-4 1 -6 25.12 2.31
-4 1 -6 25.56 2.21
-4 1 -7 717.18 16.78
-4 1 -7 812.28 16.15
-4 1 -7 727.78 16.73
-4 1 -7 794.76 15.38
-4 1 -7 763.8 17.66
-4 1 -7 893.72 16.83
-4 1 -7 688.06 16.97
-4 1 -7 727.23 16.75
4 1 7 787.86 15.63
-4 1 -7 775.36 17.07
-4 1 -8 90.14 3.57
-4 1 -8 82.09 4.43
-4 1 -8 75.64 3.97
-4 1 -8 82.58 4.16
-4 1 -9 6.44 0.96
-4 1 -9 7.46 1.34
-4 1 -9 6.17 1.11
-4 1 -9 6.06 1.15
-4 1 -10 12.14 1.19
-4 1 -10 10.06 1.37
-4 1 -10 9.49 1.23
-4 1 -10 13.18 1.43
-4 1 -11 175.48 4.47
-4 1 -11 193.46 5.25
-4 1 -11 192.09 5.53
-4 1 -11 182.22 5.12
-4 2 13 127.22 3.14
-4 2 13 133.06 3.61
-4 2 13 122.08 3.46
-4 2 13 131.79 3.61
4 2 -13 131.76 3.31
4 2 -13 130.64 3.42
-4 2 12 31.52 1.96
-4 2 12 29.59 1.94
4 2 -12 33.95 1.79
4 2 -12 30.13 1.78
-4 2 12 32.32 1.71
-4 2 12 30.39 1.97
-4 2 11 222.95 6.6
-4 2 11 211.16 6.54
4 2 -11 210.19 5.88
4 2 -11 216.07 6
-4 2 11 220.29 6.65
-4 2 11 210.84 5.81
4 2 -10 178.14 5.47
-4 2 10 178.44 6.2
-4 2 10 169.74 5.37
-4 2 10 174.68 6.14
-4 2 10 183.58 6.21
-4 2 9 324.43 8.96
-4 2 9 310.82 8.86
-4 2 9 291.32 7.78
4 2 -9 291.86 7.92
-4 2 9 276.81 8.41
-4 2 9 307.19 8.81
4 2 -9 330.09 8.05
-4 2 8 8.47 1.24
-4 2 8 3.32 0.89
-4 2 8 6.19 1.13
4 2 -8 0.57 0.42
4 2 -8 0.05 0.28
-4 2 8 2.06 0.76
-4 2 7 7.7 1.23
-4 2 7 3.76 0.76
-4 2 7 5.28 1
-4 2 7 7.35 1.17
4 2 -7 5.31 0.79
-4 2 7 5.59 1.01
-4 2 6 -0.08 0.43
-4 2 6 0.68 0.41
-4 2 6 0.22 0.45
-4 2 6 0.68 0.54
-4 2 6 0.3 0.4
4 2 -6 0.4 0.33
-4 2 6 -0.22 0.42
-4 2 5 6.63 0.85
-4 2 5 3.99 0.82
-4 2 5 3.98 0.84
-4 2 5 3.78 0.78
4 2 -5 4.34 0.71
-4 2 5 4.32 0.83
-4 2 5 5.21 0.91
-4 2 4 10.46 1.2
-4 2 4 10.66 1.02
-4 2 4 10.57 1.21
-4 2 4 9.43 1.05
-4 2 4 11.13 1.21
-4 2 4 9.42 1.12
-4 2 4 10.79 1.2
-4 2 3 434.92 9.88
4 2 -3 441.35 9.62
-4 2 3 457.69 10.06
-4 2 3 447.34 9.59
-4 2 3 462.91 10.09
-4 2 3 474.46 10
-4 2 2 83.84 3.17
4 2 -2 84 3.13
-4 2 2 87.38 3.31
-4 2 2 77.34 3.17
-4 2 2 78.77 3.08
-4 2 1 358.88 7.95
4 2 -1 368.25 8.1
-4 2 1 340.72 8.02
-4 2 1 340.97 8.39
-4 2 1 372.79 8.15
-4 2 1 326.42 7.78
-4 2 0 981.31 17.57
4 2 0 1067.08 17.94
-4 2 0 885.18 17.53
-4 2 0 919.63 18.16
-4 2 0 1001.26 17.84
-4 2 0 899.88 17.41
-4 2 -1 1053.23 20.11
-4 2 -1 1024.74 19.39
-4 2 -2 670.74 14.44
-4 2 -2 654.32 14.25
-4 2 -2 663.68 13.15
-4 2 -2 604.87 13.57
-4 2 -2 691.99 13.6
-4 2 -2 648.66 12.79
-4 2 -2 632.17 12.76
-4 2 -2 709.45 13.16
-4 2 -2 618.66 12.54
4 2 2 690.81 13.04
-4 2 -2 607.01 13.51
-4 2 -2 676.93 13.23
-4 2 -3 30.09 2.37
-4 2 -3 30.84 2.34
-4 2 -3 38.54 2.18
-4 2 -3 29.88 2.15
-4 2 -3 36.07 2.23
-4 2 -3 34.67 1.95
-4 2 -3 35.18 1.97
-4 2 -3 37.11 2.08
-4 2 -3 33.25 1.95
-4 2 -3 36.45 1.87
-4 2 -3 31.41 2.25
4 2 3 37.57 1.95
4 2 3 34.27 1.62
-4 2 -3 32.03 2.21
-4 2 -3 33.91 2.04
-4 2 -4 228.45 7.05
-4 2 -4 230.24 6.78
-4 2 -4 238.41 6.29
-4 2 -4 260.01 6.48
-4 2 -4 235.83 6.26
-4 2 -4 239.26 5.92
-4 2 -4 225.03 7.03
-4 2 -4 211.18 7.24
-4 2 -4 212.02 7.16
-4 2 -4 264.16 6.81
-4 2 -4 232.99 6.99
-4 2 -4 256.22 6.7
-4 2 -5 235.34 7.5
-4 2 -5 254 6.83
-4 2 -5 276.71 7.04
-4 2 -5 285.74 6.99
-4 2 -5 264.49 6.34
-4 2 -5 245.45 7.64
-4 2 -5 241.15 7.49
-4 2 -5 221.96 7.79
-4 2 -5 225.01 7.7
-4 2 -5 305.85 7.67
-4 2 -6 3.79 0.73
-4 2 -6 2.74 0.89
-4 2 -6 2.89 0.78
-4 2 -6 2.4 0.88
-4 2 -6 1.79 0.65
-4 2 -6 2.3 0.54
-4 2 -6 2.45 0.77
-4 2 -6 2.09 0.82
4 2 6 1.89 0.61
-4 2 -6 2.29 0.78
-4 2 -7 268.24 8.11
-4 2 -7 246.4 7.97
4 2 7 269.24 7.36
-4 2 -7 287.21 7.26
-4 2 -7 275.36 6.62
-4 2 -7 260.02 8.54
-4 2 -7 286.58 7.8
-4 2 -7 240.44 8.22
-4 2 -7 262.26 8.16
-4 2 -8 226.6 6.32
-4 2 -8 221.78 5.77
-4 2 -8 207.24 7.34
-4 2 -8 226.25 7.14
-4 2 -8 217.43 7.15
-4 2 -9 11.01 1.19
-4 2 -9 8.69 1.4
-4 2 -9 7.63 1.14
-4 2 -9 10.16 1.35
-4 2 -10 85.46 3.21
-4 2 -10 83.66 3.74
-4 2 -10 82.05 3.43
-4 2 -10 87.08 3.56
-4 2 -11 3.74 0.58
-4 2 -11 2.52 0.61
-4 2 -11 3.49 0.6
-4 3 12 7.29 0.85
-4 3 12 7.9 0.82
-4 3 12 8.28 0.89
-4 3 12 6.14 0.8
4 3 -12 6.99 0.72
4 3 -12 6.44 0.76
4 3 -12 6.1 0.72
-4 3 11 45.99 2.36
-4 3 11 47 2.43
4 3 -11 45.64 2.05
-4 3 11 45.83 2.39
-4 3 11 45.31 2.18
4 3 -11 49.63 2.21
-4 3 10 70.25 3.4
-4 3 10 68.31 3.41
4 3 -10 72.57 3
-4 3 10 67.18 3.36
-4 3 10 65.1 3.03
4 3 -10 64.05 2.94
4 3 -9 408.42 9.49
-4 3 9 441.63 10.65
-4 3 9 416.83 10.47
-4 3 9 402.44 10.28
-4 3 8 332.97 9.11
4 3 -8 336.7 8.26
-4 3 8 376.78 9.38
-4 3 8 357.26 9.31
-4 3 8 333.04 8.56
4 3 -8 320.16 8.25
4 3 -8 340.59 8.03
-4 3 8 347.63 9.26
-4 3 8 341.68 9.15
-4 3 7 491.25 11.46
-4 3 7 489.39 10.89
-4 3 7 463.87 11.3
-4 3 7 499.72 11.44
-4 3 7 491.46 11.51
-4 3 7 485.11 11.45
-4 3 6 35.46 2.33
-4 3 6 34.79 2.13
-4 3 6 33.8 2.31
-4 3 6 31.13 2.18
4 3 -6 32.71 1.97
-4 3 6 32.02 2.24
-4 3 6 34.85 2.32
-4 3 5 39.46 2.37
-4 3 5 38.3 2.14
-4 3 5 40.59 2.43
-4 3 5 40.26 2.37
4 3 -5 35.83 2.06
-4 3 5 42.15 2.43
-4 3 5 37.6 2.33
-4 3 5 40.09 2.4
-4 3 4 19.28 1.56
-4 3 4 17.64 1.35
-4 3 4 16.6 1.48
4 3 -4 16.71 1.34
-4 3 4 15.71 1.41
-4 3 4 18.06 1.53
-4 3 4 18.57 1.56
-4 3 4 16.11 1.44
-4 3 3 39.99 2.15
4 3 -3 39.53 2.1
-4 3 3 36.63 2.14
-4 3 3 42.19 2.25
-4 3 3 41.4 2.24
-4 3 3 37.22 2.11
-4 3 3 38.29 1.87
-4 3 2 688.17 13.47
-4 3 2 671.72 13.45
4 3 -2 655.66 13.37
-4 3 2 737.54 13.84
-4 3 2 686.1 13.8
-4 3 2 710.83 13.69
-4 3 1 273.34 6.54
-4 3 1 270.56 6.54
-4 3 1 262.28 6.55
4 3 -1 266.87 6.56
-4 3 1 288.65 6.74
-4 3 1 271.88 6.64
-4 3 1 267.85 6.83
-4 3 0 10.5 0.99
4 3 0 9.31 0.97
-4 3 0 9.28 0.98
-4 3 0 9.71 1.13
-4 3 0 10.45 1.09
-4 3 0 10.01 1.2
-4 3 0 9.75 0.98
-4 3 -1 64.9 2.83
-4 3 -1 63.07 2.58
-4 3 -1 66.71 3.06
-4 3 -1 63.45 2.6
4 3 1 64.24 2.58
-4 3 -1 66.47 3.04
-4 3 -1 63.95 2.81
-4 3 -1 73.43 2.9
-4 3 -2 200.69 5.51
-4 3 -2 202.98 6.47
-4 3 -2 195.12 5.27
-4 3 -2 193.18 5.25
-4 3 -2 213.14 5.97
-4 3 -2 213.34 5.88
-4 3 -2 186.96 5.49
-4 3 -2 182.53 5.2
4 3 2 203.59 5.14
-4 3 -2 205.55 6.01
-4 3 -2 193.16 5.49
-4 3 -2 203.37 5.54
-4 3 -3 660.86 14.79
-4 3 -3 622.53 14.42
-4 3 -3 713.76 13.64
-4 3 -3 615.24 13.93
-4 3 -3 659.88 13.85
-4 3 -3 708.6 13.27
-4 3 -3 649.01 13.46
-4 3 -3 693.39 13.22
-4 3 -3 700.98 13.68
-4 3 -3 626.5 12.92
4 3 3 676.37 12.74
-4 3 -3 607.04 13.88
-4 3 -3 639.62 13.24
-4 3 -3 701.24 13.54
-4 3 -4 8.36 1.15
-4 3 -4 8.79 1.24
-4 3 -4 7.68 0.96
-4 3 -4 8.89 1.04
-4 3 -4 7.99 1.02
-4 3 -4 6.65 0.88
-4 3 -4 8.6 1.35
-4 3 -4 9.14 1.37
-4 3 -4 7.04 1.02
-4 3 -4 7.18 1.11
-4 3 -4 8.09 0.99
-4 3 -5 424.02 10.81
-4 3 -5 447.8 10.04
-4 3 -5 447.66 9.98
-4 3 -5 457.84 11.11
-4 3 -5 416.51 10.72
-4 3 -5 405.86 9.57
-4 3 -5 444.41 11.48
-4 3 -5 425.18 11.27
-4 3 -5 439.17 9.56
-4 3 -6 118.85 4.89
-4 3 -6 117.54 4.28
-4 3 -6 112.63 4.75
4 3 6 120.98 4.6
-4 3 -6 120.9 3.97
-4 3 -6 104.43 4.91
-4 3 -6 102.13 4.87
-4 3 -6 123.24 4.55
-4 3 -6 120.9 4.82
-4 3 -7 2.32 0.79
-4 3 -7 2.64 0.61
-4 3 -7 1.96 0.82
-4 3 -7 2.37 0.75
-4 3 -8 25.13 2.06
-4 3 -8 24.79 1.66
-4 3 -8 23.34 2.14
-4 3 -8 24 1.97
-4 3 -9 56.67 2.91
-4 3 -9 56.28 3.09
-4 3 -9 58.54 2.87
-4 3 -9 54.24 2.35
-4 3 -10 384.57 9.01
-4 3 -10 391.54 8.64
-4 3 -11 34.92 1.57
-4 4 12 163.94 4.1
4 4 -11 0.03 0.1
-4 4 11 0.04 0.14
-4 4 11 0.64 0.37
-4 4 11 -0.04 0.14
4 4 -11 0.03 0.33
-4 4 10 52.5 2.52
4 4 -10 49.9 2.14
-4 4 10 54.69 2.62
4 4 -10 47.94 2.17
-4 4 10 54.63 2.61
4 4 -10 45.67 2.22
-4 4 9 65.34 3.05
-4 4 9 66.69 3.14
4 4 -9 66.26 2.77
-4 4 9 68.03 3.15
-4 4 9 63.79 3.07
4 4 -9 65.46 2.81
4 4 -8 21.98 1.59
-4 4 8 22.57 1.84
-4 4 8 20.97 1.78
-4 4 8 22.89 1.86
-4 4 8 24.04 1.85
-4 4 7 4.95 0.91
-4 4 7 4.45 0.88
4 4 -7 3.74 0.73
-4 4 7 5.53 0.96
-4 4 7 4.13 0.82
4 4 -7 4.53 0.81
-4 4 7 4.38 0.88
-4 4 6 4.12 0.83
-4 4 6 3.54 0.77
-4 4 6 4.62 0.85
-4 4 6 3.08 0.71
4 4 -6 5.32 0.85
-4 4 6 3.13 0.71
-4 4 5 12.77 1.28
-4 4 5 11.66 1.22
-4 4 5 14.89 1.4
-4 4 5 12.74 1.3
-4 4 5 11.63 1.22
-4 4 4 14.12 1.29
-4 4 4 14.72 1.27
4 4 -4 16.36 1.4
-4 4 4 15.37 1.51
-4 4 4 14.51 1.33
-4 4 4 14.34 1.33
-4 4 4 17.62 1.43
-4 4 3 75.27 3.01
-4 4 3 73.46 2.81
-4 4 3 81.29 3.09
4 4 -3 78.88 3.13
-4 4 3 83.27 3.21
-4 4 3 82.2 3.55
-4 4 3 79.25 3.11
-4 4 2 98.71 3.43
-4 4 2 100.63 3.68
-4 4 2 98.96 3.42
4 4 -2 99.61 3.51
-4 4 2 101.44 3.51
-4 4 2 105.14 3.57
-4 4 2 112.2 4.19
-4 4 1 22.53 1.46
-4 4 1 24.7 2.01
-4 4 1 21.6 1.46
-4 4 1 25.46 1.7
4 4 -1 23.84 1.54
-4 4 1 22.53 1.51
-4 4 1 24.29 1.87
-4 4 0 0.55 0.43
-4 4 0 1.11 0.36
-4 4 0 1.39 0.6
-4 4 0 0.56 0.38
-4 4 0 0.45 0.3
4 4 0 0.9 0.39
-4 4 0 0.45 0.41
-4 4 0 0.83 0.37
-4 4 -1 54.77 2.69
-4 4 -1 48.55 2.21
-4 4 -1 56.06 3.03
-4 4 -1 54.82 2.33
-4 4 -1 52.18 2.52
4 4 1 55.21 2.26
-4 4 -1 56.78 2.87
-4 4 -1 58.76 2.52
-4 4 -2 56.88 3.06
-4 4 -2 58.67 3.09
-4 4 -2 57.86 2.45
-4 4 -2 57.62 2.79
4 4 2 56.12 2.56
-4 4 -2 49.5 2.72
-4 4 -2 57.93 2.56
-4 4 -3 695.52 15.01
-4 4 -3 658.7 14.52
-4 4 -3 741.94 13.64
-4 4 -3 707.24 13.52
-4 4 -3 671.5 14.02
4 4 3 674.47 13.53
-4 4 -3 665.92 14.32
-4 4 -3 723.38 13.83
-4 4 -4 1345.46 22.62
-4 4 -4 1156.31 23.19
-4 4 -4 1174.51 22.23
-4 4 -4 1253.99 21.66
-4 4 -4 1203.57 21.6
4 4 4 1135.75 21.33
-4 4 -4 1148.35 22.48
-4 4 -4 1098.7 22.15
-4 4 -4 1180.23 22.09
-4 4 -4 1259.76 21.94
-4 4 -5 811.71 15.69
-4 4 -5 874.8 15.84
-4 4 -5 809.7 15.97
-4 4 -5 702.56 16.67
-4 4 -5 887.27 16.34
-4 4 -5 738.29 16.89
-4 4 -5 839.36 16.67
-4 4 -5 763.38 16.01
-4 4 -6 449.53 9.93
-4 4 -6 439.65 9.58
-4 4 -6 404.95 10.67
-4 4 -6 417.82 10.22
-4 4 -6 412.09 9.73
4 4 6 434.9 10.44
-4 4 -7 0.38 0.37
-4 4 -7 0.54 0.43
-4 4 -7 0.66 0.39
-4 4 -7 0.53 0.44
-4 4 -7 0.24 0.45
-4 4 -8 134.49 4.37
-4 4 -8 128.97 4.12
-4 4 -8 117.41 4.19
-4 4 -8 118.99 4.53
-4 4 -9 2.35 0.62
-4 4 -9 3.66 0.64
-4 4 -9 4.19 0.72
-4 4 -10 356.45 7.64
4 5 -11 53.39 1.67
4 5 -11 -0.02 0.06
-4 5 10 12.56 1.17
4 5 -10 10.55 0.91
-4 5 9 36.01 2.18
4 5 -9 38.75 1.99
-4 5 8 164 5.33
4 5 -8 174.93 5.09
-4 5 7 257.89 7.13
-4 5 7 261.47 6.39
-4 5 6 882.18 16.92
-4 5 6 819.43 16.01
4 5 -5 303.63 7.69
-4 5 5 304.29 7.62
-4 5 5 295.21 7.33
4 5 -4 207.28 5.8
-4 5 4 188.05 5.42
-4 5 4 195.42 5.57
-4 5 3 487.18 10.62
4 5 -3 466.45 10.49
-4 5 2 45.26 2.37
-4 5 2 43.44 2.72
4 5 -2 44.01 2.26
-4 5 2 41.85 2.81
-4 5 1 3.97 0.9
-4 5 1 6.22 0.88
4 5 -1 3.47 0.62
-4 5 1 4.41 0.8
-4 5 0 6.27 1.17
-4 5 0 4.11 0.91
-4 5 0 3.13 0.68
4 5 0 6.02 0.89
4 5 0 2.73 0.56
-4 5 0 3.08 0.7
-4 5 -1 67.01 3.09
-4 5 -1 79.1 3.21
-4 5 -1 76.03 3.71
4 5 1 72.16 3.11
-4 5 -1 77.5 3.83
-4 5 -2 67.17 3.11
-4 5 -2 70.23 3.02
-4 5 -2 74 3.6
4 5 2 69.09 3.04
-4 5 -2 78.9 3.79
-4 5 -3 3.85 0.9
-4 5 -3 5.97 1.04
-4 5 -3 5.17 0.85
4 5 3 4.47 0.78
-4 5 -3 4.63 0.87
-4 5 -4 346.88 9.19
4 5 4 346.25 8.52
-4 5 -4 351.23 9.07
-4 5 -5 483.22 11.52
-4 5 -5 532.77 11.2
-4 5 -6 273.51 7.44
-4 5 -6 289.47 7.25
-4 5 -6 279.23 7.04
-4 5 -7 21.5 1.61
-4 5 -7 21.8 1.6
-4 5 -7 21.53 1.59
-4 5 -8 0.67 0.42
-4 5 -8 0.3 0.37
-4 5 -9 1.48 0.45
-4 5 -9 3.03 0.57
-4 5 -10 14.69 0.97
-4 6 11 17.89 1
-4 6 10 39.84 1.85
4 6 -10 37.39 1.61
-4 6 9 86.64 3.22
4 6 -9 90.69 3.07
-4 6 8 205.06 5.83
4 6 -8 212.28 5.63
-4 6 7 88.24 3.56
-4 6 6 0.66 0.44
4 6 -6 0.9 0.47
4 6 -5 48.99 2.52
-4 6 5 44.75 2.4
-4 6 5 49 2.29
4 6 -5 48.8 2.55
4 6 -5 42.68 2.34
-4 6 5 44.8 2.85
4 6 -4 0.28 0.39
-4 6 4 0.36 0.34
-4 6 4 0.25 0.36
4 6 -4 0.29 0.31
4 6 -4 0.59 0.39
-4 6 4 0.33 0.49
-4 6 3 80.37 3.24
4 6 -3 91.39 3.47
4 6 -3 79.62 3.42
4 6 -3 84.01 3.32
-4 6 2 29.66 1.9
-4 6 2 28.9 1.98
4 6 -2 29.4 1.85
4 6 -2 31.4 2.07
4 6 -2 30.28 1.83
-4 6 2 33.01 2.61
4 6 -1 0.51 0.34
-4 6 1 -0.09 0.56
-4 6 1 -0.11 0.36
4 6 -1 -0.1 0.3
-4 6 1 1.35 0.52
-4 6 0 34.1 2.12
-4 6 0 35.15 2.13
-4 6 0 36.67 2.71
4 6 0 36.58 2.25
-4 6 0 33.85 2.67
-4 6 -1 8.18 1.06
-4 6 -1 7.24 1.26
4 6 1 7.94 1.05
-4 6 -1 7.37 1.26
-4 6 -2 312.51 7.72
-4 6 -2 321.67 7.76
-4 6 -2 303 8.72
4 6 2 304.76 7.88
-4 6 -2 295.35 8.77
-4 6 -3 232.49 6.22
-4 6 -3 240.79 6.32
-4 6 -3 224.39 7.12
-4 6 -3 219.84 7.03
-4 6 -4 1216.99 21.28
-4 6 -4 1200.34 21.16
-4 6 -4 1090.54 22.18
-4 6 -4 1053.92 21.79
-4 6 -5 41.51 2.2
-4 6 -5 38.18 2.16
-4 6 -5 36.61 2.18
-4 6 -5 37.62 2.47
-4 6 -6 2.67 0.73
-4 6 -6 3.66 0.68
-4 6 -7 7.23 0.9
-4 6 -7 6.59 0.84
-4 6 -8 100.23 2.88
-4 6 -8 105.86 2.82
-4 6 -9 7.98 0.72
-4 7 9 79.5 2.61
4 7 -9 79.05 2.61
-4 7 8 6.43 0.78
4 7 -8 6.01 0.77
-4 7 7 265.31 6.5
-4 7 6 0.3 0.29
4 7 -6 0.79 0.44
-4 7 5 200.33 5.44
-4 7 5 212.65 6.63
4 7 -5 214.01 5.85
-4 7 4 9.03 1.33
4 7 -4 7.84 1.01
-4 7 3 105.14 3.5
-4 7 3 107.25 4.61
4 7 -3 109.31 3.84
-4 7 2 9.39 1.05
-4 7 2 10.15 1.06
-4 7 2 11.78 1.5
4 7 -2 11.27 1.14
-4 7 2 9.31 1.42
-4 7 1 55.28 2.57
-4 7 1 61.33 2.68
4 7 -1 54.73 2.51
-4 7 1 53.91 3.41
-4 7 0 72.01 2.99
-4 7 0 77.76 3.12
-4 7 -1 1.38 0.51
-4 7 -1 0.89 0.66
-4 7 -1 0.91 0.42
-4 7 -1 1.41 0.69
-4 7 -2 441.31 11.39
-4 7 -2 461.6 9.75
-4 7 -2 467.66 9.96
-4 7 -2 433.25 11.31
-4 7 -3 312.85 8.69
-4 7 -3 321.15 7.38
-4 7 -3 318.06 7.59
-4 7 -3 314.99 8.7
-4 7 -4 220.64 6.82
-4 7 -4 237.05 5.86
-4 7 -4 236.78 6.1
-4 7 -4 228.85 6.64
-4 7 -5 70.25 3.24
-4 7 -5 71.63 2.89
-4 7 -5 69.44 2.64
-4 7 -6 310.03 7.53
-4 7 -6 307.78 6.81
-4 7 -6 318.2 7.23
-4 7 -7 222.09 5.35
-4 7 -7 218.82 5.35
-4 7 -7 218.36 5.03
4 8 -8 274.47 6
4 8 -7 49.39 2.04
-4 8 7 0.03 0.1
4 8 -6 18.17 1.36
4 8 -5 17.39 1.37
4 8 -4 15.91 1.34
-4 8 4 16.95 1.61
4 8 -3 7.77 0.96
-4 8 3 8.32 1.2
4 8 -2 314.49 7.37
-4 8 2 307.6 8.43
4 8 -1 92.26 3.29
-4 8 1 92.22 4.37
-4 8 1 97.04 4.22
-4 8 1 99.28 3.13
-4 8 0 0.81 0.38
-4 8 -1 84.96 4.05
-4 8 -1 92.9 3.13
-4 8 -2 70.07 3.51
-4 8 -2 73.67 3.56
-4 8 -2 75.88 2.79
-4 8 -3 178.03 5.67
-4 8 -3 183.79 5.83
-4 8 -3 187.52 4.91
-4 8 -4 5.39 0.89
-4 8 -4 6.02 0.77
-4 8 -5 14.7 1.27
-4 8 -5 13.73 1.08
-4 8 -6 50.77 2.11
-4 8 -6 53.78 2.06
-4 8 -7 3.33 0.46
4 9 -6 62.63 2.26
4 9 -5 36.89 1.77
4 9 -4 31.19 1.66
4 9 -3 98.96 3.22
-4 9 3 98.41 3.59
4 9 -2 101.8 3.21
-4 9 2 100.13 3.73
-4 9 1 0.92 0.54
-4 9 0 269.39 7
-4 9 -1 7.29 1
-4 9 -2 4.34 0.55
-4 9 -3 27.61 1.67
-4 9 -3 27.4 1.29
-4 9 -4 60.11 2.34
-4 9 -4 60.67 1.97
-4 10 2 71.93 2.35
-4 10 1 0.47 0.28
-4 10 0 141.98 3.71
-4 10 -1 80.76 2.52
5 -9 -5 9.25 0.61
5 -9 -4 2.47 0.37
-5 -9 3 17.35 1.04
5 -9 -3 20.59 1.01
-5 -9 3 17.62 1.04
-5 -9 2 17.16 1.11
5 -9 -2 15.83 0.86
-5 -9 2 17.97 1.09
-5 -9 1 37.82 1.68
-5 -9 1 36.2 1.7
-5 -9 0 3.18 0.52
-5 -9 0 2.88 0.51
-5 -9 -1 127.51 3.35
-5 -9 -1 117.6 3.32
-5 -9 -2 28.58 1.37
-5 -9 -2 29.9 1.36
5 -8 -7 134.2 3.22
5 -8 -7 131.7 3.24
5 -8 -6 120.67 3.25
-5 -8 6 114.64 3.22
5 -8 -5 57.99 1.94
5 -8 -5 60.68 2.01
-5 -8 5 57.62 2.05
5 -8 -4 3.84 0.58
-5 -8 4 4.16 0.66
5 -8 -4 4.88 0.64
-5 -8 4 4.27 0.65
5 -8 -3 19.39 1.22
-5 -8 3 20.89 1.49
5 -8 -3 21.19 1.32
-5 -8 3 20.14 1.42
5 -8 -2 23.96 1.36
-5 -8 2 23.46 1.58
-5 -8 2 23.94 1.68
5 -8 -2 28.64 1.51
5 -8 -1 222.38 5.24
-5 -8 1 220.71 5.76
-5 -8 1 235.06 6.08
-5 -8 1 250.55 6.43
5 -8 -1 256.14 5.52
-5 -8 0 335.24 5.83
-5 -8 0 332.36 5.9
-5 -8 0 337.37 6.19
-5 -8 -1 726.54 14.51
-5 -8 -1 702.35 13.66
-5 -8 -1 746.85 14.28
-5 -8 -2 164.26 4.79
-5 -8 -2 150.53 4.78
-5 -8 -2 157.52 4.4
-5 -8 -3 56.37 2.57
-5 -8 -3 53.74 2.27
-5 -8 -4 10.68 1.02
-5 -8 -4 10.52 0.93
-5 -8 -4 10.73 0.94
-5 -8 -5 11.98 0.86
5 -7 -9 7.94 0.56
5 -7 -8 184.14 4.25
5 -7 -8 185.95 4.44
-5 -7 8 181.39 4.35
5 -7 -7 15.14 1.06
-5 -7 7 14.98 1.14
5 -7 -6 2.39 0.52
-5 -7 6 2.38 0.57
5 -7 -5 168.43 4.8
-5 -7 5 170.62 4.79
5 -7 -5 173.77 4.68
-5 -7 5 166.11 4.97
5 -7 -4 103.43 3.62
-5 -7 4 102.87 3.77
5 -7 -4 107.76 3.54
-5 -7 4 107.1 3.87
-5 -7 3 3.85 0.8
5 -7 -3 3.46 0.64
-5 -7 3 4.59 0.84
-5 -7 2 40.04 2.27
-5 -7 2 38.51 2.41
5 -7 -2 42.45 2.06
-5 -7 2 37.35 2.26
-5 -7 1 92.53 3.88
-5 -7 1 95.41 3.68
-5 -7 1 97.54 4.02
-5 -7 1 100.36 3.9
-5 -7 0 44.55 2.63
-5 -7 0 41.64 2.6
-5 -7 0 42.8 2.47
-5 -7 -1 23.2 1.89
-5 -7 -1 24.78 2.04
-5 -7 -1 23.9 1.89
-5 -7 -2 364.2 8.9
-5 -7 -2 361.49 8.96
-5 -7 -2 334.92 9.01
-5 -7 -2 343.37 8.46
-5 -7 -3 2.06 0.65
-5 -7 -3 2.85 0.74
-5 -7 -3 2.01 0.72
-5 -7 -3 1.49 0.55
-5 -7 -4 77.45 3.37
-5 -7 -4 75.25 3.08
-5 -7 -5 107.77 3.84
-5 -7 -5 111.23 3.92
-5 -7 -5 105.27 3.54
-5 -7 -6 0.71 0.38
-5 -7 -6 1.14 0.39
-5 -7 -6 0.71 0.33
-5 -7 -7 0.12 0.21
5 -6 -10 59.81 1.72
5 -6 -9 15.75 0.99
5 -6 -9 13.81 1.01
-5 -6 9 13.8 1.03
5 -6 -8 14.36 1.15
5 -6 -7 1.52 0.45
5 -6 -7 1.33 0.46
5 -6 -6 3.74 0.68
5 -6 -6 3.41 0.71
-5 -6 5 39.28 2.16
5 -6 -5 41.3 2.15
-5 -6 5 39.21 2.37
-5 -6 4 50.02 2.63
5 -6 -4 53.67 2.49
-5 -6 4 47.35 2.66
-5 -6 3 596.8 13.14
-5 -6 3 574.41 13.13
-5 -6 2 64.55 3.21
-5 -6 2 63.26 3.24
-5 -6 2 60.26 3.15
-5 -6 1 141.57 5.16
-5 -6 1 137.14 5.05
5 -6 -1 148.14 4.25
-5 -6 0 53.87 2.88
-5 -6 0 45.25 2.94
-5 -6 0 48.21 2.95
-5 -6 0 51.96 2.95
-5 -6 -1 162.64 5.4
-5 -6 -1 161.15 5.96
-5 -6 -1 166.93 5.93
-5 -6 -1 158.6 5.57
-5 -6 -2 477.85 10.89
-5 -6 -2 470.8 11.75
-5 -6 -2 454.73 11.54
-5 -6 -2 475.06 11.27
-5 -6 -3 845.41 16.7
-5 -6 -3 810.78 17.58
-5 -6 -3 820.16 17.6
-5 -6 -3 838.02 17.06
-5 -6 -4 160.87 5.72
-5 -6 -4 150.71 4.98
-5 -6 -5 0.21 0.46
-5 -6 -5 0.99 0.6
-5 -6 -5 0.44 0.45
-5 -6 -6 2.73 0.75
-5 -6 -6 3.03 0.73
-5 -6 -6 2.84 0.59
-5 -6 -7 43.26 1.88
-5 -6 -7 35.45 1.66
-5 -6 -8 2.35 0.43
5 -5 -10 -0.05 0.2
5 -5 -10 0.18 0.24
5 -5 -9 131.52 3.7
5 -5 -9 126.71 3.79
5 -5 -8 4.18 0.71
5 -5 -7 25.99 1.68
5 -5 -7 31.04 1.96
5 -5 -6 91.95 3.4
5 -5 -6 84.03 3.53
5 -5 -5 69.24 2.95
-5 -5 4 12.57 1.3
5 -5 -4 14.49 1.54
5 -5 -4 13.26 1.23
-5 -5 3 78.13 3.49
-5 -5 3 90.46 3.83
-5 -5 3 89.52 3.93
-5 -5 3 82.83 3.71
5 -5 -3 83.13 3.9
5 -5 -3 91.79 3.37
-5 -5 2 2.14 0.66
-5 -5 2 1.75 0.6
-5 -5 2 2.37 0.72
-5 -5 2 2.16 0.79
5 -5 -2 2.2 0.7
5 -5 -2 2.71 0.59
-5 -5 1 6.77 1.08
-5 -5 1 7.09 1.07
-5 -5 1 6.39 1.13
-5 -5 1 8.08 1.26
5 -5 -1 6.59 1.16
5 -5 -1 6.09 0.8
-5 -5 0 190.88 6.61
-5 -5 0 189.63 6.58
5 -5 0 202.32 6.72
-5 -5 0 193.84 6.17
-5 -5 0 185.61 5.88
-5 -5 -1 5.64 1.12
-5 -5 -1 5.6 1.17
5 -5 1 5.89 1.13
-5 -5 -1 5.06 0.99
-5 -5 -1 5.37 0.94
-5 -5 -2 762.12 16.71
-5 -5 -2 784.15 16.95
-5 -5 -2 757.16 15.48
5 -5 2 715.31 16.21
-5 -5 -2 728.97 15.79
-5 -5 -3 1128.05 21.39
-5 -5 -3 1184.66 23.19
-5 -5 -3 1142.28 22.01
-5 -5 -4 6.87 1.04
-5 -5 -4 7.67 1.29
-5 -5 -4 7.43 1.37
-5 -5 -4 5.82 1.04
-5 -5 -5 244.89 6.59
-5 -5 -5 231.27 7.18
-5 -5 -5 235.58 7.01
-5 -5 -6 3.3 0.69
-5 -5 -6 3.85 0.87
-5 -5 -6 4.73 0.93
-5 -5 -7 62.62 2.9
-5 -5 -7 63.13 3.01
-5 -5 -7 61.52 2.6
-5 -5 -8 23.12 1.52
5 -4 -11 2.77 0.39
5 -4 -10 16.46 1.1
-5 -4 10 14.75 1.06
5 -4 -10 15.18 1.04
-5 -4 10 15.71 1.11
5 -4 -10 16.41 1.06
5 -4 -9 38.07 1.85
-5 -4 9 35.44 1.99
-5 -4 9 35.71 1.97
-5 -4 9 35.33 1.91
5 -4 -9 36.15 1.87
5 -4 -8 27.06 1.68
-5 -4 8 26.25 1.83
-5 -4 8 26.94 1.8
-5 -4 8 24.79 1.72
5 -4 -8 28.29 1.8
-5 -4 7 8.31 1.06
5 -4 -7 6.66 0.96
-5 -4 7 7.24 1.08
5 -4 -7 6.39 0.88
-5 -4 7 7.09 1
-5 -4 7 5.75 0.98
-5 -4 6 9.34 1.15
-5 -4 6 11.16 1.24
-5 -4 6 8.79 1.18
-5 -4 6 10.49 1.27
-5 -4 5 98.48 3.96
-5 -4 5 101.32 3.87
-5 -4 5 102.02 3.88
-5 -4 5 94.21 3.93
5 -4 -5 105 4.16
-5 -4 5 95.84 3.94
-5 -4 4 48.62 2.66
-5 -4 4 49.43 2.54
-5 -4 4 47.9 2.52
-5 -4 4 50.27 2.73
-5 -4 4 50.59 2.95
5 -4 -4 50.87 2.84
-5 -4 4 45.12 2.54
-5 -4 3 10.79 1.25
-5 -4 3 9.38 1.1
-5 -4 3 10.58 1.17
-5 -4 3 10.65 1.16
-5 -4 3 9.45 1.19
-5 -4 3 13.35 1.49
-5 -4 3 12.03 1.47
5 -4 -3 12.48 1.41
-5 -4 3 9.49 1.16
-5 -4 2 546.28 11.89
-5 -4 2 560.68 12.23
-5 -4 2 552.98 11.55
-5 -4 2 524.96 11.95
-5 -4 2 567.75 11.75
-5 -4 2 565.71 12.97
-5 -4 2 581.1 13.32
5 -4 -2 589.76 12.97
-5 -4 2 572.87 12
-5 -4 1 657.03 13.46
5 -4 -1 672.39 12.69
-5 -4 1 648.26 13.71
-5 -4 1 660.78 13.08
-5 -4 1 630.79 13.62
-5 -4 1 649.59 13.1
-5 -4 1 640.22 14.64
-5 -4 1 648.85 14.84
-5 -4 1 691.44 13.92
5 -4 -1 647.52 14.47
-5 -4 1 651.02 13.41
-5 -4 0 16.41 1.44
-5 -4 0 15.45 1.5
-5 -4 0 17.42 1.38
-5 -4 0 18.44 1.65
-5 -4 0 17.82 1.4
-5 -4 0 17.17 1.88
-5 -4 0 16.39 1.81
-5 -4 0 16.62 1.52
-5 -4 0 19.39 1.56
-5 -4 -1 574.25 12.03
-5 -4 -1 589.23 12.48
-5 -4 -1 556.6 11.56
-5 -4 -1 544.05 12.49
-5 -4 -1 578.59 11.71
-5 -4 -1 575.37 13.56
-5 -4 -1 576.72 13.76
-5 -4 -1 588.88 12.31
5 -4 1 544.08 13.03
-5 -4 -1 544.6 11.84
-5 -4 -2 429.63 9.66
-5 -4 -2 396.22 10.37
-5 -4 -2 430.25 10.04
-5 -4 -2 431.7 9.31
-5 -4 -2 440.11 10.46
-5 -4 -2 392.96 10.1
-5 -4 -2 421.83 9.32
-5 -4 -2 393.45 10.88
-5 -4 -2 433.5 11.32
-5 -4 -2 428.79 9.85
5 -4 2 406.27 10.54
-5 -4 -2 414.72 10
-5 -4 -2 421.75 9.56
-5 -4 -3 27.08 1.9
-5 -4 -3 21.66 2
-5 -4 -3 24.07 1.68
-5 -4 -3 23.96 2
-5 -4 -3 26.79 1.77
-5 -4 -3 24.08 2.08
-5 -4 -3 23.33 2.21
-5 -4 -3 25.84 2.35
-5 -4 -3 23.38 1.78
5 -4 3 23.57 2.09
-5 -4 -3 23.9 1.91
-5 -4 -4 22.23 1.79
-5 -4 -4 14.66 1.67
-5 -4 -4 17.07 1.42
-5 -4 -4 15.48 1.72
-5 -4 -4 18.57 1.46
-5 -4 -4 18.41 1.91
-5 -4 -4 16.9 1.48
5 -4 4 14.91 1.69
-5 -4 -4 15.95 1.57
-5 -4 -5 20.32 1.55
-5 -4 -5 21.54 2.03
-5 -4 -5 20.63 1.95
-5 -4 -5 21.69 2.13
-5 -4 -5 21.81 1.68
-5 -4 -5 23.8 1.71
-5 -4 -5 17.21 1.76
-5 -4 -5 20.63 1.75
-5 -4 -6 12.57 1.58
-5 -4 -6 13.66 1.5
-5 -4 -6 14.26 1.67
-5 -4 -6 10.78 1.16
-5 -4 -6 13.14 1.48
-5 -4 -6 11.84 1.29
-5 -4 -7 79.19 3.51
-5 -4 -7 77.64 2.93
-5 -4 -7 81.85 3.53
-5 -4 -7 76.28 3.11
-5 -4 -7 78.53 2.92
-5 -4 -8 1.48 0.55
-5 -4 -8 0.04 0.09
-5 -4 -8 1.33 0.57
-5 -4 -9 23.6 1.25
-5 -3 11 9.04 0.88
5 -3 -11 6.82 0.67
-5 -3 11 7.23 0.84
5 -3 -11 7.63 0.77
-5 -3 11 7.62 0.82
5 -3 -11 7.78 0.81
5 -3 -10 84.9 3.06
-5 -3 10 84 3.08
-5 -3 10 79.51 3.2
-5 -3 10 78.02 3.16
-5 -3 10 81.34 3.3
5 -3 -9 366.12 8.33
-5 -3 9 347.5 8.67
-5 -3 9 356.07 8.3
-5 -3 9 342.02 8.64
5 -3 -9 347.42 7.7
-5 -3 9 336.76 8.72
5 -3 -8 970.66 18.25
-5 -3 8 974.5 18.9
-5 -3 8 925.6 18.19
-5 -3 8 937.84 18.97
-5 -3 8 952.99 18.8
5 -3 -8 927.96 17.64
-5 -3 7 611.49 13.53
-5 -3 7 601.13 13.29
-5 -3 7 621.64 12.81
5 -3 -7 580.89 12.42
-5 -3 7 585.78 13.56
-5 -3 7 616.91 13.59
-5 -3 7 612.56 13.34
5 -3 -7 557.49 12.23
-5 -3 6 44.18 2.8
-5 -3 6 46.64 2.76
-5 -3 6 44.03 2.7
5 -3 -6 46.13 2.52
-5 -3 6 42.88 2.78
-5 -3 6 43.58 2.76
-5 -3 5 2.33 0.73
-5 -3 5 1.49 0.55
-5 -3 5 1.72 0.62
-5 -3 5 5.54 0.97
5 -3 -5 1.04 0.45
5 -3 -5 1.09 0.45
-5 -3 5 5.33 0.99
-5 -3 5 0.95 0.61
-5 -3 4 108.55 4.4
-5 -3 4 118.78 4.13
-5 -3 4 114.91 4.37
-5 -3 4 114.58 4.35
-5 -3 4 115.81 4.59
-5 -3 4 107.95 4.26
5 -3 -4 107.18 4.14
-5 -3 4 109.06 4.4
-5 -3 4 115.2 4.51
-5 -3 3 10.45 1.28
-5 -3 3 9.26 1.18
-5 -3 3 12.05 1.31
-5 -3 3 8.95 1.22
-5 -3 3 9 1.24
5 -3 -3 11.97 1.31
-5 -3 3 12.01 1.36
-5 -3 3 11.77 1.36
-5 -3 2 21.66 1.78
-5 -3 2 22.24 1.87
-5 -3 2 21.1 1.68
-5 -3 2 22.18 1.72
-5 -3 2 21.05 1.98
-5 -3 2 20.64 1.92
5 -3 -2 23.42 1.85
-5 -3 2 20.41 1.72
-5 -3 2 21.95 1.78
-5 -3 1 32.8 2.18
-5 -3 1 34.97 2.35
-5 -3 1 38.46 2.23
-5 -3 1 31.99 1.99
-5 -3 1 37.25 2.21
-5 -3 1 37.5 2.59
-5 -3 1 35.35 2.61
-5 -3 1 38.24 2.2
5 -3 -1 38.1 2.46
-5 -3 1 36.39 2.26
-5 -3 0 340.33 8.52
-5 -3 0 385.64 9.68
-5 -3 0 346.76 8.86
-5 -3 0 339.14 8.19
-5 -3 0 364.89 8.45
-5 -3 0 332.11 8.2
-5 -3 0 316.37 9.13
-5 -3 0 320.89 9.37
-5 -3 0 343.36 8.21
5 -3 0 336.64 8.88
-5 -3 0 341.15 8.53
-5 -3 -1 337.33 8.38
-5 -3 -1 347.48 9.31
-5 -3 -1 330.95 8.67
-5 -3 -1 347.58 8.14
-5 -3 -1 314.05 8.13
-5 -3 -1 324.14 7.98
-5 -3 -1 358.71 9.51
-5 -3 -1 307.15 9.2
-5 -3 -1 341.95 7.99
5 -3 1 294.69 8.39
-5 -3 -1 316.03 8.53
-5 -3 -1 332.84 8.41
-5 -3 -2 115.73 4.38
-5 -3 -2 117.76 4.95
-5 -3 -2 116.3 4.6
-5 -3 -2 116.02 4.13
-5 -3 -2 118.58 4.41
-5 -3 -2 126.4 4.27
-5 -3 -2 117.56 4.02
5 -3 2 107.06 4.46
-5 -3 -2 114.83 4.56
-5 -3 -2 115.08 4.3
-5 -3 -3 71.31 3.3
-5 -3 -3 60.51 3.58
-5 -3 -3 71.89 3.55
-5 -3 -3 69.18 3.09
-5 -3 -3 64.4 3.58
-5 -3 -3 72.72 3.19
-5 -3 -3 66.37 3.67
-5 -3 -3 64 3.75
-5 -3 -3 64.98 2.9
5 -3 3 59.44 3.3
-5 -3 -3 73.54 3.57
-5 -3 -3 67.17 3.21
-5 -3 -4 706.46 14.1
-5 -3 -4 586.34 14.58
-5 -3 -4 674.28 13.45
-5 -3 -4 635.18 13.3
-5 -3 -4 613.6 14.57
-5 -3 -4 642.61 14.6
-5 -3 -4 608.45 14.83
-5 -3 -4 624.96 12.9
5 -3 4 556.11 13.7
-5 -3 -4 679.96 14.35
-5 -3 -5 154.1 5.29
-5 -3 -5 113.87 5.1
-5 -3 -5 137.08 4.61
-5 -3 -5 113.92 5.14
-5 -3 -5 120.19 4.35
-5 -3 -5 128.19 5.03
-5 -3 -5 119.85 5.22
-5 -3 -5 114.97 4.05
5 -3 5 101.8 4.53
-5 -3 -5 126.9 4.96
-5 -3 -6 192.92 5.88
-5 -3 -6 189.72 6.86
-5 -3 -6 225.59 6.37
-5 -3 -6 197.61 6.91
-5 -3 -6 203.21 6.53
-5 -3 -6 218.84 6.51
-5 -3 -6 210.82 6.92
-5 -3 -7 12.23 1.58
-5 -3 -7 14.63 1.51
-5 -3 -7 12.84 1.28
-5 -3 -7 12.95 1.48
-5 -3 -7 11.91 1.54
-5 -3 -8 57.44 2.76
-5 -3 -8 52.79 2.62
-5 -3 -8 50.64 2.83
-5 -3 -9 303.83 5.05
-5 -3 -9 300.23 5.48
-5 -2 12 0.97 0.38
5 -2 -12 1.06 0.22
-5 -2 12 1.12 0.37
5 -2 -12 1.21 0.39
-5 -2 12 1.19 0.34
5 -2 -12 1.34 0.37
-5 -2 11 2.63 0.62
-5 -2 11 2.33 0.62
5 -2 -11 2.45 0.55
-5 -2 11 3.43 0.61
-5 -2 11 2.63 0.64
5 -2 -11 2.33 0.57
5 -2 -10 26.66 1.79
-5 -2 10 25.02 1.89
-5 -2 10 22.46 1.58
-5 -2 10 22.93 1.8
-5 -2 10 23.2 1.87
5 -2 -9 8.06 1.09
-5 -2 9 7.74 1.02
-5 -2 9 6.26 1.06
-5 -2 9 8.99 1.29
-5 -2 9 8.71 1.26
-5 -2 8 0.08 0.46
-5 -2 8 0.31 0.45
-5 -2 8 0.08 0.49
-5 -2 8 0.26 0.5
5 -2 -8 0.19 0.3
-5 -2 7 28.86 2.32
-5 -2 7 28.44 2.26
5 -2 -7 28.1 1.78
-5 -2 7 29.57 2.34
5 -2 -7 26.26 1.75
-5 -2 7 27.88 2.35
-5 -2 7 28.48 2.33
-5 -2 6 1.72 0.68
-5 -2 6 1.95 0.6
-5 -2 6 2.47 0.73
-5 -2 6 2.59 0.77
5 -2 -6 3.31 0.64
5 -2 -6 2.27 0.55
-5 -2 6 2.35 0.76
-5 -2 5 5.89 0.9
-5 -2 5 4.93 1.01
-5 -2 5 6.24 1.08
-5 -2 5 6.86 1.18
5 -2 -5 7.04 0.97
5 -2 -5 7.11 0.94
-5 -2 5 7.74 1.23
-5 -2 5 5.22 1.04
-5 -2 4 43.01 2.28
-5 -2 4 42.06 2.59
-5 -2 4 42.83 2.61
-5 -2 4 40.97 2.65
-5 -2 4 37.86 2.42
5 -2 -4 44.79 2.58
5 -2 -4 38.32 2.18
-5 -2 4 37.25 2.54
-5 -2 4 41.8 2.66
-5 -2 3 355.25 9.09
-5 -2 3 369.86 9.1
-5 -2 3 369.95 8.24
-5 -2 3 362.7 9.04
-5 -2 3 357.78 9.29
-5 -2 3 353.26 9.15
-5 -2 3 351.63 9.55
5 -2 -3 343.19 8.4
-5 -2 3 347.17 9.1
-5 -2 3 361.13 9.22
-5 -2 2 132.6 4.85
-5 -2 2 151.83 4.36
-5 -2 2 144.39 4.9
-5 -2 2 147.59 4.94
-5 -2 2 146.49 5.16
-5 -2 2 138.83 5.36
-5 -2 2 138.71 5.15
5 -2 -2 135.53 4.62
-5 -2 2 145.52 5.04
-5 -2 2 137.18 4.92
-5 -2 1 256.46 7.14
-5 -2 1 260.11 7.37
-5 -2 1 263.88 6.99
-5 -2 1 259.21 7.01
-5 -2 1 257.08 7.6
-5 -2 1 264.93 7.89
5 -2 -1 248.86 6.91
-5 -2 1 250.76 7.07
-5 -2 1 259.11 7.15
-5 -2 0 1732.87 30.14
-5 -2 0 1755.18 31.18
-5 -2 0 1561.06 30.17
-5 -2 0 1731.36 29.57
-5 -2 0 1591.8 28.91
-5 -2 0 1603.21 29.53
-5 -2 0 1654.4 30.72
-5 -2 0 1691.47 31.18
-5 -2 0 1699.02 28.93
5 -2 0 1666.2 29.81
-5 -2 0 1771.27 30.26
-5 -2 0 1672.12 30.43
-5 -2 -1 54.46 2.87
-5 -2 -1 53.59 3.23
-5 -2 -1 53.86 3.02
-5 -2 -1 58 2.78
-5 -2 -1 49.08 2.48
-5 -2 -1 42.19 2.14
5 -2 1 41.97 2.53
-5 -2 -1 47.19 2.82
-5 -2 -1 57.33 2.96
-5 -2 -2 124.07 4.55
-5 -2 -2 121.12 5.12
-5 -2 -2 111.58 4.59
-5 -2 -2 109.78 4.12
-5 -2 -2 117 4.23
-5 -2 -2 110.37 4.71
-5 -2 -2 114.24 4.77
-5 -2 -2 115.45 4.96
-5 -2 -2 110.98 3.65
5 -2 2 102.44 4.19
-5 -2 -2 119.87 4.71
-5 -2 -2 117.34 4.45
-5 -2 -3 0.22 0.47
-5 -2 -3 0.6 0.67
-5 -2 -3 0.25 0.46
-5 -2 -3 1.09 0.53
-5 -2 -3 0.36 0.52
-5 -2 -3 0.34 0.51
-5 -2 -3 0.46 0.45
-5 -2 -3 -0.06 0.34
5 -2 3 0.73 0.47
-5 -2 -3 0.17 0.45
-5 -2 -3 -0.07 0.39
-5 -2 -4 5.88 1.03
-5 -2 -4 5.85 1.25
-5 -2 -4 5.74 0.94
-5 -2 -4 4.36 1.08
-5 -2 -4 6.33 1.01
-5 -2 -4 6.67 1.18
-5 -2 -4 6.1 1.11
-5 -2 -4 5.51 1.14
5 -2 4 4.61 0.92
-5 -2 -4 5.69 1.01
-5 -2 -4 4.01 0.97
-5 -2 -5 10.65 1.63
-5 -2 -5 10.82 1.61
-5 -2 -5 12.32 1.5
-5 -2 -5 11.86 1.35
-5 -2 -5 11.03 1.63
-5 -2 -5 11.69 1.33
-5 -2 -5 8.87 1.28
-5 -2 -5 12.34 1.58
-5 -2 -5 10.46 1.47
5 -2 5 8.95 1.25
-5 -2 -5 9.26 1.41
-5 -2 -6 3.38 0.84
-5 -2 -6 3.65 0.88
-5 -2 -6 2.78 1.02
-5 -2 -6 3.73 0.95
-5 -2 -6 3.06 0.74
-5 -2 -6 2.64 0.78
-5 -2 -7 33.23 2.58
-5 -2 -7 35.38 2.75
-5 -2 -7 36.14 2.54
-5 -2 -7 31.55 2.25
-5 -2 -8 62.76 3.4
-5 -2 -8 69.18 3.34
-5 -2 -8 63.64 2.81
-5 -2 -8 63.18 3.47
-5 -2 -9 372.23 9.32
-5 -2 -9 404.97 9.09
-5 -2 -10 134.97 3.95
-5 -2 -10 125.14 3.61
-5 -1 13 167.51 3.8
-5 -1 12 0.27 0.37
-5 -1 12 0.09 0.33
5 -1 -12 0.04 0.25
5 -1 -12 0.08 0.29
-5 -1 12 0.15 0.24
-5 -1 12 0.77 0.45
-5 -1 11 696.12 14.51
-5 -1 11 712.41 14.65
5 -1 -11 741.68 14.06
5 -1 -11 715.13 14.19
-5 -1 11 719.79 14.64
-5 -1 11 714.22 13.64
5 -1 -10 344.92 8.3
-5 -1 10 327.98 8.78
-5 -1 10 340.22 7.98
-5 -1 10 318.09 8.76
-5 -1 10 324.43 8.71
5 -1 -9 36.53 2.33
-5 -1 9 31.25 2.44
-5 -1 9 29.11 2.33
-5 -1 9 32.89 2.51
-5 -1 9 33.71 2.12
-5 -1 8 31.99 2.47
-5 -1 8 32.02 2.51
-5 -1 8 33.13 2.59
-5 -1 8 32.88 2.59
-5 -1 8 28.78 2.42
-5 -1 7 0.44 0.54
-5 -1 7 -0.06 0.38
-5 -1 7 4.03 0.94
-5 -1 7 4.83 1.03
-5 -1 7 0.47 0.51
-5 -1 7 0.46 0.57
-5 -1 6 587.07 13.47
-5 -1 6 580.91 13.19
-5 -1 6 575.55 12.16
-5 -1 6 587.52 13.36
5 -1 -6 527.03 11.61
-5 -1 6 536.35 13.15
-5 -1 6 575.52 13.38
-5 -1 5 342.73 9.29
-5 -1 5 320.58 8.97
-5 -1 5 358.51 9.32
-5 -1 5 338.45 8.22
-5 -1 5 351.42 8.68
5 -1 -5 349.68 8.38
5 -1 -5 348.54 7.83
-5 -1 5 371.86 9.66
-5 -1 5 336.41 9.26
-5 -1 4 220 6.82
-5 -1 4 209.28 6.59
-5 -1 4 218.26 5.8
-5 -1 4 219.17 6.66
-5 -1 4 218.59 6.45
5 -1 -4 202.89 6.07
5 -1 -4 209.04 5.51
-5 -1 4 211.85 6.75
-5 -1 4 216.7 6.78
-5 -1 3 0.44 0.48
-5 -1 3 0.23 0.45
-5 -1 3 0.23 0.3
-5 -1 3 0.07 0.39
-5 -1 3 0.33 0.48
-5 -1 3 0.87 0.54
-5 -1 3 0.14 0.38
5 -1 -3 0.38 0.26
-5 -1 3 0.82 0.57
-5 -1 3 -0.08 0.36
-5 -1 2 75.27 3.46
-5 -1 2 67.05 3.36
-5 -1 2 66.25 3.17
-5 -1 2 68.18 2.64
-5 -1 2 72.71 3.34
-5 -1 2 71.55 3.46
-5 -1 2 75.84 3.77
5 -1 -2 71.44 2.91
-5 -1 2 67.4 3.32
-5 -1 2 74.41 3.42
-5 -1 1 0.98 0.64
-5 -1 1 1.49 0.57
-5 -1 1 2.28 0.64
-5 -1 1 1.32 0.49
-5 -1 1 1.13 0.56
-5 -1 1 1.48 0.54
5 -1 -1 0.68 0.39
-5 -1 1 1.43 0.53
-5 -1 1 1.22 0.5
-5 -1 0 140.98 4.25
-5 -1 0 137.19 4.91
-5 -1 0 142.97 5.62
-5 -1 0 148.99 4.87
-5 -1 0 151.07 4.92
-5 -1 0 151.31 5.28
-5 -1 0 145.93 5.47
-5 -1 0 158.73 5.45
5 -1 0 134.34 4.43
-5 -1 0 136.67 4.84
-5 -1 0 144.95 5.2
-5 -1 -1 73.56 3.39
-5 -1 -1 73.44 3.91
-5 -1 -1 73.05 3.23
-5 -1 -1 77.93 3.36
-5 -1 -1 79.36 3.7
-5 -1 -1 74.04 3.6
-5 -1 -1 68.96 2.73
-5 -1 -1 72.64 3.71
5 -1 1 65.45 2.97
-5 -1 -1 77.5 3.66
-5 -1 -1 76.5 3.48
-5 -1 -2 226.33 6.75
-5 -1 -2 212.81 7.43
-5 -1 -2 236.6 6.5
-5 -1 -2 234.9 6.5
-5 -1 -2 235.45 7.08
-5 -1 -2 229.3 7.22
-5 -1 -2 249.79 7.21
-5 -1 -2 219.87 5.64
5 -1 2 196.58 6.04
-5 -1 -2 237.23 7.17
-5 -1 -2 233.6 6.79
-5 -1 -3 11.29 1.35
-5 -1 -3 12.95 1.73
-5 -1 -3 11.44 1.28
-5 -1 -3 11.71 1.57
-5 -1 -3 12.76 1.36
-5 -1 -3 11.03 1.44
-5 -1 -3 11.29 1.03
-5 -1 -3 12.11 1.53
-5 -1 -3 13.39 1.52
5 -1 3 9.62 1.16
-5 -1 -3 12.78 1.57
-5 -1 -3 12.58 1.43
-5 -1 -4 138.96 5.89
-5 -1 -4 131.28 5.72
-5 -1 -4 150.9 5.25
-5 -1 -4 140.82 4.87
-5 -1 -4 146.39 4.97
-5 -1 -4 130.19 5.38
-5 -1 -4 144.59 5.5
-5 -1 -4 138.71 5.14
-5 -1 -4 137.23 5.34
-5 -1 -4 128.53 3.93
5 -1 4 116.36 4.52
-5 -1 -4 132.02 5.33
-5 -1 -4 147.92 5.18
-5 -1 -5 204.84 7.48
-5 -1 -5 194.47 7.32
-5 -1 -5 213.81 6.7
-5 -1 -5 195.46 6.9
-5 -1 -5 201.65 6.19
-5 -1 -5 207.11 6.24
-5 -1 -5 205.64 6.33
-5 -1 -5 195.58 5.12
-5 -1 -5 205.06 6.68
-5 -1 -5 199.11 6.82
-5 -1 -6 585.79 12.48
-5 -1 -6 574.71 12.36
-5 -1 -6 539.12 13.44
-5 -1 -6 508.66 10.64
-5 -1 -6 539.55 12.37
-5 -1 -6 515.18 11.62
-5 -1 -6 509.09 13.08
-5 -1 -6 502.96 13.53
-5 -1 -6 475.65 13.31
-5 -1 -6 653.51 13.48
-5 -1 -6 539.82 13.08
-5 -1 -7 203.04 6.23
-5 -1 -7 203.3 7.06
-5 -1 -7 200.95 6.95
-5 -1 -7 205.78 7.42
-5 -1 -7 225.28 6.69
-5 -1 -7 197.8 5.97
-5 -1 -7 204.52 6.89
-5 -1 -8 409.19 10.08
-5 -1 -8 364.33 10.26
-5 -1 -9 19.62 1.67
-5 -1 -9 18.52 1.77
-5 -1 -10 90.05 3.13
-5 -1 -10 76.82 3.17
5 0 -13 259.04 5.36
-5 0 13 254.48 5.44
-5 0 12 0.14 0.33
-5 0 12 0.54 0.3
-5 0 12 -0.05 0.32
5 0 -12 0.19 0.3
5 0 -12 0.12 0.32
-5 0 12 0.15 0.35
-5 0 11 595.36 12.78
-5 0 11 604.41 12.96
-5 0 11 603.49 12.87
-5 0 11 582.09 11.82
5 0 -11 608.49 12.17
-5 0 10 -0.23 0.52
-5 0 10 0.08 0.48
-5 0 10 0.08 0.55
-5 0 10 -0.11 0.36
5 0 -10 0.24 0.42
-5 0 9 40 2.76
5 0 -9 39.83 2.49
-5 0 9 37.59 2.74
-5 0 9 38.35 2.77
-5 0 8 0.63 0.6
-5 0 8 -0.09 0.59
-5 0 8 -0.1 0.42
-5 0 8 0.19 0.44
-5 0 8 0.09 0.54
-5 0 7 3.34 0.89
-5 0 7 3.34 0.75
-5 0 7 3.37 0.97
-5 0 7 2.58 0.84
-5 0 7 4.69 1.03
5 0 -7 3.29 0.65
-5 0 7 3.51 0.98
-5 0 6 0.09 0.5
-5 0 6 0.12 0.35
-5 0 6 0.17 0.45
-5 0 6 0.17 0.44
5 0 -6 1.89 0.53
-5 0 6 0.36 0.42
-5 0 6 -0.09 0.47
-5 0 5 1095.64 22.53
-5 0 5 1156.04 22.61
-5 0 5 1137.45 22.48
5 0 -5 1187.69 21.59
-5 0 5 1129.69 22.67
-5 0 5 1099.33 22.57
-5 0 4 -0.08 0.46
-5 0 4 -0.08 0.42
-5 0 4 0.28 0.45
-5 0 4 0.22 0.49
5 0 -4 0.49 0.49
-5 0 4 0.32 0.44
-5 0 4 0.16 0.4
-5 0 3 318.19 8.55
-5 0 3 332.84 8.81
-5 0 3 319.53 7.42
-5 0 3 341.21 8.65
-5 0 3 319.56 8.44
5 0 -3 333.1 8.4
-5 0 3 337.08 8.81
-5 0 3 324.95 8.71
-5 0 2 2.79 0.76
-5 0 2 0.15 0.19
-5 0 2 0.93 0.45
-5 0 2 0.07 0.43
-5 0 2 3.18 0.73
-5 0 2 2.57 0.67
-5 0 2 3.31 0.77
-5 0 2 2.22 0.68
-5 0 1 318 8.32
-5 0 1 346.65 9.43
-5 0 1 337.71 8.6
-5 0 1 317.8 8.08
-5 0 1 293.16 7.9
-5 0 1 350.83 9.02
-5 0 1 334.87 8.61
5 0 -1 313.47 7.14
-5 0 1 298.32 8.13
-5 0 1 319.55 8.25
-5 0 0 0.2 0.29
-5 0 0 -0.18 0.46
-5 0 0 -0.13 0.46
-5 0 0 -0.15 0.41
-5 0 0 0.18 0.34
-5 0 0 0.08 0.39
-5 0 0 0.27 0.27
-5 0 0 0.12 0.35
5 0 0 0.13 0.25
-5 0 0 0.33 0.33
-5 0 0 0.26 0.33
-5 0 0 -0.15 0.45
-5 0 -1 24.43 1.67
-5 0 -1 24.63 1.93
-5 0 -1 28.64 2.41
-5 0 -1 28.75 2.15
-5 0 -1 26.99 1.88
-5 0 -1 26.25 1.88
-5 0 -1 25.9 1.58
-5 0 -1 26.46 2.12
-5 0 -1 24.63 2
5 0 1 23.54 1.56
-5 0 -1 25.12 2.06
-5 0 -1 25.16 1.92
-5 0 -2 0.15 0.33
-5 0 -2 0.8 0.64
-5 0 -2 -0.07 0.38
-5 0 -2 0.24 0.4
-5 0 -2 0.25 0.36
-5 0 -2 0.31 0.41
-5 0 -2 0.29 0.25
-5 0 -2 -0.15 0.39
-5 0 -2 0.06 0.37
5 0 2 -0.05 0.3
-5 0 -2 0.08 0.46
-5 0 -2 0.07 0.36
-5 0 -3 102.49 4.16
-5 0 -3 100.1 4.86
-5 0 -3 94.58 4.26
-5 0 -3 100.62 3.93
-5 0 -3 108.94 4.09
-5 0 -3 107.02 4.27
-5 0 -3 101.51 4.3
-5 0 -3 93.01 3.46
-5 0 -3 100.06 4.46
-5 0 -3 105.4 4.2
-5 0 -4 0.44 0.59
-5 0 -4 -0.05 0.32
-5 0 -4 -0.23 0.5
-5 0 -4 0.11 0.61
-5 0 -4 0.35 0.47
-5 0 -4 0.38 0.55
-5 0 -4 0.13 0.39
-5 0 -4 -0.08 0.34
-5 0 -4 -0.07 0.41
-5 0 -4 -0.14 0.41
5 0 4 -0.06 0.27
-5 0 -4 -0.08 0.35
-5 0 -4 0.65 0.61
-5 0 -5 152.27 6.47
-5 0 -5 147.41 6.35
-5 0 -5 191.11 6.19
-5 0 -5 174.52 6.46
-5 0 -5 176.32 5.67
-5 0 -5 200.27 5.96
-5 0 -5 167.63 5.6
-5 0 -5 170.77 4.92
-5 0 -5 170.46 5.45
-5 0 -5 174.01 6.45
5 0 5 133.4 4.89
-5 0 -5 170.11 6.25
-5 0 -6 -0.3 0.58
-5 0 -6 -0.29 0.47
-5 0 -6 0.07 0.42
-5 0 -6 0.3 0.51
-5 0 -6 0.15 0.32
-5 0 -6 -0.35 0.7
-5 0 -6 0.18 0.65
-5 0 -6 0.23 0.62
-5 0 -6 0.77 0.5
-5 0 -7 230.54 5.96
-5 0 -7 222.17 6.69
-5 0 -7 207.87 7.28
-5 0 -7 213.43 7.71
-5 0 -7 250.68 7.18
-5 0 -7 239.99 7.52
-5 0 -8 0.05 0.33
-5 0 -8 0.98 0.66
-5 0 -8 0.9 0.6
-5 0 -9 27.64 2.17
-5 0 -9 27.78 1.46
-5 0 -9 30.28 2.1
-5 0 -10 0.05 0.3
-5 0 -10 0.17 0.42
-5 1 13 176.36 4.04
-5 1 12 0.05 0.33
-5 1 12 0.31 0.32
5 1 -12 0.46 0.32
-5 1 12 0.32 0.29
-5 1 12 0.32 0.37
-5 1 11 691.5 14.4
-5 1 11 695.97 14.56
5 1 -11 709.25 13.77
-5 1 11 731.55 13.65
-5 1 11 661.46 14.36
5 1 -11 725.19 13.96
-5 1 10 300.93 8.54
-5 1 10 302.96 8.49
-5 1 10 321.68 8.76
5 1 -9 34.77 2.29
-5 1 9 32.77 2.5
-5 1 9 35.64 2.6
-5 1 9 31.04 2.41
-5 1 8 37.23 2.71
-5 1 8 35.87 2.65
-5 1 8 35.85 2.25
5 1 -8 29.97 1.82
-5 1 8 32.77 2.57
-5 1 8 32.38 2.56
-5 1 8 35.44 2.6
-5 1 7 0.37 0.54
-5 1 7 -0.06 0.41
-5 1 7 0.27 0.55
5 1 -7 1.23 0.45
-5 1 7 0.37 0.47
-5 1 7 0.09 0.45
-5 1 7 1.67 0.69
-5 1 6 557.02 13.2
-5 1 6 557.61 13.12
-5 1 6 552.93 11.9
5 1 -6 517.46 11.6
-5 1 6 607.14 13.57
-5 1 6 568.14 13.27
-5 1 6 587.19 13.21
-5 1 5 374.06 9.7
-5 1 5 371.6 9.56
-5 1 5 350.61 8.36
5 1 -5 357.6 8.62
-5 1 5 345.74 9.43
-5 1 5 377.05 9.73
-5 1 5 345.9 9.28
-5 1 4 209.34 6.67
-5 1 4 220.59 6.69
-5 1 4 213.32 5.67
-5 1 4 211.64 6.59
5 1 -4 219.35 6.22
-5 1 4 220.26 6.83
-5 1 4 210.21 6.66
-5 1 3 0.6 0.5
-5 1 3 1.66 0.44
-5 1 3 0.42 0.49
-5 1 3 0.34 0.43
-5 1 3 0.29 0.38
-5 1 3 0.59 0.48
-5 1 3 0.21 0.39
-5 1 2 71.01 3.36
-5 1 2 77.21 3.56
-5 1 2 73.57 3.34
-5 1 2 71.32 3.3
-5 1 2 71.97 3.42
5 1 -2 70.75 3.26
-5 1 2 73.01 3.43
-5 1 2 69.38 3.29
-5 1 1 0.92 0.69
-5 1 1 1.07 0.47
-5 1 1 0.65 0.48
-5 1 1 1.05 0.49
-5 1 1 0.52 0.4
-5 1 1 1.13 0.54
-5 1 1 0.69 0.45
5 1 -1 1.21 0.58
-5 1 1 0.87 0.43
-5 1 1 1.27 0.53
-5 1 0 139.91 4.91
-5 1 0 140.32 4.56
-5 1 0 151.65 5.83
-5 1 0 142.4 4.76
-5 1 0 140.9 4.76
-5 1 0 135.77 5.01
-5 1 0 149.01 5.11
-5 1 0 138.85 4.32
-5 1 0 159.17 5.39
5 1 0 152 5.14
-5 1 0 141.22 4.9
-5 1 0 135.2 4.84
-5 1 0 149.99 5.37
-5 1 -1 70.62 3.09
-5 1 -1 76.32 3.42
-5 1 -1 71.66 3.93
-5 1 -1 71.84 3.2
-5 1 -1 76.39 3.3
-5 1 -1 73.29 3.54
-5 1 -1 70.71 2.9
-5 1 -1 78.98 3.57
-5 1 -1 72.52 3.49
5 1 1 89.58 3.76
-5 1 -1 73.19 3.64
-5 1 -1 78.51 3.47
-5 1 -2 209.87 6.16
-5 1 -2 232.41 6.42
-5 1 -2 216.2 6.79
-5 1 -2 222.21 6.63
-5 1 -2 217.72 6.61
-5 1 -2 227.91 6.2
-5 1 -2 230.88 5.86
-5 1 -2 210.6 6.94
-5 1 -2 223.39 6.59
-5 1 -2 229.88 6.67
-5 1 -2 227.65 7.69
-5 1 -3 11.95 1.39
-5 1 -3 11.25 1.63
-5 1 -3 11.91 1.3
-5 1 -3 12.24 1.31
-5 1 -3 13.73 1.56
-5 1 -3 11.72 1.36
-5 1 -3 12.7 1.4
-5 1 -3 12.78 1.26
-5 1 -3 12.12 1.1
5 1 3 13.59 1.42
-5 1 -3 12.51 1.56
-5 1 -3 12.57 1.39
-5 1 -4 128.49 5.43
-5 1 -4 137.97 5.34
-5 1 -4 147.86 4.94
-5 1 -4 140.69 4.84
-5 1 -4 126.2 4.63
-5 1 -4 138.66 4.53
-5 1 -4 132.78 4.01
-5 1 -4 131.58 5.84
-5 1 -4 117.2 5.54
-5 1 -4 147.55 5.18
-5 1 -4 129.42 5.39
-5 1 -4 144.49 5.09
-5 1 -5 193.84 6.98
-5 1 -5 221.86 6.41
-5 1 -5 209.17 6.27
-5 1 -5 199.97 5.13
-5 1 -5 212.65 5.88
-5 1 -5 205.1 5.84
-5 1 -5 173.64 7.09
-5 1 -5 185.1 7.26
-5 1 -5 226.17 6.83
-5 1 -5 200.61 6.95
-5 1 -6 543.72 12.1
-5 1 -6 559.39 12.09
-5 1 -6 481.91 12.81
-5 1 -6 489.81 12.72
-5 1 -6 491.19 13.4
-5 1 -6 637.32 13.47
-5 1 -6 438.43 12.96
-5 1 -6 578.67 11.51
-5 1 -7 215.95 5.83
-5 1 -7 211.45 6.33
-5 1 -7 206.36 7.03
-5 1 -7 200.34 6.85
-5 1 -7 200.54 7.35
-5 1 -7 224.69 6.69
-5 1 -8 386.73 9.83
-5 1 -8 384.34 8.54
-5 1 -8 369.84 10.27
-5 1 -9 19.81 1.65
-5 1 -9 18.8 1.29
-5 1 -9 20.96 1.85
-5 1 -10 83.64 2.96
-5 1 -10 90.31 3.3
-5 2 12 0.84 0.37
-5 2 12 1.6 0.42
5 2 -12 0.95 0.32
-5 2 12 1.38 0.38
-5 2 12 1.21 0.42
5 2 -12 1.1 0.36
5 2 -11 -0.03 0.08
-5 2 11 2.12 0.62
-5 2 11 2.39 0.63
5 2 -11 2.08 0.5
-5 2 11 2.33 0.55
-5 2 11 2.51 0.65
5 2 -11 1.91 0.53
5 2 -10 24.27 1.69
-5 2 10 20.79 1.83
-5 2 10 24.32 1.9
-5 2 10 22.04 1.83
5 2 -9 6.36 0.97
-5 2 9 9.56 1.34
-5 2 9 8.76 1.28
-5 2 9 7.32 1.02
-5 2 8 0.42 0.46
5 2 -8 0.32 0.43
-5 2 8 -0.09 0.55
-5 2 8 0.25 0.4
-5 2 8 0.26 0.55
-5 2 7 27.82 2.26
-5 2 7 24.67 1.83
-5 2 7 25.56 2.14
-5 2 7 27.65 2.27
5 2 -7 24.84 1.74
-5 2 7 27.31 2.27
-5 2 7 24.91 2.2
-5 2 6 2.27 0.63
-5 2 6 5.88 1.06
-5 2 6 2.5 0.79
-5 2 6 6.1 1.13
5 2 -6 1.46 0.53
-5 2 6 1.91 0.71
-5 2 6 1.99 0.7
-5 2 5 6.23 1.08
-5 2 5 5.97 0.86
-5 2 5 7.28 1.17
-5 2 5 5.25 0.98
5 2 -5 5.59 0.89
-5 2 5 6.35 1.09
-5 2 5 6.79 1.12
-5 2 4 39.78 2.6
-5 2 4 46.01 2.7
-5 2 4 42.31 2.14
-5 2 4 43.87 2.71
-5 2 4 40.69 2.6
-5 2 4 40.54 2.53
-5 2 3 348.67 8.87
-5 2 3 365.42 8.85
-5 2 3 340.55 8.77
-5 2 3 360.23 9.08
5 2 -3 330.51 8.47
-5 2 3 325.1 8.07
-5 2 3 351.95 8.94
-5 2 3 365.64 9.11
-5 2 2 150.5 5.03
-5 2 2 149.25 4.92
-5 2 2 139.29 4.78
-5 2 2 146.76 5.1
5 2 -2 135.51 4.76
-5 2 2 143.27 5
-5 2 2 146.7 5
-5 2 2 129.72 4.25
-5 2 1 247.46 6.85
-5 2 1 246.72 6.69
-5 2 1 254.22 6.75
-5 2 1 248.09 7.06
-5 2 1 225.47 6.25
5 2 -1 250.93 6.8
-5 2 1 253.13 6.93
-5 2 1 236.47 6.76
-5 2 1 231.9 6.04
-5 2 0 1599.87 29.64
-5 2 0 1682.84 30.25
-5 2 0 1745.1 32.07
-5 2 0 1626.14 29.74
-5 2 0 1780.68 29.96
-5 2 0 1567.07 30.21
-5 2 0 1740.55 29.51
-5 2 0 1741.86 30.72
5 2 0 1868.19 30.3
-5 2 0 1662.49 30.22
-5 2 0 1694.75 30.9
-5 2 -1 47.22 2.55
-5 2 -1 46.54 2.63
-5 2 -1 48.7 3.24
-5 2 -1 47.76 2.51
-5 2 -1 53.14 2.63
-5 2 -1 48.12 2.8
-5 2 -1 53.02 2.5
-5 2 -1 49.99 2.78
5 2 1 45.97 2.54
-5 2 -1 53.59 3.09
-5 2 -1 47.19 2.66
-5 2 -2 118.85 4.42
-5 2 -2 115.27 5.22
-5 2 -2 106.76 4.44
-5 2 -2 113.75 4.12
-5 2 -2 120.78 4.22
-5 2 -2 111.93 4.15
-5 2 -2 120.81 4.47
-5 2 -2 117.58 4.23
-5 2 -2 109.23 3.89
5 2 2 115.99 4.16
-5 2 -2 112.16 4.73
-5 2 -2 121.38 4.48
-5 2 -3 0.4 0.54
-5 2 -3 0.6 0.41
-5 2 -3 0.8 0.46
-5 2 -3 0.37 0.47
-5 2 -3 0.56 0.42
-5 2 -3 0.68 0.46
-5 2 -3 0.91 0.52
-5 2 -3 0.96 0.77
-5 2 -3 0.97 0.64
-5 2 -3 0.63 0.43
-5 2 -4 4.58 0.98
-5 2 -4 5.39 0.91
-5 2 -4 6.03 0.93
-5 2 -4 6.79 0.98
-5 2 -4 5.07 0.79
-5 2 -4 5.31 0.9
-5 2 -4 6.38 1.05
-5 2 -4 4.41 1.13
-5 2 -4 6.68 1.04
-5 2 -4 5.66 1.15
-5 2 -5 9.88 1.49
-5 2 -5 12.79 1.37
-5 2 -5 12.25 1.11
-5 2 -5 13.91 1.36
-5 2 -5 11.53 1.3
-5 2 -5 7.94 1.45
-5 2 -5 14.22 1.57
-5 2 -5 10.67 1.65
-5 2 -5 10.45 1.49
-5 2 -6 3.62 0.8
-5 2 -6 3.16 0.73
-5 2 -6 3.63 0.91
-5 2 -6 2.28 0.93
-5 2 -6 4.43 1.05
-5 2 -6 3.1 0.6
-5 2 -7 30.58 2.58
-5 2 -7 36.55 2.33
-5 2 -7 32.75 2.44
-5 2 -7 34.53 2.07
-5 2 -7 35.51 1.78
-5 2 -8 63.01 3.48
-5 2 -8 67.48 3.29
-5 2 -8 66.37 2.77
-5 2 -9 381.2 9.27
-5 2 -9 393.22 8.87
-5 2 -9 377.22 8.16
-5 2 -10 127.1 3.75
-5 2 -10 123.73 3.21
-5 2 -10 116.12 3.41
-5 3 12 3.84 0.49
-5 3 11 7.69 0.86
-5 3 11 8.49 0.92
5 3 -11 9.95 0.85
-5 3 11 8.27 0.91
5 3 -11 7 0.77
5 3 -10 82.53 3.02
-5 3 10 80.48 3.41
-5 3 10 83.39 3.36
-5 3 10 86.13 3.43
-5 3 10 81.93 3.16
5 3 -9 367.12 8.4
-5 3 9 360.7 9.19
-5 3 9 351.63 8.95
-5 3 9 381.03 9.25
-5 3 9 360.71 8.59
5 3 -8 913.21 17.85
-5 3 8 949.79 18.95
-5 3 8 946.55 18.69
-5 3 8 961.36 18.87
-5 3 8 897.47 17.91
-5 3 7 627.49 13.62
-5 3 7 619.43 12.83
-5 3 7 598.83 13.61
-5 3 7 615.1 13.5
-5 3 7 628.22 13.84
-5 3 7 610.34 13.71
-5 3 6 51.48 2.92
-5 3 6 46.79 2.48
-5 3 6 51.14 2.88
-5 3 6 46.9 2.87
5 3 -6 46.13 2.5
-5 3 6 45.59 2.85
-5 3 6 40.87 2.71
-5 3 5 0.77 0.52
-5 3 5 1.36 0.58
-5 3 5 1.47 0.49
-5 3 5 0.87 0.47
-5 3 5 0.47 0.45
-5 3 4 119.04 4.48
-5 3 4 110.9 4.29
-5 3 4 118.97 4.44
-5 3 4 112.95 3.72
-5 3 4 110.56 4.47
5 3 -4 114.66 4.16
-5 3 4 110.21 4.21
-5 3 4 116.19 4.51
-5 3 4 115.19 4.52
-5 3 3 10.45 1.27
-5 3 3 11.06 1.27
-5 3 3 9.14 1.18
-5 3 3 11.07 1.36
5 3 -3 9.26 1.14
-5 3 3 9.76 1.23
-5 3 3 11.61 1.3
-5 3 3 10.86 1.23
-5 3 2 20.92 1.74
-5 3 2 24.29 1.78
-5 3 2 19.39 1.6
-5 3 2 22.93 1.86
-5 3 2 21.41 1.66
5 3 -2 21.11 1.67
-5 3 2 20.64 1.72
-5 3 2 20.37 1.7
-5 3 2 23.18 1.75
-5 3 1 38.44 2.34
-5 3 1 34.56 2.1
-5 3 1 32.56 2.05
-5 3 1 40.39 2.47
5 3 -1 40.1 2.27
-5 3 1 38.57 2.31
-5 3 1 32.95 2.16
-5 3 1 35.71 2.15
-5 3 0 335.91 8.44
-5 3 0 348.92 9.75
-5 3 0 326.79 8.1
-5 3 0 353.83 8.25
-5 3 0 342.47 8.76
-5 3 0 324.65 8.09
-5 3 0 322.15 8.08
-5 3 0 334.95 8.42
-5 3 -1 336.25 8.31
-5 3 -1 326.53 9.47
-5 3 -1 314.36 7.86
-5 3 -1 300.94 7.8
-5 3 -1 328.79 8.6
-5 3 -1 339.27 8.02
5 3 1 351.48 8.07
-5 3 -1 327.99 8.89
-5 3 -1 323.76 7.91
-5 3 -1 336.17 8.36
-5 3 -2 118.44 4.32
-5 3 -2 104.52 4.91
-5 3 -2 119.74 4.14
-5 3 -2 122.22 4.15
-5 3 -2 104.51 4.37
-5 3 -2 110.79 3.97
5 3 2 107.05 3.71
-5 3 -2 114.84 4.71
-5 3 -2 117.96 4.3
-5 3 -3 71.54 3.5
-5 3 -3 71.73 3.12
-5 3 -3 66.34 2.91
-5 3 -3 70.19 3.09
-5 3 -3 71.55 3.29
-5 3 -3 67.13 3.86
-5 3 -3 72.36 3.68
-5 3 -3 61.74 3.08
-5 3 -4 690.21 13.74
-5 3 -4 646.1 13.18
-5 3 -4 683.01 13.71
-5 3 -4 667.39 14.13
-5 3 -4 664.43 14.78
-5 3 -5 122.15 4.37
-5 3 -5 127.4 4.08
-5 3 -5 125.95 4.41
-5 3 -5 122.47 4.35
-5 3 -5 111.91 5.2
-5 3 -5 127.69 5.09
-5 3 -6 201.82 5.96
-5 3 -6 207.24 7.1
-5 3 -6 195.32 6.49
-5 3 -6 207.47 5.91
-5 3 -6 211.6 5.52
-5 3 -7 13.89 1.64
-5 3 -7 11.79 1.37
-5 3 -7 13.21 1.24
-5 3 -7 12.83 1.09
-5 3 -8 50.83 2.81
-5 3 -8 49.28 2.52
-5 3 -8 56.28 2.47
-5 3 -8 47.85 1.99
-5 3 -9 306.34 6.64
-5 3 -9 301.5 6.66
-5 3 -10 25.96 1.2
-5 4 11 3.69 0.54
5 4 -10 17.88 1.12
-5 4 10 16.87 1.2
-5 4 10 -0.04 0.14
-5 4 10 -0.04 0.13
-5 4 10 17.28 1.25
5 4 -10 14.68 1.01
-5 4 9 37.79 2.04
-5 4 9 38.22 2.13
5 4 -9 35.04 1.8
-5 4 9 38.76 2.09
-5 4 9 37.49 2.08
-5 4 9 39.04 2.07
-5 4 8 28.45 1.88
-5 4 8 26.8 1.9
5 4 -8 28.22 1.73
-5 4 8 25.57 1.82
-5 4 8 27.21 1.84
-5 4 8 29.53 1.94
-5 4 7 7.13 1.01
-5 4 7 5.54 0.93
5 4 -7 5.84 0.9
-5 4 7 6.86 1
-5 4 7 6.14 0.92
-5 4 7 8.04 1.08
-5 4 6 10.77 1.22
-5 4 6 10.11 1.21
-5 4 6 9.29 1.09
-5 4 6 9.94 1.24
5 4 -6 10.44 1.21
-5 4 6 10.89 1.27
-5 4 5 101.17 3.96
-5 4 5 104.17 3.93
-5 4 5 103.71 3.95
-5 4 5 99.99 3.58
-5 4 5 99.2 4.01
5 4 -5 96.15 3.83
-5 4 5 100.08 4.02
-5 4 4 49.78 2.64
-5 4 4 48.13 2.55
-5 4 4 49.64 2.57
-5 4 4 47.84 2.67
5 4 -4 46.91 2.57
-5 4 4 51.61 2.73
-5 4 4 52.48 2.91
-5 4 3 9.32 1.17
-5 4 3 10.21 1.15
-5 4 3 10.61 1.16
-5 4 3 9.03 1.18
-5 4 3 11.16 1.27
5 4 -3 11.88 1.26
-5 4 3 10.01 1.18
-5 4 3 11.08 1.36
-5 4 2 592.92 12.3
-5 4 2 566.53 11.95
-5 4 2 585.46 12.03
-5 4 2 559.96 12.44
-5 4 2 577.86 12.22
5 4 -2 580.43 12.24
-5 4 2 587.58 12.29
-5 4 2 582.96 12.76
-5 4 1 627.17 13.66
-5 4 1 641.4 13.27
-5 4 1 624.69 12.93
-5 4 1 642 12.97
-5 4 1 665.23 13.67
-5 4 1 662.94 13.53
5 4 -1 681.02 13.21
-5 4 1 657.85 13.93
-5 4 1 628.14 13.23
-5 4 0 18.47 1.65
-5 4 0 14.86 1.37
-5 4 0 17.28 1.38
-5 4 0 23.83 1.62
-5 4 0 22.36 1.77
-5 4 0 15.85 1.45
5 4 0 15.96 1.37
-5 4 0 15.92 1.55
-5 4 0 17.49 1.51
-5 4 -1 572.36 11.96
-5 4 -1 538.43 11.47
-5 4 -1 549.48 11.51
-5 4 -1 568.82 12.26
5 4 1 541.14 11.73
-5 4 -1 543.48 12.22
-5 4 -2 446.16 9.7
-5 4 -2 407.76 10.62
-5 4 -2 413.96 9.15
-5 4 -2 430.22 9.26
-5 4 -2 416.61 9.84
-5 4 -2 393.83 9.7
-5 4 -2 403.57 9.45
5 4 2 400.8 9.25
-5 4 -2 392.5 10.08
-5 4 -2 402.2 9.73
-5 4 -3 24.57 1.68
-5 4 -3 26.28 1.74
-5 4 -3 23.69 1.83
-5 4 -3 22.81 1.71
-5 4 -3 24.08 1.79
-5 4 -3 24.45 2.19
-5 4 -3 26.74 2.09
-5 4 -3 24.78 1.84
-5 4 -4 18.5 1.45
-5 4 -4 18.98 1.5
-5 4 -4 20.8 1.74
-5 4 -4 14.81 1.76
-5 4 -4 18.99 1.74
-5 4 -4 20.33 1.68
-5 4 -4 18.38 1.48
-5 4 -5 20.43 1.56
-5 4 -5 22.31 1.69
-5 4 -5 23.36 1.61
-5 4 -5 21.38 1.81
-5 4 -5 22.48 1.72
-5 4 -5 20.46 1.95
-5 4 -6 12.57 1.26
-5 4 -6 12.35 1.12
-5 4 -6 12.46 1.35
-5 4 -6 11.64 1.44
-5 4 -7 79.05 2.84
-5 4 -7 77.56 3.09
-5 4 -7 71.04 3.2
-5 4 -8 0.38 0.3
-5 4 -8 0.37 0.3
-5 5 10 -0.07 0.23
5 5 -10 0.11 0.2
-5 5 9 122.22 3.78
5 5 -9 128.98 3.76
-5 5 8 3.69 0.6
5 5 -8 2.97 0.65
-5 5 7 25.97 1.63
-5 5 7 29.89 1.83
-5 5 6 88.76 3.34
-5 5 6 83.63 3.22
-5 5 5 61.93 2.86
-5 5 5 66.04 2.7
5 5 -4 13.59 1.37
-5 5 4 14.57 1.58
-5 5 4 13.04 1.33
5 5 -3 83.61 3.46
-5 5 3 85.72 3.97
-5 5 3 87.94 3.59
-5 5 2 1.93 0.7
5 5 -2 1.81 0.55
-5 5 2 3.79 0.84
-5 5 2 2 0.61
-5 5 1 6.58 1.12
5 5 -1 7.1 0.95
-5 5 1 6.2 1.03
-5 5 1 6.98 1.02
5 5 0 187.52 5.71
-5 5 0 180.74 6.1
-5 5 0 186.04 5.81
-5 5 0 199.68 5.76
-5 5 -1 5.3 1.01
5 5 1 4.81 0.84
-5 5 -1 4.22 0.84
-5 5 -1 4.78 0.86
5 5 2 753.4 14.79
-5 5 -2 733.84 14.93
-5 5 -2 746.29 14.72
-5 5 -3 1052.27 20.59
-5 5 -3 1089.47 20.42
-5 5 -4 6.81 1.01
-5 5 -4 7.85 0.99
-5 5 -4 10.16 1.15
-5 5 -5 241.54 5.87
-5 5 -5 251.97 5.78
-5 5 -6 4.04 0.7
-5 5 -6 3.95 0.66
-5 5 -7 67.18 2.59
-5 5 -7 62.17 2.42
-5 5 -8 24.8 1.29
-5 5 -8 24.97 1.38
-5 5 -9 0.18 0.19
5 6 -9 15.26 1.03
-5 6 9 13.16 0.93
-5 6 8 13.85 1.05
5 6 -7 1.54 0.48
-5 6 7 1.6 0.43
-5 6 6 3.78 0.62
5 6 -6 3.93 0.74
-5 6 6 3.22 0.56
5 6 -5 41.67 2.24
-5 6 5 37.42 1.98
5 6 -4 52.93 2.53
-5 6 4 47.13 2.5
-5 6 4 45.79 2.83
-5 6 4 48.63 2.37
5 6 -3 624.63 12.29
-5 6 3 578.79 12.59
-5 6 3 571.37 13.44
-5 6 3 611.43 12.41
5 6 -2 70.6 2.79
-5 6 2 64.77 3.01
-5 6 2 59.92 3.36
-5 6 2 62.47 2.88
5 6 -1 140.21 4.06
-5 6 1 142.4 4.71
-5 6 1 134.18 4.5
-5 6 0 49.83 2.99
-5 6 0 51.04 2.63
-5 6 0 52.71 2.62
-5 6 -1 141.46 5.36
-5 6 -1 152.09 4.8
-5 6 -2 500.72 10.75
-5 6 -2 525.93 10.79
-5 6 -3 836.83 16.09
-5 6 -3 871.14 16.13
-5 6 -4 144.92 4.79
-5 6 -4 144.5 4.44
-5 6 -5 0.49 0.35
-5 6 -5 0.09 0.25
-5 6 -6 3.45 0.59
-5 6 -6 3.74 0.61
-5 6 -7 42.14 1.79
-5 6 -7 41.9 1.76
-5 6 -8 2.27 0.35
-5 6 -8 2.68 0.38
5 7 -7 13.55 1.07
5 7 -6 2.83 0.58
5 7 -5 168.02 4.7
-5 7 5 156.02 4.24
5 7 -4 109.17 3.61
-5 7 4 97.53 3.3
-5 7 4 105.48 3.21
5 7 -3 4.56 0.71
-5 7 3 2.71 0.57
-5 7 3 3.46 0.85
-5 7 3 2.92 0.58
5 7 -2 41.03 2
-5 7 2 39.12 2.55
-5 7 2 38 2.01
-5 7 2 39.51 2.02
-5 7 1 90.08 3.99
-5 7 1 98.61 3.42
-5 7 1 96.15 3.4
-5 7 0 43.01 2.65
-5 7 0 45.11 2.2
-5 7 0 43.11 2.17
-5 7 -1 23.06 1.91
-5 7 -1 26.11 1.64
-5 7 -1 24.13 1.56
-5 7 -2 371 8.01
-5 7 -2 356.22 7.8
-5 7 -3 1.94 0.48
-5 7 -3 2.53 0.67
-5 7 -3 2.24 0.56
-5 7 -4 74.06 2.96
-5 7 -4 77.98 2.66
-5 7 -4 83.01 2.87
-5 7 -5 114.89 2.89
-5 7 -5 113.38 2.62
-5 7 -6 0.67 0.26
-5 7 -7 0.06 0.17
5 8 -7 142.1 3.55
5 8 -6 131.08 3.59
5 8 -5 58.3 2.26
5 8 -4 4.17 0.62
5 8 -3 20.59 1.3
-5 8 2 22.82 1.19
-5 8 1 235.44 6.55
-5 8 1 247.44 5.43
-5 8 0 332.46 8.19
-5 8 0 346.26 7.12
-5 8 -1 732.85 14.79
-5 8 -1 776.34 13.81
-5 8 -2 153.09 4.62
-5 8 -2 162.29 4.07
-5 8 -3 55.86 2.33
-5 8 -3 60.08 2.14
-5 8 -4 9.21 0.79
-5 8 -4 11.64 0.85
-5 8 -5 12.69 0.8
-5 9 0 3.12 0.54
-5 9 -1 120.11 3.38
-6 -8 4 9.87 0.75
-6 -8 3 3.52 0.5
-6 -8 0 61.15 2.14
-6 -8 0 51.36 1.81
-6 -8 -1 428.58 8.21
-6 -8 -1 416.61 8.1
-6 -8 -2 139.76 3.46
6 -7 -7 221.57 4.35
-6 -7 7 209.2 4.48
6 -7 -6 27.13 1.23
-6 -7 6 27.22 1.38
6 -7 -5 7.97 0.7
6 -7 -5 7.48 0.75
-6 -7 5 7.69 0.79
6 -7 -4 0.09 0.21
6 -7 -4 -0.07 0.26
6 -7 -3 52.84 1.92
6 -7 -3 53.04 2.18
-6 -7 2 -0.04 0.14
-6 -7 2 3.84 0.67
-6 -7 1 26.42 1.65
-6 -7 1 25.26 1.51
-6 -7 1 22.8 1.53
-6 -7 0 2.69 0.6
-6 -7 0 3.63 0.64
-6 -7 0 2.7 0.58
-6 -7 0 2.95 0.66
-6 -7 -1 20.9 1.41
-6 -7 -1 21.02 1.56
-6 -7 -1 20.46 1.45
-6 -7 -2 8.12 0.86
-6 -7 -2 7.76 0.98
-6 -7 -2 8.75 0.97
-6 -7 -3 490.62 9.49
-6 -7 -3 476.83 10.04
-6 -7 -3 489.6 9.93
-6 -7 -4 7.73 0.78
-6 -6 8 98.94 2.9
6 -6 -8 102.32 2.78
6 -6 -8 102.34 2.72
-6 -6 7 9.68 0.9
6 -6 -7 9.88 0.86
6 -6 -7 10.72 0.84
6 -6 -6 18.78 1.29
6 -6 -6 19.61 1.21
6 -6 -5 32.93 1.84
6 -6 -5 34.28 1.69
6 -6 -4 138.11 3.86
-6 -6 4 134.94 4.4
6 -6 -3 1.29 0.41
-6 -6 3 1.52 0.55
-6 -6 2 185.02 5.5
-6 -6 2 174.68 5.32
6 -6 -2 189.96 4.54
-6 -6 2 185.96 5.43
-6 -6 1 8.62 1.05
-6 -6 1 7.18 0.93
-6 -6 1 8.55 1.15
-6 -6 1 9.38 1.2
-6 -6 0 52.87 2.62
-6 -6 0 53.61 2.58
-6 -6 0 58.14 3.03
-6 -6 0 56.95 2.98
-6 -6 -1 56.94 2.7
-6 -6 -1 58.49 2.72
-6 -6 -1 60.17 3.11
-6 -6 -1 65.45 3.21
-6 -6 -2 1 0.46
-6 -6 -2 0.55 0.48
-6 -6 -2 0.83 0.57
-6 -6 -3 67.24 2.69
-6 -6 -3 69.95 3.21
-6 -6 -3 72.69 3.29
-6 -6 -4 23.71 1.4
-6 -6 -4 26.62 1.82
-6 -6 -5 0.37 0.33
-6 -6 -5 0.21 0.3
6 -5 -9 312.01 6.35
-6 -5 9 352.74 6.97
6 -5 -8 9.14 0.83
6 -5 -8 10.51 0.87
6 -5 -7 180.44 4.87
6 -5 -7 186.98 4.75
-6 -5 6 7.71 1
6 -5 -6 7.53 0.93
6 -5 -6 7.31 0.85
6 -5 -5 241.08 5.93
-6 -5 5 232.31 6.49
6 -5 -4 38.91 1.99
-6 -5 4 41.23 2.4
6 -5 -3 32.34 1.75
-6 -5 3 30.86 2.08
-6 -5 3 29.24 2.03
-6 -5 2 -0.08 0.49
-6 -5 2 -0.07 0.47
6 -5 -2 0.46 0.3
-6 -5 2 -0.05 0.26
-6 -5 2 0.06 0.38
-6 -5 1 38.43 2.6
-6 -5 1 40.59 2.69
-6 -5 1 33.41 2.06
-6 -5 1 37.53 2.28
-6 -5 0 64.84 3.51
-6 -5 0 66.34 3.58
-6 -5 0 64.38 2.99
-6 -5 0 65.52 3.04
-6 -5 -1 55.11 3.23
-6 -5 -1 60.22 3.41
-6 -5 -1 57.81 2.84
-6 -5 -1 58.54 2.79
-6 -5 -2 0.09 0.48
-6 -5 -2 0.25 0.58
-6 -5 -2 0.33 0.38
-6 -5 -3 182.98 6.14
-6 -5 -3 167.03 4.92
-6 -5 -4 197.01 6.05
-6 -5 -4 201.49 6.31
-6 -5 -4 191.99 5.11
-6 -5 -5 38.55 2.18
-6 -5 -6 310.27 6.83
-6 -5 -6 310.79 7.37
-6 -5 -7 127.43 3.43
6 -4 -10 88.14 2.44
6 -4 -9 24.37 1.18
-6 -4 9 -0.03 0.09
6 -4 -8 -0.03 0.12
6 -4 -8 0.11 0.29
-6 -4 8 0.25 0.31
-6 -4 8 0.28 0.29
-6 -4 7 31.94 1.77
6 -4 -7 33.83 1.79
-6 -4 7 34.17 1.98
-6 -4 7 34.53 1.94
-6 -4 7 33.66 1.85
6 -4 -7 34.57 1.92
-6 -4 6 104.13 3.63
-6 -4 6 102.6 3.84
-6 -4 6 106.96 3.82
-6 -4 6 108.66 3.72
-6 -4 5 133.26 4.3
-6 -4 5 130.16 4.28
-6 -4 5 134.12 4.6
-6 -4 5 128.77 4.41
-6 -4 4 292.01 7.26
-6 -4 4 299.68 7.36
-6 -4 4 288.52 7.6
-6 -4 4 301.66 7.82
-6 -4 4 290.33 7.5
-6 -4 3 60.99 2.75
-6 -4 3 58.65 2.73
-6 -4 3 63.51 3.27
-6 -4 3 58.99 3.35
-6 -4 3 63.02 3.07
-6 -4 3 57.6 2.97
-6 -4 3 59.75 2.88
-6 -4 2 69.67 2.94
-6 -4 2 67.08 2.9
-6 -4 2 63.82 3.07
-6 -4 2 76.62 3.76
-6 -4 2 64.1 3.58
6 -4 -2 64.25 2.54
-6 -4 2 65.11 3.16
-6 -4 2 65.04 3.01
-6 -4 1 5 0.76
-6 -4 1 2.11 0.56
-6 -4 1 2.36 0.8
-6 -4 1 1.87 0.77
-6 -4 1 2.97 0.6
-6 -4 1 2.69 0.68
-6 -4 1 2.58 0.71
-6 -4 1 2.35 0.6
-6 -4 0 249.11 6.34
-6 -4 0 235.93 6.5
-6 -4 0 250.07 6.38
-6 -4 0 234.78 7.61
-6 -4 0 240.99 7.87
-6 -4 0 237.16 6.56
-6 -4 0 246.97 6.91
-6 -4 0 251.81 6.66
-6 -4 -1 26.46 1.72
-6 -4 -1 28.8 1.81
-6 -4 -1 30.11 1.94
-6 -4 -1 26.72 2.32
-6 -4 -1 28.77 2.47
-6 -4 -1 26.65 1.96
-6 -4 -1 27.14 1.85
-6 -4 -2 2.04 0.54
-6 -4 -2 2.1 0.84
-6 -4 -2 1.55 0.8
-6 -4 -2 1.63 0.49
-6 -4 -2 2.95 0.62
-6 -4 -2 1.43 0.57
-6 -4 -2 1.48 0.51
-6 -4 -3 13.69 1.19
-6 -4 -3 11.16 1.13
-6 -4 -3 11.74 1.53
-6 -4 -3 11.42 1.1
-6 -4 -3 14.17 1.33
-6 -4 -4 5.43 0.76
-6 -4 -4 6.16 0.85
-6 -4 -4 5 1.05
-6 -4 -4 5.5 1.06
-6 -4 -5 14.85 1.42
-6 -4 -5 16.47 1.54
-6 -4 -5 16.41 1.63
-6 -4 -6 6.92 0.88
-6 -4 -6 7.38 1.02
-6 -4 -7 11.76 1.04
6 -3 -11 1.53 0.27
-6 -3 10 7.05 0.68
6 -3 -10 1.22 0.34
-6 -3 10 7.12 0.71
-6 -3 10 4.24 0.61
6 -3 -10 1.67 0.4
-6 -3 10 1.92 0.44
-6 -3 9 16.88 1.29
6 -3 -9 15.69 1.19
-6 -3 9 15.23 1.24
-6 -3 9 15.17 1.3
-6 -3 9 16.82 1.34
-6 -3 8 93.95 3.57
6 -3 -8 95.82 3.42
-6 -3 8 95.2 3.73
-6 -3 8 96.13 3.7
-6 -3 8 94.59 3.58
6 -3 -8 89.96 3.03
-6 -3 7 348.72 8.51
-6 -3 7 345.59 8.52
6 -3 -7 329.57 7.76
-6 -3 7 340.92 8.74
-6 -3 7 333.54 8.58
-6 -3 6 2.55 0.73
-6 -3 6 2.27 0.68
-6 -3 6 3.04 0.77
-6 -3 6 2.5 0.77
-6 -3 5 125.85 4.68
-6 -3 5 127.98 4.96
-6 -3 5 126.87 4.65
-6 -3 5 123.25 4.77
-6 -3 4 40.79 2.59
-6 -3 4 41 2.7
-6 -3 4 42.83 2.57
-6 -3 4 41.59 2.54
-6 -3 4 39.37 2.51
6 -3 -4 42.78 2.55
6 -3 -4 38.53 2.32
-6 -3 4 44.17 2.72
-6 -3 4 41.62 2.65
-6 -3 3 2.24 0.71
-6 -3 3 8.14 1.22
-6 -3 3 7.45 1.12
-6 -3 3 1.88 0.79
-6 -3 3 2.79 0.82
-6 -3 3 2.98 0.72
6 -3 -3 2.1 0.6
-6 -3 3 2.1 0.67
-6 -3 3 3.37 0.8
-6 -3 2 133.85 4.86
-6 -3 2 125.83 5
-6 -3 2 132.69 4.64
-6 -3 2 126.55 4.59
-6 -3 2 115.79 4.98
-6 -3 2 132.42 5.47
-6 -3 2 116.76 4.27
6 -3 -2 113.12 4.4
-6 -3 2 124.17 4.77
-6 -3 1 6.9 1.05
-6 -3 1 6.24 1.06
-6 -3 1 6.45 1.01
-6 -3 1 5.49 0.9
-6 -3 1 7.29 1.3
-6 -3 1 4.55 1.05
-6 -3 1 6.86 0.95
6 -3 -1 3.9 0.85
-6 -3 1 4.1 0.87
-6 -3 0 378.27 9.17
-6 -3 0 355.72 9.34
-6 -3 0 351.84 8.62
-6 -3 0 366.26 8.77
-6 -3 0 329.79 9.7
-6 -3 0 364.64 10.21
-6 -3 0 340.89 8.2
6 -3 0 307.77 8.7
-6 -3 0 346.81 8.99
-6 -3 -1 1513.76 25.78
-6 -3 -1 1467.89 26.43
-6 -3 -1 1408.09 25.18
-6 -3 -1 1457.57 25.22
-6 -3 -1 1409.27 27.02
-6 -3 -1 1333.04 27.06
-6 -3 -1 1301.41 24.44
6 -3 1 1199.04 25.26
-6 -3 -1 1377.44 25.59
-6 -3 -2 315.05 7.92
-6 -3 -2 335.43 8.11
-6 -3 -2 286.14 7.21
-6 -3 -2 335.26 8.39
-6 -3 -2 291.01 8.91
-6 -3 -2 330.59 8.8
-6 -3 -3 57.93 3.17
-6 -3 -3 58.49 2.8
-6 -3 -3 52.61 3.25
-6 -3 -3 47.6 3.2
-6 -3 -3 58.37 2.83
-6 -3 -3 63.52 3.1
-6 -3 -3 58.4 3.47
-6 -3 -3 57.1 3.16
-6 -3 -4 510.68 10.94
-6 -3 -4 491.62 11.87
-6 -3 -4 491.02 10.82
-6 -3 -4 483.7 12.1
-6 -3 -4 494.89 11.62
-6 -3 -5 40.15 2.47
-6 -3 -5 42.86 2.71
-6 -3 -5 46.15 2.45
-6 -3 -5 43.07 2.77
-6 -3 -5 42.65 2.54
-6 -3 -5 41.71 2.24
-6 -3 -6 56.65 2.77
-6 -3 -6 53.61 2.5
-6 -3 -6 57.08 2.87
-6 -3 -6 56.01 2.95
-6 -3 -7 3.9 0.68
-6 -3 -7 4.21 0.7
-6 -3 -7 3.13 0.73
-6 -3 -8 78.58 2.54
-6 -2 11 1.92 0.41
-6 -2 11 1.95 0.42
6 -2 -11 2.11 0.4
-6 -2 11 1.8 0.41
6 -2 -11 1.65 0.37
-6 -2 11 1.69 0.41
-6 -2 10 185.02 4.74
-6 -2 10 181.63 4.99
6 -2 -10 194.77 4.88
-6 -2 10 191.25 5.08
-6 -2 10 183.31 5.16
-6 -2 10 180.63 5.08
-6 -2 9 0.06 0.36
-6 -2 9 0.12 0.34
6 -2 -9 0.65 0.42
-6 -2 9 0.13 0.41
-6 -2 9 0.31 0.44
-6 -2 8 119.59 4.5
-6 -2 8 123.04 4.18
6 -2 -8 130.43 4.4
-6 -2 8 123.08 4.66
-6 -2 8 121.89 4.53
-6 -2 8 118.74 4.65
-6 -2 7 25.99 2.06
6 -2 -7 26.43 1.64
-6 -2 7 26.94 2.08
-6 -2 7 27.14 1.88
-6 -2 7 27.96 2.21
-6 -2 7 31.38 2.35
-6 -2 6 466.36 11.08
-6 -2 6 460.62 11.34
-6 -2 6 453.18 10.97
-6 -2 6 445.04 10.18
-6 -2 6 432.31 11.01
-6 -2 5 44.31 2.86
-6 -2 5 43.61 2.78
-6 -2 5 43.5 2.39
-6 -2 5 47.48 2.87
-6 -2 5 45.84 2.97
-6 -2 5 40.67 2.5
6 -2 -5 40.71 2.39
-6 -2 5 42.34 2.84
-6 -2 5 45.72 2.93
-6 -2 4 921.59 18.95
-6 -2 4 894.95 17.54
-6 -2 4 954.96 18.87
-6 -2 4 955.73 18.9
-6 -2 4 959.98 19.36
-6 -2 4 921.72 18.65
6 -2 -4 878.47 18.13
-6 -2 4 952.8 19.16
-6 -2 4 875.03 18.8
-6 -2 3 237.9 7.4
-6 -2 3 262.96 7.87
-6 -2 3 254.93 7.34
-6 -2 3 246.5 7.29
-6 -2 3 238.76 7.51
-6 -2 3 276.66 8.36
6 -2 -3 240.91 7.28
-6 -2 3 258.33 7.63
-6 -2 3 237.35 7.4
-6 -2 2 133.86 5.14
-6 -2 2 130.15 5.23
-6 -2 2 129.92 4.83
-6 -2 2 137.91 4.99
-6 -2 2 116.91 5.04
-6 -2 2 137.24 5.65
-6 -2 2 127.28 4.27
6 -2 -2 115.68 4.24
-6 -2 2 130.26 5.05
-6 -2 2 126.67 4.96
-6 -2 1 241.65 7.26
-6 -2 1 259.33 7.74
-6 -2 1 231.75 6.83
-6 -2 1 244.93 7.04
-6 -2 1 247.18 7.75
-6 -2 1 252.34 8.07
-6 -2 1 233.08 6.12
6 -2 -1 216.39 6.45
-6 -2 1 232.34 7.17
-6 -2 0 591.86 13.39
-6 -2 0 625.7 13.14
-6 -2 0 603.11 13.08
-6 -2 0 615.04 13.75
-6 -2 0 629.23 14.32
-6 -2 0 592.16 13.51
-6 -2 -1 16.36 1.67
-6 -2 -1 15.56 1.91
-6 -2 -1 15.89 1.54
-6 -2 -1 17.82 1.66
-6 -2 -1 19.47 1.94
-6 -2 -1 17.23 1.98
6 -2 1 14.61 1.48
-6 -2 -1 13.57 1.56
-6 -2 -2 19.41 1.82
-6 -2 -2 16.93 2.02
-6 -2 -2 19.75 1.71
-6 -2 -2 22.28 1.81
-6 -2 -2 21.42 2.03
-6 -2 -2 22.38 2.15
-6 -2 -2 17.97 2
6 -2 2 16.38 1.56
-6 -2 -2 18.87 1.93
-6 -2 -2 17.14 1.71
-6 -2 -3 12.39 1.56
-6 -2 -3 14.08 1.42
-6 -2 -3 11.63 1.35
-6 -2 -3 10.9 1.49
-6 -2 -3 10.44 1.54
-6 -2 -3 15.3 1.61
-6 -2 -3 10.79 1.61
-6 -2 -3 11.47 1.51
-6 -2 -4 2.05 0.65
-6 -2 -4 1.87 0.73
-6 -2 -4 2.44 0.8
-6 -2 -4 2.66 0.72
-6 -2 -4 3.21 1.04
-6 -2 -4 3.89 0.89
-6 -2 -4 1.47 0.69
-6 -2 -5 6.84 1.02
-6 -2 -5 7.33 1.1
-6 -2 -5 7.38 1.19
-6 -2 -5 7.36 1.02
-6 -2 -5 8.86 1.27
-6 -2 -5 4.87 1.14
-6 -2 -5 7.17 1.17
-6 -2 -6 83.97 3.36
-6 -2 -6 77.53 3.11
-6 -2 -6 82.52 3.49
-6 -2 -6 78.92 3.66
-6 -2 -6 77.21 3.88
-6 -2 -7 5.55 0.76
-6 -2 -7 5.74 1
-6 -2 -7 6.19 0.96
-6 -2 -8 11.84 1.18
-6 -2 -8 11.58 1.07
-6 -1 11 65.22 2.45
-6 -1 11 62.27 2.49
6 -1 -11 57.31 2.16
6 -1 -11 63.63 2.34
-6 -1 11 61.45 2.44
-6 -1 11 63.58 2.42
-6 -1 11 61.87 2.17
-6 -1 10 53.99 2.58
-6 -1 10 54.63 2.69
6 -1 -10 56.33 2.43
-6 -1 10 55.51 2.66
-6 -1 10 54.81 2.61
6 -1 -9 6.89 0.95
-6 -1 9 6.75 1.07
-6 -1 9 6.56 1.03
-6 -1 9 6.35 0.88
-6 -1 9 6.54 1.03
-6 -1 8 22.88 2.03
-6 -1 8 25.14 2.05
-6 -1 8 24.53 1.75
-6 -1 8 24.28 2
-6 -1 7 99.71 4.5
-6 -1 7 99.16 4.36
-6 -1 7 101.47 3.85
-6 -1 7 94.73 4.28
-6 -1 6 16.85 1.79
-6 -1 6 17 1.82
-6 -1 6 17.38 1.5
-6 -1 6 19.78 1.98
-6 -1 6 14.67 1.75
-6 -1 6 17.43 1.83
-6 -1 5 200.27 6.77
-6 -1 5 195.48 6.7
-6 -1 5 219.04 5.96
-6 -1 5 194.74 6.61
-6 -1 5 200.86 6.87
6 -1 -5 193.67 5.99
-6 -1 5 211.56 7
-6 -1 5 200.46 6.82
-6 -1 4 24.39 2.17
-6 -1 4 29.55 2.27
-6 -1 4 24.77 1.72
-6 -1 4 29.28 2.3
-6 -1 4 27.55 2.34
-6 -1 4 27.86 2.21
6 -1 -4 28.45 2.1
-6 -1 4 28.47 2.34
-6 -1 4 25.09 2.17
-6 -1 3 10.12 1.43
-6 -1 3 13.95 1.23
-6 -1 3 11.97 1.51
-6 -1 3 12.44 1.5
-6 -1 3 12.7 1.63
-6 -1 3 11.78 1.51
6 -1 -3 11.37 1.4
-6 -1 3 11.21 1.48
-6 -1 3 11.08 1.47
-6 -1 2 637.72 14.95
-6 -1 2 647.62 14.55
-6 -1 2 640.22 14.34
-6 -1 2 641.65 15.47
-6 -1 2 702.98 14.97
-6 -1 2 649.11 14.65
-6 -1 2 666.3 14.8
-6 -1 1 395.14 10.31
-6 -1 1 376.84 9.49
-6 -1 1 392.88 9.56
-6 -1 1 343.25 8.24
-6 -1 1 359.23 9.92
-6 -1 1 342.54 8.27
-6 -1 1 367.24 9.72
-6 -1 1 377.42 9.74
-6 -1 0 547.09 13.52
-6 -1 0 587.82 13
-6 -1 0 556.92 12.87
-6 -1 0 640.54 14.15
-6 -1 0 556.18 11.66
-6 -1 0 609.03 14.21
-6 -1 0 554.18 13.07
-6 -1 0 619.06 14.79
-6 -1 0 588.89 13.3
-6 -1 -1 6.56 1.23
-6 -1 -1 8.76 1.2
-6 -1 -1 8.25 1.15
-6 -1 -1 3.41 0.98
-6 -1 -1 3.98 1.09
-6 -1 -1 5.9 1.1
-6 -1 -1 2.34 0.83
-6 -1 -1 4.83 1.03
-6 -1 -2 26.44 2.31
-6 -1 -2 24.09 1.95
-6 -1 -2 26.29 2.03
-6 -1 -2 23.19 2.16
-6 -1 -2 27.98 2.39
-6 -1 -2 27.26 2.18
-6 -1 -2 24.95 2.47
-6 -1 -2 26.13 2.32
-6 -1 -2 23.83 2.06
-6 -1 -3 353.81 9.85
-6 -1 -3 373.26 9.13
-6 -1 -3 365.28 9.14
-6 -1 -3 356.81 9.94
-6 -1 -3 344.8 9.26
-6 -1 -3 365.33 9.48
-6 -1 -3 356.6 9.62
-6 -1 -3 351.17 9.75
-6 -1 -4 2.88 0.89
-6 -1 -4 3.35 0.86
-6 -1 -4 2.03 0.71
-6 -1 -4 1.67 0.64
-6 -1 -4 2.46 0.74
-6 -1 -4 2.46 0.77
-6 -1 -4 2.45 0.98
-6 -1 -4 2.05 0.83
-6 -1 -5 2.69 0.76
-6 -1 -5 0.59 0.46
-6 -1 -5 2.57 0.72
-6 -1 -5 1.07 0.57
-6 -1 -5 1.99 0.75
-6 -1 -5 1.7 0.89
-6 -1 -5 2.65 0.93
-6 -1 -6 291.23 7.6
-6 -1 -6 283.87 8.68
-6 -1 -6 286.11 6.92
-6 -1 -6 288.6 7.38
-6 -1 -6 304.57 8.36
-6 -1 -7 9.84 1.23
-6 -1 -7 8.96 1.32
-6 -1 -8 3.81 0.71
-6 -1 -8 2.86 0.76
-6 -1 -9 23.93 1.43
6 0 -12 148.66 3.46
-6 0 12 150.51 3.59
-6 0 12 147.41 3.6
-6 0 11 0.05 0.33
-6 0 11 0.08 0.33
6 0 -11 -0.03 0.27
-6 0 11 0.17 0.34
6 0 -11 0.04 0.28
-6 0 11 0.04 0.32
6 0 -10 70.32 2.81
-6 0 10 66.91 3.08
-6 0 10 65.19 2.95
-6 0 10 63.35 2.92
-6 0 9 0.35 0.43
6 0 -9 0.4 0.39
-6 0 9 0.2 0.35
-6 0 9 0.21 0.42
-6 0 9 -0.08 0.42
-6 0 8 13.9 1.63
-6 0 8 12.73 1.47
-6 0 8 13.41 1.54
-6 0 8 14 1.33
-6 0 7 -0.08 0.54
-6 0 7 0.18 0.49
-6 0 7 0.18 0.36
-6 0 7 0.43 0.62
-6 0 6 76.34 3.91
-6 0 6 74.54 3.82
-6 0 6 75.03 3.23
-6 0 6 79.91 3.94
-6 0 6 79.83 4.09
-6 0 6 82.12 4.13
6 0 -6 68.75 3.11
-6 0 6 78.68 4.04
-6 0 5 -0.18 0.55
-6 0 5 0.09 0.5
-6 0 5 0.06 0.36
-6 0 5 0.34 0.56
-6 0 5 0.17 0.52
6 0 -5 0.4 0.41
-6 0 5 0.09 0.39
-6 0 5 -0.09 0.41
-6 0 4 663.13 14.64
-6 0 4 640.93 14.74
-6 0 4 645.88 14.4
-6 0 4 622.47 12.72
-6 0 4 632.8 14.28
-6 0 4 656.05 14.47
-6 0 4 653.41 14.73
-6 0 4 650.74 14.65
-6 0 3 0.26 0.47
-6 0 3 0.73 0.62
-6 0 3 0.27 0.31
-6 0 3 0.24 0.37
-6 0 3 0.26 0.58
-6 0 3 0.24 0.41
6 0 -3 0.37 0.42
-6 0 3 0.18 0.5
-6 0 3 0.43 0.47
-6 0 2 3891.68 67.22
-6 0 2 3835.56 67.51
-6 0 2 3776.34 66.69
-6 0 2 3974.55 66.99
-6 0 2 4118.96 67.67
6 0 -2 4387.34 67.09
-6 0 2 3899.88 67.11
-6 0 2 4124.2 67.24
-6 0 1 0.99 0.5
-6 0 1 1.37 0.55
-6 0 1 1.28 0.52
-6 0 1 0.29 0.51
-6 0 1 0.22 0.39
-6 0 1 0.27 0.59
-6 0 1 -0.08 0.44
6 0 -1 0.24 0.53
-6 0 1 0.92 0.42
-6 0 0 9.66 1.33
-6 0 0 7.54 1.44
-6 0 0 9.74 1.4
-6 0 0 9.64 1.27
-6 0 0 7.83 1.16
-6 0 0 8.37 1.02
-6 0 0 9.38 1.45
-6 0 0 8.93 1.11
6 0 0 9.41 1.35
-6 0 0 8.09 1.22
-6 0 -1 -0.06 0.32
-6 0 -1 0.68 0.73
-6 0 -1 0.24 0.54
-6 0 -1 0.86 0.57
-6 0 -1 0.09 0.49
-6 0 -1 -0.05 0.29
-6 0 -1 0.09 0.55
-6 0 -1 0.91 0.63
-6 0 -1 1.46 0.67
6 0 1 0.17 0.38
-6 0 -1 0.58 0.67
-6 0 -1 -0.17 0.4
-6 0 -2 3.67 0.86
-6 0 -2 1.23 0.66
-6 0 -2 1.63 0.69
-6 0 -2 2.12 0.78
-6 0 -2 2.31 0.76
-6 0 -2 1.55 0.74
-6 0 -2 1.9 0.68
-6 0 -2 2.17 0.6
-6 0 -2 2.66 1.03
-6 0 -2 1.78 0.71
-6 0 -3 0.05 0.31
-6 0 -3 0.7 0.86
-6 0 -3 0.16 0.49
-6 0 -3 0.28 0.59
-6 0 -3 0.21 0.45
-6 0 -3 -0.08 0.46
-6 0 -3 -0.16 0.54
-6 0 -3 0.5 0.51
6 0 3 -0.15 0.33
-6 0 -3 0.08 0.39
-6 0 -3 0.1 0.57
-6 0 -4 26.44 2.28
-6 0 -4 28.3 2.09
-6 0 -4 30.13 2.15
-6 0 -4 29.44 2.17
-6 0 -4 27.75 2.14
-6 0 -4 30.62 1.77
-6 0 -4 29.22 2.24
-6 0 -4 25.63 2.54
-6 0 -4 28.19 2.42
-6 0 -5 0.61 0.53
-6 0 -5 -0.2 0.46
-6 0 -5 0.17 0.3
-6 0 -5 -0.08 0.5
-6 0 -5 -0.11 0.76
-6 0 -5 0.18 0.61
-6 0 -5 -0.12 0.37
-6 0 -5 0.12 0.34
-6 0 -6 169.77 5.37
-6 0 -6 161.17 4.39
-6 0 -6 164.19 6.33
-6 0 -6 174.14 6.05
-6 0 -7 -0.17 0.64
-6 0 -7 0.21 0.47
-6 0 -8 11.26 1.28
-6 0 -8 15.5 1.35
-6 0 -9 -0.17 0.34
-6 0 -9 0.11 0.24
-6 1 11 59.6 2.38
-6 1 11 58.63 2.47
6 1 -11 65 2.26
6 1 -11 58.87 2.22
-6 1 11 60.37 2.43
-6 1 11 58.44 2.37
-6 1 10 49.19 2.49
-6 1 10 50.62 2.62
6 1 -10 56.04 2.39
-6 1 10 50.12 2.55
-6 1 10 50.71 2.55
-6 1 10 51.07 2.21
6 1 -9 7.46 1
-6 1 9 5.95 1.04
-6 1 9 6.73 1.08
-6 1 9 8.02 0.97
-6 1 9 6.47 1.01
-6 1 8 24.28 2.08
-6 1 8 25.47 1.76
-6 1 8 22.19 1.96
-6 1 8 24.27 2
-6 1 7 88.46 4.29
-6 1 7 100.59 3.72
-6 1 7 88.06 4.13
-6 1 7 97.73 4.28
-6 1 6 17.75 1.82
-6 1 6 18.65 1.52
-6 1 6 16.44 1.77
-6 1 6 18.39 1.9
-6 1 6 17.51 1.88
-6 1 6 17.16 1.83
-6 1 5 200.63 6.76
-6 1 5 206.97 6.72
-6 1 5 215.39 5.76
-6 1 5 212.67 6.89
-6 1 5 212.1 7.04
6 1 -5 194.89 5.99
-6 1 5 200.19 6.86
-6 1 5 208.54 6.97
-6 1 4 27.18 2.27
-6 1 4 29.46 2.31
-6 1 4 29.16 2.29
-6 1 4 25.58 1.64
-6 1 4 27.35 2.34
6 1 -4 28.22 2.06
-6 1 4 27.27 2.28
-6 1 4 25.65 2.2
-6 1 3 13.33 1.58
-6 1 3 12.41 1.5
-6 1 3 13.38 1.54
-6 1 3 10.18 1.45
6 1 -3 10.99 1.36
-6 1 3 11.66 1.49
-6 1 3 11.6 1.49
-6 1 2 677.11 15.1
-6 1 2 676.62 14.84
-6 1 2 659.05 14.83
-6 1 2 698.35 15.6
6 1 -2 726.95 15.04
-6 1 2 687.62 15.16
-6 1 2 662.96 15.03
-6 1 1 370.96 9.01
-6 1 1 390.17 9.73
-6 1 1 332.41 9.06
-6 1 1 371.91 9.38
-6 1 1 341.25 9.75
-6 1 1 331.12 8.43
6 1 -1 366.4 9.37
-6 1 1 384.5 9.71
-6 1 0 560.61 12.51
-6 1 0 553.56 13.15
-6 1 0 600.66 14.88
-6 1 0 601.3 13.82
-6 1 0 617.66 13.13
-6 1 0 546.97 12.79
-6 1 0 588.15 12.29
-6 1 0 641.04 13.96
6 1 0 585.59 13.15
-6 1 0 580.23 13.25
-6 1 -1 3.73 0.78
-6 1 -1 3.1 1.05
-6 1 -1 4.13 0.93
-6 1 -1 3.66 1
-6 1 -1 3.04 0.82
-6 1 -1 2.82 0.86
-6 1 -1 3.28 0.68
-6 1 -1 2.76 0.82
-6 1 -1 3.76 0.86
6 1 1 2.71 0.75
-6 1 -1 3.22 0.96
-6 1 -1 6.46 1.12
-6 1 -2 26.72 2.13
-6 1 -2 26.2 2.57
-6 1 -2 26.06 2
-6 1 -2 23.67 1.92
-6 1 -2 26.07 2.26
-6 1 -2 27.73 2.18
-6 1 -2 26.31 2.11
-6 1 -2 26.76 1.9
-6 1 -2 24.14 1.62
6 1 2 23.87 1.94
-6 1 -2 24.94 2.29
-6 1 -2 28.36 2.2
-6 1 -3 337.32 9.4
-6 1 -3 345.61 8.73
-6 1 -3 347.8 8.76
-6 1 -3 345.9 9.82
-6 1 -3 315.55 8.81
-6 1 -3 348.01 9.17
-6 1 -3 305.73 9.95
-6 1 -3 360.55 9.09
-6 1 -3 350.48 8.8
-6 1 -3 336.32 8.24
-6 1 -3 333.78 7.59
-6 1 -4 2.72 0.84
-6 1 -4 1.77 0.43
-6 1 -4 2.04 0.65
-6 1 -4 2.32 0.71
-6 1 -4 2.91 0.66
-6 1 -4 2.1 0.75
-6 1 -4 2.84 1.1
-6 1 -4 2.09 0.77
-6 1 -4 3.37 0.81
-6 1 -5 0.8 0.55
-6 1 -5 1.14 0.49
-6 1 -5 3.2 0.86
-6 1 -5 0.97 0.86
-6 1 -5 1.26 0.71
-6 1 -6 314.97 7.12
-6 1 -6 340.15 8.34
-6 1 -6 264.93 8.59
-6 1 -6 293.34 8.37
-6 1 -6 308.7 7.79
-6 1 -7 10.8 1.27
-6 1 -7 9.14 0.87
-6 1 -7 10.16 1.38
-6 1 -8 3.2 0.66
-6 1 -8 2.9 0.43
-6 1 -8 3.75 0.8
-6 1 -9 20.08 1.29
-6 2 11 1.99 0.42
-6 2 11 2.29 0.44
6 2 -11 1.29 0.34
-6 2 11 2.28 0.4
-6 2 11 1.99 0.43
6 2 -11 1.96 0.39
-6 2 11 1.78 0.41
-6 2 10 183.53 5.07
-6 2 10 180.82 5.2
-6 2 10 172.91 4.6
-6 2 10 184.44 5.09
-6 2 10 185.47 5.13
6 2 -10 175.49 4.66
-6 2 9 0.4 0.47
-6 2 9 0.06 0.39
6 2 -9 0.39 0.38
-6 2 9 0.05 0.31
-6 2 9 0.31 0.43
-6 2 9 -0.06 0.41
-6 2 8 135.18 4.77
-6 2 8 128.84 4.87
6 2 -8 117.87 4.22
-6 2 8 122.52 4.07
-6 2 8 131.25 4.76
-6 2 8 117.68 4.58
-6 2 7 29.26 2.27
-6 2 7 30.76 1.9
-6 2 7 30.28 2.26
-6 2 7 27.13 2.12
-6 2 7 30.38 2.27
-6 2 6 466.27 11.53
-6 2 6 446.85 9.95
-6 2 6 483.64 11.38
-6 2 6 475.17 11.38
-6 2 6 452.66 11.11
-6 2 5 41.5 2.73
-6 2 5 45.62 2.8
-6 2 5 41.57 2.14
-6 2 5 42.97 2.74
-6 2 5 45.93 2.95
6 2 -5 38.74 2.34
-6 2 5 43.15 2.86
-6 2 5 41.43 2.78
-6 2 4 901.46 18.88
-6 2 4 965.97 19.15
-6 2 4 948.96 19.57
-6 2 4 910.7 19.34
-6 2 4 967.46 19.38
-6 2 4 995.74 19.48
-6 2 3 266.23 7.68
-6 2 3 262 7.45
-6 2 3 267.24 7.56
-6 2 3 261.27 7.91
6 2 -3 247.56 7.19
-6 2 3 242.73 7.49
-6 2 3 255.95 7.62
-6 2 2 126.75 4.91
-6 2 2 120.82 4.65
-6 2 2 137.63 4.92
-6 2 2 127.09 5.15
-6 2 2 117.29 4.41
6 2 -2 138.11 4.92
-6 2 2 129.39 4.99
-6 2 2 137.17 5.07
-6 2 1 254.19 7.25
-6 2 1 256.88 7.47
-6 2 1 267.53 7.29
-6 2 1 260.63 7.29
-6 2 1 245.87 7.65
-6 2 1 231.83 6.74
6 2 -1 264.39 7.39
-6 2 1 262.12 7.54
-6 2 0 611.6 13.06
-6 2 0 579.72 13.02
-6 2 0 566.32 12.78
-6 2 0 583.56 12.81
-6 2 0 624.57 13.66
-6 2 0 577.42 12.41
6 2 0 618.62 13.2
-6 2 0 564.35 13.17
-6 2 -1 19.66 1.79
-6 2 -1 17.19 2.08
-6 2 -1 19.49 1.68
-6 2 -1 15.62 1.53
-6 2 -1 16.63 1.78
-6 2 -1 13.44 1.43
-6 2 -1 16.25 1.43
6 2 1 18.4 1.66
-6 2 -1 16.64 1.69
-6 2 -2 20.7 1.95
-6 2 -2 19.46 1.67
-6 2 -2 17.77 1.61
-6 2 -2 20.91 1.55
-6 2 -2 19.53 1.68
-6 2 -2 17.34 1.69
-6 2 -2 16.33 2.07
-6 2 -2 18.95 1.98
-6 2 -2 17.46 1.7
-6 2 -3 12.81 1.57
-6 2 -3 13.48 1.4
-6 2 -3 14.39 1.44
-6 2 -3 13.77 1.37
-6 2 -3 10.74 1.08
-6 2 -3 14.18 1.51
-6 2 -3 12.59 1.81
-6 2 -3 10.31 1.52
-6 2 -4 2.69 0.71
-6 2 -4 2.03 0.49
-6 2 -4 2.37 0.66
-6 2 -4 2.24 0.62
-6 2 -4 2.8 0.99
-6 2 -4 2.53 0.79
-6 2 -4 1.98 0.8
-6 2 -5 6.28 0.98
-6 2 -5 7.27 0.93
-6 2 -5 7.52 0.79
-6 2 -5 5.72 0.89
-6 2 -5 7.98 1.2
-6 2 -5 6.49 1.36
-6 2 -5 7.44 1.22
-6 2 -6 80.73 3.28
-6 2 -6 82.39 3.06
-6 2 -6 87.04 3.82
-6 2 -6 89.97 3.54
-6 2 -6 81.1 4.01
-6 2 -7 5.17 0.69
-6 2 -7 5.14 0.9
-6 2 -7 5.13 1.01
-6 2 -8 11.79 0.88
-6 2 -8 11.1 1.13
-6 2 -8 11.19 1.03
-6 3 10 2 0.43
-6 3 10 1.6 0.39
6 3 -10 1.59 0.36
-6 3 10 2.25 0.43
-6 3 10 1.71 0.42
6 3 -10 1.53 0.36
-6 3 10 1.69 0.45
6 3 -10 1.59 0.38
-6 3 9 14.31 1.13
-6 3 9 17.49 1.37
6 3 -9 13.78 1.11
-6 3 9 14.9 1.26
-6 3 9 16.55 1.38
-6 3 9 16.01 1.32
-6 3 8 92.37 3.27
-6 3 8 94.9 3.68
6 3 -8 92.02 3.38
-6 3 8 96.01 3.84
-6 3 8 101.11 3.8
-6 3 8 99.56 3.75
-6 3 7 330.17 7.81
-6 3 7 364.54 8.82
-6 3 7 350.77 8.71
-6 3 7 364.39 9.07
-6 3 7 341.37 8.72
-6 3 6 3.07 0.61
-6 3 6 3.66 0.82
-6 3 6 2.71 0.72
-6 3 6 2.94 0.77
-6 3 6 3.3 0.83
-6 3 5 122.57 4.58
-6 3 5 112.68 4.62
-6 3 5 111.74 3.63
-6 3 5 124.84 4.62
-6 3 5 123.63 4.66
-6 3 4 44.12 2.68
-6 3 4 40.25 2.66
-6 3 4 45.27 2.63
-6 3 4 45.57 2.65
-6 3 4 38.15 2.39
6 3 -4 42.77 2.49
-6 3 4 41.99 2.66
-6 3 4 43.06 2.67
-6 3 3 2.34 0.74
-6 3 3 4.01 0.93
-6 3 3 2.39 0.69
-6 3 3 3.38 0.79
-6 3 3 4.02 0.84
6 3 -3 2.09 0.62
-6 3 3 3.2 0.8
-6 3 3 2.37 0.69
-6 3 2 123.03 4.63
-6 3 2 121.62 4.45
-6 3 2 121.24 4.45
-6 3 2 125.71 4.91
6 3 -2 121.23 4.51
-6 3 2 121.77 4.67
-6 3 2 118.36 4.13
-6 3 1 6.12 0.98
-6 3 1 6.19 0.99
-6 3 1 6.14 0.93
-6 3 1 6.96 1.1
-6 3 1 4.87 0.9
6 3 -1 6.71 1.03
-6 3 1 4.67 0.93
-6 3 0 357.14 8.92
-6 3 0 359.5 8.63
-6 3 0 359.06 8.63
-6 3 0 326.33 9.04
-6 3 0 331.37 8.38
6 3 0 350.54 8.61
-6 3 0 342.94 8.89
-6 3 -1 1394.66 26.16
-6 3 -1 1425.1 25.14
-6 3 -1 1399.74 25.09
-6 3 -1 1371.21 25.54
-6 3 -1 1379.14 25.06
-6 3 -1 1421.18 25.57
-6 3 -1 1311.87 25.49
-6 3 -2 328.5 8.03
-6 3 -2 318.44 7.93
-6 3 -2 331.76 7.85
-6 3 -2 329.59 8.34
-6 3 -2 316.45 9.48
-6 3 -2 306.89 8.55
-6 3 -3 56.8 3.1
-6 3 -3 55.99 2.73
-6 3 -3 55.44 2.81
-6 3 -3 54.91 2.54
-6 3 -3 53.39 2.68
-6 3 -3 62.29 3.04
-6 3 -3 52.89 3.39
-6 3 -3 51.25 3.11
-6 3 -4 490.53 10.95
-6 3 -4 509.18 10.48
-6 3 -4 532.4 11.15
-6 3 -4 501.13 10.99
-6 3 -4 470.79 12.33
-6 3 -4 521.75 12.13
-6 3 -5 40.74 2.21
-6 3 -5 45.02 2.27
-6 3 -5 43.41 1.96
-6 3 -5 42.48 2.59
-6 3 -5 46.69 2.47
-6 3 -5 39.97 2.71
-6 3 -6 59 2.48
-6 3 -6 57.18 2.13
-6 3 -6 55.64 2.75
-6 3 -6 51.74 2.86
-6 3 -7 4.09 0.62
-6 3 -7 3.79 0.66
-6 3 -7 4.4 0.78
-6 3 -8 96.86 2.73
6 4 -10 81.82 2.31
-6 4 10 85.32 2.36
-6 4 9 -0.03 0.06
-6 4 9 25.92 1.27
6 4 -9 26.53 1.36
-6 4 9 23.98 1.24
-6 4 9 0.03 0.09
-6 4 8 0.82 0.34
-6 4 8 0.16 0.25
-6 4 8 0.67 0.36
-6 4 8 0.04 0.18
-6 4 8 0.37 0.34
-6 4 8 0.14 0.32
-6 4 7 31.94 1.69
-6 4 7 36.21 1.97
-6 4 7 31.7 1.83
-6 4 7 36.05 2
6 4 -7 30.27 1.71
-6 4 7 34.94 1.95
-6 4 7 36.14 2.08
-6 4 6 111.61 3.81
-6 4 6 104.28 3.71
-6 4 6 106.79 3.83
-6 4 6 105.66 3.8
-6 4 6 111.24 4.02
-6 4 5 133.23 4.37
-6 4 5 131.22 4.35
-6 4 5 131.6 4.53
-6 4 5 130.9 4.44
-6 4 5 135.75 4.67
-6 4 4 306.5 7.52
-6 4 4 301.56 7.5
-6 4 4 310.06 7.85
-6 4 4 299.6 7.64
-6 4 4 296.35 7.88
-6 4 3 63.54 2.83
-6 4 3 62.2 2.82
-6 4 3 60.75 2.99
-6 4 3 57.02 2.81
-6 4 3 60.59 3.05
-6 4 2 68.9 3.23
-6 4 2 60.85 2.78
-6 4 2 60.22 2.75
-6 4 2 62.19 2.99
-6 4 2 61.84 3.17
-6 4 2 64.33 2.97
-6 4 2 61.9 3.01
-6 4 1 2.98 0.77
-6 4 1 2.54 0.57
-6 4 1 3.23 0.63
-6 4 1 2.04 0.68
-6 4 1 2.42 0.6
-6 4 1 3.09 0.67
-6 4 0 242.24 6.81
-6 4 0 237.96 6.21
-6 4 0 237.17 6.25
-6 4 0 247.14 7.01
-6 4 0 249.1 6.58
-6 4 0 220.54 6.18
-6 4 -1 30.34 1.84
-6 4 -1 27.01 1.74
-6 4 -1 28.95 2.07
-6 4 -1 29.24 1.93
-6 4 -1 31.87 2.01
-6 4 -1 26.98 1.99
-6 4 -2 1.87 0.55
-6 4 -2 1.76 0.58
-6 4 -2 1.55 0.49
-6 4 -2 1.14 0.52
-6 4 -2 2.08 0.61
-6 4 -2 1.8 0.61
-6 4 -3 13.8 1.23
-6 4 -3 11.63 1.12
-6 4 -3 10.19 1.05
-6 4 -3 14.62 1.36
-6 4 -4 6.31 0.81
-6 4 -4 5.49 0.77
-6 4 -4 6.01 0.86
-6 4 -5 18.3 1.24
-6 4 -6 8.15 0.77
-6 4 -7 13.45 0.96
-6 4 -7 9.37 0.66
-6 4 -8 339.65 6.49
6 5 -9 354 7.04
-6 5 8 10.2 0.77
-6 5 8 0.02 0.08
6 5 -7 189.83 4.98
-6 5 7 180.39 4.66
-6 5 6 8.38 0.93
-6 5 5 227.11 5.97
-6 5 4 39.71 2.37
-6 5 4 39.98 2.2
-6 5 3 30.95 2.1
-6 5 3 30.45 2.09
-6 5 3 29.98 1.96
6 5 -2 0.21 0.26
-6 5 2 0.19 0.37
-6 5 2 0.32 0.39
-6 5 2 0.12 0.37
-6 5 1 35.32 2.24
-6 5 1 38.78 2.37
-6 5 1 35.12 2.16
-6 5 0 53.42 2.7
-6 5 0 60.82 2.95
-6 5 0 62.55 2.86
-6 5 -1 53.49 2.54
-6 5 -1 57.02 2.82
-6 5 -2 -0.06 0.44
-6 5 -3 186.37 5.28
-6 5 -3 192.59 5.13
-6 5 -4 223.82 5.63
-6 5 -4 211.67 5.34
-6 5 -5 39.43 1.88
-6 5 -5 38.66 1.77
-6 5 -6 322.63 6.69
-6 5 -6 308.34 6.39
-6 5 -7 139.36 3.37
-6 6 8 93.7 2.5
6 6 -8 113.74 2.92
-6 6 7 9.64 0.82
6 6 -7 10.91 0.9
-6 6 6 18.84 1.27
6 6 -6 20.05 1.31
-6 6 6 18.14 1.1
-6 6 5 30.65 1.76
6 6 -5 31.68 1.7
-6 6 5 31.62 1.63
-6 6 4 133.39 4.21
6 6 -4 140.82 4.03
-6 6 4 135.41 4.02
6 6 -3 1.52 0.42
-6 6 3 1.9 0.58
-6 6 3 1.37 0.57
-6 6 3 1.24 0.5
-6 6 2 164.29 5.27
-6 6 2 175.89 5.1
-6 6 1 7.4 0.99
-6 6 1 8.84 1.04
-6 6 1 9.44 1.03
-6 6 0 48.06 2.45
-6 6 0 56.06 2.57
-6 6 0 55.11 2.46
-6 6 -1 58.52 2.55
-6 6 -1 62.03 2.57
-6 6 -2 0.49 0.36
-6 6 -2 0.04 0.17
-6 6 -3 70.97 2.62
-6 6 -4 23.52 1.33
-6 6 -5 0.37 0.25
-6 6 -5 0.11 0.25
-6 6 -6 253.33 5.17
-6 6 -6 276.26 5.32
6 7 -6 25.81 1.29
6 7 -5 7.27 0.71
-6 7 5 7.5 0.64
-6 7 4 0.76 0.3
6 7 -4 0.15 0.23
-6 7 4 0.13 0.21
-6 7 3 51.24 2.02
-6 7 3 51.79 1.96
-6 7 2 4.51 0.61
-6 7 2 3.33 0.66
-6 7 2 3.19 0.56
-6 7 1 24.13 1.36
-6 7 1 26.35 1.43
-6 7 0 2.49 0.49
-6 7 0 2.51 0.56
-6 7 0 1.88 0.44
-6 7 -1 20.29 1.3
-6 7 -1 20.67 1.24
-6 7 -1 21.53 1.23
-6 7 -2 8.58 0.74
-6 7 -2 8.22 0.76
-6 7 -3 507.73 9.24
-6 7 -3 495.71 9.42
-6 7 -4 8.85 0.63
-6 7 -4 9.28 0.7
-6 8 1 7.84 0.57
-6 8 0 56.32 1.72
-6 8 -1 460.68 8.27
-6 8 -2 150.11 3.26
-7 -6 5 184.12 4.3
7 -6 -5 194.58 4.33
-7 -6 4 2.47 0.45
7 -6 -4 2.21 0.44
-7 -6 3 157.2 4.04
-7 -6 2 52.66 2.04
-7 -6 2 48.91 1.89
-7 -6 1 205.53 4.77
-7 -6 1 194.13 4.91
-7 -6 0 12.07 0.88
-7 -6 0 10.94 1
-7 -6 -1 178.44 4.74
-7 -6 -1 184.47 4.77
-7 -6 -2 136.39 3.73
-7 -6 -2 119.8 3.58
-7 -6 -3 24.41 1.29
-7 -5 7 3 0.44
7 -5 -7 2.96 0.41
7 -5 -7 3.09 0.39
-7 -5 6 11.61 0.91
7 -5 -6 12.03 0.78
-7 -5 5 23.07 1.37
7 -5 -5 21.57 1.33
7 -5 -5 23.87 1.14
-7 -5 4 2.38 0.51
7 -5 -4 3.25 0.44
-7 -5 3 3.21 0.57
-7 -5 3 4.65 0.67
-7 -5 2 24.87 1.65
-7 -5 2 24.64 1.49
-7 -5 1 73.13 3.09
-7 -5 1 72.26 2.66
-7 -5 0 2.21 0.66
-7 -5 0 2.5 0.68
-7 -5 0 2.2 0.46
-7 -5 -1 310.76 6.02
-7 -5 -1 334.69 6.37
-7 -5 -2 24.2 1.69
-7 -5 -2 22.29 1.65
-7 -5 -3 0.19 0.31
-7 -5 -4 1.36 0.39
7 -4 -9 147.02 3.08
7 -4 -8 64.74 1.96
-7 -4 8 63.72 2.08
7 -4 -7 2.85 0.45
7 -4 -7 1.78 0.38
-7 -4 7 2.06 0.45
7 -4 -6 491.69 5.99
7 -4 -6 545.66 5.73
-7 -4 6 119.17 2.82
-7 -4 6 505.15 5.59
-7 -4 6 526.27 6.47
7 -4 -5 246.63 5.52
-7 -4 5 251.1 5.96
-7 -4 5 248.13 5.81
-7 -4 5 255.68 6.1
-7 -4 4 0.54 0.35
-7 -4 4 0.23 0.3
-7 -4 4 0.46 0.39
7 -4 -4 0.18 0.27
-7 -4 4 0.13 0.3
-7 -4 3 242.88 5.87
-7 -4 3 255.72 6.67
-7 -4 3 242.11 6.27
-7 -4 3 257.98 6.17
-7 -4 3 252.34 6.16
-7 -4 2 2.28 0.72
-7 -4 2 1.58 0.45
-7 -4 2 1.52 0.45
-7 -4 2 2.11 0.53
-7 -4 2 2.67 0.53
-7 -4 1 288.7 6.59
-7 -4 1 292.99 6.68
-7 -4 1 301.98 8
-7 -4 1 312.78 8.33
-7 -4 1 276.02 6.69
-7 -4 1 310.1 7.29
-7 -4 1 306.96 6.97
-7 -4 0 10.18 0.93
-7 -4 0 9.78 1.31
-7 -4 0 9.82 1.27
-7 -4 0 10.73 1.07
-7 -4 0 9.88 0.98
-7 -4 -1 48.51 2.03
-7 -4 -1 49.93 2.18
-7 -4 -1 46.19 2.7
-7 -4 -1 50.96 2.87
-7 -4 -2 71.42 2.61
-7 -4 -2 60.55 3.12
-7 -4 -3 0.09 0.14
-7 -4 -3 7.31 0.98
-7 -4 -4 162.81 4.7
-7 -4 -4 182.73 5.09
-7 -4 -5 324.45 6.62
-7 -4 -5 323.22 7.04
7 -3 -9 3.8 0.44
-7 -3 8 83.75 2.56
-7 -3 8 77.66 2.58
7 -3 -8 82.7 2.56
-7 -3 8 82.54 2.59
-7 -3 8 85.39 2.79
-7 -3 8 86.72 2.74
-7 -3 7 3.24 0.57
-7 -3 7 2.7 0.55
7 -3 -7 3.64 0.61
-7 -3 7 3.43 0.57
7 -3 -7 2.89 0.47
-7 -3 7 3.76 0.68
-7 -3 7 3.12 0.59
-7 -3 6 293.66 6.89
-7 -3 6 288.14 6.7
-7 -3 6 301.39 6.98
-7 -3 6 311.07 7.42
-7 -3 6 297.02 7.15
-7 -3 5 3.69 0.69
-7 -3 5 3.07 0.66
-7 -3 5 2.98 0.6
-7 -3 5 3.66 0.82
-7 -3 5 3 0.7
-7 -3 4 30.89 1.92
-7 -3 4 31.51 1.96
-7 -3 4 30.78 2
-7 -3 4 31.3 1.81
-7 -3 4 34.66 2.26
-7 -3 4 34.25 2.13
-7 -3 3 23.43 1.69
-7 -3 3 22.78 1.68
-7 -3 3 22.59 1.85
-7 -3 3 20.46 1.45
-7 -3 3 24.23 1.93
-7 -3 3 22.6 1.78
-7 -3 2 21.83 1.64
-7 -3 2 19.8 1.59
-7 -3 2 20.21 1.38
-7 -3 2 21.11 1.87
-7 -3 2 20.17 1.76
-7 -3 2 21.49 1.73
-7 -3 1 0.99 0.44
-7 -3 1 1.75 0.77
-7 -3 1 0.8 0.57
-7 -3 1 1.75 0.54
-7 -3 1 1 0.52
-7 -3 0 8.2 1
-7 -3 0 7.48 1.25
-7 -3 0 7.77 1.28
-7 -3 0 8.28 1
-7 -3 0 7.43 1.12
-7 -3 0 9.16 1.14
-7 -3 -1 10.68 1.1
-7 -3 -1 9.61 1.35
-7 -3 -1 8.99 1.03
-7 -3 -1 8.81 1.16
-7 -3 -1 9.49 1.1
-7 -3 -2 389.09 8.67
-7 -3 -2 383.14 8.59
-7 -3 -2 374.07 9.84
-7 -3 -3 154.91 4.5
-7 -3 -3 160.38 5.26
-7 -3 -3 163.09 5.45
-7 -3 -3 161.43 4.57
-7 -3 -4 8.03 1.01
-7 -3 -4 8.3 1.06
-7 -3 -4 9.43 0.9
-7 -3 -5 0.56 0.35
-7 -3 -5 0.4 0.31
-7 -2 9 24.29 1.31
7 -2 -9 22.33 1.23
-7 -2 9 25.11 1.34
-7 -2 9 23.7 1.4
-7 -2 9 23.7 1.36
-7 -2 8 217.21 5.51
7 -2 -8 221.2 5.38
-7 -2 8 220.22 5.81
-7 -2 8 212.67 5.62
-7 -2 8 212.67 5.47
-7 -2 7 93.72 3.48
-7 -2 7 92.82 3.48
-7 -2 7 97.46 3.79
-7 -2 7 96.48 3.66
-7 -2 6 0.53 0.44
-7 -2 6 0.21 0.47
-7 -2 6 0.52 0.43
-7 -2 6 0.72 0.47
-7 -2 5 6.91 1.04
-7 -2 5 5.11 0.91
-7 -2 5 5.25 0.74
-7 -2 5 4.47 0.97
-7 -2 5 5.15 0.98
-7 -2 4 431.7 9.8
-7 -2 4 418.57 9.79
-7 -2 4 404.2 9.78
-7 -2 4 415.03 10.35
-7 -2 4 415.17 9.98
-7 -2 3 521.39 11.39
-7 -2 3 524.42 11.93
-7 -2 3 513.2 11.51
-7 -2 3 497.28 11.95
-7 -2 3 522.81 11.79
-7 -2 2 48.85 2.66
-7 -2 2 45.34 2.88
-7 -2 2 46.38 2.64
-7 -2 2 45.11 2.88
-7 -2 2 51.13 2.89
-7 -2 1 81.26 3.51
-7 -2 1 78.79 3.93
-7 -2 1 80.61 4.17
-7 -2 1 88.71 3.68
-7 -2 1 78.34 3.85
-7 -2 1 84.02 3.77
-7 -2 0 12.14 1.29
-7 -2 0 10.06 1.19
-7 -2 0 10.25 1.48
-7 -2 0 13.48 1.57
-7 -2 0 11.6 1.35
-7 -2 -1 4.05 0.79
-7 -2 -1 3.93 0.78
-7 -2 -1 3.92 0.93
-7 -2 -1 3.19 0.78
-7 -2 -2 1.57 0.56
-7 -2 -2 1.48 0.71
-7 -2 -2 2.63 0.84
-7 -2 -2 1.6 0.59
-7 -2 -2 1.67 0.7
-7 -2 -2 0.73 0.5
-7 -2 -3 202.04 5.66
-7 -2 -3 197.24 5.61
-7 -2 -3 192.99 6.06
-7 -2 -3 197.46 6.25
-7 -2 -4 68.3 2.79
-7 -2 -4 65.54 2.92
-7 -2 -4 69.51 3.1
-7 -2 -4 66.03 2.78
-7 -2 -5 1.53 0.46
-7 -2 -5 1.58 0.45
-7 -2 -5 1.12 0.43
-7 -2 -5 1.82 0.52
-7 -1 10 42.63 1.64
7 -1 -10 41.07 1.55
-7 -1 10 40.12 1.61
-7 -1 10 42.98 1.76
-7 -1 10 39.57 1.65
-7 -1 9 3.35 0.58
-7 -1 9 2.16 0.51
7 -1 -9 2.94 0.53
-7 -1 9 2.44 0.59
-7 -1 9 3.24 0.61
-7 -1 8 211.02 5.79
7 -1 -8 219.58 5.62
-7 -1 8 215.8 6.07
-7 -1 8 223.14 5.99
-7 -1 8 213.25 5.79
-7 -1 7 12.15 1.29
-7 -1 7 13.52 1.44
-7 -1 7 13.62 1.42
-7 -1 7 15.04 1.42
-7 -1 6 303.34 8
-7 -1 6 293.32 8.27
-7 -1 6 321.38 8.33
-7 -1 6 309.28 8.13
-7 -1 5 23.16 1.9
-7 -1 5 21.83 2
-7 -1 5 22.94 1.98
-7 -1 5 22.33 1.89
-7 -1 4 574.68 12.88
-7 -1 4 585.74 13.04
-7 -1 4 595.92 13.7
-7 -1 4 566.1 11.64
-7 -1 4 621.18 13.51
-7 -1 3 565.71 12.66
-7 -1 3 538.21 11.46
-7 -1 3 595.33 13.28
-7 -1 3 558.5 12.74
-7 -1 3 587.56 13.54
-7 -1 3 556.96 11.38
-7 -1 3 586.77 13.1
-7 -1 2 17.5 1.62
-7 -1 2 16.21 1.3
-7 -1 2 17.49 1.83
-7 -1 2 18.62 1.69
-7 -1 2 17.49 1.83
-7 -1 2 18.68 1.78
-7 -1 1 1046.03 20.42
-7 -1 1 1097.66 21.55
-7 -1 1 1014.51 20.37
-7 -1 1 1018.97 21.16
-7 -1 1 1092.24 21.05
-7 -1 0 681.35 14.39
-7 -1 0 705.93 15.35
-7 -1 0 704.74 15.61
-7 -1 0 689.95 14.45
-7 -1 0 642.89 15.12
-7 -1 0 660.33 14.68
-7 -1 -1 39.54 2.41
-7 -1 -1 39.91 2.7
-7 -1 -1 42.58 2.87
-7 -1 -1 42.29 2.51
-7 -1 -1 44.33 2.89
-7 -1 -1 45.56 2.75
-7 -1 -2 453.86 10.41
-7 -1 -2 440.21 10.96
-7 -1 -2 465.25 11.24
-7 -1 -2 447.56 10.4
-7 -1 -2 454.26 11.22
-7 -1 -2 488.5 10.98
-7 -1 -3 33.96 2.1
-7 -1 -3 31.56 2.19
-7 -1 -3 36.91 2.38
-7 -1 -3 34.62 2.13
-7 -1 -3 31.83 2.33
-7 -1 -3 36.15 2.31
-7 -1 -3 34.02 2.63
-7 -1 -4 263.23 6.78
-7 -1 -4 265.17 6.86
-7 -1 -4 269.44 6.91
-7 -1 -4 265.41 6.83
-7 -1 -4 252.14 7.71
-7 -1 -5 13.97 1.22
-7 -1 -5 17.84 1.43
-7 -1 -5 15.03 1.55
-7 -1 -6 4.43 0.82
-7 0 10 0.09 0.22
-7 0 10 -0.03 0.23
7 0 -10 0.08 0.19
-7 0 10 0.17 0.28
-7 0 10 0.06 0.25
-7 0 9 192.47 4.57
-7 0 9 194.27 5.13
7 0 -9 194.59 4.89
-7 0 9 201.64 5.2
-7 0 9 200.18 5.4
-7 0 9 197.56 5.26
-7 0 8 0.69 0.33
-7 0 8 -0.11 0.37
-7 0 8 0.06 0.31
7 0 -8 0.18 0.27
-7 0 8 0.12 0.46
-7 0 8 -0.06 0.39
-7 0 7 52.12 2.77
-7 0 7 60.41 2.41
-7 0 7 58.31 2.91
-7 0 7 58.39 3.08
-7 0 7 59.79 3.01
-7 0 6 -0.04 0.27
-7 0 6 0.14 0.49
-7 0 6 -0.07 0.46
-7 0 6 -0.08 0.48
-7 0 6 0.15 0.47
-7 0 5 53.4 3
-7 0 5 58.03 3.07
-7 0 5 54.42 3.23
-7 0 5 54.77 3.12
-7 0 4 -0.08 0.53
-7 0 4 0.45 0.55
-7 0 4 0.53 0.52
-7 0 4 0.57 0.56
-7 0 3 94.24 4.24
-7 0 3 94.55 4.14
-7 0 3 93.87 3.61
-7 0 3 100.5 4.65
-7 0 3 98.09 3.7
-7 0 3 102.5 4.47
-7 0 2 0.59 0.48
-7 0 2 0.64 0.41
-7 0 2 0.52 0.71
-7 0 2 0.89 0.55
-7 0 2 0.36 0.42
-7 0 2 0.5 0.44
-7 0 2 0.57 0.48
-7 0 1 41.86 2.67
-7 0 1 48.35 2.82
-7 0 1 47.52 2.31
-7 0 1 44.46 2.32
-7 0 1 50.04 3.12
-7 0 1 43.49 2.98
-7 0 1 46.46 2.9
-7 0 0 0.35 0.53
-7 0 0 0.64 0.42
-7 0 0 0.09 0.27
-7 0 0 0.45 0.58
-7 0 0 -0.1 0.32
-7 0 0 0.48 0.59
-7 0 -1 0.07 0.47
-7 0 -1 0.41 0.51
-7 0 -1 0.57 0.61
-7 0 -1 0.09 0.54
-7 0 -1 0.5 0.35
-7 0 -1 0.31 0.56
-7 0 -2 0.52 0.53
-7 0 -2 0.22 0.51
-7 0 -2 1.6 0.79
-7 0 -2 0.08 0.3
-7 0 -2 1.39 0.65
-7 0 -3 2.13 0.66
-7 0 -3 1.9 0.61
-7 0 -3 2.35 0.7
-7 0 -3 1.02 0.61
-7 0 -3 1.45 0.4
-7 0 -3 2.15 0.84
-7 0 -3 2.15 0.66
-7 0 -4 -0.06 0.39
-7 0 -4 0.22 0.42
-7 0 -4 0.53 0.65
-7 0 -4 0.2 0.43
-7 0 -5 179.64 5.07
-7 0 -5 158.9 5.64
-7 0 -6 0.54 0.48
-7 1 10 40.31 1.62
-7 1 10 40.06 1.61
-7 1 10 38.98 1.51
-7 1 10 38.2 1.7
-7 1 10 40.37 1.67
-7 1 9 2.47 0.54
-7 1 9 2.92 0.45
-7 1 9 2.43 0.54
7 1 -9 2.41 0.49
-7 1 9 2.9 0.61
-7 1 9 1.9 0.51
-7 1 8 209.64 5.77
-7 1 8 213.92 5.01
7 1 -8 206.24 5.43
-7 1 8 212.99 6.05
-7 1 8 205.45 5.83
-7 1 8 217.32 5.86
-7 1 7 13.82 1.39
-7 1 7 13.5 1.05
-7 1 7 14.78 1.51
-7 1 7 14.4 1.44
-7 1 7 13.77 1.38
-7 1 6 286.94 7.8
-7 1 6 288.06 6.6
-7 1 6 317.35 8.46
-7 1 6 311.44 8.27
-7 1 6 318.99 8.13
-7 1 5 20.56 1.82
-7 1 5 22.83 1.88
-7 1 5 21.7 2
-7 1 5 22.13 1.94
-7 1 4 608.58 13.49
-7 1 4 608.64 12.82
-7 1 4 612.36 13.48
-7 1 4 593.94 13.64
-7 1 3 569.62 12.02
-7 1 3 595.46 12.86
-7 1 3 584.55 13.45
-7 1 3 550.31 12.15
-7 1 3 577.62 13.05
-7 1 2 17.2 1.65
-7 1 2 16.84 1.47
-7 1 2 18.73 1.73
-7 1 2 18.86 1.9
-7 1 2 19.23 1.64
-7 1 2 17.33 1.73
-7 1 1 1081.07 21.02
-7 1 1 1088.05 20.14
-7 1 1 1136.83 20.52
-7 1 1 1069.43 21.01
-7 1 1 1123.99 22.07
-7 1 1 1070.08 21.43
-7 1 0 665.72 14.09
-7 1 0 662.75 13.58
-7 1 0 672.16 13.15
-7 1 0 639.95 14.02
-7 1 0 688.91 15.08
-7 1 0 670.68 14.54
-7 1 -1 42.49 2.51
-7 1 -1 45.98 2.34
-7 1 -1 41.18 2.01
-7 1 -1 40.78 2.44
-7 1 -1 42.7 2.83
-7 1 -1 43.27 2.68
-7 1 -2 442.84 10.23
-7 1 -2 433.6 9.5
-7 1 -2 433.94 8.92
-7 1 -2 461.14 10.37
-7 1 -2 469.57 11.22
-7 1 -2 489.8 10.91
-7 1 -3 33.91 2.09
-7 1 -3 33.62 1.78
-7 1 -3 36.4 2.17
-7 1 -3 32.87 2.32
-7 1 -3 35.79 2.28
-7 1 -3 31.26 2.56
-7 1 -4 259.84 6.63
-7 1 -4 259.24 5.87
-7 1 -4 256.13 6.64
-7 1 -5 14.23 0.94
-7 1 -5 16.87 1.37
-7 1 -5 13.24 1.47
-7 1 -5 14.73 1.23
-7 1 -6 3.18 0.73
-7 2 10 9.52 0.65
-7 2 9 24.19 1.36
-7 2 9 25.22 1.38
-7 2 9 24.75 1.33
7 2 -9 20.09 1.16
-7 2 9 23.75 1.45
-7 2 9 22.73 1.35
-7 2 8 198.76 5.29
-7 2 8 212.12 5.4
-7 2 8 203.51 5.18
-7 2 8 201.16 5.58
-7 2 8 207.67 5.46
-7 2 7 97.26 3.29
-7 2 7 88.24 3.12
-7 2 7 94.15 3.49
-7 2 7 97.17 3.36
-7 2 6 0.3 0.41
-7 2 6 0.37 0.42
-7 2 6 0.42 0.49
-7 2 6 0.45 0.47
-7 2 5 6.99 1.02
-7 2 5 5.69 0.92
-7 2 5 5.23 1.02
-7 2 5 4.77 0.93
-7 2 4 394.36 9.57
-7 2 4 395.29 9.31
-7 2 4 416.29 9.73
-7 2 4 413.48 10.25
-7 2 4 401.25 9.54
-7 2 4 380.41 9.74
-7 2 3 502.15 11.47
-7 2 3 513.05 11.24
-7 2 3 544.45 11.73
-7 2 3 509.95 12.22
-7 2 3 507.39 11.5
-7 2 3 509.37 11.77
-7 2 2 47.41 2.64
-7 2 2 45.11 2.43
-7 2 2 45.79 2.57
-7 2 2 44.57 2.83
-7 2 2 46.76 2.62
-7 2 2 51.75 2.87
-7 2 1 82.23 3.52
-7 2 1 86.02 3.36
-7 2 1 82.52 3.52
-7 2 1 79.49 3.48
-7 2 1 85.79 3.97
-7 2 1 82.57 3.7
-7 2 0 12.56 1.32
-7 2 0 9.27 1.17
-7 2 0 12.65 1.21
-7 2 0 12.94 1.31
-7 2 0 11.85 1.47
-7 2 0 9.93 1.26
-7 2 -1 3.61 0.77
-7 2 -1 5.09 0.89
-7 2 -1 4.65 0.76
-7 2 -1 5.44 1.02
-7 2 -1 3.2 0.7
-7 2 -1 3.34 0.81
-7 2 -2 1.31 0.5
-7 2 -2 1.78 0.47
-7 2 -2 1.32 0.51
-7 2 -2 1.32 0.61
-7 2 -2 2.86 0.65
-7 2 -2 1.36 0.57
-7 2 -3 201.32 5.55
-7 2 -3 198.12 5.54
-7 2 -3 192.38 4.7
-7 2 -3 195.6 5.22
-7 2 -4 63.37 2.66
-7 2 -4 67.94 2.53
-7 2 -4 63.9 2.71
-7 2 -5 1.84 0.4
-7 2 -5 1.89 0.53
-7 2 -5 1.18 0.41
-7 2 -6 94.65 2.51
-7 3 9 4.25 0.5
7 3 -9 3.78 0.45
-7 3 8 89.11 2.75
-7 3 8 94.48 2.81
-7 3 8 90.48 2.82
-7 3 8 87.5 2.91
-7 3 8 89.93 2.82
-7 3 7 4.44 0.68
-7 3 7 3.25 0.64
-7 3 7 3.59 0.64
7 3 -7 3.17 0.56
-7 3 7 3.94 0.72
-7 3 7 4.09 0.67
-7 3 6 298.34 7.16
-7 3 6 302.9 7.16
-7 3 6 292.14 7.13
-7 3 6 303.76 7.59
-7 3 6 305.8 7.33
-7 3 5 4.12 0.79
-7 3 5 4.11 0.74
-7 3 5 4.81 0.89
-7 3 5 3.75 0.78
-7 3 4 32.1 1.98
-7 3 4 32.17 2.2
-7 3 4 31.72 2.05
-7 3 4 33.6 2.05
-7 3 3 22.58 1.67
-7 3 3 23.57 1.7
-7 3 3 19.4 1.75
-7 3 3 21.12 1.74
-7 3 3 22.5 1.76
-7 3 2 19.47 1.56
-7 3 2 21.39 1.63
-7 3 2 19.48 1.58
-7 3 2 18.45 1.72
-7 3 2 21.1 1.73
-7 3 2 20.22 1.67
-7 3 1 1.28 0.49
-7 3 1 0.97 0.46
-7 3 1 1.27 0.47
-7 3 1 1.26 0.62
-7 3 1 1.11 0.52
-7 3 0 7.95 1
-7 3 0 8.69 1.09
-7 3 0 8.54 0.98
-7 3 0 7.33 0.98
-7 3 0 7.96 1.12
-7 3 0 7.06 1.01
-7 3 -1 9.44 1.04
-7 3 -1 10.11 1.13
-7 3 -1 8.26 0.96
-7 3 -1 9.57 1.06
-7 3 -1 7.75 1.09
-7 3 -1 9.69 1.11
-7 3 -2 387.37 8.61
-7 3 -2 395.98 8.78
-7 3 -2 379.88 8.29
-7 3 -2 390.17 8.62
-7 3 -2 386.15 9.2
-7 3 -3 154.37 4.44
-7 3 -3 162.57 4.56
-7 3 -3 159.54 4.15
-7 3 -3 163.09 4.58
-7 3 -4 9.17 0.89
-7 3 -4 11.14 0.96
-7 3 -4 10.18 0.77
-7 3 -4 10.47 1.01
-7 3 -5 0.12 0.25
-7 3 -6 0.57 0.23
-7 4 8 65.32 2.03
7 4 -8 60.84 2.03
-7 4 8 64.4 2.26
-7 4 7 2.4 0.55
-7 4 7 2.07 0.46
-7 4 6 574.83 6.86
-7 4 6 565.5 7.31
-7 4 5 41.49 1.73
-7 4 5 253.22 4.85
-7 4 5 256.42 4.72
-7 4 5 260.84 5.23
-7 4 5 234.63 4.26
-7 4 4 0.16 0.26
-7 4 4 0.83 0.44
-7 4 4 0.43 0.3
-7 4 4 0.43 0.38
-7 4 4 0.33 0.42
-7 4 4 -0.09 0.29
-7 4 3 239.3 5.83
-7 4 3 244.64 5.85
-7 4 3 254.82 6.39
-7 4 3 228.23 6.16
-7 4 3 259.91 6.67
-7 4 3 246.84 6.09
-7 4 2 2.29 0.46
-7 4 2 1.96 0.49
-7 4 2 2.88 0.58
-7 4 2 1.89 0.61
-7 4 2 2.35 0.51
-7 4 1 296.84 6.7
-7 4 1 293.25 7.1
-7 4 1 300 6.69
-7 4 1 283.4 7.1
-7 4 1 286.91 6.88
-7 4 0 7.95 0.85
-7 4 0 9.98 1.03
-7 4 0 9.33 0.91
-7 4 0 8.5 0.98
-7 4 0 8.87 0.96
-7 4 -1 48.12 2.12
-7 4 -1 47.57 1.96
-7 4 -1 53.06 2.21
-7 4 -2 60.47 2.16
-7 4 -2 0.17 0.17
-7 4 -2 72.01 2.47
-7 4 -2 0.1 0.13
-7 4 -3 7.52 0.81
-7 4 -3 7.5 0.73
-7 4 -4 182.32 4.41
-7 4 -4 173.1 4.03
-7 4 -5 352.85 6.91
-7 5 7 3.82 0.44
7 5 -7 2.87 0.42
-7 5 7 3.87 0.51
-7 5 6 12.82 0.9
7 5 -6 13.2 0.9
-7 5 6 11.15 0.94
-7 5 5 26.86 1.44
7 5 -5 23.84 1.29
-7 5 5 25.53 1.51
-7 5 4 2.49 0.51
7 5 -4 2.35 0.43
-7 5 4 2.56 0.59
-7 5 3 3.3 0.62
-7 5 3 3.39 0.64
-7 5 2 23.67 1.58
-7 5 2 25.51 1.55
-7 5 1 76.1 2.94
-7 5 1 75.82 2.79
-7 5 0 3.02 0.61
-7 5 -1 335.12 7.36
-7 5 -1 331.01 7.13
-7 5 -2 24.89 1.33
-7 5 -2 25.09 1.41
-7 5 -3 0.26 0.25
-7 5 -3 0.09 0.24
-7 5 -4 1.07 0.26
-7 5 -4 1.35 0.32
-7 6 5 194.58 4.36
-7 6 5 198.38 4.15
-7 6 4 2.99 0.48
-7 6 4 2.59 0.42
-7 6 3 177.67 4.4
-7 6 3 182.61 4.29
-7 6 2 53.69 2.08
-7 6 2 54.65 2.02
-7 6 1 197.4 4.78
-7 6 1 204 4.72
-7 6 0 14.02 0.98
-7 6 0 13.14 0.92
-7 6 -1 165.76 3.98
-7 6 -1 175.91 4.09
-7 6 -2 133.9 3.27
-7 6 -3 25.82 1.06
-7 6 -3 24.03 1.03
-7 7 1 3.93 0.4
-7 7 0 10.1 0.61
8 -4 -4 82.46 2.31
-8 -4 1 106.78 3.21
-8 -4 0 120.48 3.48
-8 -4 -1 8.88 0.81
-8 -3 5 334.22 6.82
-8 -3 5 348.66 6.74
-8 -3 4 114.41 3.05
-8 -3 4 119.36 3.38
-8 -3 4 122.78 3.29
-8 -3 4 115.74 3.09
-8 -3 3 193.08 4.55
-8 -3 3 190.28 4.89
-8 -3 3 198.68 4.62
-8 -3 2 142.64 3.65
-8 -3 2 140.32 3.68
-8 -3 2 134.71 3.93
-8 -3 2 145.94 3.85
-8 -3 1 19.66 1.13
-8 -3 1 19.14 1.41
-8 -3 1 19.73 1.15
-8 -3 1 19.11 1.27
-8 -3 1 22.3 1.28
-8 -3 0 45.03 2.2
-8 -3 0 46.45 1.79
-8 -3 0 44.88 1.74
-8 -3 0 50.34 1.96
-8 -3 -1 3.4 0.63
-8 -3 -1 2.79 0.42
-8 -3 -1 3.56 0.52
-8 -3 -2 66.53 2.43
-8 -2 7 2.54 0.42
-8 -2 7 2.75 0.42
-8 -2 6 111.47 2.91
-8 -2 6 114.17 3.21
-8 -2 6 120.28 3.16
-8 -2 6 115.44 2.98
-8 -2 5 97.44 3.03
-8 -2 5 103.53 3.39
-8 -2 5 99.88 3.22
-8 -2 5 98.69 3.06
-8 -2 4 4.18 0.65
-8 -2 4 3.24 0.68
-8 -2 4 3.42 0.64
-8 -2 4 4.21 0.65
-8 -2 3 54.17 2.3
-8 -2 3 54.53 2.56
-8 -2 3 53.32 2.4
-8 -2 3 57.64 2.36
-8 -2 2 30.32 1.69
-8 -2 2 31.74 1.72
-8 -2 2 30.58 1.91
-8 -2 2 30.14 1.78
-8 -2 1 19.27 1.31
-8 -2 1 17.46 1.48
-8 -2 1 19.25 1.33
-8 -2 1 19.43 1.52
-8 -2 1 19.07 1.39
-8 -2 0 22.65 1.39
-8 -2 0 22.63 1.63
-8 -2 0 20.25 1.52
-8 -2 0 21.47 1.38
-8 -2 0 21.1 1.45
-8 -2 -1 6.19 0.73
-8 -2 -1 5.04 0.66
-8 -2 -1 5.88 0.78
-8 -2 -2 236.83 5.51
-8 -2 -2 242.14 5.98
-8 -2 -2 246.91 5.57
-8 -2 -3 71.15 2.28
-8 -2 -3 89.77 2.59
-8 -1 7 121.51 3.14
-8 -1 7 123.02 3.19
-8 -1 7 96.79 2.56
8 -1 -7 92.11 2.85
-8 -1 7 119.18 3.41
-8 -1 7 125.4 3.33
-8 -1 6 33.73 1.65
-8 -1 6 27.72 1.24
-8 -1 6 31.34 1.61
-8 -1 6 33.02 1.81
-8 -1 6 33.19 1.74
-8 -1 5 22.86 1.45
-8 -1 5 23.7 1.16
-8 -1 5 23.86 1.5
-8 -1 5 22.47 1.61
-8 -1 5 23.53 1.55
-8 -1 4 129.4 3.74
-8 -1 4 124.74 4.08
-8 -1 4 131.94 3.98
-8 -1 4 124.78 3.72
-8 -1 3 281.32 6.84
-8 -1 3 282.83 7.39
-8 -1 3 285.88 7.14
-8 -1 3 285.6 6.89
-8 -1 2 391.36 8.64
-8 -1 2 383.95 8.62
-8 -1 2 374.93 9.17
-8 -1 2 395.81 9
-8 -1 1 1.4 0.43
-8 -1 1 1.02 0.46
-8 -1 1 2.48 0.59
-8 -1 1 1.19 0.44
-8 -1 0 49.5 2.3
-8 -1 0 50.19 2.33
-8 -1 0 53.15 2.68
-8 -1 0 57.16 2.59
-8 -1 -1 1.46 0.48
-8 -1 -1 1.11 0.51
-8 -1 -1 1.7 0.52
-8 -1 -1 1.78 0.5
-8 -1 -2 -0.04 0.28
-8 -1 -2 0.4 0.37
-8 -1 -2 0.16 0.27
-8 -1 -3 0.39 0.35
-8 -1 -3 0.43 0.28
-8 -1 -4 0.78 0.28
-8 0 8 3.18 0.48
-8 0 8 4.12 0.5
-8 0 7 0.38 0.27
-8 0 7 -0.05 0.18
-8 0 7 1.52 0.39
8 0 -7 0.65 0.28
-8 0 7 0.24 0.3
-8 0 7 1.88 0.43
-8 0 6 66.07 2.54
-8 0 6 70.71 2.62
-8 0 6 72.12 2.32
-8 0 6 71.69 2.87
-8 0 6 70.48 2.72
-8 0 5 0.27 0.35
-8 0 5 0.06 0.24
-8 0 5 0.05 0.3
-8 0 5 -0.11 0.4
-8 0 5 0.02 0.1
-8 0 5 0.25 0.37
-8 0 4 14.03 1.21
-8 0 4 13.96 1.2
-8 0 4 11.29 0.89
-8 0 4 10.88 1.22
-8 0 4 13.57 1.26
-8 0 3 0.85 0.39
-8 0 3 0.03 0.25
-8 0 3 0.15 0.35
-8 0 3 0.38 0.49
-8 0 3 0.03 0.15
-8 0 3 0.68 0.46
-8 0 2 189.27 5.33
-8 0 2 193.07 5.33
-8 0 2 178.69 4.27
-8 0 2 182.26 5.74
-8 0 2 197.84 5.61
-8 0 1 0.3 0.3
-8 0 1 0.2 0.29
-8 0 1 0.64 0.44
-8 0 1 0.45 0.34
-8 0 0 78.78 3.04
-8 0 0 82.43 3.1
-8 0 0 79.59 3.43
-8 0 0 81.47 3.26
-8 0 -1 0.13 0.33
-8 0 -1 -0.14 0.32
-8 0 -1 0.17 0.41
-8 0 -1 0.1 0.39
-8 0 -2 21.95 1.4
-8 0 -2 22.84 1.53
-8 0 -2 21.2 1.37
-8 0 -3 4.54 0.59
-8 0 -3 1.09 0.36
-8 0 -4 49.16 1.89
-8 1 8 3.72 0.4
-8 1 8 3.68 0.48
-8 1 8 3.48 0.43
-8 1 7 118.79 3.14
-8 1 7 118.16 3.14
-8 1 7 112.38 2.92
-8 1 7 121.5 3.44
-8 1 7 112.89 3.21
-8 1 6 31.99 1.63
-8 1 6 30.76 1.48
-8 1 6 30.13 1.6
-8 1 6 32.41 1.83
-8 1 6 28.94 1.37
-8 1 6 32.76 1.73
-8 1 5 21.39 1.43
-8 1 5 23.08 1.33
-8 1 5 20.41 1.21
-8 1 5 22.03 1.44
-8 1 5 23.86 1.66
-8 1 5 23.57 1.56
-8 1 4 116.19 3.85
-8 1 4 125.05 3.57
-8 1 4 129.76 3.59
-8 1 4 126.09 3.98
-8 1 4 124.85 4.29
-8 1 4 130.47 4.17
-8 1 3 278.35 6.81
-8 1 3 264.44 6.19
-8 1 3 297.56 6.35
-8 1 3 274.72 6.8
-8 1 3 294.63 7.45
-8 1 3 291.21 7.15
-8 1 2 385.71 8.6
-8 1 2 369.3 8.52
-8 1 2 392.08 8
-8 1 2 383.91 7.82
-8 1 2 391.15 9.26
-8 1 2 393.55 8.93
-8 1 1 0.86 0.31
-8 1 1 0.77 0.4
-8 1 1 1.54 0.51
-8 1 1 0.89 0.34
-8 1 1 0.7 0.38
-8 1 0 50.67 2.17
-8 1 0 54.6 2.26
-8 1 0 48.4 1.68
-8 1 0 49.27 2.45
-8 1 0 53.06 2.37
-8 1 -1 1.53 0.45
-8 1 -1 1.42 0.55
-8 1 -1 1.39 0.3
-8 1 -1 1.69 0.52
-8 1 -1 1.28 0.45
-8 1 -2 0.12 0.29
-8 1 -2 0.13 0.35
-8 1 -2 0.04 0.27
-8 1 -3 0.5 0.31
-8 1 -3 1.75 0.4
-8 1 -4 1.28 0.33
-8 2 7 2.47 0.42
-8 2 7 2.07 0.35
-8 2 7 2.79 0.43
-8 2 6 111.96 3.14
-8 2 6 114.15 3.11
-8 2 6 114.79 3.16
-8 2 6 112.09 3.39
-8 2 6 103.52 3
-8 2 6 110.68 3.24
-8 2 5 92.33 3
-8 2 5 97.18 2.94
-8 2 5 91.12 2.9
-8 2 5 92.88 2.98
-8 2 5 100.98 3.36
-8 2 5 91.16 3.09
-8 2 4 3.34 0.59
-8 2 4 3.66 0.58
-8 2 4 3.44 0.57
-8 2 4 3.96 0.65
-8 2 4 1.94 0.55
-8 2 4 2.47 0.58
-8 2 3 51.81 2.27
-8 2 3 54.08 2.22
-8 2 3 55.44 2.17
-8 2 3 52.09 2.27
-8 2 3 56.04 2.59
-8 2 3 53.47 2.4
-8 2 2 27.47 1.62
-8 2 2 30.3 1.62
-8 2 2 33.55 1.61
-8 2 2 31.81 1.73
-8 2 2 31.7 1.93
-8 2 2 29.72 1.77
-8 2 1 18.79 1.31
-8 2 1 17.71 1.18
-8 2 1 17.76 1.12
-8 2 1 17.92 1.29
-8 2 1 20.34 1.53
-8 2 1 19.37 1.4
-8 2 0 20.45 1.34
-8 2 0 21.84 1.25
-8 2 0 20.33 1.1
-8 2 0 23.74 1.43
-8 2 0 19.11 1.47
-8 2 0 22.96 1.49
-8 2 -1 5.28 0.58
-8 2 -1 6.28 0.74
-8 2 -1 5.41 0.67
-8 2 -1 5.94 0.77
-8 2 -2 250.74 5.45
-8 2 -2 241.43 5.44
-8 2 -3 66.94 2.25
-8 2 -3 91.68 2.62
-8 3 7 6.95 0.53
-8 3 6 220.05 4.81
-8 3 5 329.67 6.95
-8 3 5 340.24 6.82
-8 3 4 116.49 3.17
-8 3 4 121.06 3.45
-8 3 4 126.14 3.4
-8 3 4 110.7 3.11
-8 3 4 123.37 3.49
-8 3 4 122.03 3.34
-8 3 3 197.45 4.7
-8 3 3 214.94 5.06
-8 3 3 213.49 4.91
-8 3 3 200.54 4.7
-8 3 3 195.33 5.01
-8 3 3 197.66 4.84
-8 3 2 144.51 3.8
-8 3 2 156.96 3.93
-8 3 2 149.04 4.02
-8 3 2 136.64 3.71
-8 3 2 139.75 4.05
-8 3 2 153.82 4
-8 3 1 20.12 1.18
-8 3 1 20.26 1.25
-8 3 1 20.52 1.17
-8 3 1 20.48 1.17
-8 3 1 20.56 1.33
-8 3 1 21.49 1.28
-8 3 0 46.18 1.8
-8 3 0 48.22 1.84
-8 3 0 50.86 2
-8 3 0 51.65 1.97
-8 3 0 50.89 1.8
-8 3 -1 3.42 0.46
-8 3 -1 3.47 0.42
-8 3 -1 3.23 0.47
-8 3 -1 3.69 0.55
-8 3 -1 3.05 0.45
-8 3 -2 68.93 2.01
-8 3 -2 62.62 1.98
-8 4 5 48.36 1.63
-8 4 2 0.24 0.25
-8 4 2 0.24 0.25
-8 4 1 123.8 3.22
-8 4 1 108.75 2.94
-8 4 0 128.82 3.3
-8 4 0 135.21 3.17
-8 4 -1 9.01 0.66
-8 4 -1 8.01 0.55
-8 5 3 2.06 0.3
-8 5 3 1.85 0.3
-8 5 2 0.77 0.24
-8 5 1 1.84 0.32
-8 5 1 2.18 0.31
0 -11 0 0.04 0.3
0 -11 1 528.92 10.41
0 -11 -2 30.43 1.49
0 -11 2 27.72 1.47
0 -11 -3 4.48 0.54
0 -11 -3 3.62 0.49
0 -11 -4 0.17 0.18
0 -10 0 139.06 4.19
0 -10 0 146.44 4.71
0 -10 1 355.9 8.13
0 -10 1 371.55 8.71
0 -10 2 399.04 8.83
0 -10 -2 419.59 9.22
0 -10 2 406.11 9.36
0 -10 3 14.72 1.23
0 -10 3 15.66 1.35
0 -10 -3 15.56 1.29
0 -10 4 23.54 1.49
0 -10 4 21.57 1.48
0 -10 -4 19.39 1.32
0 -10 -5 -0.03 0.24
0 -10 5 0.15 0.28
0 -10 6 0.48 0.29
0 -10 -7 38.58 1.62
0 -9 0 0.06 0.36
0 -9 0 -0.2 0.46
0 -9 1 153.17 5.06
0 -9 -1 159.28 5.04
0 -9 1 155.07 5.24
0 -9 -2 0.17 0.33
0 -9 2 0.97 0.53
0 -9 2 0.9 0.63
0 -9 -2 1.9 0.61
0 -9 3 0.69 0.5
0 -9 3 1.1 0.58
0 -9 -3 0.72 0.44
0 -9 4 97.02 3.79
0 -9 -4 101.88 3.68
0 -9 4 93.82 3.85
0 -9 5 2.08 0.62
0 -9 5 1.92 0.59
0 -9 -5 2.77 0.61
0 -9 -6 51.17 2.26
0 -9 -6 54.01 2.22
0 -9 6 50.77 2.32
0 -9 -6 48.36 1.91
0 -9 -7 140.23 3.89
0 -9 7 150.35 4.26
0 -9 -7 138.88 3.79
0 -9 -8 1.19 0.36
0 -9 -8 1.15 0.42
0 -9 -8 0.61 0.25
0 -9 8 1.27 0.4
0 -8 0 139.49 4.89
0 -8 0 155.13 4.94
0 -8 0 153.6 5.06
0 -8 0 146.21 5.25
0 -8 -1 39.07 2.36
0 -8 1 33.42 2.24
0 -8 -1 41.53 2.43
0 -8 1 40.06 2.24
0 -8 1 34.94 2.27
0 -8 1 40.19 2.56
0 -8 -1 39.5 2.58
0 -8 2 54.44 2.85
0 -8 -2 46.06 2.59
0 -8 2 52.1 2.48
0 -8 -2 52.14 2.84
0 -8 2 45.4 2.73
0 -8 -2 59.04 2.85
0 -8 2 49.36 2.75
0 -8 -3 422.59 9.53
0 -8 3 401.25 10.02
0 -8 3 424.17 10.03
0 -8 -3 414.04 9.63
0 -8 -3 417.74 9.68
0 -8 3 439.06 10.27
0 -8 4 55.29 2.88
0 -8 -4 59.55 2.64
0 -8 -4 58.21 2.97
0 -8 4 51.55 2.85
0 -8 -4 58.93 2.86
0 -8 -4 50.57 2.95
0 -8 4 57.11 3
0 -8 -4 52.92 2.66
0 -8 5 266.44 7.28
0 -8 -5 274.68 6.93
0 -8 -5 265.05 7.52
0 -8 -5 278.33 7.32
0 -8 -5 275.53 6.91
0 -8 5 246.87 7.11
0 -8 -6 0.74 0.46
0 -8 -6 1.4 0.61
0 -8 -6 0.33 0.41
0 -8 6 0.77 0.5
0 -8 6 -0.12 0.37
0 -8 -6 0.1 0.33
0 -8 -7 4 0.79
0 -8 -7 4.49 0.9
0 -8 -7 3.92 0.78
0 -8 7 5.3 0.89
0 -8 -8 39.15 2.21
0 -8 -8 40.17 2.36
0 -8 8 35.63 2.02
0 -8 -8 37.05 2.07
0 -8 -9 8.22 0.88
0 -8 -9 9.44 1.05
0 -8 9 7.9 0.88
0 -8 -9 9.3 0.96
0 -8 -10 134.88 3.71
0 -8 -10 131.55 3.49
0 -7 0 -0.12 0.3
0 -7 0 -0.16 0.35
0 -7 0 -0.17 0.38
0 -7 0 0.07 0.32
0 -7 1 64.51 3.03
0 -7 -1 66.49 3.02
0 -7 -1 65.76 2.97
0 -7 1 73.71 2.97
0 -7 1 63.88 2.9
0 -7 1 76.71 3.37
0 -7 -1 69.67 3.29
0 -7 -2 102.82 3.92
0 -7 2 103.11 3.96
0 -7 -2 119.13 4.48
0 -7 -2 105.88 3.64
0 -7 2 115.75 4.27
0 -7 2 104.29 3.6
0 -7 -2 116.83 4.18
0 -7 -2 108.78 3.84
0 -7 2 106.1 3.94
0 -7 -3 21.7 1.48
0 -7 -3 20.28 1.61
0 -7 3 20.02 1.64
0 -7 -3 23.03 1.68
0 -7 3 19.33 1.66
0 -7 -3 20.32 1.56
0 -7 3 21.23 1.7
0 -7 -4 17.8 1.45
0 -7 4 15.41 1.5
0 -7 -4 15.98 1.47
0 -7 -4 18.03 1.68
0 -7 -4 19.66 1.51
0 -7 4 16.5 1.52
0 -7 -5 804.49 15.48
0 -7 -5 847.95 16.06
0 -7 5 824.84 16.24
0 -7 -5 784.23 16.3
0 -7 5 777.42 16.21
0 -7 -5 773.57 16.52
0 -7 5 786.81 16.15
0 -7 -6 254.29 6.33
0 -7 -6 271.7 7.11
0 -7 6 249.74 6.97
0 -7 6 223.14 6.77
0 -7 -6 263.96 7.37
0 -7 -6 244.49 7.24
0 -7 6 236.65 6.71
0 -7 -7 438.44 10.15
0 -7 7 407.62 9.84
0 -7 -7 422.89 8.86
0 -7 -7 419.04 10.3
0 -7 -8 24.3 1.96
0 -7 -8 23.83 1.86
0 -7 8 24.31 1.8
0 -7 -9 116.63 4.27
0 -7 -9 120.84 4.46
0 -7 -9 127.95 4.77
0 -7 -10 4.78 0.84
0 -7 10 3.9 0.66
0 -7 11 0.14 0.2
0 -6 0 44.53 2.28
0 -6 0 50.85 1.91
0 -6 0 53.75 2.34
0 -6 0 51.92 2.27
0 -6 0 52.61 2.52
0 -6 1 78.79 3.05
0 -6 -1 73.27 2.97
0 -6 -1 80.94 3.24
0 -6 1 79.4 3.12
0 -6 -1 79.08 2.52
0 -6 -1 82.88 3.05
0 -6 1 79.01 2.82
0 -6 1 72.27 2.39
0 -6 -1 68.38 2.71
0 -6 1 79.82 2.97
0 -6 2 97.07 3.47
0 -6 -2 89.94 3.33
0 -6 -2 86.34 3.07
0 -6 -2 93.17 3.61
0 -6 2 90.96 3.45
0 -6 -2 93.78 2.97
0 -6 2 91.58 3.02
0 -6 -2 96.06 2.96
0 -6 2 95.92 3.37
0 -6 -2 86.94 3.09
0 -6 -3 0.87 0.38
0 -6 3 1 0.45
0 -6 3 1.11 0.45
0 -6 -3 1.45 0.44
0 -6 -3 1.6 0.43
0 -6 3 0.79 0.32
0 -6 -3 0.65 0.29
0 -6 3 0.77 0.4
0 -6 4 14.51 1.32
0 -6 -4 13.63 1.29
0 -6 -4 14.17 1.23
0 -6 4 14.22 1.01
0 -6 -4 14.63 1.39
0 -6 -4 14.88 1.15
0 -6 4 11.13 1.19
0 -6 -4 16.84 1.25
0 -6 5 104.81 3.97
0 -6 -5 114.28 4.23
0 -6 -5 119.41 4.09
0 -6 -5 113.19 4.27
0 -6 -5 114.38 3.74
0 -6 5 101.2 3.9
0 -6 -5 107.16 3.52
0 -6 6 2.78 0.7
0 -6 -6 3.08 0.78
0 -6 -6 1.85 0.63
0 -6 -6 1.9 0.62
0 -6 -6 2.78 0.55
0 -6 6 1.97 0.6
0 -6 -7 265.53 7.52
0 -6 -7 263.83 7.53
0 -6 7 290.49 7.5
0 -6 -7 278.33 7.9
0 -6 -8 79.31 3.83
0 -6 9 85.4 3.55
0 -6 -9 95.53 4.16
0 -6 10 0.31 0.39
0 -6 -10 0.82 0.51
0 -6 -11 1.72 0.56
0 -6 11 0.74 0.36
0 -6 -11 1.27 0.5
0 -6 -12 53.14 2.07
0 -6 -12 50.43 1.99
0 -5 0 0.03 0.21
0 -5 0 -0.03 0.19
0 -5 -1 91.6 2.74
0 -5 -1 109.17 3.22
0 -5 1 97.09 2.8
0 -5 1 100.02 3.25
0 -5 -1 106.05 3.39
0 -5 -2 135.55 3.49
0 -5 2 124.6 3.37
0 -5 -2 135.53 4.06
0 -5 -3 1433 24.61
0 -5 -3 1504.14 25.26
0 -5 3 1413.81 24.39
0 -5 -3 1483.65 25.69
0 -5 4 66.95 2.46
0 -5 -4 72.03 2.59
0 -5 4 71.95 2.5
0 -5 -4 73.89 2.9
0 -5 -4 69.27 2.8
0 -5 -4 74.13 2.76
0 -5 -5 1081.23 19.7
0 -5 -5 1115.5 19.44
0 -5 5 1041.11 18.66
0 -5 -5 1157.77 19.19
0 -5 -5 975.51 19.37
0 -5 5 1006.9 18.74
0 -5 5 1016.58 19.22
0 -5 -5 1046.45 18.46
0 -5 -6 27.65 2
0 -5 -6 30.1 1.95
0 -5 -6 27.1 1.5
0 -5 -6 28.52 1.94
0 -5 6 27.59 1.63
0 -5 7 452.78 9.66
0 -5 -7 427.68 10.24
0 -5 -8 1286.22 23.63
0 -5 -8 1124.87 22.6
0 -5 -9 56.47 3.21
0 -5 -9 45.62 2.79
0 -5 -10 -0.08 0.52
0 -5 -10 1.35 0.56
0 -5 11 9.82 1.03
0 -5 -11 10.97 1.23
0 -5 -12 7.8 0.91
0 -5 -12 6.76 0.86
0 -5 12 6.27 0.69
0 -4 0 184.56 4.06
0 -4 0 187.28 4.43
0 -4 1 101.16 2.66
0 -4 -1 102.37 2.68
0 -4 -1 103.02 3.01
0 -4 -2 1043.27 17.97
0 -4 2 1057.25 17.67
0 -4 -2 1038.15 16.47
0 -4 -3 1353.18 21.62
0 -4 -3 1281.58 21.53
0 -4 -3 1324.38 21.56
0 -4 -3 1386.36 22.43
0 -4 -3 1419.88 22.79
0 -4 3 1275.96 22.11
0 -4 -4 79.85 2.26
0 -4 -4 70.48 2.43
0 -4 4 68.81 2.29
0 -4 -4 76.66 2.67
0 -4 -4 71.69 2.11
0 -4 -4 66.92 2.08
0 -4 -5 68.41 2.65
0 -4 -5 68.21 2.39
0 -4 -5 72.77 2.77
0 -4 -5 74.01 2.63
0 -4 -5 68.27 2.33
0 -4 -5 69.14 2.34
0 -4 5 69.59 2.45
0 -4 -5 65.15 2.74
0 -4 -6 0.77 0.29
0 -4 -6 0.7 0.41
0 -4 6 0.04 0.26
0 -4 -6 0.15 0.28
0 -4 -6 0.4 0.27
0 -4 -6 0.95 0.32
0 -4 -7 31.75 1.89
0 -4 -7 31.86 1.87
0 -4 -7 37.82 2.2
0 -4 -7 32.85 1.9
0 -4 -7 31.26 1.8
0 -4 -7 38.59 2.4
0 -4 7 31.24 1.83
0 -4 -7 30.65 1.93
0 -4 -7 34.85 1.99
0 -4 -8 17.74 1.6
0 -4 -8 16.53 1.45
0 -4 -8 16.22 1.37
0 -4 8 18.54 1.49
0 -4 -8 17.19 1.68
0 -4 -8 15.54 1.47
0 -4 -8 17.23 1.56
0 -4 -8 16.6 1.48
0 -4 -8 14.66 1.39
0 -4 -9 -0.07 0.36
0 -4 -9 -0.06 0.31
0 -4 -9 -0.09 0.52
0 -4 -9 0.06 0.29
0 -4 -9 0.07 0.41
0 -4 9 1.36 0.5
0 -4 -9 0.07 0.4
0 -4 -10 136.98 4.94
0 -4 -10 126.2 4.7
0 -4 -10 131.27 4.55
0 -4 -10 127.02 4.37
0 -4 -11 2.76 0.75
0 -4 -11 2.16 0.58
0 -4 -11 2.66 0.7
0 -4 -11 3.73 0.72
0 -4 12 110.18 2.89
0 -4 12 120.37 3.09
0 -4 -12 122.87 3.57
0 -4 -12 131.64 3.8
0 -4 -12 123.35 3.32
0 -3 0 0.02 0.15
0 -3 0 -0.02 0.18
0 -3 1 178.01 3.8
0 -3 -1 196.32 3.88
0 -3 -2 1358.81 21.27
0 -3 2 1347.43 21.67
0 -3 -2 1285.74 21.81
0 -3 -2 1337.71 21.24
0 -3 -2 1358.59 21.25
0 -3 -3 4966.51 76.76
0 -3 -3 4927.91 77.15
0 -3 -3 4786.75 77.22
0 -3 -3 4985.57 76.73
0 -3 -3 4865.93 76.7
0 -3 3 4691.13 76.94
0 -3 -4 183.6 4.05
0 -3 -4 179.87 4.18
0 -3 -4 172.37 4.22
0 -3 -4 176.51 3.99
0 -3 -4 178.29 3.98
0 -3 4 172.82 4.05
0 -3 -5 451.25 8.61
0 -3 5 434.11 8.52
0 -3 -5 411.31 8.62
0 -3 -5 458.3 8.73
0 -3 -5 418.69 8.44
0 -3 -5 419 8.41
0 -3 -6 1547.54 25.27
0 -3 -6 1546.78 25.21
0 -3 -6 1364.16 25.49
0 -3 6 1405.21 24.82
0 -3 -6 1353.46 24.81
0 -3 -6 1492.12 24.97
0 -3 -6 1436.41 24.94
0 -3 -7 57.12 2.58
0 -3 -7 49.82 2.65
0 -3 -7 52.02 2.4
0 -3 7 47.79 2.28
0 -3 -7 53.88 2.51
0 -3 -7 50.66 2.5
0 -3 -7 51.66 2.49
0 -3 -7 53.86 2.53
0 -3 -7 53.85 2.49
0 -3 -8 217.79 6.21
0 -3 8 200.16 5.78
0 -3 -8 224.71 6.1
0 -3 -8 199.9 5.97
0 -3 -8 219.61 6.31
0 -3 -8 216.65 6.26
0 -3 -8 213.7 6.17
0 -3 -8 225.99 6.24
0 -3 -9 19.47 1.72
0 -3 9 15 1.43
0 -3 -9 16.95 1.56
0 -3 -9 16.47 1.58
0 -3 -9 16.58 1.64
0 -3 -9 16.32 1.64
0 -3 -9 19.04 1.71
0 -3 -9 13.97 1.49
0 -3 -10 544.36 12.34
0 -3 -10 533.33 12.07
0 -3 10 567.03 12.01
0 -3 -10 507.49 12.01
0 -3 -10 527.42 12.51
0 -3 -10 591.13 12.84
0 -3 -10 545.99 12.52
0 -3 -10 526.92 12.38
0 -3 -11 17.49 1.61
0 -3 -11 18.78 1.64
0 -3 -11 20.38 1.86
0 -3 -11 20.36 1.73
0 -3 -12 43.55 2.29
0 -3 -12 44.45 2.33
0 -3 -12 42.84 2.29
0 -3 -12 45.39 2.52
0 -3 -12 43.79 2.36
0 -3 -13 22.85 1.31
0 -3 13 22.21 1.31
0 -3 -13 20.78 1.37
0 -3 -13 23.61 1.35
0 -2 0 705.29 11.59
0 -2 -1 1632.1 24.9
0 -2 -1 1591.82 24.88
0 -2 -1 1632.26 24.89
0 -2 -2 6616.35 108.24
0 -2 -2 7143.93 108.01
0 -2 -3 552.78 9.73
0 -2 -3 552.26 9.83
0 -2 -3 587.07 9.92
0 -2 -3 561.8 9.77
0 -2 -3 549.23 9.68
0 -2 3 587.36 9.84
0 -2 -4 801.68 13.39
0 -2 -4 795.19 13.38
0 -2 -4 821.22 13.37
0 -2 -4 746.93 13.27
0 -2 -4 771.58 13.25
0 -2 -5 813.62 14.14
0 -2 -5 769.19 13.84
0 -2 5 812.11 13.99
0 -2 -5 761.66 14
0 -2 -5 780.55 13.98
0 -2 -6 576.16 11.59
0 -2 -6 588.48 11.56
0 -2 -6 606.33 11.74
0 -2 -7 46.99 2.47
0 -2 7 48.61 2.22
0 -2 -7 47.66 2.28
0 -2 -7 48.48 2.39
0 -2 -7 49.07 2.35
0 -2 -7 49.7 2.41
0 -2 -7 48.86 2.26
0 -2 -8 272.3 6.86
0 -2 -8 267.66 7.18
0 -2 8 295.64 6.98
0 -2 -8 264.65 7.02
0 -2 -8 280.37 7.56
0 -2 -8 261.84 7.09
0 -2 -8 253.44 6.94
0 -2 -8 269.95 7.24
0 -2 -8 250.92 7.07
0 -2 -9 30.48 2.04
0 -2 -9 34.59 2.33
0 -2 9 28.28 1.94
0 -2 -9 26.86 2
0 -2 -9 34.33 2.45
0 -2 -9 32.2 2.24
0 -2 -9 29.85 2.19
0 -2 -9 26.8 2.12
0 -2 -9 28.9 2.19
0 -2 -10 136.32 4.76
0 -2 -10 144.24 5.21
0 -2 -10 130.43 4.94
0 -2 10 140.08 4.84
0 -2 -10 136.02 5.13
0 -2 -10 124.03 4.94
0 -2 -10 126.29 5.11
0 -2 -10 129.95 5.17
0 -2 -11 176.69 5.88
0 -2 -11 187.5 6.11
0 -2 -11 184.36 5.69
0 -2 -11 186.39 6.35
0 -2 -12 94.54 3.84
0 -2 -12 103.15 4.05
0 -2 -12 94.41 3.48
0 -2 -12 97.56 4.13
0 -2 -13 516.43 10.57
0 -2 -13 540.62 10.73
0 -2 -13 493.82 10.84
0 -2 13 473.17 10.59
0 -2 14 77.62 2.32
0 -2 -14 76.91 2.48
0 -1 0 3.07 0.2
0 -1 -1 992.67 14.68
0 -1 -1 945.21 14.52
0 -1 1 870.53 14.59
0 -1 -1 846.67 14.7
0 -1 -2 392.21 6.61
0 -1 -2 375.24 6.6
0 -1 2 395.26 6.65
0 -1 -3 63.61 1.65
0 -1 -3 65.76 1.73
0 -1 3 62.43 1.71
0 -1 -4 14.91 0.77
0 -1 -4 14.16 0.85
0 -1 -4 15.13 0.85
0 -1 4 13.82 0.82
0 -1 -5 1047.12 17.56
0 -1 -5 1040.73 17.54
0 -1 5 1000.27 17.28
0 -1 -6 393.16 8.21
0 -1 -6 381.83 8.18
0 -1 6 405.61 7.97
0 -1 -7 7.04 0.8
0 -1 7 8.85 0.9
0 -1 -7 8.45 1.03
0 -1 -7 10.34 1.02
0 -1 -7 8.78 0.96
0 -1 -7 7.13 0.9
0 -1 -7 8.54 0.97
0 -1 -8 295.28 7.24
0 -1 -8 294.91 7.62
0 -1 -8 336.16 7.9
0 -1 -8 332.15 8.38
0 -1 8 325.93 7.56
0 -1 -8 319.57 7.92
0 -1 -8 294.46 7.68
0 -1 -8 310.52 7.97
0 -1 -8 301.61 7.88
0 -1 -9 60.83 3.12
0 -1 -9 60.3 2.85
0 -1 -9 56.43 2.98
0 -1 -9 62.41 3.1
0 -1 9 64.26 2.97
0 -1 -9 62.47 3.17
0 -1 -9 60.42 3.14
0 -1 -9 62.8 3.26
0 -1 -9 59.18 3.16
0 -1 -10 524.65 11.68
0 -1 -10 541.56 12.61
0 -1 -10 562.69 12.52
0 -1 10 536.79 11.92
0 -1 -10 534.2 12.49
0 -1 -10 543.46 12.6
0 -1 -10 516.21 12.65
0 -1 -10 548.18 12.81
0 -1 -11 117.22 4.68
0 -1 -11 120.09 4.81
0 -1 -11 107.24 3.99
0 -1 -11 113.22 4.88
0 -1 -12 7.53 1.12
0 -1 -12 8.74 1.28
0 -1 -12 8.89 1.25
0 -1 -13 2.37 0.6
0 -1 -13 2.62 0.62
0 -1 -13 3.16 0.72
0 -1 14 0.21 0.3
0 -1 -14 0.34 0.27
0 -1 -14 0.14 0.27
0 -1 -14 0.44 0.33
0 -1 14 0.69 0.33
0 0 1 0.2 0.05
0 0 -1 0.2 0.06
0 0 -1 0.02 0.04
0 0 -1 0.07 0.04
0 0 -1 0.11 0.06
0 0 2 734.02 11.43
0 0 -2 728.25 11.33
0 0 -2 731.27 11.46
0 0 -2 666.06 11.6
0 0 2 659.68 11.63
0 0 3 0.07 0.17
0 0 -3 0.04 0.09
0 0 3 0.01 0.1
0 0 -3 0.01 0.15
0 0 -4 130.45 2.53
0 0 -4 124.85 3.01
0 0 4 127.41 3.02
0 0 5 -0.03 0.23
0 0 -5 0.11 0.13
0 0 5 0.18 0.13
0 0 -5 0.44 0.26
0 0 -5 0.14 0.23
0 0 -6 320.83 6.82
0 0 -6 313.53 6.76
0 0 -6 284.26 6.56
0 0 6 273.02 6.31
0 0 -7 0.05 0.29
0 0 -7 0.66 0.35
0 0 7 0.85 0.4
0 0 -7 0.14 0.26
0 0 -7 -0.05 0.27
0 0 -8 444.26 9.76
0 0 8 465.35 9.55
0 0 -8 436.78 10
0 0 -8 432.03 9.91
0 0 -8 412.41 9.78
0 0 -8 445.62 9.87
0 0 -9 0.14 0.37
0 0 -9 0.07 0.39
0 0 -9 0.36 0.37
0 0 -9 0.34 0.37
0 0 9 -0.18 0.34
0 0 -9 0.23 0.35
0 0 -9 0.53 0.51
0 0 -9 0.35 0.48
0 0 -10 9.6 1.3
0 0 -10 7.42 1.13
0 0 10 5.68 0.96
0 0 -10 9.26 1.28
0 0 -10 10.21 1.33
0 0 -10 7.69 1.21
0 0 -10 9.45 1.33
0 0 -10 8.88 1.35
0 0 -11 0.31 0.44
0 0 -11 0.71 0.54
0 0 -11 0.41 0.45
0 0 -12 177.26 5.85
0 0 -12 191.29 6.32
0 0 -12 193.62 6.08
0 0 -13 0.06 0.4
0 0 -13 0.91 0.51
0 0 -13 0.13 0.44
0 0 -14 0.07 0.25
0 0 -14 0.14 0.25
0 0 -14 0.04 0.31
0 0 14 0.04 0.29
0 1 0 0.1 0.06
0 1 1 970.07 15.1
0 1 -1 979.35 15.4
0 1 -2 363.25 6.41
0 1 -2 344.45 6.38
0 1 -3 63.39 1.75
0 1 -3 64.27 1.62
0 1 -3 62.87 1.71
0 1 -4 13.62 0.84
0 1 -4 15.1 0.85
0 1 -4 12.96 0.74
0 1 4 14.96 0.79
0 1 -4 16.57 0.76
0 1 -5 1058.46 17.32
0 1 -5 947.69 17.04
0 1 -5 1000.94 17.23
0 1 5 940.37 16.66
0 1 -5 1013.46 16.77
0 1 -5 998.58 16.58
0 1 -6 386.04 8.17
0 1 -6 383.5 8.13
0 1 6 380.09 7.43
0 1 -6 405.68 7.56
0 1 -6 398.01 8.28
0 1 -7 9.52 1
0 1 -7 7.89 0.91
0 1 -7 9.58 1.01
0 1 7 7.27 0.67
0 1 -7 9.25 0.78
0 1 -7 8.82 0.98
0 1 -8 296.31 7.56
0 1 -8 314.89 7.65
0 1 -8 299.17 7.66
0 1 -8 299.74 7.72
0 1 8 296.11 6.89
0 1 -9 66.24 3.24
0 1 -9 67.54 3.31
0 1 -9 57.85 3.05
0 1 -9 64.74 3.27
0 1 -9 65.35 3.31
0 1 -9 58.72 3.03
0 1 -10 587.64 12.99
0 1 -10 568.36 12.84
0 1 -10 565.97 12.72
0 1 -10 551.12 12.95
0 1 -10 558.32 13.02
0 1 -11 119.04 4.67
0 1 -11 114.39 4.85
0 1 -11 114.15 4.64
0 1 -12 7.71 1.13
0 1 -12 9.71 1.34
0 1 -12 7.75 1.15
0 1 -13 1.74 0.53
0 1 -13 2.23 0.58
0 1 -13 1.35 0.53
0 1 14 0.07 0.3
0 1 -14 0.5 0.3
0 1 -14 0.63 0.29
0 1 -14 0.69 0.34
0 1 14 0.54 0.35
0 2 0 627.89 10.85
0 2 0 712.68 11
0 2 -1 1519.6 23.84
0 2 -1 1485.76 23.85
0 2 -1 1542.94 23.86
0 2 1 1460.48 23.96
0 2 1 1556.14 24.34
0 2 -1 1507.87 24.28
0 2 -1 1594.05 24.14
0 2 -2 7666.27 118.23
0 2 2 7448.41 118.57
0 2 -3 558.7 9.7
0 2 -3 519.77 9.59
0 2 -3 547.24 9.7
0 2 3 604.12 9.94
0 2 -3 534.99 9.96
0 2 -3 620.19 9.88
0 2 -4 731.52 13.33
0 2 -4 742.44 13.33
0 2 4 777.59 13.49
0 2 -4 805.11 13.65
0 2 -4 820.47 13.36
0 2 -4 768.01 13.41
0 2 -5 795.81 14
0 2 -5 757.69 13.86
0 2 -5 783.55 13.96
0 2 -5 821.06 13.79
0 2 5 766.82 13.86
0 2 -5 788.89 14.01
0 2 5 751.28 14.08
0 2 -6 592.7 11.44
0 2 -6 572.6 11.32
0 2 -6 562.19 11.27
0 2 -6 588.07 11.04
0 2 6 564.02 11.02
0 2 -6 597.62 11.48
0 2 7 52.31 2.37
0 2 -7 43.47 2.18
0 2 -7 44.92 2.18
0 2 -7 49.82 2.37
0 2 -7 50.73 2.35
0 2 -7 47.1 2.27
0 2 7 47.39 2.24
0 2 -7 46.86 2.05
0 2 7 48.98 2.06
0 2 -7 50.77 2.43
0 2 -8 258.04 6.92
0 2 -8 279.52 7.04
0 2 -8 228.1 6.59
0 2 -8 224.56 6.48
0 2 8 287.09 6.8
0 2 -8 260.4 6.85
0 2 8 287.87 6.95
0 2 -8 270.87 7.16
0 2 -8 270.01 7.13
0 2 -8 264.86 7.03
0 2 -9 29.71 2.11
0 2 -9 30.74 2.15
0 2 -9 28.87 2.06
0 2 9 34.07 2.01
0 2 -9 30.24 2.11
0 2 9 32.42 2.11
0 2 -9 29.98 2.21
0 2 -9 30.83 2.23
0 2 -9 30.87 2.17
0 2 -10 135.91 5.07
0 2 -10 118.81 4.77
0 2 10 140.98 4.38
0 2 -10 131.17 4.98
0 2 -10 141.22 5.1
0 2 -10 129.81 5.1
0 2 -10 145.11 5.34
0 2 -10 139.24 4.98
0 2 10 135.45 4.82
0 2 -11 181.64 6.04
0 2 -11 187.06 5.98
0 2 -11 191.75 6.32
0 2 -11 190.84 6.11
0 2 -12 96.8 3.83
0 2 -12 92.77 3.77
0 2 -12 96.71 4.03
0 2 13 489.86 10.83
0 2 -13 514.63 10.48
0 2 -13 506.22 9.73
0 2 -13 493.69 10.72
0 2 -13 520.37 10.54
0 2 -14 80.23 2.46
0 2 14 80.42 2.47
0 3 0 0.09 0.14
0 3 0 0.02 0.14
0 3 -1 176.25 3.78
0 3 1 179.09 3.55
0 3 -2 1295.96 20.98
0 3 -2 1329.65 21.01
0 3 -2 1349.96 21.04
0 3 2 1298.26 21.79
0 3 -2 1323.94 21.22
0 3 -3 4920.54 75.79
0 3 -3 4656.25 75.79
0 3 -3 4944.37 75.86
0 3 -3 4696.46 75.5
0 3 3 4990.18 76.49
0 3 -3 4837.32 76.65
0 3 -4 173.91 3.91
0 3 -4 161.73 3.82
0 3 -4 181.56 4.17
0 3 -4 169.45 3.26
0 3 -4 180.14 4.49
0 3 4 167.3 4.24
0 3 -4 175.86 3.98
0 3 -5 425.28 8.33
0 3 -5 421.88 8.26
0 3 5 453.9 8.82
0 3 -5 416.25 8.4
0 3 -5 380.53 8.57
0 3 -5 408.79 8.31
0 3 5 444.43 8.68
0 3 -6 1420.15 24.64
0 3 -6 1461.55 24.68
0 3 6 1509.66 25.06
0 3 6 1408.54 24.83
0 3 -6 1375.93 24.92
0 3 -6 1468.74 24.77
0 3 -6 1386.1 24.71
0 3 -7 50.8 2.41
0 3 -7 43.54 2.18
0 3 -7 56.18 2.5
0 3 -7 49.04 2.35
0 3 -7 45.01 2.25
0 3 7 53.53 2.48
0 3 7 46.73 2.26
0 3 -7 52.44 2.38
0 3 -7 59.38 2.56
0 3 -7 48.76 2.42
0 3 -7 50.33 2.42
0 3 -8 208.16 6.12
0 3 -8 215.76 6.16
0 3 8 206.99 6
0 3 -8 196.21 5.8
0 3 -8 197.44 5.96
0 3 -8 244.01 6.29
0 3 -8 220.09 6.07
0 3 8 195.79 5.82
0 3 -8 208.48 5.88
0 3 8 195.21 5.49
0 3 -8 254.21 6.42
0 3 -9 15.36 1.52
0 3 -9 16.85 1.57
0 3 -9 14.82 1.49
0 3 9 17.2 1.51
0 3 -9 16.17 1.5
0 3 9 18.15 1.61
0 3 -9 14 1.49
0 3 -9 13.23 1.46
0 3 -9 17.22 1.58
0 3 -10 515.56 12.11
0 3 -10 557.95 12.37
0 3 10 568.17 11.67
0 3 -10 566.44 12.15
0 3 10 523.05 11.99
0 3 -10 534.35 12.27
0 3 -10 545.97 12.48
0 3 -10 513.6 12.25
0 3 -10 545.98 12.19
0 3 11 19.47 1.41
0 3 -11 20.43 1.78
0 3 -11 18.6 1.63
0 3 -11 18.31 1.71
0 3 -11 18.44 1.62
0 3 -12 43.83 2.29
0 3 -12 43.58 2.26
0 3 -12 40.53 2.35
0 3 -13 24.49 1.39
0 3 -13 24.07 1.28
0 3 -13 23.8 1.34
0 3 -13 22.4 1.42
0 3 13 19.24 1.37
0 4 0 178.67 3.91
0 4 0 173.05 3.98
0 4 1 97.27 2.51
0 4 1 96.26 2.8
0 4 -1 104.62 2.76
0 4 -1 109.27 2.71
0 4 -2 1108.29 15.7
0 4 -2 1132.86 16.28
0 4 -3 1275.88 20.95
0 4 -3 1237.02 20.86
0 4 -3 1287.33 20.91
0 4 3 1375.73 22.35
0 4 -3 1344.92 22.01
0 4 -3 1280.26 21.11
0 4 -3 1322.25 22.48
0 4 -4 70.69 2.14
0 4 4 67.77 2.64
0 4 -4 69.72 1.83
0 4 -4 67.26 2.05
0 4 -4 69.05 2.08
0 4 -5 66.69 2.33
0 4 -5 68.88 2.46
0 4 5 68.94 2.62
0 4 5 68.13 2.79
0 4 -5 68.3 2.66
0 4 -5 65.16 2.79
0 4 -5 66.31 2.27
0 4 -5 64.09 2.24
0 4 -6 -0.04 0.23
0 4 -6 0.04 0.24
0 4 -6 0.04 0.19
0 4 -6 0.28 0.31
0 4 -6 1.92 0.52
0 4 6 0.3 0.36
0 4 -6 1.66 0.5
0 4 6 0.22 0.29
0 4 -6 0.83 0.31
0 4 -6 2.61 0.49
0 4 -7 32.54 1.92
0 4 -7 34.2 1.79
0 4 7 35.89 2.1
0 4 -7 32.88 1.86
0 4 -7 29.88 1.79
0 4 -7 34.24 2.14
0 4 -7 37.32 2.16
0 4 7 34.41 2.11
0 4 -7 31.57 1.98
0 4 -7 30.66 1.85
0 4 -8 16.08 1.48
0 4 -8 15.82 1.45
0 4 8 16.24 1.57
0 4 -8 17.28 1.51
0 4 8 19.36 1.62
0 4 -8 15.28 1.35
0 4 -8 16.11 1.41
0 4 8 14.22 1.38
0 4 -8 15.96 1.41
0 4 -9 0.28 0.44
0 4 -9 0.4 0.39
0 4 9 0.2 0.4
0 4 -9 0.18 0.36
0 4 9 0.13 0.34
0 4 -9 -0.06 0.3
0 4 10 131.04 4.44
0 4 -10 125.25 4.34
0 4 -10 122.6 4.55
0 4 -10 122.14 4.5
0 4 -10 120.93 4.26
0 4 11 3.41 0.65
0 4 -11 2.8 0.62
0 4 -11 3 0.64
0 4 -11 2.69 0.7
0 4 -12 131.87 3.39
0 4 -12 118.03 3.14
0 4 -13 119.3 3.12
0 5 0 0.06 0.24
0 5 0 3.94 0.55
0 5 1 96.4 2.8
0 5 -1 101.36 3.05
0 5 -1 103.11 2.97
0 5 1 95.46 3.15
0 5 -2 130.11 3.39
0 5 -2 131.64 3.77
0 5 -3 1464.89 25.13
0 5 -3 1505.34 25.22
0 5 3 1482.32 25.55
0 5 -3 1360.83 25.07
0 5 -3 1586.57 26.07
0 5 -3 1416.8 24.16
0 5 -4 68.69 2.76
0 5 -4 70.81 2.86
0 5 -4 71.18 3.09
0 5 4 72.08 3.05
0 5 -4 72.38 2.74
0 5 5 1018.48 18.87
0 5 -5 981.6 18.45
0 5 -5 1020.26 19.56
0 5 -5 999.29 18.7
0 5 6 32.2 1.98
0 5 -6 27.42 1.63
0 5 -6 27.34 1.79
0 5 -6 28.65 2.02
0 5 -6 31.78 2.06
0 5 6 28.42 2.03
0 5 -6 26.98 1.72
0 5 7 440.55 10.03
0 5 -7 465.68 10.28
0 5 -7 405.1 9.43
0 5 -7 438.81 10.59
0 5 -7 445.69 10.42
0 5 7 420.38 10.33
0 5 -7 465.56 9.77
0 5 -8 1140.31 20.58
0 5 8 1157.42 21.32
0 5 8 1092.21 21.34
0 5 8 1130.31 21.94
0 5 -8 1106.9 21.44
0 5 -8 1104.71 20.88
0 5 9 47.5 2.74
0 5 -9 44.76 2.5
0 5 10 -0.06 0.37
0 5 -10 0.24 0.41
0 5 11 10.07 0.99
0 5 -11 10.89 1.11
0 5 -12 5.16 0.69
0 6 0 49.2 2.42
0 6 0 51.17 2.43
0 6 0 55.76 2.44
0 6 0 52.02 2.27
0 6 1 73.35 3.08
0 6 -1 88.75 3.29
0 6 1 78.89 3.09
0 6 -1 79.01 3.1
0 6 -1 76.94 2.84
0 6 -1 81.46 3.01
0 6 1 77.63 3.08
0 6 -2 99.53 3.56
0 6 -2 85.54 2.95
0 6 -2 98.76 3.46
0 6 -2 102.46 3.82
0 6 2 90.73 3.49
0 6 -2 94.47 3.41
0 6 -3 0.87 0.3
0 6 -3 1.22 0.51
0 6 -3 1.27 0.46
0 6 -3 1 0.35
0 6 -4 14.19 1.32
0 6 -4 11.34 1.05
0 6 4 13.65 1.43
0 6 -4 14.12 1.38
0 6 -4 12.05 1.36
0 6 -4 12.82 1.26
0 6 -5 114.71 4.07
0 6 -5 106.22 3.75
0 6 5 101.71 3.74
0 6 -5 114.76 4.3
0 6 5 109.84 4.43
0 6 -5 96.34 4.17
0 6 -5 105.42 3.94
0 6 -6 2.54 0.64
0 6 -6 4.21 0.8
0 6 6 2.47 0.65
0 6 -6 1.56 0.62
0 6 6 4.14 0.9
0 6 -6 3.53 0.78
0 6 -7 270.56 7.08
0 6 -7 273.64 7.35
0 6 7 250.29 6.83
0 6 7 243.8 7.48
0 6 -7 262.56 7.7
0 6 -7 261.84 7.19
0 6 -8 76.9 3.52
0 6 -8 71.55 3.11
0 6 -8 77.27 3.46
0 6 8 75.48 3.69
0 6 -9 82.65 3.23
0 6 9 84.42 3.71
0 6 -9 86.99 3.59
0 6 10 0.59 0.4
0 6 -10 -0.05 0.36
0 6 11 0.94 0.35
0 6 -12 48.66 1.8
0 7 0 0.13 0.4
0 7 0 -0.19 0.36
0 7 0 0.23 0.31
0 7 -1 66.98 3.2
0 7 1 66.72 3.16
0 7 -1 68.06 3.1
0 7 1 64.52 2.98
0 7 -1 67.52 2.87
0 7 1 61.72 3.03
0 7 -1 62.23 3.16
0 7 -2 117.88 4.33
0 7 2 96.57 4.05
0 7 -2 110.57 4.44
0 7 -2 103.79 3.57
0 7 2 103.18 4.16
0 7 -2 105.61 4.04
0 7 3 22.01 1.9
0 7 -3 19.82 1.7
0 7 -3 23.2 1.78
0 7 -4 18.25 1.44
0 7 -4 17.47 1.63
0 7 -4 16.01 1.71
0 7 -4 17.25 1.58
0 7 -5 797.68 15.7
0 7 -5 784.25 16.21
0 7 -5 835.09 17.2
0 7 5 782.12 16.91
0 7 -5 772.08 16
0 7 -6 238.65 6.7
0 7 -6 251.09 7.02
0 7 6 230.15 7.36
0 7 -6 233.19 7.32
0 7 -6 235.89 6.84
0 7 -7 384.71 9.62
0 7 -7 411.41 9.69
0 7 -7 411.21 9.71
0 7 8 25.54 2.06
0 7 -8 24.88 1.85
0 7 -8 22.53 1.67
0 7 9 105.68 3.99
0 7 -9 108.1 3.9
0 7 10 2.58 0.57
0 7 -10 3.63 0.66
0 7 -11 0.37 0.26
0 8 0 147.8 5.35
0 8 0 144.43 4.94
0 8 0 129.03 4.74
0 8 0 143.08 5.34
0 8 -1 41.07 2.65
0 8 1 41.44 2.67
0 8 -1 37.92 2.41
0 8 -1 45.09 2.86
0 8 -1 36.55 2.24
0 8 1 39.02 2.58
0 8 1 37.13 2.46
0 8 -2 53.05 3.01
0 8 2 41.31 2.68
0 8 -2 50.71 2.83
0 8 -2 46.03 2.95
0 8 2 46.96 2.87
0 8 -3 422.05 10.57
0 8 3 437.15 10.96
0 8 -3 435.81 10.36
0 8 -4 52.24 3.19
0 8 -4 56.16 2.95
0 8 -5 259.44 7.41
0 8 -5 249.15 7.09
0 8 -5 259.49 6.72
0 8 -6 0.35 0.49
0 8 -6 0.07 0.4
0 8 -7 4.87 0.86
0 8 -7 4.43 0.82
0 8 7 4.32 0.9
0 8 -8 37.77 1.99
0 8 -8 37.75 2.11
0 8 8 34.14 2.13
0 8 -9 8.55 0.91
0 8 9 7.42 0.86
0 8 -10 120.44 3.2
0 8 10 109.76 2.98
0 9 0 -0.16 0.52
0 9 -1 174.25 5.95
0 9 -1 164.29 5.24
0 9 2 0.63 0.51
0 9 -2 0.49 0.58
0 9 -2 0.39 0.41
0 9 -3 1.56 0.74
0 9 -3 1.69 0.6
0 9 -4 101.85 3.96
0 9 -5 3.59 0.81
0 9 -5 2.8 0.7
0 9 -6 54.66 2.7
0 9 -6 51.66 2.53
0 9 -7 146.07 4.35
0 9 -7 150 4.37
0 9 -8 1.34 0.39
0 9 8 1.31 0.42
0 10 0 139.19 4.74
0 10 1 368.73 8.64
0 10 -1 358.92 8.93
0 10 -2 407.88 9.68
0 10 -3 15.15 1.45
0 10 -4 23.62 1.7
0 10 -4 20.13 1.34
0 10 -5 0.69 0.39
0 10 -5 0.25 0.26
0 10 5 -0.04 0.3
0 10 6 0.42 0.29
0 10 -6 0.15 0.28
0 11 0 0.1 0.25
0 11 -1 533.32 10.42
0 11 -2 27.24 1.52
0 11 -3 4.76 0.62
1 -11 -4 7.94 0.61
1 -11 -3 35.43 1.48
1 -11 -3 23.4 1.16
-1 -11 2 116.81 3.38
-1 -11 2 111.1 2.98
1 -11 -1 75.75 2.6
-1 -11 0 244.59 5.92
1 -11 0 281.02 6.06
1 -11 1 37.2 1.71
-1 -11 -1 34.24 1.64
1 -11 2 0.12 0.25
-1 -11 -2 0.14 0.21
-1 -10 6 0.24 0.27
1 -10 -6 0.62 0.24
-1 -10 5 10.12 0.98
1 -10 -5 11.52 0.93
-1 -10 4 2.7 0.6
-1 -10 4 3.24 0.67
1 -10 -4 4.05 0.65
-1 -10 3 79.38 3.12
-1 -10 3 82.22 3.31
1 -10 -3 85.3 3.13
-1 -10 2 4.52 0.83
-1 -10 2 3.76 0.73
-1 -10 1 548.23 12.17
-1 -10 1 575.81 11.98
-1 -10 0 59.79 2.85
1 -10 0 66.75 2.93
-1 -10 0 59.54 2.69
1 -10 1 10.33 1.14
-1 -10 -1 14.15 1.32
-1 -10 -1 11.91 1.14
-1 -10 -1 10.09 1.11
-1 -10 -2 26.2 1.73
1 -10 2 26.1 1.72
-1 -10 -2 22.51 1.47
-1 -10 -2 23.11 1.7
1 -10 3 53.67 2.13
-1 -10 -3 47.26 2.24
1 -10 3 54.24 2.42
-1 -10 -3 54.69 2.67
1 -10 4 62.29 2.27
-1 -10 -4 59.29 2.25
-1 -10 -4 65.3 2.86
1 -10 4 61.31 2.33
-1 -10 -5 47.29 2.25
1 -10 5 43.56 1.76
-1 -10 -6 5.95 0.72
1 -9 -8 8.85 0.79
1 -9 -8 9.65 0.8
1 -9 -7 267.58 6.35
1 -9 -7 277.02 5.91
-1 -9 7 290.14 6.78
1 -9 -7 288.19 6.3
1 -9 -6 261.91 6.18
-1 -9 6 264.96 6.8
1 -9 -6 264.37 6.14
-1 -9 5 12.5 1.3
1 -9 -5 13.07 1.19
-1 -9 5 12.79 1.33
1 -9 -5 12.86 1.08
-1 -9 4 58.45 2.8
1 -9 -4 63.19 2.65
-1 -9 4 54.67 2.8
-1 -9 3 398.09 9.78
-1 -9 3 389.48 9.84
-1 -9 2 248.96 7.26
-1 -9 2 260.61 7.2
1 -9 -1 381.03 9.01
-1 -9 1 372.11 9.16
1 -9 0 73.97 3.33
-1 -9 0 71.35 3.41
-1 -9 0 77.04 3.5
1 -9 1 13.14 1.39
-1 -9 -1 15.55 1.52
1 -9 1 12.41 1.22
-1 -9 -1 14.96 1.49
1 -9 2 4.12 0.85
-1 -9 -2 3.87 0.82
1 -9 2 3.77 0.72
-1 -9 -2 3.76 0.79
-1 -9 -2 3.64 0.69
1 -9 3 19.33 1.63
-1 -9 -3 16.76 1.47
1 -9 3 15.69 1.38
-1 -9 -3 15.3 1.4
-1 -9 -3 16.82 1.42
-1 -9 -4 1.44 0.5
1 -9 4 2.91 0.7
-1 -9 -4 1.26 0.47
1 -9 4 1.18 0.51
-1 -9 -4 1.98 0.56
-1 -9 -5 197.26 5.52
-1 -9 -5 193.6 5.1
1 -9 5 207.03 5.57
-1 -9 -6 23.14 1.56
1 -9 6 24.98 1.58
-1 -9 -6 22.19 1.54
-1 -9 -7 3.77 0.63
1 -9 7 4.1 0.64
-1 -9 -7 3.01 0.58
-1 -9 -7 2.69 0.65
1 -9 8 13.94 0.94
-1 -9 -8 13.14 0.99
-1 -9 -8 11.44 0.87
1 -8 -10 82.21 2.63
-1 -8 10 84.06 2.53
1 -8 -10 86.14 2.8
1 -8 -9 90.73 3.12
-1 -8 9 91.15 3.11
1 -8 -9 92.22 3.35
1 -8 -8 2.53 0.6
1 -8 -8 2.24 0.42
1 -8 -7 32.88 1.96
1 -8 -7 30.34 1.67
1 -8 -7 32.1 1.97
1 -8 -6 0.59 0.35
-1 -8 6 0.61 0.49
1 -8 -6 0.61 0.42
-1 -8 5 72.48 3.4
-1 -8 5 66.14 3.35
1 -8 -5 71.64 3.02
1 -8 -5 70.03 2.99
1 -8 -4 391.61 9.09
1 -8 -4 407.68 8.87
-1 -8 4 387.66 9.68
1 -8 -4 380.64 9.56
-1 -8 4 381.81 9.77
-1 -8 3 1144.74 22
-1 -8 3 1108.48 21.35
1 -8 -3 1139.6 20.48
1 -8 -3 1174.58 21.91
1 -8 -3 1128.26 21.23
-1 -8 3 1175.46 22.26
-1 -8 2 160.35 5.5
1 -8 -2 162.37 5.33
-1 -8 2 170.78 5.65
1 -8 -2 163.86 5.82
-1 -8 2 161.56 5.28
-1 -8 1 425.7 10.13
-1 -8 1 404.09 9.29
1 -8 -1 406.22 9.59
1 -8 -1 405.41 9.49
-1 -8 1 406.79 9.93
-1 -8 1 390.72 9.61
1 -8 -1 397.46 10.25
1 -8 0 44.07 2.38
-1 -8 0 42.1 2.61
-1 -8 0 43.96 2.48
1 -8 0 46.98 2.53
1 -8 0 44.17 2.47
-1 -8 0 41.62 2.56
-1 -8 0 43.88 2.28
-1 -8 0 42.68 2.55
1 -8 0 48.04 2.89
1 -8 1 96.69 3.74
-1 -8 -1 88.24 3.9
-1 -8 -1 99.24 3.99
1 -8 1 96.48 3.73
1 -8 1 98.65 3.87
-1 -8 -1 94.11 3.92
-1 -8 -1 93.12 3.59
1 -8 1 95.3 4.18
1 -8 2 1.9 0.59
-1 -8 -2 1.9 0.68
-1 -8 -2 2.35 0.66
1 -8 2 1.89 0.55
-1 -8 -2 2.57 0.69
1 -8 2 1.59 0.6
-1 -8 -2 2.63 0.66
1 -8 2 1.84 0.66
-1 -8 -3 6.09 1.01
1 -8 3 7.12 1
1 -8 3 4.79 0.93
-1 -8 -3 5.7 0.94
1 -8 3 5.68 0.81
-1 -8 -3 4.08 0.89
1 -8 3 7.44 1.03
-1 -8 -3 6.37 0.96
-1 -8 -4 15.2 1.33
-1 -8 -4 16.77 1.65
-1 -8 -4 16.71 1.59
-1 -8 -4 18.99 1.56
1 -8 4 16.19 1.51
1 -8 4 17.42 1.53
-1 -8 -4 15.92 1.52
1 -8 5 7.97 1.04
-1 -8 -5 7.29 1
-1 -8 -5 7.13 0.98
-1 -8 -5 6.99 1.12
-1 -8 -5 10.67 1.31
-1 -8 -5 8.01 0.98
1 -8 5 9.3 1.1
-1 -8 -6 76.09 3.47
-1 -8 -6 74.65 3.59
1 -8 6 68.41 3.07
-1 -8 -6 75.33 3.17
-1 -8 -7 4.64 0.88
-1 -8 -7 5.86 1.01
1 -8 7 4.39 0.78
-1 -8 -7 4.84 0.82
-1 -8 -8 94.62 3.53
-1 -8 -8 88 3.46
-1 -8 -8 93.44 3.67
1 -8 8 91.34 3.26
-1 -8 -8 82.11 3.19
-1 -8 -9 37.3 1.9
-1 -8 -9 31.27 1.55
-1 -8 -9 37.75 1.97
-1 -8 -9 35.34 1.73
1 -8 9 34.5 1.69
-1 -8 -10 2 0.38
1 -7 -11 98.47 3.08
-1 -7 11 95.58 2.72
-1 -7 10 60.14 2.45
-1 -7 9 150.84 4.71
1 -7 -8 67.5 3.21
-1 -7 8 58.21 2.91
1 -7 -8 63.95 2.43
1 -7 -8 62.16 3.01
1 -7 -7 191.96 6.01
1 -7 -7 202.29 5.34
1 -7 -6 259.1 6.87
-1 -7 6 236.19 7.01
-1 -7 6 226.87 6.45
1 -7 -6 241.65 6.77
1 -7 -6 250.32 6.56
1 -7 -6 244.27 7.07
1 -7 -6 259.31 6.38
1 -7 -5 507.8 10.48
1 -7 -5 526.51 10.86
-1 -7 5 496.9 11.25
1 -7 -5 458.12 10.53
-1 -7 5 445.07 10.5
1 -7 -5 488.36 11.18
1 -7 -5 502.45 10.5
-1 -7 5 453.55 11.13
-1 -7 4 120.4 4.47
-1 -7 4 106.06 3.99
1 -7 -4 116.56 3.94
1 -7 -4 116.86 4.35
1 -7 -4 109.75 3.78
-1 -7 4 117.12 4.49
1 -7 -4 105.11 3.78
-1 -7 3 67.23 3.22
-1 -7 3 61.09 2.89
1 -7 -3 63.3 2.66
1 -7 -3 63.04 3.03
1 -7 -3 67.73 2.79
1 -7 -3 67.35 2.86
-1 -7 3 60.29 3.08
-1 -7 2 173.63 5.62
-1 -7 2 185.48 5.5
1 -7 -2 183.78 4.82
-1 -7 2 174.67 4.88
1 -7 -2 177.44 5.01
-1 -7 2 192.11 5.78
-1 -7 1 1.15 0.52
-1 -7 1 1.18 0.45
1 -7 -1 1.72 0.46
1 -7 -1 1.28 0.49
1 -7 -1 1.37 0.51
-1 -7 1 1.64 0.54
-1 -7 1 2.46 0.54
-1 -7 0 54.23 2.89
1 -7 0 58.94 2.69
1 -7 0 58.62 2.71
1 -7 0 61.25 2.57
-1 -7 0 67.27 2.91
1 -7 0 61.5 2.74
-1 -7 0 52.85 2.72
-1 -7 0 60.96 2.91
-1 -7 0 65.61 2.77
1 -7 1 36.43 2.11
-1 -7 -1 34.69 2.27
-1 -7 -1 35.6 2.2
1 -7 1 35.71 1.94
1 -7 1 37.45 2.08
1 -7 1 39.65 2.16
-1 -7 -1 37.76 2.21
1 -7 1 42.79 2.55
-1 -7 -1 39.47 2.36
-1 -7 -1 38.25 2.16
1 -7 2 178.98 5.4
-1 -7 -2 195.37 6
1 -7 2 172.97 5.77
-1 -7 -2 192.31 5.61
-1 -7 -2 205.95 6.07
1 -7 2 191.29 5.48
-1 -7 -2 191.35 5.59
1 -7 3 406.91 9.38
-1 -7 -3 386.55 9.71
-1 -7 -3 409.88 9
-1 -7 -3 426.21 10.08
-1 -7 -3 421.82 9.73
1 -7 3 419.59 10.02
-1 -7 -3 400.52 9.92
-1 -7 -3 401.78 9.25
1 -7 3 390.52 9.25
-1 -7 -4 46.32 2.44
-1 -7 -4 51.79 3.01
1 -7 4 45.79 2.72
-1 -7 -4 45.31 2.65
-1 -7 -4 53 2.83
1 -7 4 48.23 2.56
-1 -7 -4 44.05 2.33
1 -7 4 48.04 2.51
-1 -7 -5 141.01 4.91
1 -7 5 143.09 4.79
-1 -7 -5 156.29 5.02
-1 -7 -5 138.18 5.37
-1 -7 -5 147.17 5.23
1 -7 5 139.28 5.11
-1 -7 -5 143.71 5.31
-1 -7 -5 140.76 4.41
-1 -7 -6 257.44 7.5
1 -7 6 234.64 7.09
-1 -7 -6 245.8 7.68
-1 -7 -6 233.75 6.62
1 -7 6 247.16 6.82
-1 -7 -6 264.7 7.21
-1 -7 -7 17.41 1.72
-1 -7 -7 12.51 1.59
1 -7 7 12.55 1.33
-1 -7 -7 14.38 1.5
-1 -7 -8 3.32 0.85
-1 -7 -8 3.04 0.87
1 -7 8 2.55 0.7
-1 -7 -8 2.89 0.75
-1 -7 -9 0.51 0.51
-1 -7 -9 0.7 0.52
-1 -7 -9 0.87 0.41
-1 -7 -9 1.43 0.58
1 -7 9 1.7 0.54
-1 -7 -10 11.33 1.16
-1 -7 -10 9.19 1
1 -7 10 11.09 0.98
1 -6 -12 17.63 1.14
1 -6 -12 17.49 1.21
1 -6 -11 84.19 3.18
-1 -6 11 84.56 2.85
1 -6 -10 0.36 0.42
-1 -6 10 0.35 0.38
1 -6 -9 45.82 2.65
-1 -6 9 46.96 2.52
1 -6 -8 57.83 3.12
-1 -6 8 56.18 2.89
1 -6 -8 56.4 2.33
1 -6 -7 17.42 1.59
-1 -6 7 15.26 1.5
1 -6 -7 15.28 1.56
1 -6 -7 14.12 1.45
1 -6 -7 15.39 1.21
1 -6 -6 0.33 0.42
-1 -6 6 0.56 0.47
1 -6 -6 0.18 0.3
1 -6 -6 0.91 0.49
1 -6 -5 1155.56 19.7
-1 -6 5 1040.37 20.06
1 -6 -5 924.99 19.14
1 -6 -5 1068.86 19.74
1 -6 -5 1075.22 19.36
1 -6 -5 1003.04 18.71
-1 -6 4 718.06 13.5
1 -6 -4 600.62 12.46
-1 -6 4 605.62 12.64
1 -6 -4 673.25 12.73
1 -6 -4 605.93 12.59
1 -6 -4 631.68 12.97
-1 -6 4 669.09 13.54
1 -6 -4 599.79 12.22
-1 -6 3 214.13 6.18
1 -6 -3 247.76 6.77
-1 -6 3 218.62 5.91
1 -6 -3 242.38 5.86
1 -6 -3 237.63 6.02
-1 -6 3 239.68 5.38
1 -6 -3 242.76 6.31
1 -6 -3 219.34 5.65
-1 -6 3 238.06 6.42
-1 -6 2 17.78 1.49
1 -6 -2 19.63 1.6
-1 -6 2 19.67 1.35
-1 -6 2 20.17 1.47
1 -6 -2 18.29 1.25
-1 -6 2 17.83 1.23
1 -6 -2 23.64 1.52
1 -6 -2 23.02 1.56
-1 -6 2 19.39 1.52
-1 -6 1 318.63 7.87
-1 -6 1 327 7.32
-1 -6 1 329.22 7.62
1 -6 -1 326.04 6.92
1 -6 -1 325.36 7.4
-1 -6 1 336.7 7.3
1 -6 -1 310.45 7.14
-1 -6 0 233.4 6.39
1 -6 0 240.98 5.93
1 -6 0 257.92 6.12
-1 -6 0 253.88 6.1
-1 -6 0 244.31 6.22
1 -6 0 220.06 5.7
-1 -6 0 242.55 6.25
-1 -6 0 260.8 6.12
1 -6 1 1423.86 24.74
-1 -6 -1 1494.61 25.56
-1 -6 -1 1508.29 25.16
1 -6 1 1441.55 24.81
-1 -6 -1 1341.48 24.67
1 -6 1 1370.79 24.49
-1 -6 -1 1362.9 24.76
-1 -6 -1 1427.06 25.14
-1 -6 -2 202.64 5.77
1 -6 2 198.01 5.33
-1 -6 -2 192.18 5.41
-1 -6 -2 192.36 5.56
1 -6 2 182.53 5.19
1 -6 2 210.74 5.34
-1 -6 -2 204.04 5.36
1 -6 3 135.8 4.31
-1 -6 -3 138.64 4.69
-1 -6 -3 136.91 4.49
-1 -6 -3 140.06 4.19
1 -6 3 139.09 4.25
-1 -6 -3 139.08 4.16
1 -6 3 127.94 4.1
-1 -6 -4 103.96 4
-1 -6 -4 108.69 4.08
-1 -6 -4 110.31 3.86
-1 -6 -4 106.04 4.15
1 -6 4 100.03 3.62
1 -6 4 100.6 3.59
-1 -6 -4 102.74 3.49
-1 -6 -5 9.04 1.16
-1 -6 -5 9.47 1.21
-1 -6 -5 10.1 1.18
1 -6 5 7.61 0.98
-1 -6 -5 8.81 1.21
-1 -6 -5 7.74 0.89
-1 -6 -6 12.76 1.38
-1 -6 -6 7.68 1.17
-1 -6 -6 10.33 1.21
-1 -6 -6 10.33 1.34
-1 -6 -7 2.32 0.76
-1 -6 -7 2.34 0.77
-1 -6 -8 57.9 3.16
-1 -6 -8 58.11 3.28
-1 -6 -9 234.89 6.64
-1 -6 -9 275.72 7.66
-1 -6 -10 25.29 1.92
-1 -6 -11 3.42 0.67
-1 -6 -11 4.25 0.71
-1 -5 12 65.17 2.22
1 -5 -12 77.67 2.81
-1 -5 11 -0.09 0.3
1 -5 -11 3.49 0.73
-1 -5 10 6.62 0.93
1 -5 -10 6.21 1.01
1 -5 -9 163.55 5.83
-1 -5 9 171.72 5.31
1 -5 -9 162.26 5.47
1 -5 -8 82.19 3.6
-1 -5 8 90.39 3.68
1 -5 -8 87.83 3.97
-1 -5 8 80.63 3.39
1 -5 -8 88.81 2.94
1 -5 -7 67.34 3.24
1 -5 -7 64.17 2.48
1 -5 -7 63.32 2.97
-1 -5 7 61.42 2.84
1 -5 -7 68.04 3.02
1 -5 -7 57.86 2.87
-1 -5 6 274.95 7.43
1 -5 -6 298.51 7.52
-1 -5 6 298.04 7.15
1 -5 -6 294.79 7.23
1 -5 -6 272.63 7.1
1 -5 -6 298.59 6.67
1 -5 -5 502.6 10.05
1 -5 -5 511.11 10.64
-1 -5 5 546.58 11.01
1 -5 -5 468.73 10.56
-1 -5 5 545.09 10.69
1 -5 -5 549.82 10.86
1 -5 -5 499.89 10.64
-1 -5 5 475.96 10.99
1 -5 -4 1416.44 23.55
1 -5 -4 1314.61 23.51
-1 -5 4 1379.18 23.43
1 -5 -4 1393.11 23.6
1 -5 -4 1313.54 22.94
-1 -5 4 1416 24.14
1 -5 -3 1.58 0.42
-1 -5 3 1.66 0.32
1 -5 -3 1.1 0.4
1 -5 -3 1.75 0.45
1 -5 -3 1.5 0.45
1 -5 -2 130.05 3.76
-1 -5 2 124.01 3.28
1 -5 -2 119.27 3.91
-1 -5 2 127.02 3.68
1 -5 -1 1.66 0.44
-1 -5 1 1.9 0.46
1 -5 -1 1.29 0.42
-1 -5 0 328.71 7.17
1 -5 0 352.44 7.56
1 -5 0 357.62 7.8
-1 -5 0 344.01 7.44
1 -5 1 725.9 13.65
-1 -5 -1 734.14 12.27
-1 -5 -1 744.84 13.66
-1 -5 -1 713.38 13.66
-1 -5 -2 175.26 4.89
1 -5 2 187.51 4.91
-1 -5 -2 192.7 4.06
-1 -5 -2 188.33 5.13
-1 -5 -2 180.65 4.86
-1 -5 -2 201.15 5.19
-1 -5 -3 1230.93 22.17
-1 -5 -3 1272.62 22.85
-1 -5 -3 1232.21 22.54
-1 -5 -4 19.54 1.42
1 -5 4 18.31 1.42
-1 -5 -4 17.64 1.47
-1 -5 -4 16.76 1.42
-1 -5 -4 20.36 1.53
-1 -5 -5 28.71 1.88
1 -5 5 31.7 1.97
-1 -5 -5 32.01 2.07
-1 -5 -5 28.73 1.93
-1 -5 -5 28.74 1.97
-1 -5 -6 45.06 2.52
-1 -5 -6 40.5 2.48
-1 -5 -6 42.99 2.4
-1 -5 -6 44.1 2.6
-1 -5 -7 305.46 8.53
-1 -5 -7 372.49 9.32
-1 -5 -8 188.46 6.37
-1 -5 -9 24.69 1.83
-1 -5 -9 30.65 2.31
-1 -5 -10 13.32 1.58
-1 -5 -10 13.87 1.5
-1 -5 -11 5.11 0.91
-1 -5 -11 5.05 0.92
-1 -5 -12 7.22 0.77
1 -5 12 7.01 0.7
-1 -5 -12 7.76 0.86
1 -4 -13 5.16 0.59
-1 -4 12 15.69 1.06
1 -4 -12 16.1 1.3
-1 -4 12 15.54 1.15
1 -4 -12 -0.04 0.11
1 -4 -12 16.19 1.24
1 -4 -12 0.04 0.12
-1 -4 11 70.78 2.85
1 -4 -11 71.21 3.2
-1 -4 11 61.34 2.91
-1 -4 11 66.29 2.96
1 -4 -11 69.33 2.96
1 -4 -11 75.38 3.22
1 -4 -11 68.33 2.84
-1 -4 10 139.88 4.97
1 -4 -10 165.17 5.32
1 -4 -10 159.59 4.92
1 -4 -10 151.87 5
1 -4 -10 172.41 5.36
1 -4 -9 3.59 0.76
1 -4 -9 5.5 0.93
1 -4 -9 4.44 0.81
1 -4 -9 4.99 1.07
1 -4 -9 5.21 0.85
-1 -4 9 4.17 0.81
1 -4 -9 3.18 0.73
1 -4 -8 23.48 1.97
1 -4 -8 25.07 1.68
1 -4 -8 24.09 1.72
1 -4 -8 24.4 1.73
1 -4 -8 23.31 1.77
1 -4 -8 22.48 1.69
1 -4 -8 24.1 1.76
1 -4 -7 7.52 0.96
1 -4 -7 6.7 0.83
1 -4 -7 5.93 0.7
1 -4 -7 6.13 0.8
1 -4 -7 6.47 0.98
1 -4 -7 7.49 0.86
-1 -4 7 7.17 0.92
1 -4 -7 6.19 0.91
1 -4 -7 5.36 0.78
1 -4 -7 7.37 0.91
1 -4 -6 45.73 2.25
-1 -4 6 50.14 2.3
1 -4 -6 45.21 2.39
1 -4 -6 53.61 2.16
1 -4 -6 51.46 2.15
1 -4 -6 50.62 2.26
1 -4 -6 52.07 2.4
1 -4 -6 52.18 2.16
1 -4 -5 39.09 1.98
1 -4 -5 41.87 1.92
-1 -4 5 35.15 1.78
1 -4 -5 38.8 1.93
1 -4 -5 39.4 1.67
1 -4 -5 37.76 1.59
1 -4 -5 42.55 1.71
1 -4 -4 4346 66.53
1 -4 -4 4490.85 66.64
1 -4 -4 4411.25 67.48
-1 -4 4 4454.16 67.47
-1 -4 4 4324.86 66.1
1 -4 -4 4380.89 66.6
1 -4 -3 1742.69 27.95
1 -4 -3 1728.38 26.25
-1 -4 3 1466.06 26.33
1 -4 -3 1757.58 27.38
-1 -4 3 1550.13 26.41
1 -4 -3 1779.73 27.64
-1 -4 3 1657.32 27.31
-1 -4 3 1586.24 26.17
1 -4 -2 330.94 6.85
-1 -4 2 296.91 5.38
-1 -4 2 308.11 5.95
1 -4 -2 348.26 6.77
-1 -4 2 299.15 5.28
-1 -4 1 601.91 10.23
1 -4 -1 684.81 11.93
-1 -4 1 695.65 11.37
-1 -4 1 634.64 11.48
1 -4 -1 700.5 12.04
-1 -4 0 939.65 15.48
1 -4 0 826.92 15.63
-1 -4 0 866.17 14.35
-1 -4 0 933.76 15.6
1 -4 0 948.25 15.97
-1 -4 -1 213.07 4.18
-1 -4 -1 219.71 4.98
-1 -4 -2 141.06 3.02
-1 -4 -2 131.39 3.04
-1 -4 -3 1258.49 20.64
-1 -4 -3 1190.78 21.56
1 -4 3 1272.27 20.47
-1 -4 -3 1214.8 20.65
-1 -4 -4 220.01 5.66
-1 -4 -4 248.31 5.33
-1 -4 -4 230.63 5.27
-1 -4 -4 264.63 6.12
1 -4 4 242.93 5.07
-1 -4 -4 257.32 6.14
-1 -4 -4 235.22 5.36
-1 -4 -5 140.31 4.36
-1 -4 -5 142.24 4.34
-1 -4 -5 150.7 4.58
1 -4 5 146.91 3.68
-1 -4 -5 135.68 4.04
-1 -4 -5 127.77 4.29
-1 -4 -5 144.9 3.98
-1 -4 -5 137.55 3.92
-1 -4 -6 153.5 4.48
-1 -4 -6 141.87 4.42
-1 -4 -6 147.41 4.75
-1 -4 -6 157.78 5.05
1 -4 6 157.04 4.15
-1 -4 -6 161.25 4.68
-1 -4 -6 147.55 4.39
-1 -4 -7 317.38 7.62
1 -4 7 313.1 7.12
-1 -4 -7 299.53 7.39
-1 -4 -7 316.22 8.1
-1 -4 -7 294.16 7.68
-1 -4 -7 325.86 7.76
-1 -4 -7 288.93 7.51
-1 -4 -8 19.4 1.65
-1 -4 -8 20.96 1.66
-1 -4 -8 23.62 1.96
-1 -4 -8 22.52 1.87
-1 -4 -8 23.77 1.83
-1 -4 -9 0.8 0.55
-1 -4 -9 1.71 0.58
-1 -4 -9 0.17 0.51
-1 -4 -9 1.35 0.59
-1 -4 -9 1.24 0.51
-1 -4 -10 0.16 0.53
-1 -4 -10 0.17 0.43
-1 -4 -10 0.36 0.38
-1 -4 -10 0.5 0.57
-1 -4 -10 0.14 0.41
-1 -4 -10 0.06 0.35
-1 -4 -11 77 3.45
-1 -4 -11 80.88 3.56
-1 -4 -11 68.88 2.85
-1 -4 -11 73.06 3.19
-1 -4 -11 74.22 3.01
-1 -4 -12 7.48 0.86
-1 -4 -12 8.53 0.97
1 -3 -13 56 2.11
1 -3 -13 52.33 1.98
1 -3 -13 54.01 2.22
-1 -3 13 52.47 2.06
1 -3 -12 136.53 4.02
1 -3 -12 150.04 4.29
1 -3 -12 141 3.92
-1 -3 12 132.62 4.19
1 -3 -12 153.39 4.58
1 -3 -11 185.8 5.68
1 -3 -11 178.27 5.73
1 -3 -11 194.72 6.08
1 -3 -11 184.26 5.62
1 -3 -10 157.57 5.14
1 -3 -10 161.09 5.37
1 -3 -10 152.85 5.12
-1 -3 10 153.17 5.14
1 -3 -10 158.4 5.43
1 -3 -10 147.01 5.34
1 -3 -10 151.54 5.28
1 -3 -10 155.56 5.37
-1 -3 9 39.62 2.37
1 -3 -9 44.91 2.48
1 -3 -9 42.12 2.53
1 -3 -9 46.13 2.61
1 -3 -9 45.66 2.48
1 -3 -9 39.2 2.41
1 -3 -9 38.16 2.35
1 -3 -8 429.1 9.46
1 -3 -8 400.25 10.16
-1 -3 8 429.05 9.59
1 -3 -8 422.35 9.68
1 -3 -8 432.45 9.72
1 -3 -8 406.39 9.54
1 -3 -8 420.39 9.53
1 -3 -8 431.66 9.53
1 -3 -7 40.02 2.06
1 -3 -7 36.77 2.01
1 -3 -7 38.2 2.04
1 -3 -7 41.26 2.38
1 -3 -7 40.95 2.04
-1 -3 7 34.95 1.99
1 -3 -7 36.77 1.79
1 -3 -7 41.22 2.07
1 -3 -7 39.41 2.08
1 -3 -6 1107.09 19.84
1 -3 -6 1134.1 19.27
1 -3 -6 1111.41 19.14
1 -3 -6 1065.44 18.88
1 -3 -6 1082.1 19.26
1 -3 -5 155.73 3.89
-1 -3 5 150.26 4.06
1 -3 -5 159.08 3.88
1 -3 -4 211.09 4.57
1 -3 -4 185.9 4.66
-1 -3 4 195.79 3.6
-1 -3 4 217.35 4.77
1 -3 -4 209.7 4.41
-1 -3 3 108.29 2.86
-1 -3 3 100.69 2.22
1 -3 -3 104.17 2.96
1 -3 -3 111.67 3.1
-1 -3 2 239.64 4.97
-1 -3 2 229.11 4.16
1 -3 -2 249.19 5.2
-1 -3 2 246.13 4.49
1 -3 -2 255.82 5.22
-1 -3 2 223.51 4.51
-1 -3 1 6.63 0.49
1 -3 -1 8.66 0.7
-1 -3 1 7.25 0.26
1 -3 -1 8.36 0.66
-1 -3 1 7.34 0.55
-1 -3 1 6.9 0.4
-1 -3 1 7 0.39
-1 -3 0 87.4 2.22
1 -3 0 86.3 2.44
-1 -3 0 80.96 1.62
-1 -3 0 92.02 2.28
-1 -3 0 80.92 1.7
-1 -3 -1 1227.46 20.09
-1 -3 -1 1229.97 19.9
1 -3 1 1259.59 20.99
-1 -3 -1 1254.33 20.7
-1 -3 -1 1234.79 19.95
-1 -3 -1 1237.81 20.22
-1 -3 -2 691.41 12.01
-1 -3 -2 672.82 11.94
-1 -3 -2 695.89 11.92
1 -3 2 696.85 11.63
-1 -3 -3 11.5 0.77
-1 -3 -3 10.67 0.87
-1 -3 -3 10.5 0.72
-1 -3 -3 10.48 0.73
1 -3 3 10.28 0.62
-1 -3 -4 1733.37 28.42
-1 -3 -4 1777.24 28.79
-1 -3 -4 1702.54 28.3
-1 -3 -4 1703.4 28.29
1 -3 4 1639.83 27.79
-1 -3 -5 1929.3 33.65
1 -3 5 2037.11 33.1
-1 -3 -5 1966.51 33.88
-1 -3 -5 2065.03 33.66
-1 -3 -5 2062.96 33.71
-1 -3 -6 904.07 17.18
-1 -3 -6 926.11 17.6
1 -3 6 933.17 16.54
-1 -3 -6 881.42 16.97
-1 -3 -6 976.37 17.58
-1 -3 -6 883.42 17.1
-1 -3 -6 947.75 17.29
-1 -3 -6 1000.22 17.57
-1 -3 -7 32.62 2.03
-1 -3 -7 31.88 2.14
-1 -3 -7 29.78 1.89
1 -3 7 31.88 1.77
-1 -3 -7 29.96 2
-1 -3 -7 30.72 2
-1 -3 -7 28.8 1.93
-1 -3 -7 28.21 1.95
-1 -3 -7 28.44 1.99
-1 -3 -8 85.3 3.64
-1 -3 -8 91.46 3.96
-1 -3 -8 83.16 3.53
1 -3 8 80.4 3.21
-1 -3 -8 77.21 3.58
-1 -3 -8 86.18 3.73
-1 -3 -8 85.11 3.72
-1 -3 -8 75.75 3.66
-1 -3 -8 80.11 3.68
-1 -3 -9 6.28 1.04
-1 -3 -9 5.52 1.05
1 -3 9 5.26 0.87
-1 -3 -9 5.16 0.95
-1 -3 -9 5.01 0.97
-1 -3 -9 4.97 0.96
-1 -3 -9 4.56 0.94
-1 -3 -9 5.77 1.08
-1 -3 -9 5.51 1.03
-1 -3 -10 25.87 2.08
-1 -3 -10 28.34 2.27
-1 -3 -10 25.55 2.02
-1 -3 -10 26.86 2.08
-1 -3 -10 25.54 2.16
-1 -3 -11 16.63 1.6
-1 -3 -11 16.25 1.55
-1 -3 -11 16.57 1.53
-1 -3 -11 18.52 1.64
-1 -3 -11 17.34 1.73
-1 -3 -12 49.67 2.44
-1 -3 -12 51.85 2.44
-1 -3 -12 49.27 2.44
-1 -3 -12 51.02 2.64
-1 -3 -12 50.7 2.26
-1 -3 -13 74.39 2.57
-1 -3 -13 69.92 2.34
1 -2 -14 12.35 0.89
-1 -2 14 12.15 0.89
1 -2 -14 13.06 0.99
-1 -2 13 140.56 4.64
1 -2 -13 164.17 4.75
1 -2 -13 159.04 4.62
-1 -2 13 145.88 4.64
1 -2 -13 161.08 4.92
1 -2 -12 6.32 0.98
1 -2 -12 7.3 1.08
-1 -2 12 5.11 0.99
1 -2 -12 7.28 1.12
1 -2 -11 138.18 4.93
1 -2 -11 130.5 4.95
1 -2 -11 122.16 4.29
1 -2 -11 148.75 5.29
-1 -2 10 44.06 2.58
1 -2 -10 45.25 2.64
1 -2 -10 39.39 2.6
1 -2 -10 43.07 2.71
1 -2 -10 41.87 2.36
1 -2 -10 41.97 2.65
1 -2 -10 42.82 2.64
1 -2 -9 250.71 6.91
-1 -2 9 232.61 6.69
1 -2 -9 254.42 7.16
1 -2 -9 261.53 7.22
1 -2 -9 248.6 6.54
1 -2 -9 244.59 7.01
1 -2 -9 263.75 7.14
-1 -2 8 60.93 2.78
1 -2 -8 56.26 3.02
1 -2 -8 56.82 2.69
1 -2 -8 55.89 2.74
1 -2 -8 56.82 2.77
1 -2 -8 65.22 2.93
1 -2 -8 66.15 2.89
1 -2 -8 54.89 2.49
1 -2 -7 4.88 0.85
1 -2 -7 5.03 0.73
-1 -2 7 4.87 0.73
1 -2 -7 4.75 0.71
1 -2 -7 5.74 0.8
1 -2 -7 5.72 0.73
1 -2 -6 810.51 15.2
1 -2 -6 825.81 14.61
1 -2 -6 841.53 15.2
1 -2 -5 381.26 7.24
1 -2 -5 364.96 7.65
-1 -2 5 404.32 7.84
1 -2 -5 389.15 7.64
1 -2 -4 50.57 1.61
1 -2 -4 54.44 1.15
1 -2 -4 51.5 1.85
-1 -2 4 56.07 1.93
-1 -2 3 1704.08 27.37
-1 -2 3 1987.18 28.63
1 -2 -2 8873.45 138.84
-1 -2 1 5726.93 86.44
-1 -2 1 5676.04 86.07
-1 -2 0 79.6 1.92
-1 -2 0 77.77 1.85
-1 -2 0 83.45 1.8
1 -2 1 598.33 9.71
-1 -2 -1 625.91 10.3
-1 -2 -1 608.48 10.08
-1 -2 -1 616.81 10.24
-1 -2 -1 584.18 10.15
-1 -2 -2 119.07 2.67
-1 -2 -2 114.63 2.65
1 -2 2 109.49 2.32
-1 -2 -2 110.2 2.53
-1 -2 -2 110.26 2.78
-1 -2 -3 100.4 2.68
-1 -2 -3 100.44 2.74
-1 -2 -3 107.17 2.68
-1 -2 -3 112.83 2.73
1 -2 3 89.69 2.27
-1 -2 -4 98.44 2.85
-1 -2 -4 85.58 2.72
-1 -2 -4 93.32 2.74
-1 -2 -4 89.94 2.71
1 -2 4 97.85 2.48
-1 -2 -5 183.81 4.76
-1 -2 -5 188.61 4.7
-1 -2 -5 196.37 4.77
-1 -2 -6 137.49 4.22
-1 -2 -6 154.72 4.49
1 -2 6 125.09 3.69
-1 -2 -6 143.15 4.19
-1 -2 -6 146.66 4.28
-1 -2 -6 145.82 4.39
-1 -2 -6 143.75 4.29
-1 -2 -6 134.17 4.18
-1 -2 -7 108.72 4.04
-1 -2 -7 116.92 4.07
-1 -2 -7 127.77 4.34
-1 -2 -7 123.35 4.15
1 -2 7 129.68 3.85
-1 -2 -7 125.09 4.37
-1 -2 -7 123.94 4.33
-1 -2 -7 106.97 4.02
-1 -2 -7 118.75 4.14
-1 -2 -8 175.32 5.56
-1 -2 -8 161.49 5.31
-1 -2 -8 157.05 5.01
1 -2 8 174.27 5.03
-1 -2 -8 158.55 5.4
-1 -2 -8 169.25 5.42
-1 -2 -8 166.19 5.67
-1 -2 -8 165.01 5.65
-1 -2 -8 175.78 5.63
-1 -2 -8 156.46 5.36
-1 -2 -9 58.48 3.2
-1 -2 -9 63.57 3.21
-1 -2 -9 58.08 2.93
-1 -2 -9 66.53 3.34
-1 -2 -9 61.24 3.29
1 -2 9 64.5 2.96
-1 -2 -9 62.87 3.45
-1 -2 -9 58.57 3.32
-1 -2 -9 58.2 3.24
-1 -2 -9 61.06 3.33
-1 -2 -10 24.28 2.08
-1 -2 -10 20.6 1.85
-1 -2 -10 25.61 2.04
-1 -2 -10 24.94 2.07
1 -2 10 21.59 1.75
-1 -2 -10 24.81 2.22
-1 -2 -10 26.03 2.24
-1 -2 -10 22.77 2.06
-1 -2 -10 21.91 2.05
-1 -2 -11 210.34 6.44
-1 -2 -11 223.91 6.25
-1 -2 -11 217.97 7.04
-1 -2 -11 211.84 6.66
-1 -2 -11 221.01 6.74
-1 -2 -12 267.35 6.82
-1 -2 -12 277.2 7.34
-1 -2 -12 283.43 7.39
-1 -2 -12 271.59 7.63
-1 -2 -13 280.41 6.57
-1 -2 -13 274.32 6.87
-1 -2 -13 283.36 6.65
-1 -1 14 4.54 0.69
-1 -1 14 5.95 0.73
1 -1 -14 5.35 0.73
1 -1 -14 6 0.71
1 -1 -14 5.79 0.68
-1 -1 13 8.02 1.16
1 -1 -13 9.19 1.07
1 -1 -13 10.66 1.14
1 -1 -13 8.88 1.14
1 -1 -12 539.68 12.04
1 -1 -12 539.19 12.17
1 -1 -12 530.96 12.53
1 -1 -11 -0.22 0.46
1 -1 -11 0.33 0.53
1 -1 -11 0.08 0.43
-1 -1 10 337.95 8.73
1 -1 -10 346.74 9.01
1 -1 -10 364.93 9.24
1 -1 -10 348.98 9.17
1 -1 -10 375.14 9.46
1 -1 -10 357.31 9.35
1 -1 -10 337.67 8.11
-1 -1 9 350.63 8.58
1 -1 -9 353.94 8.81
1 -1 -9 363.07 9.01
1 -1 -9 372.25 9.01
1 -1 -9 362.25 9.09
1 -1 -9 386.5 9.28
1 -1 -9 336.67 8.01
1 -1 -8 265.65 6.51
-1 -1 8 269.95 6.93
1 -1 -8 320.73 7.42
-1 -1 8 273.22 6.48
1 -1 -8 290.06 7.36
1 -1 -8 290.91 7.35
1 -1 -8 300.18 7.43
1 -1 -8 293.65 7.2
-1 -1 7 419.79 8.89
1 -1 -7 436.65 9.01
1 -1 -6 104.71 3.16
-1 -1 6 111.01 3.3
1 -1 -6 103.42 3.23
1 -1 -5 129.68 2.51
1 -1 -5 124.87 2.8
1 -1 -5 132.12 3.33
1 -1 -4 602.46 10.21
1 -1 -4 577.33 10.76
-1 -1 4 584.86 10.79
1 -1 -3 54.5 1.66
1 -1 -3 57.09 1.37
1 -1 -3 56.02 1.37
-1 -1 3 51.79 1.63
1 -1 -2 1413.53 22.86
-1 -1 2 1412.83 22.8
1 -1 -2 1411.61 22.72
1 -1 -1 1159.49 19.24
1 -1 -1 1195.81 19.02
-1 -1 0 187.1 3.38
-1 -1 0 168.35 3.01
-1 -1 0 191.99 3.36
-1 -1 0 162.54 3.28
1 -1 0 178.57 3.49
-1 -1 0 173.06 3.25
-1 -1 0 176.06 3.48
1 -1 1 3516.27 53.06
-1 -1 -1 3440.35 53.44
-1 -1 -1 3409.22 53.6
-1 -1 -1 3516.68 53.56
-1 -1 -2 1223.97 18.95
-1 -1 -2 1277.03 18.99
1 -1 2 1098.47 18.49
-1 -1 -2 1052.12 18.71
-1 -1 -2 1098.81 18.85
-1 -1 -2 1248.71 19.06
1 -1 3 1498.79 24.78
-1 -1 -3 1469.15 25.14
-1 -1 -3 1599.35 25.24
-1 -1 -3 1604.34 25.32
1 -1 4 3749.87 59.69
-1 -1 -4 3760.62 60.14
-1 -1 -4 3787.58 60.09
-1 -1 -4 3741.34 60.18
1 -1 5 106.09 2.89
-1 -1 -5 106.78 3.22
-1 -1 -5 102.43 3.23
-1 -1 -6 1781.23 28.99
-1 -1 -6 1720.68 28.77
-1 -1 -6 1685.1 28.7
-1 -1 -7 0.51 0.37
-1 -1 -7 1.25 0.49
-1 -1 -7 0.34 0.33
-1 -1 -7 0.87 0.39
-1 -1 -7 0.6 0.36
-1 -1 -7 0.65 0.39
1 -1 7 0.79 0.38
-1 -1 -7 0.98 0.46
-1 -1 -7 0.36 0.32
-1 -1 -8 793.41 15.47
-1 -1 -8 701.53 14.73
-1 -1 -8 677.72 14.59
1 -1 8 793.58 14.63
-1 -1 -8 758.48 15.22
-1 -1 -8 787.34 15.46
-1 -1 -8 753.58 15.38
-1 -1 -8 684.91 15.07
-1 -1 -8 725.28 15.46
-1 -1 -8 745.63 15.57
-1 -1 -9 197.65 6.37
-1 -1 -9 191.25 5.94
-1 -1 -9 176.61 5.8
-1 -1 -9 206.77 6.4
-1 -1 -9 192.36 6.17
1 -1 9 192.23 5.71
-1 -1 -9 181.49 6.24
-1 -1 -9 198.74 6.47
-1 -1 -9 198.77 6.58
-1 -1 -9 184.04 6.39
-1 -1 -10 1.77 0.69
-1 -1 -10 4.82 0.91
-1 -1 -10 4.3 0.99
-1 -1 -10 4.35 0.98
-1 -1 -10 3.12 0.86
1 -1 10 3.28 0.74
-1 -1 -10 2.64 0.86
-1 -1 -10 2.36 0.74
-1 -1 -10 2.42 0.8
-1 -1 -11 3.8 0.79
-1 -1 -11 4.76 1
-1 -1 -11 5.61 1.1
-1 -1 -11 3.59 0.98
-1 -1 -12 0.21 0.53
-1 -1 -12 2.09 0.72
-1 -1 -12 1.6 0.68
-1 -1 -13 7.86 0.95
-1 -1 -13 9.53 1.12
-1 -1 -13 8.21 0.98
-1 -1 -14 12.42 0.92
-1 0 14 0.25 0.34
-1 0 14 0.04 0.32
1 0 -14 -0.13 0.37
1 0 -14 0.04 0.26
1 0 -14 0.38 0.29
-1 0 13 153.18 5.28
1 0 -13 165.95 5.03
1 0 -13 166.35 5.08
1 0 -13 160.95 5.22
1 0 -12 0.41 0.42
1 0 -12 -0.08 0.63
1 0 -12 0.14 0.5
1 0 -11 237.63 7.03
1 0 -11 236.45 7.13
1 0 -11 237.41 7.16
1 0 -11 239.61 7.3
1 0 -11 214.97 7.05
1 0 -10 -0.07 0.45
-1 0 10 0.35 0.33
1 0 -10 0.38 0.42
1 0 -10 0.08 0.32
1 0 -10 0.08 0.44
1 0 -10 0.16 0.5
1 0 -9 272.41 7.18
-1 0 9 270.16 6.5
1 0 -9 255.29 7.15
1 0 -9 251.57 7.03
1 0 -9 250.66 7.16
1 0 -9 252.47 7.16
1 0 -8 27.53 1.74
-1 0 8 0.09 0.25
1 0 -8 18.6 1.49
1 0 -8 14.71 1.33
1 0 -8 0.71 0.43
1 0 -8 1.7 0.5
1 0 -7 2304.59 37.7
1 0 -7 2350.26 39.42
1 0 -6 0.79 0.2
1 0 -6 0.07 0.25
1 0 -5 14.7 0.7
1 0 -4 0.05 0.16
1 0 -4 0.16 0.12
1 0 -3 2561.89 40.26
1 0 -3 2555.31 40.88
-1 0 3 2525.27 40.97
1 0 -2 0.32 0.14
-1 0 2 0.14 0.15
1 0 -1 3124.99 50.91
-1 0 1 3238 50.86
-1 0 0 0.24 0.14
-1 0 0 0.18 0.16
-1 0 0 0.37 0.14
-1 0 0 0.01 0.11
-1 0 -1 4424.89 67.62
-1 0 -1 4281.76 67.61
-1 0 -1 4382.73 67.68
-1 0 -1 4164.18 67.52
-1 0 -2 0.1 0.19
-1 0 -2 0.08 0.17
1 0 2 0.17 0.07
-1 0 -2 0.07 0.18
-1 0 -2 0.01 0.17
-1 0 -3 16.2 0.88
-1 0 -3 14.87 0.85
1 0 3 14.92 0.49
-1 0 -3 15.97 0.9
-1 0 -3 14.89 0.82
-1 0 -4 0.29 0.25
1 0 4 0.77 0.27
1 0 4 0.19 0.09
-1 0 -4 0.87 0.29
-1 0 -4 0.14 0.23
-1 0 -5 349.83 7.47
-1 0 -5 355.98 7.47
-1 0 -5 344.55 7.39
1 0 5 350.65 7.13
1 0 6 0.18 0.29
-1 0 -6 0.27 0.32
-1 0 -6 0.6 0.34
-1 0 -7 241.03 6.56
-1 0 -7 256.01 6.31
-1 0 -7 230.96 6.07
-1 0 -7 265.08 6.6
1 0 7 240.19 6.04
-1 0 -7 263.58 6.64
-1 0 -7 242.38 6.64
-1 0 -7 258.92 6.82
-1 0 -7 236.37 6.48
-1 0 -7 272.42 6.73
-1 0 -8 -0.07 0.38
-1 0 -8 0.14 0.36
-1 0 -8 -0.07 0.34
-1 0 -8 -0.06 0.32
-1 0 -8 0.26 0.43
1 0 8 0.27 0.3
-1 0 -8 0.22 0.39
-1 0 -8 0.07 0.37
-1 0 -8 0.18 0.32
-1 0 -9 1195.17 22.93
-1 0 -9 1211.04 22.14
-1 0 -9 1143.24 22.42
-1 0 -9 1289 23.13
1 0 9 1163.51 21.93
-1 0 -9 1154.02 23.02
-1 0 -9 1097.75 22.95
-1 0 -9 1261.78 23.1
-1 0 -9 1161.22 22.89
-1 0 -10 0.36 0.46
-1 0 -10 0.09 0.47
-1 0 -10 0.42 0.47
-1 0 -10 -0.06 0.36
-1 0 -10 0.17 0.49
1 0 10 -0.13 0.35
-1 0 -10 0.19 0.54
-1 0 -10 0.08 0.46
-1 0 -10 0.19 0.45
-1 0 -11 2206.34 39.03
-1 0 -11 2230.25 39.52
-1 0 -11 2251.89 39.53
-1 0 -11 2207.22 40.06
-1 0 -12 0.49 0.5
-1 0 -12 0.78 0.57
-1 0 -12 0.73 0.58
-1 0 -13 14.48 1.31
-1 0 -13 14.77 1.4
-1 0 -13 17.12 1.39
-1 0 -14 0.03 0.24
-1 1 14 4.47 0.68
1 1 -14 5.29 0.66
1 1 -14 6.13 0.69
1 1 -14 5.53 0.73
-1 1 14 6.44 0.77
1 1 -13 8.53 1.02
1 1 -13 10.69 1.13
1 1 -13 8.09 1.1
-1 1 13 10.13 1.26
1 1 -12 547.57 12.56
1 1 -12 558.91 12.36
1 1 -12 560.12 12.25
-1 1 11 0.05 0.28
1 1 -11 -0.07 0.47
1 1 -11 0.08 0.49
1 1 -11 0.23 0.49
1 1 -10 381.71 9.47
1 1 -10 360.39 9.23
-1 1 10 346.4 8.88
1 1 -10 341.92 9
-1 1 10 374.75 8.51
1 1 -10 356.04 9.39
1 1 -10 381.16 9.64
1 1 -9 369.68 8.74
1 1 -9 351.35 8.72
-1 1 9 340.37 8.3
1 1 -9 366.75 8.68
-1 1 9 330.95 8.02
1 1 -9 340.77 8.71
1 1 -9 349.76 8.76
-1 1 8 262.67 6.63
1 1 -8 239.89 6.73
-1 1 8 287.04 6.93
1 1 -8 293.28 7.15
1 1 -8 267.88 7.04
1 1 -8 280.16 7.13
1 1 -8 277.54 5.95
1 1 -8 275.2 7.09
1 1 -8 304.31 7.16
1 1 -7 384 8.45
-1 1 7 364.11 8.19
1 1 -7 381.4 7.48
1 1 -7 392.39 8.44
1 1 -6 107.22 2.74
-1 1 6 103.66 3.12
1 1 -6 106.37 3.2
1 1 -5 132.4 2.83
1 1 -5 142.05 3.15
-1 1 5 135.15 3.4
-1 1 4 630.94 10.89
1 1 -4 606.88 10.2
-1 1 4 616.77 10.67
1 1 -3 55.66 1.54
-1 1 3 56.21 1.7
-1 1 3 55.62 1.55
1 1 -2 1392.97 22.62
-1 1 2 1426.08 22.51
-1 1 2 1475.88 23.19
-1 1 2 1468 22.8
-1 1 1 1269.81 19.84
1 1 -1 1217.66 20
1 1 -1 1241.28 19.43
-1 1 1 1249.47 19.57
-1 1 1 1232.66 20.05
-1 1 0 174.61 3.39
1 1 0 183.14 3.4
-1 1 0 171 3.42
-1 1 0 177.11 3.27
-1 1 0 196.34 3.56
-1 1 0 165.21 3.31
-1 1 0 183.18 3.37
-1 1 -1 3540.61 56.23
-1 1 -1 3503.94 56.21
-1 1 -1 3448.34 56.41
-1 1 -1 3550.23 56.13
-1 1 -2 1108.46 18.64
1 1 2 1108.37 18.23
-1 1 -2 1143.02 18.72
-1 1 -2 1137.76 18.54
-1 1 -3 1483.57 24.04
-1 1 -3 1345.47 23.8
-1 1 -3 1429.56 23.88
-1 1 -3 1301.62 23.93
-1 1 -4 3933.05 61.96
-1 1 -4 3841.83 61.99
1 1 4 3950.98 61.01
-1 1 -4 3882.34 61.83
1 1 5 111.65 3.2
-1 1 -5 106.55 3.31
1 1 5 100.09 2.51
-1 1 -5 94.6 3.09
-1 1 -5 109.6 3.26
1 1 6 1578.21 27.54
-1 1 -6 1631.83 27.94
-1 1 -7 0.63 0.43
-1 1 -7 0.68 0.42
-1 1 -7 0.39 0.35
-1 1 -7 0.49 0.36
1 1 7 0.67 0.38
-1 1 -7 0.18 0.32
-1 1 -7 0.66 0.41
-1 1 -8 677.36 14.06
-1 1 -8 658.93 13.86
-1 1 -8 712.11 14.67
-1 1 -8 718.07 14.6
-1 1 -8 725.85 14.78
-1 1 -8 687.33 14.67
-1 1 -8 698.24 14.86
-1 1 -8 671.68 14.78
-1 1 -9 185.69 5.82
1 1 9 187.34 5.63
-1 1 -9 178.37 5.92
-1 1 -9 180.29 6.09
-1 1 -9 186.26 6.18
-1 1 -9 177.19 6.02
-1 1 -9 180.44 6.24
-1 1 -9 176.07 6.16
-1 1 -10 3.06 0.82
-1 1 -10 2.44 0.81
-1 1 -10 2.9 0.85
-1 1 -10 3.05 0.83
1 1 10 3.17 0.76
-1 1 -10 4.39 1.01
-1 1 -10 3 0.82
-1 1 -10 3.71 0.96
-1 1 -11 3.65 0.91
-1 1 -11 3.7 1
-1 1 -11 4.32 0.94
-1 1 -11 4.39 0.96
-1 1 -12 1.09 0.65
-1 1 -12 0.95 0.54
-1 1 -12 0.04 0.11
-1 1 -12 0.14 0.43
-1 1 -13 9.27 1.09
-1 1 -13 8.71 0.98
-1 1 -13 7.8 0.97
-1 1 -14 12.45 0.9
1 2 -14 10.95 0.88
-1 2 14 13.06 0.97
1 2 -13 153.78 4.57
1 2 -13 161.56 4.64
1 2 -13 157.42 4.82
-1 2 13 152.45 4.87
1 2 -12 5.57 0.91
1 2 -12 8.11 1.11
1 2 -12 8.01 1.15
-1 2 12 6.54 1.14
-1 2 11 137.75 4.35
1 2 -11 133.16 4.79
1 2 -11 138.1 5.08
1 2 -11 125.19 4.77
1 2 -10 40.66 2.55
1 2 -10 45.51 2.67
1 2 -10 42.81 2.54
-1 2 10 42.82 2.5
-1 2 10 46.45 2.46
1 2 -10 47.5 2.8
1 2 -10 43.4 2.69
1 2 -9 236.58 6.65
1 2 -9 242.81 6.78
1 2 -9 250.98 6.77
-1 2 9 248.82 6.56
-1 2 9 248.02 6.56
1 2 -9 230.97 6.72
1 2 -9 239.61 6.88
-1 2 8 55.6 2.63
1 2 -8 56.5 2.7
1 2 -8 59.63 2.7
1 2 -8 61.05 2.74
-1 2 8 52.24 2.49
1 2 -8 55.18 2.26
1 2 -8 56.47 2.72
1 2 -8 54.74 2.7
-1 2 7 4.38 0.73
1 2 -7 3.84 0.65
1 2 -7 4.45 0.71
-1 2 7 6.49 0.8
1 2 -7 5.8 0.76
-1 2 7 4.72 0.67
1 2 -7 5.48 0.64
1 2 -7 4.93 0.72
1 2 -7 5.46 0.75
1 2 -6 830.91 14.9
1 2 -6 886.65 15.2
-1 2 6 853.08 15.63
-1 2 6 858.15 15.48
1 2 -6 900.03 15.63
1 2 -5 364.94 7.13
1 2 -5 378.8 7.27
-1 2 5 390.53 7.69
-1 2 5 366.82 7.36
1 2 -5 368.42 7.43
1 2 -4 52.79 1.76
-1 2 4 55.61 2
-1 2 4 56.26 1.81
-1 2 3 1822.15 29.58
-1 2 3 1870.39 30.6
-1 2 2 9999 152.01
-1 2 2 9561.42 151.39
-1 2 1 5748.66 94.07
1 2 -1 6084.52 93.94
-1 2 1 5863.24 93.93
-1 2 1 6205.03 93.74
1 2 0 90.77 1.98
-1 2 0 87.69 2.05
-1 2 0 89.12 2.22
-1 2 0 82.79 1.84
-1 2 0 81.49 1.82
-1 2 -1 615.65 10.42
-1 2 -1 660.4 10.93
1 2 1 596.41 10.18
-1 2 -1 615.8 10.25
-1 2 -1 642.76 10.5
-1 2 -1 603.02 10.26
-1 2 -2 104.18 2.58
-1 2 -2 107.36 2.6
1 2 2 118.98 2.58
-1 2 -2 104.72 2.03
1 2 2 113.02 2.14
-1 2 -2 111.79 2.66
-1 2 -2 108.09 2.47
-1 2 -3 101.7 2.72
-1 2 -3 102.72 2.67
-1 2 -3 98.75 2.63
-1 2 -3 91.24 2.82
1 2 3 97.02 1.74
1 2 3 103.95 2.47
-1 2 -3 110.28 2.81
-1 2 -4 97.13 2.86
-1 2 -4 94.03 2.78
-1 2 -4 90.98 2.74
-1 2 -4 96.3 3.02
1 2 4 89.93 2.47
-1 2 -5 176.13 4.64
1 2 5 184.53 4.17
-1 2 -5 178.95 4.76
-1 2 -5 172.58 4.55
-1 2 -5 168.83 4.51
-1 2 -6 135.72 4.18
-1 2 -6 142.46 4.28
-1 2 -6 141.37 4.28
-1 2 -6 143.01 4.22
1 2 6 151.62 4.34
1 2 6 138.36 3.67
-1 2 -6 139.16 4.32
-1 2 -7 116.95 4.08
1 2 7 112.68 3.88
-1 2 -7 114.99 3.99
-1 2 -7 123.57 3.9
-1 2 -7 111.65 3.69
-1 2 -7 111.87 4.1
-1 2 -7 110.6 4.13
-1 2 -7 106.25 3.94
-1 2 -7 110.87 4.02
-1 2 -8 174.55 5.48
-1 2 -8 172.48 5.41
1 2 8 172.5 5.24
-1 2 -8 157.31 4.95
-1 2 -8 148.44 4.91
-1 2 -8 162.32 5.52
-1 2 -8 167.68 5.59
-1 2 -8 150.28 5.18
-1 2 -8 172.83 5.54
-1 2 -9 58.02 3.13
-1 2 -9 58.35 3.12
1 2 9 62.73 3.07
-1 2 -9 57.12 2.93
-1 2 -9 59.76 3.06
-1 2 -9 55.33 3.22
-1 2 -9 55.56 3.19
-1 2 -9 59.26 3.23
-1 2 -9 62.9 3.31
-1 2 -10 23.38 1.99
-1 2 -10 23.13 1.99
1 2 10 22.42 1.84
-1 2 -10 25.68 2.07
-1 2 -10 23.65 2.13
-1 2 -10 22.53 2.06
-1 2 -10 22.34 2.02
-1 2 -10 24.26 2.08
-1 2 -11 224.46 6.72
-1 2 -11 210.65 6.55
-1 2 -11 217.63 6.95
-1 2 -12 288.7 7.43
-1 2 -12 287.37 7.33
-1 2 -12 271.66 6.28
-1 2 -12 279.85 7.65
-1 2 -13 284.38 6.52
-1 2 -13 266.76 6.66
-1 2 -13 272.04 6.4
1 3 -13 56.17 2.18
1 3 -13 55.91 2.2
1 3 -13 56.57 2.33
-1 3 13 52.06 2.32
-1 3 12 146.24 5.01
-1 3 12 148.58 4.1
1 3 -12 142.99 4.72
1 3 -12 148.4 4.57
1 3 -12 136.21 4.44
-1 3 11 196.15 5.5
1 3 -11 181.83 5.6
1 3 -11 181.97 5.81
1 3 -11 191.89 5.76
-1 3 10 159.67 5.07
1 3 -10 136.67 4.94
1 3 -10 138.01 4.94
-1 3 10 155.79 5.06
1 3 -10 166 5.18
1 3 -10 155.79 5.19
1 3 -10 147.04 5.16
1 3 -10 136.22 5.02
1 3 -9 40.12 2.35
1 3 -9 41.27 2.42
-1 3 9 47.26 2.59
1 3 -9 35.9 2.3
1 3 -9 43.18 2.4
-1 3 9 40.45 2.31
1 3 -9 39.68 2.16
1 3 -9 40.25 2.43
1 3 -9 39.45 2.4
1 3 -8 385.82 9.01
1 3 -8 429.88 9.17
-1 3 8 412.14 9.47
1 3 -8 413.18 8.19
1 3 -8 355.92 8.85
-1 3 8 396.22 9.02
1 3 -8 379.05 8.86
1 3 -8 379.75 8.62
-1 3 8 371.87 8.9
1 3 -8 412.88 9.27
1 3 -8 415.61 9.14
1 3 -7 36.55 1.91
1 3 -7 40.56 2.03
-1 3 7 38.65 2.22
1 3 -7 37.53 1.72
1 3 -7 31.72 1.85
1 3 -7 38.17 1.96
-1 3 7 42.08 2.06
1 3 -7 37.3 1.83
1 3 -7 40.61 1.94
-1 3 7 37.71 2.06
1 3 -7 34.44 1.93
1 3 -7 35.21 1.92
-1 3 6 1154.4 19.46
1 3 -6 1093.95 19.26
1 3 -6 1044.45 19.29
1 3 -6 1076.37 19.25
1 3 -6 1072.3 19.2
-1 3 6 1120.51 19.87
1 3 -6 1141.6 19.44
1 3 -5 167.09 4.1
-1 3 5 161.31 4.42
1 3 -5 151.84 4.05
-1 3 5 160.44 4.02
1 3 -5 154.98 3.86
-1 3 4 195.21 3.88
-1 3 4 198.42 4.94
-1 3 4 201.93 4.5
1 3 -4 206 4.31
-1 3 3 114.55 2.76
1 3 -3 111.97 2.97
1 3 -2 247.42 5.03
-1 3 2 249.74 4.78
-1 3 1 7.8 0.64
1 3 -1 6.3 0.52
-1 3 1 7.3 0.41
-1 3 1 7.8 0.42
-1 3 0 82.99 2.22
-1 3 0 81.2 2.39
1 3 0 80.87 2.04
-1 3 0 81.3 1.7
-1 3 -1 1229.15 19.66
-1 3 -1 1207.07 19.83
-1 3 -1 1260.3 20
-1 3 -1 1163.88 20.02
1 3 1 1339.13 20.44
-1 3 -1 1152.2 20.44
-1 3 -1 1200.04 20.74
1 3 1 1257.32 19.87
-1 3 -2 666.55 11.8
-1 3 -2 684.63 11.83
-1 3 -2 677.64 11.87
1 3 2 696.36 11.32
-1 3 -2 690.01 12.39
-1 3 -2 678.05 11.5
-1 3 -3 12.32 0.8
-1 3 -3 10.48 0.75
-1 3 -3 10.86 0.79
-1 3 -3 9.52 0.91
-1 3 -3 10.15 0.41
1 3 3 11.3 0.79
-1 3 -4 1627.9 27.36
-1 3 -4 1615.01 27.37
-1 3 -4 1640.63 27.47
-1 3 -4 1712.31 28.3
-1 3 -4 1564.73 27.65
1 3 4 1694.05 27.41
-1 3 -5 1934.43 32.18
-1 3 -5 1879.06 32.12
-1 3 -5 1829.56 32.76
1 3 5 1939.28 31.98
-1 3 -5 1986.68 32.38
-1 3 -6 889.74 17.14
-1 3 -6 946.55 16.87
-1 3 -6 937.73 16.85
-1 3 -6 951.22 17.28
-1 3 -6 891.12 17.15
-1 3 -6 922.37 17.14
1 3 6 968.06 16.96
-1 3 -6 938.57 17.76
-1 3 -6 904.34 17.32
-1 3 -7 33.26 2.03
-1 3 -7 31.17 1.85
-1 3 -7 33.41 1.91
-1 3 -7 32.74 2.04
-1 3 -7 34.76 2.09
-1 3 -7 29.87 1.91
1 3 7 31.02 1.75
-1 3 -7 30.37 2.01
-1 3 -7 29.81 2.04
1 3 8 81.6 3.31
-1 3 -8 76.51 3.34
-1 3 -8 85.21 3.47
-1 3 -8 79.85 3.49
-1 3 -8 82.11 3.49
-1 3 -8 81.65 3.55
-1 3 -8 75.11 3.45
-1 3 -8 76.36 3.62
-1 3 -8 71.16 3.43
-1 3 -9 4.88 0.95
-1 3 -9 6.21 1.02
-1 3 -9 5.96 0.99
-1 3 -9 5.39 0.98
-1 3 -9 5.41 0.97
-1 3 -9 5.02 0.99
-1 3 -9 4.86 0.98
-1 3 -9 5.04 0.96
-1 3 -10 24.63 1.95
-1 3 -10 26.34 2.07
-1 3 -10 26.36 2.01
-1 3 -10 26.23 2.16
-1 3 -11 15.4 1.46
-1 3 -11 15.47 1.47
-1 3 -11 16.35 1.57
-1 3 -11 16.21 1.35
-1 3 -11 15.62 1.59
-1 3 -12 51.16 2.44
-1 3 -12 55.34 2.22
-1 3 -12 51.06 2.38
-1 3 -12 49.08 2.52
-1 3 -13 69.28 2.32
-1 3 -13 73.07 2.44
1 4 -13 5.98 0.66
-1 4 12 15.9 1.24
1 4 -12 17.54 1.19
1 4 -12 14.93 1.16
-1 4 12 19.3 1.22
-1 4 11 67 3.14
-1 4 11 76.62 3.11
1 4 -11 67.16 2.84
1 4 -11 68.76 3.01
1 4 -11 69.94 2.88
-1 4 10 160.93 5.4
1 4 -10 156.66 4.89
-1 4 10 159.07 5.21
1 4 -10 159.09 4.93
1 4 -10 151.92 5.04
1 4 -9 6.84 1
1 4 -9 5.48 0.9
1 4 -9 3.19 0.76
-1 4 9 4.12 0.87
-1 4 9 5.44 0.87
1 4 -9 3.84 0.72
-1 4 9 5.11 0.87
1 4 -9 4.05 0.76
1 4 -9 5.83 0.89
1 4 -8 23.15 1.63
-1 4 8 26.19 2
1 4 -8 23.38 1.49
1 4 -8 22.08 1.68
-1 4 8 24.24 1.71
1 4 -8 22.37 1.58
1 4 -8 24.77 1.75
-1 4 8 24 1.83
1 4 -8 22.75 1.66
1 4 -8 23.91 1.71
1 4 -7 6.7 0.82
1 4 -7 5.91 0.79
-1 4 7 4.41 0.89
1 4 -7 6.19 0.76
1 4 -7 3.87 0.74
1 4 -7 5.37 0.77
-1 4 7 6.85 0.85
1 4 -7 6.33 0.85
1 4 -7 6.53 0.86
-1 4 7 7.58 1.01
1 4 -7 5.69 0.78
1 4 -6 48.66 2.12
1 4 -6 53.3 2.2
1 4 -6 49.32 2.35
-1 4 6 51.99 2.24
1 4 -6 52.8 2.42
1 4 -6 54.35 2.36
-1 4 6 59.39 2.75
1 4 -6 52.87 2.13
1 4 -6 52.34 2.1
1 4 -5 39.11 1.64
1 4 -5 39.39 1.61
1 4 -5 38.11 1.78
-1 4 5 39.44 1.78
-1 4 5 38.67 2.02
-1 4 5 45.31 2.29
1 4 -5 40.94 2.03
1 4 -5 37.77 1.61
1 4 -4 4648.48 68.44
1 4 -4 4697.31 68.38
-1 4 4 4395.15 68.93
-1 4 4 4170.33 68.66
-1 4 4 4521.22 70.03
-1 4 4 3907.83 68.35
1 4 -4 4033.91 68.32
-1 4 3 1686.02 27.7
1 4 -3 1716.96 28.2
1 4 -3 1650.55 27.09
1 4 -3 1731.62 27.19
-1 4 3 1694.38 27.48
1 4 -2 338.95 6.62
-1 4 2 327.22 7
1 4 -2 323.98 5.45
-1 4 2 318.3 5.66
1 4 -1 677.76 11.72
-1 4 1 675 12.17
-1 4 0 868.66 15.81
1 4 0 904.58 15.47
1 4 0 906.86 15.85
1 4 1 203 4.8
-1 4 -1 210.83 4.64
-1 4 -1 213.91 5.26
-1 4 -2 135.63 3.09
1 4 2 151.53 3.82
1 4 2 146.25 3.01
-1 4 -2 140.86 3.28
-1 4 -2 132.8 3.87
-1 4 -3 1178.32 20.28
-1 4 -3 1242.88 20.25
-1 4 -3 1277.21 21.45
-1 4 -3 1163.58 19.71
1 4 3 1293.36 21.09
-1 4 -4 227.48 6.37
1 4 4 257.1 6.05
-1 4 -4 224.2 5.46
-1 4 -4 267.84 5.62
-1 4 -5 140.29 4.04
-1 4 -5 131.69 3.95
-1 4 -5 142.98 3.96
-1 4 -5 157.26 4.95
1 4 5 148.93 4.29
-1 4 -5 142.5 3.96
-1 4 -5 126.73 3.79
-1 4 -6 140.13 4.43
-1 4 -6 142.84 4.23
1 4 6 169.97 5.04
-1 4 -6 152.2 4.42
-1 4 -6 132.85 4.24
-1 4 -6 149.42 5.08
1 4 6 158.99 4.73
-1 4 -6 153.85 4.43
-1 4 -6 145.34 4.27
-1 4 -7 321.76 7.48
-1 4 -7 311.14 7.5
-1 4 -7 276.18 7.26
-1 4 -7 289.56 7.33
-1 4 -7 281.55 7.92
1 4 7 299.58 7.47
-1 4 -7 290.89 7.63
-1 4 -7 296.13 7.57
-1 4 -8 22.21 1.73
-1 4 -8 25.4 1.92
-1 4 -8 19.8 1.67
1 4 8 20.31 1.77
-1 4 -8 21.38 1.68
-1 4 -8 21.9 1.7
-1 4 -8 18.68 1.68
-1 4 -8 20.48 1.77
-1 4 -9 0.76 0.52
-1 4 -9 0.94 0.54
-1 4 -9 0.73 0.54
-1 4 -9 2.39 0.65
1 4 9 0.61 0.47
1 4 9 0.28 0.4
-1 4 -9 0.82 0.46
-1 4 -9 2.58 0.69
-1 4 -10 -0.07 0.41
-1 4 -10 0.07 0.37
-1 4 -10 0.18 0.32
-1 4 -10 -0.06 0.35
-1 4 -10 0.19 0.42
-1 4 -11 80.05 3.36
-1 4 -11 75.06 3.01
-1 4 -11 69.35 3.05
-1 4 -11 70.63 2.86
-1 4 -11 76.78 3.01
1 4 12 -0.03 0.09
-1 4 -12 8.79 0.83
1 5 -12 76.77 2.74
-1 5 12 80.3 2.56
1 5 -11 0.16 0.31
-1 5 11 -0.1 0.31
-1 5 10 5.44 0.94
1 5 -9 154.52 4.56
-1 5 9 156.5 5.45
1 5 -8 80.8 3.13
1 5 -8 87.06 3.63
-1 5 8 79.06 3.64
-1 5 8 87.78 3.93
-1 5 8 80.4 3.24
-1 5 7 62.75 2.72
1 5 -7 60.87 2.92
1 5 -7 65.83 3.04
-1 5 7 61.97 3.19
1 5 -7 66.45 2.77
-1 5 6 293.74 6.85
1 5 -6 304.43 7.58
-1 5 6 297.11 7.91
1 5 -6 315.29 7.45
1 5 -6 301.19 7.03
1 5 -5 485.95 10.16
-1 5 5 562.57 11.52
1 5 -5 499.69 9.24
1 5 -5 548.1 11.1
-1 5 5 518.07 10.73
-1 5 5 509.96 9.91
1 5 -4 1451.88 24.69
1 5 -4 1357.2 23.84
1 5 -4 1431.68 24.76
-1 5 4 1455.41 25.66
-1 5 4 1440.28 25.21
-1 5 4 1449.01 24.17
1 5 -3 1.28 0.38
-1 5 3 1.21 0.43
1 5 -3 1.39 0.43
1 5 -3 1.28 0.33
-1 5 3 1.2 0.28
-1 5 3 2.05 0.49
1 5 -2 109.68 3.36
1 5 -2 116.91 3.3
1 5 -2 118.24 3.4
-1 5 2 120.88 3.86
-1 5 2 121.48 3.61
1 5 -1 0.99 0.31
-1 5 1 1.35 0.43
1 5 -1 1.48 0.37
-1 5 1 1.88 0.45
1 5 0 353.31 7.45
1 5 0 361.92 7.05
-1 5 0 364.9 7.96
-1 5 -1 699.5 13.86
-1 5 -1 717.75 13.23
1 5 1 735.25 12.71
-1 5 -1 744.99 14.17
-1 5 -2 181.94 5.05
-1 5 -2 186.29 5.04
-1 5 -2 174.07 4.29
-1 5 -2 180.3 5.26
-1 5 -3 1341.73 23.21
-1 5 -3 1313.64 23.18
-1 5 -4 18.17 1.45
-1 5 -4 18.82 1.63
1 5 4 21.57 1.57
-1 5 -4 20.19 1.52
-1 5 -4 20.15 1.31
-1 5 -5 31.47 1.92
-1 5 -5 28.93 1.6
-1 5 -5 28.87 1.7
-1 5 -5 28.27 2.11
1 5 5 31.49 2.01
-1 5 -5 29.06 1.88
1 5 6 45.77 2.53
-1 5 -6 41.59 2.22
-1 5 -6 39.98 2.07
-1 5 -6 39.83 2.62
1 5 6 37.26 2.32
-1 5 -6 39.23 2.21
1 5 7 310.71 8.34
-1 5 -7 307.79 7.89
-1 5 -7 308.84 7.61
-1 5 -7 303 8.61
1 5 7 303.51 8.09
-1 5 -8 171.86 5.55
1 5 8 171.05 5.65
-1 5 -8 168.07 5.25
-1 5 -8 167.93 5.52
1 5 9 27.28 1.97
-1 5 -9 26.97 1.97
-1 5 -9 27.35 1.95
1 5 10 12.75 1.18
-1 5 -10 12.82 1.29
-1 5 -10 12.57 1.29
-1 5 -11 4.6 0.73
-1 5 -11 3.91 0.7
-1 5 -12 7.15 0.69
1 6 -12 19.18 1.11
-1 6 11 84.67 2.98
1 6 -11 84.05 3.01
-1 6 10 0.23 0.39
1 6 -10 -0.05 0.34
-1 6 9 45.69 2.72
1 6 -9 43.7 2.45
1 6 -9 42.54 2.18
1 6 -8 55.82 2.83
-1 6 8 54.32 3.14
1 6 -8 58.2 2.73
1 6 -7 14.52 1.49
1 6 -7 16.85 1.53
1 6 -7 14.29 1.49
-1 6 7 15.08 1.7
1 6 -7 16.75 1.45
1 6 -6 0.06 0.34
1 6 -6 1.07 0.5
-1 6 6 0.89 0.55
1 6 -6 1.07 0.47
1 6 -5 1081.26 18.97
1 6 -5 1080.98 19.34
-1 6 5 925.31 19.69
1 6 -5 975.25 19.4
-1 6 5 1075.44 19.28
1 6 -5 1006.81 18.8
1 6 -5 889.69 18.31
-1 6 4 584.16 12.87
1 6 -4 607.01 11.54
1 6 -4 685.21 12.82
1 6 -4 616.41 13.06
-1 6 4 620.69 12.85
1 6 -4 657.35 12.5
1 6 -4 542.17 11.78
1 6 -3 223.17 5.91
-1 6 3 211.31 6.35
1 6 -3 223.44 5.83
-1 6 3 244.15 6.49
1 6 -3 232.68 5.52
-1 6 3 208.45 6.35
1 6 -3 243.9 6.01
-1 6 3 230.68 5.98
-1 6 2 18.75 1.62
1 6 -2 23.78 1.57
-1 6 2 17.63 1.54
1 6 -2 18.03 1.34
-1 6 2 25.66 1.82
1 6 -2 27.48 1.6
1 6 -2 19.69 1.32
-1 6 2 22.29 1.6
1 6 -1 321.35 7.34
-1 6 1 298.24 7.92
-1 6 1 314.57 7.91
-1 6 1 323.11 7.77
1 6 -1 320.13 7.21
1 6 -1 315.2 7.03
-1 6 1 336.5 7.92
1 6 0 227.63 5.88
-1 6 0 209.88 6.33
-1 6 0 226.48 6.4
1 6 0 229.81 5.86
-1 6 0 252.27 6.18
1 6 0 236.7 5.52
-1 6 0 268.07 6.74
-1 6 -1 1401.61 26.06
1 6 1 1440.23 25.22
1 6 1 1468.94 25.52
1 6 1 1430.77 24.45
-1 6 -1 1472.82 25.07
-1 6 -1 1438.92 26.27
-1 6 -1 1476.44 26.1
-1 6 -2 191.76 5.95
-1 6 -2 191.56 4.88
-1 6 -2 195.35 5.72
-1 6 -2 192.17 4.79
-1 6 -3 130.01 4.61
1 6 3 145.11 4.75
-1 6 -3 144.8 4.76
-1 6 -3 143.64 4.1
-1 6 -4 108.15 4.15
1 6 4 103.42 4.09
-1 6 -4 119.06 4.29
-1 6 -4 109.91 3.66
-1 6 -5 10.2 1.22
-1 6 -5 7.94 0.99
-1 6 -5 8.32 1.26
1 6 5 7.02 1.08
-1 6 -5 9.08 1.16
-1 6 -6 11.37 1.3
-1 6 -6 10.13 1.16
-1 6 -6 10.73 1.09
1 6 6 10.59 1.28
-1 6 -6 11.99 1.57
1 6 6 11.76 1.4
-1 6 -6 9.45 1.24
-1 6 -7 2.93 0.74
-1 6 -7 2.16 0.59
-1 6 -7 2.72 0.81
1 6 7 2.91 0.76
1 6 7 2.95 0.77
-1 6 -7 2.72 0.67
-1 6 -8 57.42 2.99
-1 6 -8 56.47 2.7
-1 6 -9 230.81 6.64
-1 6 -9 242.89 6.3
-1 6 -9 234.26 6.59
1 6 9 230.9 6.48
-1 6 -10 22.72 1.49
1 6 10 21.73 1.44
-1 6 -10 24.29 1.66
-1 6 -11 4.17 0.61
-1 7 11 103.12 2.89
1 7 -11 97.27 2.91
-1 7 10 59.03 2.55
1 7 -10 60.35 2.48
-1 7 9 147.63 4.95
1 7 -9 152.02 4.66
1 7 -9 143.69 4.29
-1 7 8 61.5 3.24
1 7 -8 59.95 2.87
1 7 -8 57.21 2.73
1 7 -7 197.65 5.92
1 7 -7 200.53 5.93
1 7 -6 264.11 7.04
1 7 -6 257.78 6.93
-1 7 6 231.31 7.46
1 7 -6 224.95 7.07
1 7 -6 257.67 7.31
1 7 -5 485.22 11.01
-1 7 5 493.56 10.95
1 7 -5 491.72 10.94
1 7 -5 495.96 11.75
-1 7 5 474.1 11.91
1 7 -5 492.57 11.3
-1 7 4 101.01 4.14
-1 7 4 110.09 4.16
1 7 -4 111.71 4.05
1 7 -4 109.93 4.16
-1 7 4 95.54 4.37
1 7 -4 111.06 4.52
-1 7 3 60.88 3.18
1 7 -3 67.83 3.08
1 7 -3 64.66 2.92
-1 7 3 57.83 2.98
1 7 -3 66.54 3.02
1 7 -3 64.13 2.65
-1 7 3 58.8 3.23
1 7 -3 59.21 3.15
-1 7 3 60.21 2.92
-1 7 2 171.58 5.85
1 7 -2 193.28 5.58
1 7 -2 170.99 5.15
-1 7 2 188.31 5.88
1 7 -2 171.28 5.18
1 7 -2 171.22 5.01
-1 7 2 178.79 5.81
-1 7 2 186.61 5.72
1 7 -1 1.12 0.45
-1 7 1 1.16 0.6
-1 7 1 1.28 0.57
1 7 -1 0.78 0.39
-1 7 1 1.05 0.49
1 7 -1 0.93 0.4
-1 7 1 1.25 0.51
-1 7 0 61.05 3.27
1 7 0 58.56 2.81
-1 7 0 58.03 3.1
1 7 0 63.36 2.92
1 7 0 63.34 2.62
-1 7 0 59.57 2.85
-1 7 0 63.22 3.21
-1 7 -1 36.71 2.49
1 7 1 33.32 2.1
-1 7 -1 40.64 2.61
1 7 1 39.31 2.36
-1 7 -1 34.77 2.36
1 7 2 183.82 5.5
-1 7 -2 174.97 5.98
-1 7 -2 204.58 6.53
-1 7 -2 193.15 6.07
-1 7 -2 193.42 5
-1 7 -3 418.23 10.24
-1 7 -3 386.92 10.27
1 7 3 385.38 9.77
-1 7 -3 416.74 10.03
-1 7 -3 404.19 8.82
-1 7 -4 50.81 2.95
-1 7 -4 51.42 2.47
-1 7 -4 43.13 2.92
1 7 4 45.67 2.83
-1 7 -4 48.78 2.82
-1 7 -5 148.71 5.28
-1 7 -5 145.41 4.73
1 7 5 139.96 4.79
-1 7 -5 141.64 5.64
1 7 5 141.82 5.36
-1 7 -5 135.12 5.02
-1 7 -6 250.94 7.23
-1 7 -6 253.83 6.9
-1 7 -6 251.03 7.25
-1 7 -7 12.27 1.38
-1 7 -7 12.83 1.37
-1 7 -7 11.71 1.32
-1 7 -8 3.31 0.8
1 7 8 3.67 0.85
-1 7 -8 2.52 0.68
1 7 9 0.97 0.45
1 7 10 9.2 0.81
-1 8 10 78.4 2.49
1 8 -10 82.46 2.49
-1 8 9 86.91 2.86
1 8 -9 89.06 2.68
1 8 -8 2.51 0.59
1 8 -8 2.9 0.63
1 8 -7 29.54 1.9
1 8 -7 29.65 1.97
-1 8 6 0.61 0.54
1 8 -6 0.55 0.41
1 8 -6 0.66 0.49
1 8 -5 68.89 3.14
1 8 -4 384.2 9.49
1 8 -4 386.14 9.16
-1 8 4 381.56 9.09
1 8 -4 383.93 10.03
1 8 -4 389.54 9.59
-1 8 4 375.87 10.03
-1 8 3 1172.12 22.26
1 8 -3 1113.49 21.71
-1 8 3 1139.86 21.6
1 8 -3 1185.16 21.44
1 8 -3 1119.94 21.6
-1 8 3 1106.74 22.38
1 8 -3 1125.96 22.28
1 8 -2 172.63 5.65
-1 8 2 165.41 5.94
-1 8 2 164.13 5.58
-1 8 2 164.45 5.65
1 8 -2 165.03 5.07
-1 8 2 169.65 5.83
1 8 -2 170.17 5.39
1 8 -2 184.95 6.15
-1 8 1 393.92 10.41
1 8 -1 430.19 10.01
-1 8 1 402.93 10.07
-1 8 1 423.56 10.36
1 8 -1 393.97 9.38
-1 8 1 382.02 9.75
1 8 -1 386.87 10.1
-1 8 0 44.83 2.92
1 8 0 41.11 2.53
-1 8 0 49.07 2.89
-1 8 0 44.03 2.86
1 8 0 42.93 2.52
-1 8 0 41.02 2.43
1 8 1 96.34 3.95
-1 8 -1 96.63 4.41
-1 8 -1 93.24 4.12
-1 8 -1 96.28 4.37
1 8 1 87.01 3.87
-1 8 -2 2.65 0.83
-1 8 -2 1.46 0.64
1 8 2 2.25 0.7
-1 8 -2 1.12 0.61
-1 8 -3 6.13 1.17
-1 8 -3 19.96 1.83
-1 8 -4 18.56 1.84
-1 8 -4 18.1 1.74
-1 8 -4 19.79 1.53
-1 8 -5 10.32 1.35
-1 8 -5 10.31 1.31
-1 8 -5 8.09 1.04
-1 8 -6 77.92 3.54
-1 8 -6 68.17 3.31
-1 8 -6 77.49 3.27
-1 8 -7 3.95 0.75
-1 8 -7 5.5 0.92
-1 8 -7 5.33 0.86
1 8 8 86.17 3.06
-1 8 -8 90.25 3.12
1 8 9 34.29 1.67
-1 8 -9 38.52 1.86
-1 9 8 8.15 0.84
1 9 -8 8.48 0.75
1 9 -8 9.05 0.83
-1 9 7 286.99 7.06
1 9 -7 303.57 6.73
1 9 -7 300.06 7.08
1 9 -6 271.38 6.45
1 9 -6 268.76 6.92
-1 9 5 11.87 1.3
1 9 -5 11.14 1.13
1 9 -4 62.62 3.13
1 9 -3 387.8 9.71
-1 9 3 402.83 9.64
-1 9 2 256.06 6.86
1 9 -2 264.47 7.43
-1 9 2 250.21 7.44
-1 9 1 362.26 9.16
-1 9 1 388.58 10.03
1 9 -1 395.46 9.69
-1 9 0 71.63 3.44
-1 9 0 76.97 3.88
1 9 0 78.76 3.58
-1 9 -1 14.5 1.52
-1 9 -1 12.05 1.54
1 9 1 12.29 1.34
-1 9 -2 3.51 0.84
-1 9 -2 11.42 1.47
-1 9 -3 16.09 1.58
-1 9 -4 1.08 0.51
-1 9 -4 1.59 0.65
-1 9 -5 215.27 6.19
-1 9 -5 213.6 6.34
-1 9 -6 24.88 1.73
-1 9 -6 22.61 1.66
1 9 7 3.65 0.67
-1 9 -7 3.73 0.66
-1 9 -7 3.38 0.58
1 9 8 13.07 0.96
-1 9 -8 14.34 1.03
-1 10 6 0.06 0.21
1 10 -6 0.39 0.3
-1 10 5 10.39 0.92
1 10 -5 9.9 1.03
-1 10 4 2.53 0.53
1 10 -4 2.29 0.61
-1 10 3 72.43 2.71
1 10 -3 83.81 3.38
-1 10 2 -0.04 0.14
1 10 -2 4.77 0.85
1 10 -1 604.86 12.56
-1 10 1 594.05 12.73
-1 10 0 57.74 2.5
-1 10 0 60.72 3.05
1 10 0 60.84 2.76
-1 10 -1 9.92 1.05
-1 10 -1 11.67 1.34
-1 10 -2 24.44 1.66
-1 10 -2 26.82 1.97
-1 10 -3 54.44 2.47
-1 10 -3 54.56 2.76
-1 10 -4 64.06 2.6
-1 10 -5 46 2.03
-1 10 -5 46.8 2.19
-1 10 -6 5.29 0.62
-1 10 -6 5.18 0.62
1 11 -3 33.04 1.55
1 11 -2 121.96 3.42
-1 11 0 277.14 6.21
-1 11 -1 34.33 1.74
-1 11 -2 0.22 0.27
-1 11 -3 33.9 1.61
2 -11 -3 83.12 2.37
2 -11 -2 29.39 1.35
2 -11 -1 16.31 1.01
2 -11 0 109.46 2.96
-2 -10 6 33.45 1.56
2 -10 -6 33.56 1.37
-2 -10 5 5.06 0.69
2 -10 -5 5.71 0.66
-2 -10 4 29.33 1.72
2 -10 -4 32.02 1.66
-2 -10 3 84.38 3.22
2 -10 -3 89.12 3.09
-2 -10 2 248.91 6.46
2 -10 -2 254.58 6.24
-2 -10 1 69.95 2.96
-2 -10 1 64.05 2.9
2 -10 -1 71.77 2.85
-2 -10 0 19.48 1.49
2 -10 0 16.98 1.35
-2 -10 0 15.49 1.38
-2 -10 -1 59.84 2.61
-2 -10 -1 55.09 2.44
-2 -10 -1 53.36 2.5
-2 -10 -2 27.29 1.63
-2 -10 -2 29.03 1.51
-2 -10 -2 25.44 1.68
2 -10 2 28.19 1.62
-2 -10 -2 27.19 1.61
-2 -10 -3 30.33 1.81
-2 -10 -3 30.31 1.57
-2 -10 -3 29.52 1.49
2 -10 3 30.87 1.49
-2 -10 -3 26.31 1.39
-2 -10 -4 24.62 1.57
-2 -10 -4 24.04 1.28
-2 -10 -5 4.33 0.63
-2 -9 8 47.08 1.9
2 -9 -8 52.19 1.85
2 -9 -7 1.3 0.38
-2 -9 7 1.25 0.47
2 -9 -7 1.38 0.38
2 -9 -6 94.71 3.12
2 -9 -6 93.94 3
2 -9 -5 59.93 2.54
-2 -9 5 61.69 2.88
2 -9 -5 57.19 2.29
-2 -9 4 2.46 0.7
-2 -9 4 3.9 0.83
2 -9 -4 3.12 0.53
-2 -9 3 487.79 11.07
-2 -9 3 463.82 11.06
2 -9 -3 473.19 10.33
2 -9 -2 289.85 7.38
-2 -9 2 293.47 7.93
-2 -9 1 68.81 2.84
2 -9 -1 74.26 3.23
-2 -9 1 69.35 3.4
-2 -9 0 7.83 0.96
-2 -9 0 6.69 1.02
2 -9 0 8.96 1.12
-2 -9 0 7.31 1.11
-2 -9 0 6.53 1.09
-2 -9 -1 63.59 2.83
-2 -9 -1 62.22 3.2
-2 -9 -1 59.45 3
2 -9 1 66.09 2.98
-2 -9 -1 64.43 3.22
-2 -9 -2 3.99 0.77
-2 -9 -2 4.05 0.92
-2 -9 -2 4.23 0.81
2 -9 2 4.07 0.78
-2 -9 -2 3.51 0.79
-2 -9 -3 215.99 6.01
-2 -9 -3 217.63 6.7
-2 -9 -3 211.63 5.8
2 -9 3 221.51 5.81
-2 -9 -3 211.95 6.12
-2 -9 -4 257.99 7.15
2 -9 4 229.11 5.59
-2 -9 -4 234.94 6.14
-2 -9 -4 248.02 6.37
-2 -9 -5 4.43 0.77
2 -9 5 3.98 0.63
-2 -9 -5 3.96 0.69
-2 -9 -5 4.58 0.91
-2 -9 -6 0.09 0.32
2 -9 6 0.1 0.24
-2 -9 -6 0.08 0.27
-2 -9 -7 23.63 1.33
-2 -9 -7 24.8 1.49
-2 -9 -7 27.24 1.48
2 -8 -10 236.2 5.42
2 -8 -10 267.45 5.5
2 -8 -9 32.97 1.68
-2 -8 9 32.09 1.63
2 -8 -8 85.59 2.73
2 -8 -8 90.29 3.19
-2 -8 8 83.59 3.19
2 -8 -7 0.08 0.3
2 -8 -7 -0.05 0.32
-2 -8 7 0.53 0.43
2 -8 -6 2.07 0.57
2 -8 -6 1.05 0.46
-2 -8 6 1.87 0.69
-2 -8 5 31.98 2.3
2 -8 -5 29.29 1.86
2 -8 -5 31.27 1.9
-2 -8 4 1.21 0.43
-2 -8 4 0.8 0.64
2 -8 -4 0.5 0.39
2 -8 -3 29.7 1.94
2 -8 -3 29.58 1.75
-2 -8 3 29.82 2.23
-2 -8 3 25.96 1.73
2 -8 -3 25.93 1.93
-2 -8 3 29.25 2.26
-2 -8 2 0.39 0.53
2 -8 -2 0.17 0.25
2 -8 -2 0.17 0.4
-2 -8 2 -0.06 0.32
2 -8 -2 0.86 0.48
2 -8 -2 0.18 0.43
-2 -8 1 332.17 8.72
2 -8 -1 314.31 8.69
-2 -8 1 323.16 7.83
-2 -8 1 288.58 7.9
2 -8 -1 319.91 8.07
2 -8 -1 304.97 7.78
-2 -8 1 298.4 8.41
-2 -8 0 234.72 7.06
2 -8 0 224.39 6.3
-2 -8 0 212.71 6.19
2 -8 0 218.29 6.2
-2 -8 0 215.1 6.7
2 -8 0 212.07 6.85
-2 -8 0 231.75 6.36
-2 -8 -1 26.6 2.15
2 -8 1 22.46 1.69
-2 -8 -1 22.16 1.83
-2 -8 -1 23.5 1.93
2 -8 1 26.71 1.89
2 -8 1 22.43 1.98
-2 -8 -1 27 1.93
-2 -8 -2 -0.08 0.46
2 -8 2 0.08 0.31
-2 -8 -2 0.47 0.42
-2 -8 -2 0.15 0.32
2 -8 2 0.17 0.32
2 -8 2 0.18 0.32
-2 -8 -2 -0.13 0.39
-2 -8 -3 145.05 5.11
-2 -8 -3 150.37 5.33
2 -8 3 148.99 4.64
2 -8 3 144.32 4.68
-2 -8 -3 148.72 4.89
-2 -8 -3 154.39 5.19
-2 -8 -4 65.61 3.31
-2 -8 -4 70.25 3.34
-2 -8 -4 65.76 3.24
2 -8 4 61.65 2.8
-2 -8 -4 57.15 2.64
-2 -8 -5 26.54 2.01
-2 -8 -5 22.63 1.94
2 -8 5 25.94 1.73
-2 -8 -5 27.65 1.95
-2 -8 -5 22.06 1.62
-2 -8 -6 76.69 3.46
-2 -8 -6 84.25 3.72
-2 -8 -6 74.03 3.65
2 -8 6 75.13 3
-2 -8 -6 74.57 3.02
-2 -8 -7 338.31 8.12
-2 -8 -7 318.75 8.22
-2 -8 -7 329.67 8.26
2 -8 7 332.89 7.45
-2 -8 -7 313.89 7.43
-2 -8 -8 239.6 5.99
-2 -8 -8 218.58 5.94
-2 -8 -8 221.97 5.7
2 -8 8 241.48 5.48
-2 -8 -8 210.05 5.37
-2 -8 -9 34.18 1.67
-2 -8 -9 34.73 1.7
2 -7 -11 32.27 1.54
-2 -7 10 6.47 0.74
2 -7 -10 7.66 0.87
2 -7 -9 109.56 3.11
-2 -7 9 110.39 3.74
-2 -7 8 -0.12 0.38
2 -7 -8 0.24 0.3
2 -7 -8 0.06 0.41
-2 -7 7 11.39 1.32
2 -7 -7 11.31 1.1
2 -7 -7 11.8 1.27
-2 -7 6 89.7 3.89
2 -7 -6 92.83 3.38
2 -7 -6 82.99 3.47
2 -7 -5 983.25 18.31
2 -7 -5 1040.5 18.76
-2 -7 5 985.51 19.42
-2 -7 5 1014.92 18.42
2 -7 -5 967.89 18.93
2 -7 -5 936.67 18.72
-2 -7 5 921.68 19.53
2 -7 -4 1040.74 18.78
-2 -7 4 1014.11 20.06
-2 -7 4 981.69 18.64
2 -7 -4 969.84 19.13
2 -7 -4 977.1 18.98
2 -7 -4 1000.14 18.58
-2 -7 3 311.13 7.44
2 -7 -3 275.74 8.1
2 -7 -3 293.22 7.09
2 -7 -3 303.89 7.73
2 -7 -3 299.39 7.59
-2 -7 3 264.6 7.9
2 -7 -3 290.93 7.19
-2 -7 2 38.59 2.51
2 -7 -2 31.71 2.31
-2 -7 2 37.69 2.16
2 -7 -2 32.1 1.84
2 -7 -2 36.94 2.2
2 -7 -2 35.35 2.17
2 -7 -2 34.33 2.02
-2 -7 1 9.61 1.28
2 -7 -1 11.18 1.37
-2 -7 1 13.63 1.3
2 -7 -1 9.58 0.95
-2 -7 1 10.85 1.13
2 -7 -1 9.63 1.15
2 -7 -1 11.77 1.17
-2 -7 1 11.53 1.34
-2 -7 0 386.38 9.56
-2 -7 0 370.48 8.79
2 -7 0 366.46 8.84
2 -7 0 355.69 8.4
-2 -7 0 369.6 9.17
2 -7 0 381.6 9.54
-2 -7 0 360.12 8.77
-2 -7 -1 613.24 13.74
2 -7 1 657.29 13.93
-2 -7 -1 682.81 13.45
-2 -7 -1 604.31 13.16
2 -7 1 602.02 12.99
-2 -7 -1 586.45 13.09
2 -7 1 621.65 12.65
2 -7 2 34.23 1.99
-2 -7 -2 36.45 2.47
-2 -7 -2 39.48 2.4
-2 -7 -2 36.06 2.39
-2 -7 -2 36.16 2.38
2 -7 2 36.05 2.24
-2 -7 -2 36.66 2.27
2 -7 2 36.64 2.08
-2 -7 -3 262.43 7.43
2 -7 3 234.38 6.32
-2 -7 -3 223.66 7.1
-2 -7 -3 253 7.11
2 -7 3 245.87 7.21
2 -7 3 237.94 6.69
-2 -7 -3 223.63 6.99
2 -7 3 245.16 6.35
-2 -7 -3 236.77 6.49
2 -7 4 0.34 0.38
-2 -7 -4 2.84 0.77
-2 -7 -4 1.03 0.51
-2 -7 -4 1.2 0.64
2 -7 4 2.26 0.68
-2 -7 -4 1.43 0.6
2 -7 4 1.03 0.48
-2 -7 -4 0.93 0.44
-2 -7 -5 108.94 4.44
-2 -7 -5 105.9 4.69
-2 -7 -5 103.65 4.22
2 -7 5 101.29 3.82
-2 -7 -5 99.67 4.01
-2 -7 -6 289.85 8.19
-2 -7 -6 281.24 8.46
-2 -7 -6 286.51 7.71
2 -7 6 296.07 7.49
-2 -7 -6 299.88 7.92
-2 -7 -7 5.3 0.99
-2 -7 -7 3.35 0.87
-2 -7 -7 4.12 0.99
2 -7 7 3.74 0.76
-2 -7 -7 3.4 0.8
-2 -7 -8 -0.13 0.44
-2 -7 -8 0.08 0.46
-2 -7 -8 -0.31 0.45
2 -7 8 0.2 0.34
-2 -7 -8 0.31 0.44
-2 -7 -9 6.65 0.93
2 -7 9 8.02 0.9
-2 -7 -9 7.51 0.82
-2 -7 -9 7.86 1.09
-2 -7 -9 7.19 0.94
-2 -7 -10 0.37 0.31
2 -7 10 0.38 0.25
2 -6 -11 1.5 0.48
-2 -6 11 0.03 0.11
2 -6 -10 17.7 1.47
-2 -6 10 17.08 1.3
2 -6 -9 5.13 0.87
2 -6 -9 3.76 0.59
-2 -6 9 5.2 0.86
2 -6 -8 25.06 1.91
2 -6 -8 26.04 1.59
-2 -6 8 27.06 1.92
-2 -6 7 202.05 6.05
2 -6 -7 187.36 5.81
2 -6 -7 198.58 5.33
2 -6 -6 1898.83 33.88
-2 -6 6 2064.29 34.54
2 -6 -6 1915.44 33.88
2 -6 -6 2047.34 34.33
2 -6 -6 2067.84 33.38
2 -6 -5 84.11 3.1
-2 -6 5 73.34 3.41
2 -6 -5 74.25 3.21
2 -6 -5 77.88 3.37
-2 -6 5 86.03 3.87
2 -6 -5 78.66 3.25
2 -6 -4 307.44 7.28
2 -6 -4 304.22 7.55
-2 -6 4 340.53 8.46
2 -6 -4 328.52 7.85
2 -6 -4 308.22 7.92
-2 -6 4 330.38 8.59
-2 -6 3 8.09 0.86
2 -6 -3 5.72 0.95
2 -6 -3 6.67 0.87
2 -6 -3 8.01 1.01
-2 -6 3 6.48 1
2 -6 -3 6.7 0.82
2 -6 -2 50.84 2.58
-2 -6 2 49.48 2.14
2 -6 -2 56.08 2.37
-2 -6 2 50.94 2.25
2 -6 -2 51.54 2.76
-2 -6 2 51.08 2.46
-2 -6 1 11.57 1.28
-2 -6 1 11.89 1.09
2 -6 -1 13.12 1.28
-2 -6 1 14.44 1.39
2 -6 -1 12.17 1.07
2 -6 -1 13.53 1.35
-2 -6 1 11.67 1.04
-2 -6 1 13.84 1.25
2 -6 0 6.12 0.94
-2 -6 0 5.55 0.78
-2 -6 0 4.79 0.79
2 -6 0 6.26 0.92
-2 -6 0 6.02 0.83
2 -6 0 5.43 0.74
-2 -6 0 6.49 0.92
-2 -6 -1 605.45 12.52
2 -6 1 564.92 12.2
-2 -6 -1 532.38 11.75
-2 -6 -1 526.21 11.9
-2 -6 -1 587.98 11.99
2 -6 1 605.3 12.27
2 -6 1 565.08 11.24
-2 -6 -1 536.96 11.66
2 -6 2 0.99 0.39
-2 -6 -2 0.89 0.53
-2 -6 -2 0.69 0.46
2 -6 2 0.72 0.44
-2 -6 -2 0.66 0.42
2 -6 2 1.66 0.55
-2 -6 -2 1.25 0.49
-2 -6 -2 0.62 0.41
2 -6 2 0.96 0.39
-2 -6 -3 5.61 0.98
-2 -6 -3 5.86 0.84
-2 -6 -3 5.58 1.02
-2 -6 -3 5.59 0.93
2 -6 3 6.51 1.02
2 -6 3 6.31 0.95
-2 -6 -3 6.43 1.01
-2 -6 -3 6.38 0.88
2 -6 3 6.91 0.85
-2 -6 -4 2.15 0.61
-2 -6 -4 2.03 0.74
-2 -6 -4 1.59 0.59
2 -6 4 2.43 0.66
-2 -6 -4 2.77 0.76
-2 -6 -5 63.82 3.16
-2 -6 -5 60.02 3.51
-2 -6 -5 57.71 3.13
2 -6 5 61.12 3.12
-2 -6 -5 65.58 3.29
-2 -6 -6 45.21 2.75
-2 -6 -6 43.91 3.04
-2 -6 -6 47.42 2.88
2 -6 6 41.38 2.6
-2 -6 -6 46.48 2.72
-2 -6 -7 75.59 3.76
-2 -6 -7 67.79 3.62
-2 -6 -7 76.51 4.05
-2 -6 -7 70.86 3.56
-2 -6 -8 16.66 1.63
-2 -6 -8 16.23 1.82
-2 -6 -8 13.55 1.54
-2 -6 -9 0.81 0.41
-2 -6 -9 0.21 0.5
-2 -6 -10 0.88 0.46
2 -6 10 0.6 0.39
-2 -6 -10 0.06 0.38
2 -6 11 60.19 2.13
-2 -6 -11 68.23 2.45
2 -5 -12 14.53 1.1
2 -5 -11 11.5 1.15
-2 -5 11 7.39 0.78
2 -5 -10 22.32 1.72
-2 -5 10 21.48 1.53
2 -5 -9 310.31 6.92
-2 -5 9 300.95 7.67
2 -5 -8 24.4 1.85
-2 -5 8 25.1 1.82
2 -5 -8 27.53 2.01
-2 -5 8 23.84 1.88
2 -5 -8 24.55 1.54
2 -5 -7 1194.01 22.38
-2 -5 7 1260.24 22.67
2 -5 -7 1149.35 21.89
-2 -5 7 1280.77 22.85
2 -5 -7 1203.73 22.63
2 -5 -7 1283.54 21.74
2 -5 -7 1147.89 22.5
-2 -5 6 116.86 4.2
2 -5 -6 113.23 4.08
-2 -5 6 126.46 4.33
2 -5 -6 124.35 4.04
2 -5 -6 126.27 4.37
2 -5 -6 124.28 3.83
2 -5 -5 9.86 0.95
2 -5 -5 10.53 1.12
-2 -5 5 9.92 1.13
2 -5 -5 11.23 1.09
-2 -5 5 10.68 1.29
-2 -5 4 3.14 0.68
-2 -5 4 2.58 0.48
2 -5 -4 4.33 0.69
2 -5 -4 2.53 0.59
2 -5 -4 2.64 0.54
2 -5 -4 2.34 0.51
-2 -5 4 3.51 0.78
-2 -5 3 1.46 0.48
2 -5 -3 2.99 0.64
-2 -5 3 1.9 0.34
-2 -5 3 2.53 0.62
-2 -5 3 2.04 0.41
2 -5 -3 2.01 0.57
-2 -5 2 9.95 0.84
2 -5 -2 11.93 1.15
-2 -5 2 10.3 1.09
-2 -5 2 9.44 0.81
2 -5 -1 281.37 6.88
-2 -5 1 273 6.11
-2 -5 1 269.44 6.21
2 -5 0 106.91 3.7
-2 -5 0 109.62 3.61
-2 -5 0 115.21 3.34
-2 -5 0 105.43 3.78
-2 -5 0 103.32 3.38
2 -5 0 118 3.9
-2 -5 -1 858.86 15.49
2 -5 1 768.14 15.43
-2 -5 -1 841.63 15.82
-2 -5 -1 758.72 15.16
2 -5 1 848.94 15.73
-2 -5 -2 1994.78 32.52
2 -5 2 1961.14 32.79
-2 -5 -3 267.85 6.72
-2 -5 -3 264.99 7.49
-2 -5 -3 286.54 7.13
2 -5 3 290.23 7.38
-2 -5 -3 285.17 7.25
-2 -5 -3 283.42 7.39
-2 -5 -4 226.86 6.27
-2 -5 -4 249.5 7.26
-2 -5 -4 227.81 6.42
2 -5 4 240.66 6.72
-2 -5 -4 238.4 6.74
-2 -5 -5 39.16 2.4
2 -5 5 41.18 2.53
-2 -5 -5 37.81 2.4
-2 -5 -5 39.16 2.72
-2 -5 -6 38.7 2.54
2 -5 6 45.19 2.75
-2 -5 -6 42.92 2.6
-2 -5 -6 43.15 2.96
-2 -5 -7 22.88 2.01
2 -5 7 20.45 1.91
-2 -5 -7 19.79 1.89
-2 -5 -8 5.16 1.04
-2 -5 -8 6.36 1.22
-2 -5 -8 4.68 0.94
-2 -5 -9 7.79 1.21
-2 -5 -9 11.46 1.52
-2 -5 -9 8.2 1.01
-2 -5 -10 5.57 0.95
-2 -5 -10 5.25 0.98
-2 -5 -10 4.85 0.94
-2 -5 -11 68.34 2.8
-2 -5 -11 62.29 2.78
2 -4 -12 51.05 2.08
-2 -4 12 48.78 1.91
2 -4 -12 -0.03 0.12
2 -4 -12 51.11 2.07
2 -4 -12 -0.07 0.14
-2 -4 11 7.63 1.01
-2 -4 11 5.78 0.72
-2 -4 11 6.89 0.98
2 -4 -11 7.29 0.97
-2 -4 11 7.48 1
2 -4 -11 7.16 0.88
2 -4 -11 8.11 1.02
2 -4 -11 8.35 0.98
-2 -4 10 269.26 6.66
-2 -4 10 250.52 7.05
2 -4 -10 269.71 7.09
-2 -4 10 249.98 7.04
2 -4 -10 272.06 6.79
2 -4 -10 256.71 6.85
2 -4 -10 284.64 7.21
-2 -4 9 93.96 3.54
-2 -4 9 85.53 3.76
2 -4 -9 98.63 3.8
2 -4 -9 91.28 3.07
-2 -4 9 91.76 3.83
2 -4 -9 89.19 3.6
2 -4 -9 93.78 3.5
-2 -4 9 91.4 3.78
2 -4 -9 91.76 3.64
-2 -4 8 308.03 7.38
-2 -4 8 292.71 6.91
-2 -4 8 252.67 7.32
2 -4 -8 289.04 7.35
2 -4 -8 286.56 7.16
-2 -4 8 266.53 7.39
2 -4 -8 284.09 7.06
2 -4 -8 295.4 7.03
-2 -4 8 290.5 7.52
2 -4 -8 275.66 7.13
2 -4 -8 276.81 7.08
2 -4 -7 599.86 11.99
-2 -4 7 604.91 11.9
-2 -4 7 663.13 12.51
2 -4 -7 565.97 12.14
2 -4 -7 577.04 11.76
-2 -4 7 580.97 12.4
2 -4 -7 606.61 12.04
2 -4 -7 621.69 11.88
2 -4 -7 545.68 12.48
-2 -4 7 615.31 12.5
-2 -4 7 566.32 12.44
-2 -4 6 1136.86 20.51
-2 -4 6 1149.37 20.15
2 -4 -6 1094.38 20.44
2 -4 -6 1217.5 20.01
2 -4 -6 1063.29 20.55
2 -4 -6 1087.16 19.86
-2 -4 6 1222.12 20.89
-2 -4 6 1068.46 20.44
-2 -4 5 1296.59 23.97
-2 -4 5 1305.77 23.27
-2 -4 5 1335.68 22.93
2 -4 -5 1306.27 23.2
2 -4 -5 1271.55 23.01
2 -4 -5 1339.06 22.85
-2 -4 5 1344.05 23.45
2 -4 -5 1408.88 22.59
-2 -4 5 1250.44 22.93
-2 -4 4 1344.47 23.03
-2 -4 4 1264.93 23.26
-2 -4 4 1204.39 22.6
-2 -4 4 1544.71 23.89
2 -4 -4 1432.37 23.05
2 -4 -3 922.46 16.14
-2 -4 3 887.21 15.14
-2 -4 3 860.08 15.14
-2 -4 3 817.02 15.12
-2 -4 3 872.82 14.7
2 -4 -3 914.47 16.27
-2 -4 2 372.81 7.12
2 -4 -2 364.22 7.87
-2 -4 2 376.15 7
-2 -4 2 352.93 7
-2 -4 2 357.85 7.08
2 -4 -1 36.08 1.76
-2 -4 1 32.69 1.36
-2 -4 1 32.6 1.2
-2 -4 1 32.57 1.18
-2 -4 1 31.01 1.43
2 -4 -1 36.62 1.87
-2 -4 0 85.62 2.51
2 -4 0 91.5 3.02
-2 -4 0 87.68 2.78
2 -4 0 91.02 3.13
-2 -4 0 90.5 2.23
2 -4 1 141.22 4.16
-2 -4 -1 138.2 3.09
-2 -4 -2 235.35 5.79
-2 -4 -2 219.67 5.24
-2 -4 -2 230.98 5.1
-2 -4 -3 37.22 2.06
-2 -4 -3 34.83 1.65
-2 -4 -3 39.37 1.82
-2 -4 -4 2.57 0.59
-2 -4 -4 3.9 0.75
-2 -4 -4 2.53 0.54
-2 -4 -4 3.17 0.56
-2 -4 -5 175.37 5.27
-2 -4 -5 177.54 5.28
-2 -4 -5 164.43 4.87
-2 -4 -5 163.85 4.76
-2 -4 -6 19.93 1.59
-2 -4 -6 19.51 1.66
-2 -4 -6 18.45 1.68
-2 -4 -6 17.13 1.42
-2 -4 -6 19.7 1.68
-2 -4 -6 15.84 1.46
-2 -4 -6 19.98 1.54
-2 -4 -7 689.06 14.28
-2 -4 -7 696.92 15.72
-2 -4 -7 704.91 14.87
-2 -4 -7 687.54 14.13
-2 -4 -7 765.45 15.31
-2 -4 -7 631.23 14.26
-2 -4 -7 701.64 14.78
-2 -4 -7 708.21 14.51
-2 -4 -8 0.74 0.44
-2 -4 -8 0.85 0.63
-2 -4 -8 0.88 0.45
-2 -4 -8 2.3 0.8
-2 -4 -8 0.79 0.45
-2 -4 -8 0.96 0.54
-2 -4 -8 1.09 0.51
-2 -4 -8 0.72 0.49
-2 -4 -9 51.51 3.14
-2 -4 -9 54.01 3.27
-2 -4 -9 45.59 2.58
-2 -4 -9 53.7 3.08
-2 -4 -9 45.72 2.81
-2 -4 -9 50.25 2.72
-2 -4 -10 24.68 2.07
-2 -4 -10 21.03 1.88
-2 -4 -10 23.08 1.91
-2 -4 -10 19.4 1.56
-2 -4 -10 20.22 1.72
-2 -4 -10 18.25 1.54
-2 -4 -11 123.71 3.99
-2 -4 -11 127.34 3.79
-2 -4 -11 118.48 3.49
-2 -4 -12 2.35 0.52
-2 -3 13 1.23 0.42
-2 -3 13 0.94 0.38
2 -3 -13 0.38 0.27
2 -3 -13 0.2 0.29
2 -3 -13 0.76 0.34
-2 -3 12 182.9 5.63
2 -3 -12 201.38 5.19
-2 -3 12 188.84 5.66
-2 -3 12 198.48 5.73
2 -3 -12 208.68 5.55
2 -3 -12 209.11 5.68
2 -3 -12 222.35 6
-2 -3 11 74.2 3.53
2 -3 -11 76.59 3.13
-2 -3 11 74.39 3.51
2 -3 -11 79.76 3.35
2 -3 -11 80.04 3.44
2 -3 -11 78.96 3.53
2 -3 -10 136.96 4.99
2 -3 -10 148.14 5.07
-2 -3 10 144.43 4.37
2 -3 -10 152.92 4.83
-2 -3 10 146.87 5.34
2 -3 -10 156.71 5.2
2 -3 -10 143.89 4.99
2 -3 -10 146.53 4.9
-2 -3 10 144.74 4.99
-2 -3 10 135.63 5.18
-2 -3 9 164.07 4.79
-2 -3 9 160.21 4.7
-2 -3 9 168.97 5.71
2 -3 -9 149.83 4.86
2 -3 -9 161.54 5.27
2 -3 -9 164.98 5.22
2 -3 -9 164.91 5.13
-2 -3 9 152.82 5.14
-2 -3 9 150.74 5.44
2 -3 -9 150.46 5.15
2 -3 -9 162.05 5.25
-2 -3 8 15.45 1.28
-2 -3 8 17.72 1.67
2 -3 -8 18.78 1.46
2 -3 -8 18.46 1.48
2 -3 -8 15.82 1.43
-2 -3 8 18.53 1.56
2 -3 -8 18.35 1.48
2 -3 -8 16.84 1.49
-2 -3 8 16.07 1.57
-2 -3 7 453.03 9.49
-2 -3 7 446.15 10.32
2 -3 -7 437.66 9.59
2 -3 -7 487.13 9.84
-2 -3 7 448.67 9.93
2 -3 -7 479.78 9.82
2 -3 -7 446.15 9.89
-2 -3 7 435.89 10.19
-2 -3 6 2.29 0.51
-2 -3 6 2.7 0.62
2 -3 -6 2.38 0.5
2 -3 -6 2.64 0.58
2 -3 -6 2.6 0.52
-2 -3 6 2.31 0.58
-2 -3 6 2.58 0.56
2 -3 -6 2.07 0.4
2 -3 -6 3.33 0.63
-2 -3 5 231.2 5.55
2 -3 -5 213.49 4.86
2 -3 -5 228.33 5.57
2 -3 -4 401.18 8.24
-2 -3 4 402.27 8.09
2 -3 -3 646.43 11.2
-2 -3 3 538.45 10.74
-2 -3 3 624.32 11.19
2 -3 -3 558.68 11.14
2 -3 -2 14.35 0.96
-2 -3 2 14.38 0.7
-2 -3 2 13 0.85
-2 -3 2 13.4 0.72
-2 -3 1 1956.56 31.5
-2 -3 1 1980.93 31.94
-2 -3 1 1901.37 31.89
-2 -3 1 1966.05 31.97
-2 -3 0 1570.92 25.52
-2 -3 0 1512.43 25.11
-2 -3 0 1538.89 25.12
-2 -3 -1 0.86 0.28
-2 -3 -1 0.6 0.28
-2 -3 -2 231.69 4.83
-2 -3 -2 221.97 5.06
-2 -3 -2 225.4 5.27
-2 -3 -3 0.33 0.27
-2 -3 -3 0.48 0.28
-2 -3 -4 1202.89 21.01
-2 -3 -4 1213.2 21.17
-2 -3 -4 1180.81 20.72
2 -3 4 1135.82 19.39
-2 -3 -4 1070.37 20.64
-2 -3 -4 1176.07 20.74
-2 -3 -4 1293.14 20.96
-2 -3 -5 249.68 6.44
-2 -3 -5 281.81 6.62
-2 -3 -5 270.64 6.8
2 -3 5 256.2 5.45
-2 -3 -5 230.28 6.13
-2 -3 -5 256.89 6.43
-2 -3 -5 243.02 6.04
-2 -3 -5 264.9 6.76
-2 -3 -5 249.09 6.54
-2 -3 -5 271.56 6.48
-2 -3 -6 457.04 10.15
2 -3 6 452.1 9.05
-2 -3 -6 454.84 10.09
-2 -3 -6 483.09 10.38
-2 -3 -6 449.98 10.46
-2 -3 -6 446.84 10.43
-2 -3 -6 466.58 10.26
-2 -3 -6 456.69 10.24
-2 -3 -7 44.95 2.56
-2 -3 -7 40.31 2.54
-2 -3 -7 36.43 2.62
-2 -3 -7 35.28 2.22
-2 -3 -7 37.81 2.33
-2 -3 -7 44 2.57
-2 -3 -7 44.38 2.69
-2 -3 -7 47.47 2.76
-2 -3 -7 38.17 2.41
-2 -3 -7 42.19 2.51
-2 -3 -8 10.84 1.36
-2 -3 -8 12.24 1.53
-2 -3 -8 12.15 1.58
-2 -3 -8 13.55 1.5
-2 -3 -8 13.31 1.45
-2 -3 -8 13.33 1.6
-2 -3 -8 13.38 1.57
-2 -3 -8 11.52 1.43
-2 -3 -8 12.65 1.5
-2 -3 -9 2.96 0.74
-2 -3 -9 3.27 0.89
-2 -3 -9 2.54 0.81
-2 -3 -9 3 0.8
-2 -3 -9 2.52 0.71
-2 -3 -9 1.97 0.74
-2 -3 -9 2.8 0.77
-2 -3 -9 2.55 0.77
-2 -3 -9 1.71 0.67
-2 -3 -10 0.25 0.5
-2 -3 -10 0.23 0.43
-2 -3 -10 0.22 0.51
-2 -3 -10 -0.07 0.43
-2 -3 -10 -0.17 0.55
-2 -3 -10 0.07 0.42
-2 -3 -11 1.16 0.58
-2 -3 -11 0.78 0.43
-2 -3 -11 0.57 0.48
-2 -3 -11 0.69 0.44
-2 -3 -11 0.67 0.45
-2 -3 -12 1.45 0.51
-2 -3 -12 1.52 0.53
-2 -3 -12 1.12 0.4
-2 -3 -12 1.25 0.43
2 -2 -14 96.19 2.86
-2 -2 14 97.29 2.73
-2 -2 13 0.15 0.43
-2 -2 13 0.45 0.36
-2 -2 13 0.05 0.4
2 -2 -13 0.81 0.38
2 -2 -13 0.88 0.41
2 -2 -13 0.1 0.25
-2 -2 12 419.29 10.45
-2 -2 12 446.35 10.55
2 -2 -12 479.72 10.65
2 -2 -12 459.45 10.38
2 -2 -12 441.03 10.08
2 -2 -11 108.97 4.22
2 -2 -11 107.51 4.32
-2 -2 11 104.34 4.53
2 -2 -11 104.81 3.66
-2 -2 10 33.8 1.93
-2 -2 10 30.24 2.39
2 -2 -10 28.92 1.85
2 -2 -10 33.23 2.28
2 -2 -10 32.83 2.29
-2 -2 10 30.27 2.14
2 -2 -10 32.28 2.18
2 -2 -10 35.35 2.36
2 -2 -10 29.55 2.2
-2 -2 10 27.31 2.28
2 -2 -9 551.47 11.7
2 -2 -9 559.8 12.34
2 -2 -9 590.23 12.7
2 -2 -9 613.44 12.64
-2 -2 9 549.6 12.33
-2 -2 9 608.79 11.92
2 -2 -9 560.6 12.55
2 -2 -9 571.93 12.58
-2 -2 8 13.76 1.32
2 -2 -8 13.15 1.29
2 -2 -8 13.31 1.28
2 -2 -8 13.28 1.16
-2 -2 8 12.38 1.14
2 -2 -7 100.09 3.29
2 -2 -7 106.44 3.57
2 -2 -7 105.2 3.62
-2 -2 7 94.5 3.5
2 -2 -7 104.81 3.58
-2 -2 7 102.34 3.37
2 -2 -6 728.53 12.69
-2 -2 6 752.35 13.62
2 -2 -6 732.3 13.57
2 -2 -5 140.56 3.2
2 -2 -5 139.71 3.07
-2 -2 4 3212.64 53.06
2 -2 -4 3330.14 52.87
-2 -2 3 1306.77 21.55
2 -2 -3 1311.65 21.47
2 -2 -2 111.02 2.81
-2 -2 2 106.93 2.23
2 -2 -1 470.08 7.93
-2 -2 1 425.56 7.1
2 -2 -1 423.53 8.28
-2 -2 1 404.04 7.96
-2 -2 1 462.71 8.12
-2 -2 0 64.27 1.95
-2 -2 0 60.34 1.89
-2 -2 -1 94 2.49
-2 -2 -1 96.81 2.64
-2 -2 -2 57.64 1.92
-2 -2 -2 58.07 2.06
-2 -2 -2 53.27 1.92
2 -2 2 50.44 1.26
-2 -2 -3 732.97 12.8
2 -2 3 705.83 11.9
-2 -2 -3 699.95 13.08
2 -2 4 273.23 5.61
-2 -2 -4 286.78 6.69
-2 -2 -4 282.99 6.54
-2 -2 -5 236.65 6.16
-2 -2 -5 227.5 6
2 -2 5 241.1 5.22
-2 -2 -5 240.08 6.19
-2 -2 -5 243.07 6.12
-2 -2 -5 231.33 6.02
-2 -2 -6 25.43 1.79
-2 -2 -6 26.21 1.83
-2 -2 -6 21.38 1.55
-2 -2 -6 23.59 1.78
2 -2 6 24.89 1.4
-2 -2 -6 26.71 1.74
-2 -2 -6 23.08 1.68
-2 -2 -6 25.92 1.92
-2 -2 -6 27.14 1.78
-2 -2 -6 21.62 1.72
-2 -2 -6 26.17 1.82
-2 -2 -7 309.84 8.16
-2 -2 -7 317.52 8.28
-2 -2 -7 319.03 8.46
-2 -2 -7 317.1 7.36
-2 -2 -7 316.29 7.95
-2 -2 -7 303.87 8.01
2 -2 7 331.4 7.31
-2 -2 -7 314.84 8.49
-2 -2 -7 311.09 8.38
-2 -2 -7 313.19 8.22
-2 -2 -7 288.88 8.01
-2 -2 -8 649.65 14.26
-2 -2 -8 607.65 14.04
-2 -2 -8 610.61 13.01
-2 -2 -8 661.1 14.4
-2 -2 -8 695.09 14.01
-2 -2 -8 671.94 14.24
2 -2 8 665.9 13.08
-2 -2 -8 659.26 14.71
-2 -2 -8 659.76 14.66
-2 -2 -8 633.81 14.25
-2 -2 -8 609.99 14.16
-2 -2 -9 1144.16 22.58
-2 -2 -9 1188.34 22.78
-2 -2 -9 1086.31 21.24
-2 -2 -9 1183.62 22.5
-2 -2 -9 1280.23 22.61
-2 -2 -9 1179.77 22.68
-2 -2 -9 1213.27 23.44
-2 -2 -9 1114.14 23.13
-2 -2 -9 1141.69 22.79
-2 -2 -9 1026.37 22.42
-2 -2 -10 188.63 6.32
-2 -2 -10 187.35 5.92
-2 -2 -10 204.22 6.88
-2 -2 -10 183.64 6.31
-2 -2 -10 197.69 6.43
-2 -2 -11 160.79 5.4
-2 -2 -11 164.55 5.88
-2 -2 -11 167.32 5.6
-2 -2 -11 173.34 5.64
-2 -2 -12 9.07 1
-2 -2 -12 7.87 1
-2 -2 -12 9.28 1.18
-2 -2 -12 8.49 1.04
-2 -2 -13 0.39 0.3
-2 -2 -13 0.45 0.26
-2 -1 14 244.29 5.92
-2 -1 14 240.94 5.88
-2 -1 14 266.17 6.01
2 -1 -14 273.88 5.88
2 -1 -14 266.27 6.09
2 -1 -14 288.75 6.03
-2 -1 13 103.46 4
-2 -1 13 105.43 3.99
2 -1 -13 112.24 3.82
2 -1 -13 116.03 4.08
2 -1 -13 120.07 4
2 -1 -12 46.22 2.6
-2 -1 12 46.92 2.89
2 -1 -12 48.25 2.79
2 -1 -12 47.11 2.68
-2 -1 11 7.66 1.35
-2 -1 11 6.23 0.85
2 -1 -11 7.71 1.22
2 -1 -11 7.18 1.13
2 -1 -10 56.9 3.1
2 -1 -10 61.64 3.17
-2 -1 10 60.06 2.72
2 -1 -10 63.8 3.27
2 -1 -10 62.46 3.28
2 -1 -10 58.95 3.07
-2 -1 10 51.5 2.87
-2 -1 9 407.6 9.69
2 -1 -9 432.15 9.85
2 -1 -9 409.89 9.68
-2 -1 9 425.61 9.24
2 -1 -8 177.49 5.3
-2 -1 8 187 5.36
2 -1 -8 191.7 5.39
2 -1 -8 165.67 4.54
-2 -1 8 168.37 4.88
2 -1 -7 242 6.15
-2 -1 7 254.43 6.18
2 -1 -7 231.5 5.44
2 -1 -7 220.4 5.73
-2 -1 7 245.72 5.88
-2 -1 6 19.37 1.3
2 -1 -6 19.05 0.88
-2 -1 5 305.89 6.59
2 -1 -5 305.78 5.46
2 -1 -5 323.45 5.95
-2 -1 4 55.61 2.02
2 -1 -4 53.81 1.72
2 -1 -4 53.16 1.87
-2 -1 3 72.2 2.1
2 -1 -3 68.77 2.07
2 -1 -2 273.75 5.02
-2 -1 2 288.12 5.7
2 -1 -2 286.19 5.55
2 -1 -1 3152.96 49.58
2 -1 -1 3267.07 50.23
-2 -1 1 3155.63 50.36
-2 -1 0 33.42 1.31
-2 -1 0 33.16 1.32
2 -1 0 35.47 1.39
-2 -1 0 36.52 1.5
-2 -1 -1 1163.09 20.17
-2 -1 -1 1108.93 20.4
-2 -1 -2 2470.18 40.93
-2 -1 -2 2562.61 41.14
2 -1 2 2500.77 40.16
-2 -1 -3 641.29 11.09
-2 -1 -3 572.55 11.19
-2 -1 -3 560.62 11.04
-2 -1 -3 570.47 11.08
2 -1 3 616.81 10.45
-2 -1 -4 48.3 2.01
2 -1 4 48.45 1.74
-2 -1 -4 45.12 2.05
-2 -1 -4 42.09 2.05
2 -1 5 38.24 1.67
-2 -1 -5 33.99 1.99
-2 -1 -5 39.93 2.09
-2 -1 -5 37.88 2.01
-2 -1 -6 102.37 3.83
-2 -1 -6 112.79 4
-2 -1 -6 94.03 3.47
-2 -1 -6 113.2 3.98
-2 -1 -6 94.99 3.65
2 -1 6 104.8 3.27
-2 -1 -6 107.98 3.63
-2 -1 -6 105.41 4.03
-2 -1 -6 106.52 3.96
-2 -1 -6 97.66 3.74
-2 -1 -7 35.89 2.27
-2 -1 -7 35.35 2.24
-2 -1 -7 33.13 2.14
-2 -1 -7 34.36 1.92
-2 -1 -7 31.53 1.97
2 -1 7 36.76 1.95
-2 -1 -7 30.38 2.1
-2 -1 -7 31.39 2.28
-2 -1 -7 28.9 2.18
-2 -1 -7 34.99 2.29
-2 -1 -7 32.38 2.21
-2 -1 -8 26.09 2.09
-2 -1 -8 35.31 2.36
-2 -1 -8 29.02 1.93
-2 -1 -8 27.53 2.02
-2 -1 -8 27.71 1.96
-2 -1 -8 27.15 2.12
2 -1 8 30.55 1.89
-2 -1 -8 27.9 2.32
-2 -1 -8 28.18 2.3
-2 -1 -8 27.4 2.18
-2 -1 -8 21.29 1.95
-2 -1 -9 11.91 1.49
-2 -1 -9 9.9 1.37
-2 -1 -9 12.03 1.34
-2 -1 -9 10.4 1.24
-2 -1 -9 11.23 1.34
-2 -1 -9 14.44 1.63
2 -1 9 11.04 1.23
-2 -1 -9 12.04 1.64
-2 -1 -9 9.3 1.4
-2 -1 -9 8.88 1.38
-2 -1 -9 12.18 1.54
-2 -1 -10 162.29 5.71
-2 -1 -10 166.38 5.44
-2 -1 -10 169.22 6.43
-2 -1 -10 177.18 6.16
-2 -1 -10 172.04 6.05
-2 -1 -11 88.54 3.71
-2 -1 -11 89.72 4.05
-2 -1 -11 92.52 4.13
-2 -1 -11 88.28 4.26
-2 -1 -12 100.43 3.89
-2 -1 -12 102.71 3.93
-2 -1 -12 101.42 4.14
-2 -1 -13 0.04 0.27
-2 -1 -13 0.05 0.35
-2 -1 -13 -0.08 0.29
-2 0 14 101.32 3.34
-2 0 14 109.52 3.46
-2 0 14 107.23 3.37
2 0 -14 100.74 3.15
2 0 -14 112.38 3.45
2 0 -14 118.04 3.36
-2 0 13 0.82 0.54
-2 0 13 0.44 0.53
2 0 -13 0.58 0.45
2 0 -13 0.65 0.47
2 0 -13 0.22 0.35
-2 0 12 380.05 8
2 0 -12 357.59 8.99
-2 0 12 377.04 9.77
2 0 -12 372.39 9.29
2 0 -12 350.71 9.06
-2 0 11 -0.09 0.56
2 0 -11 -0.07 0.48
-2 0 11 0.21 0.36
2 0 -11 -0.08 0.49
2 0 -10 590.33 12.72
-2 0 10 589.62 12.53
-2 0 10 575.02 11.88
2 0 -10 534.11 12.5
2 0 -10 531.17 12.54
2 0 -10 565.73 12.57
2 0 -10 541.76 12.58
2 0 -9 0.13 0.36
2 0 -9 0.27 0.39
2 0 -9 -0.13 0.33
-2 0 9 0.5 0.42
-2 0 9 0.27 0.36
-2 0 8 1396.05 25.95
2 0 -8 1434.16 26.08
-2 0 8 1468.77 25.85
-2 0 7 -0.05 0.27
2 0 -7 0.09 0.14
-2 0 7 -0.04 0.25
2 0 -7 0.19 0.27
2 0 -6 599.26 11.44
2 0 -6 602.35 10.97
-2 0 5 0.21 0.24
2 0 -5 0.1 0.16
-2 0 4 4691.15 73.55
2 0 -4 4705.36 73.42
2 0 -4 4538.7 73.29
-2 0 3 0.29 0.29
2 0 -3 0.14 0.15
2 0 -3 0.77 0.27
-2 0 2 2151.87 34.33
2 0 -2 2114.8 34.35
-2 0 2 2218.85 35.02
2 0 -1 0.13 0.16
-2 0 1 0.29 0.15
-2 0 1 0.11 0.21
-2 0 1 0.55 0.26
-2 0 0 7.32 0.61
-2 0 0 6.72 0.59
-2 0 0 6.62 0.66
-2 0 0 7.98 0.66
-2 0 -1 0.47 0.25
-2 0 -1 0.67 0.27
-2 0 -1 0.35 0.27
-2 0 -1 0.17 0.21
-2 0 -2 22.86 1.15
-2 0 -2 20.58 1.2
-2 0 -2 22.61 1.21
-2 0 -2 21.95 1.21
-2 0 -3 0.23 0.29
-2 0 -3 0.13 0.27
-2 0 -3 0.3 0.29
2 0 3 0.15 0.09
-2 0 -3 0.04 0.27
2 0 4 1049.6 17.83
-2 0 -4 1015.14 18.59
-2 0 -4 1045.69 18.52
-2 0 -5 -0.05 0.3
-2 0 -5 -0.34 0.34
2 0 5 0.37 0.3
-2 0 -5 -0.05 0.33
-2 0 -6 2.16 0.65
-2 0 -6 1.65 0.58
-2 0 -6 1.87 0.54
-2 0 -6 2.24 0.54
-2 0 -6 1.51 0.51
2 0 6 2.07 0.49
-2 0 -6 2.33 0.6
-2 0 -7 0.42 0.44
-2 0 -7 0.35 0.39
-2 0 -7 0.2 0.35
-2 0 -7 0.06 0.32
-2 0 -7 0.2 0.33
-2 0 -7 0.47 0.39
2 0 7 0.4 0.33
-2 0 -7 -0.08 0.45
-2 0 -7 0.44 0.42
-2 0 -8 496.54 11.8
-2 0 -8 550.28 11.82
-2 0 -8 529.33 11.21
2 0 8 503.37 10.93
-2 0 -8 545.98 12.07
-2 0 -8 470.95 12.03
-2 0 -8 452.36 11.8
-2 0 -8 509.67 11.96
-2 0 -8 478.65 11.78
-2 0 -9 -0.09 0.47
-2 0 -9 0.36 0.6
-2 0 -9 0.43 0.53
-2 0 -9 0.07 0.46
-2 0 -9 2.31 0.79
2 0 9 0.13 0.36
-2 0 -9 0.68 0.54
-2 0 -9 0.35 0.44
-2 0 -9 1.46 0.79
-2 0 -10 1397.2 26.08
-2 0 -10 1491.39 26.42
-2 0 -10 1459.64 27.13
-2 0 -10 1358.8 26.77
-2 0 -10 1333.83 27.29
-2 0 -11 -0.08 0.52
-2 0 -11 -0.24 0.53
-2 0 -11 -0.07 0.49
-2 0 -11 0.19 0.67
-2 0 -12 62.51 3.01
-2 0 -12 62.06 3
-2 0 -12 62.44 3.23
-2 0 -13 -0.13 0.32
-2 0 -13 0.05 0.35
-2 0 -13 0.17 0.3
-2 1 14 260.18 6.21
-2 1 14 262.41 6.2
-2 1 14 268.2 6.18
2 1 -14 276.41 5.95
2 1 -14 275.09 6.16
2 1 -14 278.2 5.98
-2 1 13 107.13 4.16
-2 1 13 118.25 4.27
2 1 -13 108.35 3.74
2 1 -13 118.37 4.05
2 1 -13 108.86 3.8
-2 1 12 49.14 2.23
2 1 -12 48.12 2.58
-2 1 12 45.31 2.91
2 1 -12 44.14 2.64
2 1 -12 46.3 2.6
-2 1 11 5.94 1.21
2 1 -11 7.49 1.12
-2 1 11 6.05 0.88
2 1 -11 6.64 1.13
2 1 -10 57.62 3.06
-2 1 10 56.35 2.89
-2 1 10 56.73 2.77
2 1 -10 59.27 3.13
2 1 -10 59.18 3.05
2 1 -10 62.54 3.23
2 1 -10 58.02 3.11
-2 1 9 435.67 9.66
2 1 -9 394.48 9.66
-2 1 9 386.78 9.3
2 1 -9 400.3 9.62
2 1 -9 450.96 9.94
-2 1 8 187.02 5.24
2 1 -8 194.71 5.48
-2 1 8 176.8 5.18
2 1 -8 168.95 4.28
2 1 -8 178.36 5.2
2 1 -7 234.5 5.26
-2 1 7 238.84 6.04
-2 1 7 241.58 5.9
2 1 -7 244.22 6.15
-2 1 6 17.62 1.17
2 1 -6 15.17 0.97
-2 1 5 313.37 6.38
2 1 -5 300.15 5.35
-2 1 4 54.26 1.77
2 1 -4 55.09 1.58
2 1 -4 52.61 1.79
-2 1 4 51.95 1.96
-2 1 3 68.33 2.29
-2 1 3 64.11 2.12
2 1 -3 66.73 1.66
2 1 -2 264.93 4.8
-2 1 2 266.11 5.61
2 1 -1 3156.6 48.67
2 1 -1 2920.39 49.45
-2 1 1 3031.32 49.44
-2 1 1 3224.86 49.57
-2 1 0 29.85 1.24
-2 1 0 30.94 1.26
-2 1 0 34.38 1.48
-2 1 0 30.31 1.31
-2 1 -1 1304.33 20.98
-2 1 -1 1311.44 21.4
-2 1 -1 1275.6 21.16
-2 1 -2 2398.7 38.38
-2 1 -2 2421.1 38.75
-2 1 -2 2292.4 38.53
2 1 3 567.92 9.88
-2 1 -3 578.24 11.11
-2 1 -3 574.05 10.93
-2 1 -3 568.8 10.92
-2 1 -4 51.49 2.03
-2 1 -4 46.79 2.09
-2 1 -4 42.74 2.03
-2 1 -4 45.84 2.15
2 1 4 47.29 1.41
-2 1 -5 33.95 1.99
-2 1 -5 37.96 2.01
-2 1 -5 33.46 1.92
-2 1 -6 108.68 3.93
-2 1 -6 100.54 3.84
-2 1 -6 107.6 3.61
-2 1 -6 107.04 3.76
-2 1 -6 96.71 3.7
2 1 6 103.89 3.58
-2 1 -6 103.36 3.96
-2 1 -6 105.31 3.85
-2 1 -7 35.97 2.29
-2 1 -7 34.48 2.14
-2 1 -7 34.81 1.83
-2 1 -7 34.04 1.96
2 1 7 40.88 2.21
-2 1 -7 34.48 2.23
-2 1 -7 37.65 2.45
-2 1 -7 33.27 2.34
-2 1 -7 34.67 2.29
-2 1 -7 32.99 2.24
-2 1 -8 26.67 2.09
-2 1 -8 24.37 1.9
-2 1 -8 28.36 1.95
-2 1 -8 25.15 1.71
-2 1 -8 25.64 2.06
2 1 8 28.3 1.94
-2 1 -8 27.61 2.29
-2 1 -8 28.14 2.28
-2 1 -8 29.13 2.23
-2 1 -8 24.85 2.07
-2 1 -9 10.99 1.44
-2 1 -9 11.68 1.35
-2 1 -9 9.91 1.39
2 1 9 13.08 1.39
-2 1 -9 10.4 1.15
-2 1 -9 11.4 1.34
-2 1 -9 12.92 1.6
-2 1 -9 9.59 1.47
-2 1 -9 10.17 1.43
-2 1 -9 11.63 1.54
-2 1 -10 162.63 5.91
-2 1 -10 166.38 5.62
-2 1 -10 158.93 6.21
-2 1 -10 173.38 6.04
-2 1 -11 96.06 4.14
-2 1 -11 94.06 3.94
-2 1 -11 95.87 4.41
-2 1 -11 94.5 4.09
-2 1 -12 100.91 4.09
-2 1 -12 103.07 3.89
-2 1 -12 99.72 3.87
-2 1 -13 0.28 0.37
-2 1 -13 0.04 0.27
-2 1 -13 -0.04 0.28
2 2 -14 102.35 2.9
-2 2 14 109.25 3.04
-2 2 13 0.14 0.23
-2 2 13 -0.11 0.41
-2 2 13 0.49 0.35
-2 2 13 -0.22 0.47
2 2 -13 0.98 0.38
2 2 -13 0.5 0.33
2 2 -13 0.5 0.32
-2 2 12 463.31 9.54
-2 2 12 443.07 10.85
-2 2 12 436.87 10.8
2 2 -12 444.99 10.04
2 2 -12 459.74 10.39
2 2 -12 452.97 10.23
-2 2 11 112.71 4.84
2 2 -11 104.41 4.1
2 2 -11 113.16 4.38
-2 2 11 110.97 3.97
-2 2 10 33.86 2.13
-2 2 10 34.01 2.6
-2 2 10 29.68 2.03
2 2 -10 32.68 2.17
-2 2 10 29.95 2.45
2 2 -10 30.12 2.16
2 2 -10 31.41 2.17
2 2 -10 29.49 2.13
2 2 -10 26.59 2.07
-2 2 9 595.8 12.45
2 2 -9 567.21 12.51
-2 2 9 612.24 12.7
2 2 -9 583.84 12.78
2 2 -9 638.04 12.8
2 2 -9 557.44 12.6
2 2 -9 586.63 12.52
-2 2 8 12.55 1.18
-2 2 8 13.35 1.31
2 2 -8 11.43 0.99
2 2 -8 11.9 1.19
2 2 -7 99.77 3.5
-2 2 7 102.13 3.34
-2 2 7 96.79 3.55
2 2 -7 100.25 3.11
2 2 -7 98.43 3.41
-2 2 6 765.39 14.22
-2 2 6 744.91 14.23
-2 2 6 756.68 13.64
-2 2 5 141.15 3.49
2 2 -5 140.48 3.62
-2 2 4 3263.47 49.71
-2 2 4 3028.84 50.54
2 2 -4 2852.98 49.95
-2 2 4 3346.12 50.71
-2 2 3 1201.63 19.86
-2 2 3 1245.45 20.9
-2 2 3 1247.79 20.87
-2 2 2 114.44 2.2
2 2 -2 102.67 2.81
-2 2 2 118.45 2.73
-2 2 2 103.02 2.91
-2 2 2 113.93 2.9
-2 2 1 437.76 8.02
2 2 -1 407.24 7.87
-2 2 1 431.35 7.97
-2 2 1 444.08 7.96
-2 2 1 416.5 7.9
2 2 0 57.27 1.17
2 2 0 54.06 1.75
-2 2 0 56.26 1.75
-2 2 0 60.41 1.84
-2 2 0 58.66 1.8
-2 2 -1 89.54 2.45
-2 2 -1 98.17 2.94
2 2 1 85.1 2.33
-2 2 -1 99.33 2.84
-2 2 -1 96.6 2.67
-2 2 -2 55.05 1.85
-2 2 -2 53.2 2.16
2 2 2 51.66 1.6
-2 2 -2 51.45 2.03
-2 2 -2 49.24 1.92
-2 2 -3 680.63 13.19
-2 2 -3 659.78 13.18
-2 2 -3 709.92 13.38
2 2 3 710.2 12.19
2 2 3 747.47 12.52
-2 2 -4 260.63 6.39
-2 2 -4 267.11 6.44
-2 2 -4 267.46 6.55
-2 2 -5 217.88 5.86
-2 2 -5 217.01 5.86
2 2 5 238.57 4.99
-2 2 -5 230.51 6.11
-2 2 -6 22.23 1.54
-2 2 -6 23.87 1.43
-2 2 -6 24.32 1.74
-2 2 -6 23.86 1.72
2 2 6 26.16 1.73
-2 2 -6 24.68 1.77
-2 2 -6 22.43 1.7
-2 2 -6 22.12 1.79
-2 2 -6 24.31 1.66
-2 2 -6 23.98 1.81
-2 2 -7 321.8 7.38
-2 2 -7 307.57 8.14
-2 2 -7 319.58 8.19
-2 2 -7 311.95 8.18
-2 2 -7 303.48 8.11
-2 2 -7 285.55 8.26
-2 2 -7 299 8.31
-2 2 -8 653.62 12.98
-2 2 -8 631.51 13.81
2 2 8 631.86 13.32
-2 2 -8 603.99 13.66
-2 2 -8 636.47 14.36
-2 2 -8 605.01 14.03
-2 2 -8 626.57 13.88
-2 2 -8 589.32 13.75
-2 2 -9 1150.87 22.35
-2 2 -9 1167.31 22.18
2 2 9 1102.11 21.28
-2 2 -9 1130.69 22.03
-2 2 -9 1077.49 20.9
-2 2 -9 1187 20.67
-2 2 -9 1154.53 22.69
-2 2 -9 1119.14 22.58
-2 2 -10 192.84 6.69
-2 2 -10 190.06 5.25
-2 2 -10 191.14 6.32
-2 2 -10 187.08 6.28
-2 2 -11 165.3 5.8
-2 2 -11 166.11 5.5
-2 2 -11 164.73 5.5
-2 2 -12 9.2 1.04
-2 2 -12 8.26 1.05
-2 2 -12 9 1.04
-2 2 -12 10.37 1.21
-2 2 -13 0.51 0.3
-2 2 -13 0.29 0.26
-2 3 13 3.35 0.62
-2 3 13 0.54 0.24
-2 3 13 2.58 0.52
-2 3 13 2.52 0.55
2 3 -13 -0.07 0.24
2 3 -13 0.15 0.3
2 3 -13 0.13 0.25
-2 3 12 211.51 5.38
-2 3 12 215.51 6.25
-2 3 12 200.95 6.01
-2 3 12 202.63 6.07
2 3 -12 198.03 5.46
2 3 -12 203.44 5.71
2 3 -12 208.33 5.59
-2 3 11 77.94 3.28
-2 3 11 86.94 3.95
-2 3 11 75.57 3.71
2 3 -11 79.48 3.29
2 3 -11 72.98 3.33
2 3 -11 78.5 3.34
-2 3 10 151.1 5.03
-2 3 10 154.69 5.63
2 3 -10 143.03 4.89
2 3 -10 135.07 4.78
-2 3 10 144.96 4.78
2 3 -10 147.03 4.8
-2 3 10 137.02 5.36
2 3 -10 138.72 4.92
2 3 -10 142.41 4.9
2 3 -9 146.17 4.98
2 3 -9 149.04 4.97
-2 3 9 155.02 5.19
-2 3 9 159 5.69
2 3 -9 152.78 4.27
2 3 -9 142.74 4.89
2 3 -9 159.35 4.99
-2 3 9 158.96 4.91
2 3 -9 157.59 4.93
2 3 -9 145.96 4.46
-2 3 9 153.18 5.59
2 3 -8 17.93 1.49
-2 3 8 19.5 1.64
-2 3 8 19.25 1.78
2 3 -8 16.26 1.36
2 3 -8 15.26 1.38
2 3 -8 20.09 1.52
-2 3 8 15.01 1.29
2 3 -8 17.56 1.33
-2 3 8 13.78 1.5
-2 3 7 480.52 10.52
-2 3 7 468.01 10.71
2 3 -7 487.46 9.92
2 3 -7 487.98 10.01
-2 3 7 453.84 9.57
2 3 -7 495.71 9.8
-2 3 7 446.71 10.24
-2 3 7 432.92 10.41
-2 3 6 2.09 0.54
-2 3 6 3.01 0.5
2 3 -6 1.7 0.44
-2 3 6 1.71 0.5
2 3 -6 2.69 0.52
-2 3 6 2.87 0.61
2 3 -6 3.2 0.52
2 3 -6 2.04 0.49
-2 3 5 218.58 5.7
-2 3 5 214.4 4.85
-2 3 5 231.56 5.68
-2 3 5 238.75 5.9
2 3 -5 217.41 5.28
-2 3 5 228.15 5.79
-2 3 4 393.8 7.43
-2 3 4 419.74 8.44
-2 3 4 421.62 8.67
-2 3 3 600.04 10.11
-2 3 3 619.31 11.07
-2 3 3 614.26 10.58
-2 3 2 13.74 0.4
-2 3 2 13.78 0.88
-2 3 2 13.73 1
2 3 -2 13.31 0.89
-2 3 2 14.97 0.89
-2 3 2 14.78 0.88
-2 3 1 2052.58 32.68
-2 3 1 2018.6 32.64
-2 3 1 2101.96 32.2
-2 3 0 1518.17 26.56
2 3 0 1599.99 25.96
-2 3 0 1608.35 26.18
-2 3 0 1600.25 25.85
-2 3 0 1582.08 25.86
-2 3 -1 0.58 0.32
2 3 1 0.58 0.21
-2 3 -1 0.37 0.19
-2 3 -2 236.31 4.86
-2 3 -2 227.89 5.67
2 3 2 221.17 4.41
2 3 2 229.17 4.94
-2 3 -2 211.34 5.14
-2 3 -2 211.28 5
-2 3 -3 0.15 0.2
-2 3 -3 0.11 0.25
-2 3 -3 -0.08 0.22
2 3 3 0.22 0.12
2 3 3 0.09 0.19
-2 3 -4 1148.28 21.1
2 3 4 1138.85 20.36
-2 3 -4 1178.46 21.27
-2 3 -5 263.17 6.86
-2 3 -5 250.61 6.2
-2 3 -5 292.62 6.32
-2 3 -5 263.77 6.31
-2 3 -5 276.69 6.71
-2 3 -5 257.79 6.64
-2 3 -5 294.3 7.49
2 3 5 273.07 6.12
-2 3 -5 279.17 6.5
-2 3 -5 273.04 6.74
-2 3 -5 267.79 6.78
-2 3 -6 413.2 10
-2 3 -6 454.32 10.13
-2 3 -6 435.65 9.33
-2 3 -6 456.98 9.61
-2 3 -6 433.49 9.97
-2 3 -6 463.98 10.15
-2 3 -6 490.32 9.84
2 3 6 448.05 9.21
-2 3 -6 448.22 10.49
-2 3 -6 432.73 10.24
-2 3 -7 39.78 2.47
-2 3 -7 39.03 2.42
-2 3 -7 43.53 2.25
-2 3 -7 39 2.17
-2 3 -7 43.26 2.5
-2 3 -7 37.51 2.34
2 3 7 46.01 2.59
-2 3 -7 37.98 2.14
-2 3 -7 40.26 2.62
-2 3 -7 35.51 2.42
-2 3 -8 13.07 1.34
-2 3 -8 13.9 1.37
-2 3 -8 12.65 1.29
-2 3 -8 16.14 1.6
2 3 8 10.35 1.28
-2 3 -8 11.93 1.37
-2 3 -8 11.27 1.47
-2 3 -8 13.2 1.54
-2 3 -8 11.27 1.41
-2 3 -8 14.43 1.54
-2 3 -9 2.8 0.8
-2 3 -9 2.24 0.74
-2 3 -9 3.33 0.77
-2 3 -9 2.9 0.67
-2 3 -9 1.7 0.55
-2 3 -9 2.82 0.73
2 3 9 2.48 0.7
-2 3 -9 2.37 0.72
-2 3 -9 2.68 0.76
-2 3 -9 3.26 0.83
-2 3 -10 -0.29 0.39
-2 3 -10 0.16 0.28
-2 3 -10 0.07 0.38
-2 3 -10 -0.14 0.46
-2 3 -10 0.33 0.51
-2 3 -11 1.66 0.59
-2 3 -11 0.83 0.46
-2 3 -11 0.24 0.21
-2 3 -11 0.69 0.49
-2 3 -11 0.55 0.45
-2 3 -12 1.37 0.44
-2 3 -12 0.47 0.4
-2 3 -12 1.28 0.49
-2 3 -12 1.44 0.42
2 4 -13 5.93 0.63
-2 4 12 0.04 0.15
-2 4 12 54.83 2.17
2 4 -12 50.51 1.98
-2 4 12 56.76 2.16
-2 4 12 0.04 0.14
-2 4 11 7.94 1.03
-2 4 11 8.19 1.11
-2 4 11 8.45 1.11
-2 4 11 8.19 1.08
2 4 -11 7.47 0.92
2 4 -11 7.48 0.97
2 4 -11 9.26 0.99
-2 4 10 285.02 7.53
-2 4 10 281.56 7.55
-2 4 10 281.57 7.55
2 4 -10 268.58 6.81
2 4 -10 258.68 6.87
2 4 -10 250.52 6.87
2 4 -9 84.81 3.51
-2 4 9 94.34 4
2 4 -9 90.49 3.2
-2 4 9 96.64 4.02
-2 4 9 95.43 4.04
2 4 -9 92.99 3.5
2 4 -9 93.94 3.57
-2 4 9 91.44 4.04
2 4 -8 276.94 6.99
2 4 -8 273.44 7
-2 4 8 295.02 7.86
-2 4 8 308.98 7.8
2 4 -8 270.78 6.73
-2 4 8 295.87 7.7
2 4 -8 274.41 6.85
2 4 -8 278.32 6.86
-2 4 8 283.4 6.83
2 4 -8 265.57 6.91
-2 4 8 282.64 7.63
-2 4 8 265.95 7.44
2 4 -7 564.18 11.6
-2 4 7 585.73 12.67
-2 4 7 621.34 12.47
2 4 -7 535.84 11.62
2 4 -7 577.89 11.45
-2 4 7 570.03 11.33
2 4 -7 610.83 11.95
-2 4 7 592.49 12.69
-2 4 7 574.89 12.26
-2 4 6 1231.38 21.26
-2 4 6 1123.34 20.05
-2 4 6 1231.17 21.37
2 4 -6 1118.24 20.74
-2 4 6 1177.43 21.75
2 4 -6 1130.93 20.7
2 4 -6 1165.63 20.21
2 4 -5 1350.81 22.96
-2 4 5 1317.15 24.35
-2 4 5 1347.19 22.78
-2 4 5 1353.54 24.48
-2 4 5 1390.51 23.81
2 4 -4 1271.78 22.97
-2 4 4 1300.29 21.87
-2 4 4 1347.06 22.75
2 4 -3 944.45 16.34
-2 4 3 881.81 15.92
-2 4 3 903.27 16.87
-2 4 3 914.97 15.8
-2 4 3 923.73 15.82
-2 4 2 381.97 7.88
-2 4 2 393.28 8.31
2 4 -2 394.4 7.8
-2 4 2 392.29 7.29
-2 4 2 376.04 7.23
-2 4 1 34.26 1.73
-2 4 1 34.73 1.7
2 4 -1 36.01 1.53
-2 4 1 34.73 1.24
-2 4 1 34.04 1.23
-2 4 0 85 2.7
2 4 0 82.74 2.45
-2 4 0 85.62 2.2
2 4 1 126.61 3.46
-2 4 -1 119.31 3.16
2 4 1 127.45 3.03
-2 4 -1 125.09 2.9
2 4 2 232.86 4.57
2 4 2 217.11 5.25
-2 4 -2 214.7 4.55
-2 4 -2 229.48 5.05
-2 4 -2 220.69 5.22
-2 4 -3 39.24 1.78
-2 4 -3 43.14 2.08
2 4 3 38.18 1.81
-2 4 -3 37.82 1.82
-2 4 -4 3.23 0.58
-2 4 -4 3.84 0.68
-2 4 -4 3.4 0.63
-2 4 -4 2.43 0.5
-2 4 -4 2.99 0.75
2 4 4 4.65 0.65
-2 4 -4 1.97 0.49
-2 4 -5 163.05 4.77
-2 4 -5 162.31 4.82
-2 4 -5 177.84 5.05
-2 4 -5 164.35 4.64
-2 4 -5 164.31 5.61
2 4 5 170.46 4.79
-2 4 -5 149.62 4.77
-2 4 -6 21.7 1.66
-2 4 -6 23.81 1.61
-2 4 -6 17.91 1.51
2 4 6 19.41 1.47
-2 4 -6 18.3 1.64
-2 4 -6 19.71 1.64
-2 4 -7 705.45 14.61
-2 4 -7 767.38 14.54
-2 4 -7 696.31 14.3
-2 4 -7 695.14 14.98
-2 4 -7 670 14.73
-2 4 -7 755.55 14.76
-2 4 -7 715.51 14.55
-2 4 -8 1.1 0.5
-2 4 -8 0.57 0.47
-2 4 -8 0.84 0.53
-2 4 -8 1.13 0.49
-2 4 -8 1.09 0.51
-2 4 -9 47.44 2.64
-2 4 -9 54.44 2.84
-2 4 -9 51.97 2.78
-2 4 -9 49.53 2.6
-2 4 -9 47.7 2.6
-2 4 -10 20.85 1.64
-2 4 -10 22.84 1.77
-2 4 -10 20.64 1.73
-2 4 -10 20.27 1.55
-2 4 -10 19.7 1.56
-2 4 -11 121.01 3.77
-2 4 -11 119.27 3.87
-2 4 -11 127.41 4.19
-2 4 -11 126.43 3.67
-2 5 12 14.59 1.05
2 5 -12 14.69 1.08
-2 5 11 12.35 1.2
-2 5 10 22.18 1.75
2 5 -10 19.7 1.31
-2 5 9 328.11 8.59
2 5 -9 310.88 7.36
2 5 -8 23.27 1.76
-2 5 8 22.38 1.92
-2 5 8 22.84 1.98
2 5 -8 26.01 1.69
2 5 -7 1163.05 21.95
-2 5 7 1185.91 23.01
2 5 -7 1236.24 21.72
-2 5 6 142.51 4.94
2 5 -6 132.75 4.29
-2 5 6 118.56 4.64
2 5 -6 113.57 4.08
-2 5 6 131.62 4.66
2 5 -6 130.17 4.13
2 5 -5 9.33 0.99
2 5 -5 10.28 1.07
-2 5 5 11.08 1.29
-2 5 5 10.94 1.23
2 5 -4 3.47 0.61
2 5 -4 3.5 0.65
-2 5 4 3.23 0.72
-2 5 4 2.31 0.62
-2 5 3 1.81 0.44
-2 5 3 1.88 0.56
2 5 -3 2.21 0.49
-2 5 3 1.92 0.57
-2 5 3 1.45 0.52
2 5 -2 9.96 0.9
-2 5 2 8.98 1.11
-2 5 2 10.53 1.16
-2 5 2 10.75 1.03
2 5 -2 9.65 0.88
-2 5 2 9.81 1.05
2 5 -1 268.26 6.07
-2 5 1 254.49 7.03
-2 5 1 283.12 7.13
-2 5 1 283.21 6.83
2 5 -1 293.58 6.13
2 5 -1 257.99 6.22
-2 5 1 275.79 6.63
-2 5 0 111.44 4.07
-2 5 0 106.74 3.92
-2 5 0 115.52 3.97
2 5 0 117.03 3.17
-2 5 0 108.71 3.48
-2 5 -1 772.89 15.91
-2 5 -1 793.15 15.73
-2 5 -1 807.01 15.96
2 5 1 826.25 14.24
2 5 1 847.76 15.17
-2 5 -1 806.69 14.58
2 5 2 1761.81 30.42
-2 5 -2 1709.63 31.28
2 5 3 288.04 6.84
-2 5 -3 265.5 7.21
-2 5 -3 276.88 6.45
-2 5 -3 263.63 6.43
-2 5 -4 223.86 6.39
2 5 4 233.57 6.17
-2 5 -4 214.43 6.2
-2 5 -4 227.61 5.72
-2 5 -4 220.81 5.61
-2 5 -5 36.2 2.26
-2 5 -5 44.4 2.92
2 5 5 37.54 2.21
-2 5 -5 37.98 2.31
-2 5 -5 40.36 2.08
-2 5 -5 42.57 2.16
-2 5 -6 52.87 2.7
-2 5 -6 46.1 2.63
-2 5 -6 45.24 2.99
2 5 6 43.54 2.48
-2 5 -6 43.92 2.34
-2 5 -6 44.67 2.32
2 5 7 19.26 1.82
-2 5 -7 18.11 1.65
-2 5 -7 16.59 1.45
-2 5 -8 5.05 0.88
-2 5 -8 5.95 1
-2 5 -9 8.24 1.08
-2 5 -9 9.07 1.16
-2 5 -9 9.96 1.16
-2 5 -10 4.66 0.78
-2 5 -10 6.01 0.84
-2 5 -11 64.35 2.53
-2 5 -11 66.1 2.34
2 6 -12 90.51 2.53
-2 6 12 84.47 2.41
2 6 -11 1.92 0.48
-2 6 11 1.44 0.46
2 6 -10 20.14 1.44
-2 6 10 17.04 1.46
2 6 -9 4.99 0.82
2 6 -9 4.85 0.77
-2 6 9 4.7 0.93
2 6 -8 27.57 1.89
2 6 -8 23.76 1.69
2 6 -7 204.18 5.74
2 6 -7 185.43 5.79
-2 6 7 179.49 6.26
2 6 -7 186.65 5.5
-2 6 7 200.73 6.41
2 6 -6 2032.16 34.08
2 6 -6 1988.33 33.95
-2 6 6 1928.44 35.4
2 6 -6 1937.44 34.46
-2 6 6 2035.69 34.99
-2 6 6 1851.65 35.1
-2 6 5 82.1 3.63
-2 6 5 78.69 3.58
2 6 -5 73.54 2.73
2 6 -5 77.46 3.26
2 6 -5 77.17 3.41
2 6 -4 291.29 7.29
-2 6 4 310.5 8.28
2 6 -4 302.87 7.1
-2 6 4 299.82 8.05
2 6 -4 323.23 7.54
-2 6 4 297.88 8.22
2 6 -4 302.7 6.98
-2 6 3 7.43 1.12
2 6 -3 5.53 0.8
-2 6 3 7.28 1.09
2 6 -3 7.72 0.9
2 6 -3 5.81 0.77
-2 6 3 6.67 1.02
-2 6 2 51.68 2.95
2 6 -2 48.92 2.3
-2 6 2 53.53 2.9
-2 6 2 48.49 2.52
2 6 -2 55.88 2.37
2 6 -2 51.39 2.34
-2 6 2 48.25 2.6
2 6 -1 12.16 1.08
-2 6 1 11.76 1.43
-2 6 1 13.95 1.36
2 6 -1 11.96 1.02
2 6 -1 12.63 1.14
-2 6 1 13.28 1.28
-2 6 1 10.9 1.3
-2 6 0 4.59 0.67
2 6 0 4.16 0.66
-2 6 0 5.51 0.99
-2 6 0 6.28 0.97
2 6 0 5.05 0.76
2 6 0 5.63 0.68
-2 6 0 4.27 0.72
-2 6 0 5.36 0.94
-2 6 -1 549.16 10.77
2 6 1 532.53 10.71
-2 6 -1 505.67 10.59
-2 6 -1 514.46 11.85
-2 6 -2 0.58 0.37
-2 6 -2 0.9 0.53
-2 6 -2 0.47 0.45
-2 6 -2 1.13 0.48
-2 6 -3 7.07 0.87
-2 6 -3 6.38 1.05
-2 6 -3 6.24 1.1
2 6 3 7.36 1.01
-2 6 -3 9.8 1.25
2 6 4 2.67 0.69
-2 6 -4 2.13 0.5
-2 6 -4 2.83 0.62
-2 6 -5 58.24 2.58
-2 6 -5 65.33 2.88
-2 6 -5 54.37 3.42
2 6 5 55.55 2.99
-2 6 -5 57.23 3.09
-2 6 -6 42.09 2.55
2 6 6 44.56 2.74
-2 6 -6 39.89 2.9
2 6 6 41.22 2.57
-2 6 -6 41.81 2.64
-2 6 -6 43.72 2.25
-2 6 -6 47.57 2.53
-2 6 -7 69.24 3.41
-2 6 -7 70.69 3.24
-2 6 -7 69.97 3
-2 6 -8 16.41 1.57
-2 6 -8 16.42 1.53
-2 6 -8 17.79 1.46
2 6 9 0.85 0.37
-2 6 -9 0.46 0.41
-2 6 -9 0.85 0.45
-2 6 -10 0.47 0.32
-2 6 -10 0.48 0.32
-2 7 11 33.76 1.48
2 7 -10 6.25 0.74
-2 7 10 6.5 0.82
2 7 -9 108.32 3.54
2 7 -9 111.93 3.68
2 7 -8 1.41 0.53
2 7 -8 0.22 0.39
-2 7 8 0.68 0.56
2 7 -7 11.29 1.2
2 7 -7 11.22 1.2
-2 7 7 8.17 1.23
2 7 -6 82.04 3.44
2 7 -6 83.69 3.65
2 7 -6 89.6 3.46
-2 7 6 79.49 3.83
2 7 -5 948.5 18.55
-2 7 5 922.98 19.49
2 7 -5 883.36 18.79
2 7 -5 1021.93 18.2
-2 7 5 988.86 19.08
-2 7 5 929.81 19.17
-2 7 4 1022.32 19.71
2 7 -4 1035.2 18.92
-2 7 4 1002.95 19.85
2 7 -4 927.65 17.86
-2 7 4 888.36 19.49
2 7 -4 965.34 18.68
2 7 -4 1049.86 19.54
-2 7 3 275.68 7.93
2 7 -3 307.62 7.45
-2 7 3 284.79 8.3
2 7 -3 274.67 6.92
-2 7 3 265.2 7.8
2 7 -3 297.18 7.27
-2 7 2 35.15 2.48
2 7 -2 36.4 2.12
-2 7 2 36.32 2.61
-2 7 2 33.18 2.24
2 7 -2 34.02 2.02
-2 7 2 34.46 2.32
2 7 -2 34.91 1.99
-2 7 1 12.19 1.48
-2 7 1 9.8 1.41
2 7 -1 9.93 1.1
-2 7 1 11.52 1.37
2 7 -1 10.35 1.12
-2 7 1 9.04 1.15
2 7 -1 10.57 1.05
-2 7 0 372.3 9.68
-2 7 0 361.26 9.51
2 7 0 370.67 8.75
-2 7 0 391.39 10.07
2 7 0 369.09 8.49
-2 7 -1 644.8 12.49
-2 7 -1 651.03 14.33
-2 7 -1 626.1 14.3
-2 7 -1 651.62 14.59
2 7 1 619.62 12.78
-2 7 -2 40.46 2.08
-2 7 -2 35.59 2.54
-2 7 -2 34.41 2.6
2 7 2 40.38 2.48
-2 7 -2 39.8 2.76
-2 7 -3 253.58 6.46
-2 7 -3 237 7.36
2 7 3 237.29 7.08
-2 7 -3 248.58 7.67
-2 7 -4 0.83 0.44
-2 7 -4 0.68 0.5
2 7 4 0.83 0.43
-2 7 -5 109.62 3.97
-2 7 -5 99.02 4.3
-2 7 -5 105.63 4.94
2 7 5 97.47 4.25
-2 7 -6 291.22 7.52
-2 7 -6 283.92 6.81
-2 7 -6 292.24 7.89
-2 7 -7 3.37 0.73
-2 7 -7 4.04 0.85
-2 7 -7 3.84 0.67
-2 7 -7 4.11 0.73
2 7 8 0.11 0.33
-2 7 -8 0.12 0.31
-2 7 -8 0.11 0.46
-2 7 -8 0.18 0.36
-2 7 -9 7.69 0.91
2 7 9 5.77 0.69
-2 7 -10 0.49 0.26
2 8 -9 30.85 1.54
2 8 -9 30.79 1.47
-2 8 9 29.12 1.64
2 8 -8 85.83 3.17
2 8 -8 84.08 2.92
-2 8 8 89.89 3.39
2 8 -7 0.22 0.38
2 8 -7 0.05 0.29
-2 8 7 0.43 0.39
-2 8 6 0.89 0.53
2 8 -5 30.11 2.05
-2 8 5 30.12 2.08
-2 8 5 28.39 2.12
2 8 -4 0.79 0.48
-2 8 4 0.54 0.45
-2 8 4 1.04 0.58
-2 8 3 26.71 2.12
2 8 -3 29.95 2.06
-2 8 3 24.62 2.16
2 8 -3 27.96 1.95
-2 8 3 24.32 2.06
2 8 -3 29.96 2.27
-2 8 2 -0.08 0.49
-2 8 2 0.55 0.61
2 8 -2 0.06 0.38
2 8 -2 0.12 0.29
2 8 -2 -0.12 0.26
-2 8 2 0.8 0.42
-2 8 1 318.86 8.78
-2 8 1 335.46 9.34
2 8 -1 306.78 7.85
-2 8 1 313.32 8.61
2 8 -1 288.71 7.8
-2 8 1 291.41 7.81
-2 8 0 219.66 7.07
-2 8 0 213.7 7.24
2 8 0 214.91 6.22
-2 8 0 223.6 7.16
2 8 0 224.6 6.56
-2 8 -1 23.52 2.09
-2 8 -1 26.56 2.33
2 8 1 24.19 1.93
2 8 1 23.02 1.73
-2 8 -1 27.58 2.4
-2 8 -2 -0.05 0.31
-2 8 -2 0.19 0.46
-2 8 -2 -0.09 0.49
-2 8 -3 157.16 5.67
-2 8 -3 155.27 4.63
-2 8 -3 149.8 5.71
-2 8 -4 70.81 3.59
-2 8 -4 69.83 2.96
-2 8 -4 66.28 3.52
-2 8 -5 29.5 2.21
-2 8 -5 28.83 1.86
-2 8 -5 28.87 2.17
-2 8 -6 80.1 3.55
-2 8 -6 83.79 3.27
-2 8 -6 80.02 3.39
-2 8 -7 349.02 5.93
-2 8 -7 0.04 0.12
2 8 8 213.81 5.27
-2 8 -9 34.28 1.56
2 9 -8 49.89 1.97
-2 9 8 50.07 1.93
2 9 -7 1.21 0.44
-2 9 7 1.03 0.4
-2 9 6 80.42 3.04
2 9 -5 63.19 2.88
-2 9 5 57.14 2.61
2 9 -4 4.02 0.79
-2 9 4 3.29 0.69
-2 9 4 3.91 0.72
-2 9 3 477.27 10.97
2 9 -3 483.99 10.65
-2 9 3 449.82 10.36
-2 9 3 440.07 9.74
-2 9 2 277.42 7.52
-2 9 2 283.89 8.08
2 9 -2 272.97 7.32
-2 9 1 69.51 3.38
2 9 -1 70 3.17
-2 9 1 72.69 3.74
-2 9 0 6.24 1.08
-2 9 0 8.83 1.31
2 9 0 6.38 0.95
-2 9 -1 63.57 3.31
-2 9 -1 65.76 3.59
-2 9 -2 4.34 0.9
-2 9 -3 212.11 6.4
-2 9 -3 210.73 6.62
-2 9 -4 241.45 6.83
-2 9 -4 247.18 5.93
-2 9 -4 243.72 6.99
-2 9 -5 4.36 0.81
-2 9 -5 5.25 0.71
-2 9 -5 5.18 0.88
-2 9 -6 0.4 0.43
-2 9 -6 0.21 0.25
2 9 7 24.56 1.39
-2 9 -7 27.24 1.52
2 10 -6 36.82 1.72
2 10 -5 5.33 0.73
2 10 -4 30.05 1.76
-2 10 3 83.77 2.76
2 10 -3 84.3 3.21
2 10 -2 247.27 6.24
-2 10 2 255.02 6.5
-2 10 1 72.38 2.85
2 10 -1 71.4 2.84
-2 10 1 68.59 3.13
-2 10 0 18.03 1.41
-2 10 0 17.99 1.61
-2 10 -1 60.93 2.7
-2 10 -1 60.46 2.98
-2 10 -2 27.22 1.75
-2 10 -2 29.37 1.97
-2 10 -3 35.99 1.95
-2 10 -4 27.49 1.59
-2 10 -4 25.19 1.59
-2 10 -5 3.27 0.54
-2 10 -5 4.17 0.57
-2 11 -1 6.39 0.69
-3 -10 5 19.19 1.15
3 -10 -4 130.44 3.5
3 -10 -3 25.93 1.43
-3 -10 3 26.03 1.57
3 -10 -2 25.54 1.46
-3 -10 2 24.56 1.58
3 -10 -1 3.68 0.61
-3 -10 1 2.83 0.61
3 -10 0 46.59 1.97
-3 -10 0 47.54 2.23
-3 -10 0 43.83 1.79
-3 -10 -1 20.09 1.24
3 -10 1 24.56 1.31
-3 -10 -1 23.51 1.48
-3 -10 -1 20.77 1.22
-3 -10 -2 68.3 2.35
-3 -10 -2 76.1 2.65
-3 -10 -2 75.14 2.61
-3 -10 -3 72.09 2.31
-3 -10 -3 69.47 2.34
-3 -10 -3 74.31 2.58
-3 -10 -4 11.39 0.88
3 -9 -7 37.28 1.53
-3 -9 7 34.44 1.65
3 -9 -7 35.17 1.5
3 -9 -6 1.75 0.39
-3 -9 6 1.5 0.48
3 -9 -6 1.57 0.42
3 -9 -5 22.34 1.28
-3 -9 5 24.14 1.66
-3 -9 4 11.31 0.97
3 -9 -4 12.57 0.96
3 -9 -3 0.54 0.38
-3 -9 3 0.3 0.32
3 -9 -3 -0.03 0.1
-3 -9 2 288.76 7.64
-3 -9 2 278.04 6.71
-3 -9 1 118.83 4.51
-3 -9 1 115.36 3.86
3 -9 -1 120.78 4
-3 -9 1 110.81 4.26
-3 -9 0 5.14 0.84
3 -9 0 5.65 0.84
-3 -9 0 5.26 0.92
-3 -9 0 5.75 1
-3 -9 0 5.54 0.83
-3 -9 -1 0.19 0.41
-3 -9 -1 0.17 0.36
3 -9 1 0.44 0.34
-3 -9 -1 0.2 0.48
-3 -9 -1 0.11 0.34
-3 -9 -2 0.85 0.55
-3 -9 -2 0.28 0.37
3 -9 2 1.05 0.39
-3 -9 -2 0.44 0.51
-3 -9 -2 0.53 0.4
-3 -9 -3 8.11 0.99
-3 -9 -3 8.56 1.07
-3 -9 -3 9.78 1.21
-3 -9 -4 77.22 3
-3 -9 -4 77.1 2.95
-3 -9 -4 71.95 3.18
-3 -9 -5 38.05 1.96
-3 -9 -5 38.22 2.1
-3 -9 -5 34.54 1.7
-3 -9 -6 18.24 1.2
-3 -9 -6 16.19 1.02
3 -8 -9 109.3 3.08
3 -8 -9 99.61 2.49
3 -8 -8 471.39 9.37
-3 -8 8 453.54 9.25
3 -8 -8 451.3 8.83
3 -8 -7 20.63 1.42
3 -8 -7 20.86 1.33
-3 -8 7 18.15 1.43
-3 -8 6 22.79 1.44
3 -8 -6 22.92 1.55
3 -8 -6 24.41 1.55
-3 -8 6 21.77 1.68
-3 -8 5 19.88 1.45
3 -8 -5 20.9 1.49
-3 -8 5 22.99 1.84
-3 -8 4 57.61 2.66
3 -8 -4 62.58 2.66
3 -8 -4 63 2.78
3 -8 -3 107.76 3.82
3 -8 -3 100.41 3.46
-3 -8 3 102.05 3.76
3 -8 -2 14.56 1.2
-3 -8 2 16.46 1.45
-3 -8 2 13.14 1.53
3 -8 -1 0.04 0.24
-3 -8 1 0.44 0.43
-3 -8 1 0.27 0.4
-3 -8 1 0.77 0.59
3 -8 -1 1.09 0.5
-3 -8 1 0.98 0.65
-3 -8 0 243.76 7.27
-3 -8 0 229.03 6.49
-3 -8 0 223.59 6.81
3 -8 0 231.69 6.25
-3 -8 -1 42.94 2.77
-3 -8 -1 43.71 2.51
-3 -8 -1 36.87 2.59
3 -8 1 47.28 2.4
-3 -8 -1 39.73 2.46
-3 -8 -2 13.6 1.54
-3 -8 -2 13.03 1.38
-3 -8 -2 14.41 1.44
-3 -8 -2 12.87 1.6
3 -8 2 15.51 1.31
-3 -8 -2 12.44 1.31
-3 -8 -3 17.51 1.59
-3 -8 -3 13.89 1.67
-3 -8 -3 15.6 1.55
-3 -8 -3 16.38 1.64
-3 -8 -4 0.73 0.51
-3 -8 -4 0.71 0.49
-3 -8 -4 0.9 0.69
-3 -8 -4 1.44 0.63
-3 -8 -5 1.29 0.58
-3 -8 -5 1.96 0.67
-3 -8 -5 0.72 0.46
-3 -8 -6 117.2 4.09
-3 -8 -6 108.87 4.16
-3 -8 -6 109.67 4.09
3 -8 6 110.53 3.26
-3 -8 -7 31.68 1.82
-3 -8 -7 31.86 1.85
-3 -8 -7 32.1 1.9
3 -8 7 30.42 1.39
-3 -8 -8 47.5 1.96
-3 -8 -8 44.92 1.96
3 -7 -10 20.49 1.29
-3 -7 9 101.03 3.21
3 -7 -9 101.91 3.49
3 -7 -9 102.38 2.95
-3 -7 8 99.8 3.32
3 -7 -8 102.68 3.27
-3 -7 8 107.33 3.71
-3 -7 7 5.04 0.89
3 -7 -7 5.73 0.78
3 -7 -7 5.85 0.88
-3 -7 6 14.16 1.48
3 -7 -6 14.33 1.35
3 -7 -6 14.33 1.26
-3 -7 5 415.58 9.57
-3 -7 5 414.02 10.16
3 -7 -5 419.72 9.54
3 -7 -4 380.06 8.61
3 -7 -4 384.63 8.71
-3 -7 4 332.88 9.18
-3 -7 4 376.08 8.88
3 -7 -4 366.01 8.87
3 -7 -4 351.85 9.01
-3 -7 4 351.8 9.59
-3 -7 3 3.8 0.96
3 -7 -3 6.31 1.08
-3 -7 3 6.14 0.95
3 -7 -3 4.53 0.78
3 -7 -3 4.9 0.87
3 -7 -3 6.47 1.02
3 -7 -3 6.44 0.9
-3 -7 2 0.16 0.42
3 -7 -2 0.39 0.42
-3 -7 2 -0.06 0.33
3 -7 -2 0.07 0.31
-3 -7 2 -0.08 0.44
3 -7 -2 0.11 0.32
-3 -7 1 159.05 5.45
-3 -7 1 157.26 5.6
3 -7 -1 162.91 5.67
-3 -7 1 164.57 5.31
3 -7 -1 156.14 5.41
3 -7 -1 172.06 4.99
3 -7 0 173.47 5.1
-3 -7 0 173.37 5.95
-3 -7 0 176.92 6.06
3 -7 0 182.81 6.02
-3 -7 0 186.94 5.7
3 -7 0 169.29 5.68
-3 -7 -1 2.43 0.79
-3 -7 -1 2.32 0.69
-3 -7 -1 3.13 0.89
3 -7 1 1.87 0.65
-3 -7 -1 4.5 0.87
3 -7 1 3.43 0.78
-3 -7 -1 2.36 0.7
3 -7 1 2.63 0.61
3 -7 2 143.34 4.34
-3 -7 -2 144.86 5.38
3 -7 2 132.72 5.04
-3 -7 -2 140.48 4.99
-3 -7 -2 132.88 5.07
-3 -7 -2 137.66 5.47
3 -7 2 131.09 5.02
-3 -7 -2 122.43 4.51
-3 -7 -3 11.42 1.56
-3 -7 -3 11.32 1.48
3 -7 3 10 1.32
-3 -7 -3 11.23 1.37
3 -7 3 10.36 1.35
-3 -7 -3 12.01 1.49
-3 -7 -4 0.3 0.49
-3 -7 -4 0.09 0.64
-3 -7 -4 0.35 0.55
3 -7 4 1.18 0.43
-3 -7 -4 0.56 0.59
-3 -7 -4 0.36 0.42
-3 -7 -5 43.32 2.67
-3 -7 -5 41.52 2.81
-3 -7 -5 35.96 2.46
3 -7 5 43.41 2.2
-3 -7 -5 34.88 2.23
-3 -7 -6 489.4 11.24
-3 -7 -6 485.88 11.75
-3 -7 -6 471.25 11.46
-3 -7 -6 467.31 10.66
3 -7 6 468.36 10.06
-3 -7 -7 267.78 7.45
-3 -7 -7 236.91 6.82
-3 -7 -7 233.73 6.52
3 -7 7 256.72 6.2
-3 -7 -8 21.8 1.5
-3 -7 -8 22.05 1.73
3 -7 8 21.28 1.35
-3 -7 -8 21.79 1.55
-3 -7 -9 10.16 0.96
3 -7 9 12.38 0.86
-3 -7 -9 13.11 1.13
-3 -7 -9 10.05 0.91
3 -6 -11 38.23 1.76
3 -6 -10 1.51 0.36
3 -6 -10 1.46 0.48
-3 -6 9 38.27 2.02
3 -6 -9 37.2 1.79
3 -6 -9 36.78 2.14
-3 -6 8 86.12 3.47
3 -6 -8 92.76 3.21
3 -6 -8 89.4 3.6
-3 -6 7 891.02 17.65
3 -6 -7 894.4 16.84
3 -6 -7 913.26 17.58
-3 -6 6 512.97 11.37
3 -6 -6 482.73 10.58
3 -6 -6 475.44 11.18
3 -6 -6 494.73 10.45
3 -6 -5 103.89 3.84
3 -6 -5 110.32 4.28
-3 -6 5 102.38 4.18
3 -6 -5 103.3 3.93
-3 -6 4 1.3 0.6
3 -6 -4 1.1 0.49
3 -6 -4 1.84 0.64
3 -6 -4 1.37 0.5
-3 -6 4 2.7 0.88
3 -6 -4 2.48 0.61
-3 -6 3 34.83 2.34
3 -6 -3 30.53 2.16
3 -6 -3 27.58 2.07
3 -6 -3 32.27 1.88
3 -6 -2 13 1.16
-3 -6 2 12.77 1.35
-3 -6 2 12.06 1.39
3 -6 -2 13.18 1.38
-3 -6 2 13.17 1.33
3 -6 -2 10.6 1.29
-3 -6 2 12.45 1.47
3 -6 -1 24.29 1.56
-3 -6 1 22.55 1.85
-3 -6 1 21.82 1.88
3 -6 -1 22.02 1.8
-3 -6 1 24.19 1.8
3 -6 -1 22.61 1.86
-3 -6 1 22.09 1.87
3 -6 0 22.41 1.8
-3 -6 0 26.66 1.88
-3 -6 0 20.65 1.74
-3 -6 0 26.01 2.08
3 -6 0 24.98 1.99
-3 -6 0 20.25 1.74
3 -6 0 20.8 1.45
-3 -6 -1 58.4 3.19
3 -6 1 62.26 3.1
-3 -6 -1 64.88 3.07
-3 -6 -1 63.01 3.24
-3 -6 -1 66.77 3.46
3 -6 1 59.44 3.18
-3 -6 -1 57.61 2.88
3 -6 1 62.55 2.57
-3 -6 -2 100.82 4.32
-3 -6 -2 102.75 4.36
-3 -6 -2 101.08 4.53
-3 -6 -2 114.37 4.27
3 -6 2 105.36 4.21
3 -6 2 103.25 4.31
-3 -6 -2 90.88 3.64
-3 -6 -3 32.96 2.11
-3 -6 -3 33.62 2.6
-3 -6 -3 37.5 2.65
-3 -6 -3 38.6 2.44
3 -6 3 35.67 2.41
3 -6 3 34.08 2.4
-3 -6 -3 36.96 2.52
-3 -6 -4 0.89 0.52
-3 -6 -4 1.3 0.67
3 -6 4 1.22 0.56
3 -6 4 1.04 0.58
-3 -6 -4 1.45 0.65
-3 -6 -5 1369.28 25.57
3 -6 5 1315.56 25.74
-3 -6 -5 1388.39 26.69
-3 -6 -5 1321.98 26.6
-3 -6 -5 1432.69 26.07
-3 -6 -6 207.16 7.16
-3 -6 -6 205.28 6.87
-3 -6 -6 207.94 6.6
-3 -6 -7 1.6 0.64
-3 -6 -7 2.38 0.85
-3 -6 -7 1.94 0.72
-3 -6 -7 2.23 0.75
-3 -6 -8 6.48 1.03
-3 -6 -8 6.78 0.97
-3 -6 -8 5.94 1.03
-3 -6 -9 9.73 1.1
-3 -6 -9 10.74 1.21
3 -6 9 10.16 0.98
-3 -6 -9 9.56 1.17
-3 -6 -10 13.49 1.12
3 -6 10 13.6 0.94
-3 -6 -10 12.81 1.08
3 -5 -12 48.42 1.8
3 -5 -11 1.24 0.46
3 -5 -10 117.55 3.35
3 -5 -10 113.44 3.94
-3 -5 9 0.4 0.34
3 -5 -9 0.47 0.32
3 -5 -9 0.36 0.44
-3 -5 8 11.31 1.21
3 -5 -8 10.91 1.07
3 -5 -8 11.08 1.25
-3 -5 7 545.2 11.78
3 -5 -7 532.46 11.14
3 -5 -7 545.44 11.78
3 -5 -6 542.75 11.45
3 -5 -6 551.81 12.05
-3 -5 5 1151.24 22.11
3 -5 -5 1224.66 21.56
-3 -5 4 6.48 0.96
-3 -5 4 6.55 1.07
3 -5 -3 114.18 3.6
-3 -5 3 107.91 4.05
3 -5 -3 126.17 4.24
3 -5 -3 120.62 4.34
-3 -5 3 100.08 4.19
3 -5 -2 9.82 0.94
-3 -5 2 9.72 1.12
-3 -5 2 9.84 1.14
3 -5 -2 7.8 0.99
3 -5 -2 10.5 1.24
-3 -5 2 8.43 1.13
3 -5 -1 40.66 1.91
-3 -5 1 45.73 2.5
-3 -5 1 36.5 2.23
3 -5 -1 35.46 2.1
-3 -5 1 40.69 2.22
3 -5 -1 44.9 2.54
-3 -5 1 37.49 2.29
-3 -5 0 9.47 1.15
-3 -5 0 8.88 1.18
-3 -5 0 10.1 1.19
3 -5 0 10.17 1.23
-3 -5 0 7.99 1.03
3 -5 0 9.52 0.89
3 -5 0 9.33 1.06
-3 -5 0 9.69 1.09
-3 -5 -1 307.6 8.06
-3 -5 -1 292.72 8.1
-3 -5 -1 317.49 7.63
3 -5 1 312.11 7.67
3 -5 1 319.54 8.08
3 -5 1 308.2 6.66
3 -5 2 182.6 5.44
3 -5 2 171.91 5.58
-3 -5 -2 167.24 5.77
-3 -5 -2 177.65 5.85
-3 -5 -3 68.55 3.14
-3 -5 -3 77.37 3.8
3 -5 3 81.54 3.72
-3 -5 -3 72.84 3.46
-3 -5 -4 1059.13 21.54
-3 -5 -4 1093.86 21.86
3 -5 4 1082.32 21.27
-3 -5 -4 1059.52 20.91
-3 -5 -5 2.01 0.69
-3 -5 -5 2.59 0.8
-3 -5 -5 1.61 0.67
-3 -5 -5 1.67 0.62
3 -5 5 2.55 0.8
-3 -5 -5 2.61 0.76
-3 -5 -6 27.47 2.14
-3 -5 -6 27.58 2.46
-3 -5 -6 26.24 2.23
3 -5 6 27.51 2.28
-3 -5 -6 28.67 2.31
-3 -5 -7 0.94 0.52
-3 -5 -7 1.44 0.63
-3 -5 -7 0.44 0.5
-3 -5 -8 23.01 1.93
-3 -5 -8 20.94 1.73
-3 -5 -8 22.06 2.09
-3 -5 -8 23.68 2.08
-3 -5 -9 3 0.76
-3 -5 -9 3.28 0.86
-3 -5 -10 0.24 0.32
-3 -5 -10 1.27 0.49
3 -5 11 105.9 3.06
-3 -5 -11 115.56 3.09
3 -4 -12 7.34 0.72
3 -4 -12 -0.03 0.07
3 -4 -11 2.42 0.57
-3 -4 11 3.12 0.62
-3 -4 11 2.94 0.62
3 -4 -11 2.45 0.51
3 -4 -11 3.04 0.62
3 -4 -11 4.79 0.71
3 -4 -10 0.89 0.46
-3 -4 10 0.83 0.46
-3 -4 10 0.84 0.47
3 -4 -10 0.84 0.37
3 -4 -10 0.68 0.37
-3 -4 10 1.01 0.48
3 -4 -10 0.92 0.43
-3 -4 9 4.54 0.85
3 -4 -9 7.5 1.01
-3 -4 9 5.08 0.91
3 -4 -9 6.45 0.91
-3 -4 9 5.38 0.96
-3 -4 9 6.57 0.92
3 -4 -9 6.44 0.92
3 -4 -8 582.62 12.36
-3 -4 8 569.56 12.63
-3 -4 8 579.54 12.67
3 -4 -8 572.96 12.24
3 -4 -8 622.01 12.18
-3 -4 8 584.54 12.93
3 -4 -8 627.29 12.9
-3 -4 8 594.72 12.07
-3 -4 8 551.17 12.63
-3 -4 8 590.04 12.19
3 -4 -7 580.22 12.23
-3 -4 7 541.65 12.34
-3 -4 7 567.71 12.44
3 -4 -7 588.38 11.83
3 -4 -7 601.81 11.85
-3 -4 7 633.95 13.06
3 -4 -7 523.27 12.22
-3 -4 7 595.18 12.08
-3 -4 7 619.81 12.21
-3 -4 6 156.24 4.7
-3 -4 6 164.04 4.73
3 -4 -6 161.78 4.85
3 -4 -6 154 4.38
-3 -4 6 168.78 5.19
3 -4 -6 142.13 4.85
-3 -4 6 142.45 4.71
-3 -4 6 133.25 4.56
-3 -4 5 736.69 14.95
-3 -4 5 776.41 14.89
-3 -4 5 745.46 15.06
-3 -4 5 752.97 14.96
3 -4 -5 787.1 14.48
-3 -4 4 135.65 4.33
3 -4 -4 144.74 4.64
-3 -4 4 143.86 4.28
-3 -4 4 142.7 4.2
-3 -4 3 53.46 2.72
-3 -4 3 51.09 2.41
3 -4 -3 54.88 2.62
-3 -4 3 52.42 2.22
-3 -4 3 52.35 2.19
3 -4 -3 58.52 2.45
-3 -4 2 34.41 1.93
3 -4 -2 34.74 2.07
3 -4 -2 32.27 1.76
-3 -4 2 33.87 1.62
-3 -4 2 32.04 1.57
3 -4 -1 231.18 5.67
-3 -4 1 221 5.09
-3 -4 1 225.91 5.12
-3 -4 1 220.55 5.82
3 -4 0 126.55 3.91
-3 -4 0 134.24 3.55
-3 -4 0 135.03 4.25
-3 -4 -1 113.09 3.73
-3 -4 -1 117.62 3.28
-3 -4 -2 24.08 1.6
-3 -4 -2 22.65 1.82
-3 -4 -2 21.79 1.8
-3 -4 -2 23.41 1.59
-3 -4 -2 24.09 1.37
-3 -4 -3 505.88 10.94
-3 -4 -3 492.9 11.08
-3 -4 -3 552.32 12.02
-3 -4 -3 487.85 11.84
-3 -4 -3 538.36 11.07
3 -4 3 556.79 12.01
-3 -4 -3 517.63 10.73
-3 -4 -4 15.49 1.43
-3 -4 -4 15.61 1.36
-3 -4 -4 14.69 1.47
-3 -4 -4 16.09 1.53
-3 -4 -4 15.62 1.62
-3 -4 -4 17.24 1.47
3 -4 4 18.26 1.72
-3 -4 -4 15.85 1.35
-3 -4 -5 387.95 9.27
-3 -4 -5 366.49 9.55
-3 -4 -5 415.02 10.06
-3 -4 -5 411.78 10.2
-3 -4 -5 429.5 9.65
-3 -4 -5 375.86 9.1
-3 -4 -5 414.38 9.07
-3 -4 -5 390.36 9.52
-3 -4 -5 391.71 9.19
-3 -4 -6 964.27 19.09
-3 -4 -6 1033.71 20.37
-3 -4 -6 1098.28 20.99
-3 -4 -6 1052.62 20.15
-3 -4 -6 948.07 19.03
-3 -4 -6 1003.74 19.52
-3 -4 -6 956.02 19.67
-3 -4 -6 963.87 19.22
-3 -4 -7 376.05 9.26
-3 -4 -7 359.5 9.94
-3 -4 -7 376.36 9.23
-3 -4 -7 370.91 10.37
-3 -4 -7 370.22 9.45
-3 -4 -7 349.89 9.53
-3 -4 -7 361.3 9.28
-3 -4 -8 22.69 1.78
-3 -4 -8 23.35 2.18
-3 -4 -8 24.77 2.02
-3 -4 -8 25.37 1.93
-3 -4 -8 22.62 1.99
-3 -4 -8 26.76 1.98
-3 -4 -9 35.27 2.56
-3 -4 -9 36.36 2.53
-3 -4 -9 35.44 2.27
-3 -4 -9 33.63 2.13
-3 -4 -9 32.45 2.28
-3 -4 -9 36.3 2.2
-3 -4 -10 5.06 0.94
-3 -4 -10 4.45 0.82
-3 -4 -10 4.21 0.78
-3 -4 -10 0.05 0.18
-3 -4 -10 3.82 0.73
-3 -4 -10 0.52 0.28
-3 -4 -11 52.87 2.1
-3 -4 -11 61.58 2.67
-3 -3 13 21.41 1.19
-3 -3 13 24.9 1.28
3 -3 -13 24.81 1.23
3 -3 -13 26.92 1.4
3 -3 -13 24.47 1.27
-3 -3 12 11.46 1.17
-3 -3 12 10.42 1.1
-3 -3 12 12.5 1.2
3 -3 -12 14.14 1.16
3 -3 -12 13.1 1.21
3 -3 -12 12.31 1.15
3 -3 -11 1.74 0.51
-3 -3 11 1.32 0.62
-3 -3 11 1.52 0.59
3 -3 -11 1.42 0.36
3 -3 -11 1.47 0.5
3 -3 -11 2.23 0.63
-3 -3 11 0.93 0.38
-3 -3 11 1.39 0.56
3 -3 -10 151.05 4.63
-3 -3 10 138.55 5.24
-3 -3 10 136.55 5.14
3 -3 -10 142.86 4.77
3 -3 -10 146.58 4.95
-3 -3 10 159.8 5.47
-3 -3 10 159.86 4.69
3 -3 -9 196.39 5.59
-3 -3 9 196.57 6.47
3 -3 -9 194.72 5.83
-3 -3 9 203.18 6.5
3 -3 -9 194.32 6.01
3 -3 -9 211.59 5.97
-3 -3 9 191.44 6.4
-3 -3 9 201.83 5.66
-3 -3 9 186.85 6.34
-3 -3 8 888.14 16.72
-3 -3 8 891.43 17.85
3 -3 -8 950.13 16.82
-3 -3 8 829.81 17.64
3 -3 -8 873.19 16.83
-3 -3 8 809.24 17.51
3 -3 -8 954.15 17.12
3 -3 -8 797.48 16.81
-3 -3 8 789.09 17.44
-3 -3 7 157.74 4.68
-3 -3 7 138.35 5.16
3 -3 -7 155.53 4.65
-3 -3 7 147.46 5.24
-3 -3 7 152.01 5.23
3 -3 -7 161.05 4.78
3 -3 -7 150.6 4.76
-3 -3 7 138.83 5.04
-3 -3 6 25.81 1.54
-3 -3 6 22.29 1.76
-3 -3 6 26.16 1.64
-3 -3 6 23.09 1.82
3 -3 -6 26.85 1.8
-3 -3 6 20.48 1.7
-3 -3 6 20.86 1.71
-3 -3 5 0.04 0.27
-3 -3 5 0.44 0.39
-3 -3 5 0.12 0.24
3 -3 -5 0.03 0.18
-3 -3 5 1.02 0.49
-3 -3 5 0.93 0.49
-3 -3 4 442.33 8.89
-3 -3 4 446.2 9.38
3 -3 -4 435.03 9.31
3 -3 -3 894.89 16.04
-3 -3 3 916.49 16.51
3 -3 -3 942.45 16.85
3 -3 -2 4.08 0.55
-3 -3 2 4.41 0.64
-3 -3 2 5.02 0.65
3 -3 -2 3.91 0.7
3 -3 -1 3588.91 59.9
-3 -3 1 3623.19 60.12
-3 -3 1 3733.91 60.21
3 -3 0 149.84 3.91
3 -3 0 145.34 4.38
-3 -3 0 138.02 3.83
3 -3 1 20.59 1.52
-3 -3 -1 20.71 1.26
-3 -3 -2 1.6 0.49
-3 -3 -2 1.59 0.48
-3 -3 -2 1.37 0.4
3 -3 2 2.09 0.59
-3 -3 -2 1.72 0.47
-3 -3 -3 12.49 1.07
-3 -3 -3 9.29 1.09
-3 -3 -3 10.84 1.02
-3 -3 -3 10.58 1.12
-3 -3 -3 11.65 1.11
-3 -3 -4 199.78 5.8
-3 -3 -4 228.31 5.65
-3 -3 -4 197.41 6.04
-3 -3 -4 222.78 5.61
-3 -3 -4 252.69 6.67
-3 -3 -4 199.99 6.43
-3 -3 -4 229.66 5.85
-3 -3 -4 223.06 6.01
-3 -3 -4 237.03 6.36
-3 -3 -4 198.24 5.76
-3 -3 -5 4.15 0.8
-3 -3 -5 5.29 0.81
-3 -3 -5 4.57 0.86
-3 -3 -5 5.47 0.79
-3 -3 -5 5.57 0.97
-3 -3 -5 4.8 0.79
-3 -3 -5 4.07 0.8
-3 -3 -5 4.71 0.85
-3 -3 -5 5.56 0.91
-3 -3 -5 4.41 0.86
-3 -3 -5 4.88 0.93
-3 -3 -5 4.17 0.92
-3 -3 -5 5.66 0.94
-3 -3 -6 188.15 6.05
-3 -3 -6 189.24 5.62
-3 -3 -6 195.81 6.04
-3 -3 -6 172.83 6.35
-3 -3 -6 194.18 6.02
-3 -3 -6 192.55 5.79
-3 -3 -6 201.47 6.49
-3 -3 -6 218.31 6.1
-3 -3 -6 185.1 6.18
-3 -3 -6 185.88 5.97
-3 -3 -7 48 2.89
-3 -3 -7 52.89 3.24
-3 -3 -7 51.37 3.21
-3 -3 -7 48.26 2.68
-3 -3 -7 47.91 2.86
-3 -3 -7 51.33 2.81
-3 -3 -7 49.79 3.06
-3 -3 -7 54.02 3.23
-3 -3 -7 49.17 2.95
-3 -3 -8 255.64 7.62
-3 -3 -8 275.03 8.29
-3 -3 -8 251.75 7.89
-3 -3 -8 283.52 7.52
-3 -3 -8 265.14 7.72
-3 -3 -8 272.39 8.2
-3 -3 -8 235.84 7.75
-3 -3 -8 264.98 7.86
-3 -3 -9 84.48 4.14
-3 -3 -9 83.71 3.94
-3 -3 -9 87.34 3.67
-3 -3 -9 84.35 3.84
-3 -3 -9 81.18 4.09
-3 -3 -9 85.57 3.9
-3 -3 -10 126.23 4.86
-3 -3 -10 120.06 4.33
-3 -3 -10 119.26 4.78
-3 -3 -10 123.58 4.52
-3 -3 -10 132.58 4.63
-3 -3 -11 7.08 1
-3 -3 -11 6.47 0.86
-3 -3 -11 5.81 0.92
-3 -3 -11 7.25 0.92
-3 -2 13 51.71 2.34
-3 -2 13 54.15 2.37
-3 -2 13 58.2 2.45
3 -2 -13 57.87 2.29
3 -2 -13 61.83 2.54
3 -2 -13 59.26 2.4
-3 -2 12 2.27 0.46
-3 -2 12 1.21 0.55
-3 -2 12 0.95 0.47
-3 -2 12 1.59 0.6
3 -2 -12 1.32 0.51
3 -2 -12 1.24 0.57
3 -2 -12 1.07 0.46
-3 -2 11 520.3 12.13
-3 -2 11 528.93 12.25
3 -2 -11 507.14 11.4
-3 -2 11 527.39 10.8
-3 -2 11 506.65 12.21
3 -2 -11 534.71 11.75
3 -2 -10 719.9 15.47
3 -2 -10 798.97 15.7
-3 -2 10 760.56 14.8
-3 -2 10 723.44 16.03
3 -2 -10 722.89 14.24
-3 -2 10 772.4 16.34
3 -2 -10 720.64 15.52
3 -2 -10 753.06 15.39
3 -2 -10 755.61 15.4
-3 -2 10 740.18 15.34
-3 -2 10 735.89 16.29
-3 -2 9 412.07 9.16
-3 -2 9 376.54 10.21
3 -2 -9 386.17 8.64
3 -2 -9 389.68 9.36
-3 -2 9 369.19 10.06
3 -2 -9 417.74 9.62
-3 -2 9 377.52 9.39
-3 -2 9 358.07 10.11
-3 -2 8 15.14 1.34
3 -2 -8 17.67 1.34
-3 -2 8 14.63 1.63
-3 -2 8 18.03 1.77
3 -2 -8 14.35 1.38
-3 -2 8 19.05 1.6
3 -2 -8 15.54 1.44
3 -2 -8 14.58 1.35
-3 -2 8 13.79 1.6
-3 -2 7 11.09 1.11
3 -2 -7 10.01 0.99
-3 -2 7 11.24 1.36
-3 -2 7 13.9 1.48
-3 -2 7 11.12 1.17
3 -2 -7 9.72 1.04
-3 -2 7 11.38 1.4
-3 -2 6 351.55 7.72
-3 -2 6 369.72 8.68
-3 -2 6 369.39 8.1
3 -2 -6 322.85 6.78
3 -2 -6 320.23 7.64
-3 -2 6 345.39 8.56
-3 -2 6 333.11 8.4
-3 -2 5 259.08 6.21
-3 -2 5 257.75 6.86
-3 -2 5 264.18 6.98
-3 -2 5 235.86 6.83
3 -2 -5 268.94 5.38
3 -2 -5 278.09 5.95
-3 -2 5 311.01 6.74
3 -2 -5 298.46 6.67
-3 -2 4 41.32 1.91
3 -2 -4 42.41 1.95
-3 -2 3 234.53 6.01
-3 -2 3 242.47 5.89
-3 -2 3 247.86 5.68
3 -2 -3 244.13 5.77
3 -2 -2 16.77 0.92
-3 -2 2 16.53 1.17
-3 -2 2 15.44 1.14
3 -2 -2 18.63 1.26
3 -2 -1 284.39 5.71
3 -2 -1 276.71 6.38
-3 -2 1 299.46 6.44
-3 -2 1 288.82 6.37
3 -2 0 62.15 2.43
-3 -2 0 59.26 2.25
-3 -2 0 58.29 2.23
-3 -2 -1 53.76 2.16
3 -2 1 55.88 2.39
-3 -2 -1 55.15 2.29
-3 -2 -1 58.36 2.46
-3 -2 -2 290.36 6.49
-3 -2 -2 318.17 7.11
-3 -2 -3 565.04 11.99
-3 -2 -3 559.84 11.63
-3 -2 -4 299.17 7.5
-3 -2 -4 305.37 7.37
-3 -2 -4 321.19 7.11
-3 -2 -4 317.79 7.82
-3 -2 -4 331 7.19
-3 -2 -4 279.54 6.71
-3 -2 -4 298.37 7.41
-3 -2 -4 259.73 7.31
-3 -2 -4 305.04 7.2
-3 -2 -4 304.21 7.45
-3 -2 -5 130.45 4.56
-3 -2 -5 130.67 4.17
-3 -2 -5 127.19 4.12
-3 -2 -5 117.51 4.56
-3 -2 -5 125.74 4.31
-3 -2 -5 115.46 4.28
-3 -2 -5 123.37 3.95
-3 -2 -5 115.44 4.57
-3 -2 -5 137.82 4.56
-3 -2 -5 118.26 4.52
-3 -2 -5 123.79 4.4
-3 -2 -6 262.01 7.56
-3 -2 -6 266.65 7.09
-3 -2 -6 264.8 7.71
-3 -2 -6 260.99 6.99
-3 -2 -6 247.61 7.58
-3 -2 -6 284.5 7.65
-3 -2 -6 266.29 6.92
-3 -2 -6 272.34 7.83
-3 -2 -6 287.17 8.07
-3 -2 -6 255.57 7.38
-3 -2 -7 1143.38 22.94
-3 -2 -7 1153.53 23.32
-3 -2 -7 1222 23.3
-3 -2 -7 1216.09 22.23
-3 -2 -7 1200.62 23.13
-3 -2 -7 1197.1 22.78
-3 -2 -7 1261 23.98
-3 -2 -7 1200.76 23.68
-3 -2 -7 1136.72 23.14
-3 -2 -8 654.01 14.33
-3 -2 -8 591.79 14.2
-3 -2 -8 646.2 14.1
-3 -2 -8 622.87 13.23
-3 -2 -8 612.76 14.12
-3 -2 -8 613.86 14.73
-3 -2 -8 559.43 14.23
-3 -2 -8 671.62 14.71
-3 -2 -9 76.34 3.91
-3 -2 -9 72.72 3.48
-3 -2 -9 77.1 3.37
-3 -2 -9 73.13 3.77
-3 -2 -9 65.4 3.81
-3 -2 -9 75.15 3.79
-3 -2 -10 3.72 0.93
-3 -2 -10 4.3 0.76
-3 -2 -10 4.72 1.06
-3 -2 -10 3.13 0.86
-3 -2 -10 3.07 0.84
-3 -2 -11 77.63 3.33
-3 -2 -11 86.37 3.79
-3 -2 -11 77 3.36
-3 -2 -11 85.63 3.52
-3 -2 -12 1.67 0.52
-3 -2 -12 1.84 0.48
-3 -2 -12 0.93 0.37
3 -1 -14 13.82 0.97
-3 -1 14 14.34 0.96
-3 -1 13 26.23 1.76
-3 -1 13 26.1 1.76
-3 -1 13 27.68 1.79
3 -1 -13 28.32 1.66
3 -1 -13 26.81 1.71
3 -1 -13 26.1 1.64
-3 -1 12 5.82 1.06
-3 -1 12 4.91 0.96
3 -1 -12 4.56 0.84
3 -1 -12 4.99 0.92
-3 -1 12 4.81 0.7
-3 -1 12 4.81 0.99
-3 -1 11 13.51 1.64
-3 -1 11 12.4 1.59
3 -1 -11 12.24 1.36
3 -1 -11 11.72 1.39
-3 -1 11 13.68 1.26
-3 -1 10 16.58 1.85
3 -1 -10 16.56 1.61
-3 -1 10 18.23 1.91
-3 -1 10 15.36 1.52
3 -1 -10 19.39 1.75
-3 -1 10 19.65 1.57
-3 -1 10 16.41 1.89
-3 -1 9 10.29 1.45
3 -1 -9 12.7 1.35
-3 -1 9 12.23 1.55
-3 -1 9 12.66 1.27
-3 -1 9 10.18 1.4
3 -1 -9 15.02 1.49
-3 -1 9 10.86 1.25
-3 -1 8 145.8 5.48
3 -1 -8 153.88 4.96
-3 -1 8 147.16 4.78
-3 -1 8 143.2 4.59
-3 -1 8 135.98 5.3
-3 -1 7 6.22 0.83
-3 -1 7 5.34 0.99
3 -1 -7 5.98 0.72
-3 -1 7 6.37 1.05
-3 -1 7 6.58 0.89
3 -1 -7 5.8 0.6
3 -1 -7 6.2 0.79
-3 -1 7 5.2 0.95
-3 -1 6 367.01 8.24
-3 -1 6 379.86 9.17
3 -1 -6 377.86 7.65
3 -1 -6 381.65 8.11
-3 -1 6 373.8 9.09
-3 -1 5 31.94 1.63
-3 -1 5 30.55 1.63
-3 -1 5 35.84 2.1
3 -1 -5 26.69 1.41
3 -1 -5 25.68 1.44
-3 -1 4 9.06 1
3 -1 -4 8 0.8
-3 -1 4 6.57 0.72
3 -1 -4 6.2 0.68
-3 -1 3 2344.82 40.18
-3 -1 3 2389.64 39.65
-3 -1 2 2155.7 37.67
-3 -1 2 2238.23 37.67
3 -1 -1 12.12 0.6
3 -1 -1 13.17 0.93
-3 -1 1 12.69 1.01
-3 -1 1 12.81 1.02
3 -1 0 1954.89 32.26
-3 -1 0 1910.64 32.34
-3 -1 0 1980.9 32.39
-3 -1 -1 1228.11 21.05
-3 -1 -1 1259.48 21.08
-3 -1 -1 1235.05 21.38
-3 -1 -2 64.42 2.45
-3 -1 -2 68.02 2.76
-3 -1 -3 297.36 6.78
3 -1 3 288.86 5.84
-3 -1 -4 7.07 0.93
-3 -1 -4 6.56 0.95
-3 -1 -4 7.25 0.86
-3 -1 -4 8.72 0.91
-3 -1 -4 6.77 0.92
3 -1 4 8.13 0.73
-3 -1 -4 7.39 1
-3 -1 -4 7.25 0.91
-3 -1 -4 8.21 1
-3 -1 -5 19.43 1.68
-3 -1 -5 22.04 1.55
-3 -1 -5 24.79 1.63
-3 -1 -5 20.53 1.72
3 -1 5 19.32 1.23
-3 -1 -5 19.05 1.61
-3 -1 -5 17.79 1.28
-3 -1 -5 27.16 1.84
-3 -1 -5 20.36 1.72
-3 -1 -5 20.29 1.79
-3 -1 -5 16.8 1.54
-3 -1 -6 141.77 5.22
-3 -1 -6 159.78 4.93
-3 -1 -6 161.76 4.93
-3 -1 -6 159.91 5.48
-3 -1 -6 141.12 4.2
-3 -1 -6 148.53 5.05
-3 -1 -6 136.11 5.05
3 -1 6 145.26 4.2
-3 -1 -6 143.3 4.43
-3 -1 -6 140.25 5.03
-3 -1 -6 154.4 5.58
-3 -1 -6 174.1 5.47
-3 -1 -6 139.61 5.22
-3 -1 -7 0.87 0.41
-3 -1 -7 1.11 0.54
-3 -1 -7 1 0.62
-3 -1 -7 1.22 0.67
-3 -1 -7 0.78 0.48
-3 -1 -7 0.48 0.5
-3 -1 -7 0.75 0.59
-3 -1 -7 1.21 0.52
-3 -1 -7 0.8 0.39
-3 -1 -7 1.14 0.56
3 -1 7 0.55 0.34
-3 -1 -7 0.73 0.53
-3 -1 -8 14.54 1.68
-3 -1 -8 18.33 1.88
-3 -1 -8 18.25 1.65
-3 -1 -8 15.83 1.41
-3 -1 -8 14.92 1.71
-3 -1 -8 13.04 1.75
-3 -1 -8 13.42 1.72
-3 -1 -8 16.54 1.82
-3 -1 -9 262.31 7.81
-3 -1 -9 250.26 6.74
-3 -1 -9 239.91 7.62
-3 -1 -9 223.65 7.76
-3 -1 -9 248.73 8.18
-3 -1 -9 239.59 7.65
-3 -1 -10 26.76 2.14
-3 -1 -10 24.87 1.74
-3 -1 -10 28.68 2.46
-3 -1 -10 27.49 2.24
-3 -1 -10 26.27 2.18
-3 -1 -11 0.94 0.5
-3 -1 -11 0.56 0.49
-3 -1 -11 0.83 0.48
-3 -1 -11 0.73 0.58
-3 -1 -12 0.84 0.38
-3 -1 -12 0.57 0.43
-3 -1 -12 0.38 0.31
-3 0 14 0.03 0.24
-3 0 14 0.1 0.23
-3 0 14 -0.03 0.25
3 0 -14 0.03 0.21
3 0 -14 0.1 0.23
3 0 -14 -0.09 0.2
-3 0 13 628.81 11.39
-3 0 13 626.87 13.05
-3 0 13 637.78 13
-3 0 13 631.29 13.03
3 0 -13 611.98 12.35
3 0 -13 669.74 12.85
3 0 -13 629.02 12.58
-3 0 12 -0.23 0.56
-3 0 12 -0.08 0.5
3 0 -12 0.12 0.41
-3 0 12 0.39 0.54
-3 0 12 -0.09 0.31
3 0 -12 -0.32 0.48
-3 0 11 900.01 18.67
-3 0 11 884.14 18.57
3 0 -11 858.99 17.52
-3 0 11 864.95 16.76
3 0 -11 873 17.69
3 0 -10 0.22 0.41
3 0 -10 0.14 0.36
-3 0 10 0.38 0.51
-3 0 10 0.09 0.61
-3 0 10 0.06 0.35
3 0 -10 0.28 0.37
-3 0 10 0.59 0.42
-3 0 10 0.2 0.5
-3 0 9 362.91 9.92
-3 0 9 370.04 8.63
3 0 -9 336.92 8.79
-3 0 9 346.94 8.64
-3 0 9 341.46 9.62
3 0 -9 346.14 8.75
-3 0 8 0.06 0.36
3 0 -8 0.06 0.36
-3 0 8 0.33 0.49
-3 0 8 0.17 0.36
-3 0 8 0.16 0.46
-3 0 7 91.13 3.36
-3 0 7 96.7 3.41
3 0 -7 97.39 2.89
-3 0 7 83.33 3.78
-3 0 7 85.28 3.83
-3 0 6 0.04 0.25
-3 0 6 0.06 0.37
-3 0 6 0.06 0.44
3 0 -6 0.07 0.19
-3 0 6 0.08 0.29
3 0 -6 0.48 0.27
-3 0 5 73.21 2.56
3 0 -5 78.52 2.41
3 0 -4 0.23 0.27
3 0 -4 0.18 0.2
-3 0 4 0.03 0.22
-3 0 4 -0.14 0.36
-3 0 3 398.69 7.72
3 0 -3 392.64 7.62
-3 0 3 395.95 8.48
3 0 -2 0.53 0.24
-3 0 2 0.22 0.33
-3 0 2 0.07 0.29
-3 0 1 198.88 4.71
-3 0 1 193.17 4.65
3 0 0 0.16 0.2
-3 0 0 0.64 0.34
-3 0 0 0.54 0.34
-3 0 -1 3978.41 63.28
-3 0 -1 3861.38 62.87
-3 0 -1 3898.03 62.9
-3 0 -1 3923.8 63.57
-3 0 -2 -0.04 0.29
-3 0 -2 0.11 0.3
-3 0 -2 0.05 0.34
-3 0 -3 732 13.96
-3 0 -3 729.16 13.43
-3 0 -4 0.51 0.31
-3 0 -4 0.4 0.38
-3 0 -4 3.4 0.67
-3 0 -4 0.17 0.26
-3 0 -4 1.38 0.49
-3 0 -4 0.42 0.37
-3 0 -4 3.42 0.67
-3 0 -4 4.07 0.8
-3 0 -5 3.38 0.79
-3 0 -5 3.6 0.71
-3 0 -5 3.56 0.82
-3 0 -5 3.25 0.63
-3 0 -5 3.19 0.75
-3 0 -5 2.71 0.68
-3 0 -5 3.56 0.68
-3 0 -5 3.79 0.76
3 0 5 2.62 0.54
-3 0 -5 3.27 0.73
-3 0 -6 0.42 0.3
-3 0 -6 0.16 0.43
-3 0 -6 0.15 0.43
-3 0 -6 0.08 0.44
-3 0 -6 0.62 0.52
-3 0 -6 0.31 0.44
-3 0 -6 0.12 0.36
-3 0 -6 0.07 0.39
-3 0 -6 0.06 0.31
-3 0 -6 0.07 0.41
3 0 6 0.34 0.32
-3 0 -6 0.57 0.47
-3 0 -7 676.67 15.55
-3 0 -7 757.23 15.05
-3 0 -7 743.16 15.72
-3 0 -7 678.9 14.06
3 0 7 791.18 14.55
-3 0 -7 746.36 15.72
-3 0 -7 676.99 15.32
-3 0 -7 641.99 15.68
-3 0 -7 655.66 15.58
-3 0 -7 815.23 15.6
-3 0 -8 0.29 0.55
-3 0 -8 -0.09 0.48
-3 0 -8 0.34 0.53
-3 0 -8 0.89 0.63
3 0 8 -0.24 0.38
-3 0 -8 0.06 0.37
-3 0 -8 0.5 0.54
-3 0 -8 0.62 0.63
-3 0 -9 1320.42 24.57
-3 0 -9 1238.83 23.98
-3 0 -9 1278.71 23.16
-3 0 -9 1229.24 24.34
-3 0 -9 1145.34 24.62
-3 0 -9 1111.58 24.43
-3 0 -9 1288.95 24.83
-3 0 -10 0.29 0.43
-3 0 -10 0.35 0.56
-3 0 -10 0.2 0.57
-3 0 -10 0.25 0.5
-3 0 -11 96.46 4.06
-3 0 -11 100.31 3.57
-3 0 -11 107.28 4.51
-3 0 -11 102.5 4.11
-3 0 -12 0.12 0.4
-3 0 -12 0.05 0.31
-3 0 -12 0.15 0.34
3 1 -14 13.82 0.95
-3 1 14 13.66 0.97
-3 1 13 24.38 1.28
-3 1 13 25.19 1.78
-3 1 13 25.98 1.79
-3 1 13 26.26 1.8
3 1 -13 27.15 1.61
3 1 -13 26.42 1.68
3 1 -13 28.55 1.68
-3 1 12 4.06 0.93
-3 1 12 7.26 1.16
3 1 -12 5.34 0.88
3 1 -12 4.5 0.87
-3 1 12 5.13 1.01
-3 1 12 6.11 0.82
-3 1 11 14.04 1.71
-3 1 11 12.09 1.59
3 1 -11 12.95 1.38
3 1 -11 12.4 1.43
-3 1 11 12.9 1.27
-3 1 10 16.17 1.85
3 1 -10 17.72 1.63
-3 1 10 18.94 1.99
3 1 -10 14.82 1.61
3 1 -10 19.29 1.73
-3 1 10 15.86 1.5
-3 1 10 18.16 1.56
-3 1 10 16.54 1.91
-3 1 9 14.72 1.7
3 1 -9 12.51 1.34
-3 1 9 15.57 1.76
3 1 -9 13.79 1.43
-3 1 9 12.65 1.3
-3 1 9 13.22 1.34
-3 1 9 14.54 1.69
-3 1 8 142.19 4.64
-3 1 8 148.73 4.59
3 1 -8 144.15 4.76
-3 1 8 135.63 5.27
3 1 -8 141.56 3.93
-3 1 7 5.73 0.86
-3 1 7 7.34 0.88
-3 1 7 7.24 1.12
3 1 -7 4.88 0.64
-3 1 7 5.39 0.97
-3 1 6 397.63 8.28
-3 1 6 424.65 9.57
-3 1 6 404.13 9.42
-3 1 5 29.07 1.62
-3 1 5 30.66 1.91
-3 1 5 27.65 1.41
3 1 -5 28.25 1.23
3 1 -5 27.97 1.48
-3 1 4 6.45 0.6
3 1 -4 5.58 0.68
3 1 -4 6.51 0.5
-3 1 4 6.36 0.84
-3 1 3 2576.67 40.88
3 1 -3 2524.98 40.64
-3 1 3 2595.1 42.16
3 1 -2 2083.96 35.92
3 1 -2 2158.46 34.69
-3 1 2 2141.61 35.99
3 1 -1 11.87 0.66
-3 1 1 12.6 0.99
-3 1 1 11.48 0.94
3 1 0 1934.13 31.27
-3 1 0 1853.82 32
-3 1 -1 1191.41 21.01
-3 1 -1 1213.89 21.06
-3 1 -1 1192.55 21.44
-3 1 -2 60.48 2.35
-3 1 -2 60.76 2.51
-3 1 -2 57.33 2.59
-3 1 -3 302.07 6.77
-3 1 -3 297.83 7.09
-3 1 -4 8.71 1.04
-3 1 -4 9.86 0.94
-3 1 -4 8.47 0.89
-3 1 -4 9.03 1.09
-3 1 -4 8.54 1.03
-3 1 -4 7.84 1.05
-3 1 -4 7.52 0.88
-3 1 -4 7.26 0.96
-3 1 -5 18.81 1.63
-3 1 -5 21.96 1.53
-3 1 -5 19.16 1.43
-3 1 -5 21.28 1.73
-3 1 -5 21.66 1.43
-3 1 -5 19.39 1.65
-3 1 -5 18.23 1.72
-3 1 -5 21.69 1.64
-3 1 -5 16.21 1.57
-3 1 -5 17.13 1.54
-3 1 -6 152.52 5.35
-3 1 -6 149.09 4.76
-3 1 -6 142.84 4.63
-3 1 -6 140.62 5.08
-3 1 -6 164.63 4.64
-3 1 -6 140 4
-3 1 -6 134.84 5.01
3 1 6 157 4.81
-3 1 -6 146.75 5.16
-3 1 -6 141.81 5.41
-3 1 -6 166.01 5.41
-3 1 -6 131.51 5.16
-3 1 -7 0.18 0.45
-3 1 -7 1.07 0.46
-3 1 -7 0.29 0.43
-3 1 -7 0.38 0.47
-3 1 -7 0.35 0.42
-3 1 -7 0.47 0.45
-3 1 -7 0.08 0.44
-3 1 -7 0.67 0.34
3 1 7 0.61 0.41
-3 1 -7 0.65 0.45
-3 1 -8 15.27 1.7
-3 1 -8 16.13 1.71
-3 1 -8 18.67 1.59
-3 1 -8 16.17 1.31
3 1 8 19.04 1.65
-3 1 -8 20.94 1.99
-3 1 -8 16.87 1.93
-3 1 -8 17.52 1.93
-3 1 -8 16.66 1.85
-3 1 -9 241.98 7.2
-3 1 -9 241.94 6.89
-3 1 -9 256.42 8.3
-3 1 -9 229.39 7.84
-3 1 -9 265.41 7.91
-3 1 -9 249.6 7.76
-3 1 -10 29.09 2.05
-3 1 -10 26.33 2.18
-3 1 -10 30.27 2.31
-3 1 -10 27.75 2.4
-3 1 -11 0.69 0.48
-3 1 -11 0.94 0.52
-3 1 -11 0.44 0.41
-3 1 -11 1.11 0.63
-3 1 -12 1.51 0.47
-3 1 -12 0.61 0.45
-3 1 -12 0.89 0.38
-3 2 13 58.95 2.07
-3 2 13 59.37 2.61
-3 2 13 57.73 2.54
-3 2 13 56.12 2.53
3 2 -13 60.86 2.33
3 2 -13 60.71 2.45
3 2 -13 57.52 2.32
-3 2 12 1.05 0.42
-3 2 12 1.4 0.6
-3 2 12 0.69 0.57
-3 2 12 1.11 0.58
3 2 -12 1.24 0.49
3 2 -12 1.07 0.49
3 2 -12 1.12 0.45
-3 2 11 490.1 12.04
-3 2 11 490.73 12.04
3 2 -11 519.67 11.25
3 2 -11 499.22 11.32
-3 2 11 504.23 12.23
-3 2 11 531.65 11.13
-3 2 10 750.31 15.04
-3 2 10 790.78 16.52
-3 2 10 752.52 16.36
3 2 -10 667.38 14.98
3 2 -10 749.63 15.08
3 2 -10 771.27 15.29
3 2 -10 678.55 15.03
3 2 -10 724.36 15.21
-3 2 10 745.04 16.48
-3 2 9 386.61 10.22
3 2 -9 369.08 9.04
-3 2 9 403.5 10.36
-3 2 9 384.89 8.91
3 2 -9 380.96 9.24
-3 2 9 376.7 9.22
-3 2 9 369.1 10.24
-3 2 8 15.79 1.48
-3 2 8 16.56 1.72
3 2 -8 15.79 1.4
-3 2 8 15.96 1.68
3 2 -8 17.78 1.54
-3 2 8 14.48 1.28
3 2 -8 14.57 1.18
-3 2 8 13.25 1.59
-3 2 7 12.89 1.44
-3 2 7 10.66 1.31
-3 2 7 10.89 1.02
3 2 -7 11.26 1.02
-3 2 7 13.01 1.45
-3 2 6 351.43 8.07
-3 2 6 373.88 8.72
-3 2 6 338.08 8.48
-3 2 6 327.42 7.26
3 2 -6 337.2 7.5
-3 2 6 372.53 8.84
-3 2 5 295.77 6.78
-3 2 5 324.28 7.45
-3 2 5 298.18 7.21
-3 2 5 265.52 5.88
-3 2 5 303.88 7.3
3 2 -5 255 6.23
-3 2 4 41.02 1.44
3 2 -4 37.58 1.78
-3 2 4 41.72 2.08
-3 2 3 251 4.65
-3 2 3 255.36 6.02
-3 2 3 240.98 5.87
3 2 -2 13.79 1.04
-3 2 2 14.87 1.09
-3 2 2 13.75 1.06
3 2 -1 270.63 6.12
-3 2 1 290.36 6.28
-3 2 1 284.98 6.25
3 2 0 54.02 2.09
-3 2 0 57.66 2.17
-3 2 0 55.87 2.11
-3 2 -1 55.52 2.15
3 2 1 54.85 2.11
-3 2 -1 52.82 2.29
-3 2 -2 262.55 6.18
3 2 2 284.73 6.06
-3 2 -2 293.21 6.99
-3 2 -2 261.03 6.53
-3 2 -3 581.59 11
-3 2 -3 528.6 11.28
3 2 3 555.5 10.41
3 2 3 555.03 10.18
-3 2 -3 525.91 11.55
-3 2 -4 259.29 7.27
-3 2 -4 277.94 7.27
-3 2 -4 281.71 6.62
-3 2 -4 282.8 7.39
-3 2 -4 297.91 6.74
-3 2 -4 285.67 7.32
3 2 4 298.41 6.02
-3 2 -4 326.41 7.14
-3 2 -4 272.85 7.19
-3 2 -5 120.88 4.44
-3 2 -5 112.35 3.81
-3 2 -5 124.41 4.42
-3 2 -5 118.65 3.89
-3 2 -5 111.18 3.48
-3 2 -5 110.52 4.24
-3 2 -5 124.33 4.71
-3 2 -5 108.89 4.37
-3 2 -5 104.73 3.43
-3 2 -5 118.27 4.32
-3 2 -6 253.14 7.44
-3 2 -6 256.61 6.8
-3 2 -6 266.61 7.37
-3 2 -6 251.9 7.37
3 2 6 302.07 7.32
-3 2 -6 266.41 6.33
-3 2 -6 257.61 6.62
-3 2 -6 298.48 7.55
-3 2 -6 252.62 7.73
-3 2 -6 251.75 7.61
-3 2 -6 246.2 6.22
-3 2 -6 251.44 7.28
-3 2 -7 1141.06 22.79
-3 2 -7 1104.3 22.69
3 2 7 1203.59 22.27
-3 2 -7 1175.61 21.19
-3 2 -7 1211.86 22.47
-3 2 -7 1165.91 23.48
-3 2 -7 1101.14 23.07
-3 2 -7 1135 22.93
-3 2 -8 636.95 14.31
3 2 8 630.95 13.51
-3 2 -8 624.22 14.22
-3 2 -8 650.53 13.36
-3 2 -8 617.14 12.76
-3 2 -8 631.57 14.85
-3 2 -8 644.21 14.53
-3 2 -9 69.13 3
-3 2 -9 78.77 3.51
-3 2 -9 69.18 3.87
-3 2 -9 72.77 3.71
-3 2 -9 79.53 3.89
-3 2 -10 4.76 0.89
-3 2 -10 3.85 1
-3 2 -10 3.35 0.84
-3 2 -10 4.23 0.93
-3 2 -11 86.22 3.34
-3 2 -11 85.25 3.51
-3 2 -11 84.3 3.46
-3 2 -11 84.88 3.72
-3 2 -12 1.14 0.43
-3 2 -12 1.04 0.44
-3 2 -12 0.87 0.36
-3 3 13 31.79 1.36
-3 3 13 24.27 1.38
-3 3 13 24.31 1.34
-3 3 13 26.26 1.4
3 3 -13 28.29 1.31
3 3 -13 24.37 1.28
3 3 -13 20.78 1.14
-3 3 12 15.77 1.22
-3 3 12 14.53 1.37
-3 3 12 12.75 1.28
-3 3 12 14.2 1.34
3 3 -12 13.7 1.14
3 3 -12 13.92 1.21
3 3 -12 12.77 1.12
-3 3 11 0.94 0.58
-3 3 11 1.31 0.61
3 3 -11 1.71 0.52
-3 3 11 1.47 0.64
-3 3 11 1.42 0.51
3 3 -11 1.26 0.55
3 3 -10 145.84 4.18
-3 3 10 152.01 5.54
-3 3 10 150.35 5.52
3 3 -10 159.08 4.93
-3 3 10 156.29 5.67
-3 3 10 158.35 5.16
3 3 -10 144.94 4.87
-3 3 9 202.1 6.17
-3 3 9 216.62 6.85
-3 3 9 218.69 6.8
3 3 -9 203.38 5.83
-3 3 9 206.14 6.66
3 3 -9 184.05 5.81
3 3 -9 202.04 5.85
3 3 -9 198.74 5.4
-3 3 9 206.49 6.78
-3 3 8 935.87 18.46
-3 3 8 852.08 17.49
-3 3 8 944.41 18.38
3 3 -8 855.84 16.87
-3 3 8 887.52 18.19
3 3 -8 886.53 17.17
3 3 -8 860.2 16.6
-3 3 8 918.57 18.39
-3 3 7 162.33 5.46
-3 3 7 172.56 5.53
-3 3 7 150.95 5.27
3 3 -7 161.32 4.8
3 3 -7 146.05 4.52
-3 3 7 168.74 5.58
-3 3 6 28.61 1.96
-3 3 6 27.99 1.95
-3 3 6 26.68 1.82
-3 3 6 24.02 1.82
3 3 -6 27.37 1.65
-3 3 6 30.62 2.02
-3 3 5 0.87 0.42
-3 3 5 0.61 0.37
-3 3 5 0.05 0.26
-3 3 5 0.96 0.46
3 3 -5 0.04 0.24
-3 3 4 427.15 9.12
-3 3 4 413.31 9
-3 3 3 843.74 15.69
-3 3 3 875.26 15.52
-3 3 3 841.5 15.45
3 3 -2 4.51 0.63
-3 3 2 6.14 0.74
-3 3 2 4.07 0.6
-3 3 2 4.33 0.61
3 3 -1 3883.05 61
-3 3 1 3881.63 61.08
-3 3 1 3771.43 60.99
-3 3 1 3797.02 60.88
-3 3 0 147.47 4.34
3 3 0 143.84 3.74
-3 3 0 132.34 3.65
-3 3 0 138.66 3.71
-3 3 -1 21.22 1.55
3 3 1 20.63 1.18
-3 3 -1 19.19 1.21
-3 3 -2 2.79 0.56
3 3 2 1.12 0.3
-3 3 -2 2.22 0.59
-3 3 -2 2.31 0.59
-3 3 -2 2.31 0.5
-3 3 -3 14.48 1.26
-3 3 -3 9.66 0.97
-3 3 -3 12.4 1.05
3 3 3 11.44 0.92
-3 3 -3 13.31 1.31
-3 3 -4 196.03 6.02
-3 3 -4 212.85 6
-3 3 -4 220.57 5.48
-3 3 -4 222.38 5.49
-3 3 -4 222.27 5.46
-3 3 -4 212.77 5.61
-3 3 -4 207.77 6.03
3 3 4 211.05 5.1
-3 3 -4 198.76 5.45
-3 3 -4 215.39 6.02
-3 3 -5 4.31 0.89
-3 3 -5 8.64 1.1
-3 3 -5 3.88 0.87
-3 3 -5 4.52 0.85
-3 3 -5 6.17 0.85
-3 3 -5 7.45 0.9
-3 3 -5 6.47 0.87
-3 3 -5 5.46 0.76
-3 3 -5 4.92 0.89
3 3 5 4.78 0.65
-3 3 -5 5.32 0.8
-3 3 -5 4.06 0.79
-3 3 -6 193.42 6.12
-3 3 -6 185.25 5.4
-3 3 -6 187.22 5.18
-3 3 -6 178.75 5.4
-3 3 -6 185.16 5.98
-3 3 -6 169.33 6.15
-3 3 -6 217.1 5.98
-3 3 -6 173.25 6.1
-3 3 -6 191.37 5.39
-3 3 -6 200.76 6.13
-3 3 -7 52.53 3
-3 3 -7 49.62 2.51
-3 3 -7 53.6 3.02
3 3 7 52.28 2.92
-3 3 -7 51.87 2.64
-3 3 -7 53.84 2.56
-3 3 -7 52.38 3.22
-3 3 -7 51.42 3.15
-3 3 -7 52.25 3.05
-3 3 -8 253.71 6.66
-3 3 -8 276.92 7.76
3 3 8 266.5 7.44
-3 3 -8 259.91 7.62
-3 3 -8 252.45 7.03
-3 3 -8 279.94 7.05
-3 3 -8 262.4 8.06
-3 3 -8 231.6 7.64
-3 3 -8 264 7.77
-3 3 -9 89.22 3.5
-3 3 -9 79.89 3.72
-3 3 -9 78.11 3.03
-3 3 -9 78.4 3.67
-3 3 -9 74.99 3.87
-3 3 -10 123.75 4.51
-3 3 -10 122.74 4.42
-3 3 -10 127.51 4.81
-3 3 -11 6.66 0.89
-3 3 -11 5.77 0.89
-3 3 -11 7.02 0.85
3 4 -13 88.55 2.46
-3 4 12 0.03 0.09
-3 4 12 0.03 0.12
-3 4 11 4.49 0.77
-3 4 11 2.57 0.64
-3 4 11 2.07 0.56
-3 4 11 2.67 0.64
3 4 -11 2.2 0.52
3 4 -11 3.74 0.66
3 4 -11 3.07 0.58
3 4 -10 0.56 0.31
-3 4 10 0.77 0.47
-3 4 10 1.38 0.54
3 4 -10 0.39 0.31
-3 4 10 0.97 0.53
-3 4 10 1.32 0.58
3 4 -10 0.63 0.38
-3 4 9 4.79 0.89
3 4 -9 7.11 0.88
-3 4 9 5.55 0.99
3 4 -9 4.89 0.77
-3 4 9 7.41 1.11
-3 4 9 7.25 1.11
3 4 -9 4.92 0.84
3 4 -8 598.54 12.05
-3 4 8 610.14 13.05
-3 4 8 603.47 13.04
-3 4 8 595.47 13.03
3 4 -8 591 12.14
3 4 -8 618.39 12.37
-3 4 7 594.47 12.67
3 4 -7 603.32 11.76
-3 4 7 635.86 12.88
-3 4 7 565.21 12.66
3 4 -7 566.39 11.79
3 4 -7 606.34 12.21
-3 4 7 551.2 12.33
-3 4 7 573.61 12.57
-3 4 6 160.7 5.1
-3 4 6 156.2 4.92
3 4 -6 140.58 4.51
-3 4 6 141.6 5.01
-3 4 6 159.46 4.91
-3 4 6 152.21 5.19
-3 4 6 153.74 4.8
-3 4 6 151.82 4.81
-3 4 5 779.47 15.47
-3 4 5 804.73 15.24
-3 4 5 823.94 15.98
-3 4 5 770.81 15.08
-3 4 5 792.29 15.17
-3 4 5 771.45 15.09
-3 4 4 148.28 4.54
-3 4 4 146.98 4.79
3 4 -4 145.13 4.32
-3 4 4 153.16 4.88
-3 4 4 147.29 4.3
-3 4 4 149.91 4.3
-3 4 3 54.23 2.37
-3 4 3 61.96 2.96
-3 4 3 58.32 2.32
-3 4 3 56.03 2.27
-3 4 3 55.23 2.58
3 4 -3 52.74 2.28
-3 4 2 34.46 2.16
-3 4 2 36.22 1.67
-3 4 2 33.51 1.6
-3 4 2 32.05 1.77
-3 4 2 34.95 1.92
3 4 -2 32.97 1.7
-3 4 1 225.68 5.14
-3 4 1 220.15 5.13
-3 4 1 213.76 6.05
-3 4 1 240.17 6.09
3 4 -1 238 5.42
-3 4 1 232.98 5.69
-3 4 0 121.45 4.33
-3 4 0 137.74 4.38
-3 4 0 129.95 3.47
-3 4 0 141.85 4.5
3 4 0 121.65 3.46
-3 4 0 122.56 3.63
-3 4 -1 110.17 4.02
-3 4 -1 117.46 4.21
3 4 1 110.88 3.11
-3 4 -1 103.59 3.15
-3 4 -1 116 3.97
-3 4 -2 22.48 1.69
-3 4 -2 22.64 1.45
-3 4 -2 19.09 1.42
-3 4 -2 23.62 1.85
3 4 2 24.2 1.49
3 4 2 21.47 1.13
-3 4 -2 20.35 1.57
-3 4 -2 22.22 1.32
-3 4 -3 505.45 10.98
-3 4 -3 524.16 11.21
-3 4 -3 516.22 10.69
-3 4 -3 493.74 10.62
-3 4 -3 521.31 10.51
3 4 3 488.27 10.28
-3 4 -3 490.55 10.92
-3 4 -4 22.88 1.77
-3 4 -4 23.24 1.67
-3 4 -4 15.17 1.2
-3 4 -4 17.06 1.49
-3 4 -4 25.12 1.5
-3 4 -4 16.61 1.37
3 4 4 17 1.29
-3 4 -4 16.9 1.48
-3 4 -5 390.42 9.76
-3 4 -5 373.88 9.56
-3 4 -5 404.19 8.81
-3 4 -5 380.83 8.73
-3 4 -5 410.02 9.07
-3 4 -5 399.06 9.4
-3 4 -5 413.77 9.55
3 4 5 409.92 8.88
-3 4 -5 384.88 9.24
-3 4 -6 970.94 19.16
-3 4 -6 1017.16 18.73
-3 4 -6 966.43 18.33
-3 4 -6 953.02 19.6
-3 4 -6 923.85 19.35
-3 4 -6 1016.93 19.06
-3 4 -6 1023.59 19.2
-3 4 -7 384.5 9.4
3 4 7 387.75 9.67
-3 4 -7 374.22 8.85
-3 4 -7 371.41 8.71
-3 4 -7 367.66 8.93
-3 4 -7 363.17 9.16
-3 4 -8 22.87 1.87
-3 4 -8 27.08 1.91
-3 4 -8 24.14 1.79
-3 4 -8 22.91 2
-3 4 -8 24.8 1.8
-3 4 -8 24.36 1.88
-3 4 -9 33.64 2.17
-3 4 -9 37.37 2.17
-3 4 -9 39.18 2.29
-3 4 -9 35.85 2.35
-3 4 -9 33.25 2.08
-3 4 -9 37.61 2.06
-3 4 -10 4.32 0.76
-3 4 -10 5.64 0.85
-3 4 -10 4.34 0.72
-3 4 -11 65.49 2.55
3 5 -12 52.02 1.92
-3 5 12 53.55 2.01
-3 5 11 1.58 0.5
3 5 -10 113.05 3.45
-3 5 10 112.22 4.1
3 5 -9 0.48 0.35
3 5 -8 9.71 1.12
3 5 -8 9.66 1.07
-3 5 8 11.21 1.34
-3 5 7 586.96 12.79
3 5 -7 572.67 11.89
3 5 -7 568.15 12.05
-3 5 7 541.3 12.78
-3 5 6 563.2 12.54
-3 5 6 531.5 12.73
-3 5 5 1299.92 23.49
3 5 -5 1298.8 22.94
-3 5 4 7.68 1.13
-3 5 4 6.27 0.91
-3 5 4 6.32 0.81
3 5 -4 5.7 0.82
-3 5 4 5.88 0.96
-3 5 4 9.31 1.2
-3 5 3 114.09 4.58
-3 5 3 118.25 3.94
-3 5 3 106.68 3.62
3 5 -3 121.21 3.85
-3 5 3 119.78 4.3
-3 5 3 123.41 4.58
-3 5 2 8.09 1.14
-3 5 2 8.65 1.23
3 5 -2 9.3 0.94
-3 5 2 8.77 1.02
-3 5 2 9.18 1.05
-3 5 1 37.86 1.98
3 5 -1 37.62 1.84
-3 5 1 39.88 2.3
-3 5 1 36.19 2.03
3 5 0 9.17 0.84
-3 5 0 7.73 1.12
-3 5 0 9.2 0.97
3 5 0 9.47 0.86
-3 5 0 8.96 1.15
3 5 0 9.88 1
-3 5 0 8.16 0.88
-3 5 0 8.38 0.96
-3 5 -1 295.7 7.09
-3 5 -1 305.85 7.09
-3 5 -1 294.21 7.83
3 5 1 275.44 6.24
-3 5 -1 301.77 8.14
3 5 1 310.65 7.2
-3 5 -1 286.11 7.97
-3 5 -2 149.54 4.5
-3 5 -2 147.04 4.55
-3 5 -2 145.05 5.07
-3 5 -2 162.74 5.75
3 5 2 159.26 4.7
-3 5 -2 156.5 5.36
-3 5 -3 70.73 2.97
-3 5 -3 74.07 2.97
-3 5 -3 73.58 3.44
-3 5 -3 70.95 3.72
3 5 3 76.39 3.09
-3 5 -3 70.02 3.41
-3 5 -4 1106.5 19.88
-3 5 -4 1124.86 19.97
-3 5 -4 1081.58 20.88
3 5 4 1037.42 20.04
-3 5 -4 1045.4 20.78
-3 5 -5 1.9 0.61
-3 5 -5 1.31 0.5
-3 5 -5 1.8 0.66
3 5 5 1.2 0.46
-3 5 -5 1.72 0.55
-3 5 -6 26.64 2.04
-3 5 -6 29.85 1.93
-3 5 -7 0.35 0.37
-3 5 -7 0.07 0.37
-3 5 -7 0.12 0.38
-3 5 -8 21.95 1.72
-3 5 -8 20.68 1.64
-3 5 -8 22.13 1.65
-3 5 -9 3.81 0.74
-3 5 -9 3.52 0.67
-3 5 -9 3.05 0.71
-3 5 -10 0.58 0.38
-3 5 -10 0.06 0.11
-3 5 -11 150.74 3.76
3 6 -11 33.92 1.52
-3 6 11 41.5 1.83
3 6 -10 0.77 0.32
3 6 -10 1.49 0.42
3 6 -9 35.07 1.91
3 6 -9 38.21 2.02
-3 6 9 38.27 2.3
3 6 -8 95.63 3.47
3 6 -8 95.84 3.5
-3 6 8 88.32 3.88
3 6 -7 905.23 17.15
3 6 -7 902.62 17.39
-3 6 7 931.3 18.38
3 6 -6 476.53 10.94
-3 6 6 502.06 11.59
3 6 -5 99.33 3.75
3 6 -5 107.54 3.96
3 6 -5 99.09 3.54
-3 6 5 101.14 4.4
-3 6 5 107.48 4.2
3 6 -4 1.45 0.47
-3 6 4 1.16 0.62
3 6 -4 0.96 0.47
3 6 -4 1.03 0.42
-3 6 4 1.06 0.53
-3 6 4 2.6 0.76
-3 6 4 1.26 0.5
-3 6 3 26.18 2.25
3 6 -3 30.38 1.84
-3 6 3 29.93 1.92
3 6 -3 32.62 1.91
3 6 -3 27.92 1.82
-3 6 3 28.59 2.11
-3 6 3 30.83 2.32
-3 6 2 10.32 1.07
-3 6 2 13.69 1.58
-3 6 2 11.63 1.27
3 6 -2 12.3 1.13
3 6 -2 11.37 1.16
-3 6 2 11.72 1.28
3 6 -2 13.62 1.19
-3 6 2 12.77 1.57
3 6 -1 21.11 1.45
-3 6 1 21.34 2.03
-3 6 1 22.06 2.02
-3 6 1 23.21 1.59
-3 6 1 22.46 1.87
3 6 -1 21.3 1.43
3 6 -1 22.53 1.64
-3 6 1 23.21 1.71
-3 6 1 21.72 1.55
-3 6 0 20.97 1.54
-3 6 0 24.07 1.63
3 6 0 22.78 1.45
-3 6 0 20.93 1.89
3 6 0 22.65 1.39
-3 6 0 22.52 1.55
-3 6 -1 55.36 2.56
-3 6 -1 61.17 2.69
-3 6 -1 61.37 3.41
3 6 1 57.68 2.77
-3 6 -1 58.5 3.34
-3 6 -2 96.8 3.58
-3 6 -2 101.14 3.68
-3 6 -2 111.54 4.56
-3 6 -2 111.7 4.86
3 6 2 98.78 3.83
-3 6 -2 103.31 4.51
-3 6 -3 37.67 2.09
-3 6 -3 30.76 1.92
-3 6 -3 34.59 2.45
-3 6 -3 37.86 2.81
3 6 3 35.31 2.2
-3 6 -3 32.54 2.44
-3 6 -4 2.25 0.69
-3 6 -4 0.97 0.6
-3 6 -4 1.61 0.54
-3 6 -4 1.61 0.69
3 6 4 3.21 0.74
-3 6 -4 1.32 0.51
-3 6 -5 1380.45 24.29
-3 6 -5 1488.29 24.79
-3 6 -5 1366.61 25.7
3 6 5 1225.07 24.65
-3 6 -5 1318.36 25.28
-3 6 -6 202.17 5.58
-3 6 -6 205.11 5.83
-3 6 -6 192.25 6.27
-3 6 -6 189.19 5.76
-3 6 -7 2.05 0.65
-3 6 -7 1.78 0.68
-3 6 -7 3.01 0.65
-3 6 -8 6.1 0.92
-3 6 -8 6.7 0.88
-3 6 -9 9.83 0.97
-3 6 -9 9.95 1.01
-3 6 -9 10.67 1
-3 6 -10 12.68 0.9
3 7 -10 18.71 1.06
-3 7 10 20.99 1.3
3 7 -9 104.19 3.35
-3 7 9 107.2 3.65
3 7 -8 102.07 3.56
-3 7 8 96.09 3.74
3 7 -7 4.76 0.8
-3 7 7 5.57 0.96
-3 7 6 12.27 1.38
3 7 -5 434.1 9.67
-3 7 5 416.09 10.34
3 7 -4 372.79 8.59
-3 7 4 373.36 9.85
3 7 -4 339.69 8.13
3 7 -4 342.63 8.38
-3 7 4 338.35 9.21
-3 7 4 382.32 9.7
-3 7 4 334.89 8.53
3 7 -3 7.76 1
-3 7 3 9.12 1.4
3 7 -3 5.78 0.87
3 7 -3 4.99 0.8
-3 7 3 4.47 0.9
-3 7 3 5.72 1.09
-3 7 3 4.05 0.75
-3 7 2 -0.09 0.49
3 7 -2 0.05 0.25
3 7 -2 -0.06 0.27
-3 7 2 0.07 0.34
-3 7 2 -0.1 0.51
3 7 -2 0.27 0.36
-3 7 1 163.07 4.66
-3 7 1 164.86 5.8
3 7 -1 151.81 5.02
-3 7 1 148.17 4.91
3 7 -1 163.77 4.86
-3 7 1 153.61 6.01
-3 7 0 179.88 5
-3 7 0 167.15 6.17
-3 7 0 176.58 6.23
3 7 0 167.97 5.37
3 7 0 162.61 4.93
-3 7 0 170.8 6.36
-3 7 -1 2.11 0.59
-3 7 -1 2.48 0.78
3 7 1 3.33 0.75
-3 7 -1 3.04 0.86
-3 7 -2 136.69 4.38
-3 7 -2 125.67 5.34
-3 7 -2 142.55 5.77
3 7 2 143.5 5
-3 7 -3 11.04 1.07
-3 7 -3 11.97 1.2
-3 7 -3 10.52 1.54
3 7 3 10.05 1.28
-3 7 -3 9.52 1.38
-3 7 -4 1.5 0.57
-3 7 -4 0.67 0.61
-3 7 -4 0.51 0.35
-3 7 -4 0.42 0.49
-3 7 -5 37.15 2.54
-3 7 -5 45.68 2.17
-3 7 -5 43.1 2.32
-3 7 -5 36.85 2.43
-3 7 -6 496.67 11.3
-3 7 -6 481.47 9.94
-3 7 -6 496.63 10.57
-3 7 -7 254.41 6.86
-3 7 -7 262.02 6.57
-3 7 -7 250.83 6
-3 7 -8 20.3 1.44
-3 7 -8 21.72 1.27
-3 7 -8 20.47 1.41
-3 7 -9 10.49 0.83
3 8 -9 111.18 3.06
-3 8 9 106.4 3.04
3 8 -8 462.34 9.24
-3 8 8 426.17 9.07
-3 8 7 18.94 1.42
3 8 -6 22.09 1.64
-3 8 6 22.71 1.63
3 8 -5 22.78 1.7
-3 8 5 22 1.81
-3 8 5 25.21 1.73
3 8 -4 56.68 2.76
-3 8 4 56.96 3.09
-3 8 4 58.6 2.64
-3 8 3 109.91 4.55
-3 8 3 105.65 4.68
3 8 -3 107.64 4
-3 8 2 15.03 1.69
3 8 -2 15.99 1.42
-3 8 2 13.67 1.69
-3 8 1 -0.09 0.54
3 8 -1 0.78 0.43
-3 8 1 0.1 0.52
-3 8 0 230.29 7.36
-3 8 0 228.81 5.62
-3 8 0 237.98 7.69
3 8 0 217.82 5.97
-3 8 -1 44.63 2.93
-3 8 -1 44.75 2.16
-3 8 -2 12.99 1.6
-3 8 -2 15.04 1.25
-3 8 -2 16.62 1.79
-3 8 -3 15.96 1.7
-3 8 -3 16.47 1.32
-3 8 -3 18.12 1.83
-3 8 -4 0.2 0.34
-3 8 -4 1.35 0.63
-3 8 -5 1.54 0.5
-3 8 -5 2.02 0.6
-3 8 -6 109.22 3.57
-3 8 -6 112.06 3.2
-3 8 -7 33.61 1.71
-3 8 -7 32.83 1.81
3 8 7 29.77 1.54
-3 8 -8 43.51 1.75
3 9 -6 1.52 0.46
-3 9 6 -0.03 0.1
3 9 -5 25.38 1.66
3 9 -4 13.27 1.23
-3 9 4 14.17 1.31
3 9 -3 0.59 0.41
-3 9 3 0.31 0.39
3 9 -2 281.46 7.02
-3 9 2 282.24 7.95
-3 9 2 280.66 7.54
3 9 -1 117.17 3.92
-3 9 1 120.79 4.84
-3 9 1 117.89 4.48
-3 9 0 5.86 1.09
-3 9 0 6.56 1.06
-3 9 -1 -0.07 0.51
-3 9 -2 0.45 0.45
-3 9 -2 0.83 0.55
-3 9 -3 9.34 0.87
-3 9 -3 10.31 1.26
-3 9 -3 8.67 1.16
-3 9 -4 75.97 2.56
-3 9 -4 73.11 3.08
-3 9 -4 72.14 3.12
-3 9 -5 41.09 1.75
-3 9 -5 37.28 1.83
-3 9 -6 16.93 1
3 10 -5 22.93 1.28
3 10 -4 128.82 3.67
3 10 -3 26.32 1.49
-3 10 2 23.3 1.44
3 10 -2 22.4 1.34
-3 10 1 2.76 0.58
-3 10 0 42.56 2.08
-3 10 0 51.27 2.48
-3 10 -1 24.21 1.51
-3 10 -1 24.2 1.66
-3 10 -2 70.56 2.66
-3 10 -3 75.21 2.64
-3 10 -3 75.12 2.71
-3 10 -4 9.51 0.81
4 -10 -4 90.82 2.35
4 -10 -3 91.66 2.44
-4 -10 3 80.05 2.49
4 -10 -2 76.14 2.21
-4 -10 0 129.79 3.49
-4 -10 -1 82.37 2.52
4 -9 -7 37.46 1.33
-4 -9 6 52.56 1.91
4 -9 -6 56.5 1.81
4 -9 -5 30.98 1.35
-4 -9 5 32.75 1.67
4 -9 -5 35.04 1.61
-4 -9 5 29.48 1.34
4 -9 -4 27.41 1.28
-4 -9 4 28.17 1.69
-4 -9 4 27.11 1.42
-4 -9 3 93.09 3.13
-4 -9 3 91.36 2.64
-4 -9 2 102.1 3.79
-4 -9 2 101.84 3.36
4 -9 -1 1.72 0.46
-4 -9 1 1.01 0.41
-4 -9 0 268.61 6.52
-4 -9 0 269.72 6.61
-4 -9 -1 7.89 0.9
-4 -9 -1 8.89 1
-4 -9 -1 8.15 1.03
-4 -9 -2 5.25 0.74
-4 -9 -2 4.53 0.77
-4 -9 -2 5.9 0.87
-4 -9 -3 31.55 1.7
-4 -9 -3 28.45 1.74
-4 -9 -3 29.27 1.69
-4 -9 -4 62.42 2.37
-4 -9 -4 61.28 2.48
-4 -9 -5 14.04 0.95
-4 -9 -5 12.93 0.96
4 -8 -8 272.57 5.64
4 -8 -8 278.24 5.9
4 -8 -7 50.38 2.05
-4 -8 7 48.04 1.98
4 -8 -7 47.52 1.93
-4 -8 7 44.9 1.81
-4 -8 6 15.69 1.27
4 -8 -6 17.8 1.24
-4 -8 6 17.06 1.21
4 -8 -5 17.38 1.26
-4 -8 5 15.86 1.4
4 -8 -5 19.58 1.37
-4 -8 5 16.58 1.3
4 -8 -4 17.45 1.3
-4 -8 4 18.24 1.58
4 -8 -4 16.94 1.33
-4 -8 4 16.27 1.34
4 -8 -3 8.95 0.93
-4 -8 3 7.6 1.12
4 -8 -3 8.24 0.95
-4 -8 3 7 0.93
4 -8 -2 314.46 7.16
-4 -8 2 308.1 7.77
-4 -8 2 322.74 8.49
4 -8 -2 334.74 7.65
4 -8 -1 94.34 3.11
-4 -8 1 87.72 3.62
-4 -8 1 96.66 3.74
-4 -8 1 97 4.16
-4 -8 0 1.05 0.53
-4 -8 0 0.41 0.44
4 -8 0 0.52 0.36
4 -8 0 0.03 0.14
-4 -8 -1 82.51 3.72
-4 -8 -1 87.7 3.56
-4 -8 -2 73.89 3.21
-4 -8 -2 69.42 3.09
-4 -8 -2 67.51 3.39
-4 -8 -2 67.55 3.29
-4 -8 -3 175.95 5.37
-4 -8 -3 179.94 5.42
-4 -8 -3 182.88 5.88
-4 -8 -3 176.53 5.55
-4 -8 -4 5.2 0.86
-4 -8 -4 6.3 1.02
-4 -8 -4 5.89 0.92
-4 -8 -4 5.22 0.87
-4 -8 -5 15.72 1.35
-4 -8 -6 50.6 2.28
-4 -8 -6 50.61 2.25
-4 -8 -7 3.07 0.48
-4 -8 -7 3.14 0.45
4 -7 -10 9.08 0.72
4 -7 -9 78.04 2.38
4 -7 -9 83.02 2.75
-4 -7 9 75.34 2.38
4 -7 -8 5.01 0.73
4 -7 -8 5.41 0.66
-4 -7 8 6.64 0.77
4 -7 -7 285.98 6.5
-4 -7 7 278.88 6.73
-4 -7 6 0.23 0.33
4 -7 -6 0.37 0.4
-4 -7 6 0.66 0.42
4 -7 -5 218.2 5.98
-4 -7 5 204.29 6.19
-4 -7 5 212.81 6.1
4 -7 -4 7.07 0.96
-4 -7 4 7.02 1.11
4 -7 -4 7.09 0.94
-4 -7 4 7.25 1.02
4 -7 -3 99.67 3.72
-4 -7 3 107.17 4.41
4 -7 -3 111.75 3.84
-4 -7 3 105.63 4.11
-4 -7 2 8.2 1.12
4 -7 -2 9.16 1.04
-4 -7 2 9.2 1.18
-4 -7 1 50.29 2.92
-4 -7 1 53.16 3.1
4 -7 -1 58.4 2.62
-4 -7 1 61.64 3.06
-4 -7 0 79.89 3.83
-4 -7 0 78.37 3.55
-4 -7 0 77.18 3.82
4 -7 0 82.1 3.13
-4 -7 0 75.46 3.49
4 -7 1 1.96 0.52
-4 -7 -1 1.52 0.64
-4 -7 -1 1.06 0.57
-4 -7 -2 458.39 11.56
-4 -7 -2 445.37 11.11
-4 -7 -2 475.19 10.92
-4 -7 -3 297.55 8.3
-4 -7 -3 296.63 8.64
-4 -7 -3 302.25 8.47
-4 -7 -4 221.36 6.71
-4 -7 -4 216.61 6.88
-4 -7 -4 219.54 7.04
-4 -7 -5 69.16 3.05
-4 -7 -5 71.45 3.35
-4 -7 -5 67.92 3.27
-4 -7 -6 295.96 6.21
-4 -7 -6 296.43 6.47
-4 -7 -7 231.62 4.67
-4 -7 -7 220.71 5.04
-4 -7 -8 7.32 0.73
-4 -7 -8 8.19 0.86
4 -6 -10 37.18 1.5
4 -6 -10 43.81 1.91
4 -6 -9 91.48 2.93
4 -6 -9 94.2 3.29
4 -6 -8 211.92 4.28
4 -6 -8 208.69 4.76
-4 -6 7 86.73 3.41
4 -6 -7 94.11 3.36
4 -6 -7 94.4 3.63
-4 -6 6 0.75 0.45
4 -6 -5 47.09 2.39
-4 -6 5 52.31 2.8
-4 -6 4 0.36 0.4
4 -6 -4 0.34 0.37
4 -6 -4 1.12 0.48
-4 -6 3 90.06 3.92
-4 -6 3 79.55 3.58
4 -6 -3 75.18 3.71
4 -6 -3 88.21 3.33
-4 -6 2 29.8 2.24
4 -6 -2 26.99 1.97
-4 -6 2 33.44 2.24
-4 -6 2 28.39 2.11
4 -6 -2 31.57 2.33
4 -6 -2 33.18 1.92
-4 -6 1 0.08 0.41
4 -6 -1 1.61 0.53
-4 -6 1 0.28 0.45
-4 -6 1 1.1 0.6
4 -6 -1 0.16 0.38
4 -6 -1 0.05 0.31
-4 -6 0 35.38 2.52
4 -6 0 32.16 2.18
-4 -6 0 30.36 2.16
-4 -6 0 30.74 2.32
-4 -6 0 38.83 2.68
4 -6 0 39.67 2.68
4 -6 0 37.08 1.94
-4 -6 -1 7.79 1.29
-4 -6 -1 8.88 1.31
4 -6 1 9.51 1.37
-4 -6 -1 6.23 1.13
4 -6 1 8.2 1.12
4 -6 2 277.87 7.73
-4 -6 -2 299.59 8.64
-4 -6 -2 290.89 8.73
-4 -6 -3 239.71 6.86
4 -6 3 206.43 6.39
-4 -6 -3 236.06 7.55
-4 -6 -3 209.35 7.14
4 -6 3 218.33 7.08
-4 -6 -3 213.12 6.19
-4 -6 -4 1099.07 21.27
-4 -6 -4 1066.4 22.2
-4 -6 -4 1047.68 20.81
-4 -6 -5 38.04 2.45
-4 -6 -5 39.95 2.76
-4 -6 -5 37.26 2.76
-4 -6 -5 41.02 2.61
-4 -6 -5 38.15 2.46
-4 -6 -6 4.34 0.89
-4 -6 -6 2.32 0.75
-4 -6 -6 3.13 0.91
-4 -6 -6 5.62 0.99
-4 -6 -7 7.73 1.04
-4 -6 -7 7.04 1.03
4 -6 7 7.33 0.83
-4 -6 -7 7.77 1.1
4 -6 8 92.87 2.86
-4 -6 -8 90.18 3.06
-4 -6 -8 95.18 3.51
-4 -6 -9 8.53 0.86
-4 -6 -9 8.02 0.82
4 -5 -11 48.64 1.6
4 -5 -11 56.98 2.07
4 -5 -10 10.55 0.88
4 -5 -10 11.43 1.06
4 -5 -9 39.82 1.96
4 -5 -9 40.84 2.19
4 -5 -8 172.82 5
4 -5 -8 188.81 5.47
-4 -5 7 256.21 6.65
4 -5 -7 263.09 7.01
4 -5 -6 881.84 16.91
4 -5 -6 842.99 17.22
-4 -5 6 822.74 16.5
4 -5 -5 305.21 7.25
4 -5 -5 298.25 8.17
-4 -5 5 310.43 7.85
4 -5 -4 208.92 6.43
-4 -5 4 199.45 6.02
-4 -5 3 488.01 11.36
4 -5 -3 507.17 10.98
4 -5 -3 510.57 11.85
-4 -5 2 46.41 2.63
4 -5 -2 47.63 2.43
-4 -5 2 42.01 2.58
-4 -5 2 45.32 2.66
4 -5 -2 52.44 2.95
4 -5 -2 48.29 2.25
-4 -5 1 4.33 0.95
-4 -5 1 4.11 0.87
-4 -5 1 3.96 0.83
4 -5 -1 4.43 0.68
4 -5 -1 4.62 0.78
-4 -5 0 2.1 0.7
-4 -5 0 3.17 0.78
-4 -5 0 6.29 1.04
4 -5 0 3.31 0.57
4 -5 0 7.57 0.98
4 -5 1 68.7 3.1
-4 -5 -1 81.64 3.48
-4 -5 -1 70.29 3.67
-4 -5 -1 77.02 3.82
-4 -5 -1 74.83 3.61
-4 -5 -2 77.14 3.42
4 -5 2 71.18 3.21
-4 -5 -2 77.23 3.92
-4 -5 -2 70.36 3.75
-4 -5 -2 68.73 3.17
-4 -5 -2 64.56 3.41
4 -5 3 4.13 0.81
-4 -5 -3 5.28 0.93
-4 -5 -3 6.44 1.23
4 -5 3 6.17 1.15
-4 -5 -3 5.34 0.98
-4 -5 -4 369.54 9.31
-4 -5 -4 366.4 10.31
-4 -5 -4 377.98 10.21
4 -5 4 373.67 10.01
-4 -5 -4 363.98 9.54
-4 -5 -5 496.69 12.2
-4 -5 -5 516.37 12.64
-4 -5 -5 560.8 13.36
-4 -5 -5 503.81 11.81
4 -5 5 500.34 12.48
-4 -5 -5 556.35 12.49
-4 -5 -6 279.96 7.66
-4 -5 -6 280.19 8.09
-4 -5 -6 268.91 8.05
-4 -5 -7 26.7 1.97
-4 -5 -7 25.08 1.94
-4 -5 -7 21.57 2.05
-4 -5 -7 22.09 1.99
-4 -5 -8 0.33 0.43
-4 -5 -8 0.44 0.48
-4 -5 -8 0.1 0.3
-4 -5 -8 0.07 0.49
-4 -5 -9 1.66 0.45
-4 -5 -9 2.21 0.6
-4 -5 -9 1.31 0.53
-4 -5 -10 13.72 0.92
4 -4 -11 0.31 0.27
-4 -4 11 0.29 0.35
4 -4 -11 0.4 0.23
4 -4 -11 -0.03 0.11
4 -4 -11 0.25 0.28
4 -4 -11 0.03 0.1
-4 -4 10 44.74 2.25
4 -4 -10 52.61 2.35
4 -4 -10 47.16 2.06
-4 -4 10 47.17 2.35
4 -4 -10 51.21 2.21
-4 -4 10 42.01 2.2
4 -4 -10 49.11 2.3
4 -4 -9 64.87 2.71
-4 -4 9 65.82 2.86
-4 -4 9 58.35 2.84
-4 -4 9 61.2 2.94
-4 -4 9 59.48 2.85
4 -4 -9 70.14 2.93
-4 -4 8 22.41 1.76
4 -4 -8 26.05 1.81
-4 -4 8 19.68 1.7
-4 -4 8 21.05 1.65
4 -4 -8 22.11 1.58
4 -4 -8 24.75 1.87
-4 -4 8 20.34 1.73
-4 -4 7 4.29 0.85
4 -4 -7 4.4 0.84
-4 -4 7 4.67 0.88
4 -4 -7 4.73 0.79
-4 -4 7 4.01 0.84
-4 -4 7 4.15 0.79
4 -4 -7 3.63 0.78
-4 -4 7 4.36 0.87
-4 -4 6 3.63 0.77
-4 -4 6 3.88 0.76
4 -4 -6 3.33 0.77
-4 -4 6 2.94 0.72
-4 -4 6 4.99 0.88
-4 -4 6 5.22 0.88
-4 -4 5 12.42 1.29
4 -4 -5 12.97 1.39
-4 -4 5 12.89 1.32
-4 -4 5 13.17 1.32
-4 -4 5 10.43 1.15
-4 -4 5 11.49 1.18
-4 -4 4 15.13 1.39
-4 -4 4 13.68 1.27
4 -4 -4 16.18 1.53
-4 -4 4 14.04 1.34
-4 -4 4 14.78 1.35
-4 -4 3 78.79 3.23
4 -4 -3 82.22 3.01
-4 -4 3 75.78 3.34
-4 -4 3 81.06 3.6
4 -4 -3 84.18 3.6
-4 -4 3 81.18 3.17
-4 -4 3 79.77 3.13
-4 -4 2 107.17 3.86
4 -4 -2 103.49 3.47
-4 -4 2 109.97 4.18
-4 -4 2 99.48 4.14
-4 -4 2 102.57 3.53
-4 -4 2 106.15 3.59
-4 -4 1 23.13 1.73
4 -4 -1 24.88 1.56
-4 -4 1 21.23 1.81
-4 -4 1 23.54 1.93
4 -4 -1 27.1 2.04
-4 -4 1 26.99 1.64
-4 -4 0 0.74 0.41
-4 -4 0 1.89 0.66
-4 -4 0 0.45 0.39
4 -4 0 2.59 0.71
-4 -4 0 0.6 0.33
-4 -4 -1 60.69 2.98
-4 -4 -1 53.2 2.66
-4 -4 -1 51.78 3.01
-4 -4 -1 60.58 3.27
-4 -4 -1 65.19 2.87
4 -4 1 53.82 2.5
4 -4 1 61.27 3.13
-4 -4 -1 57.65 2.69
-4 -4 -1 59.95 2.54
-4 -4 -2 54.53 2.66
-4 -4 -2 51.68 2.85
-4 -4 -2 52.6 2.79
-4 -4 -2 57.35 3.19
-4 -4 -2 55.36 3.24
-4 -4 -2 54.9 2.7
4 -4 2 49.15 2.49
-4 -4 -2 53.16 2.61
-4 -4 -2 57.85 2.53
-4 -4 -3 772.02 14.55
-4 -4 -3 754.65 14.85
-4 -4 -3 738.89 15.35
-4 -4 -3 717.21 15.31
-4 -4 -3 652.33 15.53
-4 -4 -3 716.16 16.09
-4 -4 -3 767.95 14.91
4 -4 3 721.51 15.8
-4 -4 -3 710.72 14.65
-4 -4 -4 1156.33 23.54
-4 -4 -4 1246.42 23.76
-4 -4 -4 1232.86 22.35
-4 -4 -4 1237.67 24.07
-4 -4 -4 1229.29 22.29
-4 -4 -4 1278.91 24.38
-4 -4 -4 1293.24 23.15
4 -4 4 1139.92 23.89
-4 -4 -4 1163.67 22.91
-4 -4 -5 792.71 16.56
-4 -4 -5 784.35 15.71
-4 -4 -5 776.77 17.28
-4 -4 -5 835.88 17.51
-4 -4 -5 867.03 16.59
-4 -4 -5 768.71 16.96
-4 -4 -5 865.75 16.32
-4 -4 -5 810.63 16.48
-4 -4 -6 460.45 11.48
-4 -4 -6 456.82 11.02
-4 -4 -6 438.88 10.34
-4 -4 -6 446.06 11.01
-4 -4 -6 426.13 10.39
-4 -4 -7 2 0.78
-4 -4 -7 2.72 0.69
-4 -4 -7 4.29 1.05
-4 -4 -7 0.08 0.48
-4 -4 -7 0.27 0.39
-4 -4 -7 0.73 0.5
-4 -4 -8 114.55 3.95
-4 -4 -8 125.78 4.91
-4 -4 -8 117.72 4.52
-4 -4 -8 123.25 4.31
-4 -4 -8 123.78 4.25
-4 -4 -9 3.45 0.74
-4 -4 -9 0.04 0.16
-4 -4 -9 3.39 0.71
-4 -4 -9 0.05 0.17
-4 -4 -10 334.19 7.24
-4 -4 -10 362.15 8.18
-4 -3 12 5.41 0.72
-4 -3 12 5.96 0.73
-4 -3 12 5.66 0.72
4 -3 -12 7.17 0.74
4 -3 -12 7.23 0.82
4 -3 -12 5.92 0.73
-4 -3 11 41.69 2.28
-4 -3 11 43.63 2.36
4 -3 -11 43.17 1.82
4 -3 -11 47.38 2.22
-4 -3 11 48.31 2.13
-4 -3 11 42.67 2.33
4 -3 -11 45.08 2.27
4 -3 -10 63.44 2.64
-4 -3 10 70.92 3.29
-4 -3 10 68.98 3.29
4 -3 -10 69.95 2.99
-4 -3 10 70.43 3.31
-4 -3 10 66.28 2.85
4 -3 -10 68.35 3.04
4 -3 -9 403.89 9.44
-4 -3 9 428.46 10.3
-4 -3 9 406.41 9.4
-4 -3 9 408.79 10.2
4 -3 -9 408.29 9.06
-4 -3 9 404.14 10.09
-4 -3 8 328.61 8.98
4 -3 -8 319.35 8.17
4 -3 -8 358.93 8.18
-4 -3 8 341.73 9.05
-4 -3 8 332.07 9.03
-4 -3 8 357.52 8.43
4 -3 -8 366.56 8.54
-4 -3 8 347.88 8.85
4 -3 -8 325.98 8.3
-4 -3 8 300.07 8.76
-4 -3 8 311.35 8.79
-4 -3 7 465.56 11.15
-4 -3 7 469.09 11.17
-4 -3 7 476.61 10.47
-4 -3 7 451.83 10.81
4 -3 -7 488.69 10.6
-4 -3 7 418.28 10.91
-4 -3 7 436.83 10.98
4 -3 -7 486.51 10.31
-4 -3 7 486.67 11.2
-4 -3 6 31.43 2.22
-4 -3 6 33.76 2.04
-4 -3 6 35.45 2.34
4 -3 -6 33.99 2.11
-4 -3 6 30.22 2.17
-4 -3 6 33.4 2.33
-4 -3 6 31.96 2.21
-4 -3 5 36.07 2.36
-4 -3 5 38.02 2.35
-4 -3 5 38.77 2.39
-4 -3 5 38.17 2.14
4 -3 -5 39.15 2.04
4 -3 -5 41.22 2.33
-4 -3 5 38.2 2.38
-4 -3 5 38.24 2.37
-4 -3 4 15.03 1.45
-4 -3 4 15.24 1.43
-4 -3 4 18.41 1.62
-4 -3 4 13.57 1.34
4 -3 -4 15.8 1.41
-4 -3 4 18.08 1.54
-4 -3 4 16.71 1.52
-4 -3 3 36.11 2.09
-4 -3 3 35.54 1.93
-4 -3 3 36.48 1.91
-4 -3 3 38.17 2.13
-4 -3 3 37.51 2.35
4 -3 -3 38.49 2.21
-4 -3 3 40.24 2.21
-4 -3 3 42.82 2.35
-4 -3 2 687.6 13.36
-4 -3 2 661.27 13.6
-4 -3 2 695.27 13.49
-4 -3 2 669.71 13.58
-4 -3 2 722.47 14.72
4 -3 -2 700.32 12.8
4 -3 -2 721 14.31
-4 -3 2 719.15 13.9
-4 -3 2 745.59 14
-4 -3 1 261.35 6.48
-4 -3 1 255.55 6.57
-4 -3 1 260.27 6.5
-4 -3 1 296.74 7.65
-4 -3 1 265.73 7.24
4 -3 -1 270.05 5.99
4 -3 -1 301.13 7.42
-4 -3 1 267.99 6.64
-4 -3 1 289.8 6.83
-4 -3 0 10.3 0.97
-4 -3 0 7.97 0.98
-4 -3 0 9.04 0.96
-4 -3 0 11.02 1.28
-4 -3 0 9.63 1.24
4 -3 0 9.35 0.84
-4 -3 0 9.41 1
4 -3 0 10.58 1.2
-4 -3 0 11.11 1.07
-4 -3 0 10.61 1.14
-4 -3 -1 67.68 2.94
-4 -3 -1 67.75 2.69
-4 -3 -1 63.29 2.64
-4 -3 -1 67.12 3.01
-4 -3 -1 67.22 3.26
-4 -3 -1 68.47 3.4
-4 -3 -1 67.7 2.77
4 -3 1 63.14 2.46
4 -3 1 62.88 3.06
-4 -3 -1 68.8 2.98
-4 -3 -1 74.83 2.98
-4 -3 -2 214.34 5.76
-4 -3 -2 218.14 6.43
-4 -3 -2 194.83 5.84
-4 -3 -2 211.67 5.47
-4 -3 -2 192.13 5.76
-4 -3 -2 196.89 5.37
-4 -3 -2 200.8 6.03
-4 -3 -2 192.51 6.41
-4 -3 -2 205.87 5.49
4 -3 2 201.05 6.19
-4 -3 -2 187.39 5.7
-4 -3 -2 220 5.79
-4 -3 -3 600.38 14.28
-4 -3 -3 596 14.1
-4 -3 -3 680.32 13.66
-4 -3 -3 690.54 14.11
-4 -3 -3 660.5 14.03
-4 -3 -3 705.15 13.37
-4 -3 -3 707.64 14.17
-4 -3 -3 669.57 14.4
-4 -3 -3 675.3 13.3
-4 -3 -3 702.13 14.67
-4 -3 -3 668.97 13.28
4 -3 3 632.85 14.26
-4 -3 -3 679.78 13.95
-4 -3 -3 667.39 13.51
-4 -3 -4 12.73 1.54
-4 -3 -4 11.89 1.46
-4 -3 -4 8.58 1.12
-4 -3 -4 8.31 1.18
-4 -3 -4 16.65 1.6
-4 -3 -4 9.87 1.12
-4 -3 -4 7.08 1.09
-4 -3 -4 8.6 1.04
-4 -3 -4 8.73 1.29
-4 -3 -4 7.37 1.2
-4 -3 -4 7.37 1.26
-4 -3 -4 7.94 1
-4 -3 -4 7.22 1.13
4 -3 4 8.16 1.2
-4 -3 -4 17.24 1.6
-4 -3 -5 442.1 11.27
-4 -3 -5 406.71 10.98
-4 -3 -5 434.13 10.79
-4 -3 -5 432.21 10.03
-4 -3 -5 402.1 10.99
-4 -3 -5 465 10.16
-4 -3 -5 418.08 10.69
-4 -3 -5 447.74 11.57
-4 -3 -5 421.74 10.67
-4 -3 -5 448.27 10.08
4 -3 5 439.09 11.05
-4 -3 -5 451.15 10.77
-4 -3 -6 117.26 4.84
-4 -3 -6 110.65 4.24
-4 -3 -6 125.37 5.3
-4 -3 -6 118.54 4.68
-4 -3 -6 119.67 5.14
-4 -3 -6 120.66 5.16
-4 -3 -6 100.55 4.81
-4 -3 -6 122.81 4.61
-4 -3 -6 114.07 4.68
-4 -3 -6 119.51 4.81
-4 -3 -6 118.77 4.31
-4 -3 -7 2.01 0.73
-4 -3 -7 1.44 0.58
-4 -3 -7 1.88 0.62
-4 -3 -7 2.88 0.82
-4 -3 -7 2.14 0.82
-4 -3 -7 2.68 0.77
-4 -3 -8 25.19 2.26
-4 -3 -8 24.97 2.08
-4 -3 -8 23.77 1.73
-4 -3 -8 23.57 1.98
-4 -3 -8 24.42 2.19
-4 -3 -8 24.14 1.99
-4 -3 -9 54.78 3.12
-4 -3 -9 53.42 2.74
-4 -3 -9 58.07 2.92
-4 -3 -9 57.57 3.14
-4 -3 -9 53.18 2.8
-4 -3 -10 372.71 7.16
-4 -3 -10 367.86 6.93
-4 -2 13 104.85 3.13
-4 -2 13 116.27 3.22
-4 -2 13 116.89 3.27
4 -2 -13 131.36 3.26
4 -2 -13 129.06 3.45
4 -2 -13 104.64 3.15
-4 -2 12 32.78 1.92
-4 -2 12 30.97 1.89
4 -2 -12 31.54 1.76
-4 -2 12 30.42 1.89
-4 -2 12 31.85 1.56
4 -2 -12 33.76 1.9
-4 -2 11 206.87 6.3
-4 -2 11 213.32 6.44
4 -2 -11 220 6.02
-4 -2 11 220.01 6.5
-4 -2 11 218.5 5.68
4 -2 -11 224.1 6.17
4 -2 -10 178.65 5.5
-4 -2 10 166.64 5.89
-4 -2 10 177.51 5.27
-4 -2 10 173.73 6
-4 -2 10 168.53 5.89
-4 -2 9 336.15 9.07
4 -2 -9 322.76 8.18
4 -2 -9 290.36 7.08
-4 -2 9 332.58 9
-4 -2 9 296.78 7.77
-4 -2 9 315.9 8.91
4 -2 -9 317.09 8.15
-4 -2 9 323.14 8.3
-4 -2 9 294.07 8.57
-4 -2 8 2.84 0.8
4 -2 -8 0.05 0.35
-4 -2 8 2.82 0.82
-4 -2 8 -0.12 0.41
-4 -2 8 3.52 0.89
4 -2 -8 0.13 0.33
4 -2 -8 0.45 0.34
-4 -2 8 1.51 0.6
-4 -2 8 2.6 0.78
-4 -2 7 4.49 0.99
4 -2 -7 4.36 0.74
-4 -2 7 3.86 0.93
-4 -2 7 4.23 0.96
-4 -2 7 3.37 0.73
-4 -2 7 3.48 0.77
4 -2 -7 3.71 0.7
-4 -2 7 2.93 0.82
-4 -2 6 0.3 0.47
-4 -2 6 0.22 0.46
-4 -2 6 0.67 0.49
-4 -2 6 0.16 0.33
-4 -2 6 0.23 0.5
4 -2 -6 0.21 0.3
-4 -2 6 0.97 0.46
-4 -2 6 0.07 0.37
-4 -2 5 4.44 0.9
-4 -2 5 3.39 0.77
-4 -2 5 3.74 0.83
-4 -2 5 4.41 0.87
-4 -2 5 3.64 0.71
4 -2 -5 4.36 0.7
4 -2 -5 4.27 0.71
-4 -2 5 4.3 0.86
-4 -2 4 10.97 1.26
-4 -2 4 11.08 1.24
-4 -2 4 10.4 1.02
-4 -2 4 11.1 1.27
4 -2 -4 11.47 1.12
-4 -2 4 10.35 1.21
-4 -2 4 9.79 1.17
-4 -2 4 11.12 1.21
-4 -2 3 413.42 8.76
-4 -2 3 411.85 9.45
-4 -2 3 421.96 9.61
-4 -2 3 418.68 9.55
-4 -2 3 394.84 9.32
-4 -2 2 83.89 3.22
-4 -2 2 83.28 2.85
4 -2 -2 83.24 3.2
-4 -2 2 84.15 3.31
-4 -2 2 92.44 3.44
-4 -2 2 84.37 3.23
-4 -2 1 329.74 7.99
-4 -2 1 375.44 8.3
4 -2 -1 374.8 8.42
-4 -2 1 394.99 8.55
-4 -2 1 386.63 8.7
-4 -2 1 349.1 8.22
-4 -2 0 889.83 17.03
4 -2 0 888.23 15.85
-4 -2 0 951.23 17.25
4 -2 0 970.66 17.59
-4 -2 0 982.73 17.48
-4 -2 0 961.98 17.68
-4 -2 0 906.65 17.26
-4 -2 -1 1116.17 19.09
-4 -2 -1 997.9 18.83
-4 -2 -1 941.2 19.38
-4 -2 -1 1084.72 19.07
-4 -2 -1 1005.56 18.49
4 -2 1 1071.52 19.6
-4 -2 -1 1019.05 19.42
-4 -2 -1 1124.56 19.42
-4 -2 -2 747.13 14.91
-4 -2 -2 793.27 15
-4 -2 -2 668.73 13.66
-4 -2 -2 729.28 14.25
-4 -2 -2 636.52 13.91
-4 -2 -2 701.58 13.48
-4 -2 -2 651.92 13.47
-4 -2 -2 703.5 13.52
-4 -2 -2 663.1 14.15
-4 -2 -2 748.76 14.56
-4 -2 -2 691.82 14.63
-4 -2 -2 674.17 12.94
4 -2 2 642.8 13.88
-4 -2 -2 632.26 13.8
-4 -2 -2 694.03 13.79
-4 -2 -3 38.8 2.55
-4 -2 -3 38.82 2.53
-4 -2 -3 35.6 2.13
-4 -2 -3 32.82 2.18
-4 -2 -3 33.33 2.22
-4 -2 -3 34.74 1.99
-4 -2 -3 36.63 2.16
-4 -2 -3 30.68 2.21
-4 -2 -3 37.26 2.06
-4 -2 -3 33.2 2.24
-4 -2 -3 31.36 2.31
-4 -2 -3 30.74 1.73
-4 -2 -3 35.29 2.28
4 -2 3 34.63 2.23
-4 -2 -3 33.43 2.18
-4 -2 -3 36.56 2.15
-4 -2 -4 238.42 7.02
-4 -2 -4 227.26 6.86
-4 -2 -4 245.06 6.38
-4 -2 -4 219.28 7.06
-4 -2 -4 234.03 6.33
-4 -2 -4 236.82 7.21
-4 -2 -4 245.81 6.95
-4 -2 -4 223.35 5.83
-4 -2 -4 227.93 6.89
-4 -2 -4 225.7 7.23
-4 -2 -4 249.14 6.73
-4 -2 -4 218.83 7.07
-4 -2 -4 236.51 6.89
-4 -2 -4 247.14 6.67
-4 -2 -5 229.5 7.36
-4 -2 -5 274.08 7.09
-4 -2 -5 267.11 7.04
-4 -2 -5 246.11 7.19
-4 -2 -5 255.61 7.78
-4 -2 -5 266.83 7.71
-4 -2 -5 250.93 6.48
-4 -2 -5 258.44 8.03
-4 -2 -5 277.12 7.55
-4 -2 -5 254.2 7.93
-4 -2 -5 243.02 7.4
-4 -2 -6 2.06 0.74
-4 -2 -6 2.55 0.71
-4 -2 -6 1.99 0.89
-4 -2 -6 2.39 0.69
-4 -2 -6 2.36 0.77
-4 -2 -6 2.33 0.6
-4 -2 -6 1.31 0.68
-4 -2 -6 2.09 0.81
-4 -2 -6 1.93 0.73
-4 -2 -6 2.43 0.9
-4 -2 -6 2.31 0.75
-4 -2 -7 274.11 8.13
-4 -2 -7 272.36 8.41
-4 -2 -7 257.49 7.8
-4 -2 -7 259.61 6.92
-4 -2 -7 250.8 6.63
-4 -2 -7 242.09 7.81
-4 -2 -7 253.86 8.38
-4 -2 -7 272.81 7.66
-4 -2 -7 230.81 8.03
-4 -2 -7 288.92 8.39
-4 -2 -8 219.99 7.35
-4 -2 -8 212.78 6.65
-4 -2 -8 209.12 7.02
-4 -2 -8 208.91 7.4
-4 -2 -8 233.07 7.2
-4 -2 -9 10.35 1.42
-4 -2 -9 6.91 0.98
-4 -2 -9 8.48 1.39
-4 -2 -9 8.41 1.21
-4 -2 -9 10.65 1.38
-4 -2 -10 82.13 3.56
-4 -2 -10 83.2 3.5
-4 -2 -10 79.98 3.68
-4 -2 -10 79.85 3.41
-4 -2 -11 4.54 0.78
-4 -2 -11 3.91 0.65
-4 -1 13 19.75 1.31
-4 -1 13 17.43 0.91
-4 -1 13 17.64 1.25
-4 -1 13 18.84 1.3
4 -1 -13 20.5 1.24
4 -1 -13 18.66 1.27
4 -1 -13 17.41 1.21
-4 -1 12 0.6 0.4
-4 -1 12 0.06 0.45
4 -1 -12 0.1 0.34
-4 -1 12 0.67 0.43
-4 -1 12 0.3 0.28
4 -1 -12 1.58 0.5
-4 -1 11 107.71 4.46
-4 -1 11 111.31 4.54
4 -1 -11 111 4.09
-4 -1 11 115.42 4.61
-4 -1 11 108.53 3.77
4 -1 -11 107.73 4.17
4 -1 -10 200.85 6.11
-4 -1 10 189.67 6.53
-4 -1 10 186.91 6.57
-4 -1 10 185.06 5.63
-4 -1 10 202.69 6.74
-4 -1 9 252.86 6.72
-4 -1 9 229.72 7.6
-4 -1 9 233.84 7.59
-4 -1 9 229.35 7.47
4 -1 -9 222.01 6.64
4 -1 -9 255.76 7.06
-4 -1 9 229.45 6.64
-4 -1 9 220.87 7.38
-4 -1 8 31.19 2.04
-4 -1 8 30.94 2.44
-4 -1 8 34.65 2.57
-4 -1 8 29.27 2.39
-4 -1 8 30.78 2.02
-4 -1 8 29.88 2.39
-4 -1 7 32.37 2.41
-4 -1 7 32.38 2.01
-4 -1 7 29.18 2.29
4 -1 -7 25.88 1.59
-4 -1 7 32.76 2.41
-4 -1 7 31.76 1.99
4 -1 -7 29.67 1.58
4 -1 -7 28.64 1.72
-4 -1 7 30.28 2.31
-4 -1 6 226.81 6.72
-4 -1 6 219.46 6.65
-4 -1 6 221.48 6.68
-4 -1 6 215.39 5.81
4 -1 -6 204.87 5.32
4 -1 -6 205.5 5.37
-4 -1 6 197.59 6.31
-4 -1 5 667.33 12.79
-4 -1 5 611.96 13.6
-4 -1 5 639.86 13.76
-4 -1 5 707.2 12.97
4 -1 -5 595.99 12.43
4 -1 -5 665.01 12.45
-4 -1 5 613.59 13.64
-4 -1 5 614.32 13.55
-4 -1 5 650.31 13.69
-4 -1 4 1104.77 20.88
-4 -1 4 1222 22.19
4 -1 -4 1208.4 21.56
4 -1 -4 1257.35 20.91
-4 -1 4 1221.95 22.21
-4 -1 4 1127.53 21.99
-4 -1 4 1188.15 22.04
-4 -1 3 236.88 5.7
-4 -1 3 257.16 6.56
4 -1 -3 242.06 5.77
-4 -1 3 237.27 6.48
-4 -1 3 255.64 6.63
-4 -1 3 234.84 6.35
-4 -1 2 49.59 2.4
4 -1 -2 47.83 2.14
-4 -1 2 46.15 2.39
-4 -1 2 49.24 2.49
-4 -1 2 50.08 2.39
4 -1 -1 15.19 1.17
-4 -1 1 12.28 1.18
-4 -1 1 14.87 1.29
-4 -1 0 108.64 3.57
4 -1 0 104.21 3.44
-4 -1 0 109.83 3.7
-4 -1 0 100.24 3.72
-4 -1 0 102.26 3.61
-4 -1 0 109.1 3.61
-4 -1 -1 20.51 1.44
-4 -1 -1 19 1.58
-4 -1 -1 17.96 1.36
4 -1 1 22.45 1.5
-4 -1 -1 22.63 1.59
-4 -1 -1 18.68 1.53
-4 -1 -2 49.86 2.85
-4 -1 -2 56.99 2.84
-4 -1 -2 57.88 2.52
-4 -1 -2 51.81 2.34
-4 -1 -2 56.87 2.51
-4 -1 -2 59.73 2.96
-4 -1 -2 53.59 2.73
4 -1 2 51.33 2.49
-4 -1 -2 56.83 2.8
-4 -1 -2 54.17 2.6
-4 -1 -3 204.4 6.14
-4 -1 -3 196.98 6.01
-4 -1 -3 216.48 5.66
-4 -1 -3 193.24 6.18
-4 -1 -3 207.49 5.6
-4 -1 -3 183.68 5.95
-4 -1 -3 205.44 6.08
-4 -1 -3 193.55 5.69
-4 -1 -3 187.91 6.29
-4 -1 -3 193.52 6.35
-4 -1 -3 203.68 5.8
-4 -1 -3 214.75 6.05
-4 -1 -3 209.73 6.25
-4 -1 -4 1.84 0.62
-4 -1 -4 0.45 0.46
-4 -1 -4 2.58 0.61
-4 -1 -4 0.58 0.4
-4 -1 -4 0.66 0.43
-4 -1 -4 0.34 0.38
-4 -1 -4 0.82 0.49
-4 -1 -4 1 0.33
-4 -1 -4 0.17 0.5
-4 -1 -4 0.25 0.34
-4 -1 -4 0.17 0.47
-4 -1 -4 -0.19 0.33
-4 -1 -4 -0.07 0.37
-4 -1 -5 552.27 13.42
-4 -1 -5 633.19 12.94
-4 -1 -5 609.49 12.81
-4 -1 -5 650.84 14.22
-4 -1 -5 578.67 12.77
-4 -1 -5 601.73 11.75
-4 -1 -5 599.84 13.45
-4 -1 -5 561.9 13.51
-4 -1 -5 620.42 14.39
-4 -1 -5 574.51 13.97
-4 -1 -5 687.83 13.58
-4 -1 -5 559.78 13.34
-4 -1 -6 28.77 2.37
-4 -1 -6 30.08 2.13
-4 -1 -6 30.29 2.5
-4 -1 -6 29.5 2.08
-4 -1 -6 30.64 1.76
-4 -1 -6 25.91 2.12
-4 -1 -6 29.13 1.99
-4 -1 -6 29.46 2.37
-4 -1 -6 28.3 2.51
-4 -1 -6 36.17 2.57
-4 -1 -6 28.11 2.46
-4 -1 -6 30.61 2.39
-4 -1 -7 803.25 17.35
-4 -1 -7 762.81 16.1
-4 -1 -7 800.87 17.34
-4 -1 -7 776.49 16.16
-4 -1 -7 773.35 14.96
-4 -1 -7 782.85 17.1
-4 -1 -7 718.74 17.37
-4 -1 -7 835.11 16.71
-4 -1 -7 695.51 17.07
-4 -1 -7 815.26 17.28
-4 -1 -8 78.53 4.09
-4 -1 -8 82.78 3.5
-4 -1 -8 78.98 3.15
-4 -1 -8 79.91 4.09
-4 -1 -8 77.45 4.35
-4 -1 -8 79.85 4.08
-4 -1 -9 7.66 1.25
-4 -1 -9 7.3 0.89
-4 -1 -9 6.23 1.3
-4 -1 -9 7.33 1.19
-4 -1 -9 6.57 1.17
-4 -1 -10 12.68 1.4
-4 -1 -10 12.56 1.42
-4 -1 -10 12.78 1.4
-4 -1 -10 10.23 1.4
-4 -1 -11 190.7 5.26
-4 -1 -11 182.8 5.49
-4 -1 -11 186.95 5.23
-4 0 13 0.4 0.35
-4 0 13 0.22 0.21
-4 0 13 -0.09 0.29
-4 0 13 -0.04 0.35
4 0 -13 0.04 0.27
4 0 -13 -0.04 0.32
4 0 -13 0.23 0.28
-4 0 12 502.68 11.44
-4 0 12 531.9 11.63
4 0 -12 519.76 10.86
-4 0 12 528.35 11.58
-4 0 12 517.34 10.35
4 0 -12 518.11 11.08
-4 0 11 4.07 0.95
-4 0 11 2.45 0.84
4 0 -11 0.3 0.44
-4 0 11 0.05 0.35
-4 0 11 4.91 1.06
4 0 -11 1.46 0.5
4 0 -10 123.6 4.55
-4 0 10 111.63 4.97
-4 0 10 121.14 4.29
-4 0 10 112.1 4.91
-4 0 10 115.69 4.98
4 0 -9 0.07 0.4
-4 0 9 -0.19 0.55
-4 0 9 0.09 0.57
-4 0 9 0.06 0.41
-4 0 9 -0.09 0.54
4 0 -9 0.14 0.44
-4 0 9 0.3 0.34
-4 0 9 0.09 0.46
-4 0 8 142.25 5.55
-4 0 8 139.16 5.55
-4 0 8 158.94 5.01
-4 0 8 149.32 4.73
-4 0 8 132.67 5.41
-4 0 8 146.85 5.68
-4 0 7 -0.34 0.47
-4 0 7 0.59 0.5
4 0 -7 -0.04 0.22
-4 0 7 0.17 0.33
-4 0 7 0.75 0.43
-4 0 6 56.74 3.09
-4 0 6 55.9 3.06
-4 0 6 60.87 3.2
-4 0 6 56.68 2.63
-4 0 6 61.68 2.55
4 0 -6 57.77 2.44
4 0 -6 57.84 2.24
-4 0 6 52.44 2.95
-4 0 5 0.07 0.43
-4 0 5 0.09 0.27
-4 0 5 0.14 0.43
-4 0 5 -0.07 0.4
4 0 -5 1.34 0.49
4 0 -5 0.13 0.19
-4 0 5 0.69 0.34
-4 0 5 -0.07 0.39
-4 0 5 -0.14 0.38
-4 0 4 186.48 5.54
-4 0 4 180.98 4.78
-4 0 4 177.63 5.39
-4 0 4 180.19 4.56
4 0 -4 168.64 4.9
4 0 -4 171.75 4.31
-4 0 4 180.79 5.5
-4 0 4 183.73 5.59
-4 0 3 0.06 0.33
-4 0 3 0.44 0.37
4 0 -3 0.06 0.19
4 0 -3 0.05 0.33
-4 0 3 0.23 0.35
-4 0 3 0.57 0.49
-4 0 2 539.09 11.31
-4 0 2 552.13 11.35
4 0 -2 550.81 10.41
-4 0 2 564.11 11.59
-4 0 2 543.58 11.46
-4 0 1 0.3 0.31
-4 0 1 0.35 0.32
4 0 0 858.95 15.47
-4 0 0 864.86 16.24
-4 0 0 852.73 16.17
-4 0 -1 0.45 0.31
-4 0 -1 0.19 0.29
4 0 1 -0.12 0.26
-4 0 -1 -0.2 0.35
-4 0 -1 0.06 0.32
-4 0 -2 3223.8 54.88
-4 0 -2 3334.99 54.07
-4 0 -2 3209.27 53.8
-4 0 -2 3244.42 54.97
-4 0 -2 3248.91 55.53
-4 0 -2 3413.49 54.83
-4 0 -2 3347.04 54.48
-4 0 -3 -0.07 0.33
-4 0 -3 0.14 0.42
-4 0 -3 -0.1 0.29
-4 0 -3 0.29 0.45
-4 0 -3 -0.1 0.32
-4 0 -3 0.21 0.41
-4 0 -3 0.62 0.55
-4 0 -3 0.57 0.38
-4 0 -3 -0.08 0.39
-4 0 -3 0.27 0.37
-4 0 -3 0.29 0.34
-4 0 -4 33.17 2.34
-4 0 -4 38.64 2.47
-4 0 -4 38.39 2.15
-4 0 -4 38.78 2.2
-4 0 -4 33.22 1.85
-4 0 -4 34.26 2.12
-4 0 -4 36.32 2.27
-4 0 -4 35.01 2.41
4 0 4 38.81 1.92
-4 0 -4 40.16 2.33
-4 0 -4 34.77 2.38
-4 0 -4 37.54 2.7
-4 0 -4 36.09 2.56
-4 0 -4 40.89 2.37
-4 0 -5 0.28 0.5
-4 0 -5 0.1 0.32
-4 0 -5 -0.14 0.39
-4 0 -5 0.68 0.65
-4 0 -5 0.16 0.48
-4 0 -5 0.59 0.45
-4 0 -5 0.06 0.39
-4 0 -5 -0.09 0.49
-4 0 -5 0.99 0.47
-4 0 -5 0.39 0.35
-4 0 -5 -0.06 0.34
-4 0 -5 0.58 0.52
4 0 5 -0.05 0.24
-4 0 -5 0.57 0.51
-4 0 -6 8.23 1.3
-4 0 -6 9.24 1.18
-4 0 -6 7.19 1.28
-4 0 -6 8.08 1.11
-4 0 -6 8.81 1.01
-4 0 -6 10.08 1.45
-4 0 -6 9.47 1.51
-4 0 -6 11.74 1.5
-4 0 -6 9.89 1.49
-4 0 -6 9.36 1.37
-4 0 -7 0.59 0.56
-4 0 -7 0.07 0.37
-4 0 -7 0.09 0.56
-4 0 -7 0.67 0.55
-4 0 -7 0.06 0.34
-4 0 -7 0.21 0.52
-4 0 -7 0.91 0.55
-4 0 -7 0.66 0.66
-4 0 -7 0.28 0.52
-4 0 -8 185.08 6.52
-4 0 -8 190.28 5.5
-4 0 -8 182.95 7.04
-4 0 -8 185.04 6.57
-4 0 -8 173.56 6.46
-4 0 -9 0.96 0.65
-4 0 -9 0.22 0.36
-4 0 -9 4.07 1.09
-4 0 -9 3.79 0.94
-4 0 -9 4.35 1.06
-4 0 -10 119.69 3.84
-4 0 -10 127.6 4.77
-4 0 -10 131.74 4.77
-4 0 -10 130.19 5.11
-4 0 -11 0.53 0.43
-4 0 -11 0.99 0.51
-4 0 -11 1.08 0.46
-4 0 -12 71.53 2.43
-4 1 13 20.62 1.39
-4 1 13 19.12 1.05
-4 1 13 19.35 1.34
-4 1 13 19.86 1.38
4 1 -13 20.29 1.23
4 1 -13 19.97 1.29
4 1 -13 18.87 1.21
-4 1 12 0.44 0.5
-4 1 12 0.13 0.45
4 1 -12 0.19 0.34
4 1 -12 0.87 0.43
-4 1 12 0.5 0.36
-4 1 12 0.39 0.43
-4 1 11 106.2 4.49
-4 1 11 103.32 4.45
4 1 -11 111.37 4.02
4 1 -11 113.31 4.17
-4 1 11 100.06 4.4
-4 1 11 110.85 3.87
4 1 -10 199.93 6.05
-4 1 10 197.99 6.72
-4 1 10 191.9 6.67
-4 1 10 185.62 5.67
-4 1 10 188.27 6.57
-4 1 9 221.96 7.38
-4 1 9 204.49 7.14
4 1 -9 253.64 6.82
4 1 -9 237.07 6.82
-4 1 9 217.04 7.34
-4 1 9 241.05 6.63
-4 1 9 198.09 7.05
-4 1 8 36.25 2.64
-4 1 8 34.21 2.57
-4 1 8 29.47 2.38
4 1 -8 28.65 1.68
-4 1 8 27.38 1.76
-4 1 8 29.79 2.38
-4 1 7 30.52 2.37
-4 1 7 32.63 2.04
-4 1 7 34.47 2.48
-4 1 7 35 2.49
-4 1 7 27.92 1.7
4 1 -7 31.13 1.77
-4 1 7 32 2.38
-4 1 6 220.82 6.73
-4 1 6 226.42 5.99
-4 1 6 230.21 6.82
-4 1 6 228.64 6.8
-4 1 6 203.75 5.26
4 1 -6 212.83 5.6
-4 1 6 220.71 6.63
-4 1 5 661.99 13.84
-4 1 5 673.68 12.87
-4 1 5 633.24 13.69
-4 1 5 659.14 12.07
4 1 -5 603.11 12.6
-4 1 5 687.2 14.01
-4 1 5 622.16 13.58
-4 1 5 631.99 13.63
-4 1 4 1167.94 22.16
-4 1 4 1162.64 21.09
4 1 -4 1135.04 21.37
-4 1 4 1241.83 22.38
-4 1 4 1289.11 22.52
-4 1 4 1257.61 22.33
-4 1 3 240.92 6.49
-4 1 3 258.62 6.7
-4 1 3 255.73 6.72
-4 1 3 256.64 6.58
-4 1 2 50.79 2.41
4 1 -2 49.89 2.41
-4 1 2 46.99 2.38
-4 1 2 55.43 2.61
-4 1 2 45.27 2.28
4 1 -1 12.99 1.21
-4 1 1 10.71 1.11
-4 1 0 107.22 3.52
4 1 0 99.55 2.84
-4 1 0 107.09 3.61
-4 1 0 113.98 3.98
-4 1 0 97 3.55
-4 1 0 98.48 3.44
-4 1 -1 19.95 1.4
-4 1 -1 20.06 1.42
4 1 1 18.47 1.14
-4 1 -1 21.52 1.53
-4 1 -1 22.32 1.71
-4 1 -2 50.74 2.71
-4 1 -2 50.92 2.35
-4 1 -2 51.91 2.38
-4 1 -2 49.4 2.68
-4 1 -2 55.55 2.98
-4 1 -2 51.65 2.71
-4 1 -2 51.6 2.53
-4 1 -3 177.9 5.82
-4 1 -3 209.12 6
-4 1 -3 203.55 5.41
-4 1 -3 183.38 5.25
-4 1 -3 190.73 5.22
-4 1 -3 189.39 6
-4 1 -3 186.53 6.28
-4 1 -3 195.39 5.58
-4 1 -3 197.41 6.4
-4 1 -3 178.65 5.75
-4 1 -3 187.99 5.56
-4 1 -4 0.08 0.39
-4 1 -4 0.14 0.39
-4 1 -4 0.82 0.46
-4 1 -4 0.63 0.55
-4 1 -4 0.54 0.28
-4 1 -4 0.05 0.31
-4 1 -4 0.56 0.41
-4 1 -4 0.39 0.44
-4 1 -4 0.2 0.29
-4 1 -4 -0.09 0.44
-4 1 -4 0.06 0.38
-4 1 -4 0.18 0.52
-4 1 -4 0.24 0.41
-4 1 -4 0.08 0.36
-4 1 -5 575.96 13.7
-4 1 -5 634.64 13.01
-4 1 -5 651.31 13.1
-4 1 -5 630.1 14.16
-4 1 -5 608.93 11.81
-4 1 -5 640.36 12.62
-4 1 -5 568.53 13.71
4 1 5 641.6 12.8
-4 1 -5 577.31 14.35
-4 1 -5 538.42 13.91
-4 1 -5 698.56 13.69
-4 1 -5 575.57 13.6
-4 1 -6 23.68 2.18
-4 1 -6 28.99 2.06
-4 1 -6 30.88 2.44
-4 1 -6 28.7 2.04
-4 1 -6 27.82 1.83
-4 1 -6 29.68 1.64
-4 1 -6 27.79 2.32
4 1 6 28.05 1.93
-4 1 -6 24.32 2.36
-4 1 -6 30.87 2.37
-4 1 -6 25.12 2.31
-4 1 -6 25.56 2.21
-4 1 -7 717.18 16.78
-4 1 -7 812.28 16.15
-4 1 -7 727.78 16.73
-4 1 -7 794.76 15.38
-4 1 -7 763.8 17.66
-4 1 -7 893.72 16.83
-4 1 -7 688.06 16.97
-4 1 -7 727.23 16.75
4 1 7 787.86 15.63
-4 1 -7 775.36 17.07
-4 1 -8 90.14 3.57
-4 1 -8 82.09 4.43
-4 1 -8 75.64 3.97
-4 1 -8 82.58 4.16
-4 1 -9 6.44 0.96
-4 1 -9 7.46 1.34
-4 1 -9 6.17 1.11
-4 1 -9 6.06 1.15
-4 1 -10 12.14 1.19
-4 1 -10 10.06 1.37
-4 1 -10 9.49 1.23
-4 1 -10 13.18 1.43
-4 1 -11 175.48 4.47
-4 1 -11 193.46 5.25
-4 1 -11 192.09 5.53
-4 1 -11 182.22 5.12
-4 2 13 127.22 3.14
-4 2 13 133.06 3.61
-4 2 13 122.08 3.46
-4 2 13 131.79 3.61
4 2 -13 131.76 3.31
4 2 -13 130.64 3.42
-4 2 12 31.52 1.96
-4 2 12 29.59 1.94
4 2 -12 33.95 1.79
4 2 -12 30.13 1.78
-4 2 12 32.32 1.71
-4 2 12 30.39 1.97
-4 2 11 222.95 6.6
-4 2 11 211.16 6.54
4 2 -11 210.19 5.88
4 2 -11 216.07 6
-4 2 11 220.29 6.65
-4 2 11 210.84 5.81
4 2 -10 178.14 5.47
-4 2 10 178.44 6.2
-4 2 10 169.74 5.37
-4 2 10 174.68 6.14
-4 2 10 183.58 6.21
-4 2 9 324.43 8.96
-4 2 9 310.82 8.86
-4 2 9 291.32 7.78
4 2 -9 291.86 7.92
-4 2 9 276.81 8.41
-4 2 9 307.19 8.81
4 2 -9 330.09 8.05
-4 2 8 8.47 1.24
-4 2 8 3.32 0.89
-4 2 8 6.19 1.13
4 2 -8 0.57 0.42
4 2 -8 0.05 0.28
-4 2 8 2.06 0.76
-4 2 7 7.7 1.23
-4 2 7 3.76 0.76
-4 2 7 5.28 1
-4 2 7 7.35 1.17
4 2 -7 5.31 0.79
-4 2 7 5.59 1.01
-4 2 6 -0.08 0.43
-4 2 6 0.68 0.41
-4 2 6 0.22 0.45
-4 2 6 0.68 0.54
-4 2 6 0.3 0.4
4 2 -6 0.4 0.33
-4 2 6 -0.22 0.42
-4 2 5 6.63 0.85
-4 2 5 3.99 0.82
-4 2 5 3.98 0.84
-4 2 5 3.78 0.78
4 2 -5 4.34 0.71
-4 2 5 4.32 0.83
-4 2 5 5.21 0.91
-4 2 4 10.46 1.2
-4 2 4 10.66 1.02
-4 2 4 10.57 1.21
-4 2 4 9.43 1.05
-4 2 4 11.13 1.21
-4 2 4 9.42 1.12
-4 2 4 10.79 1.2
-4 2 3 434.92 9.88
4 2 -3 441.35 9.62
-4 2 3 457.69 10.06
-4 2 3 447.34 9.59
-4 2 3 462.91 10.09
-4 2 3 474.46 10
-4 2 2 83.84 3.17
4 2 -2 84 3.13
-4 2 2 87.38 3.31
-4 2 2 77.34 3.17
-4 2 2 78.77 3.08
-4 2 1 358.88 7.95
4 2 -1 368.25 8.1
-4 2 1 340.72 8.02
-4 2 1 340.97 8.39
-4 2 1 372.79 8.15
-4 2 1 326.42 7.78
-4 2 0 981.31 17.57
4 2 0 1067.08 17.94
-4 2 0 885.18 17.53
-4 2 0 919.63 18.16
-4 2 0 1001.26 17.84
-4 2 0 899.88 17.41
-4 2 -1 1053.23 20.11
-4 2 -1 1024.74 19.39
-4 2 -2 670.74 14.44
-4 2 -2 654.32 14.25
-4 2 -2 663.68 13.15
-4 2 -2 604.87 13.57
-4 2 -2 691.99 13.6
-4 2 -2 648.66 12.79
-4 2 -2 632.17 12.76
-4 2 -2 709.45 13.16
-4 2 -2 618.66 12.54
4 2 2 690.81 13.04
-4 2 -2 607.01 13.51
-4 2 -2 676.93 13.23
-4 2 -3 30.09 2.37
-4 2 -3 30.84 2.34
-4 2 -3 38.54 2.18
-4 2 -3 29.88 2.15
-4 2 -3 36.07 2.23
-4 2 -3 34.67 1.95
-4 2 -3 35.18 1.97
-4 2 -3 37.11 2.08
-4 2 -3 33.25 1.95
-4 2 -3 36.45 1.87
-4 2 -3 31.41 2.25
4 2 3 37.57 1.95
4 2 3 34.27 1.62
-4 2 -3 32.03 2.21
-4 2 -3 33.91 2.04
-4 2 -4 228.45 7.05
-4 2 -4 230.24 6.78
-4 2 -4 238.41 6.29
-4 2 -4 260.01 6.48
-4 2 -4 235.83 6.26
-4 2 -4 239.26 5.92
-4 2 -4 225.03 7.03
-4 2 -4 211.18 7.24
-4 2 -4 212.02 7.16
-4 2 -4 264.16 6.81
-4 2 -4 232.99 6.99
-4 2 -4 256.22 6.7
-4 2 -5 235.34 7.5
-4 2 -5 254 6.83
-4 2 -5 276.71 7.04
-4 2 -5 285.74 6.99
-4 2 -5 264.49 6.34
-4 2 -5 245.45 7.64
-4 2 -5 241.15 7.49
-4 2 -5 221.96 7.79
-4 2 -5 225.01 7.7
-4 2 -5 305.85 7.67
-4 2 -6 3.79 0.73
-4 2 -6 2.74 0.89
-4 2 -6 2.89 0.78
-4 2 -6 2.4 0.88
-4 2 -6 1.79 0.65
-4 2 -6 2.3 0.54
-4 2 -6 2.45 0.77
-4 2 -6 2.09 0.82
4 2 6 1.89 0.61
-4 2 -6 2.29 0.78
-4 2 -7 268.24 8.11
-4 2 -7 246.4 7.97
4 2 7 269.24 7.36
-4 2 -7 287.21 7.26
-4 2 -7 275.36 6.62
-4 2 -7 260.02 8.54
-4 2 -7 286.58 7.8
-4 2 -7 240.44 8.22
-4 2 -7 262.26 8.16
-4 2 -8 226.6 6.32
-4 2 -8 221.78 5.77
-4 2 -8 207.24 7.34
-4 2 -8 226.25 7.14
-4 2 -8 217.43 7.15
-4 2 -9 11.01 1.19
-4 2 -9 8.69 1.4
-4 2 -9 7.63 1.14
-4 2 -9 10.16 1.35
-4 2 -10 85.46 3.21
-4 2 -10 83.66 3.74
-4 2 -10 82.05 3.43
-4 2 -10 87.08 3.56
-4 2 -11 3.74 0.58
-4 2 -11 2.52 0.61
-4 2 -11 3.49 0.6
-4 3 12 7.29 0.85
-4 3 12 7.9 0.82
-4 3 12 8.28 0.89
-4 3 12 6.14 0.8
4 3 -12 6.99 0.72
4 3 -12 6.44 0.76
4 3 -12 6.1 0.72
-4 3 11 45.99 2.36
-4 3 11 47 2.43
4 3 -11 45.64 2.05
-4 3 11 45.83 2.39
-4 3 11 45.31 2.18
4 3 -11 49.63 2.21
-4 3 10 70.25 3.4
-4 3 10 68.31 3.41
4 3 -10 72.57 3
-4 3 10 67.18 3.36
-4 3 10 65.1 3.03
4 3 -10 64.05 2.94
4 3 -9 408.42 9.49
-4 3 9 441.63 10.65
-4 3 9 416.83 10.47
-4 3 9 402.44 10.28
-4 3 8 332.97 9.11
4 3 -8 336.7 8.26
-4 3 8 376.78 9.38
-4 3 8 357.26 9.31
-4 3 8 333.04 8.56
4 3 -8 320.16 8.25
4 3 -8 340.59 8.03
-4 3 8 347.63 9.26
-4 3 8 341.68 9.15
-4 3 7 491.25 11.46
-4 3 7 489.39 10.89
-4 3 7 463.87 11.3
-4 3 7 499.72 11.44
-4 3 7 491.46 11.51
-4 3 7 485.11 11.45
-4 3 6 35.46 2.33
-4 3 6 34.79 2.13
-4 3 6 33.8 2.31
-4 3 6 31.13 2.18
4 3 -6 32.71 1.97
-4 3 6 32.02 2.24
-4 3 6 34.85 2.32
-4 3 5 39.46 2.37
-4 3 5 38.3 2.14
-4 3 5 40.59 2.43
-4 3 5 40.26 2.37
4 3 -5 35.83 2.06
-4 3 5 42.15 2.43
-4 3 5 37.6 2.33
-4 3 5 40.09 2.4
-4 3 4 19.28 1.56
-4 3 4 17.64 1.35
-4 3 4 16.6 1.48
4 3 -4 16.71 1.34
-4 3 4 15.71 1.41
-4 3 4 18.06 1.53
-4 3 4 18.57 1.56
-4 3 4 16.11 1.44
-4 3 3 39.99 2.15
4 3 -3 39.53 2.1
-4 3 3 36.63 2.14
-4 3 3 42.19 2.25
-4 3 3 41.4 2.24
-4 3 3 37.22 2.11
-4 3 3 38.29 1.87
-4 3 2 688.17 13.47
-4 3 2 671.72 13.45
4 3 -2 655.66 13.37
-4 3 2 737.54 13.84
-4 3 2 686.1 13.8
-4 3 2 710.83 13.69
-4 3 1 273.34 6.54
-4 3 1 270.56 6.54
-4 3 1 262.28 6.55
4 3 -1 266.87 6.56
-4 3 1 288.65 6.74
-4 3 1 271.88 6.64
-4 3 1 267.85 6.83
-4 3 0 10.5 0.99
4 3 0 9.31 0.97
-4 3 0 9.28 0.98
-4 3 0 9.71 1.13
-4 3 0 10.45 1.09
-4 3 0 10.01 1.2
-4 3 0 9.75 0.98
-4 3 -1 64.9 2.83
-4 3 -1 63.07 2.58
-4 3 -1 66.71 3.06
-4 3 -1 63.45 2.6
4 3 1 64.24 2.58
-4 3 -1 66.47 3.04
-4 3 -1 63.95 2.81
-4 3 -1 73.43 2.9
-4 3 -2 200.69 5.51
-4 3 -2 202.98 6.47
-4 3 -2 195.12 5.27
-4 3 -2 193.18 5.25
-4 3 -2 213.14 5.97
-4 3 -2 213.34 5.88
-4 3 -2 186.96 5.49
-4 3 -2 182.53 5.2
4 3 2 203.59 5.14
-4 3 -2 205.55 6.01
-4 3 -2 193.16 5.49
-4 3 -2 203.37 5.54
-4 3 -3 660.86 14.79
-4 3 -3 622.53 14.42
-4 3 -3 713.76 13.64
-4 3 -3 615.24 13.93
-4 3 -3 659.88 13.85
-4 3 -3 708.6 13.27
-4 3 -3 649.01 13.46
-4 3 -3 693.39 13.22
-4 3 -3 700.98 13.68
-4 3 -3 626.5 12.92
4 3 3 676.37 12.74
-4 3 -3 607.04 13.88
-4 3 -3 639.62 13.24
-4 3 -3 701.24 13.54
-4 3 -4 8.36 1.15
-4 3 -4 8.79 1.24
-4 3 -4 7.68 0.96
-4 3 -4 8.89 1.04
-4 3 -4 7.99 1.02
-4 3 -4 6.65 0.88
-4 3 -4 8.6 1.35
-4 3 -4 9.14 1.37
-4 3 -4 7.04 1.02
-4 3 -4 7.18 1.11
-4 3 -4 8.09 0.99
-4 3 -5 424.02 10.81
-4 3 -5 447.8 10.04
-4 3 -5 447.66 9.98
-4 3 -5 457.84 11.11
-4 3 -5 416.51 10.72
-4 3 -5 405.86 9.57
-4 3 -5 444.41 11.48
-4 3 -5 425.18 11.27
-4 3 -5 439.17 9.56
-4 3 -6 118.85 4.89
-4 3 -6 117.54 4.28
-4 3 -6 112.63 4.75
4 3 6 120.98 4.6
-4 3 -6 120.9 3.97
-4 3 -6 104.43 4.91
-4 3 -6 102.13 4.87
-4 3 -6 123.24 4.55
-4 3 -6 120.9 4.82
-4 3 -7 2.32 0.79
-4 3 -7 2.64 0.61
-4 3 -7 1.96 0.82
-4 3 -7 2.37 0.75
-4 3 -8 25.13 2.06
-4 3 -8 24.79 1.66
-4 3 -8 23.34 2.14
-4 3 -8 24 1.97
-4 3 -9 56.67 2.91
-4 3 -9 56.28 3.09
-4 3 -9 58.54 2.87
-4 3 -9 54.24 2.35
-4 3 -10 384.57 9.01
-4 3 -10 391.54 8.64
-4 3 -11 34.92 1.57
-4 4 12 163.94 4.1
4 4 -11 0.03 0.1
-4 4 11 0.04 0.14
-4 4 11 0.64 0.37
-4 4 11 -0.04 0.14
4 4 -11 0.03 0.33
-4 4 10 52.5 2.52
4 4 -10 49.9 2.14
-4 4 10 54.69 2.62
4 4 -10 47.94 2.17
-4 4 10 54.63 2.61
4 4 -10 45.67 2.22
-4 4 9 65.34 3.05
-4 4 9 66.69 3.14
4 4 -9 66.26 2.77
-4 4 9 68.03 3.15
-4 4 9 63.79 3.07
4 4 -9 65.46 2.81
4 4 -8 21.98 1.59
-4 4 8 22.57 1.84
-4 4 8 20.97 1.78
-4 4 8 22.89 1.86
-4 4 8 24.04 1.85
-4 4 7 4.95 0.91
-4 4 7 4.45 0.88
4 4 -7 3.74 0.73
-4 4 7 5.53 0.96
-4 4 7 4.13 0.82
4 4 -7 4.53 0.81
-4 4 7 4.38 0.88
-4 4 6 4.12 0.83
-4 4 6 3.54 0.77
-4 4 6 4.62 0.85
-4 4 6 3.08 0.71
4 4 -6 5.32 0.85
-4 4 6 3.13 0.71
-4 4 5 12.77 1.28
-4 4 5 11.66 1.22
-4 4 5 14.89 1.4
-4 4 5 12.74 1.3
-4 4 5 11.63 1.22
-4 4 4 14.12 1.29
-4 4 4 14.72 1.27
4 4 -4 16.36 1.4
-4 4 4 15.37 1.51
-4 4 4 14.51 1.33
-4 4 4 14.34 1.33
-4 4 4 17.62 1.43
-4 4 3 75.27 3.01
-4 4 3 73.46 2.81
-4 4 3 81.29 3.09
4 4 -3 78.88 3.13
-4 4 3 83.27 3.21
-4 4 3 82.2 3.55
-4 4 3 79.25 3.11
-4 4 2 98.71 3.43
-4 4 2 100.63 3.68
-4 4 2 98.96 3.42
4 4 -2 99.61 3.51
-4 4 2 101.44 3.51
-4 4 2 105.14 3.57
-4 4 2 112.2 4.19
-4 4 1 22.53 1.46
-4 4 1 24.7 2.01
-4 4 1 21.6 1.46
-4 4 1 25.46 1.7
4 4 -1 23.84 1.54
-4 4 1 22.53 1.51
-4 4 1 24.29 1.87
-4 4 0 0.55 0.43
-4 4 0 1.11 0.36
-4 4 0 1.39 0.6
-4 4 0 0.56 0.38
-4 4 0 0.45 0.3
4 4 0 0.9 0.39
-4 4 0 0.45 0.41
-4 4 0 0.83 0.37
-4 4 -1 54.77 2.69
-4 4 -1 48.55 2.21
-4 4 -1 56.06 3.03
-4 4 -1 54.82 2.33
-4 4 -1 52.18 2.52
4 4 1 55.21 2.26
-4 4 -1 56.78 2.87
-4 4 -1 58.76 2.52
-4 4 -2 56.88 3.06
-4 4 -2 58.67 3.09
-4 4 -2 57.86 2.45
-4 4 -2 57.62 2.79
4 4 2 56.12 2.56
-4 4 -2 49.5 2.72
-4 4 -2 57.93 2.56
-4 4 -3 695.52 15.01
-4 4 -3 658.7 14.52
-4 4 -3 741.94 13.64
-4 4 -3 707.24 13.52
-4 4 -3 671.5 14.02
4 4 3 674.47 13.53
-4 4 -3 665.92 14.32
-4 4 -3 723.38 13.83
-4 4 -4 1345.46 22.62
-4 4 -4 1156.31 23.19
-4 4 -4 1174.51 22.23
-4 4 -4 1253.99 21.66
-4 4 -4 1203.57 21.6
4 4 4 1135.75 21.33
-4 4 -4 1148.35 22.48
-4 4 -4 1098.7 22.15
-4 4 -4 1180.23 22.09
-4 4 -4 1259.76 21.94
-4 4 -5 811.71 15.69
-4 4 -5 874.8 15.84
-4 4 -5 809.7 15.97
-4 4 -5 702.56 16.67
-4 4 -5 887.27 16.34
-4 4 -5 738.29 16.89
-4 4 -5 839.36 16.67
-4 4 -5 763.38 16.01
-4 4 -6 449.53 9.93
-4 4 -6 439.65 9.58
-4 4 -6 404.95 10.67
-4 4 -6 417.82 10.22
-4 4 -6 412.09 9.73
4 4 6 434.9 10.44
-4 4 -7 0.38 0.37
-4 4 -7 0.54 0.43
-4 4 -7 0.66 0.39
-4 4 -7 0.53 0.44
-4 4 -7 0.24 0.45
-4 4 -8 134.49 4.37
-4 4 -8 128.97 4.12
-4 4 -8 117.41 4.19
-4 4 -8 118.99 4.53
-4 4 -9 2.35 0.62
-4 4 -9 3.66 0.64
-4 4 -9 4.19 0.72
-4 4 -10 356.45 7.64
4 5 -11 53.39 1.67
4 5 -11 -0.02 0.06
-4 5 10 12.56 1.17
4 5 -10 10.55 0.91
-4 5 9 36.01 2.18
4 5 -9 38.75 1.99
-4 5 8 164 5.33
4 5 -8 174.93 5.09
-4 5 7 257.89 7.13
-4 5 7 261.47 6.39
-4 5 6 882.18 16.92
-4 5 6 819.43 16.01
4 5 -5 303.63 7.69
-4 5 5 304.29 7.62
-4 5 5 295.21 7.33
4 5 -4 207.28 5.8
-4 5 4 188.05 5.42
-4 5 4 195.42 5.57
-4 5 3 487.18 10.62
4 5 -3 466.45 10.49
-4 5 2 45.26 2.37
-4 5 2 43.44 2.72
4 5 -2 44.01 2.26
-4 5 2 41.85 2.81
-4 5 1 3.97 0.9
-4 5 1 6.22 0.88
4 5 -1 3.47 0.62
-4 5 1 4.41 0.8
-4 5 0 6.27 1.17
-4 5 0 4.11 0.91
-4 5 0 3.13 0.68
4 5 0 6.02 0.89
4 5 0 2.73 0.56
-4 5 0 3.08 0.7
-4 5 -1 67.01 3.09
-4 5 -1 79.1 3.21
-4 5 -1 76.03 3.71
4 5 1 72.16 3.11
-4 5 -1 77.5 3.83
-4 5 -2 67.17 3.11
-4 5 -2 70.23 3.02
-4 5 -2 74 3.6
4 5 2 69.09 3.04
-4 5 -2 78.9 3.79
-4 5 -3 3.85 0.9
-4 5 -3 5.97 1.04
-4 5 -3 5.17 0.85
4 5 3 4.47 0.78
-4 5 -3 4.63 0.87
-4 5 -4 346.88 9.19
4 5 4 346.25 8.52
-4 5 -4 351.23 9.07
-4 5 -5 483.22 11.52
-4 5 -5 532.77 11.2
-4 5 -6 273.51 7.44
-4 5 -6 289.47 7.25
-4 5 -6 279.23 7.04
-4 5 -7 21.5 1.61
-4 5 -7 21.8 1.6
-4 5 -7 21.53 1.59
-4 5 -8 0.67 0.42
-4 5 -8 0.3 0.37
-4 5 -9 1.48 0.45
-4 5 -9 3.03 0.57
-4 5 -10 14.69 0.97
-4 6 11 17.89 1
-4 6 10 39.84 1.85
4 6 -10 37.39 1.61
-4 6 9 86.64 3.22
4 6 -9 90.69 3.07
-4 6 8 205.06 5.83
4 6 -8 212.28 5.63
-4 6 7 88.24 3.56
-4 6 6 0.66 0.44
4 6 -6 0.9 0.47
4 6 -5 48.99 2.52
-4 6 5 44.75 2.4
-4 6 5 49 2.29
4 6 -5 48.8 2.55
4 6 -5 42.68 2.34
-4 6 5 44.8 2.85
4 6 -4 0.28 0.39
-4 6 4 0.36 0.34
-4 6 4 0.25 0.36
4 6 -4 0.29 0.31
4 6 -4 0.59 0.39
-4 6 4 0.33 0.49
-4 6 3 80.37 3.24
4 6 -3 91.39 3.47
4 6 -3 79.62 3.42
4 6 -3 84.01 3.32
-4 6 2 29.66 1.9
-4 6 2 28.9 1.98
4 6 -2 29.4 1.85
4 6 -2 31.4 2.07
4 6 -2 30.28 1.83
-4 6 2 33.01 2.61
4 6 -1 0.51 0.34
-4 6 1 -0.09 0.56
-4 6 1 -0.11 0.36
4 6 -1 -0.1 0.3
-4 6 1 1.35 0.52
-4 6 0 34.1 2.12
-4 6 0 35.15 2.13
-4 6 0 36.67 2.71
4 6 0 36.58 2.25
-4 6 0 33.85 2.67
-4 6 -1 8.18 1.06
-4 6 -1 7.24 1.26
4 6 1 7.94 1.05
-4 6 -1 7.37 1.26
-4 6 -2 312.51 7.72
-4 6 -2 321.67 7.76
-4 6 -2 303 8.72
4 6 2 304.76 7.88
-4 6 -2 295.35 8.77
-4 6 -3 232.49 6.22
-4 6 -3 240.79 6.32
-4 6 -3 224.39 7.12
-4 6 -3 219.84 7.03
-4 6 -4 1216.99 21.28
-4 6 -4 1200.34 21.16
-4 6 -4 1090.54 22.18
-4 6 -4 1053.92 21.79
-4 6 -5 41.51 2.2
-4 6 -5 38.18 2.16
-4 6 -5 36.61 2.18
-4 6 -5 37.62 2.47
-4 6 -6 2.67 0.73
-4 6 -6 3.66 0.68
-4 6 -7 7.23 0.9
-4 6 -7 6.59 0.84
-4 6 -8 100.23 2.88
-4 6 -8 105.86 2.82
-4 6 -9 7.98 0.72
-4 7 9 79.5 2.61
4 7 -9 79.05 2.61
-4 7 8 6.43 0.78
4 7 -8 6.01 0.77
-4 7 7 265.31 6.5
-4 7 6 0.3 0.29
4 7 -6 0.79 0.44
-4 7 5 200.33 5.44
-4 7 5 212.65 6.63
4 7 -5 214.01 5.85
-4 7 4 9.03 1.33
4 7 -4 7.84 1.01
-4 7 3 105.14 3.5
-4 7 3 107.25 4.61
4 7 -3 109.31 3.84
-4 7 2 9.39 1.05
-4 7 2 10.15 1.06
-4 7 2 11.78 1.5
4 7 -2 11.27 1.14
-4 7 2 9.31 1.42
-4 7 1 55.28 2.57
-4 7 1 61.33 2.68
4 7 -1 54.73 2.51
-4 7 1 53.91 3.41
-4 7 0 72.01 2.99
-4 7 0 77.76 3.12
-4 7 -1 1.38 0.51
-4 7 -1 0.89 0.66
-4 7 -1 0.91 0.42
-4 7 -1 1.41 0.69
-4 7 -2 441.31 11.39
-4 7 -2 461.6 9.75
-4 7 -2 467.66 9.96
-4 7 -2 433.25 11.31
-4 7 -3 312.85 8.69
-4 7 -3 321.15 7.38
-4 7 -3 318.06 7.59
-4 7 -3 314.99 8.7
-4 7 -4 220.64 6.82
-4 7 -4 237.05 5.86
-4 7 -4 236.78 6.1
-4 7 -4 228.85 6.64
-4 7 -5 70.25 3.24
-4 7 -5 71.63 2.89
-4 7 -5 69.44 2.64
-4 7 -6 310.03 7.53
-4 7 -6 307.78 6.81
-4 7 -6 318.2 7.23
-4 7 -7 222.09 5.35
-4 7 -7 218.82 5.35
-4 7 -7 218.36 5.03
4 8 -8 274.47 6
4 8 -7 49.39 2.04
-4 8 7 0.03 0.1
4 8 -6 18.17 1.36
4 8 -5 17.39 1.37
4 8 -4 15.91 1.34
-4 8 4 16.95 1.61
4 8 -3 7.77 0.96
-4 8 3 8.32 1.2
4 8 -2 314.49 7.37
-4 8 2 307.6 8.43
4 8 -1 92.26 3.29
-4 8 1 92.22 4.37
-4 8 1 97.04 4.22
-4 8 1 99.28 3.13
-4 8 0 0.81 0.38
-4 8 -1 84.96 4.05
-4 8 -1 92.9 3.13
-4 8 -2 70.07 3.51
-4 8 -2 73.67 3.56
-4 8 -2 75.88 2.79
-4 8 -3 178.03 5.67
-4 8 -3 183.79 5.83
-4 8 -3 187.52 4.91
-4 8 -4 5.39 0.89
-4 8 -4 6.02 0.77
-4 8 -5 14.7 1.27
-4 8 -5 13.73 1.08
-4 8 -6 50.77 2.11
-4 8 -6 53.78 2.06
-4 8 -7 3.33 0.46
4 9 -6 62.63 2.26
4 9 -5 36.89 1.77
4 9 -4 31.19 1.66
4 9 -3 98.96 3.22
-4 9 3 98.41 3.59
4 9 -2 101.8 3.21
-4 9 2 100.13 3.73
-4 9 1 0.92 0.54
-4 9 0 269.39 7
-4 9 -1 7.29 1
-4 9 -2 4.34 0.55
-4 9 -3 27.61 1.67
-4 9 -3 27.4 1.29
-4 9 -4 60.11 2.34
-4 9 -4 60.67 1.97
-4 10 2 71.93 2.35
-4 10 1 0.47 0.28
-4 10 0 141.98 3.71
-4 10 -1 80.76 2.52
5 -9 -5 9.25 0.61
5 -9 -4 2.47 0.37
-5 -9 3 17.35 1.04
5 -9 -3 20.59 1.01
-5 -9 3 17.62 1.04
-5 -9 2 17.16 1.11
5 -9 -2 15.83 0.86
-5 -9 2 17.97 1.09
-5 -9 1 37.82 1.68
-5 -9 1 36.2 1.7
-5 -9 0 3.18 0.52
-5 -9 0 2.88 0.51
-5 -9 -1 127.51 3.35
-5 -9 -1 117.6 3.32
-5 -9 -2 28.58 1.37
-5 -9 -2 29.9 1.36
5 -8 -7 134.2 3.22
5 -8 -7 131.7 3.24
5 -8 -6 120.67 3.25
-5 -8 6 114.64 3.22
5 -8 -5 57.99 1.94
5 -8 -5 60.68 2.01
-5 -8 5 57.62 2.05
5 -8 -4 3.84 0.58
-5 -8 4 4.16 0.66
5 -8 -4 4.88 0.64
-5 -8 4 4.27 0.65
5 -8 -3 19.39 1.22
-5 -8 3 20.89 1.49
5 -8 -3 21.19 1.32
-5 -8 3 20.14 1.42
5 -8 -2 23.96 1.36
-5 -8 2 23.46 1.58
-5 -8 2 23.94 1.68
5 -8 -2 28.64 1.51
5 -8 -1 222.38 5.24
-5 -8 1 220.71 5.76
-5 -8 1 235.06 6.08
-5 -8 1 250.55 6.43
5 -8 -1 256.14 5.52
-5 -8 0 335.24 5.83
-5 -8 0 332.36 5.9
-5 -8 0 337.37 6.19
-5 -8 -1 726.54 14.51
-5 -8 -1 702.35 13.66
-5 -8 -1 746.85 14.28
-5 -8 -2 164.26 4.79
-5 -8 -2 150.53 4.78
-5 -8 -2 157.52 4.4
-5 -8 -3 56.37 2.57
-5 -8 -3 53.74 2.27
-5 -8 -4 10.68 1.02
-5 -8 -4 10.52 0.93
-5 -8 -4 10.73 0.94
-5 -8 -5 11.98 0.86
5 -7 -9 7.94 0.56
5 -7 -8 184.14 4.25
5 -7 -8 185.95 4.44
-5 -7 8 181.39 4.35
5 -7 -7 15.14 1.06
-5 -7 7 14.98 1.14
5 -7 -6 2.39 0.52
-5 -7 6 2.38 0.57
5 -7 -5 168.43 4.8
-5 -7 5 170.62 4.79
5 -7 -5 173.77 4.68
-5 -7 5 166.11 4.97
5 -7 -4 103.43 3.62
-5 -7 4 102.87 3.77
5 -7 -4 107.76 3.54
-5 -7 4 107.1 3.87
-5 -7 3 3.85 0.8
5 -7 -3 3.46 0.64
-5 -7 3 4.59 0.84
-5 -7 2 40.04 2.27
-5 -7 2 38.51 2.41
5 -7 -2 42.45 2.06
-5 -7 2 37.35 2.26
-5 -7 1 92.53 3.88
-5 -7 1 95.41 3.68
-5 -7 1 97.54 4.02
-5 -7 1 100.36 3.9
-5 -7 0 44.55 2.63
-5 -7 0 41.64 2.6
-5 -7 0 42.8 2.47
-5 -7 -1 23.2 1.89
-5 -7 -1 24.78 2.04
-5 -7 -1 23.9 1.89
-5 -7 -2 364.2 8.9
-5 -7 -2 361.49 8.96
-5 -7 -2 334.92 9.01
-5 -7 -2 343.37 8.46
-5 -7 -3 2.06 0.65
-5 -7 -3 2.85 0.74
-5 -7 -3 2.01 0.72
-5 -7 -3 1.49 0.55
-5 -7 -4 77.45 3.37
-5 -7 -4 75.25 3.08
-5 -7 -5 107.77 3.84
-5 -7 -5 111.23 3.92
-5 -7 -5 105.27 3.54
-5 -7 -6 0.71 0.38
-5 -7 -6 1.14 0.39
-5 -7 -6 0.71 0.33
-5 -7 -7 0.12 0.21
5 -6 -10 59.81 1.72
5 -6 -9 15.75 0.99
5 -6 -9 13.81 1.01
-5 -6 9 13.8 1.03
5 -6 -8 14.36 1.15
5 -6 -7 1.52 0.45
5 -6 -7 1.33 0.46
5 -6 -6 3.74 0.68
5 -6 -6 3.41 0.71
-5 -6 5 39.28 2.16
5 -6 -5 41.3 2.15
-5 -6 5 39.21 2.37
-5 -6 4 50.02 2.63
5 -6 -4 53.67 2.49
-5 -6 4 47.35 2.66
-5 -6 3 596.8 13.14
-5 -6 3 574.41 13.13
-5 -6 2 64.55 3.21
-5 -6 2 63.26 3.24
-5 -6 2 60.26 3.15
-5 -6 1 141.57 5.16
-5 -6 1 137.14 5.05
5 -6 -1 148.14 4.25
-5 -6 0 53.87 2.88
-5 -6 0 45.25 2.94
-5 -6 0 48.21 2.95
-5 -6 0 51.96 2.95
-5 -6 -1 162.64 5.4
-5 -6 -1 161.15 5.96
-5 -6 -1 166.93 5.93
-5 -6 -1 158.6 5.57
-5 -6 -2 477.85 10.89
-5 -6 -2 470.8 11.75
-5 -6 -2 454.73 11.54
-5 -6 -2 475.06 11.27
-5 -6 -3 845.41 16.7
-5 -6 -3 810.78 17.58
-5 -6 -3 820.16 17.6
-5 -6 -3 838.02 17.06
-5 -6 -4 160.87 5.72
-5 -6 -4 150.71 4.98
-5 -6 -5 0.21 0.46
-5 -6 -5 0.99 0.6
-5 -6 -5 0.44 0.45
-5 -6 -6 2.73 0.75
-5 -6 -6 3.03 0.73
-5 -6 -6 2.84 0.59
-5 -6 -7 43.26 1.88
-5 -6 -7 35.45 1.66
-5 -6 -8 2.35 0.43
5 -5 -10 -0.05 0.2
5 -5 -10 0.18 0.24
5 -5 -9 131.52 3.7
5 -5 -9 126.71 3.79
5 -5 -8 4.18 0.71
5 -5 -7 25.99 1.68
5 -5 -7 31.04 1.96
5 -5 -6 91.95 3.4
5 -5 -6 84.03 3.53
5 -5 -5 69.24 2.95
-5 -5 4 12.57 1.3
5 -5 -4 14.49 1.54
5 -5 -4 13.26 1.23
-5 -5 3 78.13 3.49
-5 -5 3 90.46 3.83
-5 -5 3 89.52 3.93
-5 -5 3 82.83 3.71
5 -5 -3 83.13 3.9
5 -5 -3 91.79 3.37
-5 -5 2 2.14 0.66
-5 -5 2 1.75 0.6
-5 -5 2 2.37 0.72
-5 -5 2 2.16 0.79
5 -5 -2 2.2 0.7
5 -5 -2 2.71 0.59
-5 -5 1 6.77 1.08
-5 -5 1 7.09 1.07
-5 -5 1 6.39 1.13
-5 -5 1 8.08 1.26
5 -5 -1 6.59 1.16
5 -5 -1 6.09 0.8
-5 -5 0 190.88 6.61
-5 -5 0 189.63 6.58
5 -5 0 202.32 6.72
-5 -5 0 193.84 6.17
-5 -5 0 185.61 5.88
-5 -5 -1 5.64 1.12
-5 -5 -1 5.6 1.17
5 -5 1 5.89 1.13
-5 -5 -1 5.06 0.99
-5 -5 -1 5.37 0.94
-5 -5 -2 762.12 16.71
-5 -5 -2 784.15 16.95
-5 -5 -2 757.16 15.48
5 -5 2 715.31 16.21
-5 -5 -2 728.97 15.79
-5 -5 -3 1128.05 21.39
-5 -5 -3 1184.66 23.19
-5 -5 -3 1142.28 22.01
-5 -5 -4 6.87 1.04
-5 -5 -4 7.67 1.29
-5 -5 -4 7.43 1.37
-5 -5 -4 5.82 1.04
-5 -5 -5 244.89 6.59
-5 -5 -5 231.27 7.18
-5 -5 -5 235.58 7.01
-5 -5 -6 3.3 0.69
-5 -5 -6 3.85 0.87
-5 -5 -6 4.73 0.93
-5 -5 -7 62.62 2.9
-5 -5 -7 63.13 3.01
-5 -5 -7 61.52 2.6
-5 -5 -8 23.12 1.52
5 -4 -11 2.77 0.39
5 -4 -10 16.46 1.1
-5 -4 10 14.75 1.06
5 -4 -10 15.18 1.04
-5 -4 10 15.71 1.11
5 -4 -10 16.41 1.06
5 -4 -9 38.07 1.85
-5 -4 9 35.44 1.99
-5 -4 9 35.71 1.97
-5 -4 9 35.33 1.91
5 -4 -9 36.15 1.87
5 -4 -8 27.06 1.68
-5 -4 8 26.25 1.83
-5 -4 8 26.94 1.8
-5 -4 8 24.79 1.72
5 -4 -8 28.29 1.8
-5 -4 7 8.31 1.06
5 -4 -7 6.66 0.96
-5 -4 7 7.24 1.08
5 -4 -7 6.39 0.88
-5 -4 7 7.09 1
-5 -4 7 5.75 0.98
-5 -4 6 9.34 1.15
-5 -4 6 11.16 1.24
-5 -4 6 8.79 1.18
-5 -4 6 10.49 1.27
-5 -4 5 98.48 3.96
-5 -4 5 101.32 3.87
-5 -4 5 102.02 3.88
-5 -4 5 94.21 3.93
5 -4 -5 105 4.16
-5 -4 5 95.84 3.94
-5 -4 4 48.62 2.66
-5 -4 4 49.43 2.54
-5 -4 4 47.9 2.52
-5 -4 4 50.27 2.73
-5 -4 4 50.59 2.95
5 -4 -4 50.87 2.84
-5 -4 4 45.12 2.54
-5 -4 3 10.79 1.25
-5 -4 3 9.38 1.1
-5 -4 3 10.58 1.17
-5 -4 3 10.65 1.16
-5 -4 3 9.45 1.19
-5 -4 3 13.35 1.49
-5 -4 3 12.03 1.47
5 -4 -3 12.48 1.41
-5 -4 3 9.49 1.16
-5 -4 2 546.28 11.89
-5 -4 2 560.68 12.23
-5 -4 2 552.98 11.55
-5 -4 2 524.96 11.95
-5 -4 2 567.75 11.75
-5 -4 2 565.71 12.97
-5 -4 2 581.1 13.32
5 -4 -2 589.76 12.97
-5 -4 2 572.87 12
-5 -4 1 657.03 13.46
5 -4 -1 672.39 12.69
-5 -4 1 648.26 13.71
-5 -4 1 660.78 13.08
-5 -4 1 630.79 13.62
-5 -4 1 649.59 13.1
-5 -4 1 640.22 14.64
-5 -4 1 648.85 14.84
-5 -4 1 691.44 13.92
5 -4 -1 647.52 14.47
-5 -4 1 651.02 13.41
-5 -4 0 16.41 1.44
-5 -4 0 15.45 1.5
-5 -4 0 17.42 1.38
-5 -4 0 18.44 1.65
-5 -4 0 17.82 1.4
-5 -4 0 17.17 1.88
-5 -4 0 16.39 1.81
-5 -4 0 16.62 1.52
-5 -4 0 19.39 1.56
-5 -4 -1 574.25 12.03
-5 -4 -1 589.23 12.48
-5 -4 -1 556.6 11.56
-5 -4 -1 544.05 12.49
-5 -4 -1 578.59 11.71
-5 -4 -1 575.37 13.56
-5 -4 -1 576.72 13.76
-5 -4 -1 588.88 12.31
5 -4 1 544.08 13.03
-5 -4 -1 544.6 11.84
-5 -4 -2 429.63 9.66
-5 -4 -2 396.22 10.37
-5 -4 -2 430.25 10.04
-5 -4 -2 431.7 9.31
-5 -4 -2 440.11 10.46
-5 -4 -2 392.96 10.1
-5 -4 -2 421.83 9.32
-5 -4 -2 393.45 10.88
-5 -4 -2 433.5 11.32
-5 -4 -2 428.79 9.85
5 -4 2 406.27 10.54
-5 -4 -2 414.72 10
-5 -4 -2 421.75 9.56
-5 -4 -3 27.08 1.9
-5 -4 -3 21.66 2
-5 -4 -3 24.07 1.68
-5 -4 -3 23.96 2
-5 -4 -3 26.79 1.77
-5 -4 -3 24.08 2.08
-5 -4 -3 23.33 2.21
-5 -4 -3 25.84 2.35
-5 -4 -3 23.38 1.78
5 -4 3 23.57 2.09
-5 -4 -3 23.9 1.91
-5 -4 -4 22.23 1.79
-5 -4 -4 14.66 1.67
-5 -4 -4 17.07 1.42
-5 -4 -4 15.48 1.72
-5 -4 -4 18.57 1.46
-5 -4 -4 18.41 1.91
-5 -4 -4 16.9 1.48
5 -4 4 14.91 1.69
-5 -4 -4 15.95 1.57
-5 -4 -5 20.32 1.55
-5 -4 -5 21.54 2.03
-5 -4 -5 20.63 1.95
-5 -4 -5 21.69 2.13
-5 -4 -5 21.81 1.68
-5 -4 -5 23.8 1.71
-5 -4 -5 17.21 1.76
-5 -4 -5 20.63 1.75
-5 -4 -6 12.57 1.58
-5 -4 -6 13.66 1.5
-5 -4 -6 14.26 1.67
-5 -4 -6 10.78 1.16
-5 -4 -6 13.14 1.48
-5 -4 -6 11.84 1.29
-5 -4 -7 79.19 3.51
-5 -4 -7 77.64 2.93
-5 -4 -7 81.85 3.53
-5 -4 -7 76.28 3.11
-5 -4 -7 78.53 2.92
-5 -4 -8 1.48 0.55
-5 -4 -8 0.04 0.09
-5 -4 -8 1.33 0.57
-5 -4 -9 23.6 1.25
-5 -3 11 9.04 0.88
5 -3 -11 6.82 0.67
-5 -3 11 7.23 0.84
5 -3 -11 7.63 0.77
-5 -3 11 7.62 0.82
5 -3 -11 7.78 0.81
5 -3 -10 84.9 3.06
-5 -3 10 84 3.08
-5 -3 10 79.51 3.2
-5 -3 10 78.02 3.16
-5 -3 10 81.34 3.3
5 -3 -9 366.12 8.33
-5 -3 9 347.5 8.67
-5 -3 9 356.07 8.3
-5 -3 9 342.02 8.64
5 -3 -9 347.42 7.7
-5 -3 9 336.76 8.72
5 -3 -8 970.66 18.25
-5 -3 8 974.5 18.9
-5 -3 8 925.6 18.19
-5 -3 8 937.84 18.97
-5 -3 8 952.99 18.8
5 -3 -8 927.96 17.64
-5 -3 7 611.49 13.53
-5 -3 7 601.13 13.29
-5 -3 7 621.64 12.81
5 -3 -7 580.89 12.42
-5 -3 7 585.78 13.56
-5 -3 7 616.91 13.59
-5 -3 7 612.56 13.34
5 -3 -7 557.49 12.23
-5 -3 6 44.18 2.8
-5 -3 6 46.64 2.76
-5 -3 6 44.03 2.7
5 -3 -6 46.13 2.52
-5 -3 6 42.88 2.78
-5 -3 6 43.58 2.76
-5 -3 5 2.33 0.73
-5 -3 5 1.49 0.55
-5 -3 5 1.72 0.62
-5 -3 5 5.54 0.97
5 -3 -5 1.04 0.45
5 -3 -5 1.09 0.45
-5 -3 5 5.33 0.99
-5 -3 5 0.95 0.61
-5 -3 4 108.55 4.4
-5 -3 4 118.78 4.13
-5 -3 4 114.91 4.37
-5 -3 4 114.58 4.35
-5 -3 4 115.81 4.59
-5 -3 4 107.95 4.26
5 -3 -4 107.18 4.14
-5 -3 4 109.06 4.4
-5 -3 4 115.2 4.51
-5 -3 3 10.45 1.28
-5 -3 3 9.26 1.18
-5 -3 3 12.05 1.31
-5 -3 3 8.95 1.22
-5 -3 3 9 1.24
5 -3 -3 11.97 1.31
-5 -3 3 12.01 1.36
-5 -3 3 11.77 1.36
-5 -3 2 21.66 1.78
-5 -3 2 22.24 1.87
-5 -3 2 21.1 1.68
-5 -3 2 22.18 1.72
-5 -3 2 21.05 1.98
-5 -3 2 20.64 1.92
5 -3 -2 23.42 1.85
-5 -3 2 20.41 1.72
-5 -3 2 21.95 1.78
-5 -3 1 32.8 2.18
-5 -3 1 34.97 2.35
-5 -3 1 38.46 2.23
-5 -3 1 31.99 1.99
-5 -3 1 37.25 2.21
-5 -3 1 37.5 2.59
-5 -3 1 35.35 2.61
-5 -3 1 38.24 2.2
5 -3 -1 38.1 2.46
-5 -3 1 36.39 2.26
-5 -3 0 340.33 8.52
-5 -3 0 385.64 9.68
-5 -3 0 346.76 8.86
-5 -3 0 339.14 8.19
-5 -3 0 364.89 8.45
-5 -3 0 332.11 8.2
-5 -3 0 316.37 9.13
-5 -3 0 320.89 9.37
-5 -3 0 343.36 8.21
5 -3 0 336.64 8.88
-5 -3 0 341.15 8.53
-5 -3 -1 337.33 8.38
-5 -3 -1 347.48 9.31
-5 -3 -1 330.95 8.67
-5 -3 -1 347.58 8.14
-5 -3 -1 314.05 8.13
-5 -3 -1 324.14 7.98
-5 -3 -1 358.71 9.51
-5 -3 -1 307.15 9.2
-5 -3 -1 341.95 7.99
5 -3 1 294.69 8.39
-5 -3 -1 316.03 8.53
-5 -3 -1 332.84 8.41
-5 -3 -2 115.73 4.38
-5 -3 -2 117.76 4.95
-5 -3 -2 116.3 4.6
-5 -3 -2 116.02 4.13
-5 -3 -2 118.58 4.41
-5 -3 -2 126.4 4.27
-5 -3 -2 117.56 4.02
5 -3 2 107.06 4.46
-5 -3 -2 114.83 4.56
-5 -3 -2 115.08 4.3
-5 -3 -3 71.31 3.3
-5 -3 -3 60.51 3.58
-5 -3 -3 71.89 3.55
-5 -3 -3 69.18 3.09
-5 -3 -3 64.4 3.58
-5 -3 -3 72.72 3.19
-5 -3 -3 66.37 3.67
-5 -3 -3 64 3.75
-5 -3 -3 64.98 2.9
5 -3 3 59.44 3.3
-5 -3 -3 73.54 3.57
-5 -3 -3 67.17 3.21
-5 -3 -4 706.46 14.1
-5 -3 -4 586.34 14.58
-5 -3 -4 674.28 13.45
-5 -3 -4 635.18 13.3
-5 -3 -4 613.6 14.57
-5 -3 -4 642.61 14.6
-5 -3 -4 608.45 14.83
-5 -3 -4 624.96 12.9
5 -3 4 556.11 13.7
-5 -3 -4 679.96 14.35
-5 -3 -5 154.1 5.29
-5 -3 -5 113.87 5.1
-5 -3 -5 137.08 4.61
-5 -3 -5 113.92 5.14
-5 -3 -5 120.19 4.35
-5 -3 -5 128.19 5.03
-5 -3 -5 119.85 5.22
-5 -3 -5 114.97 4.05
5 -3 5 101.8 4.53
-5 -3 -5 126.9 4.96
-5 -3 -6 192.92 5.88
-5 -3 -6 189.72 6.86
-5 -3 -6 225.59 6.37
-5 -3 -6 197.61 6.91
-5 -3 -6 203.21 6.53
-5 -3 -6 218.84 6.51
-5 -3 -6 210.82 6.92
-5 -3 -7 12.23 1.58
-5 -3 -7 14.63 1.51
-5 -3 -7 12.84 1.28
-5 -3 -7 12.95 1.48
-5 -3 -7 11.91 1.54
-5 -3 -8 57.44 2.76
-5 -3 -8 52.79 2.62
-5 -3 -8 50.64 2.83
-5 -3 -9 303.83 5.05
-5 -3 -9 300.23 5.48
-5 -2 12 0.97 0.38
5 -2 -12 1.06 0.22
-5 -2 12 1.12 0.37
5 -2 -12 1.21 0.39
-5 -2 12 1.19 0.34
5 -2 -12 1.34 0.37
-5 -2 11 2.63 0.62
-5 -2 11 2.33 0.62
5 -2 -11 2.45 0.55
-5 -2 11 3.43 0.61
-5 -2 11 2.63 0.64
5 -2 -11 2.33 0.57
5 -2 -10 26.66 1.79
-5 -2 10 25.02 1.89
-5 -2 10 22.46 1.58
-5 -2 10 22.93 1.8
-5 -2 10 23.2 1.87
5 -2 -9 8.06 1.09
-5 -2 9 7.74 1.02
-5 -2 9 6.26 1.06
-5 -2 9 8.99 1.29
-5 -2 9 8.71 1.26
-5 -2 8 0.08 0.46
-5 -2 8 0.31 0.45
-5 -2 8 0.08 0.49
-5 -2 8 0.26 0.5
5 -2 -8 0.19 0.3
-5 -2 7 28.86 2.32
-5 -2 7 28.44 2.26
5 -2 -7 28.1 1.78
-5 -2 7 29.57 2.34
5 -2 -7 26.26 1.75
-5 -2 7 27.88 2.35
-5 -2 7 28.48 2.33
-5 -2 6 1.72 0.68
-5 -2 6 1.95 0.6
-5 -2 6 2.47 0.73
-5 -2 6 2.59 0.77
5 -2 -6 3.31 0.64
5 -2 -6 2.27 0.55
-5 -2 6 2.35 0.76
-5 -2 5 5.89 0.9
-5 -2 5 4.93 1.01
-5 -2 5 6.24 1.08
-5 -2 5 6.86 1.18
5 -2 -5 7.04 0.97
5 -2 -5 7.11 0.94
-5 -2 5 7.74 1.23
-5 -2 5 5.22 1.04
-5 -2 4 43.01 2.28
-5 -2 4 42.06 2.59
-5 -2 4 42.83 2.61
-5 -2 4 40.97 2.65
-5 -2 4 37.86 2.42
5 -2 -4 44.79 2.58
5 -2 -4 38.32 2.18
-5 -2 4 37.25 2.54
-5 -2 4 41.8 2.66
-5 -2 3 355.25 9.09
-5 -2 3 369.86 9.1
-5 -2 3 369.95 8.24
-5 -2 3 362.7 9.04
-5 -2 3 357.78 9.29
-5 -2 3 353.26 9.15
-5 -2 3 351.63 9.55
5 -2 -3 343.19 8.4
-5 -2 3 347.17 9.1
-5 -2 3 361.13 9.22
-5 -2 2 132.6 4.85
-5 -2 2 151.83 4.36
-5 -2 2 144.39 4.9
-5 -2 2 147.59 4.94
-5 -2 2 146.49 5.16
-5 -2 2 138.83 5.36
-5 -2 2 138.71 5.15
5 -2 -2 135.53 4.62
-5 -2 2 145.52 5.04
-5 -2 2 137.18 4.92
-5 -2 1 256.46 7.14
-5 -2 1 260.11 7.37
-5 -2 1 263.88 6.99
-5 -2 1 259.21 7.01
-5 -2 1 257.08 7.6
-5 -2 1 264.93 7.89
5 -2 -1 248.86 6.91
-5 -2 1 250.76 7.07
-5 -2 1 259.11 7.15
-5 -2 0 1732.87 30.14
-5 -2 0 1755.18 31.18
-5 -2 0 1561.06 30.17
-5 -2 0 1731.36 29.57
-5 -2 0 1591.8 28.91
-5 -2 0 1603.21 29.53
-5 -2 0 1654.4 30.72
-5 -2 0 1691.47 31.18
-5 -2 0 1699.02 28.93
5 -2 0 1666.2 29.81
-5 -2 0 1771.27 30.26
-5 -2 0 1672.12 30.43
-5 -2 -1 54.46 2.87
-5 -2 -1 53.59 3.23
-5 -2 -1 53.86 3.02
-5 -2 -1 58 2.78
-5 -2 -1 49.08 2.48
-5 -2 -1 42.19 2.14
5 -2 1 41.97 2.53
-5 -2 -1 47.19 2.82
-5 -2 -1 57.33 2.96
-5 -2 -2 124.07 4.55
-5 -2 -2 121.12 5.12
-5 -2 -2 111.58 4.59
-5 -2 -2 109.78 4.12
-5 -2 -2 117 4.23
-5 -2 -2 110.37 4.71
-5 -2 -2 114.24 4.77
-5 -2 -2 115.45 4.96
-5 -2 -2 110.98 3.65
5 -2 2 102.44 4.19
-5 -2 -2 119.87 4.71
-5 -2 -2 117.34 4.45
-5 -2 -3 0.22 0.47
-5 -2 -3 0.6 0.67
-5 -2 -3 0.25 0.46
-5 -2 -3 1.09 0.53
-5 -2 -3 0.36 0.52
-5 -2 -3 0.34 0.51
-5 -2 -3 0.46 0.45
-5 -2 -3 -0.06 0.34
5 -2 3 0.73 0.47
-5 -2 -3 0.17 0.45
-5 -2 -3 -0.07 0.39
-5 -2 -4 5.88 1.03
-5 -2 -4 5.85 1.25
-5 -2 -4 5.74 0.94
-5 -2 -4 4.36 1.08
-5 -2 -4 6.33 1.01
-5 -2 -4 6.67 1.18
-5 -2 -4 6.1 1.11
-5 -2 -4 5.51 1.14
5 -2 4 4.61 0.92
-5 -2 -4 5.69 1.01
-5 -2 -4 4.01 0.97
-5 -2 -5 10.65 1.63
-5 -2 -5 10.82 1.61
-5 -2 -5 12.32 1.5
-5 -2 -5 11.86 1.35
-5 -2 -5 11.03 1.63
-5 -2 -5 11.69 1.33
-5 -2 -5 8.87 1.28
-5 -2 -5 12.34 1.58
-5 -2 -5 10.46 1.47
5 -2 5 8.95 1.25
-5 -2 -5 9.26 1.41
-5 -2 -6 3.38 0.84
-5 -2 -6 3.65 0.88
-5 -2 -6 2.78 1.02
-5 -2 -6 3.73 0.95
-5 -2 -6 3.06 0.74
-5 -2 -6 2.64 0.78
-5 -2 -7 33.23 2.58
-5 -2 -7 35.38 2.75
-5 -2 -7 36.14 2.54
-5 -2 -7 31.55 2.25
-5 -2 -8 62.76 3.4
-5 -2 -8 69.18 3.34
-5 -2 -8 63.64 2.81
-5 -2 -8 63.18 3.47
-5 -2 -9 372.23 9.32
-5 -2 -9 404.97 9.09
-5 -2 -10 134.97 3.95
-5 -2 -10 125.14 3.61
-5 -1 13 167.51 3.8
-5 -1 12 0.27 0.37
-5 -1 12 0.09 0.33
5 -1 -12 0.04 0.25
5 -1 -12 0.08 0.29
-5 -1 12 0.15 0.24
-5 -1 12 0.77 0.45
-5 -1 11 696.12 14.51
-5 -1 11 712.41 14.65
5 -1 -11 741.68 14.06
5 -1 -11 715.13 14.19
-5 -1 11 719.79 14.64
-5 -1 11 714.22 13.64
5 -1 -10 344.92 8.3
-5 -1 10 327.98 8.78
-5 -1 10 340.22 7.98
-5 -1 10 318.09 8.76
-5 -1 10 324.43 8.71
5 -1 -9 36.53 2.33
-5 -1 9 31.25 2.44
-5 -1 9 29.11 2.33
-5 -1 9 32.89 2.51
-5 -1 9 33.71 2.12
-5 -1 8 31.99 2.47
-5 -1 8 32.02 2.51
-5 -1 8 33.13 2.59
-5 -1 8 32.88 2.59
-5 -1 8 28.78 2.42
-5 -1 7 0.44 0.54
-5 -1 7 -0.06 0.38
-5 -1 7 4.03 0.94
-5 -1 7 4.83 1.03
-5 -1 7 0.47 0.51
-5 -1 7 0.46 0.57
-5 -1 6 587.07 13.47
-5 -1 6 580.91 13.19
-5 -1 6 575.55 12.16
-5 -1 6 587.52 13.36
5 -1 -6 527.03 11.61
-5 -1 6 536.35 13.15
-5 -1 6 575.52 13.38
-5 -1 5 342.73 9.29
-5 -1 5 320.58 8.97
-5 -1 5 358.51 9.32
-5 -1 5 338.45 8.22
-5 -1 5 351.42 8.68
5 -1 -5 349.68 8.38
5 -1 -5 348.54 7.83
-5 -1 5 371.86 9.66
-5 -1 5 336.41 9.26
-5 -1 4 220 6.82
-5 -1 4 209.28 6.59
-5 -1 4 218.26 5.8
-5 -1 4 219.17 6.66
-5 -1 4 218.59 6.45
5 -1 -4 202.89 6.07
5 -1 -4 209.04 5.51
-5 -1 4 211.85 6.75
-5 -1 4 216.7 6.78
-5 -1 3 0.44 0.48
-5 -1 3 0.23 0.45
-5 -1 3 0.23 0.3
-5 -1 3 0.07 0.39
-5 -1 3 0.33 0.48
-5 -1 3 0.87 0.54
-5 -1 3 0.14 0.38
5 -1 -3 0.38 0.26
-5 -1 3 0.82 0.57
-5 -1 3 -0.08 0.36
-5 -1 2 75.27 3.46
-5 -1 2 67.05 3.36
-5 -1 2 66.25 3.17
-5 -1 2 68.18 2.64
-5 -1 2 72.71 3.34
-5 -1 2 71.55 3.46
-5 -1 2 75.84 3.77
5 -1 -2 71.44 2.91
-5 -1 2 67.4 3.32
-5 -1 2 74.41 3.42
-5 -1 1 0.98 0.64
-5 -1 1 1.49 0.57
-5 -1 1 2.28 0.64
-5 -1 1 1.32 0.49
-5 -1 1 1.13 0.56
-5 -1 1 1.48 0.54
5 -1 -1 0.68 0.39
-5 -1 1 1.43 0.53
-5 -1 1 1.22 0.5
-5 -1 0 140.98 4.25
-5 -1 0 137.19 4.91
-5 -1 0 142.97 5.62
-5 -1 0 148.99 4.87
-5 -1 0 151.07 4.92
-5 -1 0 151.31 5.28
-5 -1 0 145.93 5.47
-5 -1 0 158.73 5.45
5 -1 0 134.34 4.43
-5 -1 0 136.67 4.84
-5 -1 0 144.95 5.2
-5 -1 -1 73.56 3.39
-5 -1 -1 73.44 3.91
-5 -1 -1 73.05 3.23
-5 -1 -1 77.93 3.36
-5 -1 -1 79.36 3.7
-5 -1 -1 74.04 3.6
-5 -1 -1 68.96 2.73
-5 -1 -1 72.64 3.71
5 -1 1 65.45 2.97
-5 -1 -1 77.5 3.66
-5 -1 -1 76.5 3.48
-5 -1 -2 226.33 6.75
-5 -1 -2 212.81 7.43
-5 -1 -2 236.6 6.5
-5 -1 -2 234.9 6.5
-5 -1 -2 235.45 7.08
-5 -1 -2 229.3 7.22
-5 -1 -2 249.79 7.21
-5 -1 -2 219.87 5.64
5 -1 2 196.58 6.04
-5 -1 -2 237.23 7.17
-5 -1 -2 233.6 6.79
-5 -1 -3 11.29 1.35
-5 -1 -3 12.95 1.73
-5 -1 -3 11.44 1.28
-5 -1 -3 11.71 1.57
-5 -1 -3 12.76 1.36
-5 -1 -3 11.03 1.44
-5 -1 -3 11.29 1.03
-5 -1 -3 12.11 1.53
-5 -1 -3 13.39 1.52
5 -1 3 9.62 1.16
-5 -1 -3 12.78 1.57
-5 -1 -3 12.58 1.43
-5 -1 -4 138.96 5.89
-5 -1 -4 131.28 5.72
-5 -1 -4 150.9 5.25
-5 -1 -4 140.82 4.87
-5 -1 -4 146.39 4.97
-5 -1 -4 130.19 5.38
-5 -1 -4 144.59 5.5
-5 -1 -4 138.71 5.14
-5 -1 -4 137.23 5.34
-5 -1 -4 128.53 3.93
5 -1 4 116.36 4.52
-5 -1 -4 132.02 5.33
-5 -1 -4 147.92 5.18
-5 -1 -5 204.84 7.48
-5 -1 -5 194.47 7.32
-5 -1 -5 213.81 6.7
-5 -1 -5 195.46 6.9
-5 -1 -5 201.65 6.19
-5 -1 -5 207.11 6.24
-5 -1 -5 205.64 6.33
-5 -1 -5 195.58 5.12
-5 -1 -5 205.06 6.68
-5 -1 -5 199.11 6.82
-5 -1 -6 585.79 12.48
-5 -1 -6 574.71 12.36
-5 -1 -6 539.12 13.44
-5 -1 -6 508.66 10.64
-5 -1 -6 539.55 12.37
-5 -1 -6 515.18 11.62
-5 -1 -6 509.09 13.08
-5 -1 -6 502.96 13.53
-5 -1 -6 475.65 13.31
-5 -1 -6 653.51 13.48
-5 -1 -6 539.82 13.08
-5 -1 -7 203.04 6.23
-5 -1 -7 203.3 7.06
-5 -1 -7 200.95 6.95
-5 -1 -7 205.78 7.42
-5 -1 -7 225.28 6.69
-5 -1 -7 197.8 5.97
-5 -1 -7 204.52 6.89
-5 -1 -8 409.19 10.08
-5 -1 -8 364.33 10.26
-5 -1 -9 19.62 1.67
-5 -1 -9 18.52 1.77
-5 -1 -10 90.05 3.13
-5 -1 -10 76.82 3.17
5 0 -13 259.04 5.36
-5 0 13 254.48 5.44
-5 0 12 0.14 0.33
-5 0 12 0.54 0.3
-5 0 12 -0.05 0.32
5 0 -12 0.19 0.3
5 0 -12 0.12 0.32
-5 0 12 0.15 0.35
-5 0 11 595.36 12.78
-5 0 11 604.41 12.96
-5 0 11 603.49 12.87
-5 0 11 582.09 11.82
5 0 -11 608.49 12.17
-5 0 10 -0.23 0.52
-5 0 10 0.08 0.48
-5 0 10 0.08 0.55
-5 0 10 -0.11 0.36
5 0 -10 0.24 0.42
-5 0 9 40 2.76
5 0 -9 39.83 2.49
-5 0 9 37.59 2.74
-5 0 9 38.35 2.77
-5 0 8 0.63 0.6
-5 0 8 -0.09 0.59
-5 0 8 -0.1 0.42
-5 0 8 0.19 0.44
-5 0 8 0.09 0.54
-5 0 7 3.34 0.89
-5 0 7 3.34 0.75
-5 0 7 3.37 0.97
-5 0 7 2.58 0.84
-5 0 7 4.69 1.03
5 0 -7 3.29 0.65
-5 0 7 3.51 0.98
-5 0 6 0.09 0.5
-5 0 6 0.12 0.35
-5 0 6 0.17 0.45
-5 0 6 0.17 0.44
5 0 -6 1.89 0.53
-5 0 6 0.36 0.42
-5 0 6 -0.09 0.47
-5 0 5 1095.64 22.53
-5 0 5 1156.04 22.61
-5 0 5 1137.45 22.48
5 0 -5 1187.69 21.59
-5 0 5 1129.69 22.67
-5 0 5 1099.33 22.57
-5 0 4 -0.08 0.46
-5 0 4 -0.08 0.42
-5 0 4 0.28 0.45
-5 0 4 0.22 0.49
5 0 -4 0.49 0.49
-5 0 4 0.32 0.44
-5 0 4 0.16 0.4
-5 0 3 318.19 8.55
-5 0 3 332.84 8.81
-5 0 3 319.53 7.42
-5 0 3 341.21 8.65
-5 0 3 319.56 8.44
5 0 -3 333.1 8.4
-5 0 3 337.08 8.81
-5 0 3 324.95 8.71
-5 0 2 2.79 0.76
-5 0 2 0.15 0.19
-5 0 2 0.93 0.45
-5 0 2 0.07 0.43
-5 0 2 3.18 0.73
-5 0 2 2.57 0.67
-5 0 2 3.31 0.77
-5 0 2 2.22 0.68
-5 0 1 318 8.32
-5 0 1 346.65 9.43
-5 0 1 337.71 8.6
-5 0 1 317.8 8.08
-5 0 1 293.16 7.9
-5 0 1 350.83 9.02
-5 0 1 334.87 8.61
5 0 -1 313.47 7.14
-5 0 1 298.32 8.13
-5 0 1 319.55 8.25
-5 0 0 0.2 0.29
-5 0 0 -0.18 0.46
-5 0 0 -0.13 0.46
-5 0 0 -0.15 0.41
-5 0 0 0.18 0.34
-5 0 0 0.08 0.39
-5 0 0 0.27 0.27
-5 0 0 0.12 0.35
5 0 0 0.13 0.25
-5 0 0 0.33 0.33
-5 0 0 0.26 0.33
-5 0 0 -0.15 0.45
-5 0 -1 24.43 1.67
-5 0 -1 24.63 1.93
-5 0 -1 28.64 2.41
-5 0 -1 28.75 2.15
-5 0 -1 26.99 1.88
-5 0 -1 26.25 1.88
-5 0 -1 25.9 1.58
-5 0 -1 26.46 2.12
-5 0 -1 24.63 2
5 0 1 23.54 1.56
-5 0 -1 25.12 2.06
-5 0 -1 25.16 1.92
-5 0 -2 0.15 0.33
-5 0 -2 0.8 0.64
-5 0 -2 -0.07 0.38
-5 0 -2 0.24 0.4
-5 0 -2 0.25 0.36
-5 0 -2 0.31 0.41
-5 0 -2 0.29 0.25
-5 0 -2 -0.15 0.39
-5 0 -2 0.06 0.37
5 0 2 -0.05 0.3
-5 0 -2 0.08 0.46
-5 0 -2 0.07 0.36
-5 0 -3 102.49 4.16
-5 0 -3 100.1 4.86
-5 0 -3 94.58 4.26
-5 0 -3 100.62 3.93
-5 0 -3 108.94 4.09
-5 0 -3 107.02 4.27
-5 0 -3 101.51 4.3
-5 0 -3 93.01 3.46
-5 0 -3 100.06 4.46
-5 0 -3 105.4 4.2
-5 0 -4 0.44 0.59
-5 0 -4 -0.05 0.32
-5 0 -4 -0.23 0.5
-5 0 -4 0.11 0.61
-5 0 -4 0.35 0.47
-5 0 -4 0.38 0.55
-5 0 -4 0.13 0.39
-5 0 -4 -0.08 0.34
-5 0 -4 -0.07 0.41
-5 0 -4 -0.14 0.41
5 0 4 -0.06 0.27
-5 0 -4 -0.08 0.35
-5 0 -4 0.65 0.61
-5 0 -5 152.27 6.47
-5 0 -5 147.41 6.35
-5 0 -5 191.11 6.19
-5 0 -5 174.52 6.46
-5 0 -5 176.32 5.67
-5 0 -5 200.27 5.96
-5 0 -5 167.63 5.6
-5 0 -5 170.77 4.92
-5 0 -5 170.46 5.45
-5 0 -5 174.01 6.45
5 0 5 133.4 4.89
-5 0 -5 170.11 6.25
-5 0 -6 -0.3 0.58
-5 0 -6 -0.29 0.47
-5 0 -6 0.07 0.42
-5 0 -6 0.3 0.51
-5 0 -6 0.15 0.32
-5 0 -6 -0.35 0.7
-5 0 -6 0.18 0.65
-5 0 -6 0.23 0.62
-5 0 -6 0.77 0.5
-5 0 -7 230.54 5.96
-5 0 -7 222.17 6.69
-5 0 -7 207.87 7.28
-5 0 -7 213.43 7.71
-5 0 -7 250.68 7.18
-5 0 -7 239.99 7.52
-5 0 -8 0.05 0.33
-5 0 -8 0.98 0.66
-5 0 -8 0.9 0.6
-5 0 -9 27.64 2.17
-5 0 -9 27.78 1.46
-5 0 -9 30.28 2.1
-5 0 -10 0.05 0.3
-5 0 -10 0.17 0.42
-5 1 13 176.36 4.04
-5 1 12 0.05 0.33
-5 1 12 0.31 0.32
5 1 -12 0.46 0.32
-5 1 12 0.32 0.29
-5 1 12 0.32 0.37
-5 1 11 691.5 14.4
-5 1 11 695.97 14.56
5 1 -11 709.25 13.77
-5 1 11 731.55 13.65
-5 1 11 661.46 14.36
5 1 -11 725.19 13.96
-5 1 10 300.93 8.54
-5 1 10 302.96 8.49
-5 1 10 321.68 8.76
5 1 -9 34.77 2.29
-5 1 9 32.77 2.5
-5 1 9 35.64 2.6
-5 1 9 31.04 2.41
-5 1 8 37.23 2.71
-5 1 8 35.87 2.65
-5 1 8 35.85 2.25
5 1 -8 29.97 1.82
-5 1 8 32.77 2.57
-5 1 8 32.38 2.56
-5 1 8 35.44 2.6
-5 1 7 0.37 0.54
-5 1 7 -0.06 0.41
-5 1 7 0.27 0.55
5 1 -7 1.23 0.45
-5 1 7 0.37 0.47
-5 1 7 0.09 0.45
-5 1 7 1.67 0.69
-5 1 6 557.02 13.2
-5 1 6 557.61 13.12
-5 1 6 552.93 11.9
5 1 -6 517.46 11.6
-5 1 6 607.14 13.57
-5 1 6 568.14 13.27
-5 1 6 587.19 13.21
-5 1 5 374.06 9.7
-5 1 5 371.6 9.56
-5 1 5 350.61 8.36
5 1 -5 357.6 8.62
-5 1 5 345.74 9.43
-5 1 5 377.05 9.73
-5 1 5 345.9 9.28
-5 1 4 209.34 6.67
-5 1 4 220.59 6.69
-5 1 4 213.32 5.67
-5 1 4 211.64 6.59
5 1 -4 219.35 6.22
-5 1 4 220.26 6.83
-5 1 4 210.21 6.66
-5 1 3 0.6 0.5
-5 1 3 1.66 0.44
-5 1 3 0.42 0.49
-5 1 3 0.34 0.43
-5 1 3 0.29 0.38
-5 1 3 0.59 0.48
-5 1 3 0.21 0.39
-5 1 2 71.01 3.36
-5 1 2 77.21 3.56
-5 1 2 73.57 3.34
-5 1 2 71.32 3.3
-5 1 2 71.97 3.42
5 1 -2 70.75 3.26
-5 1 2 73.01 3.43
-5 1 2 69.38 3.29
-5 1 1 0.92 0.69
-5 1 1 1.07 0.47
-5 1 1 0.65 0.48
-5 1 1 1.05 0.49
-5 1 1 0.52 0.4
-5 1 1 1.13 0.54
-5 1 1 0.69 0.45
5 1 -1 1.21 0.58
-5 1 1 0.87 0.43
-5 1 1 1.27 0.53
-5 1 0 139.91 4.91
-5 1 0 140.32 4.56
-5 1 0 151.65 5.83
-5 1 0 142.4 4.76
-5 1 0 140.9 4.76
-5 1 0 135.77 5.01
-5 1 0 149.01 5.11
-5 1 0 138.85 4.32
-5 1 0 159.17 5.39
5 1 0 152 5.14
-5 1 0 141.22 4.9
-5 1 0 135.2 4.84
-5 1 0 149.99 5.37
-5 1 -1 70.62 3.09
-5 1 -1 76.32 3.42
-5 1 -1 71.66 3.93
-5 1 -1 71.84 3.2
-5 1 -1 76.39 3.3
-5 1 -1 73.29 3.54
-5 1 -1 70.71 2.9
-5 1 -1 78.98 3.57
-5 1 -1 72.52 3.49
5 1 1 89.58 3.76
-5 1 -1 73.19 3.64
-5 1 -1 78.51 3.47
-5 1 -2 209.87 6.16
-5 1 -2 232.41 6.42
-5 1 -2 216.2 6.79
-5 1 -2 222.21 6.63
-5 1 -2 217.72 6.61
-5 1 -2 227.91 6.2
-5 1 -2 230.88 5.86
-5 1 -2 210.6 6.94
-5 1 -2 223.39 6.59
-5 1 -2 229.88 6.67
-5 1 -2 227.65 7.69
-5 1 -3 11.95 1.39
-5 1 -3 11.25 1.63
-5 1 -3 11.91 1.3
-5 1 -3 12.24 1.31
-5 1 -3 13.73 1.56
-5 1 -3 11.72 1.36
-5 1 -3 12.7 1.4
-5 1 -3 12.78 1.26
-5 1 -3 12.12 1.1
5 1 3 13.59 1.42
-5 1 -3 12.51 1.56
-5 1 -3 12.57 1.39
-5 1 -4 128.49 5.43
-5 1 -4 137.97 5.34
-5 1 -4 147.86 4.94
-5 1 -4 140.69 4.84
-5 1 -4 126.2 4.63
-5 1 -4 138.66 4.53
-5 1 -4 132.78 4.01
-5 1 -4 131.58 5.84
-5 1 -4 117.2 5.54
-5 1 -4 147.55 5.18
-5 1 -4 129.42 5.39
-5 1 -4 144.49 5.09
-5 1 -5 193.84 6.98
-5 1 -5 221.86 6.41
-5 1 -5 209.17 6.27
-5 1 -5 199.97 5.13
-5 1 -5 212.65 5.88
-5 1 -5 205.1 5.84
-5 1 -5 173.64 7.09
-5 1 -5 185.1 7.26
-5 1 -5 226.17 6.83
-5 1 -5 200.61 6.95
-5 1 -6 543.72 12.1
-5 1 -6 559.39 12.09
-5 1 -6 481.91 12.81
-5 1 -6 489.81 12.72
-5 1 -6 491.19 13.4
-5 1 -6 637.32 13.47
-5 1 -6 438.43 12.96
-5 1 -6 578.67 11.51
-5 1 -7 215.95 5.83
-5 1 -7 211.45 6.33
-5 1 -7 206.36 7.03
-5 1 -7 200.34 6.85
-5 1 -7 200.54 7.35
-5 1 -7 224.69 6.69
-5 1 -8 386.73 9.83
-5 1 -8 384.34 8.54
-5 1 -8 369.84 10.27
-5 1 -9 19.81 1.65
-5 1 -9 18.8 1.29
-5 1 -9 20.96 1.85
-5 1 -10 83.64 2.96
-5 1 -10 90.31 3.3
-5 2 12 0.84 0.37
-5 2 12 1.6 0.42
5 2 -12 0.95 0.32
-5 2 12 1.38 0.38
-5 2 12 1.21 0.42
5 2 -12 1.1 0.36
5 2 -11 -0.03 0.08
-5 2 11 2.12 0.62
-5 2 11 2.39 0.63
5 2 -11 2.08 0.5
-5 2 11 2.33 0.55
-5 2 11 2.51 0.65
5 2 -11 1.91 0.53
5 2 -10 24.27 1.69
-5 2 10 20.79 1.83
-5 2 10 24.32 1.9
-5 2 10 22.04 1.83
5 2 -9 6.36 0.97
-5 2 9 9.56 1.34
-5 2 9 8.76 1.28
-5 2 9 7.32 1.02
-5 2 8 0.42 0.46
5 2 -8 0.32 0.43
-5 2 8 -0.09 0.55
-5 2 8 0.25 0.4
-5 2 8 0.26 0.55
-5 2 7 27.82 2.26
-5 2 7 24.67 1.83
-5 2 7 25.56 2.14
-5 2 7 27.65 2.27
5 2 -7 24.84 1.74
-5 2 7 27.31 2.27
-5 2 7 24.91 2.2
-5 2 6 2.27 0.63
-5 2 6 5.88 1.06
-5 2 6 2.5 0.79
-5 2 6 6.1 1.13
5 2 -6 1.46 0.53
-5 2 6 1.91 0.71
-5 2 6 1.99 0.7
-5 2 5 6.23 1.08
-5 2 5 5.97 0.86
-5 2 5 7.28 1.17
-5 2 5 5.25 0.98
5 2 -5 5.59 0.89
-5 2 5 6.35 1.09
-5 2 5 6.79 1.12
-5 2 4 39.78 2.6
-5 2 4 46.01 2.7
-5 2 4 42.31 2.14
-5 2 4 43.87 2.71
-5 2 4 40.69 2.6
-5 2 4 40.54 2.53
-5 2 3 348.67 8.87
-5 2 3 365.42 8.85
-5 2 3 340.55 8.77
-5 2 3 360.23 9.08
5 2 -3 330.51 8.47
-5 2 3 325.1 8.07
-5 2 3 351.95 8.94
-5 2 3 365.64 9.11
-5 2 2 150.5 5.03
-5 2 2 149.25 4.92
-5 2 2 139.29 4.78
-5 2 2 146.76 5.1
5 2 -2 135.51 4.76
-5 2 2 143.27 5
-5 2 2 146.7 5
-5 2 2 129.72 4.25
-5 2 1 247.46 6.85
-5 2 1 246.72 6.69
-5 2 1 254.22 6.75
-5 2 1 248.09 7.06
-5 2 1 225.47 6.25
5 2 -1 250.93 6.8
-5 2 1 253.13 6.93
-5 2 1 236.47 6.76
-5 2 1 231.9 6.04
-5 2 0 1599.87 29.64
-5 2 0 1682.84 30.25
-5 2 0 1745.1 32.07
-5 2 0 1626.14 29.74
-5 2 0 1780.68 29.96
-5 2 0 1567.07 30.21
-5 2 0 1740.55 29.51
-5 2 0 1741.86 30.72
5 2 0 1868.19 30.3
-5 2 0 1662.49 30.22
-5 2 0 1694.75 30.9
-5 2 -1 47.22 2.55
-5 2 -1 46.54 2.63
-5 2 -1 48.7 3.24
-5 2 -1 47.76 2.51
-5 2 -1 53.14 2.63
-5 2 -1 48.12 2.8
-5 2 -1 53.02 2.5
-5 2 -1 49.99 2.78
5 2 1 45.97 2.54
-5 2 -1 53.59 3.09
-5 2 -1 47.19 2.66
-5 2 -2 118.85 4.42
-5 2 -2 115.27 5.22
-5 2 -2 106.76 4.44
-5 2 -2 113.75 4.12
-5 2 -2 120.78 4.22
-5 2 -2 111.93 4.15
-5 2 -2 120.81 4.47
-5 2 -2 117.58 4.23
-5 2 -2 109.23 3.89
5 2 2 115.99 4.16
-5 2 -2 112.16 4.73
-5 2 -2 121.38 4.48
-5 2 -3 0.4 0.54
-5 2 -3 0.6 0.41
-5 2 -3 0.8 0.46
-5 2 -3 0.37 0.47
-5 2 -3 0.56 0.42
-5 2 -3 0.68 0.46
-5 2 -3 0.91 0.52
-5 2 -3 0.96 0.77
-5 2 -3 0.97 0.64
-5 2 -3 0.63 0.43
-5 2 -4 4.58 0.98
-5 2 -4 5.39 0.91
-5 2 -4 6.03 0.93
-5 2 -4 6.79 0.98
-5 2 -4 5.07 0.79
-5 2 -4 5.31 0.9
-5 2 -4 6.38 1.05
-5 2 -4 4.41 1.13
-5 2 -4 6.68 1.04
-5 2 -4 5.66 1.15
-5 2 -5 9.88 1.49
-5 2 -5 12.79 1.37
-5 2 -5 12.25 1.11
-5 2 -5 13.91 1.36
-5 2 -5 11.53 1.3
-5 2 -5 7.94 1.45
-5 2 -5 14.22 1.57
-5 2 -5 10.67 1.65
-5 2 -5 10.45 1.49
-5 2 -6 3.62 0.8
-5 2 -6 3.16 0.73
-5 2 -6 3.63 0.91
-5 2 -6 2.28 0.93
-5 2 -6 4.43 1.05
-5 2 -6 3.1 0.6
-5 2 -7 30.58 2.58
-5 2 -7 36.55 2.33
-5 2 -7 32.75 2.44
-5 2 -7 34.53 2.07
-5 2 -7 35.51 1.78
-5 2 -8 63.01 3.48
-5 2 -8 67.48 3.29
-5 2 -8 66.37 2.77
-5 2 -9 381.2 9.27
-5 2 -9 393.22 8.87
-5 2 -9 377.22 8.16
-5 2 -10 127.1 3.75
-5 2 -10 123.73 3.21
-5 2 -10 116.12 3.41
-5 3 12 3.84 0.49
-5 3 11 7.69 0.86
-5 3 11 8.49 0.92
5 3 -11 9.95 0.85
-5 3 11 8.27 0.91
5 3 -11 7 0.77
5 3 -10 82.53 3.02
-5 3 10 80.48 3.41
-5 3 10 83.39 3.36
-5 3 10 86.13 3.43
-5 3 10 81.93 3.16
5 3 -9 367.12 8.4
-5 3 9 360.7 9.19
-5 3 9 351.63 8.95
-5 3 9 381.03 9.25
-5 3 9 360.71 8.59
5 3 -8 913.21 17.85
-5 3 8 949.79 18.95
-5 3 8 946.55 18.69
-5 3 8 961.36 18.87
-5 3 8 897.47 17.91
-5 3 7 627.49 13.62
-5 3 7 619.43 12.83
-5 3 7 598.83 13.61
-5 3 7 615.1 13.5
-5 3 7 628.22 13.84
-5 3 7 610.34 13.71
-5 3 6 51.48 2.92
-5 3 6 46.79 2.48
-5 3 6 51.14 2.88
-5 3 6 46.9 2.87
5 3 -6 46.13 2.5
-5 3 6 45.59 2.85
-5 3 6 40.87 2.71
-5 3 5 0.77 0.52
-5 3 5 1.36 0.58
-5 3 5 1.47 0.49
-5 3 5 0.87 0.47
-5 3 5 0.47 0.45
-5 3 4 119.04 4.48
-5 3 4 110.9 4.29
-5 3 4 118.97 4.44
-5 3 4 112.95 3.72
-5 3 4 110.56 4.47
5 3 -4 114.66 4.16
-5 3 4 110.21 4.21
-5 3 4 116.19 4.51
-5 3 4 115.19 4.52
-5 3 3 10.45 1.27
-5 3 3 11.06 1.27
-5 3 3 9.14 1.18
-5 3 3 11.07 1.36
5 3 -3 9.26 1.14
-5 3 3 9.76 1.23
-5 3 3 11.61 1.3
-5 3 3 10.86 1.23
-5 3 2 20.92 1.74
-5 3 2 24.29 1.78
-5 3 2 19.39 1.6
-5 3 2 22.93 1.86
-5 3 2 21.41 1.66
5 3 -2 21.11 1.67
-5 3 2 20.64 1.72
-5 3 2 20.37 1.7
-5 3 2 23.18 1.75
-5 3 1 38.44 2.34
-5 3 1 34.56 2.1
-5 3 1 32.56 2.05
-5 3 1 40.39 2.47
5 3 -1 40.1 2.27
-5 3 1 38.57 2.31
-5 3 1 32.95 2.16
-5 3 1 35.71 2.15
-5 3 0 335.91 8.44
-5 3 0 348.92 9.75
-5 3 0 326.79 8.1
-5 3 0 353.83 8.25
-5 3 0 342.47 8.76
-5 3 0 324.65 8.09
-5 3 0 322.15 8.08
-5 3 0 334.95 8.42
-5 3 -1 336.25 8.31
-5 3 -1 326.53 9.47
-5 3 -1 314.36 7.86
-5 3 -1 300.94 7.8
-5 3 -1 328.79 8.6
-5 3 -1 339.27 8.02
5 3 1 351.48 8.07
-5 3 -1 327.99 8.89
-5 3 -1 323.76 7.91
-5 3 -1 336.17 8.36
-5 3 -2 118.44 4.32
-5 3 -2 104.52 4.91
-5 3 -2 119.74 4.14
-5 3 -2 122.22 4.15
-5 3 -2 104.51 4.37
-5 3 -2 110.79 3.97
5 3 2 107.05 3.71
-5 3 -2 114.84 4.71
-5 3 -2 117.96 4.3
-5 3 -3 71.54 3.5
-5 3 -3 71.73 3.12
-5 3 -3 66.34 2.91
-5 3 -3 70.19 3.09
-5 3 -3 71.55 3.29
-5 3 -3 67.13 3.86
-5 3 -3 72.36 3.68
-5 3 -3 61.74 3.08
-5 3 -4 690.21 13.74
-5 3 -4 646.1 13.18
-5 3 -4 683.01 13.71
-5 3 -4 667.39 14.13
-5 3 -4 664.43 14.78
-5 3 -5 122.15 4.37
-5 3 -5 127.4 4.08
-5 3 -5 125.95 4.41
-5 3 -5 122.47 4.35
-5 3 -5 111.91 5.2
-5 3 -5 127.69 5.09
-5 3 -6 201.82 5.96
-5 3 -6 207.24 7.1
-5 3 -6 195.32 6.49
-5 3 -6 207.47 5.91
-5 3 -6 211.6 5.52
-5 3 -7 13.89 1.64
-5 3 -7 11.79 1.37
-5 3 -7 13.21 1.24
-5 3 -7 12.83 1.09
-5 3 -8 50.83 2.81
-5 3 -8 49.28 2.52
-5 3 -8 56.28 2.47
-5 3 -8 47.85 1.99
-5 3 -9 306.34 6.64
-5 3 -9 301.5 6.66
-5 3 -10 25.96 1.2
-5 4 11 3.69 0.54
5 4 -10 17.88 1.12
-5 4 10 16.87 1.2
-5 4 10 -0.04 0.14
-5 4 10 -0.04 0.13
-5 4 10 17.28 1.25
5 4 -10 14.68 1.01
-5 4 9 37.79 2.04
-5 4 9 38.22 2.13
5 4 -9 35.04 1.8
-5 4 9 38.76 2.09
-5 4 9 37.49 2.08
-5 4 9 39.04 2.07
-5 4 8 28.45 1.88
-5 4 8 26.8 1.9
5 4 -8 28.22 1.73
-5 4 8 25.57 1.82
-5 4 8 27.21 1.84
-5 4 8 29.53 1.94
-5 4 7 7.13 1.01
-5 4 7 5.54 0.93
5 4 -7 5.84 0.9
-5 4 7 6.86 1
-5 4 7 6.14 0.92
-5 4 7 8.04 1.08
-5 4 6 10.77 1.22
-5 4 6 10.11 1.21
-5 4 6 9.29 1.09
-5 4 6 9.94 1.24
5 4 -6 10.44 1.21
-5 4 6 10.89 1.27
-5 4 5 101.17 3.96
-5 4 5 104.17 3.93
-5 4 5 103.71 3.95
-5 4 5 99.99 3.58
-5 4 5 99.2 4.01
5 4 -5 96.15 3.83
-5 4 5 100.08 4.02
-5 4 4 49.78 2.64
-5 4 4 48.13 2.55
-5 4 4 49.64 2.57
-5 4 4 47.84 2.67
5 4 -4 46.91 2.57
-5 4 4 51.61 2.73
-5 4 4 52.48 2.91
-5 4 3 9.32 1.17
-5 4 3 10.21 1.15
-5 4 3 10.61 1.16
-5 4 3 9.03 1.18
-5 4 3 11.16 1.27
5 4 -3 11.88 1.26
-5 4 3 10.01 1.18
-5 4 3 11.08 1.36
-5 4 2 592.92 12.3
-5 4 2 566.53 11.95
-5 4 2 585.46 12.03
-5 4 2 559.96 12.44
-5 4 2 577.86 12.22
5 4 -2 580.43 12.24
-5 4 2 587.58 12.29
-5 4 2 582.96 12.76
-5 4 1 627.17 13.66
-5 4 1 641.4 13.27
-5 4 1 624.69 12.93
-5 4 1 642 12.97
-5 4 1 665.23 13.67
-5 4 1 662.94 13.53
5 4 -1 681.02 13.21
-5 4 1 657.85 13.93
-5 4 1 628.14 13.23
-5 4 0 18.47 1.65
-5 4 0 14.86 1.37
-5 4 0 17.28 1.38
-5 4 0 23.83 1.62
-5 4 0 22.36 1.77
-5 4 0 15.85 1.45
5 4 0 15.96 1.37
-5 4 0 15.92 1.55
-5 4 0 17.49 1.51
-5 4 -1 572.36 11.96
-5 4 -1 538.43 11.47
-5 4 -1 549.48 11.51
-5 4 -1 568.82 12.26
5 4 1 541.14 11.73
-5 4 -1 543.48 12.22
-5 4 -2 446.16 9.7
-5 4 -2 407.76 10.62
-5 4 -2 413.96 9.15
-5 4 -2 430.22 9.26
-5 4 -2 416.61 9.84
-5 4 -2 393.83 9.7
-5 4 -2 403.57 9.45
5 4 2 400.8 9.25
-5 4 -2 392.5 10.08
-5 4 -2 402.2 9.73
-5 4 -3 24.57 1.68
-5 4 -3 26.28 1.74
-5 4 -3 23.69 1.83
-5 4 -3 22.81 1.71
-5 4 -3 24.08 1.79
-5 4 -3 24.45 2.19
-5 4 -3 26.74 2.09
-5 4 -3 24.78 1.84
-5 4 -4 18.5 1.45
-5 4 -4 18.98 1.5
-5 4 -4 20.8 1.74
-5 4 -4 14.81 1.76
-5 4 -4 18.99 1.74
-5 4 -4 20.33 1.68
-5 4 -4 18.38 1.48
-5 4 -5 20.43 1.56
-5 4 -5 22.31 1.69
-5 4 -5 23.36 1.61
-5 4 -5 21.38 1.81
-5 4 -5 22.48 1.72
-5 4 -5 20.46 1.95
-5 4 -6 12.57 1.26
-5 4 -6 12.35 1.12
-5 4 -6 12.46 1.35
-5 4 -6 11.64 1.44
-5 4 -7 79.05 2.84
-5 4 -7 77.56 3.09
-5 4 -7 71.04 3.2
-5 4 -8 0.38 0.3
-5 4 -8 0.37 0.3
-5 5 10 -0.07 0.23
5 5 -10 0.11 0.2
-5 5 9 122.22 3.78
5 5 -9 128.98 3.76
-5 5 8 3.69 0.6
5 5 -8 2.97 0.65
-5 5 7 25.97 1.63
-5 5 7 29.89 1.83
-5 5 6 88.76 3.34
-5 5 6 83.63 3.22
-5 5 5 61.93 2.86
-5 5 5 66.04 2.7
5 5 -4 13.59 1.37
-5 5 4 14.57 1.58
-5 5 4 13.04 1.33
5 5 -3 83.61 3.46
-5 5 3 85.72 3.97
-5 5 3 87.94 3.59
-5 5 2 1.93 0.7
5 5 -2 1.81 0.55
-5 5 2 3.79 0.84
-5 5 2 2 0.61
-5 5 1 6.58 1.12
5 5 -1 7.1 0.95
-5 5 1 6.2 1.03
-5 5 1 6.98 1.02
5 5 0 187.52 5.71
-5 5 0 180.74 6.1
-5 5 0 186.04 5.81
-5 5 0 199.68 5.76
-5 5 -1 5.3 1.01
5 5 1 4.81 0.84
-5 5 -1 4.22 0.84
-5 5 -1 4.78 0.86
5 5 2 753.4 14.79
-5 5 -2 733.84 14.93
-5 5 -2 746.29 14.72
-5 5 -3 1052.27 20.59
-5 5 -3 1089.47 20.42
-5 5 -4 6.81 1.01
-5 5 -4 7.85 0.99
-5 5 -4 10.16 1.15
-5 5 -5 241.54 5.87
-5 5 -5 251.97 5.78
-5 5 -6 4.04 0.7
-5 5 -6 3.95 0.66
-5 5 -7 67.18 2.59
-5 5 -7 62.17 2.42
-5 5 -8 24.8 1.29
-5 5 -8 24.97 1.38
-5 5 -9 0.18 0.19
5 6 -9 15.26 1.03
-5 6 9 13.16 0.93
-5 6 8 13.85 1.05
5 6 -7 1.54 0.48
-5 6 7 1.6 0.43
-5 6 6 3.78 0.62
5 6 -6 3.93 0.74
-5 6 6 3.22 0.56
5 6 -5 41.67 2.24
-5 6 5 37.42 1.98
5 6 -4 52.93 2.53
-5 6 4 47.13 2.5
-5 6 4 45.79 2.83
-5 6 4 48.63 2.37
5 6 -3 624.63 12.29
-5 6 3 578.79 12.59
-5 6 3 571.37 13.44
-5 6 3 611.43 12.41
5 6 -2 70.6 2.79
-5 6 2 64.77 3.01
-5 6 2 59.92 3.36
-5 6 2 62.47 2.88
5 6 -1 140.21 4.06
-5 6 1 142.4 4.71
-5 6 1 134.18 4.5
-5 6 0 49.83 2.99
-5 6 0 51.04 2.63
-5 6 0 52.71 2.62
-5 6 -1 141.46 5.36
-5 6 -1 152.09 4.8
-5 6 -2 500.72 10.75
-5 6 -2 525.93 10.79
-5 6 -3 836.83 16.09
-5 6 -3 871.14 16.13
-5 6 -4 144.92 4.79
-5 6 -4 144.5 4.44
-5 6 -5 0.49 0.35
-5 6 -5 0.09 0.25
-5 6 -6 3.45 0.59
-5 6 -6 3.74 0.61
-5 6 -7 42.14 1.79
-5 6 -7 41.9 1.76
-5 6 -8 2.27 0.35
-5 6 -8 2.68 0.38
5 7 -7 13.55 1.07
5 7 -6 2.83 0.58
5 7 -5 168.02 4.7
-5 7 5 156.02 4.24
5 7 -4 109.17 3.61
-5 7 4 97.53 3.3
-5 7 4 105.48 3.21
5 7 -3 4.56 0.71
-5 7 3 2.71 0.57
-5 7 3 3.46 0.85
-5 7 3 2.92 0.58
5 7 -2 41.03 2
-5 7 2 39.12 2.55
-5 7 2 38 2.01
-5 7 2 39.51 2.02
-5 7 1 90.08 3.99
-5 7 1 98.61 3.42
-5 7 1 96.15 3.4
-5 7 0 43.01 2.65
-5 7 0 45.11 2.2
-5 7 0 43.11 2.17
-5 7 -1 23.06 1.91
-5 7 -1 26.11 1.64
-5 7 -1 24.13 1.56
-5 7 -2 371 8.01
-5 7 -2 356.22 7.8
-5 7 -3 1.94 0.48
-5 7 -3 2.53 0.67
-5 7 -3 2.24 0.56
-5 7 -4 74.06 2.96
-5 7 -4 77.98 2.66
-5 7 -4 83.01 2.87
-5 7 -5 114.89 2.89
-5 7 -5 113.38 2.62
-5 7 -6 0.67 0.26
-5 7 -7 0.06 0.17
5 8 -7 142.1 3.55
5 8 -6 131.08 3.59
5 8 -5 58.3 2.26
5 8 -4 4.17 0.62
5 8 -3 20.59 1.3
-5 8 2 22.82 1.19
-5 8 1 235.44 6.55
-5 8 1 247.44 5.43
-5 8 0 332.46 8.19
-5 8 0 346.26 7.12
-5 8 -1 732.85 14.79
-5 8 -1 776.34 13.81
-5 8 -2 153.09 4.62
-5 8 -2 162.29 4.07
-5 8 -3 55.86 2.33
-5 8 -3 60.08 2.14
-5 8 -4 9.21 0.79
-5 8 -4 11.64 0.85
-5 8 -5 12.69 0.8
-5 9 0 3.12 0.54
-5 9 -1 120.11 3.38
-6 -8 4 9.87 0.75
-6 -8 3 3.52 0.5
-6 -8 0 61.15 2.14
-6 -8 0 51.36 1.81
-6 -8 -1 428.58 8.21
-6 -8 -1 416.61 8.1
-6 -8 -2 139.76 3.46
6 -7 -7 221.57 4.35
-6 -7 7 209.2 4.48
6 -7 -6 27.13 1.23
-6 -7 6 27.22 1.38
6 -7 -5 7.97 0.7
6 -7 -5 7.48 0.75
-6 -7 5 7.69 0.79
6 -7 -4 0.09 0.21
6 -7 -4 -0.07 0.26
6 -7 -3 52.84 1.92
6 -7 -3 53.04 2.18
-6 -7 2 -0.04 0.14
-6 -7 2 3.84 0.67
-6 -7 1 26.42 1.65
-6 -7 1 25.26 1.51
-6 -7 1 22.8 1.53
-6 -7 0 2.69 0.6
-6 -7 0 3.63 0.64
-6 -7 0 2.7 0.58
-6 -7 0 2.95 0.66
-6 -7 -1 20.9 1.41
-6 -7 -1 21.02 1.56
-6 -7 -1 20.46 1.45
-6 -7 -2 8.12 0.86
-6 -7 -2 7.76 0.98
-6 -7 -2 8.75 0.97
-6 -7 -3 490.62 9.49
-6 -7 -3 476.83 10.04
-6 -7 -3 489.6 9.93
-6 -7 -4 7.73 0.78
-6 -6 8 98.94 2.9
6 -6 -8 102.32 2.78
6 -6 -8 102.34 2.72
-6 -6 7 9.68 0.9
6 -6 -7 9.88 0.86
6 -6 -7 10.72 0.84
6 -6 -6 18.78 1.29
6 -6 -6 19.61 1.21
6 -6 -5 32.93 1.84
6 -6 -5 34.28 1.69
6 -6 -4 138.11 3.86
-6 -6 4 134.94 4.4
6 -6 -3 1.29 0.41
-6 -6 3 1.52 0.55
-6 -6 2 185.02 5.5
-6 -6 2 174.68 5.32
6 -6 -2 189.96 4.54
-6 -6 2 185.96 5.43
-6 -6 1 8.62 1.05
-6 -6 1 7.18 0.93
-6 -6 1 8.55 1.15
-6 -6 1 9.38 1.2
-6 -6 0 52.87 2.62
-6 -6 0 53.61 2.58
-6 -6 0 58.14 3.03
-6 -6 0 56.95 2.98
-6 -6 -1 56.94 2.7
-6 -6 -1 58.49 2.72
-6 -6 -1 60.17 3.11
-6 -6 -1 65.45 3.21
-6 -6 -2 1 0.46
-6 -6 -2 0.55 0.48
-6 -6 -2 0.83 0.57
-6 -6 -3 67.24 2.69
-6 -6 -3 69.95 3.21
-6 -6 -3 72.69 3.29
-6 -6 -4 23.71 1.4
-6 -6 -4 26.62 1.82
-6 -6 -5 0.37 0.33
-6 -6 -5 0.21 0.3
6 -5 -9 312.01 6.35
-6 -5 9 352.74 6.97
6 -5 -8 9.14 0.83
6 -5 -8 10.51 0.87
6 -5 -7 180.44 4.87
6 -5 -7 186.98 4.75
-6 -5 6 7.71 1
6 -5 -6 7.53 0.93
6 -5 -6 7.31 0.85
6 -5 -5 241.08 5.93
-6 -5 5 232.31 6.49
6 -5 -4 38.91 1.99
-6 -5 4 41.23 2.4
6 -5 -3 32.34 1.75
-6 -5 3 30.86 2.08
-6 -5 3 29.24 2.03
-6 -5 2 -0.08 0.49
-6 -5 2 -0.07 0.47
6 -5 -2 0.46 0.3
-6 -5 2 -0.05 0.26
-6 -5 2 0.06 0.38
-6 -5 1 38.43 2.6
-6 -5 1 40.59 2.69
-6 -5 1 33.41 2.06
-6 -5 1 37.53 2.28
-6 -5 0 64.84 3.51
-6 -5 0 66.34 3.58
-6 -5 0 64.38 2.99
-6 -5 0 65.52 3.04
-6 -5 -1 55.11 3.23
-6 -5 -1 60.22 3.41
-6 -5 -1 57.81 2.84
-6 -5 -1 58.54 2.79
-6 -5 -2 0.09 0.48
-6 -5 -2 0.25 0.58
-6 -5 -2 0.33 0.38
-6 -5 -3 182.98 6.14
-6 -5 -3 167.03 4.92
-6 -5 -4 197.01 6.05
-6 -5 -4 201.49 6.31
-6 -5 -4 191.99 5.11
-6 -5 -5 38.55 2.18
-6 -5 -6 310.27 6.83
-6 -5 -6 310.79 7.37
-6 -5 -7 127.43 3.43
6 -4 -10 88.14 2.44
6 -4 -9 24.37 1.18
-6 -4 9 -0.03 0.09
6 -4 -8 -0.03 0.12
6 -4 -8 0.11 0.29
-6 -4 8 0.25 0.31
-6 -4 8 0.28 0.29
-6 -4 7 31.94 1.77
6 -4 -7 33.83 1.79
-6 -4 7 34.17 1.98
-6 -4 7 34.53 1.94
-6 -4 7 33.66 1.85
6 -4 -7 34.57 1.92
-6 -4 6 104.13 3.63
-6 -4 6 102.6 3.84
-6 -4 6 106.96 3.82
-6 -4 6 108.66 3.72
-6 -4 5 133.26 4.3
-6 -4 5 130.16 4.28
-6 -4 5 134.12 4.6
-6 -4 5 128.77 4.41
-6 -4 4 292.01 7.26
-6 -4 4 299.68 7.36
-6 -4 4 288.52 7.6
-6 -4 4 301.66 7.82
-6 -4 4 290.33 7.5
-6 -4 3 60.99 2.75
-6 -4 3 58.65 2.73
-6 -4 3 63.51 3.27
-6 -4 3 58.99 3.35
-6 -4 3 63.02 3.07
-6 -4 3 57.6 2.97
-6 -4 3 59.75 2.88
-6 -4 2 69.67 2.94
-6 -4 2 67.08 2.9
-6 -4 2 63.82 3.07
-6 -4 2 76.62 3.76
-6 -4 2 64.1 3.58
6 -4 -2 64.25 2.54
-6 -4 2 65.11 3.16
-6 -4 2 65.04 3.01
-6 -4 1 5 0.76
-6 -4 1 2.11 0.56
-6 -4 1 2.36 0.8
-6 -4 1 1.87 0.77
-6 -4 1 2.97 0.6
-6 -4 1 2.69 0.68
-6 -4 1 2.58 0.71
-6 -4 1 2.35 0.6
-6 -4 0 249.11 6.34
-6 -4 0 235.93 6.5
-6 -4 0 250.07 6.38
-6 -4 0 234.78 7.61
-6 -4 0 240.99 7.87
-6 -4 0 237.16 6.56
-6 -4 0 246.97 6.91
-6 -4 0 251.81 6.66
-6 -4 -1 26.46 1.72
-6 -4 -1 28.8 1.81
-6 -4 -1 30.11 1.94
-6 -4 -1 26.72 2.32
-6 -4 -1 28.77 2.47
-6 -4 -1 26.65 1.96
-6 -4 -1 27.14 1.85
-6 -4 -2 2.04 0.54
-6 -4 -2 2.1 0.84
-6 -4 -2 1.55 0.8
-6 -4 -2 1.63 0.49
-6 -4 -2 2.95 0.62
-6 -4 -2 1.43 0.57
-6 -4 -2 1.48 0.51
-6 -4 -3 13.69 1.19
-6 -4 -3 11.16 1.13
-6 -4 -3 11.74 1.53
-6 -4 -3 11.42 1.1
-6 -4 -3 14.17 1.33
-6 -4 -4 5.43 0.76
-6 -4 -4 6.16 0.85
-6 -4 -4 5 1.05
-6 -4 -4 5.5 1.06
-6 -4 -5 14.85 1.42
-6 -4 -5 16.47 1.54
-6 -4 -5 16.41 1.63
-6 -4 -6 6.92 0.88
-6 -4 -6 7.38 1.02
-6 -4 -7 11.76 1.04
6 -3 -11 1.53 0.27
-6 -3 10 7.05 0.68
6 -3 -10 1.22 0.34
-6 -3 10 7.12 0.71
-6 -3 10 4.24 0.61
6 -3 -10 1.67 0.4
-6 -3 10 1.92 0.44
-6 -3 9 16.88 1.29
6 -3 -9 15.69 1.19
-6 -3 9 15.23 1.24
-6 -3 9 15.17 1.3
-6 -3 9 16.82 1.34
-6 -3 8 93.95 3.57
6 -3 -8 95.82 3.42
-6 -3 8 95.2 3.73
-6 -3 8 96.13 3.7
-6 -3 8 94.59 3.58
6 -3 -8 89.96 3.03
-6 -3 7 348.72 8.51
-6 -3 7 345.59 8.52
6 -3 -7 329.57 7.76
-6 -3 7 340.92 8.74
-6 -3 7 333.54 8.58
-6 -3 6 2.55 0.73
-6 -3 6 2.27 0.68
-6 -3 6 3.04 0.77
-6 -3 6 2.5 0.77
-6 -3 5 125.85 4.68
-6 -3 5 127.98 4.96
-6 -3 5 126.87 4.65
-6 -3 5 123.25 4.77
-6 -3 4 40.79 2.59
-6 -3 4 41 2.7
-6 -3 4 42.83 2.57
-6 -3 4 41.59 2.54
-6 -3 4 39.37 2.51
6 -3 -4 42.78 2.55
6 -3 -4 38.53 2.32
-6 -3 4 44.17 2.72
-6 -3 4 41.62 2.65
-6 -3 3 2.24 0.71
-6 -3 3 8.14 1.22
-6 -3 3 7.45 1.12
-6 -3 3 1.88 0.79
-6 -3 3 2.79 0.82
-6 -3 3 2.98 0.72
6 -3 -3 2.1 0.6
-6 -3 3 2.1 0.67
-6 -3 3 3.37 0.8
-6 -3 2 133.85 4.86
-6 -3 2 125.83 5
-6 -3 2 132.69 4.64
-6 -3 2 126.55 4.59
-6 -3 2 115.79 4.98
-6 -3 2 132.42 5.47
-6 -3 2 116.76 4.27
6 -3 -2 113.12 4.4
-6 -3 2 124.17 4.77
-6 -3 1 6.9 1.05
-6 -3 1 6.24 1.06
-6 -3 1 6.45 1.01
-6 -3 1 5.49 0.9
-6 -3 1 7.29 1.3
-6 -3 1 4.55 1.05
-6 -3 1 6.86 0.95
6 -3 -1 3.9 0.85
-6 -3 1 4.1 0.87
-6 -3 0 378.27 9.17
-6 -3 0 355.72 9.34
-6 -3 0 351.84 8.62
-6 -3 0 366.26 8.77
-6 -3 0 329.79 9.7
-6 -3 0 364.64 10.21
-6 -3 0 340.89 8.2
6 -3 0 307.77 8.7
-6 -3 0 346.81 8.99
-6 -3 -1 1513.76 25.78
-6 -3 -1 1467.89 26.43
-6 -3 -1 1408.09 25.18
-6 -3 -1 1457.57 25.22
-6 -3 -1 1409.27 27.02
-6 -3 -1 1333.04 27.06
-6 -3 -1 1301.41 24.44
6 -3 1 1199.04 25.26
-6 -3 -1 1377.44 25.59
-6 -3 -2 315.05 7.92
-6 -3 -2 335.43 8.11
-6 -3 -2 286.14 7.21
-6 -3 -2 335.26 8.39
-6 -3 -2 291.01 8.91
-6 -3 -2 330.59 8.8
-6 -3 -3 57.93 3.17
-6 -3 -3 58.49 2.8
-6 -3 -3 52.61 3.25
-6 -3 -3 47.6 3.2
-6 -3 -3 58.37 2.83
-6 -3 -3 63.52 3.1
-6 -3 -3 58.4 3.47
-6 -3 -3 57.1 3.16
-6 -3 -4 510.68 10.94
-6 -3 -4 491.62 11.87
-6 -3 -4 491.02 10.82
-6 -3 -4 483.7 12.1
-6 -3 -4 494.89 11.62
-6 -3 -5 40.15 2.47
-6 -3 -5 42.86 2.71
-6 -3 -5 46.15 2.45
-6 -3 -5 43.07 2.77
-6 -3 -5 42.65 2.54
-6 -3 -5 41.71 2.24
-6 -3 -6 56.65 2.77
-6 -3 -6 53.61 2.5
-6 -3 -6 57.08 2.87
-6 -3 -6 56.01 2.95
-6 -3 -7 3.9 0.68
-6 -3 -7 4.21 0.7
-6 -3 -7 3.13 0.73
-6 -3 -8 78.58 2.54
-6 -2 11 1.92 0.41
-6 -2 11 1.95 0.42
6 -2 -11 2.11 0.4
-6 -2 11 1.8 0.41
6 -2 -11 1.65 0.37
-6 -2 11 1.69 0.41
-6 -2 10 185.02 4.74
-6 -2 10 181.63 4.99
6 -2 -10 194.77 4.88
-6 -2 10 191.25 5.08
-6 -2 10 183.31 5.16
-6 -2 10 180.63 5.08
-6 -2 9 0.06 0.36
-6 -2 9 0.12 0.34
6 -2 -9 0.65 0.42
-6 -2 9 0.13 0.41
-6 -2 9 0.31 0.44
-6 -2 8 119.59 4.5
-6 -2 8 123.04 4.18
6 -2 -8 130.43 4.4
-6 -2 8 123.08 4.66
-6 -2 8 121.89 4.53
-6 -2 8 118.74 4.65
-6 -2 7 25.99 2.06
6 -2 -7 26.43 1.64
-6 -2 7 26.94 2.08
-6 -2 7 27.14 1.88
-6 -2 7 27.96 2.21
-6 -2 7 31.38 2.35
-6 -2 6 466.36 11.08
-6 -2 6 460.62 11.34
-6 -2 6 453.18 10.97
-6 -2 6 445.04 10.18
-6 -2 6 432.31 11.01
-6 -2 5 44.31 2.86
-6 -2 5 43.61 2.78
-6 -2 5 43.5 2.39
-6 -2 5 47.48 2.87
-6 -2 5 45.84 2.97
-6 -2 5 40.67 2.5
6 -2 -5 40.71 2.39
-6 -2 5 42.34 2.84
-6 -2 5 45.72 2.93
-6 -2 4 921.59 18.95
-6 -2 4 894.95 17.54
-6 -2 4 954.96 18.87
-6 -2 4 955.73 18.9
-6 -2 4 959.98 19.36
-6 -2 4 921.72 18.65
6 -2 -4 878.47 18.13
-6 -2 4 952.8 19.16
-6 -2 4 875.03 18.8
-6 -2 3 237.9 7.4
-6 -2 3 262.96 7.87
-6 -2 3 254.93 7.34
-6 -2 3 246.5 7.29
-6 -2 3 238.76 7.51
-6 -2 3 276.66 8.36
6 -2 -3 240.91 7.28
-6 -2 3 258.33 7.63
-6 -2 3 237.35 7.4
-6 -2 2 133.86 5.14
-6 -2 2 130.15 5.23
-6 -2 2 129.92 4.83
-6 -2 2 137.91 4.99
-6 -2 2 116.91 5.04
-6 -2 2 137.24 5.65
-6 -2 2 127.28 4.27
6 -2 -2 115.68 4.24
-6 -2 2 130.26 5.05
-6 -2 2 126.67 4.96
-6 -2 1 241.65 7.26
-6 -2 1 259.33 7.74
-6 -2 1 231.75 6.83
-6 -2 1 244.93 7.04
-6 -2 1 247.18 7.75
-6 -2 1 252.34 8.07
-6 -2 1 233.08 6.12
6 -2 -1 216.39 6.45
-6 -2 1 232.34 7.17
-6 -2 0 591.86 13.39
-6 -2 0 625.7 13.14
-6 -2 0 603.11 13.08
-6 -2 0 615.04 13.75
-6 -2 0 629.23 14.32
-6 -2 0 592.16 13.51
-6 -2 -1 16.36 1.67
-6 -2 -1 15.56 1.91
-6 -2 -1 15.89 1.54
-6 -2 -1 17.82 1.66
-6 -2 -1 19.47 1.94
-6 -2 -1 17.23 1.98
6 -2 1 14.61 1.48
-6 -2 -1 13.57 1.56
-6 -2 -2 19.41 1.82
-6 -2 -2 16.93 2.02
-6 -2 -2 19.75 1.71
-6 -2 -2 22.28 1.81
-6 -2 -2 21.42 2.03
-6 -2 -2 22.38 2.15
-6 -2 -2 17.97 2
6 -2 2 16.38 1.56
-6 -2 -2 18.87 1.93
-6 -2 -2 17.14 1.71
-6 -2 -3 12.39 1.56
-6 -2 -3 14.08 1.42
-6 -2 -3 11.63 1.35
-6 -2 -3 10.9 1.49
-6 -2 -3 10.44 1.54
-6 -2 -3 15.3 1.61
-6 -2 -3 10.79 1.61
-6 -2 -3 11.47 1.51
-6 -2 -4 2.05 0.65
-6 -2 -4 1.87 0.73
-6 -2 -4 2.44 0.8
-6 -2 -4 2.66 0.72
-6 -2 -4 3.21 1.04
-6 -2 -4 3.89 0.89
-6 -2 -4 1.47 0.69
-6 -2 -5 6.84 1.02
-6 -2 -5 7.33 1.1
-6 -2 -5 7.38 1.19
-6 -2 -5 7.36 1.02
-6 -2 -5 8.86 1.27
-6 -2 -5 4.87 1.14
-6 -2 -5 7.17 1.17
-6 -2 -6 83.97 3.36
-6 -2 -6 77.53 3.11
-6 -2 -6 82.52 3.49
-6 -2 -6 78.92 3.66
-6 -2 -6 77.21 3.88
-6 -2 -7 5.55 0.76
-6 -2 -7 5.74 1
-6 -2 -7 6.19 0.96
-6 -2 -8 11.84 1.18
-6 -2 -8 11.58 1.07
-6 -1 11 65.22 2.45
-6 -1 11 62.27 2.49
6 -1 -11 57.31 2.16
6 -1 -11 63.63 2.34
-6 -1 11 61.45 2.44
-6 -1 11 63.58 2.42
-6 -1 11 61.87 2.17
-6 -1 10 53.99 2.58
-6 -1 10 54.63 2.69
6 -1 -10 56.33 2.43
-6 -1 10 55.51 2.66
-6 -1 10 54.81 2.61
6 -1 -9 6.89 0.95
-6 -1 9 6.75 1.07
-6 -1 9 6.56 1.03
-6 -1 9 6.35 0.88
-6 -1 9 6.54 1.03
-6 -1 8 22.88 2.03
-6 -1 8 25.14 2.05
-6 -1 8 24.53 1.75
-6 -1 8 24.28 2
-6 -1 7 99.71 4.5
-6 -1 7 99.16 4.36
-6 -1 7 101.47 3.85
-6 -1 7 94.73 4.28
-6 -1 6 16.85 1.79
-6 -1 6 17 1.82
-6 -1 6 17.38 1.5
-6 -1 6 19.78 1.98
-6 -1 6 14.67 1.75
-6 -1 6 17.43 1.83
-6 -1 5 200.27 6.77
-6 -1 5 195.48 6.7
-6 -1 5 219.04 5.96
-6 -1 5 194.74 6.61
-6 -1 5 200.86 6.87
6 -1 -5 193.67 5.99
-6 -1 5 211.56 7
-6 -1 5 200.46 6.82
-6 -1 4 24.39 2.17
-6 -1 4 29.55 2.27
-6 -1 4 24.77 1.72
-6 -1 4 29.28 2.3
-6 -1 4 27.55 2.34
-6 -1 4 27.86 2.21
6 -1 -4 28.45 2.1
-6 -1 4 28.47 2.34
-6 -1 4 25.09 2.17
-6 -1 3 10.12 1.43
-6 -1 3 13.95 1.23
-6 -1 3 11.97 1.51
-6 -1 3 12.44 1.5
-6 -1 3 12.7 1.63
-6 -1 3 11.78 1.51
6 -1 -3 11.37 1.4
-6 -1 3 11.21 1.48
-6 -1 3 11.08 1.47
-6 -1 2 637.72 14.95
-6 -1 2 647.62 14.55
-6 -1 2 640.22 14.34
-6 -1 2 641.65 15.47
-6 -1 2 702.98 14.97
-6 -1 2 649.11 14.65
-6 -1 2 666.3 14.8
-6 -1 1 395.14 10.31
-6 -1 1 376.84 9.49
-6 -1 1 392.88 9.56
-6 -1 1 343.25 8.24
-6 -1 1 359.23 9.92
-6 -1 1 342.54 8.27
-6 -1 1 367.24 9.72
-6 -1 1 377.42 9.74
-6 -1 0 547.09 13.52
-6 -1 0 587.82 13
-6 -1 0 556.92 12.87
-6 -1 0 640.54 14.15
-6 -1 0 556.18 11.66
-6 -1 0 609.03 14.21
-6 -1 0 554.18 13.07
-6 -1 0 619.06 14.79
-6 -1 0 588.89 13.3
-6 -1 -1 6.56 1.23
-6 -1 -1 8.76 1.2
-6 -1 -1 8.25 1.15
-6 -1 -1 3.41 0.98
-6 -1 -1 3.98 1.09
-6 -1 -1 5.9 1.1
-6 -1 -1 2.34 0.83
-6 -1 -1 4.83 1.03
-6 -1 -2 26.44 2.31
-6 -1 -2 24.09 1.95
-6 -1 -2 26.29 2.03
-6 -1 -2 23.19 2.16
-6 -1 -2 27.98 2.39
-6 -1 -2 27.26 2.18
-6 -1 -2 24.95 2.47
-6 -1 -2 26.13 2.32
-6 -1 -2 23.83 2.06
-6 -1 -3 353.81 9.85
-6 -1 -3 373.26 9.13
-6 -1 -3 365.28 9.14
-6 -1 -3 356.81 9.94
-6 -1 -3 344.8 9.26
-6 -1 -3 365.33 9.48
-6 -1 -3 356.6 9.62
-6 -1 -3 351.17 9.75
-6 -1 -4 2.88 0.89
-6 -1 -4 3.35 0.86
-6 -1 -4 2.03 0.71
-6 -1 -4 1.67 0.64
-6 -1 -4 2.46 0.74
-6 -1 -4 2.46 0.77
-6 -1 -4 2.45 0.98
-6 -1 -4 2.05 0.83
-6 -1 -5 2.69 0.76
-6 -1 -5 0.59 0.46
-6 -1 -5 2.57 0.72
-6 -1 -5 1.07 0.57
-6 -1 -5 1.99 0.75
-6 -1 -5 1.7 0.89
-6 -1 -5 2.65 0.93
-6 -1 -6 291.23 7.6
-6 -1 -6 283.87 8.68
-6 -1 -6 286.11 6.92
-6 -1 -6 288.6 7.38
-6 -1 -6 304.57 8.36
-6 -1 -7 9.84 1.23
-6 -1 -7 8.96 1.32
-6 -1 -8 3.81 0.71
-6 -1 -8 2.86 0.76
-6 -1 -9 23.93 1.43
6 0 -12 148.66 3.46
-6 0 12 150.51 3.59
-6 0 12 147.41 3.6
-6 0 11 0.05 0.33
-6 0 11 0.08 0.33
6 0 -11 -0.03 0.27
-6 0 11 0.17 0.34
6 0 -11 0.04 0.28
-6 0 11 0.04 0.32
6 0 -10 70.32 2.81
-6 0 10 66.91 3.08
-6 0 10 65.19 2.95
-6 0 10 63.35 2.92
-6 0 9 0.35 0.43
6 0 -9 0.4 0.39
-6 0 9 0.2 0.35
-6 0 9 0.21 0.42
-6 0 9 -0.08 0.42
-6 0 8 13.9 1.63
-6 0 8 12.73 1.47
-6 0 8 13.41 1.54
-6 0 8 14 1.33
-6 0 7 -0.08 0.54
-6 0 7 0.18 0.49
-6 0 7 0.18 0.36
-6 0 7 0.43 0.62
-6 0 6 76.34 3.91
-6 0 6 74.54 3.82
-6 0 6 75.03 3.23
-6 0 6 79.91 3.94
-6 0 6 79.83 4.09
-6 0 6 82.12 4.13
6 0 -6 68.75 3.11
-6 0 6 78.68 4.04
-6 0 5 -0.18 0.55
-6 0 5 0.09 0.5
-6 0 5 0.06 0.36
-6 0 5 0.34 0.56
-6 0 5 0.17 0.52
6 0 -5 0.4 0.41
-6 0 5 0.09 0.39
-6 0 5 -0.09 0.41
-6 0 4 663.13 14.64
-6 0 4 640.93 14.74
-6 0 4 645.88 14.4
-6 0 4 622.47 12.72
-6 0 4 632.8 14.28
-6 0 4 656.05 14.47
-6 0 4 653.41 14.73
-6 0 4 650.74 14.65
-6 0 3 0.26 0.47
-6 0 3 0.73 0.62
-6 0 3 0.27 0.31
-6 0 3 0.24 0.37
-6 0 3 0.26 0.58
-6 0 3 0.24 0.41
6 0 -3 0.37 0.42
-6 0 3 0.18 0.5
-6 0 3 0.43 0.47
-6 0 2 3891.68 67.22
-6 0 2 3835.56 67.51
-6 0 2 3776.34 66.69
-6 0 2 3974.55 66.99
-6 0 2 4118.96 67.67
6 0 -2 4387.34 67.09
-6 0 2 3899.88 67.11
-6 0 2 4124.2 67.24
-6 0 1 0.99 0.5
-6 0 1 1.37 0.55
-6 0 1 1.28 0.52
-6 0 1 0.29 0.51
-6 0 1 0.22 0.39
-6 0 1 0.27 0.59
-6 0 1 -0.08 0.44
6 0 -1 0.24 0.53
-6 0 1 0.92 0.42
-6 0 0 9.66 1.33
-6 0 0 7.54 1.44
-6 0 0 9.74 1.4
-6 0 0 9.64 1.27
-6 0 0 7.83 1.16
-6 0 0 8.37 1.02
-6 0 0 9.38 1.45
-6 0 0 8.93 1.11
6 0 0 9.41 1.35
-6 0 0 8.09 1.22
-6 0 -1 -0.06 0.32
-6 0 -1 0.68 0.73
-6 0 -1 0.24 0.54
-6 0 -1 0.86 0.57
-6 0 -1 0.09 0.49
-6 0 -1 -0.05 0.29
-6 0 -1 0.09 0.55
-6 0 -1 0.91 0.63
-6 0 -1 1.46 0.67
6 0 1 0.17 0.38
-6 0 -1 0.58 0.67
-6 0 -1 -0.17 0.4
-6 0 -2 3.67 0.86
-6 0 -2 1.23 0.66
-6 0 -2 1.63 0.69
-6 0 -2 2.12 0.78
-6 0 -2 2.31 0.76
-6 0 -2 1.55 0.74
-6 0 -2 1.9 0.68
-6 0 -2 2.17 0.6
-6 0 -2 2.66 1.03
-6 0 -2 1.78 0.71
-6 0 -3 0.05 0.31
-6 0 -3 0.7 0.86
-6 0 -3 0.16 0.49
-6 0 -3 0.28 0.59
-6 0 -3 0.21 0.45
-6 0 -3 -0.08 0.46
-6 0 -3 -0.16 0.54
-6 0 -3 0.5 0.51
6 0 3 -0.15 0.33
-6 0 -3 0.08 0.39
-6 0 -3 0.1 0.57
-6 0 -4 26.44 2.28
-6 0 -4 28.3 2.09
-6 0 -4 30.13 2.15
-6 0 -4 29.44 2.17
-6 0 -4 27.75 2.14
-6 0 -4 30.62 1.77
-6 0 -4 29.22 2.24
-6 0 -4 25.63 2.54
-6 0 -4 28.19 2.42
-6 0 -5 0.61 0.53
-6 0 -5 -0.2 0.46
-6 0 -5 0.17 0.3
-6 0 -5 -0.08 0.5
-6 0 -5 -0.11 0.76
-6 0 -5 0.18 0.61
-6 0 -5 -0.12 0.37
-6 0 -5 0.12 0.34
-6 0 -6 169.77 5.37
-6 0 -6 161.17 4.39
-6 0 -6 164.19 6.33
-6 0 -6 174.14 6.05
-6 0 -7 -0.17 0.64
-6 0 -7 0.21 0.47
-6 0 -8 11.26 1.28
-6 0 -8 15.5 1.35
-6 0 -9 -0.17 0.34
-6 0 -9 0.11 0.24
-6 1 11 59.6 2.38
-6 1 11 58.63 2.47
6 1 -11 65 2.26
6 1 -11 58.87 2.22
-6 1 11 60.37 2.43
-6 1 11 58.44 2.37
-6 1 10 49.19 2.49
-6 1 10 50.62 2.62
6 1 -10 56.04 2.39
-6 1 10 50.12 2.55
-6 1 10 50.71 2.55
-6 1 10 51.07 2.21
6 1 -9 7.46 1
-6 1 9 5.95 1.04
-6 1 9 6.73 1.08
-6 1 9 8.02 0.97
-6 1 9 6.47 1.01
-6 1 8 24.28 2.08
-6 1 8 25.47 1.76
-6 1 8 22.19 1.96
-6 1 8 24.27 2
-6 1 7 88.46 4.29
-6 1 7 100.59 3.72
-6 1 7 88.06 4.13
-6 1 7 97.73 4.28
-6 1 6 17.75 1.82
-6 1 6 18.65 1.52
-6 1 6 16.44 1.77
-6 1 6 18.39 1.9
-6 1 6 17.51 1.88
-6 1 6 17.16 1.83
-6 1 5 200.63 6.76
-6 1 5 206.97 6.72
-6 1 5 215.39 5.76
-6 1 5 212.67 6.89
-6 1 5 212.1 7.04
6 1 -5 194.89 5.99
-6 1 5 200.19 6.86
-6 1 5 208.54 6.97
-6 1 4 27.18 2.27
-6 1 4 29.46 2.31
-6 1 4 29.16 2.29
-6 1 4 25.58 1.64
-6 1 4 27.35 2.34
6 1 -4 28.22 2.06
-6 1 4 27.27 2.28
-6 1 4 25.65 2.2
-6 1 3 13.33 1.58
-6 1 3 12.41 1.5
-6 1 3 13.38 1.54
-6 1 3 10.18 1.45
6 1 -3 10.99 1.36
-6 1 3 11.66 1.49
-6 1 3 11.6 1.49
-6 1 2 677.11 15.1
-6 1 2 676.62 14.84
-6 1 2 659.05 14.83
-6 1 2 698.35 15.6
6 1 -2 726.95 15.04
-6 1 2 687.62 15.16
-6 1 2 662.96 15.03
-6 1 1 370.96 9.01
-6 1 1 390.17 9.73
-6 1 1 332.41 9.06
-6 1 1 371.91 9.38
-6 1 1 341.25 9.75
-6 1 1 331.12 8.43
6 1 -1 366.4 9.37
-6 1 1 384.5 9.71
-6 1 0 560.61 12.51
-6 1 0 553.56 13.15
-6 1 0 600.66 14.88
-6 1 0 601.3 13.82
-6 1 0 617.66 13.13
-6 1 0 546.97 12.79
-6 1 0 588.15 12.29
-6 1 0 641.04 13.96
6 1 0 585.59 13.15
-6 1 0 580.23 13.25
-6 1 -1 3.73 0.78
-6 1 -1 3.1 1.05
-6 1 -1 4.13 0.93
-6 1 -1 3.66 1
-6 1 -1 3.04 0.82
-6 1 -1 2.82 0.86
-6 1 -1 3.28 0.68
-6 1 -1 2.76 0.82
-6 1 -1 3.76 0.86
6 1 1 2.71 0.75
-6 1 -1 3.22 0.96
-6 1 -1 6.46 1.12
-6 1 -2 26.72 2.13
-6 1 -2 26.2 2.57
-6 1 -2 26.06 2
-6 1 -2 23.67 1.92
-6 1 -2 26.07 2.26
-6 1 -2 27.73 2.18
-6 1 -2 26.31 2.11
-6 1 -2 26.76 1.9
-6 1 -2 24.14 1.62
6 1 2 23.87 1.94
-6 1 -2 24.94 2.29
-6 1 -2 28.36 2.2
-6 1 -3 337.32 9.4
-6 1 -3 345.61 8.73
-6 1 -3 347.8 8.76
-6 1 -3 345.9 9.82
-6 1 -3 315.55 8.81
-6 1 -3 348.01 9.17
-6 1 -3 305.73 9.95
-6 1 -3 360.55 9.09
-6 1 -3 350.48 8.8
-6 1 -3 336.32 8.24
-6 1 -3 333.78 7.59
-6 1 -4 2.72 0.84
-6 1 -4 1.77 0.43
-6 1 -4 2.04 0.65
-6 1 -4 2.32 0.71
-6 1 -4 2.91 0.66
-6 1 -4 2.1 0.75
-6 1 -4 2.84 1.1
-6 1 -4 2.09 0.77
-6 1 -4 3.37 0.81
-6 1 -5 0.8 0.55
-6 1 -5 1.14 0.49
-6 1 -5 3.2 0.86
-6 1 -5 0.97 0.86
-6 1 -5 1.26 0.71
-6 1 -6 314.97 7.12
-6 1 -6 340.15 8.34
-6 1 -6 264.93 8.59
-6 1 -6 293.34 8.37
-6 1 -6 308.7 7.79
-6 1 -7 10.8 1.27
-6 1 -7 9.14 0.87
-6 1 -7 10.16 1.38
-6 1 -8 3.2 0.66
-6 1 -8 2.9 0.43
-6 1 -8 3.75 0.8
-6 1 -9 20.08 1.29
-6 2 11 1.99 0.42
-6 2 11 2.29 0.44
6 2 -11 1.29 0.34
-6 2 11 2.28 0.4
-6 2 11 1.99 0.43
6 2 -11 1.96 0.39
-6 2 11 1.78 0.41
-6 2 10 183.53 5.07
-6 2 10 180.82 5.2
-6 2 10 172.91 4.6
-6 2 10 184.44 5.09
-6 2 10 185.47 5.13
6 2 -10 175.49 4.66
-6 2 9 0.4 0.47
-6 2 9 0.06 0.39
6 2 -9 0.39 0.38
-6 2 9 0.05 0.31
-6 2 9 0.31 0.43
-6 2 9 -0.06 0.41
-6 2 8 135.18 4.77
-6 2 8 128.84 4.87
6 2 -8 117.87 4.22
-6 2 8 122.52 4.07
-6 2 8 131.25 4.76
-6 2 8 117.68 4.58
-6 2 7 29.26 2.27
-6 2 7 30.76 1.9
-6 2 7 30.28 2.26
-6 2 7 27.13 2.12
-6 2 7 30.38 2.27
-6 2 6 466.27 11.53
-6 2 6 446.85 9.95
-6 2 6 483.64 11.38
-6 2 6 475.17 11.38
-6 2 6 452.66 11.11
-6 2 5 41.5 2.73
-6 2 5 45.62 2.8
-6 2 5 41.57 2.14
-6 2 5 42.97 2.74
-6 2 5 45.93 2.95
6 2 -5 38.74 2.34
-6 2 5 43.15 2.86
-6 2 5 41.43 2.78
-6 2 4 901.46 18.88
-6 2 4 965.97 19.15
-6 2 4 948.96 19.57
-6 2 4 910.7 19.34
-6 2 4 967.46 19.38
-6 2 4 995.74 19.48
-6 2 3 266.23 7.68
-6 2 3 262 7.45
-6 2 3 267.24 7.56
-6 2 3 261.27 7.91
6 2 -3 247.56 7.19
-6 2 3 242.73 7.49
-6 2 3 255.95 7.62
-6 2 2 126.75 4.91
-6 2 2 120.82 4.65
-6 2 2 137.63 4.92
-6 2 2 127.09 5.15
-6 2 2 117.29 4.41
6 2 -2 138.11 4.92
-6 2 2 129.39 4.99
-6 2 2 137.17 5.07
-6 2 1 254.19 7.25
-6 2 1 256.88 7.47
-6 2 1 267.53 7.29
-6 2 1 260.63 7.29
-6 2 1 245.87 7.65
-6 2 1 231.83 6.74
6 2 -1 264.39 7.39
-6 2 1 262.12 7.54
-6 2 0 611.6 13.06
-6 2 0 579.72 13.02
-6 2 0 566.32 12.78
-6 2 0 583.56 12.81
-6 2 0 624.57 13.66
-6 2 0 577.42 12.41
6 2 0 618.62 13.2
-6 2 0 564.35 13.17
-6 2 -1 19.66 1.79
-6 2 -1 17.19 2.08
-6 2 -1 19.49 1.68
-6 2 -1 15.62 1.53
-6 2 -1 16.63 1.78
-6 2 -1 13.44 1.43
-6 2 -1 16.25 1.43
6 2 1 18.4 1.66
-6 2 -1 16.64 1.69
-6 2 -2 20.7 1.95
-6 2 -2 19.46 1.67
-6 2 -2 17.77 1.61
-6 2 -2 20.91 1.55
-6 2 -2 19.53 1.68
-6 2 -2 17.34 1.69
-6 2 -2 16.33 2.07
-6 2 -2 18.95 1.98
-6 2 -2 17.46 1.7
-6 2 -3 12.81 1.57
-6 2 -3 13.48 1.4
-6 2 -3 14.39 1.44
-6 2 -3 13.77 1.37
-6 2 -3 10.74 1.08
-6 2 -3 14.18 1.51
-6 2 -3 12.59 1.81
-6 2 -3 10.31 1.52
-6 2 -4 2.69 0.71
-6 2 -4 2.03 0.49
-6 2 -4 2.37 0.66
-6 2 -4 2.24 0.62
-6 2 -4 2.8 0.99
-6 2 -4 2.53 0.79
-6 2 -4 1.98 0.8
-6 2 -5 6.28 0.98
-6 2 -5 7.27 0.93
-6 2 -5 7.52 0.79
-6 2 -5 5.72 0.89
-6 2 -5 7.98 1.2
-6 2 -5 6.49 1.36
-6 2 -5 7.44 1.22
-6 2 -6 80.73 3.28
-6 2 -6 82.39 3.06
-6 2 -6 87.04 3.82
-6 2 -6 89.97 3.54
-6 2 -6 81.1 4.01
-6 2 -7 5.17 0.69
-6 2 -7 5.14 0.9
-6 2 -7 5.13 1.01
-6 2 -8 11.79 0.88
-6 2 -8 11.1 1.13
-6 2 -8 11.19 1.03
-6 3 10 2 0.43
-6 3 10 1.6 0.39
6 3 -10 1.59 0.36
-6 3 10 2.25 0.43
-6 3 10 1.71 0.42
6 3 -10 1.53 0.36
-6 3 10 1.69 0.45
6 3 -10 1.59 0.38
-6 3 9 14.31 1.13
-6 3 9 17.49 1.37
6 3 -9 13.78 1.11
-6 3 9 14.9 1.26
-6 3 9 16.55 1.38
-6 3 9 16.01 1.32
-6 3 8 92.37 3.27
-6 3 8 94.9 3.68
6 3 -8 92.02 3.38
-6 3 8 96.01 3.84
-6 3 8 101.11 3.8
-6 3 8 99.56 3.75
-6 3 7 330.17 7.81
-6 3 7 364.54 8.82
-6 3 7 350.77 8.71
-6 3 7 364.39 9.07
-6 3 7 341.37 8.72
-6 3 6 3.07 0.61
-6 3 6 3.66 0.82
-6 3 6 2.71 0.72
-6 3 6 2.94 0.77
-6 3 6 3.3 0.83
-6 3 5 122.57 4.58
-6 3 5 112.68 4.62
-6 3 5 111.74 3.63
-6 3 5 124.84 4.62
-6 3 5 123.63 4.66
-6 3 4 44.12 2.68
-6 3 4 40.25 2.66
-6 3 4 45.27 2.63
-6 3 4 45.57 2.65
-6 3 4 38.15 2.39
6 3 -4 42.77 2.49
-6 3 4 41.99 2.66
-6 3 4 43.06 2.67
-6 3 3 2.34 0.74
-6 3 3 4.01 0.93
-6 3 3 2.39 0.69
-6 3 3 3.38 0.79
-6 3 3 4.02 0.84
6 3 -3 2.09 0.62
-6 3 3 3.2 0.8
-6 3 3 2.37 0.69
-6 3 2 123.03 4.63
-6 3 2 121.62 4.45
-6 3 2 121.24 4.45
-6 3 2 125.71 4.91
6 3 -2 121.23 4.51
-6 3 2 121.77 4.67
-6 3 2 118.36 4.13
-6 3 1 6.12 0.98
-6 3 1 6.19 0.99
-6 3 1 6.14 0.93
-6 3 1 6.96 1.1
-6 3 1 4.87 0.9
6 3 -1 6.71 1.03
-6 3 1 4.67 0.93
-6 3 0 357.14 8.92
-6 3 0 359.5 8.63
-6 3 0 359.06 8.63
-6 3 0 326.33 9.04
-6 3 0 331.37 8.38
6 3 0 350.54 8.61
-6 3 0 342.94 8.89
-6 3 -1 1394.66 26.16
-6 3 -1 1425.1 25.14
-6 3 -1 1399.74 25.09
-6 3 -1 1371.21 25.54
-6 3 -1 1379.14 25.06
-6 3 -1 1421.18 25.57
-6 3 -1 1311.87 25.49
-6 3 -2 328.5 8.03
-6 3 -2 318.44 7.93
-6 3 -2 331.76 7.85
-6 3 -2 329.59 8.34
-6 3 -2 316.45 9.48
-6 3 -2 306.89 8.55
-6 3 -3 56.8 3.1
-6 3 -3 55.99 2.73
-6 3 -3 55.44 2.81
-6 3 -3 54.91 2.54
-6 3 -3 53.39 2.68
-6 3 -3 62.29 3.04
-6 3 -3 52.89 3.39
-6 3 -3 51.25 3.11
-6 3 -4 490.53 10.95
-6 3 -4 509.18 10.48
-6 3 -4 532.4 11.15
-6 3 -4 501.13 10.99
-6 3 -4 470.79 12.33
-6 3 -4 521.75 12.13
-6 3 -5 40.74 2.21
-6 3 -5 45.02 2.27
-6 3 -5 43.41 1.96
-6 3 -5 42.48 2.59
-6 3 -5 46.69 2.47
-6 3 -5 39.97 2.71
-6 3 -6 59 2.48
-6 3 -6 57.18 2.13
-6 3 -6 55.64 2.75
-6 3 -6 51.74 2.86
-6 3 -7 4.09 0.62
-6 3 -7 3.79 0.66
-6 3 -7 4.4 0.78
-6 3 -8 96.86 2.73
6 4 -10 81.82 2.31
-6 4 10 85.32 2.36
-6 4 9 -0.03 0.06
-6 4 9 25.92 1.27
6 4 -9 26.53 1.36
-6 4 9 23.98 1.24
-6 4 9 0.03 0.09
-6 4 8 0.82 0.34
-6 4 8 0.16 0.25
-6 4 8 0.67 0.36
-6 4 8 0.04 0.18
-6 4 8 0.37 0.34
-6 4 8 0.14 0.32
-6 4 7 31.94 1.69
-6 4 7 36.21 1.97
-6 4 7 31.7 1.83
-6 4 7 36.05 2
6 4 -7 30.27 1.71
-6 4 7 34.94 1.95
-6 4 7 36.14 2.08
-6 4 6 111.61 3.81
-6 4 6 104.28 3.71
-6 4 6 106.79 3.83
-6 4 6 105.66 3.8
-6 4 6 111.24 4.02
-6 4 5 133.23 4.37
-6 4 5 131.22 4.35
-6 4 5 131.6 4.53
-6 4 5 130.9 4.44
-6 4 5 135.75 4.67
-6 4 4 306.5 7.52
-6 4 4 301.56 7.5
-6 4 4 310.06 7.85
-6 4 4 299.6 7.64
-6 4 4 296.35 7.88
-6 4 3 63.54 2.83
-6 4 3 62.2 2.82
-6 4 3 60.75 2.99
-6 4 3 57.02 2.81
-6 4 3 60.59 3.05
-6 4 2 68.9 3.23
-6 4 2 60.85 2.78
-6 4 2 60.22 2.75
-6 4 2 62.19 2.99
-6 4 2 61.84 3.17
-6 4 2 64.33 2.97
-6 4 2 61.9 3.01
-6 4 1 2.98 0.77
-6 4 1 2.54 0.57
-6 4 1 3.23 0.63
-6 4 1 2.04 0.68
-6 4 1 2.42 0.6
-6 4 1 3.09 0.67
-6 4 0 242.24 6.81
-6 4 0 237.96 6.21
-6 4 0 237.17 6.25
-6 4 0 247.14 7.01
-6 4 0 249.1 6.58
-6 4 0 220.54 6.18
-6 4 -1 30.34 1.84
-6 4 -1 27.01 1.74
-6 4 -1 28.95 2.07
-6 4 -1 29.24 1.93
-6 4 -1 31.87 2.01
-6 4 -1 26.98 1.99
-6 4 -2 1.87 0.55
-6 4 -2 1.76 0.58
-6 4 -2 1.55 0.49
-6 4 -2 1.14 0.52
-6 4 -2 2.08 0.61
-6 4 -2 1.8 0.61
-6 4 -3 13.8 1.23
-6 4 -3 11.63 1.12
-6 4 -3 10.19 1.05
-6 4 -3 14.62 1.36
-6 4 -4 6.31 0.81
-6 4 -4 5.49 0.77
-6 4 -4 6.01 0.86
-6 4 -5 18.3 1.24
-6 4 -6 8.15 0.77
-6 4 -7 13.45 0.96
-6 4 -7 9.37 0.66
-6 4 -8 339.65 6.49
6 5 -9 354 7.04
-6 5 8 10.2 0.77
-6 5 8 0.02 0.08
6 5 -7 189.83 4.98
-6 5 7 180.39 4.66
-6 5 6 8.38 0.93
-6 5 5 227.11 5.97
-6 5 4 39.71 2.37
-6 5 4 39.98 2.2
-6 5 3 30.95 2.1
-6 5 3 30.45 2.09
-6 5 3 29.98 1.96
6 5 -2 0.21 0.26
-6 5 2 0.19 0.37
-6 5 2 0.32 0.39
-6 5 2 0.12 0.37
-6 5 1 35.32 2.24
-6 5 1 38.78 2.37
-6 5 1 35.12 2.16
-6 5 0 53.42 2.7
-6 5 0 60.82 2.95
-6 5 0 62.55 2.86
-6 5 -1 53.49 2.54
-6 5 -1 57.02 2.82
-6 5 -2 -0.06 0.44
-6 5 -3 186.37 5.28
-6 5 -3 192.59 5.13
-6 5 -4 223.82 5.63
-6 5 -4 211.67 5.34
-6 5 -5 39.43 1.88
-6 5 -5 38.66 1.77
-6 5 -6 322.63 6.69
-6 5 -6 308.34 6.39
-6 5 -7 139.36 3.37
-6 6 8 93.7 2.5
6 6 -8 113.74 2.92
-6 6 7 9.64 0.82
6 6 -7 10.91 0.9
-6 6 6 18.84 1.27
6 6 -6 20.05 1.31
-6 6 6 18.14 1.1
-6 6 5 30.65 1.76
6 6 -5 31.68 1.7
-6 6 5 31.62 1.63
-6 6 4 133.39 4.21
6 6 -4 140.82 4.03
-6 6 4 135.41 4.02
6 6 -3 1.52 0.42
-6 6 3 1.9 0.58
-6 6 3 1.37 0.57
-6 6 3 1.24 0.5
-6 6 2 164.29 5.27
-6 6 2 175.89 5.1
-6 6 1 7.4 0.99
-6 6 1 8.84 1.04
-6 6 1 9.44 1.03
-6 6 0 48.06 2.45
-6 6 0 56.06 2.57
-6 6 0 55.11 2.46
-6 6 -1 58.52 2.55
-6 6 -1 62.03 2.57
-6 6 -2 0.49 0.36
-6 6 -2 0.04 0.17
-6 6 -3 70.97 2.62
-6 6 -4 23.52 1.33
-6 6 -5 0.37 0.25
-6 6 -5 0.11 0.25
-6 6 -6 253.33 5.17
-6 6 -6 276.26 5.32
6 7 -6 25.81 1.29
6 7 -5 7.27 0.71
-6 7 5 7.5 0.64
-6 7 4 0.76 0.3
6 7 -4 0.15 0.23
-6 7 4 0.13 0.21
-6 7 3 51.24 2.02
-6 7 3 51.79 1.96
-6 7 2 4.51 0.61
-6 7 2 3.33 0.66
-6 7 2 3.19 0.56
-6 7 1 24.13 1.36
-6 7 1 26.35 1.43
-6 7 0 2.49 0.49
-6 7 0 2.51 0.56
-6 7 0 1.88 0.44
-6 7 -1 20.29 1.3
-6 7 -1 20.67 1.24
-6 7 -1 21.53 1.23
-6 7 -2 8.58 0.74
-6 7 -2 8.22 0.76
-6 7 -3 507.73 9.24
-6 7 -3 495.71 9.42
-6 7 -4 8.85 0.63
-6 7 -4 9.28 0.7
-6 8 1 7.84 0.57
-6 8 0 56.32 1.72
-6 8 -1 460.68 8.27
-6 8 -2 150.11 3.26
-7 -6 5 184.12 4.3
7 -6 -5 194.58 4.33
-7 -6 4 2.47 0.45
7 -6 -4 2.21 0.44
-7 -6 3 157.2 4.04
-7 -6 2 52.66 2.04
-7 -6 2 48.91 1.89
-7 -6 1 205.53 4.77
-7 -6 1 194.13 4.91
-7 -6 0 12.07 0.88
-7 -6 0 10.94 1
-7 -6 -1 178.44 4.74
-7 -6 -1 184.47 4.77
-7 -6 -2 136.39 3.73
-7 -6 -2 119.8 3.58
-7 -6 -3 24.41 1.29
-7 -5 7 3 0.44
7 -5 -7 2.96 0.41
7 -5 -7 3.09 0.39
-7 -5 6 11.61 0.91
7 -5 -6 12.03 0.78
-7 -5 5 23.07 1.37
7 -5 -5 21.57 1.33
7 -5 -5 23.87 1.14
-7 -5 4 2.38 0.51
7 -5 -4 3.25 0.44
-7 -5 3 3.21 0.57
-7 -5 3 4.65 0.67
-7 -5 2 24.87 1.65
-7 -5 2 24.64 1.49
-7 -5 1 73.13 3.09
-7 -5 1 72.26 2.66
-7 -5 0 2.21 0.66
-7 -5 0 2.5 0.68
-7 -5 0 2.2 0.46
-7 -5 -1 310.76 6.02
-7 -5 -1 334.69 6.37
-7 -5 -2 24.2 1.69
-7 -5 -2 22.29 1.65
-7 -5 -3 0.19 0.31
-7 -5 -4 1.36 0.39
7 -4 -9 147.02 3.08
7 -4 -8 64.74 1.96
-7 -4 8 63.72 2.08
7 -4 -7 2.85 0.45
7 -4 -7 1.78 0.38
-7 -4 7 2.06 0.45
7 -4 -6 491.69 5.99
7 -4 -6 545.66 5.73
-7 -4 6 119.17 2.82
-7 -4 6 505.15 5.59
-7 -4 6 526.27 6.47
7 -4 -5 246.63 5.52
-7 -4 5 251.1 5.96
-7 -4 5 248.13 5.81
-7 -4 5 255.68 6.1
-7 -4 4 0.54 0.35
-7 -4 4 0.23 0.3
-7 -4 4 0.46 0.39
7 -4 -4 0.18 0.27
-7 -4 4 0.13 0.3
-7 -4 3 242.88 5.87
-7 -4 3 255.72 6.67
-7 -4 3 242.11 6.27
-7 -4 3 257.98 6.17
-7 -4 3 252.34 6.16
-7 -4 2 2.28 0.72
-7 -4 2 1.58 0.45
-7 -4 2 1.52 0.45
-7 -4 2 2.11 0.53
-7 -4 2 2.67 0.53
-7 -4 1 288.7 6.59
-7 -4 1 292.99 6.68
-7 -4 1 301.98 8
-7 -4 1 312.78 8.33
-7 -4 1 276.02 6.69
-7 -4 1 310.1 7.29
-7 -4 1 306.96 6.97
-7 -4 0 10.18 0.93
-7 -4 0 9.78 1.31
-7 -4 0 9.82 1.27
-7 -4 0 10.73 1.07
-7 -4 0 9.88 0.98
-7 -4 -1 48.51 2.03
-7 -4 -1 49.93 2.18
-7 -4 -1 46.19 2.7
-7 -4 -1 50.96 2.87
-7 -4 -2 71.42 2.61
-7 -4 -2 60.55 3.12
-7 -4 -3 0.09 0.14
-7 -4 -3 7.31 0.98
-7 -4 -4 162.81 4.7
-7 -4 -4 182.73 5.09
-7 -4 -5 324.45 6.62
-7 -4 -5 323.22 7.04
7 -3 -9 3.8 0.44
-7 -3 8 83.75 2.56
-7 -3 8 77.66 2.58
7 -3 -8 82.7 2.56
-7 -3 8 82.54 2.59
-7 -3 8 85.39 2.79
-7 -3 8 86.72 2.74
-7 -3 7 3.24 0.57
-7 -3 7 2.7 0.55
7 -3 -7 3.64 0.61
-7 -3 7 3.43 0.57
7 -3 -7 2.89 0.47
-7 -3 7 3.76 0.68
-7 -3 7 3.12 0.59
-7 -3 6 293.66 6.89
-7 -3 6 288.14 6.7
-7 -3 6 301.39 6.98
-7 -3 6 311.07 7.42
-7 -3 6 297.02 7.15
-7 -3 5 3.69 0.69
-7 -3 5 3.07 0.66
-7 -3 5 2.98 0.6
-7 -3 5 3.66 0.82
-7 -3 5 3 0.7
-7 -3 4 30.89 1.92
-7 -3 4 31.51 1.96
-7 -3 4 30.78 2
-7 -3 4 31.3 1.81
-7 -3 4 34.66 2.26
-7 -3 4 34.25 2.13
-7 -3 3 23.43 1.69
-7 -3 3 22.78 1.68
-7 -3 3 22.59 1.85
-7 -3 3 20.46 1.45
-7 -3 3 24.23 1.93
-7 -3 3 22.6 1.78
-7 -3 2 21.83 1.64
-7 -3 2 19.8 1.59
-7 -3 2 20.21 1.38
-7 -3 2 21.11 1.87
-7 -3 2 20.17 1.76
-7 -3 2 21.49 1.73
-7 -3 1 0.99 0.44
-7 -3 1 1.75 0.77
-7 -3 1 0.8 0.57
-7 -3 1 1.75 0.54
-7 -3 1 1 0.52
-7 -3 0 8.2 1
-7 -3 0 7.48 1.25
-7 -3 0 7.77 1.28
-7 -3 0 8.28 1
-7 -3 0 7.43 1.12
-7 -3 0 9.16 1.14
-7 -3 -1 10.68 1.1
-7 -3 -1 9.61 1.35
-7 -3 -1 8.99 1.03
-7 -3 -1 8.81 1.16
-7 -3 -1 9.49 1.1
-7 -3 -2 389.09 8.67
-7 -3 -2 383.14 8.59
-7 -3 -2 374.07 9.84
-7 -3 -3 154.91 4.5
-7 -3 -3 160.38 5.26
-7 -3 -3 163.09 5.45
-7 -3 -3 161.43 4.57
-7 -3 -4 8.03 1.01
-7 -3 -4 8.3 1.06
-7 -3 -4 9.43 0.9
-7 -3 -5 0.56 0.35
-7 -3 -5 0.4 0.31
-7 -2 9 24.29 1.31
7 -2 -9 22.33 1.23
-7 -2 9 25.11 1.34
-7 -2 9 23.7 1.4
-7 -2 9 23.7 1.36
-7 -2 8 217.21 5.51
7 -2 -8 221.2 5.38
-7 -2 8 220.22 5.81
-7 -2 8 212.67 5.62
-7 -2 8 212.67 5.47
-7 -2 7 93.72 3.48
-7 -2 7 92.82 3.48
-7 -2 7 97.46 3.79
-7 -2 7 96.48 3.66
-7 -2 6 0.53 0.44
-7 -2 6 0.21 0.47
-7 -2 6 0.52 0.43
-7 -2 6 0.72 0.47
-7 -2 5 6.91 1.04
-7 -2 5 5.11 0.91
-7 -2 5 5.25 0.74
-7 -2 5 4.47 0.97
-7 -2 5 5.15 0.98
-7 -2 4 431.7 9.8
-7 -2 4 418.57 9.79
-7 -2 4 404.2 9.78
-7 -2 4 415.03 10.35
-7 -2 4 415.17 9.98
-7 -2 3 521.39 11.39
-7 -2 3 524.42 11.93
-7 -2 3 513.2 11.51
-7 -2 3 497.28 11.95
-7 -2 3 522.81 11.79
-7 -2 2 48.85 2.66
-7 -2 2 45.34 2.88
-7 -2 2 46.38 2.64
-7 -2 2 45.11 2.88
-7 -2 2 51.13 2.89
-7 -2 1 81.26 3.51
-7 -2 1 78.79 3.93
-7 -2 1 80.61 4.17
-7 -2 1 88.71 3.68
-7 -2 1 78.34 3.85
-7 -2 1 84.02 3.77
-7 -2 0 12.14 1.29
-7 -2 0 10.06 1.19
-7 -2 0 10.25 1.48
-7 -2 0 13.48 1.57
-7 -2 0 11.6 1.35
-7 -2 -1 4.05 0.79
-7 -2 -1 3.93 0.78
-7 -2 -1 3.92 0.93
-7 -2 -1 3.19 0.78
-7 -2 -2 1.57 0.56
-7 -2 -2 1.48 0.71
-7 -2 -2 2.63 0.84
-7 -2 -2 1.6 0.59
-7 -2 -2 1.67 0.7
-7 -2 -2 0.73 0.5
-7 -2 -3 202.04 5.66
-7 -2 -3 197.24 5.61
-7 -2 -3 192.99 6.06
-7 -2 -3 197.46 6.25
-7 -2 -4 68.3 2.79
-7 -2 -4 65.54 2.92
-7 -2 -4 69.51 3.1
-7 -2 -4 66.03 2.78
-7 -2 -5 1.53 0.46
-7 -2 -5 1.58 0.45
-7 -2 -5 1.12 0.43
-7 -2 -5 1.82 0.52
-7 -1 10 42.63 1.64
7 -1 -10 41.07 1.55
-7 -1 10 40.12 1.61
-7 -1 10 42.98 1.76
-7 -1 10 39.57 1.65
-7 -1 9 3.35 0.58
-7 -1 9 2.16 0.51
7 -1 -9 2.94 0.53
-7 -1 9 2.44 0.59
-7 -1 9 3.24 0.61
-7 -1 8 211.02 5.79
7 -1 -8 219.58 5.62
-7 -1 8 215.8 6.07
-7 -1 8 223.14 5.99
-7 -1 8 213.25 5.79
-7 -1 7 12.15 1.29
-7 -1 7 13.52 1.44
-7 -1 7 13.62 1.42
-7 -1 7 15.04 1.42
-7 -1 6 303.34 8
-7 -1 6 293.32 8.27
-7 -1 6 321.38 8.33
-7 -1 6 309.28 8.13
-7 -1 5 23.16 1.9
-7 -1 5 21.83 2
-7 -1 5 22.94 1.98
-7 -1 5 22.33 1.89
-7 -1 4 574.68 12.88
-7 -1 4 585.74 13.04
-7 -1 4 595.92 13.7
-7 -1 4 566.1 11.64
-7 -1 4 621.18 13.51
-7 -1 3 565.71 12.66
-7 -1 3 538.21 11.46
-7 -1 3 595.33 13.28
-7 -1 3 558.5 12.74
-7 -1 3 587.56 13.54
-7 -1 3 556.96 11.38
-7 -1 3 586.77 13.1
-7 -1 2 17.5 1.62
-7 -1 2 16.21 1.3
-7 -1 2 17.49 1.83
-7 -1 2 18.62 1.69
-7 -1 2 17.49 1.83
-7 -1 2 18.68 1.78
-7 -1 1 1046.03 20.42
-7 -1 1 1097.66 21.55
-7 -1 1 1014.51 20.37
-7 -1 1 1018.97 21.16
-7 -1 1 1092.24 21.05
-7 -1 0 681.35 14.39
-7 -1 0 705.93 15.35
-7 -1 0 704.74 15.61
-7 -1 0 689.95 14.45
-7 -1 0 642.89 15.12
-7 -1 0 660.33 14.68
-7 -1 -1 39.54 2.41
-7 -1 -1 39.91 2.7
-7 -1 -1 42.58 2.87
-7 -1 -1 42.29 2.51
-7 -1 -1 44.33 2.89
-7 -1 -1 45.56 2.75
-7 -1 -2 453.86 10.41
-7 -1 -2 440.21 10.96
-7 -1 -2 465.25 11.24
-7 -1 -2 447.56 10.4
-7 -1 -2 454.26 11.22
-7 -1 -2 488.5 10.98
-7 -1 -3 33.96 2.1
-7 -1 -3 31.56 2.19
-7 -1 -3 36.91 2.38
-7 -1 -3 34.62 2.13
-7 -1 -3 31.83 2.33
-7 -1 -3 36.15 2.31
-7 -1 -3 34.02 2.63
-7 -1 -4 263.23 6.78
-7 -1 -4 265.17 6.86
-7 -1 -4 269.44 6.91
-7 -1 -4 265.41 6.83
-7 -1 -4 252.14 7.71
-7 -1 -5 13.97 1.22
-7 -1 -5 17.84 1.43
-7 -1 -5 15.03 1.55
-7 -1 -6 4.43 0.82
-7 0 10 0.09 0.22
-7 0 10 -0.03 0.23
7 0 -10 0.08 0.19
-7 0 10 0.17 0.28
-7 0 10 0.06 0.25
-7 0 9 192.47 4.57
-7 0 9 194.27 5.13
7 0 -9 194.59 4.89
-7 0 9 201.64 5.2
-7 0 9 200.18 5.4
-7 0 9 197.56 5.26
-7 0 8 0.69 0.33
-7 0 8 -0.11 0.37
-7 0 8 0.06 0.31
7 0 -8 0.18 0.27
-7 0 8 0.12 0.46
-7 0 8 -0.06 0.39
-7 0 7 52.12 2.77
-7 0 7 60.41 2.41
-7 0 7 58.31 2.91
-7 0 7 58.39 3.08
-7 0 7 59.79 3.01
-7 0 6 -0.04 0.27
-7 0 6 0.14 0.49
-7 0 6 -0.07 0.46
-7 0 6 -0.08 0.48
-7 0 6 0.15 0.47
-7 0 5 53.4 3
-7 0 5 58.03 3.07
-7 0 5 54.42 3.23
-7 0 5 54.77 3.12
-7 0 4 -0.08 0.53
-7 0 4 0.45 0.55
-7 0 4 0.53 0.52
-7 0 4 0.57 0.56
-7 0 3 94.24 4.24
-7 0 3 94.55 4.14
-7 0 3 93.87 3.61
-7 0 3 100.5 4.65
-7 0 3 98.09 3.7
-7 0 3 102.5 4.47
-7 0 2 0.59 0.48
-7 0 2 0.64 0.41
-7 0 2 0.52 0.71
-7 0 2 0.89 0.55
-7 0 2 0.36 0.42
-7 0 2 0.5 0.44
-7 0 2 0.57 0.48
-7 0 1 41.86 2.67
-7 0 1 48.35 2.82
-7 0 1 47.52 2.31
-7 0 1 44.46 2.32
-7 0 1 50.04 3.12
-7 0 1 43.49 2.98
-7 0 1 46.46 2.9
-7 0 0 0.35 0.53
-7 0 0 0.64 0.42
-7 0 0 0.09 0.27
-7 0 0 0.45 0.58
-7 0 0 -0.1 0.32
-7 0 0 0.48 0.59
-7 0 -1 0.07 0.47
-7 0 -1 0.41 0.51
-7 0 -1 0.57 0.61
-7 0 -1 0.09 0.54
-7 0 -1 0.5 0.35
-7 0 -1 0.31 0.56
-7 0 -2 0.52 0.53
-7 0 -2 0.22 0.51
-7 0 -2 1.6 0.79
-7 0 -2 0.08 0.3
-7 0 -2 1.39 0.65
-7 0 -3 2.13 0.66
-7 0 -3 1.9 0.61
-7 0 -3 2.35 0.7
-7 0 -3 1.02 0.61
-7 0 -3 1.45 0.4
-7 0 -3 2.15 0.84
-7 0 -3 2.15 0.66
-7 0 -4 -0.06 0.39
-7 0 -4 0.22 0.42
-7 0 -4 0.53 0.65
-7 0 -4 0.2 0.43
-7 0 -5 179.64 5.07
-7 0 -5 158.9 5.64
-7 0 -6 0.54 0.48
-7 1 10 40.31 1.62
-7 1 10 40.06 1.61
-7 1 10 38.98 1.51
-7 1 10 38.2 1.7
-7 1 10 40.37 1.67
-7 1 9 2.47 0.54
-7 1 9 2.92 0.45
-7 1 9 2.43 0.54
7 1 -9 2.41 0.49
-7 1 9 2.9 0.61
-7 1 9 1.9 0.51
-7 1 8 209.64 5.77
-7 1 8 213.92 5.01
7 1 -8 206.24 5.43
-7 1 8 212.99 6.05
-7 1 8 205.45 5.83
-7 1 8 217.32 5.86
-7 1 7 13.82 1.39
-7 1 7 13.5 1.05
-7 1 7 14.78 1.51
-7 1 7 14.4 1.44
-7 1 7 13.77 1.38
-7 1 6 286.94 7.8
-7 1 6 288.06 6.6
-7 1 6 317.35 8.46
-7 1 6 311.44 8.27
-7 1 6 318.99 8.13
-7 1 5 20.56 1.82
-7 1 5 22.83 1.88
-7 1 5 21.7 2
-7 1 5 22.13 1.94
-7 1 4 608.58 13.49
-7 1 4 608.64 12.82
-7 1 4 612.36 13.48
-7 1 4 593.94 13.64
-7 1 3 569.62 12.02
-7 1 3 595.46 12.86
-7 1 3 584.55 13.45
-7 1 3 550.31 12.15
-7 1 3 577.62 13.05
-7 1 2 17.2 1.65
-7 1 2 16.84 1.47
-7 1 2 18.73 1.73
-7 1 2 18.86 1.9
-7 1 2 19.23 1.64
-7 1 2 17.33 1.73
-7 1 1 1081.07 21.02
-7 1 1 1088.05 20.14
-7 1 1 1136.83 20.52
-7 1 1 1069.43 21.01
-7 1 1 1123.99 22.07
-7 1 1 1070.08 21.43
-7 1 0 665.72 14.09
-7 1 0 662.75 13.58
-7 1 0 672.16 13.15
-7 1 0 639.95 14.02
-7 1 0 688.91 15.08
-7 1 0 670.68 14.54
-7 1 -1 42.49 2.51
-7 1 -1 45.98 2.34
-7 1 -1 41.18 2.01
-7 1 -1 40.78 2.44
-7 1 -1 42.7 2.83
-7 1 -1 43.27 2.68
-7 1 -2 442.84 10.23
-7 1 -2 433.6 9.5
-7 1 -2 433.94 8.92
-7 1 -2 461.14 10.37
-7 1 -2 469.57 11.22
-7 1 -2 489.8 10.91
-7 1 -3 33.91 2.09
-7 1 -3 33.62 1.78
-7 1 -3 36.4 2.17
-7 1 -3 32.87 2.32
-7 1 -3 35.79 2.28
-7 1 -3 31.26 2.56
-7 1 -4 259.84 6.63
-7 1 -4 259.24 5.87
-7 1 -4 256.13 6.64
-7 1 -5 14.23 0.94
-7 1 -5 16.87 1.37
-7 1 -5 13.24 1.47
-7 1 -5 14.73 1.23
-7 1 -6 3.18 0.73
-7 2 10 9.52 0.65
-7 2 9 24.19 1.36
-7 2 9 25.22 1.38
-7 2 9 24.75 1.33
7 2 -9 20.09 1.16
-7 2 9 23.75 1.45
-7 2 9 22.73 1.35
-7 2 8 198.76 5.29
-7 2 8 212.12 5.4
-7 2 8 203.51 5.18
-7 2 8 201.16 5.58
-7 2 8 207.67 5.46
-7 2 7 97.26 3.29
-7 2 7 88.24 3.12
-7 2 7 94.15 3.49
-7 2 7 97.17 3.36
-7 2 6 0.3 0.41
-7 2 6 0.37 0.42
-7 2 6 0.42 0.49
-7 2 6 0.45 0.47
-7 2 5 6.99 1.02
-7 2 5 5.69 0.92
-7 2 5 5.23 1.02
-7 2 5 4.77 0.93
-7 2 4 394.36 9.57
-7 2 4 395.29 9.31
-7 2 4 416.29 9.73
-7 2 4 413.48 10.25
-7 2 4 401.25 9.54
-7 2 4 380.41 9.74
-7 2 3 502.15 11.47
-7 2 3 513.05 11.24
-7 2 3 544.45 11.73
-7 2 3 509.95 12.22
-7 2 3 507.39 11.5
-7 2 3 509.37 11.77
-7 2 2 47.41 2.64
-7 2 2 45.11 2.43
-7 2 2 45.79 2.57
-7 2 2 44.57 2.83
-7 2 2 46.76 2.62
-7 2 2 51.75 2.87
-7 2 1 82.23 3.52
-7 2 1 86.02 3.36
-7 2 1 82.52 3.52
-7 2 1 79.49 3.48
-7 2 1 85.79 3.97
-7 2 1 82.57 3.7
-7 2 0 12.56 1.32
-7 2 0 9.27 1.17
-7 2 0 12.65 1.21
-7 2 0 12.94 1.31
-7 2 0 11.85 1.47
-7 2 0 9.93 1.26
-7 2 -1 3.61 0.77
-7 2 -1 5.09 0.89
-7 2 -1 4.65 0.76
-7 2 -1 5.44 1.02
-7 2 -1 3.2 0.7
-7 2 -1 3.34 0.81
-7 2 -2 1.31 0.5
-7 2 -2 1.78 0.47
-7 2 -2 1.32 0.51
-7 2 -2 1.32 0.61
-7 2 -2 2.86 0.65
-7 2 -2 1.36 0.57
-7 2 -3 201.32 5.55
-7 2 -3 198.12 5.54
-7 2 -3 192.38 4.7
-7 2 -3 195.6 5.22
-7 2 -4 63.37 2.66
-7 2 -4 67.94 2.53
-7 2 -4 63.9 2.71
-7 2 -5 1.84 0.4
-7 2 -5 1.89 0.53
-7 2 -5 1.18 0.41
-7 2 -6 94.65 2.51
-7 3 9 4.25 0.5
7 3 -9 3.78 0.45
-7 3 8 89.11 2.75
-7 3 8 94.48 2.81
-7 3 8 90.48 2.82
-7 3 8 87.5 2.91
-7 3 8 89.93 2.82
-7 3 7 4.44 0.68
-7 3 7 3.25 0.64
-7 3 7 3.59 0.64
7 3 -7 3.17 0.56
-7 3 7 3.94 0.72
-7 3 7 4.09 0.67
-7 3 6 298.34 7.16
-7 3 6 302.9 7.16
-7 3 6 292.14 7.13
-7 3 6 303.76 7.59
-7 3 6 305.8 7.33
-7 3 5 4.12 0.79
-7 3 5 4.11 0.74
-7 3 5 4.81 0.89
-7 3 5 3.75 0.78
-7 3 4 32.1 1.98
-7 3 4 32.17 2.2
-7 3 4 31.72 2.05
-7 3 4 33.6 2.05
-7 3 3 22.58 1.67
-7 3 3 23.57 1.7
-7 3 3 19.4 1.75
-7 3 3 21.12 1.74
-7 3 3 22.5 1.76
-7 3 2 19.47 1.56
-7 3 2 21.39 1.63
-7 3 2 19.48 1.58
-7 3 2 18.45 1.72
-7 3 2 21.1 1.73
-7 3 2 20.22 1.67
-7 3 1 1.28 0.49
-7 3 1 0.97 0.46
-7 3 1 1.27 0.47
-7 3 1 1.26 0.62
-7 3 1 1.11 0.52
-7 3 0 7.95 1
-7 3 0 8.69 1.09
-7 3 0 8.54 0.98
-7 3 0 7.33 0.98
-7 3 0 7.96 1.12
-7 3 0 7.06 1.01
-7 3 -1 9.44 1.04
-7 3 -1 10.11 1.13
-7 3 -1 8.26 0.96
-7 3 -1 9.57 1.06
-7 3 -1 7.75 1.09
-7 3 -1 9.69 1.11
-7 3 -2 387.37 8.61
-7 3 -2 395.98 8.78
-7 3 -2 379.88 8.29
-7 3 -2 390.17 8.62
-7 3 -2 386.15 9.2
-7 3 -3 154.37 4.44
-7 3 -3 162.57 4.56
-7 3 -3 159.54 4.15
-7 3 -3 163.09 4.58
-7 3 -4 9.17 0.89
-7 3 -4 11.14 0.96
-7 3 -4 10.18 0.77
-7 3 -4 10.47 1.01
-7 3 -5 0.12 0.25
-7 3 -6 0.57 0.23
-7 4 8 65.32 2.03
7 4 -8 60.84 2.03
-7 4 8 64.4 2.26
-7 4 7 2.4 0.55
-7 4 7 2.07 0.46
-7 4 6 574.83 6.86
-7 4 6 565.5 7.31
-7 4 5 41.49 1.73
-7 4 5 253.22 4.85
-7 4 5 256.42 4.72
-7 4 5 260.84 5.23
-7 4 5 234.63 4.26
-7 4 4 0.16 0.26
-7 4 4 0.83 0.44
-7 4 4 0.43 0.3
-7 4 4 0.43 0.38
-7 4 4 0.33 0.42
-7 4 4 -0.09 0.29
-7 4 3 239.3 5.83
-7 4 3 244.64 5.85
-7 4 3 254.82 6.39
-7 4 3 228.23 6.16
-7 4 3 259.91 6.67
-7 4 3 246.84 6.09
-7 4 2 2.29 0.46
-7 4 2 1.96 0.49
-7 4 2 2.88 0.58
-7 4 2 1.89 0.61
-7 4 2 2.35 0.51
-7 4 1 296.84 6.7
-7 4 1 293.25 7.1
-7 4 1 300 6.69
-7 4 1 283.4 7.1
-7 4 1 286.91 6.88
-7 4 0 7.95 0.85
-7 4 0 9.98 1.03
-7 4 0 9.33 0.91
-7 4 0 8.5 0.98
-7 4 0 8.87 0.96
-7 4 -1 48.12 2.12
-7 4 -1 47.57 1.96
-7 4 -1 53.06 2.21
-7 4 -2 60.47 2.16
-7 4 -2 0.17 0.17
-7 4 -2 72.01 2.47
-7 4 -2 0.1 0.13
-7 4 -3 7.52 0.81
-7 4 -3 7.5 0.73
-7 4 -4 182.32 4.41
-7 4 -4 173.1 4.03
-7 4 -5 352.85 6.91
-7 5 7 3.82 0.44
7 5 -7 2.87 0.42
-7 5 7 3.87 0.51
-7 5 6 12.82 0.9
7 5 -6 13.2 0.9
-7 5 6 11.15 0.94
-7 5 5 26.86 1.44
7 5 -5 23.84 1.29
-7 5 5 25.53 1.51
-7 5 4 2.49 0.51
7 5 -4 2.35 0.43
-7 5 4 2.56 0.59
-7 5 3 3.3 0.62
-7 5 3 3.39 0.64
-7 5 2 23.67 1.58
-7 5 2 25.51 1.55
-7 5 1 76.1 2.94
-7 5 1 75.82 2.79
-7 5 0 3.02 0.61
-7 5 -1 335.12 7.36
-7 5 -1 331.01 7.13
-7 5 -2 24.89 1.33
-7 5 -2 25.09 1.41
-7 5 -3 0.26 0.25
-7 5 -3 0.09 0.24
-7 5 -4 1.07 0.26
-7 5 -4 1.35 0.32
-7 6 5 194.58 4.36
-7 6 5 198.38 4.15
-7 6 4 2.99 0.48
-7 6 4 2.59 0.42
-7 6 3 177.67 4.4
-7 6 3 182.61 4.29
-7 6 2 53.69 2.08
-7 6 2 54.65 2.02
-7 6 1 197.4 4.78
-7 6 1 204 4.72
-7 6 0 14.02 0.98
-7 6 0 13.14 0.92
-7 6 -1 165.76 3.98
-7 6 -1 175.91 4.09
-7 6 -2 133.9 3.27
-7 6 -3 25.82 1.06
-7 6 -3 24.03 1.03
-7 7 1 3.93 0.4
-7 7 0 10.1 0.61
8 -4 -4 82.46 2.31
-8 -4 1 106.78 3.21
-8 -4 0 120.48 3.48
-8 -4 -1 8.88 0.81
-8 -3 5 334.22 6.82
-8 -3 5 348.66 6.74
-8 -3 4 114.41 3.05
-8 -3 4 119.36 3.38
-8 -3 4 122.78 3.29
-8 -3 4 115.74 3.09
-8 -3 3 193.08 4.55
-8 -3 3 190.28 4.89
-8 -3 3 198.68 4.62
-8 -3 2 142.64 3.65
-8 -3 2 140.32 3.68
-8 -3 2 134.71 3.93
-8 -3 2 145.94 3.85
-8 -3 1 19.66 1.13
-8 -3 1 19.14 1.41
-8 -3 1 19.73 1.15
-8 -3 1 19.11 1.27
-8 -3 1 22.3 1.28
-8 -3 0 45.03 2.2
-8 -3 0 46.45 1.79
-8 -3 0 44.88 1.74
-8 -3 0 50.34 1.96
-8 -3 -1 3.4 0.63
-8 -3 -1 2.79 0.42
-8 -3 -1 3.56 0.52
-8 -3 -2 66.53 2.43
-8 -2 7 2.54 0.42
-8 -2 7 2.75 0.42
-8 -2 6 111.47 2.91
-8 -2 6 114.17 3.21
-8 -2 6 120.28 3.16
-8 -2 6 115.44 2.98
-8 -2 5 97.44 3.03
-8 -2 5 103.53 3.39
-8 -2 5 99.88 3.22
-8 -2 5 98.69 3.06
-8 -2 4 4.18 0.65
-8 -2 4 3.24 0.68
-8 -2 4 3.42 0.64
-8 -2 4 4.21 0.65
-8 -2 3 54.17 2.3
-8 -2 3 54.53 2.56
-8 -2 3 53.32 2.4
-8 -2 3 57.64 2.36
-8 -2 2 30.32 1.69
-8 -2 2 31.74 1.72
-8 -2 2 30.58 1.91
-8 -2 2 30.14 1.78
-8 -2 1 19.27 1.31
-8 -2 1 17.46 1.48
-8 -2 1 19.25 1.33
-8 -2 1 19.43 1.52
-8 -2 1 19.07 1.39
-8 -2 0 22.65 1.39
-8 -2 0 22.63 1.63
-8 -2 0 20.25 1.52
-8 -2 0 21.47 1.38
-8 -2 0 21.1 1.45
-8 -2 -1 6.19 0.73
-8 -2 -1 5.04 0.66
-8 -2 -1 5.88 0.78
-8 -2 -2 236.83 5.51
-8 -2 -2 242.14 5.98
-8 -2 -2 246.91 5.57
-8 -2 -3 71.15 2.28
-8 -2 -3 89.77 2.59
-8 -1 7 121.51 3.14
-8 -1 7 123.02 3.19
-8 -1 7 96.79 2.56
8 -1 -7 92.11 2.85
-8 -1 7 119.18 3.41
-8 -1 7 125.4 3.33
-8 -1 6 33.73 1.65
-8 -1 6 27.72 1.24
-8 -1 6 31.34 1.61
-8 -1 6 33.02 1.81
-8 -1 6 33.19 1.74
-8 -1 5 22.86 1.45
-8 -1 5 23.7 1.16
-8 -1 5 23.86 1.5
-8 -1 5 22.47 1.61
-8 -1 5 23.53 1.55
-8 -1 4 129.4 3.74
-8 -1 4 124.74 4.08
-8 -1 4 131.94 3.98
-8 -1 4 124.78 3.72
-8 -1 3 281.32 6.84
-8 -1 3 282.83 7.39
-8 -1 3 285.88 7.14
-8 -1 3 285.6 6.89
-8 -1 2 391.36 8.64
-8 -1 2 383.95 8.62
-8 -1 2 374.93 9.17
-8 -1 2 395.81 9
-8 -1 1 1.4 0.43
-8 -1 1 1.02 0.46
-8 -1 1 2.48 0.59
-8 -1 1 1.19 0.44
-8 -1 0 49.5 2.3
-8 -1 0 50.19 2.33
-8 -1 0 53.15 2.68
-8 -1 0 57.16 2.59
-8 -1 -1 1.46 0.48
-8 -1 -1 1.11 0.51
-8 -1 -1 1.7 0.52
-8 -1 -1 1.78 0.5
-8 -1 -2 -0.04 0.28
-8 -1 -2 0.4 0.37
-8 -1 -2 0.16 0.27
-8 -1 -3 0.39 0.35
-8 -1 -3 0.43 0.28
-8 -1 -4 0.78 0.28
-8 0 8 3.18 0.48
-8 0 8 4.12 0.5
-8 0 7 0.38 0.27
-8 0 7 -0.05 0.18
-8 0 7 1.52 0.39
8 0 -7 0.65 0.28
-8 0 7 0.24 0.3
-8 0 7 1.88 0.43
-8 0 6 66.07 2.54
-8 0 6 70.71 2.62
-8 0 6 72.12 2.32
-8 0 6 71.69 2.87
-8 0 6 70.48 2.72
-8 0 5 0.27 0.35
-8 0 5 0.06 0.24
-8 0 5 0.05 0.3
-8 0 5 -0.11 0.4
-8 0 5 0.02 0.1
-8 0 5 0.25 0.37
-8 0 4 14.03 1.21
-8 0 4 13.96 1.2
-8 0 4 11.29 0.89
-8 0 4 10.88 1.22
-8 0 4 13.57 1.26
-8 0 3 0.85 0.39
-8 0 3 0.03 0.25
-8 0 3 0.15 0.35
-8 0 3 0.38 0.49
-8 0 3 0.03 0.15
-8 0 3 0.68 0.46
-8 0 2 189.27 5.33
-8 0 2 193.07 5.33
-8 0 2 178.69 4.27
-8 0 2 182.26 5.74
-8 0 2 197.84 5.61
-8 0 1 0.3 0.3
-8 0 1 0.2 0.29
-8 0 1 0.64 0.44
-8 0 1 0.45 0.34
-8 0 0 78.78 3.04
-8 0 0 82.43 3.1
-8 0 0 79.59 3.43
-8 0 0 81.47 3.26
-8 0 -1 0.13 0.33
-8 0 -1 -0.14 0.32
-8 0 -1 0.17 0.41
-8 0 -1 0.1 0.39
-8 0 -2 21.95 1.4
-8 0 -2 22.84 1.53
-8 0 -2 21.2 1.37
-8 0 -3 4.54 0.59
-8 0 -3 1.09 0.36
-8 0 -4 49.16 1.89
-8 1 8 3.72 0.4
-8 1 8 3.68 0.48
-8 1 8 3.48 0.43
-8 1 7 118.79 3.14
-8 1 7 118.16 3.14
-8 1 7 112.38 2.92
-8 1 7 121.5 3.44
-8 1 7 112.89 3.21
-8 1 6 31.99 1.63
-8 1 6 30.76 1.48
-8 1 6 30.13 1.6
-8 1 6 32.41 1.83
-8 1 6 28.94 1.37
-8 1 6 32.76 1.73
-8 1 5 21.39 1.43
-8 1 5 23.08 1.33
-8 1 5 20.41 1.21
-8 1 5 22.03 1.44
-8 1 5 23.86 1.66
-8 1 5 23.57 1.56
-8 1 4 116.19 3.85
-8 1 4 125.05 3.57
-8 1 4 129.76 3.59
-8 1 4 126.09 3.98
-8 1 4 124.85 4.29
-8 1 4 130.47 4.17
-8 1 3 278.35 6.81
-8 1 3 264.44 6.19
-8 1 3 297.56 6.35
-8 1 3 274.72 6.8
-8 1 3 294.63 7.45
-8 1 3 291.21 7.15
-8 1 2 385.71 8.6
-8 1 2 369.3 8.52
-8 1 2 392.08 8
-8 1 2 383.91 7.82
-8 1 2 391.15 9.26
-8 1 2 393.55 8.93
-8 1 1 0.86 0.31
-8 1 1 0.77 0.4
-8 1 1 1.54 0.51
-8 1 1 0.89 0.34
-8 1 1 0.7 0.38
-8 1 0 50.67 2.17
-8 1 0 54.6 2.26
-8 1 0 48.4 1.68
-8 1 0 49.27 2.45
-8 1 0 53.06 2.37
-8 1 -1 1.53 0.45
-8 1 -1 1.42 0.55
-8 1 -1 1.39 0.3
-8 1 -1 1.69 0.52
-8 1 -1 1.28 0.45
-8 1 -2 0.12 0.29
-8 1 -2 0.13 0.35
-8 1 -2 0.04 0.27
-8 1 -3 0.5 0.31
-8 1 -3 1.75 0.4
-8 1 -4 1.28 0.33
-8 2 7 2.47 0.42
-8 2 7 2.07 0.35
-8 2 7 2.79 0.43
-8 2 6 111.96 3.14
-8 2 6 114.15 3.11
-8 2 6 114.79 3.16
-8 2 6 112.09 3.39
-8 2 6 103.52 3
-8 2 6 110.68 3.24
-8 2 5 92.33 3
-8 2 5 97.18 2.94
-8 2 5 91.12 2.9
-8 2 5 92.88 2.98
-8 2 5 100.98 3.36
-8 2 5 91.16 3.09
-8 2 4 3.34 0.59
-8 2 4 3.66 0.58
-8 2 4 3.44 0.57
-8 2 4 3.96 0.65
-8 2 4 1.94 0.55
-8 2 4 2.47 0.58
-8 2 3 51.81 2.27
-8 2 3 54.08 2.22
-8 2 3 55.44 2.17
-8 2 3 52.09 2.27
-8 2 3 56.04 2.59
-8 2 3 53.47 2.4
-8 2 2 27.47 1.62
-8 2 2 30.3 1.62
-8 2 2 33.55 1.61
-8 2 2 31.81 1.73
-8 2 2 31.7 1.93
-8 2 2 29.72 1.77
-8 2 1 18.79 1.31
-8 2 1 17.71 1.18
-8 2 1 17.76 1.12
-8 2 1 17.92 1.29
-8 2 1 20.34 1.53
-8 2 1 19.37 1.4
-8 2 0 20.45 1.34
-8 2 0 21.84 1.25
-8 2 0 20.33 1.1
-8 2 0 23.74 1.43
-8 2 0 19.11 1.47
-8 2 0 22.96 1.49
-8 2 -1 5.28 0.58
-8 2 -1 6.28 0.74
-8 2 -1 5.41 0.67
-8 2 -1 5.94 0.77
-8 2 -2 250.74 5.45
-8 2 -2 241.43 5.44
-8 2 -3 66.94 2.25
-8 2 -3 91.68 2.62
-8 3 7 6.95 0.53
-8 3 6 220.05 4.81
-8 3 5 329.67 6.95
-8 3 5 340.24 6.82
-8 3 4 116.49 3.17
-8 3 4 121.06 3.45
-8 3 4 126.14 3.4
-8 3 4 110.7 3.11
-8 3 4 123.37 3.49
-8 3 4 122.03 3.34
-8 3 3 197.45 4.7
-8 3 3 214.94 5.06
-8 3 3 213.49 4.91
-8 3 3 200.54 4.7
-8 3 3 195.33 5.01
-8 3 3 197.66 4.84
-8 3 2 144.51 3.8
-8 3 2 156.96 3.93
-8 3 2 149.04 4.02
-8 3 2 136.64 3.71
-8 3 2 139.75 4.05
-8 3 2 153.82 4
-8 3 1 20.12 1.18
-8 3 1 20.26 1.25
-8 3 1 20.52 1.17
-8 3 1 20.48 1.17
-8 3 1 20.56 1.33
-8 3 1 21.49 1.28
-8 3 0 46.18 1.8
-8 3 0 48.22 1.84
-8 3 0 50.86 2
-8 3 0 51.65 1.97
-8 3 0 50.89 1.8
-8 3 -1 3.42 0.46
-8 3 -1 3.47 0.42
-8 3 -1 3.23 0.47
-8 3 -1 3.69 0.55
-8 3 -1 3.05 0.45
-8 3 -2 68.93 2.01
-8 3 -2 62.62 1.98
-8 4 5 48.36 1.63
-8 4 2 0.24 0.25
-8 4 2 0.24 0.25
-8 4 1 123.8 3.22
-8 4 1 108.75 2.94
-8 4 0 128.82 3.3
-8 4 0 135.21 3.17
-8 4 -1 9.01 0.66
-8 4 -1 8.01 0.55
-8 5 3 2.06 0.3
-8 5 3 1.85 0.3
-8 5 2 0.77 0.24
-8 5 1 1.84 0.32
-8 5 1 2.18 0.31
loop_
_geom_angle_atom_site_label_1
_geom_angle_atom_site_label_2
_geom_angle_atom_site_label_3
_geom_angle
_geom_angle_site_symmetry_1
_geom_angle_site_symmetry_3
_geom_angle_publ_flag
C005 O001 H001 109.5 . . ?
C004 N003 H003 115.8 . . ?
C007 N003 H003 115.8 . . ?
C007 N003 C004 128.38(10) . . ?
C008 C004 N003 124.11(10) . . ?
C008 C004 C00A 119.26(11) . . ?
C00A C004 N003 116.61(10) . . ?
O001 C005 C006 118.14(10) . . ?
O001 C005 C009 122.44(10) . . ?
C009 C005 C006 119.41(11) . . ?
C005 C006 H006 119.7 . . ?
C008 C006 C005 120.68(10) . . ?
C008 C006 H006 119.7 . . ?
O002 C007 N003 123.13(11) . . ?
O002 C007 C00B 121.78(11) . . ?
N003 C007 C00B 115.09(10) . . ?
C004 C008 H008 120.1 . . ?
C006 C008 C004 119.87(10) . . ?
C006 C008 H008 120.1 . . ?
C005 C009 H009 120.0 . . ?
C00A C009 C005 119.94(11) . . ?
C00A C009 H009 120.0 . . ?
C004 C00A H00A 119.6 . . ?
C009 C00A C004 120.80(10) . . ?
C009 C00A H00A 119.6 . . ?
C007 C00B H00B 109.5 . . ?
C007 C00B H00C 109.5 . . ?
C007 C00B H00D 109.5 . . ?
H00B C00B H00C 109.5 . . ?
H00B C00B H00D 109.5 . . ?
H00C C00B H00D 109.5 . . ?
loop_
_geom_bond_atom_site_label_1
_geom_bond_atom_site_label_2
_geom_bond_distance
_geom_bond_site_symmetry_2
_geom_bond_publ_flag
O001 H001 0.8200 . ?
O001 C005 1.3694(14) . ?
O002 C007 1.2379(15) . ?
N003 H003 0.8600 . ?
N003 C004 1.4173(15) . ?
N003 C007 1.3469(15) . ?
C004 C008 1.3937(16) . ?
C004 C00A 1.3975(16) . ?
C005 C006 1.3948(16) . ?
C005 C009 1.3931(16) . ?
C006 H006 0.9300 . ?
C006 C008 1.3889(16) . ?
C007 C00B 1.5050(17) . ?
C008 H008 0.9300 . ?
C009 H009 0.9300 . ?
C009 C00A 1.3839(17) . ?
C00A H00A 0.9300 . ?
C00B H00B 0.9600 . ?
C00B H00C 0.9600 . ?
C00B H00D 0.9600 . ?
loop_
_geom_torsion_atom_site_label_1
_geom_torsion_atom_site_label_2
_geom_torsion_atom_site_label_3
_geom_torsion_atom_site_label_4
_geom_torsion
_geom_torsion_site_symmetry_1
_geom_torsion_site_symmetry_2
_geom_torsion_site_symmetry_3
_geom_torsion_site_symmetry_4
_geom_torsion_publ_flag
O001 C005 C006 C008 178.71(10) . . . . ?
O001 C005 C009 C00A -178.46(10) . . . . ?
N003 C004 C008 C006 -179.98(10) . . . . ?
N003 C004 C00A C009 -179.93(10) . . . . ?
C004 N003 C007 O002 -2.44(18) . . . . ?
C004 N003 C007 C00B 178.05(10) . . . . ?
C005 C006 C008 C004 -0.52(17) . . . . ?
C005 C009 C00A C004 0.05(18) . . . . ?
C006 C005 C009 C00A 1.22(18) . . . . ?
C007 N003 C004 C008 22.85(18) . . . . ?
C007 N003 C004 C00A -158.87(11) . . . . ?
C008 C004 C00A C009 -1.56(18) . . . . ?
C009 C005 C006 C008 -0.99(18) . . . . ?
C00A C004 C008 C006 1.78(17) . . . . ?
