#------------------------------------------------------------------------------
#$Date: 2020-03-04 08:14:12 +0200 (Wed, 04 Mar 2020) $
#$Revision: 248739 $
#$URL: file:///home/coder/svn-repositories/cod/cif/7/12/61/7126123.cif $
#------------------------------------------------------------------------------
#
# This file is available in the Crystallography Open Database (COD),
# http://www.crystallography.net/
#
# All data on this site have been placed in the public domain by the
# contributors.
#
data_7126123
loop_
_publ_author_name
'Kabbour, Houria'
'Sayede, Adlane'
'Saitzek, S\'ebastien'
'Lef\`evre, Gauthier'
'Cario, Laurent'
'Trentesaux, Martine'
'Roussel, Pascal'
_publ_section_title
;
 Structure of the water-splitting photocatalyst oxysulfide
 \a-LaOInS<sub>2</sub> and ab initio prediction of new polymorphs.
;
_journal_issue                   11
_journal_name_full
'Chemical communications (Cambridge, England)'
_journal_page_first              1645
_journal_page_last               1648
_journal_paper_doi               10.1039/c9cc09797j
_journal_volume                  56
_journal_year                    2020
_chemical_formula_sum            'In3 La3 O3 S6'
_chemical_formula_weight         1001.5
_space_group_IT_number           62
_space_group_name_Hall           '-P 2n 2a'
_space_group_name_H-M_alt        'P m c n'
_symmetry_cell_setting           orthorhombic
_symmetry_Int_Tables_number      62
_symmetry_space_group_name_Hall  '-P 2n 2a'
_symmetry_space_group_name_H-M   'P m c n'
_cell_angle_alpha                90
_cell_angle_beta                 90
_cell_angle_gamma                90
_cell_formula_units_Z            4
_cell_length_a                   3.9850(2)
_cell_length_b                   20.5460(13)
_cell_length_c                   14.8477(10)
_cell_measurement_temperature    293
_cell_volume                     1215.67(13)
_diffrn_ambient_temperature      293
_diffrn_radiation_probe          x-ray
_diffrn_radiation_wavelength     1.54187
_exptl_absorpt_coefficient_mu    133.799
_exptl_crystal_density_diffrn    5.4723
_exptl_crystal_F_000             1752
_pd_instr_location               ' ?'
_pd_meas_2theta_range_inc        0.02
_pd_meas_2theta_range_max        109.711
_pd_meas_2theta_range_min        10.000
_pd_meas_number_of_points        4882
_pd_proc_2theta_range_inc        0.02
_pd_proc_2theta_range_max        109.711
_pd_proc_2theta_range_min        10
_pd_proc_ls_background_function
'Manual background combined with 10 Legendre polynoms'
_pd_proc_ls_pref_orient_corr     none
_pd_proc_ls_profile_function     Pseudo-Voigt
_pd_proc_ls_prof_R_factor        0.0387
_pd_proc_ls_prof_wR_expected     0.0323
_pd_proc_ls_prof_wR_factor       0.0497
_refine_diff_density_max         1.71
_refine_diff_density_min         -1.42
_refine_ls_goodness_of_fit_all   1.54
_refine_ls_number_constraints    7
_refine_ls_number_parameters     76
_refine_ls_number_restraints     0
_refine_ls_R_factor_all          0.0213
_refine_ls_R_factor_gt           0.0205
_refine_ls_shift/su_max          0.0161
_refine_ls_shift/su_mean         0.0037
_refine_ls_weighting_scheme      sigma
_refine_ls_wR_factor_all         0.0258
_refine_ls_wR_factor_gt          0.0257
_cod_data_source_file            c9cc09797j1.cif
_cod_data_source_block           I
_cod_depositor_comments
;
The following automatic conversions were performed:

data item '_diffrn_radiation_probe' value 'X-ray' was changed to
'x-ray' in accordance with the
/home/data/users/saulius/crontab/automatic-downloads/current/RSC/lib/dictionaries/cif_core.dic
dictionary named 'cif_core.dic' version 2.4.2 last updated on
2011-04-26.

Automatic conversion script
Id: cif_fix_values 7556 2019-12-06 15:28:31Z antanas 
;
_cod_original_cell_volume        1215.65(13)
_cod_original_sg_symbol_Hall     '-P -2xa;-2ybc;-2zabc'
_cod_original_formula_sum        'La3 In3 S6 O3'
_cod_database_code               7126123
loop_
_space_group_symop_id
_space_group_symop_operation_xyz
1 x,y,z
2 -x+1/2,-y+1/2,z+1/2
3 -x,y+1/2,-z+1/2
4 x+1/2,-y,-z
5 -x,-y,-z
6 x+1/2,y+1/2,-z+1/2
7 x,-y+1/2,z+1/2
8 -x+1/2,y,z
loop_
_atom_site_label
_atom_site_type_symbol
_atom_site_fract_x
_atom_site_fract_y
_atom_site_fract_z
_atom_site_adp_type
_atom_site_U_iso_or_equiv
_atom_site_site_symmetry_multiplicity
_atom_site_occupancy
_atom_site_calc_flag
_atom_site_refinement_flags
_atom_site_disorder_assembly
_atom_site_disorder_group
La1 La 0.75 0.4252(5) 0.0422(7) Uani 0.015(5) 4 1 d . . .
La2 La 0.25 0.7425(6) 0.0989(5) Uani 0.024(4) 4 1 d . . .
La3 La -0.25 0.5943(5) 0.1753(6) Uani 0.016(4) 4 1 d . . .
In1 In -0.75 0.4038(6) 0.2979(8) Uani 0.027(5) 4 1 d . . .
In2 In 0.75 0.0720(7) 0.0367(9) Uani 0.035(6) 4 1 d . . .
In3 In 0.25 0.2375(8) 0.1775(6) Uani 0.036(6) 4 1 d . . .
S1 S -0.75 0.4831(16) 0.194(3) Uiso 0.026(4) 4 1 d . . .
S2 S -0.75 0.3614(17) 0.453(2) Uiso 0.026(4) 4 1 d . . .
S3 S -1.25 0.3326(17) 0.231(3) Uiso 0.026(4) 4 1 d . . .
S4 S 0.75 -0.008(2) -0.109(3) Uiso 0.026(4) 4 1 d . . .
S5 S 0.25 0.2982(17) 0.040(2) Uiso 0.026(4) 4 1 d . . .
S6 S 0.75 0.1509(17) 0.157(3) Uiso 0.026(4) 4 1 d . . .
O1 O -0.75 0.609(4) 0.123(4) Uiso 0.005(12) 4 1 d . . .
O2 O 0.75 0.714(3) 0.179(5) Uiso 0.005(12) 4 1 d . . .
O3 O 0.25 0.473(4) 0.956(5) Uiso 0.005(12) 4 1 d . . .
loop_
_atom_site_aniso_label
_atom_site_aniso_type_symbol
_atom_site_aniso_U_11
_atom_site_aniso_U_22
_atom_site_aniso_U_33
_atom_site_aniso_U_12
_atom_site_aniso_U_13
_atom_site_aniso_U_23
La1 La 0.019(9) 0.020(8) 0.007(7) 0 0 -0.008(6)
La2 La 0.033(7) 0.011(7) 0.028(7) 0 0 0.004(7)
La3 La 0.021(8) 0.009(7) 0.019(6) 0 0 0.008(6)
In1 In 0.015(10) 0.041(10) 0.025(9) 0 0 0.009(7)
In2 In 0.002(10) 0.049(11) 0.054(11) 0 0 -0.009(8)
In3 In 0.033(8) 0.071(13) 0.003(7) 0 0 0.005(8)
loop_
_atom_type_symbol
_atom_type_scat_dispersion_real
_atom_type_scat_dispersion_imag
_atom_type_scat_source
In 0.0822 5.0449 'International Tables Vol C tables 4.2.6.8 and 6.1.1.1'
La -1.4094 9.0376 'International Tables Vol C tables 4.2.6.8 and 6.1.1.1'
O 0.0492 0.0322 'International Tables Vol C tables 4.2.6.8 and 6.1.1.1'
S 0.3331 0.5567 'International Tables Vol C tables 4.2.6.8 and 6.1.1.1'
loop_
_exptl_crystal_face_index_h
_exptl_crystal_face_index_k
_exptl_crystal_face_index_l
_exptl_crystal_face_perp_dist
? ? ? ?
loop_
_geom_angle_atom_site_label_1
_geom_angle_atom_site_label_2
_geom_angle_atom_site_label_3
_geom_angle_site_symmetry_1
_geom_angle_site_symmetry_2
_geom_angle_site_symmetry_3
_geom_angle
_geom_angle_publ_flag
O1 La1 O3 4_665 . 1_554 68.0(18) ?
O1 La1 O3 4_665 . 1_654 68.0(18) ?
O1 La1 O3 4_665 . 4_566 107(3) ?
O3 La1 O3 1_554 . 1_654 102.0(18) ?
O3 La1 O3 1_554 . 4_566 67.9(19) ?
O3 La1 O3 1_654 . 4_566 67.9(19) ?
S3 La2 S5 3_455 . 4_465 136.2(5) ?
S3 La2 S5 3_455 . 4_565 136.2(5) ?
S3 La2 O1 3_455 . 1_655 118.9(14) ?
S3 La2 O2 3_455 . 1_455 75.2(15) ?
S3 La2 O2 3_455 . . 75.2(15) ?
S5 La2 S5 4_465 . 4_565 83.8(7) ?
S5 La2 O1 4_465 . 1_655 79.0(12) ?
S5 La2 O2 4_465 . 1_455 73.6(15) ?
S5 La2 O2 4_465 . . 146.1(16) ?
S5 La2 O1 4_565 . 1_655 79.0(12) ?
S5 La2 O2 4_565 . 1_455 146.1(16) ?
S5 La2 O2 4_565 . . 73.6(15) ?
O1 La2 O2 1_655 . 1_455 72.2(15) ?
O1 La2 O2 1_655 . . 72.2(15) ?
O2 La2 O2 1_455 . . 112.8(19) ?
S1 La3 S1 . . 1_655 81.8(6) ?
S1 La3 O1 . . . 62(2) ?
S1 La3 O1 . . 1_655 138(2) ?
S1 La3 O2 . . 1_455 138.5(5) ?
S1 La3 O3 . . 4_466 68.8(14) ?
S1 La3 O1 1_655 . . 138(2) ?
S1 La3 O1 1_655 . 1_655 62(2) ?
S1 La3 O2 1_655 . 1_455 138.5(5) ?
S1 La3 O3 1_655 . 4_466 68.8(14) ?
O1 La3 O1 . . 1_655 134(2) ?
O1 La3 O2 . . 1_455 82(2) ?
O1 La3 O3 . . 4_466 77.6(19) ?
O1 La3 O2 1_655 . 1_455 82(2) ?
O1 La3 O3 1_655 . 4_466 77.6(19) ?
O2 La3 O3 1_455 . 4_466 127(2) ?
S1 In1 S2 . . . 154.2(14) ?
S1 In1 S3 . . . 98.1(11) ?
S1 In1 S3 . . 1_655 98.1(11) ?
S2 In1 S3 . . . 99.0(10) ?
S2 In1 S3 . . 1_655 99.0(10) ?
S3 In1 S3 . . 1_655 96.8(9) ?
S2 In2 S2 2_454 . 2_554 94.2(9) ?
S2 In2 S4 2_454 . . 86.5(10) ?
S2 In2 S4 2_454 . 4_455 83.3(9) ?
S2 In2 S4 2_454 . 4_555 176.7(11) ?
S2 In2 S6 2_454 . . 90.0(10) ?
S2 In2 S4 2_554 . . 86.5(10) ?
S2 In2 S4 2_554 . 4_455 176.7(11) ?
S2 In2 S4 2_554 . 4_555 83.3(9) ?
S2 In2 S6 2_554 . . 90.0(10) ?
S4 In2 S4 . . 4_455 91.2(11) ?
S4 In2 S4 . . 4_555 91.2(11) ?
S4 In2 S6 . . . 174.9(14) ?
S4 In2 S4 4_455 . 4_555 99.1(10) ?
S4 In2 S6 4_455 . . 92.2(11) ?
S4 In2 S6 4_555 . . 92.2(11) ?
S3 In3 S3 1_655 . 1_755 86.8(8) ?
S3 In3 S5 1_655 . . 83.3(10) ?
S3 In3 S6 1_655 . 1_455 88.2(7) ?
S3 In3 S6 1_655 . . 170.4(11) ?
S3 In3 O2 1_655 . 3_645 83.3(14) ?
S3 In3 S5 1_755 . . 83.3(10) ?
S3 In3 S6 1_755 . 1_455 170.4(11) ?
S3 In3 S6 1_755 . . 88.2(7) ?
S3 In3 O2 1_755 . 3_645 83.3(14) ?
S5 In3 S6 . . 1_455 104.2(10) ?
S5 In3 S6 . . . 104.2(10) ?
S5 In3 O2 . . 3_645 161.4(19) ?
S6 In3 S6 1_455 . . 95.6(9) ?
S6 In3 O2 1_455 . 3_645 88.1(14) ?
S6 In3 O2 . . 3_645 88.1(14) ?
La3 S1 La3 1_455 . . 81.8(8) ?
La3 S1 In1 1_455 . . 127.3(10) ?
La3 S1 O1 1_455 . . 43.2(6) ?
La3 S1 O3 1_455 . 4_366 45.6(13) ?
La3 S1 O3 1_455 . 4_466 97.9(15) ?
La3 S1 In1 . . . 127.3(10) ?
La3 S1 O1 . . . 43.2(6) ?
La3 S1 O3 . . 4_366 97.9(15) ?
La3 S1 O3 . . 4_466 45.6(13) ?
In1 S1 O1 . . . 159(2) ?
In1 S1 O3 . . 4_366 134.4(13) ?
In1 S1 O3 . . 4_466 134.4(13) ?
O1 S1 O3 . . 4_366 57.5(16) ?
O1 S1 O3 . . 4_466 57.5(16) ?
O3 S1 O3 4_366 . 4_466 79.4(15) ?
In1 S2 In2 . . 2_455 104.5(10) ?
In1 S2 In2 . . 2_555 104.5(10) ?
In2 S2 In2 2_455 . 2_555 94.2(11) ?
La2 S3 In1 3_445 . 1_455 91.3(10) ?
La2 S3 In1 3_445 . . 91.3(10) ?
La2 S3 In3 3_445 . 1_355 79.8(8) ?
La2 S3 In3 3_445 . 1_455 79.8(8) ?
In1 S3 In1 1_455 . . 96.8(12) ?
In1 S3 In3 1_455 . 1_355 87.6(3) ?
In1 S3 In3 1_455 . 1_455 170.1(14) ?
In1 S3 In3 . . 1_355 170.1(14) ?
In1 S3 In3 . . 1_455 87.6(3) ?
In3 S3 In3 1_355 . 1_455 86.8(10) ?
In2 S4 In2 . . 4_455 88.8(10) ?
In2 S4 In2 . . 4_555 88.8(10) ?
In2 S4 In2 4_455 . 4_555 99.1(14) ?
La2 S5 La2 4_465 . 4_565 83.8(9) ?
La2 S5 In3 4_465 . . 116.3(10) ?
La2 S5 In3 4_565 . . 116.3(10) ?
In2 S6 In3 . . . 122.1(10) ?
In2 S6 In3 . . 1_655 122.1(10) ?
In3 S6 In3 . . 1_655 95.6(12) ?
La1 O1 La2 4_365 . 1_455 99(2) ?
La1 O1 La3 4_365 . 1_455 108.0(17) ?
La1 O1 La3 4_365 . . 108.0(17) ?
La1 O1 S1 4_365 . . 96(3) ?
La1 O1 O2 4_365 . 1_355 117(2) ?
La1 O1 O2 4_365 . 1_455 117(2) ?
La1 O1 O3 4_365 . 4_366 56.3(17) ?
La1 O1 O3 4_365 . 4_466 56.3(17) ?
La2 O1 La3 1_455 . 1_455 101(2) ?
La2 O1 La3 1_455 . . 101(2) ?
La2 O1 S1 1_455 . . 165(3) ?
La2 O1 O2 1_455 . 1_355 48.2(15) ?
La2 O1 O2 1_455 . 1_455 48.2(15) ?
La2 O1 O3 1_455 . 4_366 122(2) ?
La2 O1 O3 1_455 . 4_466 122(2) ?
La3 O1 La3 1_455 . . 134(3) ?
La3 O1 S1 1_455 . . 74.6(19) ?
La3 O1 O2 1_455 . 1_355 53.0(14) ?
La3 O1 O2 1_455 . 1_455 127(3) ?
La3 O1 O3 1_455 . 4_366 54.8(15) ?
La3 O1 O3 1_455 . 4_466 135(3) ?
La3 O1 S1 . . . 74.6(19) ?
La3 O1 O2 . . 1_355 127(3) ?
La3 O1 O2 . . 1_455 53.0(14) ?
La3 O1 O3 . . 4_366 135(3) ?
La3 O1 O3 . . 4_466 54.8(15) ?
S1 O1 O2 . . 1_355 123.4(19) ?
S1 O1 O2 . . 1_455 123.4(19) ?
S1 O1 O3 . . 4_366 67(2) ?
S1 O1 O3 . . 4_466 67(2) ?
O2 O1 O2 1_355 . 1_455 81(2) ?
O2 O1 O3 1_355 . 4_366 94.2(13) ?
O2 O1 O3 1_355 . 4_466 169(3) ?
O2 O1 O3 1_455 . 4_366 169(3) ?
O2 O1 O3 1_455 . 4_466 94.2(13) ?
O3 O1 O3 4_366 . 4_466 88(2) ?
La2 O2 La2 . . 1_655 113(3) ?
La2 O2 La3 . . 1_655 103.6(17) ?
La2 O2 In3 . . 3_655 115.5(16) ?
La2 O2 O1 . . 1_655 59.6(14) ?
La2 O2 O1 . . 1_755 126(3) ?
La2 O2 La3 1_655 . 1_655 103.6(17) ?
La2 O2 In3 1_655 . 3_655 115.5(16) ?
La2 O2 O1 1_655 . 1_655 126(3) ?
La2 O2 O1 1_655 . 1_755 59.6(14) ?
La3 O2 In3 1_655 . 3_655 104(3) ?
La3 O2 O1 1_655 . 1_655 44.6(13) ?
La3 O2 O1 1_655 . 1_755 44.6(13) ?
In3 O2 O1 3_655 . 1_655 115(2) ?
In3 O2 O1 3_655 . 1_755 115(2) ?
O1 O2 O1 1_655 . 1_755 81(2) ?
La1 O3 La1 1_456 . 1_556 102(3) ?
La1 O3 La1 1_456 . 4_466 112(2) ?
La1 O3 La3 1_456 . 4_566 101(2) ?
La1 O3 S1 1_456 . 4_566 88.3(7) ?
La1 O3 S1 1_456 . 4_666 164(3) ?
La1 O3 O1 1_456 . 4_566 55.7(14) ?
La1 O3 O1 1_456 . 4_666 121(3) ?
La1 O3 O3 1_456 . 4_467 47.5(17) ?
La1 O3 O3 1_456 . 4_567 120(3) ?
La1 O3 La1 1_556 . 4_466 112(2) ?
La1 O3 La3 1_556 . 4_566 101(2) ?
La1 O3 S1 1_556 . 4_566 164(3) ?
La1 O3 S1 1_556 . 4_666 88.3(7) ?
La1 O3 O1 1_556 . 4_566 121(3) ?
La1 O3 O1 1_556 . 4_666 55.7(14) ?
La1 O3 O3 1_556 . 4_467 120(3) ?
La1 O3 O3 1_556 . 4_567 47.5(17) ?
La1 O3 La3 4_466 . 4_566 126(3) ?
La1 O3 S1 4_466 . 4_566 73.8(19) ?
La1 O3 S1 4_466 . 4_666 73.8(19) ?
La1 O3 O1 4_466 . 4_566 126(2) ?
La1 O3 O1 4_466 . 4_666 126(2) ?
La1 O3 O3 4_466 . 4_467 65(2) ?
La1 O3 O3 4_466 . 4_567 65(2) ?
La3 O3 S1 4_566 . 4_566 65.6(16) ?
La3 O3 S1 4_566 . 4_666 65.6(16) ?
La3 O3 O1 4_566 . 4_566 47.6(15) ?
La3 O3 O1 4_566 . 4_666 47.6(15) ?
La3 O3 O3 4_566 . 4_467 130.6(17) ?
La3 O3 O3 4_566 . 4_567 130.6(17) ?
S1 O3 S1 4_566 . 4_666 79.4(18) ?
S1 O3 O1 4_566 . 4_566 55.5(17) ?
S1 O3 O1 4_566 . 4_666 109(3) ?
S1 O3 O3 4_566 . 4_467 75.4(17) ?
S1 O3 O3 4_566 . 4_567 136(3) ?
S1 O3 O1 4_666 . 4_566 109(3) ?
S1 O3 O1 4_666 . 4_666 55.5(17) ?
S1 O3 O3 4_666 . 4_467 136(3) ?
S1 O3 O3 4_666 . 4_567 75.4(17) ?
O1 O3 O1 4_566 . 4_666 88(2) ?
O1 O3 O3 4_566 . 4_467 85.6(16) ?
O1 O3 O3 4_566 . 4_567 169(4) ?
O1 O3 O3 4_666 . 4_467 169(4) ?
O1 O3 O3 4_666 . 4_567 85.6(16) ?
O3 O3 O3 4_467 . 4_567 98(3) ?
loop_
_geom_bond_atom_site_label_1
_geom_bond_atom_site_label_2
_geom_bond_site_symmetry_1
_geom_bond_site_symmetry_2
_geom_bond_distance
_geom_bond_publ_flag
La1 O1 . 4_665 2.55(6) ?
La1 O3 . 1_554 2.56(5) ?
La1 O3 . 1_654 2.56(5) ?
La1 O3 . 4_566 2.09(8) ?
La2 S3 . 3_455 3.13(4) ?
La2 S5 . 4_465 2.98(3) ?
La2 S5 . 4_565 2.98(3) ?
La2 O1 . 1_655 2.77(8) ?
La2 O2 . 1_455 2.39(4) ?
La2 O2 . . 2.39(4) ?
La3 S1 . . 3.04(3) ?
La3 S1 . 1_655 3.04(3) ?
La3 O1 . . 2.16(2) ?
La3 O1 . 1_655 2.16(2) ?
La3 O2 . 1_455 2.46(6) ?
La3 O3 . 4_466 2.39(7) ?
In1 S1 . . 2.25(4) ?
In1 S2 . . 2.46(4) ?
In1 S3 . . 2.66(3) ?
In1 S3 . 1_655 2.66(3) ?
In2 S2 . 2_454 2.72(3) ?
In2 S2 . 2_554 2.72(3) ?
In2 S4 . . 2.71(4) ?
In2 S4 . 4_455 2.62(3) ?
In2 S4 . 4_555 2.62(3) ?
In2 S6 . . 2.41(4) ?
In3 S3 . 1_655 2.90(3) ?
In3 S3 . 1_755 2.90(3) ?
In3 S5 . . 2.40(4) ?
In3 S6 . 1_455 2.69(3) ?
In3 S6 . . 2.69(3) ?
In3 O2 . 3_645 2.19(7) ?
S1 O1 . . 2.79(8) ?
S1 O3 . 4_366 3.12(6) ?
S1 O3 . 4_466 3.12(6) ?
O1 O2 . 1_355 3.05(7) ?
O1 O2 . 1_455 3.05(7) ?
O1 O3 . 4_366 2.86(7) ?
O1 O3 . 4_466 2.86(7) ?
O3 O3 . 4_467 2.63(7) ?
O3 O3 . 4_567 2.63(7) ?
loop_
_geom_hbond_atom_site_label_D
_geom_hbond_atom_site_label_H
_geom_hbond_atom_site_label_A
_geom_hbond_site_symmetry_D
_geom_hbond_site_symmetry_H
_geom_hbond_site_symmetry_A
_geom_hbond_distance_DH
_geom_hbond_distance_HA
_geom_hbond_distance_DA
_geom_hbond_angle_DHA
_geom_hbond_publ_flag
? ? ? ? ? ? ? ? ? ? ?
loop_
_geom_torsion_atom_site_label_1
_geom_torsion_atom_site_label_2
_geom_torsion_atom_site_label_3
_geom_torsion_atom_site_label_4
_geom_torsion_site_symmetry_1
_geom_torsion_site_symmetry_2
_geom_torsion_site_symmetry_3
_geom_torsion_site_symmetry_4
_geom_torsion
_geom_torsion_publ_flag
? ? ? ? ? ? ? ? ? ?
loop_
_pd_proc_point_id
_pd_proc_2theta_corrected
_pd_proc_d_spacing
_pd_proc_intensity_net
_pd_calc_intensity_net
_pd_proc_ls_weight
1 10.0525 8.799409 2915.00 2822.82 54.00
2 10.0729 8.781633 2821.00 2817.69 53.00
3 10.0934 8.763844 2842.00 2812.59 53.00
4 10.1138 8.746213 2830.00 2807.55 53.00
5 10.1342 8.728652 2797.00 2802.58 53.00
6 10.1546 8.711163 2859.00 2797.68 53.00
7 10.1751 8.693658 2884.00 2792.84 54.00
8 10.1955 8.676309 2760.00 2788.13 53.00
9 10.2159 8.659029 2821.00 2783.57 53.00
10 10.2364 8.641734 2866.00 2779.17 54.00
11 10.2568 8.624593 2803.00 2775.05 53.00
12 10.2772 8.607518 2841.00 2771.30 53.00
13 10.2976 8.590512 2841.00 2768.12 53.00
14 10.3181 8.573490 2807.00 2765.96 53.00
15 10.3385 8.556620 2771.00 2765.86 53.00
16 10.3589 8.539814 2851.00 2769.73 53.00
17 10.3794 8.522993 2768.00 2780.69 53.00
18 10.3998 8.506320 2697.00 2801.87 52.00
19 10.4202 8.489714 2770.00 2834.37 53.00
20 10.4406 8.473171 2814.00 2872.59 53.00
21 10.4611 8.456613 2818.00 2899.00 53.00
22 10.4815 8.440200 2733.00 2893.38 52.00
23 10.5019 8.423850 2659.00 2857.45 52.00
24 10.5224 8.407485 2734.00 2809.63 52.00
25 10.5428 8.391262 2761.00 2766.96 53.00
26 10.5632 8.375103 2569.00 2735.26 51.00
27 10.5836 8.359005 2664.00 2713.75 52.00
28 10.6041 8.342892 2631.00 2699.24 51.00
29 10.6245 8.326918 2652.00 2688.88 51.00
30 10.6449 8.311006 2704.00 2680.64 52.00
31 10.6654 8.295078 2578.00 2673.44 51.00
32 10.6858 8.279287 2504.00 2666.88 50.00
33 10.7062 8.263557 2662.00 2660.69 52.00
34 10.7266 8.247888 2700.00 2654.76 52.00
35 10.7471 8.232201 2633.00 2648.99 51.00
36 10.7675 8.216650 2597.00 2643.39 51.00
37 10.7879 8.201159 2633.00 2637.90 51.00
38 10.8083 8.185725 2618.00 2632.50 51.00
39 10.8288 8.170274 2592.00 2627.14 51.00
40 10.8492 8.154957 2685.00 2621.87 52.00
41 10.8696 8.139697 2563.00 2616.64 51.00
42 10.8901 8.124421 2439.00 2611.43 49.00
43 10.9105 8.109277 2545.00 2606.29 50.00
44 10.9309 8.094189 2529.00 2601.17 50.00
45 10.9513 8.079157 2545.00 2596.08 50.00
46 10.9718 8.064107 2591.00 2590.98 51.00
47 10.9922 8.049187 2513.00 2585.93 50.00
48 11.0126 8.034322 2505.00 2580.91 50.00
49 11.0331 8.019440 2591.00 2575.91 51.00
50 11.0535 8.004685 2541.00 2570.93 50.00
51 11.0739 7.989985 2508.00 2565.96 50.00
52 11.0943 7.975339 2553.00 2560.99 51.00
53 11.1148 7.960675 2543.00 2556.02 50.00
54 11.1352 7.946138 2476.00 2551.08 50.00
55 11.1556 7.931653 2497.00 2546.16 50.00
56 11.1761 7.917150 2478.00 2541.22 50.00
57 11.1965 7.902770 2493.00 2536.32 50.00
58 11.2169 7.888443 2497.00 2531.43 50.00
59 11.2373 7.874169 2469.00 2526.55 50.00
60 11.2578 7.859876 2461.00 2521.65 50.00
61 11.2782 7.845705 2469.00 2516.79 50.00
62 11.2986 7.831585 2428.00 2511.94 49.00
63 11.3191 7.817447 2462.00 2507.07 50.00
64 11.3395 7.803429 2475.00 2502.24 50.00
65 11.3599 7.789462 2500.00 2497.13 50.00
66 11.3803 7.775545 2414.00 2492.19 49.00
67 11.4008 7.761610 2464.00 2487.38 50.00
68 11.4212 7.747792 2493.00 2482.60 50.00
69 11.4416 7.734024 2478.00 2477.84 50.00
70 11.4621 7.720237 2435.00 2473.05 49.00
71 11.4825 7.706567 2450.00 2468.30 49.00
72 11.5029 7.692945 2531.00 2463.56 50.00
73 11.5233 7.679372 2470.00 2458.83 50.00
74 11.5438 7.665781 2536.00 2454.09 50.00
75 11.5642 7.652304 2470.00 2449.39 50.00
76 11.5846 7.638874 2460.00 2444.69 50.00
77 11.6051 7.625427 2487.00 2439.99 50.00
78 11.6255 7.612092 2499.00 2435.33 50.00
79 11.6459 7.598804 2536.00 2430.69 50.00
80 11.6663 7.585562 2370.00 2426.07 49.00
81 11.6868 7.572302 2334.00 2421.46 48.00
82 11.7072 7.559153 2401.00 2416.92 49.00
83 11.7276 7.546050 2376.00 2412.43 49.00
84 11.7481 7.532928 2400.00 2408.00 49.00
85 11.7685 7.519916 2432.00 2403.73 49.00
86 11.7889 7.506948 2405.00 2401.79 49.00
87 11.8093 7.494027 2435.00 2398.42 49.00
88 11.8298 7.481086 2526.00 2396.99 50.00
89 11.8502 7.468254 2424.00 2395.89 49.00
90 11.8706 7.455465 2390.00 2396.21 49.00
91 11.8911 7.442658 2393.00 2397.17 49.00
92 11.9115 7.429957 2395.00 2396.45 49.00
93 11.9319 7.417300 2442.00 2391.74 49.00
94 11.9523 7.404686 2361.00 2383.49 49.00
95 11.9728 7.392054 2397.00 2373.84 49.00
96 11.9932 7.379526 2288.00 2364.86 48.00
97 12.0136 7.367041 2359.00 2357.27 49.00
98 12.0340 7.354598 2284.00 2350.97 48.00
99 12.0545 7.342137 2384.00 2345.54 49.00
100 12.0749 7.329779 2365.00 2340.70 49.00
101 12.0953 7.317462 2264.00 2336.16 48.00
102 12.1158 7.305127 2318.00 2331.80 48.00
103 12.1362 7.292893 2343.00 2327.60 48.00
104 12.1566 7.280701 2296.00 2323.53 48.00
105 12.1770 7.268549 2433.00 2319.56 49.00
106 12.1975 7.256379 2296.00 2315.70 48.00
107 12.2179 7.244309 2315.00 2311.99 48.00
108 12.2383 7.232280 2337.00 2308.43 48.00
109 12.2588 7.220232 2350.00 2305.02 48.00
110 12.2792 7.208282 2320.00 2301.82 48.00
111 12.2996 7.196373 2364.00 2298.86 49.00
112 12.3200 7.184502 2289.00 2296.18 48.00
113 12.3405 7.172613 2330.00 2293.84 48.00
114 12.3609 7.160822 2272.00 2291.94 48.00
115 12.3813 7.149069 2260.00 2290.59 48.00
116 12.4018 7.137298 2346.00 2289.95 48.00
117 12.4222 7.125622 2318.00 2290.23 48.00
118 12.4426 7.113986 2308.00 2291.74 48.00
119 12.4630 7.102386 2274.00 2294.94 48.00
120 12.4835 7.090770 2312.00 2300.61 48.00
121 12.5039 7.079247 2205.00 2310.10 47.00
122 12.5243 7.067762 2411.00 2326.38 49.00
123 12.5448 7.056259 2437.00 2355.96 49.00
124 12.5652 7.044848 2447.00 2410.70 49.00
125 12.5856 7.033475 2491.00 2509.31 50.00
126 12.6060 7.022139 2701.00 2671.90 52.00
127 12.6265 7.010784 2973.00 2906.90 55.00
128 12.6469 6.999521 3179.00 3176.32 56.00
129 12.6673 6.988294 3385.00 3367.63 58.00
130 12.6878 6.977049 3275.00 3361.42 57.00
131 12.7082 6.965895 2999.00 3173.42 55.00
132 12.7286 6.954777 2761.00 2906.83 53.00
133 12.7490 6.943695 2584.00 2663.30 51.00
134 12.7695 6.932593 2464.00 2485.49 50.00
135 12.7899 6.921581 2348.00 2372.45 48.00
136 12.8103 6.910605 2146.00 2304.57 46.00
137 12.8308 6.899609 2296.00 2263.42 48.00
138 12.8512 6.888703 2276.00 2236.87 48.00
139 12.8716 6.877831 2281.00 2217.80 48.00
140 12.8920 6.866993 2232.00 2202.89 47.00
141 12.9125 6.856137 2257.00 2190.52 48.00
142 12.9329 6.845368 2115.00 2179.98 46.00
143 12.9533 6.834633 2203.00 2170.72 47.00
144 12.9738 6.823881 2184.00 2162.37 47.00
145 12.9942 6.813213 2142.00 2154.78 46.00
146 13.0146 6.802580 2148.00 2147.75 46.00
147 13.0350 6.791979 2109.00 2141.16 46.00
148 13.0555 6.781361 2086.00 2134.90 46.00
149 13.0759 6.770826 2062.00 2128.95 45.00
150 13.0963 6.760325 2145.00 2123.23 46.00
151 13.1168 6.749806 2161.00 2117.68 46.00
152 13.1372 6.739370 2154.00 2112.31 46.00
153 13.1576 6.728967 2053.00 2107.08 45.00
154 13.1780 6.718596 2075.00 2102.70 46.00
155 13.1985 6.708208 2095.00 2098.40 46.00
156 13.2189 6.697901 2154.00 2094.19 46.00
157 13.2393 6.687626 2117.00 2090.07 46.00
158 13.2598 6.677333 2174.00 2085.98 47.00
159 13.2802 6.667121 2080.00 2081.97 46.00
160 13.3006 6.656941 2065.00 2078.01 45.00
161 13.3210 6.646793 2090.00 2074.09 46.00
162 13.3415 6.636626 2100.00 2070.19 46.00
163 13.3619 6.626539 2088.00 2066.36 46.00
164 13.3823 6.616484 2025.00 2062.55 45.00
165 13.4027 6.606459 2058.00 2058.77 45.00
166 13.4232 6.596416 2085.00 2054.99 46.00
167 13.4436 6.586452 2022.00 2051.25 45.00
168 13.4640 6.576518 2050.00 2047.54 45.00
169 13.4845 6.566566 1901.00 2043.82 44.00
170 13.5049 6.556693 2010.00 2040.15 45.00
171 13.5253 6.546849 2009.00 2036.49 45.00
172 13.5457 6.537035 2093.00 2032.84 46.00
173 13.5662 6.527203 1981.00 2027.23 45.00
174 13.5866 6.517448 2112.00 2023.70 46.00
175 13.6070 6.507723 2049.00 2019.22 45.00
176 13.6275 6.497980 1917.00 2015.73 44.00
177 13.6479 6.488313 2098.00 2012.26 46.00
178 13.6683 6.478675 2038.00 2008.80 45.00
179 13.6887 6.469066 2040.00 2005.33 45.00
180 13.7092 6.459438 2044.00 2001.86 45.00
181 13.7296 6.449887 2014.00 1998.40 45.00
182 13.7500 6.440363 2024.00 1994.95 45.00
183 13.7705 6.430821 2035.00 1991.49 45.00
184 13.7909 6.421355 1999.00 1988.05 45.00
185 13.8113 6.411916 2056.00 1984.61 45.00
186 13.8317 6.402504 2025.00 1984.63 45.00
187 13.8522 6.393076 2005.00 1981.35 45.00
188 13.8726 6.383721 2009.00 1979.83 45.00
189 13.8930 6.374393 1943.00 1976.68 44.00
190 13.9135 6.365047 1970.00 1973.55 44.00
191 13.9339 6.355774 2024.00 1970.46 45.00
192 13.9543 6.346529 1939.00 1967.40 44.00
193 13.9747 6.337309 1908.00 1964.38 44.00
194 13.9952 6.328073 1960.00 1961.39 44.00
195 14.0156 6.318908 1961.00 1958.45 44.00
196 14.0360 6.309770 2019.00 1955.57 45.00
197 14.0565 6.300614 2073.00 1952.74 46.00
198 14.0769 6.291530 1961.00 1950.00 44.00
199 14.0973 6.282471 1886.00 1947.36 43.00
200 14.1177 6.273438 1939.00 1944.87 44.00
201 14.1382 6.264389 1964.00 1942.61 44.00
202 14.1586 6.255408 1934.00 1940.69 44.00
203 14.1790 6.246454 1896.00 1939.18 44.00
204 14.1995 6.237482 1976.00 1938.07 44.00
205 14.2199 6.228580 1982.00 1937.02 45.00
206 14.2403 6.219703 1999.00 1935.45 45.00
207 14.2607 6.210851 2067.00 1933.16 45.00
208 14.2812 6.201982 1952.00 1930.49 44.00
209 14.3016 6.193181 1896.00 1927.95 44.00
210 14.3220 6.184406 1959.00 1925.94 44.00
211 14.3425 6.175612 1934.00 1924.60 44.00
212 14.3629 6.166887 2005.00 1923.98 45.00
213 14.3833 6.158186 1946.00 1924.09 44.00
214 14.4037 6.149510 1936.00 1925.01 44.00
215 14.4242 6.140817 2017.00 1926.90 45.00
216 14.4446 6.132190 2018.00 1929.98 45.00
217 14.4650 6.123587 1990.00 1934.61 45.00
218 14.4855 6.114967 1987.00 1941.33 45.00
219 14.5059 6.106414 1936.00 1950.85 44.00
220 14.5263 6.097884 1937.00 1964.44 44.00
221 14.5467 6.089378 2044.00 1984.38 45.00
222 14.5672 6.080855 2049.00 2015.56 45.00
223 14.5876 6.072398 2099.00 2067.60 46.00
224 14.6080 6.063963 2263.00 2159.13 48.00
225 14.6284 6.055553 2485.00 2318.30 50.00
226 14.6489 6.047124 2589.00 2577.17 51.00
227 14.6693 6.038760 2952.00 2944.36 54.00
228 14.6897 6.030420 3322.00 3364.59 58.00
229 14.7102 6.022062 3374.00 3659.22 58.00
230 14.7306 6.013769 3409.00 3652.95 58.00
231 14.7510 6.005498 3068.00 3385.64 55.00
232 14.7714 5.997250 2879.00 2990.61 54.00
233 14.7919 5.988985 2542.00 2613.01 50.00
234 14.8123 5.980783 2233.00 2333.71 47.00
235 14.8327 5.972603 2094.00 2152.29 46.00
236 14.8532 5.964406 2059.00 2041.97 45.00
237 14.8736 5.956271 1979.00 1976.15 44.00
238 14.8940 5.948159 2002.00 1934.55 45.00
239 14.9144 5.940068 1931.00 1905.89 44.00
240 14.9349 5.931961 1943.00 1884.42 44.00
241 14.9553 5.923915 1921.00 1867.56 44.00
242 14.9757 5.915892 1762.00 1853.74 42.00
243 14.9962 5.907851 1833.00 1842.06 43.00
244 15.0166 5.899871 1923.00 1832.06 44.00
245 15.0370 5.891912 1858.00 1823.30 43.00
246 15.0574 5.883976 1861.00 1815.49 43.00
247 15.0779 5.876022 1863.00 1808.39 43.00
248 15.0983 5.868128 1810.00 1801.92 43.00
249 15.1187 5.860257 1799.00 1795.92 42.00
250 15.1392 5.852367 1780.00 1790.29 42.00
251 15.1596 5.844538 1781.00 1785.00 42.00
252 15.1800 5.836730 1806.00 1779.99 42.00
253 15.2004 5.828942 1812.00 1775.20 43.00
254 15.2209 5.821138 1768.00 1770.57 42.00
255 15.2413 5.813392 1844.00 1766.13 43.00
256 15.2617 5.805667 1816.00 1761.82 43.00
257 15.2822 5.797925 1688.00 1757.61 41.00
258 15.3026 5.790242 1855.00 1753.52 43.00
259 15.3230 5.782579 1682.00 1749.52 41.00
260 15.3434 5.774937 1856.00 1745.60 43.00
261 15.3639 5.767278 1820.00 1741.73 43.00
262 15.3843 5.759676 1743.00 1737.94 42.00
263 15.4047 5.752095 1773.00 1734.20 42.00
264 15.4252 5.744496 1773.00 1730.48 42.00
265 15.4456 5.736955 1858.00 1726.83 43.00
266 15.4660 5.729434 1736.00 1723.22 42.00
267 15.4864 5.721932 1739.00 1719.65 42.00
268 15.5069 5.714414 1762.00 1716.08 42.00
269 15.5273 5.706953 1709.00 1712.56 41.00
270 15.5477 5.699511 1734.00 1709.07 42.00
271 15.5682 5.692051 1783.00 1705.59 42.00
272 15.5886 5.684649 1723.00 1702.14 42.00
273 15.6090 5.677265 1792.00 1695.42 42.00
274 15.6294 5.669900 1711.00 1692.16 41.00
275 15.6499 5.662519 1736.00 1687.27 42.00
276 15.6703 5.655194 1777.00 1684.09 42.00
277 15.6907 5.647888 1708.00 1680.91 41.00
278 15.7112 5.640564 1655.00 1677.72 41.00
279 15.7316 5.633296 1694.00 1674.54 41.00
280 15.7520 5.626046 1683.00 1671.37 41.00
281 15.7724 5.618815 1760.00 1668.20 42.00
282 15.7929 5.611567 1686.00 1665.02 41.00
283 15.8133 5.604375 1708.00 1661.85 41.00
284 15.8337 5.597199 1681.00 1658.69 41.00
285 15.8542 5.590008 1715.00 1655.51 41.00
286 15.8746 5.582871 1678.00 1652.35 41.00
287 15.8950 5.575751 1763.00 1649.19 42.00
288 15.9154 5.568651 1700.00 1646.03 41.00
289 15.9359 5.561533 1646.00 1642.86 41.00
290 15.9563 5.554469 1664.00 1639.71 41.00
291 15.9767 5.547422 1619.00 1636.56 40.00
292 15.9971 5.540394 1612.00 1633.41 40.00
293 16.0176 5.533350 1686.00 1630.24 41.00
294 16.0380 5.526357 1673.00 1627.10 41.00
295 16.0584 5.519383 1684.00 1623.95 41.00
296 16.0789 5.512392 1750.00 1620.80 42.00
297 16.0993 5.505453 1712.00 1617.66 41.00
298 16.1197 5.498531 1659.00 1614.52 41.00
299 16.1401 5.491627 1706.00 1611.38 41.00
300 16.1606 5.484707 1605.00 1608.23 40.00
301 16.1810 5.477839 1639.00 1605.10 40.00
302 16.2014 5.470987 1639.00 1601.96 40.00
303 16.2219 5.464119 1559.00 1598.82 39.00
304 16.2423 5.457303 1688.00 1595.69 41.00
305 16.2627 5.450503 1637.00 1592.56 40.00
306 16.2831 5.443720 1593.00 1590.53 40.00
307 16.3036 5.436922 1668.00 1588.49 41.00
308 16.3240 5.430173 1588.00 1586.46 40.00
309 16.3444 5.423441 1540.00 1584.43 39.00
310 16.3649 5.416693 1613.00 1582.39 40.00
311 16.3853 5.409996 1674.00 1580.37 41.00
312 16.4057 5.403314 1618.00 1578.35 40.00
313 16.4261 5.396650 1683.00 1576.32 41.00
314 16.4466 5.389970 1618.00 1574.29 40.00
315 16.4670 5.383338 1633.00 1572.27 40.00
316 16.4874 5.376723 1553.00 1570.26 39.00
317 16.5079 5.370092 1573.00 1568.23 40.00
318 16.5283 5.363511 1621.00 1566.22 40.00
319 16.5487 5.356945 1666.00 1564.20 41.00
320 16.5691 5.350395 1676.00 1562.19 41.00
321 16.5896 5.343829 1568.00 1560.17 40.00
322 16.6100 5.337312 1643.00 1558.16 41.00
323 16.6304 5.330811 1595.00 1556.16 40.00
324 16.6509 5.324294 1611.00 1554.14 40.00
325 16.6713 5.317824 1598.00 1552.14 40.00
326 16.6917 5.311371 1507.00 1550.13 39.00
327 16.7121 5.304935 1611.00 1548.34 40.00
328 16.7326 5.298481 1593.00 1546.34 40.00
329 16.7530 5.292075 1532.00 1544.35 39.00
330 16.7734 5.285685 1559.00 1542.47 39.00
331 16.7939 5.279279 1549.00 1540.48 39.00
332 16.8143 5.272919 1536.00 1538.51 39.00
333 16.8347 5.266576 1556.00 1536.53 39.00
334 16.8551 5.260247 1580.00 1534.56 40.00
335 16.8756 5.253904 1555.00 1532.59 39.00
336 16.8960 5.247606 1497.00 1530.62 39.00
337 16.9164 5.241324 1522.00 1528.66 39.00
338 16.9369 5.235026 1630.00 1526.70 40.00
339 16.9573 5.228774 1517.00 1524.74 39.00
340 16.9777 5.222538 1467.00 1522.80 38.00
341 16.9981 5.216316 1562.00 1520.85 40.00
342 17.0186 5.210078 1544.00 1518.91 39.00
343 17.0390 5.203887 1574.00 1516.98 40.00
344 17.0594 5.197710 1559.00 1515.05 39.00
345 17.0799 5.191517 1530.00 1513.13 39.00
346 17.1003 5.185370 1492.00 1511.23 39.00
347 17.1207 5.179237 1501.00 1509.33 39.00
348 17.1411 5.173119 1487.00 1507.46 39.00
349 17.1616 5.166986 1540.00 1505.60 39.00
350 17.1820 5.160898 1572.00 1503.77 40.00
351 17.2024 5.154823 1585.00 1501.99 40.00
352 17.2228 5.148764 1562.00 1500.24 40.00
353 17.2433 5.142688 1554.00 1498.49 39.00
354 17.2637 5.136657 1526.00 1496.75 39.00
355 17.2841 5.130641 1525.00 1494.99 39.00
356 17.3046 5.124609 1488.00 1493.24 39.00
357 17.3250 5.118620 1504.00 1491.55 39.00
358 17.3454 5.112647 1514.00 1489.95 39.00
359 17.3658 5.106686 1497.00 1488.46 39.00
360 17.3863 5.100712 1413.00 1487.40 38.00
361 17.4067 5.094780 1464.00 1486.29 38.00
362 17.4271 5.088862 1517.00 1485.59 39.00
363 17.4476 5.082929 1516.00 1485.22 39.00
364 17.4680 5.077039 1509.00 1485.62 39.00
365 17.4884 5.071162 1467.00 1487.47 38.00
366 17.5088 5.065300 1528.00 1491.90 39.00
367 17.5293 5.059422 1524.00 1500.56 39.00
368 17.5497 5.053587 1595.00 1515.10 40.00
369 17.5701 5.047765 1528.00 1535.06 39.00
370 17.5906 5.041929 1545.00 1555.84 39.00
371 17.6110 5.036134 1544.00 1565.63 39.00
372 17.6314 5.030354 1540.00 1559.40 39.00
373 17.6518 5.024586 1477.00 1542.32 38.00
374 17.6723 5.018804 1520.00 1519.61 39.00
375 17.6927 5.013063 1437.00 1498.14 38.00
376 17.7131 5.007336 1452.00 1481.69 38.00
377 17.7336 5.001593 1506.00 1470.25 39.00
378 17.7540 4.995893 1403.00 1462.56 37.00
379 17.7744 4.990204 1474.00 1457.20 38.00
380 17.7948 4.984529 1491.00 1453.17 39.00
381 17.8153 4.978840 1468.00 1449.87 38.00
382 17.8357 4.973191 1506.00 1447.03 39.00
383 17.8561 4.967556 1468.00 1444.48 38.00
384 17.8766 4.961905 1409.00 1442.13 38.00
385 17.8970 4.956295 1424.00 1439.96 38.00
386 17.9174 4.950698 1457.00 1437.93 38.00
387 17.9378 4.945114 1464.00 1436.03 38.00
388 17.9583 4.939515 1460.00 1434.24 38.00
389 17.9787 4.933956 1516.00 1432.59 39.00
390 17.9991 4.928411 1481.00 1431.09 38.00
391 18.0196 4.922850 1509.00 1429.74 39.00
392 18.0400 4.917329 1464.00 1428.61 38.00
393 18.0604 4.911820 1409.00 1427.76 38.00
394 18.0808 4.906325 1412.00 1427.27 38.00
395 18.1013 4.900815 1428.00 1427.36 38.00
396 18.1217 4.895343 1511.00 1428.39 39.00
397 18.1421 4.889885 1426.00 1431.12 38.00
398 18.1626 4.884412 1494.00 1436.92 39.00
399 18.1830 4.878978 1395.00 1447.65 37.00
400 18.2034 4.873556 1512.00 1465.31 39.00
401 18.2238 4.868146 1531.00 1490.36 39.00
402 18.2443 4.862722 1545.00 1518.05 39.00
403 18.2647 4.857337 1566.00 1534.77 40.00
404 18.2851 4.851964 1580.00 1532.37 40.00
405 18.3056 4.846577 1479.00 1517.17 38.00
406 18.3260 4.841228 1576.00 1496.49 40.00
407 18.3464 4.835891 1480.00 1479.24 38.00
408 18.3668 4.830565 1472.00 1472.85 38.00
409 18.3873 4.825226 1481.00 1478.52 38.00
410 18.4077 4.819925 1556.00 1490.77 39.00
411 18.4281 4.814635 1445.00 1497.29 38.00
412 18.4486 4.809331 1426.00 1490.09 38.00
413 18.4690 4.804065 1507.00 1473.10 39.00
414 18.4894 4.798810 1466.00 1450.57 38.00
415 18.5098 4.793568 1369.00 1427.82 37.00
416 18.5303 4.788311 1356.00 1409.74 37.00
417 18.5507 4.783092 1357.00 1396.83 37.00
418 18.5711 4.777883 1263.00 1387.99 36.00
419 18.5915 4.772686 1330.00 1381.74 36.00
420 18.6120 4.767476 1397.00 1377.00 37.00
421 18.6324 4.762302 1389.00 1373.16 37.00
422 18.6528 4.757140 1386.00 1369.84 37.00
423 18.6733 4.751964 1417.00 1366.83 38.00
424 18.6937 4.746824 1412.00 1364.06 38.00
425 18.7141 4.741695 1372.00 1361.46 37.00
426 18.7345 4.736578 1349.00 1358.97 37.00
427 18.7550 4.731447 1337.00 1356.58 37.00
428 18.7754 4.726352 1268.00 1354.27 36.00
429 18.7958 4.721269 1286.00 1352.02 36.00
430 18.8163 4.716171 1345.00 1349.80 37.00
431 18.8367 4.711109 1416.00 1347.64 38.00
432 18.8571 4.706059 1289.00 1345.51 36.00
433 18.8775 4.701019 1328.00 1343.40 36.00
434 18.8980 4.695966 1330.00 1341.31 36.00
435 18.9184 4.690948 1389.00 1339.25 37.00
436 18.9388 4.685941 1330.00 1337.20 36.00
437 18.9593 4.680921 1351.00 1335.16 37.00
438 18.9797 4.675936 1308.00 1333.14 36.00
439 19.0001 4.670961 1335.00 1331.74 37.00
440 19.0205 4.665998 1345.00 1329.77 37.00
441 19.0410 4.661020 1322.00 1327.80 36.00
442 19.0614 4.656078 1322.00 1326.15 36.00
443 19.0818 4.651146 1273.00 1324.22 36.00
444 19.1023 4.646201 1360.00 1322.30 37.00
445 19.1227 4.641291 1343.00 1320.39 37.00
446 19.1431 4.636390 1299.00 1318.49 36.00
447 19.1635 4.631501 1355.00 1316.34 37.00
448 19.1840 4.626598 1337.00 1314.46 37.00
449 19.2044 4.621730 1207.00 1312.47 35.00
450 19.2248 4.616871 1283.00 1310.63 36.00
451 19.2453 4.612000 1274.00 1308.78 36.00
452 19.2657 4.607162 1267.00 1306.96 36.00
453 19.2861 4.602335 1298.00 1305.15 36.00
454 19.3065 4.597518 1281.00 1303.34 36.00
455 19.3270 4.592688 1271.00 1301.35 36.00
456 19.3474 4.587891 1298.00 1299.59 36.00
457 19.3678 4.583105 1327.00 1297.74 36.00
458 19.3883 4.578305 1309.00 1296.02 36.00
459 19.4087 4.573539 1265.00 1295.09 36.00
460 19.4291 4.568783 1299.00 1294.20 36.00
461 19.4495 4.564037 1281.00 1293.33 36.00
462 19.4700 4.559278 1320.00 1292.50 36.00
463 19.4904 4.554552 1307.00 1291.72 36.00
464 19.5108 4.549836 1323.00 1291.00 36.00
465 19.5313 4.545106 1296.00 1290.34 36.00
466 19.5517 4.540410 1337.00 1289.76 37.00
467 19.5721 4.535724 1274.00 1289.29 36.00
468 19.5925 4.531047 1282.00 1288.95 36.00
469 19.6130 4.526357 1267.00 1288.77 36.00
470 19.6334 4.521700 1298.00 1288.81 36.00
471 19.6538 4.517053 1288.00 1289.12 36.00
472 19.6743 4.512393 1311.00 1289.80 36.00
473 19.6947 4.507764 1326.00 1291.00 36.00
474 19.7151 4.503146 1316.00 1292.93 36.00
475 19.7355 4.498538 1302.00 1296.00 36.00
476 19.7560 4.493916 1318.00 1301.02 36.00
477 19.7764 4.489326 1290.00 1309.50 36.00
478 19.7968 4.484746 1246.00 1324.17 35.00
479 19.8172 4.480175 1399.00 1348.99 37.00
480 19.8377 4.475592 1379.00 1388.37 37.00
481 19.8581 4.471040 1428.00 1443.20 38.00
482 19.8785 4.466498 1477.00 1503.97 38.00
483 19.8990 4.461943 1481.00 1542.26 38.00
484 19.9194 4.457420 1494.00 1537.94 39.00
485 19.9398 4.452905 1487.00 1505.10 39.00
486 19.9602 4.448400 1304.00 1455.36 36.00
487 19.9807 4.443883 1332.00 1400.17 36.00
488 20.0011 4.439396 1287.00 1354.56 36.00
489 20.0215 4.434919 1325.00 1322.44 36.00
490 20.0420 4.430429 1225.00 1301.40 35.00
491 20.0624 4.425970 1310.00 1288.02 36.00
492 20.0828 4.421520 1271.00 1279.20 36.00
493 20.1032 4.417079 1236.00 1272.99 35.00
494 20.1237 4.412626 1232.00 1268.62 35.00
495 20.1441 4.408203 1262.00 1264.86 36.00
496 20.1645 4.403790 1230.00 1261.87 35.00
497 20.1850 4.399364 1208.00 1259.15 35.00
498 20.2054 4.394968 1285.00 1256.76 36.00
499 20.2258 4.390581 1282.00 1254.60 36.00
500 20.2462 4.386203 1302.00 1252.63 36.00
501 20.2667 4.381813 1268.00 1250.80 36.00
502 20.2871 4.377452 1265.00 1249.09 36.00
503 20.3075 4.373101 1275.00 1247.48 36.00
504 20.3280 4.368738 1207.00 1245.94 35.00
505 20.3484 4.364404 1315.00 1244.46 36.00
506 20.3688 4.360079 1291.00 1243.05 36.00
507 20.3892 4.355762 1182.00 1241.67 34.00
508 20.4097 4.351433 1239.00 1240.34 35.00
509 20.4301 4.347135 1250.00 1239.04 35.00
510 20.4505 4.342844 1218.00 1237.78 35.00
511 20.4710 4.338542 1254.00 1236.55 35.00
512 20.4914 4.334269 1258.00 1235.35 35.00
513 20.5118 4.330004 1267.00 1234.17 36.00
514 20.5322 4.325748 1248.00 1233.03 35.00
515 20.5527 4.321480 1251.00 1231.90 35.00
516 20.5731 4.317241 1262.00 1230.81 36.00
517 20.5935 4.313010 1272.00 1229.76 36.00
518 20.6140 4.308767 1222.00 1228.73 35.00
519 20.6344 4.304553 1193.00 1227.75 35.00
520 20.6548 4.300348 1276.00 1226.82 36.00
521 20.6752 4.296151 1180.00 1225.94 34.00
522 20.6957 4.291942 1217.00 1225.13 35.00
523 20.7161 4.287761 1189.00 1224.40 34.00
524 20.7365 4.283589 1234.00 1223.78 35.00
525 20.7570 4.279405 1196.00 1223.28 35.00
526 20.7774 4.275249 1162.00 1222.96 34.00
527 20.7978 4.271102 1185.00 1222.27 34.00
528 20.8182 4.266963 1169.00 1222.52 34.00
529 20.8387 4.262812 1227.00 1223.24 35.00
530 20.8591 4.258688 1213.00 1224.40 35.00
531 20.8795 4.254573 1214.00 1227.11 35.00
532 20.9000 4.250447 1222.00 1232.10 35.00
533 20.9204 4.246348 1219.00 1240.96 35.00
534 20.9408 4.242258 1216.00 1255.95 35.00
535 20.9612 4.238174 1276.00 1279.11 36.00
536 20.9817 4.234080 1231.00 1310.24 35.00
537 21.0021 4.230014 1281.00 1340.95 36.00
538 21.0225 4.225955 1297.00 1354.65 36.00
539 21.0430 4.221885 1303.00 1346.53 36.00
540 21.0634 4.217842 1275.00 1326.54 36.00
541 21.0838 4.213807 1266.00 1298.84 36.00
542 21.1042 4.209779 1305.00 1269.51 36.00
543 21.1247 4.205740 1229.00 1245.53 35.00
544 21.1451 4.201729 1206.00 1228.72 35.00
545 21.1655 4.197725 1175.00 1217.53 34.00
546 21.1859 4.193730 1145.00 1210.10 34.00
547 21.2064 4.189722 1220.00 1204.94 35.00
548 21.2268 4.185741 1212.00 1201.13 35.00
549 21.2472 4.181769 1225.00 1198.20 35.00
550 21.2677 4.177784 1169.00 1195.63 34.00
551 21.2881 4.173827 1134.00 1193.45 34.00
552 21.3085 4.169877 1116.00 1191.44 33.00
553 21.3289 4.165935 1192.00 1189.61 35.00
554 21.3494 4.161981 1165.00 1187.89 34.00
555 21.3698 4.158054 1187.00 1186.28 34.00
556 21.3902 4.154135 1233.00 1184.75 35.00
557 21.4107 4.150203 1149.00 1183.27 34.00
558 21.4311 4.146299 1144.00 1181.85 34.00
559 21.4515 4.142402 1179.00 1180.47 34.00
560 21.4719 4.138512 1108.00 1179.13 33.00
561 21.4924 4.134612 1178.00 1177.80 34.00
562 21.5128 4.130737 1147.00 1176.51 34.00
563 21.5332 4.126870 1144.00 1175.26 34.00
564 21.5537 4.122991 1178.00 1174.00 34.00
565 21.5741 4.119138 1183.00 1172.77 34.00
566 21.5945 4.115293 1093.00 1171.56 33.00
567 21.6149 4.111455 1169.00 1170.35 34.00
568 21.6354 4.107606 1135.00 1169.15 34.00
569 21.6558 4.103783 1152.00 1167.96 34.00
570 21.6762 4.099966 1172.00 1166.79 34.00
571 21.6967 4.096139 1133.00 1165.63 34.00
572 21.7171 4.092337 1120.00 1164.48 33.00
573 21.7375 4.088543 1185.00 1163.35 34.00
574 21.7579 4.084756 1257.00 1162.23 35.00
575 21.7784 4.080957 1154.00 1161.12 34.00
576 21.7988 4.077184 1163.00 1160.04 34.00
577 21.8192 4.073418 1156.00 1159.16 34.00
578 21.8397 4.069641 1189.00 1158.13 34.00
579 21.8601 4.065889 1144.00 1157.22 34.00
580 21.8805 4.062144 1126.00 1156.29 34.00
581 21.9009 4.058407 1222.00 1155.41 35.00
582 21.9214 4.054658 1198.00 1154.26 35.00
583 21.9418 4.050935 1210.00 1153.58 35.00
584 21.9622 4.047218 1211.00 1153.04 35.00
585 21.9827 4.043490 1142.00 1152.57 34.00
586 22.0031 4.039787 1172.00 1152.66 34.00
587 22.0235 4.036091 1169.00 1153.42 34.00
588 22.0439 4.032402 1166.00 1155.35 34.00
589 22.0644 4.028702 1171.00 1159.17 34.00
590 22.0848 4.025027 1191.00 1165.55 35.00
591 22.1052 4.021358 1321.00 1174.64 36.00
592 22.1257 4.017679 1258.00 1184.46 35.00
593 22.1461 4.014024 1239.00 1189.59 35.00
594 22.1665 4.010376 1138.00 1187.32 34.00
595 22.1869 4.006735 1221.00 1180.92 35.00
596 22.2074 4.003083 1172.00 1172.03 34.00
597 22.2278 3.999455 1201.00 1161.80 35.00
598 22.2482 3.995834 1103.00 1152.72 33.00
599 22.2687 3.992202 1174.00 1145.90 34.00
600 22.2891 3.988594 1164.00 1141.19 34.00
601 22.3095 3.984993 1146.00 1138.01 34.00
602 22.3299 3.981398 1114.00 1135.94 33.00
603 22.3504 3.977793 1131.00 1134.73 34.00
604 22.3708 3.974212 1118.00 1134.31 33.00
605 22.3912 3.970637 1139.00 1134.62 34.00
606 22.4116 3.967069 1102.00 1135.32 33.00
607 22.4321 3.963490 1132.00 1135.46 34.00
608 22.4525 3.959935 1142.00 1134.34 34.00
609 22.4729 3.956386 1107.00 1132.48 33.00
610 22.4934 3.952827 1043.00 1130.31 32.00
611 22.5138 3.949291 1047.00 1128.45 32.00
612 22.5342 3.945762 1125.00 1126.95 34.00
613 22.5546 3.942240 1084.00 1126.21 33.00
614 22.5751 3.938706 1078.00 1126.44 33.00
615 22.5955 3.935196 1089.00 1128.01 33.00
616 22.6159 3.931693 1058.00 1131.47 33.00
617 22.6364 3.928179 1106.00 1137.79 33.00
618 22.6568 3.924688 1080.00 1147.85 33.00
619 22.6772 3.921203 1111.00 1161.57 33.00
620 22.6976 3.917725 1130.00 1175.61 34.00
621 22.7181 3.914236 1196.00 1182.34 35.00
622 22.7385 3.910771 1084.00 1178.94 33.00
623 22.7589 3.907312 1192.00 1170.50 35.00
624 22.7794 3.903842 1125.00 1158.80 34.00
625 22.7998 3.900395 1095.00 1145.31 33.00
626 22.8202 3.896954 1089.00 1133.44 33.00
627 22.8406 3.893520 1067.00 1124.66 33.00
628 22.8611 3.890075 1124.00 1118.59 34.00
629 22.8815 3.886653 1093.00 1114.48 33.00
630 22.9019 3.883237 1066.00 1111.59 33.00
631 22.9224 3.879811 1052.00 1109.41 32.00
632 22.9428 3.876407 1065.00 1107.67 33.00
633 22.9632 3.873009 1082.00 1106.20 33.00
634 22.9836 3.869618 1109.00 1104.90 33.00
635 23.0041 3.866216 1114.00 1103.72 33.00
636 23.0245 3.862836 1097.00 1102.64 33.00
637 23.0449 3.859463 1114.00 1101.63 33.00
638 23.0654 3.856080 1100.00 1100.55 33.00
639 23.0858 3.852718 995.00 1099.64 32.00
640 23.1062 3.849363 999.00 1098.76 32.00
641 23.1266 3.846013 1061.00 1097.86 33.00
642 23.1471 3.842654 1059.00 1097.04 33.00
643 23.1675 3.839316 1042.00 1096.25 32.00
644 23.1879 3.835984 1061.00 1095.48 33.00
645 23.2084 3.832643 1062.00 1094.73 33.00
646 23.2288 3.829323 1043.00 1094.00 32.00
647 23.2492 3.826009 1098.00 1093.30 33.00
648 23.2696 3.822701 1037.00 1092.63 32.00
649 23.2901 3.819382 1141.00 1092.00 34.00
650 23.3105 3.816086 1070.00 1091.43 33.00
651 23.3309 3.812796 1085.00 1090.93 33.00
652 23.3514 3.809495 1020.00 1090.52 32.00
653 23.3718 3.806216 1056.00 1090.34 32.00
654 23.3922 3.802943 1062.00 1090.51 33.00
655 23.4126 3.799675 1070.00 1091.24 33.00
656 23.4331 3.796398 1100.00 1092.83 33.00
657 23.4535 3.793142 1050.00 1095.39 32.00
658 23.4739 3.789891 1063.00 1098.58 33.00
659 23.4944 3.786631 1036.00 1100.86 32.00
660 23.5148 3.783392 1062.00 1100.53 33.00
661 23.5352 3.780159 1027.00 1098.31 32.00
662 23.5556 3.776932 1045.00 1095.29 32.00
663 23.5761 3.773694 955.00 1091.52 31.00
664 23.5965 3.770478 1013.00 1087.65 32.00
665 23.6169 3.767267 1010.00 1084.42 32.00
666 23.6374 3.764046 1066.00 1081.77 33.00
667 23.6578 3.760846 1045.00 1079.91 32.00
668 23.6782 3.757653 1016.00 1078.46 32.00
669 23.6986 3.754464 1007.00 1077.17 32.00
670 23.7191 3.751265 997.00 1076.11 32.00
671 23.7395 3.748088 1055.00 1075.15 32.00
672 23.7599 3.744916 956.00 1074.26 31.00
673 23.7803 3.741750 998.00 1073.40 32.00
674 23.8008 3.738573 1057.00 1072.56 33.00
675 23.8212 3.735418 1025.00 1071.77 32.00
676 23.8416 3.732268 1043.00 1070.99 32.00
677 23.8621 3.729108 1049.00 1070.23 32.00
678 23.8825 3.725969 975.00 1069.52 31.00
679 23.9029 3.722835 956.00 1068.85 31.00
680 23.9233 3.719707 974.00 1068.21 31.00
681 23.9438 3.716568 1027.00 1067.56 32.00
682 23.9642 3.713451 1084.00 1066.85 33.00
683 23.9846 3.710339 1051.00 1066.05 32.00
684 24.0051 3.707216 964.00 1065.22 31.00
685 24.0255 3.704115 1014.00 1064.37 32.00
686 24.0459 3.701018 1023.00 1063.60 32.00
687 24.0663 3.697927 1019.00 1062.76 32.00
688 24.0868 3.694827 996.00 1061.95 32.00
689 24.1072 3.691746 1004.00 1061.22 32.00
690 24.1276 3.688671 1037.00 1060.48 32.00
691 24.1481 3.685586 1046.00 1059.75 32.00
692 24.1685 3.682521 998.00 1059.05 32.00
693 24.1889 3.679462 1027.00 1058.38 32.00
694 24.2093 3.676408 918.00 1057.75 30.00
695 24.2298 3.673344 978.00 1057.19 31.00
696 24.2502 3.670300 1036.00 1056.74 32.00
697 24.2706 3.667261 998.00 1056.46 32.00
698 24.2911 3.664212 1038.00 1056.42 32.00
699 24.3115 3.661184 1043.00 1056.62 32.00
700 24.3319 3.658161 1023.00 1056.86 32.00
701 24.3523 3.655142 1002.00 1056.67 32.00
702 24.3728 3.652114 1061.00 1055.83 33.00
703 24.3932 3.649107 1061.00 1054.68 33.00
704 24.4136 3.646103 1140.00 1053.39 34.00
705 24.4341 3.643091 1136.00 1052.51 34.00
706 24.4545 3.640098 1146.00 1051.16 34.00
707 24.4749 3.637110 1144.00 1050.01 34.00
708 24.4953 3.634127 1128.00 1049.36 34.00
709 24.5158 3.631135 1106.00 1048.63 33.00
710 24.5362 3.628162 1042.00 1048.09 32.00
711 24.5566 3.625194 1072.00 1047.74 33.00
712 24.5771 3.622217 1026.00 1050.97 32.00
713 24.5975 3.619259 1108.00 1051.45 33.00
714 24.6179 3.616306 1022.00 1052.50 32.00
715 24.6383 3.613358 1022.00 1055.87 32.00
716 24.6588 3.610401 1142.00 1058.23 34.00
717 24.6792 3.607463 1056.00 1060.29 32.00
718 24.6996 3.604529 1013.00 1061.21 32.00
719 24.7201 3.601586 1061.00 1061.37 33.00
720 24.7405 3.598663 1038.00 1060.99 32.00
721 24.7609 3.595744 1036.00 1059.57 32.00
722 24.7813 3.592831 1035.00 1057.63 32.00
723 24.8018 3.589907 1100.00 1068.46 33.00
724 24.8222 3.587003 1041.00 1068.00 32.00
725 24.8426 3.584104 998.00 1068.38 32.00
726 24.8631 3.581195 1046.00 1076.20 32.00
727 24.8835 3.578306 1035.00 1079.97 32.00
728 24.9039 3.575421 1054.00 1085.98 32.00
729 24.9243 3.572541 1053.00 1094.32 32.00
730 24.9448 3.569651 1021.00 1103.76 32.00
731 24.9652 3.566780 1056.00 1110.54 32.00
732 24.9856 3.563914 1007.00 1112.22 32.00
733 25.0060 3.561053 1031.00 1111.32 32.00
734 25.0265 3.558182 1069.00 1109.66 33.00
735 25.0469 3.555331 1062.00 1107.06 33.00
736 25.0673 3.552484 1032.00 1120.47 32.00
737 25.0878 3.549627 1035.00 1120.85 32.00
738 25.1082 3.546790 1084.00 1123.60 33.00
739 25.1286 3.543957 1100.00 1128.61 33.00
740 25.1490 3.541128 1114.00 1143.78 33.00
741 25.1695 3.538290 1109.00 1153.62 33.00
742 25.1899 3.535471 1081.00 1166.14 33.00
743 25.2103 3.532656 1158.00 1182.37 34.00
744 25.2308 3.529833 1144.00 1204.22 34.00
745 25.2512 3.527027 1207.00 1234.30 35.00
746 25.2716 3.524226 1295.00 1276.48 36.00
747 25.2920 3.521430 1292.00 1334.60 36.00
748 25.3125 3.518625 1368.00 1409.85 37.00
749 25.3329 3.515837 1423.00 1491.53 38.00
750 25.3533 3.513055 1493.00 1558.38 39.00
751 25.3738 3.510263 1647.00 1611.54 41.00
752 25.3942 3.507489 1755.00 1682.38 42.00
753 25.4146 3.504720 1884.00 1793.95 43.00
754 25.4350 3.501955 2062.00 1962.65 45.00
755 25.4555 3.499182 2287.00 2205.35 48.00
756 25.4759 3.496426 2571.00 2484.06 51.00
757 25.4963 3.493675 2588.00 2673.73 51.00
758 25.5168 3.490914 2619.00 2693.61 51.00
759 25.5372 3.488172 2602.00 2636.22 51.00
760 25.5576 3.485434 2555.00 2569.97 51.00
761 25.5780 3.482701 2449.00 2493.57 49.00
762 25.5985 3.479958 2443.00 2470.77 49.00
763 25.6189 3.477233 2517.00 2596.55 50.00
764 25.6393 3.474513 2848.00 2941.41 53.00
765 25.6598 3.471783 3447.00 3562.98 59.00
766 25.6802 3.469072 4301.00 4463.28 66.00
767 25.7006 3.466364 5406.00 5477.54 74.00
768 25.7210 3.463661 6209.00 6128.76 79.00
769 25.7415 3.460949 6379.00 6089.57 80.00
770 25.7619 3.458255 5848.00 5687.14 76.00
771 25.7823 3.455565 5211.00 5174.40 72.00
772 25.8028 3.452866 4577.00 4491.85 68.00
773 25.8232 3.450185 3769.00 3778.05 61.00
774 25.8436 3.447508 3093.00 3240.27 56.00
775 25.8640 3.444834 2924.00 2949.08 54.00
776 25.8845 3.442153 2748.00 2926.28 52.00
777 25.9049 3.439488 2938.00 3154.05 54.00
778 25.9253 3.436828 3481.00 3689.66 59.00
779 25.9458 3.434159 4492.00 4593.49 67.00
780 25.9662 3.431508 5919.00 5804.07 77.00
781 25.9866 3.428860 7305.00 6996.17 85.00
782 26.0070 3.426217 7960.00 7504.58 89.00
783 26.0275 3.423565 7633.00 7181.71 87.00
784 26.0479 3.420930 6848.00 6553.36 83.00
785 26.0683 3.418299 6045.00 5769.05 78.00
786 26.0888 3.415659 4873.00 4755.75 70.00
787 26.1092 3.413037 3798.00 3756.42 62.00
788 26.1296 3.410419 3071.00 2975.68 55.00
789 26.1500 3.407804 2407.00 2433.01 49.00
790 26.1705 3.405182 2091.00 2072.62 46.00
791 26.1909 3.402575 1771.00 1838.09 42.00
792 26.2113 3.399974 1685.00 1681.39 41.00
793 26.2318 3.397363 1578.00 1571.76 40.00
794 26.2522 3.394769 1501.00 1492.38 39.00
795 26.2726 3.392180 1495.00 1432.62 39.00
796 26.2930 3.389594 1405.00 1386.16 37.00
797 26.3135 3.387000 1405.00 1350.53 37.00
798 26.3339 3.384422 1319.00 1323.18 36.00
799 26.3543 3.381849 1372.00 1302.11 37.00
800 26.3747 3.379279 1364.00 1317.40 37.00
801 26.3952 3.376701 1311.00 1308.33 36.00
802 26.4156 3.374140 1372.00 1303.89 37.00
803 26.4360 3.371583 1424.00 1315.65 38.00
804 26.4565 3.369017 1437.00 1321.12 38.00
805 26.4769 3.366467 1462.00 1331.63 38.00
806 26.4973 3.363922 1373.00 1346.21 37.00
807 26.5177 3.361380 1498.00 1368.64 39.00
808 26.5382 3.358830 1489.00 1397.72 39.00
809 26.5586 3.356297 1427.00 1433.78 38.00
810 26.5790 3.353767 1513.00 1479.97 39.00
811 26.5995 3.351228 1551.00 1541.72 39.00
812 26.6199 3.348706 1735.00 1624.55 42.00
813 26.6403 3.346189 1847.00 1737.92 43.00
814 26.6607 3.343674 1956.00 1884.72 44.00
815 26.6812 3.341152 2259.00 2112.14 48.00
816 26.7016 3.338646 2541.00 2441.12 50.00
817 26.7220 3.336143 2926.00 2932.96 54.00
818 26.7425 3.333632 3688.00 3696.77 61.00
819 26.7629 3.331138 4726.00 4784.73 69.00
820 26.7833 3.328647 5936.00 6124.70 77.00
821 26.8037 3.326160 7058.00 7277.47 84.00
822 26.8242 3.323664 7566.00 7597.55 87.00
823 26.8446 3.321185 7197.00 7172.68 85.00
824 26.8650 3.318709 6396.00 6549.04 80.00
825 26.8855 3.316225 5575.00 5762.87 75.00
826 26.9059 3.313757 4693.00 4762.60 69.00
827 26.9263 3.311293 3506.00 3802.18 59.00
828 26.9467 3.308833 2804.00 3056.40 53.00
829 26.9672 3.306364 2408.00 2562.23 49.00
830 26.9876 3.303911 2038.00 2253.27 45.00
831 27.0080 3.301462 1855.00 2062.29 43.00
832 27.0285 3.299004 1910.00 1962.23 44.00
833 27.0489 3.296562 1784.00 1919.83 42.00
834 27.0693 3.294124 1847.00 1921.11 43.00
835 27.0897 3.291690 1843.00 1961.80 43.00
836 27.1102 3.289247 1885.00 2044.98 43.00
837 27.1306 3.286820 1986.00 2179.76 45.00
838 27.1510 3.284398 2165.00 2387.78 47.00
839 27.1715 3.281966 2377.00 2712.57 49.00
840 27.1919 3.279550 2897.00 3225.15 54.00
841 27.2123 3.277138 3696.00 4041.85 61.00
842 27.2327 3.274729 5127.00 5308.66 72.00
843 27.2532 3.272312 7414.00 7163.21 86.00
844 27.2736 3.269911 9898.00 9521.51 99.00
845 27.2940 3.267514 12156.00 11737.90 110.00
846 27.3145 3.265108 12837.00 12610.90 113.00
847 27.3349 3.262717 12614.00 11988.50 112.00
848 27.3553 3.260331 11639.00 10891.30 108.00
849 27.3757 3.257947 9858.00 9586.91 99.00
850 27.3962 3.255556 8301.00 7843.46 91.00
851 27.4166 3.253180 6106.00 6032.74 78.00
852 27.4370 3.250808 4641.00 4571.60 68.00
853 27.4575 3.248427 3431.00 3533.38 59.00
854 27.4779 3.246062 2760.00 2842.21 53.00
855 27.4983 3.243700 2255.00 2386.44 47.00
856 27.5187 3.241342 1814.00 2080.88 43.00
857 27.5392 3.238976 1724.00 1866.82 42.00
858 27.5596 3.236624 1566.00 1711.04 40.00
859 27.5800 3.234277 1450.00 1592.35 38.00
860 27.6005 3.231921 1403.00 1511.73 37.00
861 27.6209 3.229581 1296.00 1437.60 36.00
862 27.6413 3.227243 1181.00 1377.00 34.00
863 27.6617 3.224910 1261.00 1333.51 36.00
864 27.6822 3.222568 1216.00 1292.08 35.00
865 27.7026 3.220241 1165.00 1257.44 34.00
866 27.7230 3.217918 1142.00 1227.95 34.00
867 27.7434 3.215598 1140.00 1203.15 34.00
868 27.7639 3.213270 1119.00 1165.63 33.00
869 27.7843 3.210958 1158.00 1147.84 34.00
870 27.8047 3.208648 1116.00 1132.67 33.00
871 27.8252 3.206331 1043.00 1111.48 32.00
872 27.8456 3.204028 1086.00 1100.59 33.00
873 27.8660 3.201729 1111.00 1091.35 33.00
874 27.8864 3.199433 1012.00 1083.62 32.00
875 27.9069 3.197129 1035.00 1077.26 32.00
876 27.9273 3.194840 1025.00 1072.26 32.00
877 27.9477 3.192555 1050.00 1068.56 32.00
878 27.9682 3.190261 1036.00 1066.19 32.00
879 27.9886 3.187983 1045.00 1065.25 32.00
880 28.0090 3.185707 1037.00 1065.95 32.00
881 28.0294 3.183435 1065.00 1068.51 33.00
882 28.0499 3.181155 1053.00 1073.59 32.00
883 28.0703 3.178889 1065.00 1082.18 33.00
884 28.0907 3.176627 1135.00 1096.13 34.00
885 28.1112 3.174357 1068.00 1118.76 33.00
886 28.1316 3.172101 1123.00 1152.19 34.00
887 28.1520 3.169849 1184.00 1199.83 34.00
888 28.1724 3.167600 1218.00 1259.95 35.00
889 28.1929 3.165344 1222.00 1317.83 35.00
890 28.2133 3.163101 1317.00 1346.21 36.00
891 28.2337 3.160862 1270.00 1345.17 36.00
892 28.2542 3.158615 1296.00 1309.13 36.00
893 28.2746 3.156383 1288.00 1304.82 36.00
894 28.2950 3.154154 1364.00 1296.55 37.00
895 28.3154 3.151928 1461.00 1292.86 38.00
896 28.3359 3.149694 1409.00 1292.21 38.00
897 28.3563 3.147474 1370.00 1329.90 37.00
898 28.3767 3.145258 1529.00 1396.34 39.00
899 28.3972 3.143034 1747.00 1502.13 42.00
900 28.4176 3.140824 1916.00 1666.31 44.00
901 28.4380 3.138618 2196.00 1924.24 47.00
902 28.4584 3.136414 2582.00 2327.42 51.00
903 28.4789 3.134203 3234.00 2939.12 57.00
904 28.4993 3.132006 4061.00 3790.26 64.00
905 28.5197 3.129812 4765.00 4798.11 69.00
906 28.5402 3.127611 5454.00 5592.81 74.00
907 28.5606 3.125423 5645.00 5725.11 75.00
908 28.5810 3.123239 5273.00 5365.15 73.00
909 28.6014 3.121057 4662.00 4920.64 68.00
910 28.6219 3.118868 4105.00 4390.41 64.00
911 28.6423 3.116693 3545.00 3690.52 60.00
912 28.6627 3.114522 3000.00 2984.19 55.00
913 28.6832 3.112342 2386.00 2419.01 49.00
914 28.7036 3.110177 2026.00 2015.89 45.00
915 28.7240 3.108014 1783.00 1735.41 42.00
916 28.7444 3.105855 1565.00 1545.64 40.00
917 28.7649 3.103688 1410.00 1412.34 38.00
918 28.7853 3.101535 1314.00 1314.66 36.00
919 28.8057 3.099385 1201.00 1239.19 35.00
920 28.8262 3.097227 1236.00 1181.79 35.00
921 28.8466 3.095083 1130.00 1138.75 34.00
922 28.8670 3.092942 1109.00 1106.48 33.00
923 28.8874 3.090805 1122.00 1082.72 33.00
924 28.9079 3.088660 1090.00 1066.02 33.00
925 28.9283 3.086528 1135.00 1055.82 34.00
926 28.9487 3.084399 1105.00 1051.54 33.00
927 28.9691 3.082273 1060.00 1052.70 33.00
928 28.9896 3.080141 1104.00 1060.47 33.00
929 29.0100 3.078021 1115.00 1078.18 33.00
930 29.0304 3.075905 1175.00 1107.24 34.00
931 29.0509 3.073781 1144.00 1141.10 34.00
932 29.0713 3.071670 1075.00 1160.35 33.00
933 29.0917 3.069563 1162.00 1151.47 34.00
934 29.1121 3.067458 1122.00 1127.24 33.00
935 29.1326 3.065346 1064.00 1102.43 33.00
936 29.1530 3.063248 1012.00 1074.06 32.00
937 29.1734 3.061152 1017.00 1038.53 32.00
938 29.1939 3.059049 999.00 1005.16 32.00
939 29.2143 3.056960 1018.00 979.26 32.00
940 29.2347 3.054873 937.00 960.51 31.00
941 29.2551 3.052789 951.00 947.96 31.00
942 29.2756 3.050698 908.00 939.51 30.00
943 29.2960 3.048620 913.00 933.94 30.00
944 29.3164 3.046545 891.00 930.34 30.00
945 29.3369 3.044463 955.00 928.24 31.00
946 29.3573 3.042394 964.00 927.42 31.00
947 29.3777 3.040328 911.00 927.82 30.00
948 29.3981 3.038265 972.00 929.48 31.00
949 29.4186 3.036194 923.00 932.66 30.00
950 29.4390 3.034137 956.00 937.49 31.00
951 29.4594 3.032082 947.00 944.52 31.00
952 29.4799 3.030020 942.00 954.56 31.00
953 29.5003 3.027971 1078.00 968.86 33.00
954 29.5207 3.025925 976.00 977.53 31.00
955 29.5411 3.023882 1044.00 1009.67 32.00
956 29.5616 3.021832 1085.00 1059.62 33.00
957 29.5820 3.019794 1251.00 1130.42 35.00
958 29.6024 3.017760 1364.00 1246.03 37.00
959 29.6229 3.015718 1465.00 1407.61 38.00
960 29.6433 3.013689 1723.00 1597.80 42.00
961 29.6637 3.011663 1724.00 1747.82 42.00
962 29.6841 3.009640 1782.00 1774.50 42.00
963 29.7046 3.007609 1651.00 1704.93 41.00
964 29.7250 3.005592 1686.00 1620.79 41.00
965 29.7454 3.003577 1599.00 1527.61 40.00
966 29.7659 3.001555 1445.00 1399.41 38.00
967 29.7863 2.999546 1345.00 1261.34 37.00
968 29.8067 2.997539 1314.00 1146.95 36.00
969 29.8271 2.995536 1204.00 1064.47 35.00
970 29.8476 2.993525 1156.00 1035.86 34.00
971 29.8680 2.991527 1135.00 1000.26 34.00
972 29.8884 2.989531 1121.00 977.51 33.00
973 29.9089 2.987529 1031.00 963.35 32.00
974 29.9293 2.985539 988.00 969.35 31.00
975 29.9497 2.983552 1028.00 967.80 32.00
976 29.9701 2.981568 1041.00 972.16 32.00
977 29.9906 2.979576 930.00 983.10 30.00
978 30.0110 2.977597 1054.00 1000.37 32.00
979 30.0314 2.975621 1100.00 1020.24 33.00
980 30.0519 2.973638 1074.00 1033.55 33.00
981 30.0723 2.971667 1080.00 1031.84 33.00
982 30.0927 2.969699 1047.00 1023.20 32.00
983 30.1131 2.967734 1089.00 1014.73 33.00
984 30.1336 2.965762 1107.00 1005.77 33.00
985 30.1540 2.963802 1143.00 993.01 34.00
986 30.1744 2.961845 1169.00 980.92 34.00
987 30.1949 2.959880 1120.00 972.71 33.00
988 30.2153 2.957929 1174.00 968.87 34.00
989 30.2357 2.955979 1137.00 968.70 34.00
990 30.2561 2.954033 1093.00 972.06 33.00
991 30.2766 2.952079 1120.00 977.44 33.00
992 30.2970 2.950138 1099.00 985.18 33.00
993 30.3174 2.948200 1060.00 995.40 33.00
994 30.3378 2.946264 1102.00 1008.57 33.00
995 30.3583 2.944321 1109.00 1028.51 33.00
996 30.3787 2.942390 1009.00 1045.55 32.00
997 30.3991 2.940462 1124.00 1062.16 34.00
998 30.4196 2.938527 1064.00 1080.93 33.00
999 30.4400 2.936604 1116.00 1100.06 33.00
1000 30.4604 2.934684 1140.00 1122.82 34.00
1001 30.4808 2.932766 1174.00 1149.29 34.00
1002 30.5013 2.930842 1224.00 1180.85 35.00
1003 30.5217 2.928930 1339.00 1219.40 37.00
1004 30.5421 2.927020 1358.00 1267.29 37.00
1005 30.5626 2.925103 1407.00 1327.19 38.00
1006 30.5830 2.923198 1543.00 1401.79 39.00
1007 30.6034 2.921297 1568.00 1496.04 40.00
1008 30.6238 2.919397 1705.00 1617.25 41.00
1009 30.6443 2.917490 1925.00 1778.81 44.00
1010 30.6647 2.915596 2113.00 1998.64 46.00
1011 30.6851 2.913704 2418.00 2313.88 49.00
1012 30.7056 2.911806 2895.00 2787.74 54.00
1013 30.7260 2.909919 3493.00 3506.41 59.00
1014 30.7464 2.908035 4441.00 4584.99 67.00
1015 30.7668 2.906153 5809.00 6123.90 76.00
1016 30.7873 2.904265 7688.00 8098.10 88.00
1017 30.8077 2.902389 9304.00 10013.20 96.00
1018 30.8281 2.900514 10523.00 10908.10 103.00
1019 30.8486 2.898633 10305.00 10483.80 102.00
1020 30.8690 2.896765 9267.00 9599.18 96.00
1021 30.8894 2.894898 8138.00 8757.32 90.00
1022 30.9098 2.893034 7340.00 7683.52 86.00
1023 30.9303 2.891163 6295.00 6279.35 79.00
1024 30.9507 2.889304 5071.00 4947.03 71.00
1025 30.9711 2.887447 4046.00 3941.22 64.00
1026 30.9916 2.885584 3314.00 3272.72 58.00
1027 31.0120 2.883733 2844.00 2861.63 53.00
1028 31.0324 2.881883 2656.00 2584.69 52.00
1029 31.0528 2.880037 2499.00 2350.78 50.00
1030 31.0733 2.878183 2327.00 2149.87 48.00
1031 31.0937 2.876342 2085.00 1997.71 46.00
1032 31.1141 2.874502 2048.00 1875.17 45.00
1033 31.1346 2.872657 1928.00 1762.69 44.00
1034 31.1550 2.870822 1931.00 1673.81 44.00
1035 31.1754 2.868990 1901.00 1627.18 44.00
1036 31.1958 2.867160 1841.00 1631.26 43.00
1037 31.2163 2.865324 1800.00 1687.42 42.00
1038 31.2367 2.863499 2030.00 1788.50 45.00
1039 31.2571 2.861677 2103.00 1931.32 46.00
1040 31.2776 2.859848 2309.00 2136.10 48.00
1041 31.2980 2.858031 2541.00 2405.10 50.00
1042 31.3184 2.856216 2559.00 2653.85 51.00
1043 31.3388 2.854403 2527.00 2724.83 50.00
1044 31.3593 2.852584 2573.00 2600.05 51.00
1045 31.3797 2.850776 2400.00 2428.05 49.00
1046 31.4001 2.848970 2269.00 2275.46 48.00
1047 31.4206 2.847158 2062.00 2092.21 45.00
1048 31.4410 2.845357 1767.00 1868.78 42.00
1049 31.4614 2.843559 1664.00 1664.96 41.00
1050 31.4818 2.841763 1501.00 1521.24 39.00
1051 31.5023 2.839961 1467.00 1443.62 38.00
1052 31.5227 2.838169 1457.00 1431.05 38.00
1053 31.5431 2.836380 1618.00 1483.36 40.00
1054 31.5635 2.834594 1724.00 1603.02 42.00
1055 31.5840 2.832800 1842.00 1784.00 43.00
1056 31.6044 2.831018 2137.00 1977.70 46.00
1057 31.6248 2.829239 2196.00 2079.44 47.00
1058 31.6453 2.827453 2255.00 2033.28 47.00
1059 31.6657 2.825678 2059.00 1922.54 45.00
1060 31.6861 2.823905 1947.00 1820.60 44.00
1061 31.7065 2.822135 1874.00 1707.14 43.00
1062 31.7270 2.820358 1669.00 1554.29 41.00
1063 31.7474 2.818593 1444.00 1397.33 38.00
1064 31.7678 2.816829 1282.00 1272.22 36.00
1065 31.7883 2.815059 1154.00 1190.21 34.00
1066 31.8087 2.813300 1157.00 1109.63 34.00
1067 31.8291 2.811544 1077.00 1072.60 33.00
1068 31.8495 2.809790 1045.00 1037.65 32.00
1069 31.8700 2.808029 974.00 1006.84 31.00
1070 31.8904 2.806279 1052.00 966.69 32.00
1071 31.9108 2.804532 944.00 944.18 31.00
1072 31.9313 2.802778 988.00 921.61 31.00
1073 31.9517 2.801035 928.00 899.62 30.00
1074 31.9721 2.799295 957.00 881.00 31.00
1075 31.9925 2.797556 974.00 866.46 31.00
1076 32.0130 2.795812 912.00 855.32 30.00
1077 32.0334 2.794078 952.00 845.54 31.00
1078 32.0538 2.792346 858.00 839.01 29.00
1079 32.0743 2.790608 939.00 833.80 31.00
1080 32.0947 2.788881 926.00 829.61 30.00
1081 32.1151 2.787156 883.00 825.53 30.00
1082 32.1355 2.785433 951.00 822.74 31.00
1083 32.1560 2.783705 914.00 820.46 30.00
1084 32.1764 2.781986 912.00 818.66 30.00
1085 32.1968 2.780270 890.00 817.29 30.00
1086 32.2173 2.778548 904.00 816.34 30.00
1087 32.2377 2.776836 883.00 815.48 30.00
1088 32.2581 2.775127 918.00 815.43 30.00
1089 32.2785 2.773419 908.00 815.87 30.00
1090 32.2990 2.771706 874.00 816.91 30.00
1091 32.3194 2.770003 892.00 818.53 30.00
1092 32.3398 2.768302 897.00 817.26 30.00
1093 32.3603 2.766595 901.00 821.72 30.00
1094 32.3807 2.764899 894.00 828.26 30.00
1095 32.4011 2.763205 939.00 837.70 31.00
1096 32.4215 2.761513 931.00 848.77 31.00
1097 32.4420 2.759814 952.00 865.55 31.00
1098 32.4624 2.758127 975.00 882.92 31.00
1099 32.4828 2.756441 974.00 894.73 31.00
1100 32.5033 2.754750 1018.00 898.78 32.00
1101 32.5237 2.753068 1014.00 914.99 32.00
1102 32.5441 2.751389 996.00 920.48 32.00
1103 32.5645 2.749712 962.00 928.07 31.00
1104 32.5850 2.748029 1036.00 937.11 32.00
1105 32.6054 2.746356 1020.00 951.23 32.00
1106 32.6258 2.744686 1021.00 979.90 32.00
1107 32.6463 2.743009 1152.00 1020.99 34.00
1108 32.6667 2.741343 1203.00 1085.80 35.00
1109 32.6871 2.739679 1242.00 1186.01 35.00
1110 32.7075 2.738016 1442.00 1335.01 38.00
1111 32.7280 2.736348 1601.00 1548.71 40.00
1112 32.7484 2.734690 1828.00 1818.58 43.00
1113 32.7688 2.733034 2069.00 2084.05 45.00
1114 32.7893 2.731373 2115.00 2223.86 46.00
1115 32.8097 2.729721 2093.00 2199.06 46.00
1116 32.8301 2.728071 2012.00 2113.60 45.00
1117 32.8505 2.726424 2118.00 2026.79 46.00
1118 32.8710 2.724770 1910.00 1899.81 44.00
1119 32.8914 2.723127 1779.00 1714.16 42.00
1120 32.9118 2.721486 1542.00 1518.84 39.00
1121 32.9322 2.719846 1463.00 1353.52 38.00
1122 32.9527 2.718201 1316.00 1222.26 36.00
1123 32.9731 2.716566 1217.00 1123.75 35.00
1124 32.9935 2.714933 1214.00 1054.01 35.00
1125 33.0140 2.713294 1100.00 1006.64 33.00
1126 33.0344 2.711665 1153.00 975.54 34.00
1127 33.0548 2.710039 1083.00 955.46 33.00
1128 33.0752 2.708414 1080.00 943.28 33.00
1129 33.0957 2.706783 961.00 938.01 31.00
1130 33.1161 2.705162 1064.00 937.27 33.00
1131 33.1365 2.703543 1004.00 941.64 32.00
1132 33.1570 2.701918 1071.00 951.56 33.00
1133 33.1774 2.700304 1080.00 968.02 33.00
1134 33.1978 2.698691 1029.00 990.82 32.00
1135 33.2182 2.697080 1103.00 1019.25 33.00
1136 33.2387 2.695464 1170.00 1048.72 34.00
1137 33.2591 2.693857 1129.00 1073.44 34.00
1138 33.2795 2.692253 1176.00 1096.58 34.00
1139 33.3000 2.690642 1197.00 1126.66 35.00
1140 33.3204 2.689041 1341.00 1167.55 37.00
1141 33.3408 2.687443 1331.00 1220.24 36.00
1142 33.3612 2.685846 1348.00 1290.03 37.00
1143 33.3817 2.684243 1541.00 1390.07 39.00
1144 33.4021 2.682651 1682.00 1538.11 41.00
1145 33.4225 2.681060 1807.00 1762.09 43.00
1146 33.4430 2.679463 2148.00 2104.26 46.00
1147 33.4634 2.677876 2675.00 2612.46 52.00
1148 33.4838 2.676292 3269.00 3336.04 57.00
1149 33.5042 2.674709 4080.00 4272.97 64.00
1150 33.5247 2.673120 4892.00 5251.76 70.00
1151 33.5451 2.671541 5435.00 5825.83 74.00
1152 33.5655 2.669964 5513.00 5730.02 74.00
1153 33.5860 2.668381 5062.00 5290.72 71.00
1154 33.6064 2.666808 4544.00 4891.09 67.00
1155 33.6268 2.665237 4259.00 4502.95 65.00
1156 33.6472 2.663668 3773.00 3944.43 61.00
1157 33.6677 2.662093 3112.00 3273.53 56.00
1158 33.6881 2.660528 2514.00 2680.62 50.00
1159 33.7085 2.658964 2161.00 2226.54 46.00
1160 33.7290 2.657395 1844.00 1887.74 43.00
1161 33.7494 2.655835 1556.00 1641.38 39.00
1162 33.7698 2.654278 1397.00 1467.22 37.00
1163 33.7902 2.652722 1289.00 1342.07 36.00
1164 33.8107 2.651160 1174.00 1238.62 34.00
1165 33.8311 2.649608 1080.00 1154.70 33.00
1166 33.8515 2.648058 1072.00 1085.96 33.00
1167 33.8720 2.646502 946.00 1031.41 31.00
1168 33.8924 2.644957 915.00 988.42 30.00
1169 33.9128 2.643412 839.00 957.24 29.00
1170 33.9332 2.641870 871.00 934.22 30.00
1171 33.9537 2.640321 911.00 917.50 30.00
1172 33.9741 2.638783 846.00 907.43 29.00
1173 33.9945 2.637246 829.00 904.34 29.00
1174 34.0150 2.635704 845.00 909.97 29.00
1175 34.0354 2.634170 910.00 926.43 30.00
1176 34.0558 2.632639 961.00 956.08 31.00
1177 34.0762 2.631110 971.00 998.55 31.00
1178 34.0967 2.629575 1055.00 1044.35 32.00
1179 34.1171 2.628049 1099.00 1069.04 33.00
1180 34.1375 2.626525 1055.00 1057.59 32.00
1181 34.1579 2.625003 1022.00 1027.27 32.00
1182 34.1784 2.623476 990.00 999.17 31.00
1183 34.1988 2.621958 914.00 973.07 30.00
1184 34.2192 2.620441 916.00 938.14 30.00
1185 34.2397 2.618919 918.00 895.86 30.00
1186 34.2601 2.617406 791.00 857.03 28.00
1187 34.2805 2.615896 771.00 826.20 28.00
1188 34.3009 2.614387 781.00 803.56 28.00
1189 34.3214 2.612872 796.00 787.03 28.00
1190 34.3418 2.611366 791.00 774.96 28.00
1191 34.3622 2.609863 737.00 765.72 27.00
1192 34.3827 2.608354 688.00 758.51 26.00
1193 34.4031 2.606854 695.00 753.38 26.00
1194 34.4235 2.605356 702.00 748.48 26.00
1195 34.4439 2.603859 747.00 744.28 27.00
1196 34.4644 2.602357 682.00 740.60 26.00
1197 34.4848 2.600865 714.00 740.84 27.00
1198 34.5052 2.599374 684.00 738.11 26.00
1199 34.5257 2.597877 644.00 735.68 25.00
1200 34.5461 2.596390 682.00 733.53 26.00
1201 34.5665 2.594904 704.00 719.15 27.00
1202 34.5869 2.593421 690.00 718.10 26.00
1203 34.6074 2.591931 700.00 717.26 26.00
1204 34.6278 2.590451 710.00 716.60 27.00
1205 34.6482 2.588972 658.00 716.16 26.00
1206 34.6687 2.587488 699.00 709.23 26.00
1207 34.6891 2.586014 713.00 709.61 27.00
1208 34.7095 2.584541 711.00 710.34 27.00
1209 34.7299 2.583069 692.00 711.59 26.00
1210 34.7504 2.581592 700.00 713.15 26.00
1211 34.7708 2.580124 719.00 716.31 27.00
1212 34.7912 2.578658 722.00 721.14 27.00
1213 34.8117 2.577187 753.00 728.30 27.00
1214 34.8321 2.575724 741.00 738.01 27.00
1215 34.8525 2.574263 751.00 750.42 27.00
1216 34.8729 2.572804 790.00 763.24 28.00
1217 34.8934 2.571339 844.00 773.01 29.00
1218 34.9138 2.569884 818.00 776.38 29.00
1219 34.9342 2.568430 776.00 774.14 28.00
1220 34.9547 2.566970 743.00 770.87 27.00
1221 34.9751 2.565520 753.00 769.12 27.00
1222 34.9955 2.564071 739.00 768.10 27.00
1223 35.0159 2.562624 787.00 766.36 28.00
1224 35.0364 2.561172 762.00 763.41 28.00
1225 35.0568 2.559728 797.00 758.65 28.00
1226 35.0772 2.558286 806.00 752.76 28.00
1227 35.0977 2.556839 782.00 748.11 28.00
1228 35.1181 2.555400 787.00 745.70 28.00
1229 35.1385 2.553963 771.00 744.41 28.00
1230 35.1589 2.552528 744.00 742.46 27.00
1231 35.1794 2.551088 749.00 742.60 27.00
1232 35.1998 2.549656 794.00 744.05 28.00
1233 35.2202 2.548226 780.00 747.85 28.00
1234 35.2407 2.546791 815.00 753.92 29.00
1235 35.2611 2.545364 783.00 763.36 28.00
1236 35.2815 2.543939 776.00 777.72 28.00
1237 35.3019 2.542516 792.00 796.40 28.00
1238 35.3224 2.541087 820.00 822.10 29.00
1239 35.3428 2.539667 881.00 858.24 30.00
1240 35.3632 2.538249 947.00 909.50 31.00
1241 35.3837 2.536825 969.00 982.02 31.00
1242 35.4041 2.535410 1071.00 1079.85 33.00
1243 35.4245 2.533997 1184.00 1201.37 34.00
1244 35.4449 2.532585 1268.00 1335.54 36.00
1245 35.4654 2.531168 1478.00 1482.80 38.00
1246 35.4858 2.529760 1657.00 1659.50 41.00
1247 35.5062 2.528354 1917.00 1845.89 44.00
1248 35.5266 2.526948 2007.00 1953.96 45.00
1249 35.5471 2.525538 1959.00 1913.02 44.00
1250 35.5675 2.524136 1868.00 1785.28 43.00
1251 35.5879 2.522737 1664.00 1666.13 41.00
1252 35.6084 2.521331 1603.00 1566.43 40.00
1253 35.6288 2.519934 1480.00 1445.37 38.00
1254 35.6492 2.518539 1339.00 1292.52 37.00
1255 35.6696 2.517145 1106.00 1143.72 33.00
1256 35.6901 2.515746 1020.00 1023.32 32.00
1257 35.7105 2.514356 932.00 935.55 31.00
1258 35.7309 2.512967 820.00 873.48 29.00
1259 35.7514 2.511573 836.00 829.60 29.00
1260 35.7718 2.510188 784.00 798.49 28.00
1261 35.7922 2.508804 828.00 775.83 29.00
1262 35.8126 2.507422 809.00 758.91 28.00
1263 35.8331 2.506034 717.00 745.93 27.00
1264 35.8535 2.504655 719.00 735.92 27.00
1265 35.8739 2.503278 752.00 728.10 27.00
1266 35.8944 2.501895 697.00 722.00 26.00
1267 35.9148 2.500521 724.00 717.31 27.00
1268 35.9352 2.499148 711.00 715.51 27.00
1269 35.9556 2.497777 702.00 713.16 26.00
1270 35.9761 2.496401 724.00 712.07 27.00
1271 35.9965 2.495033 710.00 712.10 27.00
1272 36.0169 2.493666 692.00 713.35 26.00
1273 36.0374 2.492295 688.00 716.87 26.00
1274 36.0578 2.490932 674.00 721.37 26.00
1275 36.0782 2.489570 733.00 728.40 27.00
1276 36.0986 2.488210 736.00 738.91 27.00
1277 36.1191 2.486845 750.00 754.92 27.00
1278 36.1395 2.485487 717.00 778.87 27.00
1279 36.1599 2.484132 781.00 814.38 28.00
1280 36.1804 2.482772 847.00 865.61 29.00
1281 36.2008 2.481419 897.00 934.00 30.00
1282 36.2212 2.480069 1007.00 1014.11 32.00
1283 36.2416 2.478719 1086.00 1086.59 33.00
1284 36.2621 2.477365 1161.00 1127.30 34.00
1285 36.2825 2.476019 1160.00 1125.37 34.00
1286 36.3029 2.474675 1138.00 1095.97 34.00
1287 36.3234 2.473325 1191.00 1062.46 35.00
1288 36.3438 2.471984 1147.00 1030.82 34.00
1289 36.3642 2.470644 1163.00 996.13 34.00
1290 36.3846 2.469305 1137.00 952.24 34.00
1291 36.4051 2.467962 1047.00 910.93 32.00
1292 36.4255 2.466627 990.00 884.81 31.00
1293 36.4459 2.465293 1004.00 880.66 32.00
1294 36.4664 2.463954 992.00 899.09 31.00
1295 36.4868 2.462623 1015.00 941.31 32.00
1296 36.5072 2.461294 1040.00 1003.17 32.00
1297 36.5276 2.459966 1103.00 1069.60 33.00
1298 36.5481 2.458633 1116.00 1110.20 33.00
1299 36.5685 2.457309 1111.00 1113.59 33.00
1300 36.5889 2.455985 1129.00 1101.05 34.00
1301 36.6094 2.454657 1173.00 1097.40 34.00
1302 36.6298 2.453337 1106.00 1085.72 33.00
1303 36.6502 2.452018 1062.00 1046.30 33.00
1304 36.6706 2.450701 996.00 987.65 32.00
1305 36.6911 2.449379 963.00 930.41 31.00
1306 36.7115 2.448065 902.00 886.22 30.00
1307 36.7319 2.446752 831.00 848.64 29.00
1308 36.7523 2.445441 831.00 814.98 29.00
1309 36.7728 2.444124 856.00 787.96 29.00
1310 36.7932 2.442816 762.00 769.83 28.00
1311 36.8136 2.441509 766.00 760.19 28.00
1312 36.8341 2.440198 803.00 758.40 28.00
1313 36.8545 2.438894 793.00 764.58 28.00
1314 36.8749 2.437591 819.00 780.03 29.00
1315 36.8953 2.436290 900.00 807.56 30.00
1316 36.9158 2.434985 876.00 851.56 30.00
1317 36.9362 2.433687 957.00 916.41 31.00
1318 36.9566 2.432390 1066.00 1004.23 33.00
1319 36.9771 2.431089 1198.00 1107.39 35.00
1320 36.9975 2.429795 1303.00 1192.79 36.00
1321 37.0179 2.428503 1289.00 1218.42 36.00
1322 37.0383 2.427212 1228.00 1184.21 35.00
1323 37.0588 2.425917 1206.00 1135.60 35.00
1324 37.0792 2.424629 1103.00 1099.01 33.00
1325 37.0996 2.423342 1092.00 1063.89 33.00
1326 37.1201 2.422051 989.00 1010.39 31.00
1327 37.1405 2.420768 932.00 944.36 31.00
1328 37.1609 2.419486 899.00 884.57 30.00
1329 37.1813 2.418205 875.00 840.62 30.00
1330 37.2018 2.416920 785.00 813.28 28.00
1331 37.2222 2.415642 791.00 801.13 28.00
1332 37.2426 2.414366 819.00 802.62 29.00
1333 37.2631 2.413085 807.00 817.69 28.00
1334 37.2835 2.411811 850.00 847.11 29.00
1335 37.3039 2.410539 866.00 891.67 29.00
1336 37.3243 2.409268 979.00 948.97 31.00
1337 37.3448 2.407993 975.00 1017.06 31.00
1338 37.3652 2.406725 1086.00 1099.78 33.00
1339 37.3856 2.405459 1227.00 1200.48 35.00
1340 37.4061 2.404187 1303.00 1299.54 36.00
1341 37.4265 2.402924 1348.00 1345.95 37.00
1342 37.4469 2.401662 1300.00 1314.05 36.00
1343 37.4673 2.400401 1268.00 1243.52 36.00
1344 37.4878 2.399136 1204.00 1180.48 35.00
1345 37.5082 2.397877 1203.00 1130.12 35.00
1346 37.5286 2.396621 1050.00 1068.63 32.00
1347 37.5491 2.395360 995.00 987.52 32.00
1348 37.5695 2.394106 872.00 905.25 30.00
1349 37.5899 2.392853 813.00 836.86 29.00
1350 37.6103 2.391603 791.00 785.52 28.00
1351 37.6308 2.390347 740.00 747.50 27.00
1352 37.6512 2.389099 712.00 721.59 27.00
1353 37.6716 2.387852 662.00 703.20 26.00
1354 37.6921 2.386600 662.00 689.92 26.00
1355 37.7125 2.385356 656.00 679.32 26.00
1356 37.7329 2.384114 613.00 672.13 25.00
1357 37.7533 2.382872 576.00 666.79 24.00
1358 37.7738 2.381626 663.00 662.91 26.00
1359 37.7942 2.380388 654.00 660.14 26.00
1360 37.8146 2.379150 633.00 658.79 25.00
1361 37.8351 2.377908 623.00 658.72 25.00
1362 37.8555 2.376674 646.00 660.16 25.00
1363 37.8759 2.375441 659.00 663.53 26.00
1364 37.8963 2.374209 627.00 669.60 25.00
1365 37.9168 2.372972 658.00 679.62 26.00
1366 37.9372 2.371743 666.00 695.05 26.00
1367 37.9576 2.370516 721.00 717.65 27.00
1368 37.9781 2.369283 763.00 748.48 28.00
1369 37.9985 2.368058 838.00 785.41 29.00
1370 38.0189 2.366834 868.00 820.38 29.00
1371 38.0393 2.365612 883.00 841.27 30.00
1372 38.0598 2.364385 854.00 839.43 29.00
1373 38.0802 2.363165 863.00 822.87 29.00
1374 38.1006 2.361947 816.00 802.31 29.00
1375 38.1210 2.360730 830.00 786.27 29.00
1376 38.1415 2.359508 792.00 768.74 28.00
1377 38.1619 2.358294 695.00 744.70 26.00
1378 38.1823 2.357081 717.00 716.80 27.00
1379 38.2028 2.355863 665.00 692.51 26.00
1380 38.2232 2.354653 665.00 673.81 26.00
1381 38.2436 2.353444 625.00 660.36 25.00
1382 38.2640 2.352236 665.00 651.09 26.00
1383 38.2845 2.351023 620.00 644.89 25.00
1384 38.3049 2.349818 625.00 640.99 25.00
1385 38.3253 2.348615 592.00 638.79 24.00
1386 38.3458 2.347406 634.00 638.02 25.00
1387 38.3662 2.346205 596.00 638.65 24.00
1388 38.3866 2.345005 645.00 640.91 25.00
1389 38.4070 2.343806 638.00 645.28 25.00
1390 38.4275 2.342603 648.00 652.43 25.00
1391 38.4479 2.341408 661.00 663.72 26.00
1392 38.4683 2.340213 649.00 680.41 25.00
1393 38.4888 2.339013 726.00 703.22 27.00
1394 38.5092 2.337821 754.00 728.58 27.00
1395 38.5296 2.336631 754.00 753.04 27.00
1396 38.5500 2.335441 772.00 764.23 28.00
1397 38.5705 2.334247 757.00 760.24 28.00
1398 38.5909 2.333060 714.00 751.81 27.00
1399 38.6113 2.331874 805.00 746.55 28.00
1400 38.6318 2.330684 754.00 744.75 27.00
1401 38.6522 2.329501 718.00 737.19 27.00
1402 38.6726 2.328319 723.00 720.50 27.00
1403 38.6930 2.327138 690.00 700.24 26.00
1404 38.7135 2.325953 648.00 682.72 25.00
1405 38.7339 2.324775 709.00 670.10 27.00
1406 38.7543 2.323599 692.00 660.64 26.00
1407 38.7748 2.322417 650.00 652.35 25.00
1408 38.7952 2.321243 679.00 645.02 26.00
1409 38.8156 2.320070 615.00 639.01 25.00
1410 38.8360 2.318898 625.00 634.85 25.00
1411 38.8565 2.317722 580.00 632.55 24.00
1412 38.8769 2.316553 617.00 631.94 25.00
1413 38.8973 2.315385 649.00 638.96 25.00
1414 38.9178 2.314213 646.00 641.62 25.00
1415 38.9382 2.313047 619.00 646.21 25.00
1416 38.9586 2.311883 650.00 653.44 25.00
1417 38.9790 2.310720 631.00 667.50 25.00
1418 38.9995 2.309552 619.00 684.09 25.00
1419 39.0199 2.308392 662.00 708.07 26.00
1420 39.0403 2.307233 660.00 741.79 26.00
1421 39.0608 2.306069 716.00 785.98 27.00
1422 39.0812 2.304913 762.00 836.88 28.00
1423 39.1016 2.303757 797.00 886.09 28.00
1424 39.1220 2.302603 862.00 922.53 29.00
1425 39.1425 2.301444 888.00 933.99 30.00
1426 39.1629 2.300292 897.00 918.97 30.00
1427 39.1833 2.299142 832.00 891.93 29.00
1428 39.2038 2.297987 745.00 865.72 27.00
1429 39.2242 2.296839 805.00 841.49 28.00
1430 39.2446 2.295692 771.00 812.75 28.00
1431 39.2650 2.294546 733.00 777.10 27.00
1432 39.2855 2.293396 689.00 740.34 26.00
1433 39.3059 2.292252 696.00 709.88 26.00
1434 39.3263 2.291111 669.00 686.66 26.00
1435 39.3467 2.289969 614.00 670.16 25.00
1436 39.3672 2.288824 599.00 658.78 24.00
1437 39.3876 2.287686 624.00 651.22 25.00
1438 39.4080 2.286549 584.00 646.49 24.00
1439 39.4285 2.285407 633.00 643.46 25.00
1440 39.4489 2.284272 583.00 641.84 24.00
1441 39.4693 2.283139 594.00 641.33 24.00
1442 39.4897 2.282006 570.00 641.72 24.00
1443 39.5102 2.280869 590.00 642.93 24.00
1444 39.5306 2.279739 612.00 644.92 25.00
1445 39.5510 2.278611 602.00 647.78 25.00
1446 39.5715 2.277478 614.00 651.66 25.00
1447 39.5919 2.276351 631.00 656.70 25.00
1448 39.6123 2.275226 657.00 663.17 26.00
1449 39.6327 2.274101 676.00 671.48 26.00
1450 39.6532 2.272973 617.00 681.82 25.00
1451 39.6736 2.271852 647.00 695.53 25.00
1452 39.6940 2.270731 683.00 712.71 26.00
1453 39.7145 2.269606 746.00 733.32 27.00
1454 39.7349 2.268488 735.00 755.49 27.00
1455 39.7553 2.267371 808.00 776.65 28.00
1456 39.7757 2.266255 847.00 797.75 29.00
1457 39.7962 2.265135 834.00 823.89 29.00
1458 39.8166 2.264021 815.00 860.21 29.00
1459 39.8370 2.262909 872.00 911.34 30.00
1460 39.8575 2.261793 983.00 982.96 31.00
1461 39.8779 2.260683 1040.00 1083.63 32.00
1462 39.8983 2.259574 1147.00 1227.56 34.00
1463 39.9187 2.258466 1335.00 1429.76 37.00
1464 39.9392 2.257354 1583.00 1704.11 40.00
1465 39.9596 2.256249 1970.00 2046.26 44.00
1466 39.9800 2.255145 2163.00 2406.49 47.00
1467 40.0005 2.254036 2469.00 2655.53 50.00
1468 40.0209 2.252934 2589.00 2675.58 51.00
1469 40.0413 2.251833 2512.00 2525.43 50.00
1470 40.0617 2.250734 2279.00 2352.11 48.00
1471 40.0822 2.249630 2056.00 2222.79 45.00
1472 40.1026 2.248533 2050.00 2100.85 45.00
1473 40.1230 2.247437 1804.00 1918.53 42.00
1474 40.1435 2.246336 1610.00 1678.95 40.00
1475 40.1639 2.245242 1389.00 1442.20 37.00
1476 40.1843 2.244150 1264.00 1243.65 36.00
1477 40.2047 2.243058 1047.00 1091.14 32.00
1478 40.2252 2.241962 951.00 979.21 31.00
1479 40.2456 2.240873 877.00 900.47 30.00
1480 40.2660 2.239785 875.00 844.25 30.00
1481 40.2865 2.238692 776.00 804.85 28.00
1482 40.3069 2.237606 768.00 777.89 28.00
1483 40.3273 2.236521 726.00 761.13 27.00
1484 40.3477 2.235438 735.00 753.93 27.00
1485 40.3682 2.234350 714.00 755.09 27.00
1486 40.3886 2.233268 738.00 763.34 27.00
1487 40.4090 2.232188 712.00 772.63 27.00
1488 40.4295 2.231103 736.00 773.50 27.00
1489 40.4499 2.230025 718.00 761.49 27.00
1490 40.4703 2.228948 710.00 743.24 27.00
1491 40.4907 2.227872 663.00 726.96 26.00
1492 40.5112 2.226792 649.00 714.35 25.00
1493 40.5316 2.225719 663.00 701.57 26.00
1494 40.5520 2.224646 625.00 684.92 25.00
1495 40.5725 2.223569 631.00 665.93 25.00
1496 40.5929 2.222499 605.00 648.45 25.00
1497 40.6133 2.221430 577.00 634.10 24.00
1498 40.6337 2.220361 621.00 622.87 25.00
1499 40.6542 2.219289 591.00 614.18 24.00
1500 40.6746 2.218224 556.00 607.48 24.00
1501 40.6950 2.217159 526.00 602.17 23.00
1502 40.7154 2.216095 551.00 597.85 23.00
1503 40.7359 2.215027 581.00 594.22 24.00
1504 40.7563 2.213965 533.00 591.12 23.00
1505 40.7767 2.212905 563.00 588.40 24.00
1506 40.7972 2.211840 593.00 585.98 24.00
1507 40.8176 2.210782 513.00 583.82 23.00
1508 40.8380 2.209724 510.00 581.87 23.00
1509 40.8584 2.208668 545.00 580.08 23.00
1510 40.8789 2.207608 536.00 578.30 23.00
1511 40.8993 2.206554 537.00 576.78 23.00
1512 40.9197 2.205501 515.00 575.38 23.00
1513 40.9402 2.204444 533.00 574.05 23.00
1514 40.9606 2.203393 522.00 572.82 23.00
1515 40.9810 2.202344 496.00 571.60 22.00
1516 41.0014 2.201295 490.00 570.51 22.00
1517 41.0219 2.200243 535.00 569.47 23.00
1518 41.0423 2.199196 522.00 568.48 23.00
1519 41.0627 2.198151 554.00 567.45 24.00
1520 41.0832 2.197101 525.00 566.56 23.00
1521 41.1036 2.196058 552.00 565.85 23.00
1522 41.1240 2.195015 500.00 565.04 22.00
1523 41.1444 2.193974 544.00 558.51 23.00
1524 41.1649 2.192929 534.00 557.92 23.00
1525 41.1853 2.191890 520.00 557.41 23.00
1526 41.2057 2.190852 522.00 556.88 23.00
1527 41.2262 2.189810 501.00 556.53 22.00
1528 41.2466 2.188774 559.00 553.36 24.00
1529 41.2670 2.187739 486.00 553.18 22.00
1530 41.2874 2.186705 538.00 553.06 23.00
1531 41.3079 2.185668 517.00 552.83 23.00
1532 41.3283 2.184636 538.00 552.71 23.00
1533 41.3487 2.183605 517.00 552.52 23.00
1534 41.3692 2.182570 544.00 552.26 23.00
1535 41.3896 2.181542 537.00 551.96 23.00
1536 41.4100 2.180514 531.00 551.66 23.00
1537 41.4304 2.179488 532.00 553.43 23.00
1538 41.4509 2.178457 566.00 553.26 24.00
1539 41.4713 2.177433 539.00 553.06 23.00
1540 41.4917 2.176410 516.00 552.87 23.00
1541 41.5122 2.175382 519.00 552.70 23.00
1542 41.5326 2.174361 511.00 552.56 23.00
1543 41.5530 2.173341 502.00 553.50 22.00
1544 41.5734 2.172321 542.00 553.13 23.00
1545 41.5939 2.171298 534.00 555.03 23.00
1546 41.6143 2.170281 561.00 555.23 24.00
1547 41.6347 2.169265 586.00 555.53 24.00
1548 41.6552 2.168244 577.00 555.97 24.00
1549 41.6756 2.167230 577.00 556.41 24.00
1550 41.6960 2.166217 525.00 557.27 23.00
1551 41.7164 2.165205 568.00 559.34 24.00
1552 41.7369 2.164189 530.00 560.76 23.00
1553 41.7573 2.163179 580.00 562.20 24.00
1554 41.7777 2.162170 576.00 563.19 24.00
1555 41.7982 2.161157 575.00 568.73 24.00
1556 41.8186 2.160150 562.00 568.67 24.00
1557 41.8390 2.159143 581.00 568.64 24.00
1558 41.8594 2.158138 542.00 568.86 23.00
1559 41.8799 2.157130 597.00 569.20 24.00
1560 41.9003 2.156126 592.00 569.41 24.00
1561 41.9207 2.155124 611.00 572.17 25.00
1562 41.9411 2.154123 568.00 572.43 24.00
1563 41.9616 2.153118 579.00 572.95 24.00
1564 41.9820 2.152119 602.00 573.76 25.00
1565 42.0024 2.151121 599.00 574.89 24.00
1566 42.0229 2.150119 588.00 576.34 24.00
1567 42.0433 2.149123 577.00 582.57 24.00
1568 42.0637 2.148128 543.00 584.86 23.00
1569 42.0841 2.147134 608.00 587.60 25.00
1570 42.1046 2.146136 626.00 590.92 25.00
1571 42.1250 2.145144 620.00 595.00 25.00
1572 42.1454 2.144153 609.00 602.67 25.00
1573 42.1659 2.143158 636.00 609.31 25.00
1574 42.1863 2.142169 583.00 617.73 24.00
1575 42.2067 2.141181 586.00 628.31 24.00
1576 42.2271 2.140193 639.00 641.14 25.00
1577 42.2476 2.139202 665.00 654.69 26.00
1578 42.2680 2.138217 637.00 666.22 25.00
1579 42.2884 2.137233 637.00 673.75 25.00
1580 42.3089 2.136245 654.00 678.87 26.00
1581 42.3293 2.135263 667.00 684.52 26.00
1582 42.3497 2.134281 710.00 691.72 27.00
1583 42.3701 2.133301 733.00 699.82 27.00
1584 42.3906 2.132317 700.00 708.34 26.00
1585 42.4110 2.131338 674.00 718.38 26.00
1586 42.4314 2.130361 689.00 732.56 26.00
1587 42.4519 2.129379 709.00 753.65 27.00
1588 42.4723 2.128404 699.00 784.16 26.00
1589 42.4927 2.127429 796.00 828.07 28.00
1590 42.5131 2.126456 835.00 890.40 29.00
1591 42.5336 2.125478 949.00 981.57 31.00
1592 42.5540 2.124507 1075.00 1096.18 33.00
1593 42.5744 2.123536 1206.00 1230.02 35.00
1594 42.5949 2.122561 1248.00 1361.11 35.00
1595 42.6153 2.121593 1371.00 1445.06 37.00
1596 42.6357 2.120625 1336.00 1462.64 37.00
1597 42.6561 2.119658 1400.00 1448.74 37.00
1598 42.6766 2.118687 1359.00 1452.44 37.00
1599 42.6970 2.117722 1401.00 1494.51 37.00
1600 42.7174 2.116758 1476.00 1563.91 38.00
1601 42.7379 2.115790 1581.00 1635.55 40.00
1602 42.7583 2.114828 1680.00 1689.29 41.00
1603 42.7787 2.113867 1673.00 1706.66 41.00
1604 42.7991 2.112906 1620.00 1677.24 40.00
1605 42.8196 2.111942 1571.00 1631.55 40.00
1606 42.8400 2.110984 1483.00 1612.69 39.00
1607 42.8604 2.110026 1598.00 1646.32 40.00
1608 42.8809 2.109065 1621.00 1733.85 40.00
1609 42.9013 2.108109 1816.00 1863.68 43.00
1610 42.9217 2.107155 2058.00 2038.52 45.00
1611 42.9421 2.106201 2290.00 2267.39 48.00
1612 42.9626 2.105243 2692.00 2521.35 52.00
1613 42.9830 2.104292 2906.00 2700.38 54.00
1614 43.0034 2.103341 2879.00 2710.59 54.00
1615 43.0239 2.102386 2673.00 2582.32 52.00
1616 43.0443 2.101437 2566.00 2436.80 51.00
1617 43.0647 2.100489 2634.00 2350.31 51.00
1618 43.0851 2.099542 2471.00 2317.56 50.00
1619 43.1056 2.098590 2395.00 2285.82 49.00
1620 43.1260 2.097645 2262.00 2231.85 48.00
1621 43.1464 2.096700 2287.00 2197.35 48.00
1622 43.1669 2.095752 2319.00 2232.55 48.00
1623 43.1873 2.094810 2499.00 2341.72 50.00
1624 43.2077 2.093868 2662.00 2467.11 52.00
1625 43.2281 2.092927 2557.00 2509.57 51.00
1626 43.2486 2.091983 2493.00 2424.28 50.00
1627 43.2690 2.091043 2345.00 2277.50 48.00
1628 43.2894 2.090106 2265.00 2149.64 48.00
1629 43.3098 2.089168 2053.00 2059.33 45.00
1630 43.3303 2.088227 2028.00 1968.68 45.00
1631 43.3507 2.087292 1864.00 1835.55 43.00
1632 43.3711 2.086357 1742.00 1664.54 42.00
1633 43.3916 2.085419 1587.00 1495.04 40.00
1634 43.4120 2.084487 1393.00 1356.60 37.00
1635 43.4324 2.083555 1313.00 1253.66 36.00
1636 43.4528 2.082624 1239.00 1185.03 35.00
1637 43.4733 2.081689 1185.00 1151.85 34.00
1638 43.4937 2.080760 1134.00 1156.67 34.00
1639 43.5141 2.079832 1291.00 1202.59 36.00
1640 43.5346 2.078900 1302.00 1294.82 36.00
1641 43.5550 2.077974 1408.00 1437.37 38.00
1642 43.5754 2.077049 1619.00 1629.30 40.00
1643 43.5958 2.076124 1850.00 1847.84 43.00
1644 43.6163 2.075196 1919.00 2029.19 44.00
1645 43.6367 2.074273 1977.00 2088.87 44.00
1646 43.6571 2.073351 1940.00 2017.59 44.00
1647 43.6776 2.072425 1809.00 1893.38 43.00
1648 43.6980 2.071505 1759.00 1791.26 42.00
1649 43.7184 2.070586 1640.00 1725.11 40.00
1650 43.7388 2.069668 1647.00 1660.23 41.00
1651 43.7593 2.068745 1485.00 1558.52 39.00
1652 43.7797 2.067829 1383.00 1429.41 37.00
1653 43.8001 2.066913 1300.00 1308.78 36.00
1654 43.8206 2.065994 1189.00 1227.70 34.00
1655 43.8410 2.065080 1164.00 1194.49 34.00
1656 43.8614 2.064167 1159.00 1207.04 34.00
1657 43.8818 2.063254 1198.00 1256.76 35.00
1658 43.9023 2.062338 1274.00 1320.20 36.00
1659 43.9227 2.061428 1389.00 1354.58 37.00
1660 43.9431 2.060518 1284.00 1331.98 36.00
1661 43.9636 2.059605 1183.00 1267.35 34.00
1662 43.9840 2.058697 1192.00 1197.36 35.00
1663 44.0044 2.057790 1112.00 1147.15 33.00
1664 44.0248 2.056884 1057.00 1108.55 33.00
1665 44.0453 2.055974 975.00 1059.87 31.00
1666 44.0657 2.055070 990.00 990.93 31.00
1667 44.0861 2.054166 862.00 911.57 29.00
1668 44.1066 2.053259 883.00 839.28 30.00
1669 44.1270 2.052357 785.00 780.77 28.00
1670 44.1474 2.051456 702.00 735.59 26.00
1671 44.1678 2.050556 706.00 701.27 27.00
1672 44.1883 2.049652 659.00 669.90 26.00
1673 44.2087 2.048754 690.00 650.36 26.00
1674 44.2291 2.047856 680.00 635.89 26.00
1675 44.2496 2.046955 671.00 624.53 26.00
1676 44.2700 2.046059 638.00 615.93 25.00
1677 44.2904 2.045164 676.00 609.53 26.00
1678 44.3108 2.044270 660.00 602.59 26.00
1679 44.3313 2.043372 643.00 611.48 25.00
1680 44.3517 2.042480 650.00 611.82 25.00
1681 44.3721 2.041588 699.00 619.58 26.00
1682 44.3926 2.040693 641.00 625.84 25.00
1683 44.4130 2.039803 715.00 635.47 27.00
1684 44.4334 2.038914 619.00 643.75 25.00
1685 44.4538 2.038026 679.00 656.94 26.00
1686 44.4743 2.037134 683.00 665.62 26.00
1687 44.4947 2.036247 646.00 665.46 25.00
1688 44.5151 2.035362 644.00 657.96 25.00
1689 44.5355 2.034477 694.00 649.47 26.00
1690 44.5560 2.033588 692.00 641.10 26.00
1691 44.5764 2.032705 687.00 636.90 26.00
1692 44.5968 2.031822 681.00 631.94 26.00
1693 44.6173 2.030936 685.00 624.23 26.00
1694 44.6377 2.030056 731.00 615.36 27.00
1695 44.6581 2.029176 717.00 607.16 27.00
1696 44.6785 2.028296 732.00 600.46 27.00
1697 44.6990 2.027414 742.00 595.87 27.00
1698 44.7194 2.026537 770.00 593.09 28.00
1699 44.7398 2.025660 712.00 591.82 27.00
1700 44.7603 2.024780 762.00 591.84 28.00
1701 44.7807 2.023905 713.00 592.93 27.00
1702 44.8011 2.023031 736.00 594.97 27.00
1703 44.8215 2.022157 670.00 597.90 26.00
1704 44.8420 2.021281 712.00 597.83 27.00
1705 44.8624 2.020409 650.00 602.90 25.00
1706 44.8828 2.019538 648.00 609.29 25.00
1707 44.9033 2.018663 680.00 617.39 26.00
1708 44.9237 2.017794 681.00 627.68 26.00
1709 44.9441 2.016926 688.00 640.99 26.00
1710 44.9645 2.016058 702.00 656.38 26.00
1711 44.9850 2.015187 653.00 679.10 26.00
1712 45.0054 2.014321 732.00 708.08 27.00
1713 45.0258 2.013456 691.00 743.72 26.00
1714 45.0463 2.012587 724.00 784.15 27.00
1715 45.0667 2.011724 808.00 823.20 28.00
1716 45.0871 2.010861 849.00 855.33 29.00
1717 45.1075 2.009999 908.00 882.45 30.00
1718 45.1280 2.009134 892.00 911.73 30.00
1719 45.1484 2.008273 892.00 942.32 30.00
1720 45.1688 2.007414 917.00 969.95 30.00
1721 45.1893 2.006551 938.00 984.33 31.00
1722 45.2097 2.005692 912.00 988.17 30.00
1723 45.2301 2.004835 1014.00 993.44 32.00
1724 45.2505 2.003979 953.00 1010.62 31.00
1725 45.2710 2.003119 1012.00 1042.80 32.00
1726 45.2914 2.002264 1051.00 1091.77 32.00
1727 45.3118 2.001410 1151.00 1160.91 34.00
1728 45.3323 2.000553 1278.00 1263.41 36.00
1729 45.3527 1.999701 1425.00 1416.49 38.00
1730 45.3731 1.998849 1625.00 1641.91 40.00
1731 45.3935 1.997998 2082.00 1956.62 46.00
1732 45.4140 1.997144 2413.00 2378.27 49.00
1733 45.4344 1.996295 2965.00 2893.65 54.00
1734 45.4548 1.995446 3418.00 3436.97 58.00
1735 45.4753 1.994594 3928.00 3853.69 63.00
1736 45.4957 1.993747 4063.00 3979.62 64.00
1737 45.5161 1.992901 4063.00 3804.97 64.00
1738 45.5365 1.992056 3928.00 3521.67 63.00
1739 45.5570 1.991207 3742.00 3279.67 61.00
1740 45.5774 1.990363 3348.00 3117.89 58.00
1741 45.5978 1.989520 3042.00 2961.53 55.00
1742 45.6183 1.988674 2803.00 2717.82 53.00
1743 45.6387 1.987833 2517.00 2385.53 50.00
1744 45.6591 1.986992 2200.00 2038.14 47.00
1745 45.6795 1.986152 1843.00 1738.66 43.00
1746 45.7000 1.985309 1567.00 1507.75 40.00
1747 45.7204 1.984471 1318.00 1344.45 36.00
1748 45.7408 1.983633 1126.00 1235.90 34.00
1749 45.7613 1.982792 1117.00 1164.80 33.00
1750 45.7817 1.981956 1000.00 1112.07 32.00
1751 45.8021 1.981121 1007.00 1061.40 32.00
1752 45.8225 1.980286 943.00 1008.71 31.00
1753 45.8430 1.979449 877.00 958.46 30.00
1754 45.8634 1.978616 850.00 916.53 29.00
1755 45.8838 1.977783 810.00 882.93 28.00
1756 45.9042 1.976952 777.00 853.06 28.00
1757 45.9247 1.976117 803.00 821.75 28.00
1758 45.9451 1.975287 783.00 788.81 28.00
1759 45.9655 1.974458 720.00 756.90 27.00
1760 45.9860 1.973626 716.00 728.66 27.00
1761 46.0064 1.972798 585.00 705.70 24.00
1762 46.0268 1.971971 650.00 687.86 25.00
1763 46.0472 1.971145 637.00 674.49 25.00
1764 46.0677 1.970316 630.00 664.80 25.00
1765 46.0881 1.969491 663.00 658.17 26.00
1766 46.1085 1.968667 616.00 653.90 25.00
1767 46.1290 1.967840 663.00 651.49 26.00
1768 46.1494 1.967018 639.00 650.15 25.00
1769 46.1698 1.966196 629.00 649.80 25.00
1770 46.1902 1.965375 618.00 650.60 25.00
1771 46.2107 1.964551 622.00 652.79 25.00
1772 46.2311 1.963732 602.00 656.55 25.00
1773 46.2515 1.962913 559.00 664.20 24.00
1774 46.2720 1.962091 594.00 671.70 24.00
1775 46.2924 1.961274 642.00 681.39 25.00
1776 46.3128 1.960458 638.00 694.78 25.00
1777 46.3332 1.959642 666.00 710.27 26.00
1778 46.3537 1.958823 674.00 730.07 26.00
1779 46.3741 1.958009 748.00 753.58 27.00
1780 46.3945 1.957196 775.00 780.24 28.00
1781 46.4150 1.956379 797.00 809.27 28.00
1782 46.4354 1.955567 838.00 842.77 29.00
1783 46.4558 1.954756 842.00 885.16 29.00
1784 46.4762 1.953945 912.00 942.26 30.00
1785 46.4967 1.953132 945.00 1021.48 31.00
1786 46.5171 1.952322 1050.00 1130.69 32.00
1787 46.5375 1.951514 1203.00 1281.31 35.00
1788 46.5580 1.950703 1380.00 1489.26 37.00
1789 46.5784 1.949896 1731.00 1767.47 42.00
1790 46.5988 1.949090 2140.00 2125.20 46.00
1791 46.6192 1.948285 2720.00 2548.31 52.00
1792 46.6397 1.947476 3189.00 2977.20 56.00
1793 46.6601 1.946672 3577.00 3291.16 60.00
1794 46.6805 1.945869 3520.00 3384.92 59.00
1795 46.7010 1.945063 3340.00 3267.55 58.00
1796 46.7214 1.944261 3095.00 3060.55 56.00
1797 46.7418 1.943460 2947.00 2861.40 54.00
1798 46.7622 1.942660 2858.00 2716.41 53.00
1799 46.7827 1.941856 2612.00 2574.61 51.00
1800 46.8031 1.941057 2512.00 2377.95 50.00
1801 46.8235 1.940259 2202.00 2114.39 47.00
1802 46.8440 1.939458 1914.00 1826.02 44.00
1803 46.8644 1.938661 1679.00 1557.02 41.00
1804 46.8848 1.937865 1384.00 1336.89 37.00
1805 46.9052 1.937070 1233.00 1163.27 35.00
1806 46.9257 1.936272 1034.00 1030.85 32.00
1807 46.9461 1.935478 1021.00 932.91 32.00
1808 46.9665 1.934685 928.00 859.77 30.00
1809 46.9870 1.933888 934.00 804.73 31.00
1810 47.0074 1.933097 866.00 763.16 29.00
1811 47.0278 1.932306 744.00 731.07 27.00
1812 47.0482 1.931516 822.00 705.44 29.00
1813 47.0687 1.930722 714.00 685.70 27.00
1814 47.0891 1.929933 733.00 669.92 27.00
1815 47.1095 1.929145 731.00 657.70 27.00
1816 47.1299 1.928358 755.00 648.40 27.00
1817 47.1504 1.927567 708.00 641.66 27.00
1818 47.1708 1.926781 648.00 637.04 25.00
1819 47.1912 1.925996 686.00 634.83 26.00
1820 47.2117 1.925207 654.00 634.76 26.00
1821 47.2321 1.924423 663.00 637.38 26.00
1822 47.2525 1.923640 679.00 643.41 26.00
1823 47.2729 1.922858 663.00 653.94 26.00
1824 47.2934 1.922072 665.00 672.42 26.00
1825 47.3138 1.921291 677.00 697.36 26.00
1826 47.3342 1.920510 715.00 733.34 27.00
1827 47.3547 1.919727 703.00 783.82 27.00
1828 47.3751 1.918948 781.00 851.01 28.00
1829 47.3955 1.918169 874.00 935.39 30.00
1830 47.4159 1.917392 996.00 1032.97 32.00
1831 47.4364 1.916611 1041.00 1128.64 32.00
1832 47.4568 1.915835 1078.00 1194.44 33.00
1833 47.4772 1.915059 1118.00 1205.84 33.00
1834 47.4977 1.914281 1030.00 1167.45 32.00
1835 47.5181 1.913506 969.00 1111.19 31.00
1836 47.5385 1.912733 1016.00 1062.86 32.00
1837 47.5589 1.911960 950.00 1028.35 31.00
1838 47.5794 1.911184 949.00 996.84 31.00
1839 47.5998 1.910413 863.00 951.89 29.00
1840 47.6202 1.909642 883.00 889.65 30.00
1841 47.6407 1.908868 769.00 820.98 28.00
1842 47.6611 1.908099 758.00 758.74 28.00
1843 47.6815 1.907330 717.00 707.82 27.00
1844 47.7019 1.906562 675.00 668.70 26.00
1845 47.7224 1.905791 680.00 639.49 26.00
1846 47.7428 1.905024 661.00 618.48 26.00
1847 47.7632 1.904258 650.00 603.70 25.00
1848 47.7837 1.903489 624.00 593.68 25.00
1849 47.8041 1.902724 648.00 588.97 25.00
1850 47.8245 1.901960 613.00 586.00 25.00
1851 47.8449 1.901197 577.00 586.40 24.00
1852 47.8654 1.900431 614.00 588.13 25.00
1853 47.8858 1.899669 586.00 590.74 24.00
1854 47.9062 1.898907 618.00 593.11 25.00
1855 47.9267 1.898143 589.00 594.07 24.00
1856 47.9471 1.897383 632.00 598.29 25.00
1857 47.9675 1.896624 654.00 599.14 26.00
1858 47.9879 1.895865 629.00 610.82 25.00
1859 48.0084 1.895104 638.00 625.95 25.00
1860 48.0288 1.894346 699.00 644.45 26.00
1861 48.0492 1.893590 697.00 658.31 26.00
1862 48.0697 1.892830 664.00 664.75 26.00
1863 48.0901 1.892075 663.00 660.24 26.00
1864 48.1105 1.891320 653.00 656.66 26.00
1865 48.1309 1.890566 689.00 656.49 26.00
1866 48.1514 1.889809 666.00 663.08 26.00
1867 48.1718 1.889057 699.00 675.42 26.00
1868 48.1922 1.888305 716.00 691.28 27.00
1869 48.2127 1.887550 698.00 704.24 26.00
1870 48.2331 1.886799 728.00 711.37 27.00
1871 48.2535 1.886049 712.00 708.14 27.00
1872 48.2739 1.885300 747.00 696.24 27.00
1873 48.2944 1.884547 699.00 681.98 26.00
1874 48.3148 1.883799 685.00 671.44 26.00
1875 48.3352 1.883052 653.00 666.50 26.00
1876 48.3557 1.882302 638.00 665.44 25.00
1877 48.3761 1.881556 677.00 664.92 26.00
1878 48.3965 1.880810 670.00 663.61 26.00
1879 48.4169 1.880065 657.00 663.98 26.00
1880 48.4374 1.879318 666.00 670.10 26.00
1881 48.4578 1.878574 694.00 685.38 26.00
1882 48.4782 1.877831 680.00 712.72 26.00
1883 48.4986 1.877089 779.00 754.90 28.00
1884 48.5191 1.876344 800.00 814.83 28.00
1885 48.5395 1.875603 847.00 893.06 29.00
1886 48.5599 1.874863 956.00 986.30 31.00
1887 48.5804 1.874120 1005.00 1081.28 32.00
1888 48.6008 1.873381 1037.00 1150.51 32.00
1889 48.6212 1.872643 1090.00 1171.35 33.00
1890 48.6416 1.871905 1069.00 1149.88 33.00
1891 48.6621 1.871164 1087.00 1115.84 33.00
1892 48.6825 1.870428 1039.00 1094.64 32.00
1893 48.7029 1.869692 1085.00 1092.21 33.00
1894 48.7234 1.868953 1147.00 1096.59 34.00
1895 48.7438 1.868219 1102.00 1086.57 33.00
1896 48.7642 1.867485 1072.00 1047.30 33.00
1897 48.7846 1.866752 1061.00 989.01 33.00
1898 48.8051 1.866016 902.00 926.80 30.00
1899 48.8255 1.865284 871.00 874.86 30.00
1900 48.8459 1.864552 816.00 838.36 29.00
1901 48.8664 1.863818 846.00 816.71 29.00
1902 48.8868 1.863088 851.00 806.16 29.00
1903 48.9072 1.862359 850.00 802.66 29.00
1904 48.9276 1.861630 858.00 809.34 29.00
1905 48.9481 1.860898 863.00 829.39 29.00
1906 48.9685 1.860171 935.00 865.31 31.00
1907 48.9889 1.859444 978.00 916.71 31.00
1908 49.0094 1.858714 999.00 976.82 32.00
1909 49.0298 1.857989 989.00 1028.83 31.00
1910 49.0502 1.857264 1044.00 1054.54 32.00
1911 49.0706 1.856539 1035.00 1051.51 32.00
1912 49.0911 1.855812 1041.00 1036.89 32.00
1913 49.1115 1.855089 1036.00 1031.23 32.00
1914 49.1319 1.854366 1122.00 1043.65 33.00
1915 49.1524 1.853641 1107.00 1073.28 33.00
1916 49.1728 1.852920 1196.00 1111.88 35.00
1917 49.1932 1.852199 1202.00 1152.42 35.00
1918 49.2136 1.851479 1244.00 1191.20 35.00
1919 49.2341 1.850756 1327.00 1219.94 36.00
1920 49.2545 1.850037 1254.00 1222.43 35.00
1921 49.2749 1.849319 1189.00 1192.68 34.00
1922 49.2954 1.848598 1181.00 1146.30 34.00
1923 49.3158 1.847881 1162.00 1107.99 34.00
1924 49.3362 1.847165 1149.00 1091.54 34.00
1925 49.3566 1.846449 1144.00 1096.40 34.00
1926 49.3771 1.845731 1108.00 1110.60 33.00
1927 49.3975 1.845016 1094.00 1119.74 33.00
1928 49.4179 1.844302 1111.00 1113.05 33.00
1929 49.4384 1.843586 1057.00 1083.73 33.00
1930 49.4588 1.842873 1014.00 1031.74 32.00
1931 49.4792 1.842161 1013.00 968.22 32.00
1932 49.4996 1.841450 903.00 908.85 30.00
1933 49.5201 1.840735 850.00 862.19 29.00
1934 49.5405 1.840025 808.00 828.23 28.00
1935 49.5609 1.839316 829.00 801.87 29.00
1936 49.5814 1.838603 795.00 768.33 28.00
1937 49.6018 1.837895 762.00 728.77 28.00
1938 49.6222 1.837187 696.00 687.78 26.00
1939 49.6426 1.836480 705.00 650.54 27.00
1940 49.6631 1.835770 593.00 619.28 24.00
1941 49.6835 1.835064 581.00 596.09 24.00
1942 49.7039 1.834359 513.00 576.62 23.00
1943 49.7243 1.833654 549.00 561.85 23.00
1944 49.7448 1.832946 573.00 550.59 24.00
1945 49.7652 1.832243 523.00 542.19 23.00
1946 49.7856 1.831540 487.00 535.92 22.00
1947 49.8061 1.830834 485.00 531.35 22.00
1948 49.8265 1.830132 486.00 528.20 22.00
1949 49.8469 1.829431 483.00 526.10 22.00
1950 49.8673 1.828730 504.00 524.65 22.00
1951 49.8878 1.828027 480.00 523.25 22.00
1952 49.9082 1.827327 535.00 521.62 23.00
1953 49.9286 1.826629 492.00 519.89 22.00
1954 49.9491 1.825927 448.00 516.94 21.00
1955 49.9695 1.825230 458.00 516.71 21.00
1956 49.9899 1.824533 503.00 517.60 22.00
1957 50.0103 1.823836 498.00 519.59 22.00
1958 50.0308 1.823137 468.00 522.50 22.00
1959 50.0512 1.822442 484.00 526.12 22.00
1960 50.0716 1.821747 493.00 529.25 22.00
1961 50.0921 1.821050 542.00 532.31 23.00
1962 50.1125 1.820356 519.00 535.38 23.00
1963 50.1329 1.819663 500.00 535.78 22.00
1964 50.1533 1.818971 538.00 536.13 23.00
1965 50.1738 1.818276 523.00 538.02 23.00
1966 50.1942 1.817585 535.00 542.38 23.00
1967 50.2146 1.816894 555.00 549.38 24.00
1968 50.2351 1.816201 576.00 558.97 24.00
1969 50.2555 1.815511 603.00 569.68 25.00
1970 50.2759 1.814822 584.00 580.94 24.00
1971 50.2963 1.814134 578.00 591.17 24.00
1972 50.3168 1.813443 620.00 598.41 25.00
1973 50.3372 1.812756 592.00 601.65 24.00
1974 50.3576 1.812070 618.00 601.50 25.00
1975 50.3781 1.811380 596.00 598.02 24.00
1976 50.3985 1.810695 543.00 594.99 23.00
1977 50.4189 1.810010 556.00 592.14 24.00
1978 50.4393 1.809326 668.00 589.76 26.00
1979 50.4598 1.808639 583.00 587.36 24.00
1980 50.4802 1.807956 576.00 584.66 24.00
1981 50.5006 1.807274 574.00 581.59 24.00
1982 50.5211 1.806589 589.00 578.02 24.00
1983 50.5415 1.805907 550.00 576.23 23.00
1984 50.5619 1.805226 562.00 576.42 24.00
1985 50.5823 1.804546 603.00 578.66 25.00
1986 50.6028 1.803863 553.00 582.07 24.00
1987 50.6232 1.803184 554.00 588.09 24.00
1988 50.6436 1.802506 603.00 595.77 25.00
1989 50.6641 1.801825 596.00 606.35 24.00
1990 50.6845 1.801147 588.00 621.02 24.00
1991 50.7049 1.800471 628.00 640.79 25.00
1992 50.7253 1.799794 691.00 666.09 26.00
1993 50.7458 1.799115 706.00 697.52 27.00
1994 50.7662 1.798440 737.00 738.01 27.00
1995 50.7866 1.797766 724.00 791.10 27.00
1996 50.8071 1.797089 840.00 865.47 29.00
1997 50.8275 1.796415 929.00 965.44 30.00
1998 50.8479 1.795742 1064.00 1095.15 33.00
1999 50.8683 1.795070 1252.00 1252.61 35.00
2000 50.8888 1.794395 1438.00 1424.25 38.00
2001 50.9092 1.793724 1653.00 1573.09 41.00
2002 50.9296 1.793054 1673.00 1651.11 41.00
2003 50.9501 1.792380 1532.00 1635.64 39.00
2004 50.9705 1.791711 1527.00 1555.53 39.00
2005 50.9909 1.791042 1447.00 1463.70 38.00
2006 51.0113 1.790374 1395.00 1391.34 37.00
2007 51.0318 1.789702 1280.00 1344.08 36.00
2008 51.0522 1.789035 1305.00 1301.60 36.00
2009 51.0726 1.788369 1305.00 1237.99 36.00
2010 51.0930 1.787703 1156.00 1144.56 34.00
2011 51.1135 1.787034 1045.00 1035.82 32.00
2012 51.1339 1.786369 984.00 932.59 31.00
2013 51.1543 1.785704 843.00 844.97 29.00
2014 51.1748 1.785037 780.00 775.08 28.00
2015 51.1952 1.784374 769.00 722.19 28.00
2016 51.2156 1.783711 651.00 683.15 26.00
2017 51.2360 1.783049 645.00 655.09 25.00
2018 51.2565 1.782384 641.00 635.55 25.00
2019 51.2769 1.781722 634.00 623.17 25.00
2020 51.2973 1.781062 633.00 616.89 25.00
2021 51.3178 1.780399 627.00 616.57 25.00
2022 51.3382 1.779739 680.00 622.79 26.00
2023 51.3586 1.779080 634.00 636.53 25.00
2024 51.3790 1.778422 624.00 659.06 25.00
2025 51.3995 1.777760 670.00 691.83 26.00
2026 51.4199 1.777103 772.00 734.98 28.00
2027 51.4403 1.776446 774.00 787.06 28.00
2028 51.4608 1.775787 830.00 839.38 29.00
2029 51.4812 1.775131 861.00 877.28 29.00
2030 51.5016 1.774476 887.00 886.95 30.00
2031 51.5220 1.773821 806.00 868.13 28.00
2032 51.5425 1.773164 774.00 835.29 28.00
2033 51.5629 1.772511 803.00 804.29 28.00
2034 51.5833 1.771858 724.00 782.23 27.00
2035 51.6038 1.771202 707.00 766.24 27.00
2036 51.6242 1.770550 733.00 748.66 27.00
2037 51.6446 1.769899 727.00 722.00 27.00
2038 51.6650 1.769248 645.00 686.60 25.00
2039 51.6855 1.768594 618.00 648.49 25.00
2040 51.7059 1.767944 633.00 617.10 25.00
2041 51.7263 1.767295 592.00 588.62 24.00
2042 51.7468 1.766643 570.00 566.10 24.00
2043 51.7672 1.765995 549.00 549.27 23.00
2044 51.7876 1.765347 511.00 537.04 23.00
2045 51.8080 1.764700 541.00 528.47 23.00
2046 51.8285 1.764050 534.00 522.96 23.00
2047 51.8489 1.763404 552.00 521.47 23.00
2048 51.8693 1.762759 535.00 520.47 23.00
2049 51.8898 1.762111 576.00 520.97 24.00
2050 51.9102 1.761466 596.00 522.27 24.00
2051 51.9306 1.760822 546.00 523.31 23.00
2052 51.9510 1.760179 533.00 523.30 23.00
2053 51.9715 1.759533 581.00 522.45 24.00
2054 51.9919 1.758890 547.00 521.85 23.00
2055 52.0123 1.758249 593.00 522.10 24.00
2056 52.0328 1.757604 588.00 523.76 24.00
2057 52.0532 1.756963 632.00 526.73 25.00
2058 52.0736 1.756323 551.00 530.80 23.00
2059 52.0940 1.755683 617.00 536.07 25.00
2060 52.1145 1.755041 606.00 543.42 25.00
2061 52.1349 1.754402 639.00 555.61 25.00
2062 52.1553 1.753764 652.00 571.33 26.00
2063 52.1758 1.753123 672.00 594.41 26.00
2064 52.1962 1.752486 689.00 624.78 26.00
2065 52.2166 1.751849 700.00 666.50 26.00
2066 52.2370 1.751213 785.00 715.42 28.00
2067 52.2575 1.750574 822.00 771.04 29.00
2068 52.2779 1.749939 892.00 825.59 30.00
2069 52.2983 1.749305 925.00 864.09 30.00
2070 52.3187 1.748671 925.00 872.01 30.00
2071 52.3392 1.748034 869.00 857.95 29.00
2072 52.3596 1.747401 876.00 832.17 30.00
2073 52.3800 1.746769 829.00 807.44 29.00
2074 52.4005 1.746133 845.00 789.13 29.00
2075 52.4209 1.745502 846.00 775.68 29.00
2076 52.4413 1.744871 694.00 760.59 26.00
2077 52.4617 1.744241 741.00 735.65 27.00
2078 52.4822 1.743608 730.00 704.59 27.00
2079 52.5026 1.742978 716.00 671.55 27.00
2080 52.5230 1.742349 671.00 641.33 26.00
2081 52.5435 1.741718 647.00 623.68 25.00
2082 52.5639 1.741090 585.00 607.49 24.00
2083 52.5843 1.740462 553.00 593.33 24.00
2084 52.6047 1.739836 585.00 583.48 24.00
2085 52.6252 1.739206 608.00 577.46 25.00
2086 52.6456 1.738580 570.00 575.13 24.00
2087 52.6660 1.737955 573.00 576.38 24.00
2088 52.6865 1.737327 541.00 581.27 23.00
2089 52.7069 1.736703 586.00 590.00 24.00
2090 52.7273 1.736079 641.00 603.89 25.00
2091 52.7477 1.735456 594.00 621.80 24.00
2092 52.7682 1.734830 646.00 645.56 25.00
2093 52.7886 1.734207 708.00 675.43 27.00
2094 52.8090 1.733585 763.00 710.77 28.00
2095 52.8295 1.732961 753.00 748.49 27.00
2096 52.8499 1.732340 847.00 781.59 29.00
2097 52.8703 1.731720 820.00 807.63 29.00
2098 52.8907 1.731100 790.00 815.97 28.00
2099 52.9112 1.730478 845.00 820.61 29.00
2100 52.9316 1.729859 799.00 830.22 28.00
2101 52.9520 1.729241 823.00 851.28 29.00
2102 52.9725 1.728620 849.00 887.16 29.00
2103 52.9929 1.728002 906.00 937.75 30.00
2104 53.0133 1.727385 1026.00 1003.13 32.00
2105 53.0337 1.726769 1022.00 1085.47 32.00
2106 53.0542 1.726150 1169.00 1192.81 34.00
2107 53.0746 1.725535 1222.00 1323.30 35.00
2108 53.0950 1.724920 1424.00 1469.12 38.00
2109 53.1155 1.724303 1611.00 1603.56 40.00
2110 53.1359 1.723689 1585.00 1684.48 40.00
2111 53.1563 1.723075 1688.00 1687.31 41.00
2112 53.1767 1.722462 1672.00 1629.16 41.00
2113 53.1972 1.721847 1641.00 1550.89 41.00
2114 53.2176 1.721235 1504.00 1487.76 39.00
2115 53.2380 1.720624 1453.00 1450.53 38.00
2116 53.2585 1.720010 1436.00 1429.55 38.00
2117 53.2789 1.719399 1326.00 1404.05 36.00
2118 53.2993 1.718789 1311.00 1359.14 36.00
2119 53.3197 1.718180 1260.00 1300.61 35.00
2120 53.3402 1.717568 1215.00 1248.88 35.00
2121 53.3606 1.716959 1188.00 1218.38 34.00
2122 53.3810 1.716351 1180.00 1217.50 34.00
2123 53.4015 1.715741 1190.00 1248.47 34.00
2124 53.4219 1.715134 1316.00 1306.61 36.00
2125 53.4423 1.714527 1379.00 1381.35 37.00
2126 53.4627 1.713921 1518.00 1457.32 39.00
2127 53.4832 1.713313 1609.00 1522.45 40.00
2128 53.5036 1.712707 1648.00 1577.10 41.00
2129 53.5240 1.712103 1681.00 1632.66 41.00
2130 53.5445 1.711496 1665.00 1693.49 41.00
2131 53.5649 1.710892 1742.00 1745.55 42.00
2132 53.5853 1.710289 1749.00 1767.19 42.00
2133 53.6057 1.709686 1746.00 1749.79 42.00
2134 53.6262 1.709081 1660.00 1706.76 41.00
2135 53.6466 1.708479 1654.00 1663.39 41.00
2136 53.6670 1.707878 1659.00 1641.44 41.00
2137 53.6874 1.707277 1684.00 1652.22 41.00
2138 53.7079 1.706674 1621.00 1695.64 40.00
2139 53.7283 1.706074 1749.00 1764.82 42.00
2140 53.7487 1.705475 1871.00 1862.91 43.00
2141 53.7692 1.704873 1960.00 2001.06 44.00
2142 53.7896 1.704275 2195.00 2188.97 47.00
2143 53.8100 1.703677 2435.00 2426.67 49.00
2144 53.8304 1.703079 2722.00 2685.03 52.00
2145 53.8509 1.702479 2997.00 2898.85 55.00
2146 53.8713 1.701883 3196.00 2987.45 57.00
2147 53.8917 1.701287 3174.00 2926.58 56.00
2148 53.9122 1.700688 3145.00 2768.67 56.00
2149 53.9326 1.700093 2895.00 2596.55 54.00
2150 53.9530 1.699499 2675.00 2464.12 52.00
2151 53.9734 1.698904 2366.00 2382.37 49.00
2152 53.9939 1.698308 2274.00 2325.56 48.00
2153 54.0143 1.697714 2376.00 2252.98 49.00
2154 54.0347 1.697122 2367.00 2143.24 49.00
2155 54.0552 1.696527 2152.00 2014.13 46.00
2156 54.0756 1.695935 2098.00 1903.89 46.00
2157 54.0960 1.695343 1938.00 1839.07 44.00
2158 54.1164 1.694752 1927.00 1828.70 44.00
2159 54.1369 1.694159 1957.00 1864.96 44.00
2160 54.1573 1.693569 2047.00 1921.11 45.00
2161 54.1777 1.692980 1963.00 1955.43 44.00
2162 54.1982 1.692388 1873.00 1931.69 43.00
2163 54.2186 1.691799 1811.00 1849.86 43.00
2164 54.2390 1.691211 1680.00 1743.10 41.00
2165 54.2594 1.690624 1550.00 1646.91 39.00
2166 54.2799 1.690034 1448.00 1578.49 38.00
2167 54.3003 1.689447 1492.00 1535.25 39.00
2168 54.3207 1.688861 1434.00 1501.05 38.00
2169 54.3412 1.688272 1442.00 1454.35 38.00
2170 54.3616 1.687687 1377.00 1388.44 37.00
2171 54.3820 1.687102 1216.00 1315.70 35.00
2172 54.4024 1.686517 1189.00 1250.97 34.00
2173 54.4229 1.685930 1213.00 1205.12 35.00
2174 54.4433 1.685347 1166.00 1181.55 34.00
2175 54.4637 1.684764 1152.00 1174.59 34.00
2176 54.4842 1.684179 1191.00 1172.79 35.00
2177 54.5046 1.683596 1120.00 1163.56 33.00
2178 54.5250 1.683015 1091.00 1143.68 33.00
2179 54.5454 1.682434 1164.00 1122.37 34.00
2180 54.5659 1.681850 1104.00 1112.90 33.00
2181 54.5863 1.681270 1140.00 1117.73 34.00
2182 54.6067 1.680690 1208.00 1145.46 35.00
2183 54.6272 1.680108 1247.00 1187.30 35.00
2184 54.6476 1.679529 1262.00 1230.52 36.00
2185 54.6680 1.678950 1238.00 1259.62 35.00
2186 54.6884 1.678372 1271.00 1259.79 36.00
2187 54.7089 1.677792 1205.00 1225.32 35.00
2188 54.7293 1.677215 1135.00 1162.17 34.00
2189 54.7497 1.676638 1125.00 1093.46 34.00
2190 54.7702 1.676059 1003.00 1033.27 32.00
2191 54.7906 1.675483 1025.00 988.12 32.00
2192 54.8110 1.674908 974.00 954.23 31.00
2193 54.8314 1.674333 929.00 922.13 30.00
2194 54.8519 1.673756 910.00 882.43 30.00
2195 54.8723 1.673182 907.00 833.86 30.00
2196 54.8927 1.672608 764.00 784.26 28.00
2197 54.9131 1.672035 759.00 735.98 28.00
2198 54.9336 1.671460 717.00 693.56 27.00
2199 54.9540 1.670888 678.00 661.22 26.00
2200 54.9744 1.670316 610.00 635.88 25.00
2201 54.9949 1.669742 608.00 616.55 25.00
2202 55.0153 1.669171 642.00 602.44 25.00
2203 55.0357 1.668600 579.00 590.98 24.00
2204 55.0561 1.668031 573.00 585.93 24.00
2205 55.0766 1.667458 596.00 585.00 24.00
2206 55.0970 1.666889 592.00 589.42 24.00
2207 55.1174 1.666320 647.00 599.11 25.00
2208 55.1379 1.665749 592.00 614.73 24.00
2209 55.1583 1.665182 639.00 636.56 25.00
2210 55.1787 1.664614 640.00 664.98 25.00
2211 55.1991 1.664047 702.00 698.17 26.00
2212 55.2196 1.663478 740.00 734.31 27.00
2213 55.2400 1.662912 740.00 765.62 27.00
2214 55.2604 1.662347 821.00 783.92 29.00
2215 55.2809 1.661779 801.00 785.06 28.00
2216 55.3013 1.661214 783.00 771.97 28.00
2217 55.3217 1.660650 744.00 752.32 27.00
2218 55.3421 1.660086 744.00 727.85 27.00
2219 55.3626 1.659520 755.00 714.30 27.00
2220 55.3830 1.658957 680.00 704.55 26.00
2221 55.4034 1.658394 671.00 694.82 26.00
2222 55.4239 1.657830 685.00 681.39 26.00
2223 55.4443 1.657268 661.00 663.85 26.00
2224 55.4647 1.656707 638.00 644.78 25.00
2225 55.4851 1.656146 601.00 624.56 25.00
2226 55.5056 1.655583 610.00 612.38 25.00
2227 55.5260 1.655023 590.00 606.94 24.00
2228 55.5464 1.654464 595.00 609.16 24.00
2229 55.5669 1.653902 598.00 619.85 24.00
2230 55.5873 1.653343 615.00 639.57 25.00
2231 55.6077 1.652785 672.00 668.89 26.00
2232 55.6281 1.652227 673.00 707.60 26.00
2233 55.6486 1.651667 735.00 755.14 27.00
2234 55.6690 1.651110 737.00 801.35 27.00
2235 55.6894 1.650554 843.00 845.60 29.00
2236 55.7099 1.649995 855.00 876.57 29.00
2237 55.7303 1.649439 895.00 890.17 30.00
2238 55.7507 1.648884 856.00 889.41 29.00
2239 55.7711 1.648329 824.00 882.05 29.00
2240 55.7916 1.647772 844.00 877.42 29.00
2241 55.8120 1.647218 850.00 877.65 29.00
2242 55.8324 1.646665 843.00 884.84 29.00
2243 55.8529 1.646109 843.00 891.31 29.00
2244 55.8733 1.645556 903.00 890.88 30.00
2245 55.8937 1.645004 890.00 882.92 30.00
2246 55.9141 1.644452 883.00 871.50 30.00
2247 55.9346 1.643898 933.00 863.43 31.00
2248 55.9550 1.643347 887.00 865.32 30.00
2249 55.9754 1.642797 899.00 881.57 30.00
2250 55.9959 1.642244 908.00 913.27 30.00
2251 56.0163 1.641694 973.00 958.77 31.00
2252 56.0367 1.641145 1061.00 1011.73 33.00
2253 56.0571 1.640596 1142.00 1060.98 34.00
2254 56.0776 1.640045 1146.00 1092.43 34.00
2255 56.0980 1.639497 1166.00 1097.44 34.00
2256 56.1184 1.638950 1096.00 1082.95 33.00
2257 56.1389 1.638400 1057.00 1065.65 33.00
2258 56.1593 1.637853 1086.00 1061.46 33.00
2259 56.1797 1.637307 1142.00 1075.96 34.00
2260 56.2001 1.636761 1207.00 1110.56 35.00
2261 56.2206 1.636212 1195.00 1155.10 35.00
2262 56.2410 1.635667 1258.00 1195.76 35.00
2263 56.2614 1.635123 1304.00 1220.75 36.00
2264 56.2818 1.634579 1262.00 1224.78 36.00
2265 56.3023 1.634032 1250.00 1210.03 35.00
2266 56.3227 1.633489 1198.00 1181.55 35.00
2267 56.3431 1.632946 1097.00 1141.49 33.00
2268 56.3636 1.632400 1095.00 1094.28 33.00
2269 56.3840 1.631858 1040.00 1046.05 32.00
2270 56.4044 1.631316 1040.00 1001.84 32.00
2271 56.4248 1.630775 981.00 962.10 31.00
2272 56.4453 1.630231 896.00 924.53 30.00
2273 56.4657 1.629691 891.00 887.77 30.00
2274 56.4861 1.629151 889.00 849.59 30.00
2275 56.5066 1.628608 862.00 807.49 29.00
2276 56.5270 1.628069 775.00 761.75 28.00
2277 56.5474 1.627530 702.00 715.06 26.00
2278 56.5678 1.626992 670.00 671.34 26.00
2279 56.5883 1.626451 641.00 633.35 25.00
2280 56.6087 1.625913 628.00 602.58 25.00
2281 56.6291 1.625376 623.00 578.48 25.00
2282 56.6496 1.624837 569.00 559.65 24.00
2283 56.6700 1.624300 505.00 544.56 22.00
2284 56.6904 1.623764 536.00 531.53 23.00
2285 56.7108 1.623228 552.00 519.80 23.00
2286 56.7313 1.622690 504.00 509.55 22.00
2287 56.7517 1.622156 497.00 500.87 22.00
2288 56.7721 1.621621 492.00 493.52 22.00
2289 56.7926 1.621085 481.00 488.15 22.00
2290 56.8130 1.620551 475.00 484.85 22.00
2291 56.8334 1.620018 446.00 483.04 21.00
2292 56.8538 1.619485 500.00 482.56 22.00
2293 56.8743 1.618950 473.00 483.33 22.00
2294 56.8947 1.618418 510.00 486.88 23.00
2295 56.9151 1.617886 491.00 490.35 22.00
2296 56.9356 1.617353 530.00 495.83 23.00
2297 56.9560 1.616822 498.00 502.83 22.00
2298 56.9764 1.616291 560.00 511.85 24.00
2299 56.9968 1.615761 554.00 521.53 24.00
2300 57.0173 1.615229 554.00 532.65 24.00
2301 57.0377 1.614700 539.00 546.39 23.00
2302 57.0581 1.614171 590.00 564.74 24.00
2303 57.0786 1.613640 602.00 589.63 25.00
2304 57.0990 1.613112 587.00 621.92 24.00
2305 57.1194 1.612584 683.00 661.53 26.00
2306 57.1398 1.612057 665.00 706.11 26.00
2307 57.1603 1.611528 708.00 750.05 27.00
2308 57.1807 1.611001 802.00 783.67 28.00
2309 57.2011 1.610475 808.00 798.51 28.00
2310 57.2216 1.609947 834.00 792.29 29.00
2311 57.2420 1.609422 763.00 773.19 28.00
2312 57.2624 1.608897 779.00 750.23 28.00
2313 57.2828 1.608373 781.00 731.73 28.00
2314 57.3033 1.607846 715.00 720.41 27.00
2315 57.3237 1.607322 673.00 713.89 26.00
2316 57.3441 1.606799 723.00 707.64 27.00
2317 57.3646 1.606274 696.00 697.20 26.00
2318 57.3850 1.605751 635.00 681.78 25.00
2319 57.4054 1.605229 658.00 664.46 26.00
2320 57.4258 1.604707 660.00 648.52 26.00
2321 57.4463 1.604183 661.00 637.48 26.00
2322 57.4667 1.603662 630.00 633.26 25.00
2323 57.4871 1.603142 622.00 635.47 25.00
2324 57.5075 1.602622 691.00 641.72 26.00
2325 57.5280 1.602099 602.00 646.04 25.00
2326 57.5484 1.601580 650.00 643.25 25.00
2327 57.5688 1.601061 645.00 631.48 25.00
2328 57.5893 1.600540 637.00 613.63 25.00
2329 57.6097 1.600022 579.00 593.79 24.00
2330 57.6301 1.599504 574.00 577.63 24.00
2331 57.6505 1.598986 555.00 565.55 24.00
2332 57.6710 1.598467 519.00 556.06 23.00
2333 57.6914 1.597950 529.00 546.64 23.00
2334 57.7118 1.597434 507.00 534.72 23.00
2335 57.7323 1.596915 501.00 519.93 22.00
2336 57.7527 1.596400 510.00 504.09 23.00
2337 57.7731 1.595885 492.00 488.33 22.00
2338 57.7935 1.595370 436.00 475.14 21.00
2339 57.8140 1.594853 481.00 463.31 22.00
2340 57.8344 1.594339 446.00 454.64 21.00
2341 57.8548 1.593826 431.00 448.03 21.00
2342 57.8753 1.593310 458.00 442.12 21.00
2343 57.8957 1.592797 445.00 438.45 21.00
2344 57.9161 1.592285 432.00 435.95 21.00
2345 57.9365 1.591772 411.00 434.37 20.00
2346 57.9570 1.591258 412.00 433.50 20.00
2347 57.9774 1.590747 425.00 433.17 21.00
2348 57.9978 1.590236 420.00 433.64 20.00
2349 58.0183 1.589723 430.00 434.76 21.00
2350 58.0387 1.589213 418.00 436.15 20.00
2351 58.0591 1.588703 450.00 438.85 21.00
2352 58.0795 1.588194 441.00 442.52 21.00
2353 58.1000 1.587682 405.00 447.21 20.00
2354 58.1204 1.587173 431.00 453.36 21.00
2355 58.1408 1.586665 446.00 461.42 21.00
2356 58.1613 1.586155 442.00 471.99 21.00
2357 58.1817 1.585647 488.00 485.67 22.00
2358 58.2021 1.585140 535.00 503.30 23.00
2359 58.2225 1.584633 504.00 525.72 22.00
2360 58.2430 1.584124 547.00 553.81 23.00
2361 58.2634 1.583618 586.00 587.23 24.00
2362 58.2838 1.583113 573.00 625.57 24.00
2363 58.3043 1.582605 671.00 665.95 26.00
2364 58.3247 1.582100 695.00 705.27 26.00
2365 58.3451 1.581595 712.00 742.55 27.00
2366 58.3655 1.581091 791.00 777.54 28.00
2367 58.3860 1.580585 817.00 808.62 29.00
2368 58.4064 1.580081 769.00 828.34 28.00
2369 58.4268 1.579578 838.00 831.48 29.00
2370 58.4473 1.579073 776.00 818.07 28.00
2371 58.4677 1.578571 827.00 794.65 29.00
2372 58.4881 1.578069 761.00 768.60 28.00
2373 58.5085 1.577567 704.00 745.03 27.00
2374 58.5290 1.577064 719.00 725.83 27.00
2375 58.5494 1.576563 723.00 710.14 27.00
2376 58.5698 1.576062 663.00 693.05 26.00
2377 58.5903 1.575560 652.00 671.66 26.00
2378 58.6107 1.575060 626.00 646.48 25.00
2379 58.6311 1.574561 601.00 621.07 25.00
2380 58.6515 1.574062 540.00 599.39 23.00
2381 58.6720 1.573561 593.00 583.59 24.00
2382 58.6924 1.573062 591.00 574.35 24.00
2383 58.7128 1.572564 616.00 570.88 25.00
2384 58.7333 1.572064 574.00 572.04 24.00
2385 58.7537 1.571567 601.00 575.69 25.00
2386 58.7741 1.571070 587.00 582.91 24.00
2387 58.7945 1.570574 584.00 590.58 24.00
2388 58.8150 1.570076 596.00 596.93 24.00
2389 58.8354 1.569580 551.00 600.84 23.00
2390 58.8558 1.569084 576.00 603.19 24.00
2391 58.8762 1.568589 560.00 606.41 24.00
2392 58.8967 1.568092 615.00 612.41 25.00
2393 58.9171 1.567598 608.00 620.72 25.00
2394 58.9375 1.567104 640.00 630.42 25.00
2395 58.9580 1.566608 591.00 637.32 24.00
2396 58.9784 1.566115 635.00 637.84 25.00
2397 58.9988 1.565622 640.00 630.20 25.00
2398 59.0192 1.565130 640.00 615.42 25.00
2399 59.0397 1.564635 645.00 597.08 25.00
2400 59.0601 1.564144 589.00 579.36 24.00
2401 59.0805 1.563652 585.00 564.45 24.00
2402 59.1010 1.563159 577.00 552.52 24.00
2403 59.1214 1.562668 533.00 542.14 23.00
2404 59.1418 1.562178 555.00 532.80 24.00
2405 59.1622 1.561688 507.00 523.22 23.00
2406 59.1827 1.561196 535.00 513.31 23.00
2407 59.2031 1.560707 521.00 504.15 23.00
2408 59.2235 1.560218 482.00 496.94 22.00
2409 59.2440 1.559727 483.00 492.39 22.00
2410 59.2644 1.559239 504.00 490.67 22.00
2411 59.2848 1.558751 430.00 491.06 21.00
2412 59.3052 1.558263 464.00 493.26 22.00
2413 59.3257 1.557774 483.00 496.40 22.00
2414 59.3461 1.557287 479.00 500.16 22.00
2415 59.3665 1.556801 452.00 504.51 21.00
2416 59.3870 1.556312 524.00 509.60 23.00
2417 59.4074 1.555827 480.00 515.69 22.00
2418 59.4278 1.555341 526.00 523.11 23.00
2419 59.4482 1.554856 497.00 531.82 22.00
2420 59.4687 1.554369 494.00 541.32 22.00
2421 59.4891 1.553885 539.00 550.26 23.00
2422 59.5095 1.553401 565.00 557.04 24.00
2423 59.5300 1.552915 562.00 560.51 24.00
2424 59.5504 1.552432 587.00 561.50 24.00
2425 59.5708 1.551949 585.00 562.56 24.00
2426 59.5912 1.551466 552.00 566.44 23.00
2427 59.6117 1.550982 584.00 574.98 24.00
2428 59.6321 1.550500 572.00 588.61 24.00
2429 59.6525 1.550019 586.00 606.30 24.00
2430 59.6730 1.549535 637.00 625.68 25.00
2431 59.6934 1.549054 693.00 643.38 26.00
2432 59.7138 1.548574 670.00 655.43 26.00
2433 59.7342 1.548094 652.00 661.94 26.00
2434 59.7547 1.547612 657.00 663.34 26.00
2435 59.7751 1.547132 650.00 659.88 25.00
2436 59.7955 1.546653 636.00 652.23 25.00
2437 59.8160 1.546172 584.00 642.65 24.00
2438 59.8364 1.545694 585.00 634.84 24.00
2439 59.8568 1.545216 597.00 629.50 24.00
2440 59.8772 1.544738 624.00 627.79 25.00
2441 59.8977 1.544258 624.00 629.80 25.00
2442 59.9181 1.543782 655.00 635.40 26.00
2443 59.9385 1.543305 646.00 643.67 25.00
2444 59.9590 1.542826 694.00 654.06 26.00
2445 59.9794 1.542350 686.00 664.93 26.00
2446 59.9998 1.541875 638.00 673.55 25.00
2447 60.0202 1.541399 672.00 675.15 26.00
2448 60.0407 1.540922 681.00 668.62 26.00
2449 60.0611 1.540448 627.00 654.00 25.00
2450 60.0815 1.539973 671.00 635.38 26.00
2451 60.1020 1.539497 606.00 617.40 25.00
2452 60.1224 1.539024 592.00 603.51 24.00
2453 60.1428 1.538550 553.00 594.45 24.00
2454 60.1632 1.538077 555.00 588.90 24.00
2455 60.1837 1.537603 588.00 583.62 24.00
2456 60.2041 1.537130 564.00 576.95 24.00
2457 60.2245 1.536659 608.00 567.46 25.00
2458 60.2449 1.536187 593.00 555.72 24.00
2459 60.2654 1.535714 519.00 543.15 23.00
2460 60.2858 1.535243 544.00 531.52 23.00
2461 60.3062 1.534772 496.00 522.57 22.00
2462 60.3267 1.534300 563.00 517.41 24.00
2463 60.3471 1.533830 513.00 516.22 23.00
2464 60.3675 1.533360 505.00 518.15 22.00
2465 60.3879 1.532891 464.00 520.88 22.00
2466 60.4084 1.532420 513.00 521.25 23.00
2467 60.4288 1.531952 514.00 516.62 23.00
2468 60.4492 1.531484 500.00 507.59 22.00
2469 60.4697 1.531013 534.00 495.98 23.00
2470 60.4901 1.530546 480.00 484.52 22.00
2471 60.5105 1.530079 468.00 474.79 22.00
2472 60.5309 1.529612 416.00 467.24 20.00
2473 60.5514 1.529143 444.00 461.84 21.00
2474 60.5718 1.528677 471.00 455.93 22.00
2475 60.5922 1.528211 441.00 449.27 21.00
2476 60.6127 1.527744 443.00 440.92 21.00
2477 60.6331 1.527279 425.00 432.38 21.00
2478 60.6535 1.526814 423.00 424.13 21.00
2479 60.6739 1.526349 434.00 417.14 21.00
2480 60.6944 1.525883 442.00 411.07 21.00
2481 60.7148 1.525419 417.00 406.31 20.00
2482 60.7352 1.524956 412.00 402.78 20.00
2483 60.7557 1.524490 423.00 400.38 21.00
2484 60.7761 1.524027 400.00 399.01 20.00
2485 60.7965 1.523565 417.00 398.41 20.00
2486 60.8169 1.523102 442.00 398.78 21.00
2487 60.8374 1.522638 416.00 399.68 20.00
2488 60.8578 1.522177 429.00 400.92 21.00
2489 60.8782 1.521716 430.00 402.36 21.00
2490 60.8987 1.521253 424.00 403.33 21.00
2491 60.9191 1.520792 428.00 404.04 21.00
2492 60.9395 1.520332 413.00 404.55 20.00
2493 60.9599 1.519872 387.00 405.46 20.00
2494 60.9804 1.519410 396.00 407.08 20.00
2495 61.0008 1.518951 421.00 409.58 21.00
2496 61.0212 1.518492 426.00 413.25 21.00
2497 61.0417 1.518031 428.00 418.12 21.00
2498 61.0621 1.517573 416.00 424.24 20.00
2499 61.0825 1.517115 452.00 431.91 21.00
2500 61.1029 1.516657 465.00 441.45 22.00
2501 61.1234 1.516198 485.00 453.43 22.00
2502 61.1438 1.515741 516.00 467.99 23.00
2503 61.1642 1.515284 477.00 484.85 22.00
2504 61.1847 1.514826 485.00 504.08 22.00
2505 61.2051 1.514370 503.00 524.51 22.00
2506 61.2255 1.513914 568.00 546.09 24.00
2507 61.2459 1.513459 579.00 569.66 24.00
2508 61.2664 1.513002 561.00 596.67 24.00
2509 61.2868 1.512547 636.00 626.98 25.00
2510 61.3072 1.512092 660.00 658.42 26.00
2511 61.3277 1.511636 703.00 686.16 27.00
2512 61.3481 1.511183 685.00 704.57 26.00
2513 61.3685 1.510729 727.00 712.17 27.00
2514 61.3889 1.510276 696.00 711.17 26.00
2515 61.4094 1.509821 702.00 706.03 26.00
2516 61.4298 1.509369 743.00 699.49 27.00
2517 61.4502 1.508917 691.00 692.69 26.00
2518 61.4706 1.508465 669.00 684.17 26.00
2519 61.4911 1.508011 708.00 672.24 27.00
2520 61.5115 1.507560 663.00 655.35 26.00
2521 61.5319 1.507109 655.00 633.55 26.00
2522 61.5524 1.506656 596.00 608.49 24.00
2523 61.5728 1.506206 557.00 583.22 24.00
2524 61.5932 1.505756 547.00 559.34 23.00
2525 61.6136 1.505307 513.00 537.54 23.00
2526 61.6341 1.504855 510.00 517.20 23.00
2527 61.6545 1.504406 539.00 498.75 23.00
2528 61.6749 1.503958 497.00 480.84 22.00
2529 61.6954 1.503507 522.00 465.04 23.00
2530 61.7158 1.503059 473.00 451.28 22.00
2531 61.7362 1.502612 474.00 439.83 22.00
2532 61.7566 1.502164 454.00 430.63 21.00
2533 61.7771 1.501715 427.00 423.48 21.00
2534 61.7975 1.501268 441.00 418.09 21.00
2535 61.8179 1.500822 459.00 413.92 21.00
2536 61.8384 1.500373 462.00 410.52 21.00
2537 61.8588 1.499928 420.00 407.36 20.00
2538 61.8792 1.499482 430.00 405.02 21.00
2539 61.8996 1.499037 481.00 403.44 22.00
2540 61.9201 1.498590 416.00 402.85 20.00
2541 61.9405 1.498145 431.00 403.57 21.00
2542 61.9609 1.497701 413.00 405.62 20.00
2543 61.9814 1.497255 470.00 409.09 22.00
2544 62.0018 1.496811 455.00 414.07 21.00
2545 62.0222 1.496368 443.00 420.71 21.00
2546 62.0426 1.495925 446.00 429.49 21.00
2547 62.0631 1.495480 472.00 440.66 22.00
2548 62.0835 1.495038 448.00 455.01 21.00
2549 62.1039 1.494596 450.00 471.91 21.00
2550 62.1244 1.494152 498.00 492.47 22.00
2551 62.1448 1.493710 514.00 515.74 23.00
2552 62.1652 1.493269 571.00 541.03 24.00
2553 62.1856 1.492828 560.00 565.60 24.00
2554 62.2061 1.492386 627.00 585.17 25.00
2555 62.2265 1.491946 560.00 595.41 24.00
2556 62.2469 1.491506 565.00 595.31 24.00
2557 62.2674 1.491064 580.00 588.07 24.00
2558 62.2878 1.490625 555.00 578.50 24.00
2559 62.3082 1.490185 537.00 570.54 23.00
2560 62.3286 1.489747 497.00 566.03 22.00
2561 62.3491 1.489306 541.00 564.61 23.00
2562 62.3695 1.488868 510.00 564.16 23.00
2563 62.3899 1.488431 554.00 562.74 24.00
2564 62.4104 1.487991 527.00 556.59 23.00
2565 62.4308 1.487554 508.00 546.14 23.00
2566 62.4512 1.487117 549.00 532.13 23.00
2567 62.4716 1.486680 510.00 515.72 23.00
2568 62.4921 1.486242 477.00 499.17 22.00
2569 62.5125 1.485806 459.00 482.17 21.00
2570 62.5329 1.485370 470.00 467.73 22.00
2571 62.5534 1.484933 439.00 454.44 21.00
2572 62.5738 1.484498 425.00 443.43 21.00
2573 62.5942 1.484063 435.00 434.35 21.00
2574 62.6146 1.483629 420.00 426.79 20.00
2575 62.6351 1.483192 417.00 419.27 20.00
2576 62.6555 1.482759 437.00 411.97 21.00
2577 62.6759 1.482325 417.00 404.36 20.00
2578 62.6964 1.481890 423.00 397.13 21.00
2579 62.7168 1.481457 391.00 390.49 20.00
2580 62.7372 1.481024 405.00 384.72 20.00
2581 62.7576 1.480592 370.00 379.86 19.00
2582 62.7781 1.480158 412.00 375.91 20.00
2583 62.7985 1.479726 380.00 372.80 19.00
2584 62.8189 1.479295 372.00 370.56 19.00
2585 62.8393 1.478863 351.00 368.80 19.00
2586 62.8598 1.478431 369.00 367.56 19.00
2587 62.8802 1.478000 378.00 366.75 19.00
2588 62.9006 1.477570 386.00 366.20 20.00
2589 62.9211 1.477138 392.00 366.19 20.00
2590 62.9415 1.476708 360.00 366.57 19.00
2591 62.9619 1.476279 377.00 367.41 19.00
2592 62.9823 1.475850 361.00 368.81 19.00
2593 63.0028 1.475419 353.00 371.59 19.00
2594 63.0232 1.474990 354.00 374.57 19.00
2595 63.0436 1.474562 406.00 378.14 20.00
2596 63.0641 1.474132 354.00 384.21 19.00
2597 63.0845 1.473705 390.00 391.56 20.00
2598 63.1049 1.473277 371.00 400.54 19.00
2599 63.1253 1.472850 434.00 411.48 21.00
2600 63.1458 1.472422 450.00 424.23 21.00
2601 63.1662 1.471995 457.00 438.70 21.00
2602 63.1866 1.471569 460.00 453.68 21.00
2603 63.2071 1.471141 474.00 466.91 22.00
2604 63.2275 1.470716 493.00 476.69 22.00
2605 63.2479 1.470291 503.00 480.81 22.00
2606 63.2683 1.469866 493.00 479.41 22.00
2607 63.2888 1.469439 480.00 474.46 22.00
2608 63.3092 1.469015 519.00 468.65 23.00
2609 63.3296 1.468591 463.00 463.85 22.00
2610 63.3501 1.468165 466.00 461.16 22.00
2611 63.3705 1.467741 485.00 460.31 22.00
2612 63.3909 1.467318 459.00 460.40 21.00
2613 63.4113 1.466895 486.00 460.20 22.00
2614 63.4318 1.466471 491.00 459.08 22.00
2615 63.4522 1.466048 446.00 457.48 21.00
2616 63.4726 1.465626 494.00 456.64 22.00
2617 63.4931 1.465203 480.00 457.98 22.00
2618 63.5135 1.464781 474.00 462.58 22.00
2619 63.5339 1.464360 493.00 471.16 22.00
2620 63.5543 1.463939 527.00 484.02 23.00
2621 63.5748 1.463517 500.00 501.39 22.00
2622 63.5952 1.463096 508.00 522.98 23.00
2623 63.6156 1.462676 563.00 547.89 24.00
2624 63.6361 1.462255 564.00 575.09 24.00
2625 63.6565 1.461835 631.00 601.83 25.00
2626 63.6769 1.461416 676.00 624.41 26.00
2627 63.6973 1.460997 602.00 638.64 25.00
2628 63.7178 1.460577 555.00 642.22 24.00
2629 63.7382 1.460158 641.00 636.75 25.00
2630 63.7586 1.459741 620.00 626.32 25.00
2631 63.7791 1.459321 634.00 615.80 25.00
2632 63.7995 1.458903 607.00 608.50 25.00
2633 63.8199 1.458486 603.00 605.53 25.00
2634 63.8403 1.458069 612.00 606.47 25.00
2635 63.8608 1.457651 610.00 609.76 25.00
2636 63.8812 1.457234 592.00 613.69 24.00
2637 63.9016 1.456818 665.00 618.01 26.00
2638 63.9221 1.456401 557.00 624.50 24.00
2639 63.9425 1.455985 597.00 635.45 24.00
2640 63.9629 1.455570 652.00 654.91 26.00
2641 63.9833 1.455155 653.00 684.23 26.00
2642 64.0038 1.454739 730.00 724.35 27.00
2643 64.0242 1.454325 815.00 774.08 29.00
2644 64.0446 1.453910 826.00 830.39 29.00
2645 64.0650 1.453497 891.00 887.50 30.00
2646 64.0855 1.453081 939.00 938.19 31.00
2647 64.1059 1.452668 994.00 976.32 32.00
2648 64.1263 1.452255 1009.00 1000.53 32.00
2649 64.1468 1.451841 1002.00 1014.62 32.00
2650 64.1672 1.451428 1038.00 1022.88 32.00
2651 64.1876 1.451016 1019.00 1028.23 32.00
2652 64.2080 1.450605 1080.00 1029.98 33.00
2653 64.2285 1.450191 1051.00 1025.28 32.00
2654 64.2489 1.449780 1029.00 1012.13 32.00
2655 64.2693 1.449369 1073.00 989.68 33.00
2656 64.2898 1.448956 1067.00 958.12 33.00
2657 64.3102 1.448546 988.00 919.58 31.00
2658 64.3306 1.448136 897.00 877.54 30.00
2659 64.3510 1.447726 808.00 835.85 28.00
2660 64.3715 1.447315 764.00 796.61 28.00
2661 64.3919 1.446905 776.00 760.75 28.00
2662 64.4123 1.446496 716.00 727.66 27.00
2663 64.4328 1.446086 711.00 697.91 27.00
2664 64.4532 1.445677 700.00 673.01 26.00
2665 64.4736 1.445269 638.00 653.92 25.00
2666 64.4940 1.444861 662.00 641.43 26.00
2667 64.5145 1.444452 615.00 636.23 25.00
2668 64.5349 1.444044 639.00 638.68 25.00
2669 64.5553 1.443637 705.00 648.11 27.00
2670 64.5758 1.443229 647.00 662.55 25.00
2671 64.5962 1.442822 696.00 678.32 26.00
2672 64.6166 1.442416 685.00 691.52 26.00
2673 64.6370 1.442010 729.00 699.43 27.00
2674 64.6575 1.441602 675.00 701.32 26.00
2675 64.6779 1.441197 692.00 697.54 26.00
2676 64.6983 1.440792 639.00 688.90 25.00
2677 64.7188 1.440385 692.00 676.53 26.00
2678 64.7392 1.439981 649.00 661.95 25.00
2679 64.7596 1.439576 648.00 646.78 25.00
2680 64.7800 1.439172 609.00 631.17 25.00
2681 64.8005 1.438767 554.00 614.35 24.00
2682 64.8209 1.438363 619.00 596.06 25.00
2683 64.8413 1.437960 562.00 576.57 24.00
2684 64.8618 1.437555 594.00 555.81 24.00
2685 64.8822 1.437152 583.00 534.33 24.00
2686 64.9026 1.436750 502.00 512.48 22.00
2687 64.9230 1.436348 524.00 491.08 23.00
2688 64.9435 1.435944 460.00 470.93 21.00
2689 64.9639 1.435543 429.00 452.78 21.00
2690 64.9843 1.435141 376.00 436.66 19.00
2691 65.0048 1.434738 454.00 422.69 21.00
2692 65.0252 1.434337 443.00 411.28 21.00
2693 65.0456 1.433937 395.00 402.07 20.00
2694 65.0660 1.433537 452.00 394.88 21.00
2695 65.0865 1.433135 416.00 389.46 20.00
2696 65.1069 1.432735 407.00 385.63 20.00
2697 65.1273 1.432336 393.00 383.13 20.00
2698 65.1478 1.431935 430.00 381.71 21.00
2699 65.1682 1.431536 392.00 381.12 20.00
2700 65.1886 1.431137 403.00 381.29 20.00
2701 65.2090 1.430739 424.00 382.36 21.00
2702 65.2295 1.430339 379.00 384.30 19.00
2703 65.2499 1.429941 420.00 387.23 20.00
2704 65.2703 1.429544 411.00 391.40 20.00
2705 65.2908 1.429144 419.00 396.61 20.00
2706 65.3112 1.428747 419.00 402.65 20.00
2707 65.3316 1.428351 428.00 408.95 21.00
2708 65.3520 1.427954 423.00 414.40 21.00
2709 65.3725 1.427556 433.00 417.96 21.00
2710 65.3929 1.427160 441.00 419.23 21.00
2711 65.4133 1.426764 446.00 418.70 21.00
2712 65.4337 1.426369 439.00 417.32 21.00
2713 65.4542 1.425972 421.00 416.08 21.00
2714 65.4746 1.425577 408.00 417.83 20.00
2715 65.4950 1.425182 429.00 416.92 21.00
2716 65.5155 1.424786 459.00 416.70 21.00
2717 65.5359 1.424392 435.00 413.99 21.00
2718 65.5563 1.423998 424.00 409.68 21.00
2719 65.5767 1.423605 401.00 404.13 20.00
2720 65.5972 1.423209 436.00 398.08 21.00
2721 65.6176 1.422817 397.00 392.19 20.00
2722 65.6380 1.422424 423.00 386.95 21.00
2723 65.6585 1.422029 362.00 382.11 19.00
2724 65.6789 1.421637 384.00 378.09 20.00
2725 65.6993 1.421245 426.00 374.35 21.00
2726 65.7197 1.420853 395.00 370.73 20.00
2727 65.7402 1.420460 439.00 367.42 21.00
2728 65.7606 1.420069 388.00 364.57 20.00
2729 65.7810 1.419678 386.00 362.45 20.00
2730 65.8015 1.419285 365.00 361.19 19.00
2731 65.8219 1.418895 371.00 360.90 19.00
2732 65.8423 1.418505 365.00 361.65 19.00
2733 65.8627 1.418115 367.00 363.51 19.00
2734 65.8832 1.417723 430.00 365.83 21.00
2735 65.9036 1.417334 390.00 370.19 20.00
2736 65.9240 1.416945 408.00 375.41 20.00
2737 65.9445 1.416554 388.00 382.37 20.00
2738 65.9649 1.416165 381.00 390.32 20.00
2739 65.9853 1.415777 409.00 398.70 20.00
2740 66.0057 1.415389 417.00 405.87 20.00
2741 66.0262 1.414999 460.00 411.92 21.00
2742 66.0466 1.414611 416.00 414.86 20.00
2743 66.0670 1.414224 414.00 414.28 20.00
2744 66.0875 1.413835 408.00 411.59 20.00
2745 66.1079 1.413448 406.00 408.11 20.00
2746 66.1283 1.413062 416.00 405.35 20.00
2747 66.1487 1.412676 409.00 403.90 20.00
2748 66.1692 1.412288 385.00 403.87 20.00
2749 66.1896 1.411902 420.00 404.64 20.00
2750 66.2100 1.411516 436.00 406.42 21.00
2751 66.2305 1.411129 427.00 408.08 21.00
2752 66.2509 1.410744 428.00 409.52 21.00
2753 66.2713 1.410359 418.00 410.94 20.00
2754 66.2917 1.409975 483.00 413.18 22.00
2755 66.3122 1.409589 424.00 416.37 21.00
2756 66.3326 1.409205 440.00 420.61 21.00
2757 66.3530 1.408821 450.00 425.59 21.00
2758 66.3735 1.408436 417.00 430.86 20.00
2759 66.3939 1.408052 443.00 436.01 21.00
2760 66.4143 1.407669 448.00 440.96 21.00
2761 66.4347 1.407287 445.00 446.08 21.00
2762 66.4552 1.406902 450.00 452.27 21.00
2763 66.4756 1.406520 406.00 458.80 20.00
2764 66.4960 1.406138 448.00 464.34 21.00
2765 66.5165 1.405755 472.00 468.27 22.00
2766 66.5369 1.405373 415.00 469.19 20.00
2767 66.5573 1.404992 452.00 467.21 21.00
2768 66.5777 1.404611 461.00 463.31 21.00
2769 66.5982 1.404228 460.00 458.67 21.00
2770 66.6186 1.403848 451.00 454.63 21.00
2771 66.6390 1.403468 445.00 451.55 21.00
2772 66.6594 1.403088 455.00 449.45 21.00
2773 66.6799 1.402706 439.00 447.66 21.00
2774 66.7003 1.402327 452.00 445.94 21.00
2775 66.7207 1.401947 439.00 443.76 21.00
2776 66.7412 1.401567 436.00 441.43 21.00
2777 66.7616 1.401188 473.00 439.39 22.00
2778 66.7820 1.400810 472.00 438.43 22.00
2779 66.8024 1.400432 455.00 439.17 21.00
2780 66.8229 1.400052 458.00 441.89 21.00
2781 66.8433 1.399674 440.00 446.73 21.00
2782 66.8637 1.399296 489.00 453.83 22.00
2783 66.8842 1.398917 477.00 463.41 22.00
2784 66.9046 1.398540 499.00 475.81 22.00
2785 66.9250 1.398164 515.00 491.15 23.00
2786 66.9454 1.397787 543.00 510.02 23.00
2787 66.9659 1.397409 515.00 533.20 23.00
2788 66.9863 1.397033 587.00 561.60 24.00
2789 67.0067 1.396657 591.00 596.74 24.00
2790 67.0272 1.396280 615.00 642.21 25.00
2791 67.0476 1.395905 686.00 697.62 26.00
2792 67.0680 1.395530 756.00 765.44 27.00
2793 67.0884 1.395155 846.00 847.94 29.00
2794 67.1089 1.394779 957.00 946.16 31.00
2795 67.1293 1.394405 1093.00 1057.64 33.00
2796 67.1497 1.394031 1160.00 1177.78 34.00
2797 67.1702 1.393655 1379.00 1297.33 37.00
2798 67.1906 1.393281 1488.00 1398.05 39.00
2799 67.2110 1.392908 1482.00 1463.12 38.00
2800 67.2314 1.392535 1566.00 1481.67 40.00
2801 67.2519 1.392161 1544.00 1456.07 39.00
2802 67.2723 1.391788 1346.00 1401.69 37.00
2803 67.2927 1.391416 1376.00 1337.24 37.00
2804 67.3132 1.391042 1286.00 1277.14 36.00
2805 67.3336 1.390670 1183.00 1229.45 34.00
2806 67.3540 1.390299 1181.00 1194.19 34.00
2807 67.3744 1.389927 1135.00 1164.85 34.00
2808 67.3949 1.389554 1150.00 1131.62 34.00
2809 67.4153 1.389184 1120.00 1086.68 33.00
2810 67.4357 1.388813 1033.00 1025.67 32.00
2811 67.4562 1.388441 948.00 952.66 31.00
2812 67.4766 1.388071 828.00 875.86 29.00
2813 67.4970 1.387701 755.00 801.75 27.00
2814 67.5174 1.387331 703.00 735.10 27.00
2815 67.5379 1.386960 693.00 677.00 26.00
2816 67.5583 1.386591 584.00 628.95 24.00
2817 67.5787 1.386222 519.00 589.44 23.00
2818 67.5992 1.385851 547.00 557.05 23.00
2819 67.6196 1.385483 498.00 530.68 22.00
2820 67.6400 1.385115 493.00 508.71 22.00
2821 67.6604 1.384747 473.00 490.04 22.00
2822 67.6809 1.384377 456.00 474.00 21.00
2823 67.7013 1.384010 428.00 460.50 21.00
2824 67.7217 1.383643 425.00 449.35 21.00
2825 67.7422 1.383274 422.00 440.37 21.00
2826 67.7626 1.382907 410.00 433.50 20.00
2827 67.7830 1.382541 382.00 428.49 20.00
2828 67.8034 1.382174 408.00 424.96 20.00
2829 67.8239 1.381806 429.00 422.63 21.00
2830 67.8443 1.381441 400.00 421.23 20.00
2831 67.8647 1.381075 372.00 420.57 19.00
2832 67.8852 1.380708 430.00 420.51 21.00
2833 67.9056 1.380343 391.00 420.64 20.00
2834 67.9260 1.379978 406.00 421.10 20.00
2835 67.9464 1.379613 404.00 421.41 20.00
2836 67.9669 1.379247 401.00 421.42 20.00
2837 67.9873 1.378883 358.00 421.08 19.00
2838 68.0077 1.378519 375.00 420.21 19.00
2839 68.0281 1.378156 374.00 419.00 19.00
2840 68.0486 1.377790 423.00 417.29 21.00
2841 68.0690 1.377427 434.00 415.65 21.00
2842 68.0894 1.377064 375.00 414.35 19.00
2843 68.1099 1.376700 399.00 413.75 20.00
2844 68.1303 1.376337 399.00 413.75 20.00
2845 68.1507 1.375975 419.00 414.24 20.00
2846 68.1711 1.375613 395.00 415.03 20.00
2847 68.1916 1.375250 428.00 416.00 21.00
2848 68.2120 1.374888 386.00 417.20 20.00
2849 68.2324 1.374527 418.00 418.49 20.00
2850 68.2529 1.374164 401.00 420.31 20.00
2851 68.2733 1.373803 427.00 423.18 21.00
2852 68.2937 1.373442 441.00 427.22 21.00
2853 68.3141 1.373082 417.00 432.37 20.00
2854 68.3346 1.372720 411.00 438.40 20.00
2855 68.3550 1.372360 457.00 444.91 21.00
2856 68.3754 1.372000 444.00 451.81 21.00
2857 68.3959 1.371639 466.00 458.86 22.00
2858 68.4163 1.371280 442.00 466.21 21.00
2859 68.4367 1.370921 462.00 473.48 21.00
2860 68.4571 1.370562 445.00 480.12 21.00
2861 68.4776 1.370202 509.00 485.95 23.00
2862 68.4980 1.369844 494.00 491.01 22.00
2863 68.5184 1.369485 460.00 496.35 21.00
2864 68.5389 1.369126 490.00 503.25 22.00
2865 68.5593 1.368768 470.00 512.98 22.00
2866 68.5797 1.368411 492.00 526.41 22.00
2867 68.6001 1.368054 534.00 544.60 23.00
2868 68.6206 1.367695 573.00 568.03 24.00
2869 68.6410 1.367339 607.00 596.51 25.00
2870 68.6614 1.366982 612.00 629.87 25.00
2871 68.6819 1.366624 677.00 667.87 26.00
2872 68.7023 1.366268 703.00 709.37 27.00
2873 68.7227 1.365912 735.00 752.95 27.00
2874 68.7431 1.365557 793.00 795.63 28.00
2875 68.7636 1.365200 818.00 832.91 29.00
2876 68.7840 1.364845 866.00 858.60 29.00
2877 68.8044 1.364490 850.00 868.53 29.00
2878 68.8249 1.364134 801.00 862.56 28.00
2879 68.8453 1.363779 837.00 845.39 29.00
2880 68.8657 1.363425 760.00 824.01 28.00
2881 68.8861 1.363071 802.00 804.46 28.00
2882 68.9066 1.362716 823.00 790.33 29.00
2883 68.9270 1.362362 766.00 783.03 28.00
2884 68.9474 1.362009 784.00 781.56 28.00
2885 68.9679 1.361654 712.00 783.44 27.00
2886 68.9883 1.361301 736.00 785.62 27.00
2887 69.0087 1.360949 785.00 786.07 28.00
2888 69.0291 1.360596 798.00 784.67 28.00
2889 69.0496 1.360243 767.00 782.57 28.00
2890 69.0700 1.359891 781.00 781.28 28.00
2891 69.0904 1.359539 825.00 778.82 29.00
2892 69.1109 1.359186 757.00 771.97 28.00
2893 69.1313 1.358835 771.00 765.35 28.00
2894 69.1517 1.358483 787.00 757.92 28.00
2895 69.1721 1.358133 763.00 752.88 28.00
2896 69.1926 1.357781 724.00 752.64 27.00
2897 69.2130 1.357430 749.00 758.28 27.00
2898 69.2334 1.357080 725.00 768.81 27.00
2899 69.2538 1.356730 835.00 781.01 29.00
2900 69.2743 1.356379 846.00 790.27 29.00
2901 69.2947 1.356029 830.00 791.78 29.00
2902 69.3151 1.355680 847.00 781.62 29.00
2903 69.3356 1.355330 784.00 762.81 28.00
2904 69.3560 1.354981 737.00 736.92 27.00
2905 69.3764 1.354632 682.00 707.83 26.00
2906 69.3968 1.354284 646.00 679.05 25.00
2907 69.4173 1.353934 621.00 652.82 25.00
2908 69.4377 1.353586 638.00 630.15 25.00
2909 69.4581 1.353239 611.00 610.17 25.00
2910 69.4786 1.352890 581.00 591.28 24.00
2911 69.4990 1.352542 588.00 572.27 24.00
2912 69.5194 1.352195 532.00 552.39 23.00
2913 69.5398 1.351848 514.00 531.85 23.00
2914 69.5603 1.351500 497.00 511.10 22.00
2915 69.5807 1.351154 511.00 491.34 23.00
2916 69.6011 1.350808 424.00 473.26 21.00
2917 69.6216 1.350460 450.00 457.39 21.00
2918 69.6420 1.350115 461.00 444.23 21.00
2919 69.6624 1.349769 401.00 433.71 20.00
2920 69.6828 1.349424 461.00 425.66 21.00
2921 69.7033 1.349077 380.00 419.77 19.00
2922 69.7237 1.348732 407.00 415.61 20.00
2923 69.7441 1.348388 417.00 412.67 20.00
2924 69.7646 1.348042 399.00 410.79 20.00
2925 69.7850 1.347698 394.00 409.31 20.00
2926 69.8054 1.347354 396.00 408.07 20.00
2927 69.8258 1.347010 421.00 407.60 21.00
2928 69.8463 1.346665 372.00 408.00 19.00
2929 69.8667 1.346322 412.00 409.76 20.00
2930 69.8871 1.345979 438.00 412.96 21.00
2931 69.9076 1.345634 439.00 417.55 21.00
2932 69.9280 1.345292 424.00 423.18 21.00
2933 69.9484 1.344949 442.00 429.20 21.00
2934 69.9688 1.344607 433.00 434.72 21.00
2935 69.9893 1.344263 474.00 438.79 22.00
2936 70.0097 1.343922 447.00 440.70 21.00
2937 70.0301 1.343580 435.00 440.61 21.00
2938 70.0506 1.343237 409.00 439.27 20.00
2939 70.0710 1.342896 423.00 437.86 21.00
2940 70.0914 1.342555 455.00 437.26 21.00
2941 70.1118 1.342215 431.00 437.86 21.00
2942 70.1323 1.341873 406.00 439.55 20.00
2943 70.1527 1.341532 404.00 441.76 20.00
2944 70.1731 1.341192 437.00 443.71 21.00
2945 70.1936 1.340851 407.00 444.69 20.00
2946 70.2140 1.340511 413.00 444.30 20.00
2947 70.2344 1.340172 436.00 442.58 21.00
2948 70.2548 1.339833 426.00 439.80 21.00
2949 70.2753 1.339492 414.00 436.23 20.00
2950 70.2957 1.339154 382.00 432.07 20.00
2951 70.3161 1.338815 377.00 427.70 19.00
2952 70.3366 1.338475 405.00 423.23 20.00
2953 70.3570 1.338137 432.00 418.93 21.00
2954 70.3774 1.337799 413.00 414.95 20.00
2955 70.3978 1.337461 382.00 411.37 20.00
2956 70.4183 1.337122 359.00 408.14 19.00
2957 70.4387 1.336785 374.00 405.63 19.00
2958 70.4591 1.336448 394.00 403.88 20.00
2959 70.4796 1.336110 402.00 402.02 20.00
2960 70.5000 1.335773 395.00 399.85 20.00
2961 70.5204 1.335437 407.00 397.56 20.00
2962 70.5408 1.335101 399.00 395.41 20.00
2963 70.5613 1.334763 382.00 393.49 20.00
2964 70.5817 1.334427 416.00 392.21 20.00
2965 70.6021 1.334092 425.00 391.71 21.00
2966 70.6225 1.333756 401.00 392.05 20.00
2967 70.6430 1.333420 380.00 393.37 19.00
2968 70.6634 1.333085 421.00 395.57 21.00
2969 70.6838 1.332750 405.00 398.69 20.00
2970 70.7043 1.332414 385.00 403.06 20.00
2971 70.7247 1.332080 402.00 408.94 20.00
2972 70.7451 1.331746 388.00 415.70 20.00
2973 70.7655 1.331412 451.00 426.03 21.00
2974 70.7860 1.331076 422.00 439.17 21.00
2975 70.8064 1.330743 506.00 455.10 22.00
2976 70.8268 1.330410 495.00 473.74 22.00
2977 70.8473 1.330075 480.00 495.41 22.00
2978 70.8677 1.329742 505.00 517.05 22.00
2979 70.8881 1.329410 507.00 538.19 23.00
2980 70.9085 1.329077 524.00 554.56 23.00
2981 70.9290 1.328744 531.00 564.17 23.00
2982 70.9494 1.328412 541.00 564.98 23.00
2983 70.9698 1.328080 542.00 559.29 23.00
2984 70.9903 1.327747 506.00 548.61 22.00
2985 71.0107 1.327415 529.00 536.40 23.00
2986 71.0311 1.327084 438.00 525.04 21.00
2987 71.0515 1.326753 534.00 515.84 23.00
2988 71.0720 1.326421 534.00 508.38 23.00
2989 71.0924 1.326091 510.00 503.18 23.00
2990 71.1128 1.325760 461.00 497.98 21.00
2991 71.1333 1.325429 476.00 491.27 22.00
2992 71.1537 1.325099 482.00 482.14 22.00
2993 71.1741 1.324769 479.00 470.72 22.00
2994 71.1945 1.324440 467.00 458.50 22.00
2995 71.2150 1.324109 453.00 445.55 21.00
2996 71.2354 1.323780 455.00 433.51 21.00
2997 71.2558 1.323451 418.00 422.35 20.00
2998 71.2763 1.323120 445.00 413.08 21.00
2999 71.2967 1.322792 406.00 405.87 20.00
3000 71.3171 1.322464 450.00 400.25 21.00
3001 71.3375 1.322136 437.00 396.57 21.00
3002 71.3580 1.321806 401.00 394.84 20.00
3003 71.3784 1.321479 410.00 394.48 20.00
3004 71.3988 1.321151 458.00 396.26 21.00
3005 71.4193 1.320823 399.00 399.08 20.00
3006 71.4397 1.320496 415.00 403.52 20.00
3007 71.4601 1.320169 490.00 409.73 22.00
3008 71.4805 1.319842 496.00 417.75 22.00
3009 71.5010 1.319514 467.00 427.55 22.00
3010 71.5214 1.319188 470.00 438.84 22.00
3011 71.5418 1.318862 457.00 451.46 21.00
3012 71.5623 1.318534 494.00 464.62 22.00
3013 71.5827 1.318209 464.00 476.99 22.00
3014 71.6031 1.317883 523.00 487.20 23.00
3015 71.6235 1.317558 497.00 493.95 22.00
3016 71.6440 1.317232 531.00 496.72 23.00
3017 71.6644 1.316907 527.00 496.34 23.00
3018 71.6848 1.316582 509.00 493.29 23.00
3019 71.7053 1.316257 530.00 489.31 23.00
3020 71.7257 1.315932 482.00 485.97 22.00
3021 71.7461 1.315608 490.00 483.81 22.00
3022 71.7665 1.315285 455.00 482.01 21.00
3023 71.7870 1.314959 477.00 480.87 22.00
3024 71.8074 1.314636 488.00 479.10 22.00
3025 71.8278 1.314313 484.00 476.02 22.00
3026 71.8482 1.313990 437.00 471.23 21.00
3027 71.8687 1.313666 461.00 464.77 21.00
3028 71.8891 1.313343 439.00 457.33 21.00
3029 71.9095 1.313021 468.00 449.69 22.00
3030 71.9300 1.312697 455.00 442.43 21.00
3031 71.9504 1.312375 445.00 436.02 21.00
3032 71.9708 1.312053 415.00 430.60 20.00
3033 71.9912 1.311732 429.00 426.08 21.00
3034 72.0117 1.311409 406.00 422.22 20.00
3035 72.0321 1.311088 422.00 419.42 21.00
3036 72.0525 1.310767 423.00 417.52 21.00
3037 72.0730 1.310444 394.00 416.67 20.00
3038 72.0934 1.310124 374.00 417.04 19.00
3039 72.1138 1.309803 386.00 418.88 20.00
3040 72.1342 1.309483 409.00 422.01 20.00
3041 72.1547 1.309162 414.00 426.56 20.00
3042 72.1751 1.308842 418.00 432.33 20.00
3043 72.1955 1.308522 417.00 439.36 20.00
3044 72.2160 1.308201 441.00 447.66 21.00
3045 72.2364 1.307882 434.00 457.43 21.00
3046 72.2568 1.307563 454.00 468.65 21.00
3047 72.2772 1.307244 457.00 481.11 21.00
3048 72.2977 1.306924 473.00 494.14 22.00
3049 72.3181 1.306606 488.00 506.76 22.00
3050 72.3385 1.306288 544.00 517.16 23.00
3051 72.3590 1.305968 467.00 524.17 22.00
3052 72.3794 1.305650 486.00 527.29 22.00
3053 72.3998 1.305333 545.00 527.53 23.00
3054 72.4202 1.305015 541.00 526.48 23.00
3055 72.4407 1.304697 536.00 525.90 23.00
3056 72.4611 1.304379 565.00 527.10 24.00
3057 72.4815 1.304063 569.00 530.80 24.00
3058 72.5020 1.303744 588.00 537.08 24.00
3059 72.5224 1.303428 528.00 545.41 23.00
3060 72.5428 1.303112 549.00 554.97 23.00
3061 72.5632 1.302796 572.00 564.90 24.00
3062 72.5837 1.302478 573.00 575.04 24.00
3063 72.6041 1.302163 602.00 586.15 25.00
3064 72.6245 1.301847 623.00 599.28 25.00
3065 72.6450 1.301530 637.00 616.04 25.00
3066 72.6654 1.301215 629.00 637.10 25.00
3067 72.6858 1.300900 727.00 662.47 27.00
3068 72.7062 1.300586 744.00 690.96 27.00
3069 72.7267 1.300270 809.00 720.26 28.00
3070 72.7471 1.299955 812.00 746.78 28.00
3071 72.7675 1.299641 833.00 767.48 29.00
3072 72.7880 1.299326 823.00 780.69 29.00
3073 72.8084 1.299012 786.00 786.83 28.00
3074 72.8288 1.298699 871.00 787.07 30.00
3075 72.8492 1.298385 806.00 783.01 28.00
3076 72.8697 1.298071 755.00 775.85 27.00
3077 72.8901 1.297758 798.00 766.71 28.00
3078 72.9105 1.297445 743.00 758.54 27.00
3079 72.9310 1.297131 792.00 749.08 28.00
3080 72.9514 1.296818 698.00 740.30 26.00
3081 72.9718 1.296506 769.00 731.12 28.00
3082 72.9922 1.296194 772.00 722.21 28.00
3083 73.0127 1.295881 745.00 713.03 27.00
3084 73.0331 1.295570 751.00 704.40 27.00
3085 73.0535 1.295258 742.00 696.61 27.00
3086 73.0740 1.294945 721.00 690.08 27.00
3087 73.0944 1.294634 709.00 685.26 27.00
3088 73.1148 1.294323 731.00 682.93 27.00
3089 73.1352 1.294013 710.00 684.09 27.00
3090 73.1557 1.293701 749.00 690.31 27.00
3091 73.1761 1.293391 789.00 701.16 28.00
3092 73.1965 1.293080 782.00 715.53 28.00
3093 73.2169 1.292771 794.00 732.31 28.00
3094 73.2374 1.292459 841.00 749.59 29.00
3095 73.2578 1.292150 892.00 764.65 30.00
3096 73.2782 1.291840 804.00 776.74 28.00
3097 73.2987 1.291530 921.00 785.86 30.00
3098 73.3191 1.291221 858.00 792.50 29.00
3099 73.3395 1.290912 818.00 796.41 29.00
3100 73.3599 1.290604 824.00 797.25 29.00
3101 73.3804 1.290294 834.00 794.74 29.00
3102 73.4008 1.289986 796.00 789.58 28.00
3103 73.4212 1.289678 808.00 783.22 28.00
3104 73.4417 1.289368 804.00 777.34 28.00
3105 73.4621 1.289061 798.00 773.22 28.00
3106 73.4825 1.288753 749.00 771.90 27.00
3107 73.5029 1.288446 781.00 774.27 28.00
3108 73.5234 1.288137 823.00 780.89 29.00
3109 73.5438 1.287830 798.00 791.61 28.00
3110 73.5642 1.287524 803.00 805.38 28.00
3111 73.5847 1.287216 839.00 820.46 29.00
3112 73.6051 1.286909 791.00 834.38 28.00
3113 73.6255 1.286603 754.00 845.03 27.00
3114 73.6459 1.286297 797.00 850.37 28.00
3115 73.6664 1.285990 768.00 848.99 28.00
3116 73.6868 1.285685 796.00 840.07 28.00
3117 73.7072 1.285379 839.00 824.50 29.00
3118 73.7277 1.285073 707.00 803.48 27.00
3119 73.7481 1.284768 727.00 779.64 27.00
3120 73.7685 1.284463 759.00 755.76 28.00
3121 73.7889 1.284158 697.00 733.84 26.00
3122 73.8094 1.283852 696.00 714.71 26.00
3123 73.8298 1.283548 658.00 698.26 26.00
3124 73.8502 1.283244 633.00 683.30 25.00
3125 73.8707 1.282938 638.00 668.38 25.00
3126 73.8911 1.282635 615.00 652.41 25.00
3127 73.9115 1.282331 594.00 634.84 24.00
3128 73.9319 1.282028 531.00 615.53 23.00
3129 73.9524 1.281723 548.00 594.86 23.00
3130 73.9728 1.281420 553.00 574.10 24.00
3131 73.9932 1.281117 517.00 554.17 23.00
3132 74.0137 1.280813 533.00 535.76 23.00
3133 74.0341 1.280511 461.00 519.57 21.00
3134 74.0545 1.280209 464.00 505.57 22.00
3135 74.0749 1.279907 483.00 494.05 22.00
3136 74.0954 1.279603 484.00 484.91 22.00
3137 74.1158 1.279302 438.00 478.44 21.00
3138 74.1362 1.279000 416.00 474.36 20.00
3139 74.1567 1.278697 442.00 472.61 21.00
3140 74.1771 1.278396 433.00 472.82 21.00
3141 74.1975 1.278095 473.00 475.01 22.00
3142 74.2179 1.277794 451.00 477.23 21.00
3143 74.2384 1.277492 474.00 479.11 22.00
3144 74.2588 1.277192 471.00 479.68 22.00
3145 74.2792 1.276892 476.00 478.35 22.00
3146 74.2997 1.276590 444.00 475.23 21.00
3147 74.3201 1.276290 439.00 470.97 21.00
3148 74.3405 1.275991 446.00 466.44 21.00
3149 74.3609 1.275691 457.00 462.72 21.00
3150 74.3814 1.275390 440.00 459.73 21.00
3151 74.4018 1.275091 464.00 458.02 22.00
3152 74.4222 1.274792 464.00 457.54 22.00
3153 74.4426 1.274494 500.00 458.22 22.00
3154 74.4631 1.274194 462.00 459.35 21.00
3155 74.4835 1.273895 438.00 460.77 21.00
3156 74.5039 1.273597 462.00 462.58 21.00
3157 74.5244 1.273297 449.00 464.84 21.00
3158 74.5448 1.272999 404.00 468.20 20.00
3159 74.5652 1.272702 504.00 473.38 22.00
3160 74.5856 1.272404 498.00 480.88 22.00
3161 74.6061 1.272105 485.00 491.39 22.00
3162 74.6265 1.271808 463.00 505.32 22.00
3163 74.6469 1.271511 522.00 523.13 23.00
3164 74.6674 1.271213 536.00 545.21 23.00
3165 74.6878 1.270916 530.00 571.62 23.00
3166 74.7082 1.270620 602.00 602.24 25.00
3167 74.7286 1.270324 619.00 636.70 25.00
3168 74.7491 1.270026 668.00 673.86 26.00
3169 74.7695 1.269730 706.00 712.14 27.00
3170 74.7899 1.269435 686.00 750.17 26.00
3171 74.8104 1.269138 744.00 786.52 27.00
3172 74.8308 1.268842 802.00 819.08 28.00
3173 74.8512 1.268547 764.00 846.14 28.00
3174 74.8716 1.268252 795.00 865.48 28.00
3175 74.8921 1.267956 823.00 877.92 29.00
3176 74.9125 1.267661 857.00 884.18 29.00
3177 74.9329 1.267367 933.00 887.42 31.00
3178 74.9534 1.267071 933.00 890.73 31.00
3179 74.9738 1.266777 997.00 896.02 32.00
3180 74.9942 1.266483 964.00 904.21 31.00
3181 75.0146 1.266189 937.00 915.32 31.00
3182 75.0351 1.265894 906.00 928.68 30.00
3183 75.0555 1.265601 902.00 943.49 30.00
3184 75.0759 1.265307 952.00 958.30 31.00
3185 75.0964 1.265013 886.00 970.64 30.00
3186 75.1168 1.264720 959.00 978.82 31.00
3187 75.1372 1.264427 969.00 980.62 31.00
3188 75.1576 1.264135 993.00 974.99 32.00
3189 75.1781 1.263841 983.00 961.60 31.00
3190 75.1985 1.263549 946.00 940.97 31.00
3191 75.2189 1.263257 924.00 914.52 30.00
3192 75.2394 1.262963 837.00 884.40 29.00
3193 75.2598 1.262672 839.00 853.00 29.00
3194 75.2802 1.262380 855.00 822.77 29.00
3195 75.3006 1.262089 745.00 795.39 27.00
3196 75.3211 1.261796 724.00 770.62 27.00
3197 75.3415 1.261505 734.00 748.41 27.00
3198 75.3619 1.261215 738.00 727.57 27.00
3199 75.3824 1.260923 681.00 706.42 26.00
3200 75.4028 1.260632 634.00 685.24 25.00
3201 75.4232 1.260342 651.00 662.94 26.00
3202 75.4436 1.260052 611.00 639.57 25.00
3203 75.4641 1.259760 620.00 615.65 25.00
3204 75.4845 1.259471 563.00 591.57 24.00
3205 75.5049 1.259181 570.00 567.59 24.00
3206 75.5254 1.258890 531.00 545.30 23.00
3207 75.5458 1.258601 549.00 524.96 23.00
3208 75.5662 1.258312 506.00 506.74 22.00
3209 75.5866 1.258023 495.00 490.73 22.00
3210 75.6071 1.257733 436.00 476.73 21.00
3211 75.6275 1.257445 464.00 464.96 22.00
3212 75.6479 1.257156 422.00 455.00 21.00
3213 75.6684 1.256866 416.00 446.55 20.00
3214 75.6888 1.256579 453.00 439.46 21.00
3215 75.7092 1.256291 448.00 433.23 21.00
3216 75.7296 1.256003 428.00 428.22 21.00
3217 75.7501 1.255714 439.00 424.10 21.00
3218 75.7705 1.255427 437.00 420.57 21.00
3219 75.7909 1.255140 399.00 418.18 20.00
3220 75.8113 1.254853 446.00 416.25 21.00
3221 75.8318 1.254564 410.00 415.02 20.00
3222 75.8522 1.254278 408.00 413.60 20.00
3223 75.8726 1.253991 399.00 412.92 20.00
3224 75.8931 1.253704 374.00 412.54 19.00
3225 75.9135 1.253417 426.00 412.60 21.00
3226 75.9339 1.253131 390.00 413.37 20.00
3227 75.9543 1.252846 443.00 415.02 21.00
3228 75.9748 1.252559 413.00 417.85 20.00
3229 75.9952 1.252273 448.00 421.52 21.00
3230 76.0156 1.251988 398.00 426.17 20.00
3231 76.0361 1.251701 470.00 431.79 22.00
3232 76.0565 1.251416 408.00 437.98 20.00
3233 76.0769 1.251132 472.00 444.24 22.00
3234 76.0973 1.250847 454.00 451.17 21.00
3235 76.1178 1.250561 443.00 458.15 21.00
3236 76.1382 1.250277 487.00 465.25 22.00
3237 76.1586 1.249993 458.00 473.29 21.00
3238 76.1791 1.249708 479.00 482.85 22.00
3239 76.1995 1.249424 502.00 494.55 22.00
3240 76.2199 1.249140 516.00 509.10 23.00
3241 76.2403 1.248857 482.00 526.81 22.00
3242 76.2608 1.248572 507.00 547.79 23.00
3243 76.2812 1.248289 546.00 571.43 23.00
3244 76.3016 1.248006 591.00 596.83 24.00
3245 76.3221 1.247722 597.00 622.51 24.00
3246 76.3425 1.247439 630.00 646.12 25.00
3247 76.3629 1.247157 643.00 665.57 25.00
3248 76.3833 1.246875 682.00 679.52 26.00
3249 76.4038 1.246591 670.00 687.58 26.00
3250 76.4242 1.246309 666.00 690.56 26.00
3251 76.4446 1.246028 681.00 689.94 26.00
3252 76.4651 1.245745 759.00 687.01 28.00
3253 76.4855 1.245463 668.00 682.67 26.00
3254 76.5059 1.245182 685.00 677.74 26.00
3255 76.5263 1.244901 670.00 672.83 26.00
3256 76.5468 1.244619 628.00 668.17 25.00
3257 76.5672 1.244338 625.00 663.76 25.00
3258 76.5876 1.244057 649.00 658.53 25.00
3259 76.6081 1.243776 682.00 652.20 26.00
3260 76.6285 1.243495 632.00 644.84 25.00
3261 76.6489 1.243215 583.00 636.90 24.00
3262 76.6693 1.242935 619.00 628.75 25.00
3263 76.6898 1.242654 624.00 620.80 25.00
3264 76.7102 1.242375 566.00 613.09 24.00
3265 76.7306 1.242095 609.00 605.54 25.00
3266 76.7511 1.241814 561.00 598.09 24.00
3267 76.7715 1.241536 574.00 590.94 24.00
3268 76.7919 1.241257 598.00 584.39 24.00
3269 76.8123 1.240978 564.00 578.95 24.00
3270 76.8328 1.240698 534.00 575.19 23.00
3271 76.8532 1.240419 578.00 573.48 24.00
3272 76.8736 1.240141 550.00 573.78 23.00
3273 76.8941 1.239862 545.00 575.67 23.00
3274 76.9145 1.239584 597.00 578.44 24.00
3275 76.9349 1.239306 600.00 581.42 24.00
3276 76.9553 1.239028 633.00 583.83 25.00
3277 76.9758 1.238750 624.00 585.81 25.00
3278 76.9962 1.238472 586.00 587.40 24.00
3279 77.0166 1.238195 611.00 588.27 25.00
3280 77.0370 1.237918 613.00 588.03 25.00
3281 77.0575 1.237640 627.00 585.38 25.00
3282 77.0779 1.237363 586.00 581.72 24.00
3283 77.0983 1.237087 549.00 576.37 23.00
3284 77.1188 1.236809 541.00 569.89 23.00
3285 77.1392 1.236533 539.00 562.96 23.00
3286 77.1596 1.236257 577.00 556.27 24.00
3287 77.1800 1.235981 563.00 550.30 24.00
3288 77.2005 1.235704 568.00 545.46 24.00
3289 77.2209 1.235429 544.00 542.20 23.00
3290 77.2413 1.235154 550.00 540.77 23.00
3291 77.2618 1.234877 566.00 539.96 24.00
3292 77.2822 1.234602 551.00 539.14 23.00
3293 77.3026 1.234327 577.00 537.41 24.00
3294 77.3230 1.234053 598.00 535.12 24.00
3295 77.3435 1.233777 562.00 531.20 24.00
3296 77.3639 1.233502 509.00 526.82 23.00
3297 77.3843 1.233228 537.00 521.90 23.00
3298 77.4048 1.232953 528.00 516.61 23.00
3299 77.4252 1.232679 506.00 512.52 22.00
3300 77.4456 1.232405 535.00 509.88 23.00
3301 77.4660 1.232132 522.00 508.76 23.00
3302 77.4865 1.231857 555.00 508.86 24.00
3303 77.5069 1.231584 507.00 509.48 23.00
3304 77.5273 1.231311 549.00 510.20 23.00
3305 77.5478 1.231036 517.00 510.51 23.00
3306 77.5682 1.230764 560.00 509.92 24.00
3307 77.5886 1.230491 531.00 508.92 23.00
3308 77.6090 1.230219 532.00 507.32 23.00
3309 77.6295 1.229945 499.00 504.76 22.00
3310 77.6499 1.229673 507.00 501.61 23.00
3311 77.6703 1.229401 485.00 497.83 22.00
3312 77.6908 1.229128 488.00 492.70 22.00
3313 77.7112 1.228856 494.00 487.11 22.00
3314 77.7316 1.228585 455.00 481.11 21.00
3315 77.7520 1.228313 497.00 475.20 22.00
3316 77.7725 1.228041 487.00 469.77 22.00
3317 77.7929 1.227770 491.00 465.12 22.00
3318 77.8133 1.227499 451.00 461.40 21.00
3319 77.8338 1.227227 492.00 458.77 22.00
3320 77.8542 1.226957 482.00 456.93 22.00
3321 77.8746 1.226686 438.00 455.76 21.00
3322 77.8950 1.226416 465.00 455.06 22.00
3323 77.9155 1.226145 449.00 454.62 21.00
3324 77.9359 1.225875 475.00 454.57 22.00
3325 77.9563 1.225605 458.00 455.27 21.00
3326 77.9768 1.225334 436.00 457.09 21.00
3327 77.9972 1.225065 424.00 460.19 21.00
3328 78.0176 1.224795 498.00 464.69 22.00
3329 78.0380 1.224527 491.00 470.42 22.00
3330 78.0585 1.224256 473.00 477.08 22.00
3331 78.0789 1.223987 490.00 484.23 22.00
3332 78.0993 1.223719 503.00 491.56 22.00
3333 78.1198 1.223449 483.00 499.32 22.00
3334 78.1402 1.223181 494.00 506.49 22.00
3335 78.1606 1.222913 495.00 512.61 22.00
3336 78.1810 1.222645 490.00 517.57 22.00
3337 78.2015 1.222375 497.00 519.87 22.00
3338 78.2219 1.222108 489.00 519.05 22.00
3339 78.2423 1.221840 520.00 515.46 23.00
3340 78.2628 1.221571 507.00 509.70 23.00
3341 78.2832 1.221304 495.00 502.57 22.00
3342 78.3036 1.221037 476.00 494.93 22.00
3343 78.3240 1.220770 486.00 487.45 22.00
3344 78.3445 1.220502 448.00 480.74 21.00
3345 78.3649 1.220236 493.00 474.95 22.00
3346 78.3853 1.219969 445.00 470.16 21.00
3347 78.4057 1.219703 451.00 465.88 21.00
3348 78.4262 1.219436 470.00 461.59 22.00
3349 78.4466 1.219169 418.00 456.86 20.00
3350 78.4670 1.218904 470.00 451.49 22.00
3351 78.4875 1.218637 437.00 445.60 21.00
3352 78.5079 1.218371 412.00 439.68 20.00
3353 78.5283 1.218106 406.00 434.25 20.00
3354 78.5487 1.217841 427.00 429.80 21.00
3355 78.5692 1.217574 412.00 426.76 20.00
3356 78.5896 1.217309 386.00 425.30 20.00
3357 78.6100 1.217045 435.00 425.83 21.00
3358 78.6305 1.216779 432.00 426.79 21.00
3359 78.6509 1.216514 449.00 429.45 21.00
3360 78.6713 1.216250 408.00 432.26 20.00
3361 78.6917 1.215986 436.00 435.09 21.00
3362 78.7122 1.215721 433.00 437.23 21.00
3363 78.7326 1.215457 410.00 438.14 20.00
3364 78.7530 1.215193 435.00 438.13 21.00
3365 78.7735 1.214929 419.00 436.66 20.00
3366 78.7939 1.214665 422.00 433.88 21.00
3367 78.8143 1.214402 455.00 430.28 21.00
3368 78.8347 1.214139 406.00 426.37 20.00
3369 78.8552 1.213875 418.00 422.32 20.00
3370 78.8756 1.213612 378.00 419.24 19.00
3371 78.8960 1.213349 431.00 416.96 21.00
3372 78.9165 1.213086 429.00 415.35 21.00
3373 78.9369 1.212823 420.00 414.38 20.00
3374 78.9573 1.212561 413.00 413.70 20.00
3375 78.9777 1.212299 429.00 413.43 21.00
3376 78.9982 1.212036 436.00 413.19 21.00
3377 79.0186 1.211774 392.00 412.80 20.00
3378 79.0390 1.211513 443.00 412.14 21.00
3379 79.0595 1.211250 419.00 411.64 20.00
3380 79.0799 1.210989 379.00 411.53 19.00
3381 79.1003 1.210728 397.00 412.05 20.00
3382 79.1207 1.210467 395.00 413.66 20.00
3383 79.1412 1.210205 446.00 416.73 21.00
3384 79.1616 1.209944 425.00 421.38 21.00
3385 79.1820 1.209684 417.00 427.72 20.00
3386 79.2025 1.209422 399.00 435.48 20.00
3387 79.2229 1.209162 424.00 444.76 21.00
3388 79.2433 1.208902 489.00 455.02 22.00
3389 79.2637 1.208642 467.00 465.79 22.00
3390 79.2842 1.208381 471.00 476.95 22.00
3391 79.3046 1.208121 483.00 487.99 22.00
3392 79.3250 1.207862 506.00 498.48 22.00
3393 79.3455 1.207602 513.00 507.58 23.00
3394 79.3659 1.207342 523.00 514.91 23.00
3395 79.3863 1.207083 538.00 519.47 23.00
3396 79.4067 1.206825 507.00 520.78 23.00
3397 79.4272 1.206565 485.00 519.11 22.00
3398 79.4476 1.206306 509.00 515.42 23.00
3399 79.4680 1.206048 516.00 510.84 23.00
3400 79.4885 1.205788 533.00 506.40 23.00
3401 79.5089 1.205530 519.00 502.86 23.00
3402 79.5293 1.205272 526.00 500.60 23.00
3403 79.5497 1.205015 471.00 499.70 22.00
3404 79.5702 1.204756 510.00 499.88 23.00
3405 79.5906 1.204498 554.00 500.53 24.00
3406 79.6110 1.204241 491.00 501.19 22.00
3407 79.6314 1.203984 461.00 501.16 21.00
3408 79.6519 1.203725 526.00 500.10 23.00
3409 79.6723 1.203468 526.00 498.63 23.00
3410 79.6927 1.203212 505.00 497.20 22.00
3411 79.7132 1.202954 550.00 496.53 23.00
3412 79.7336 1.202697 544.00 497.06 23.00
3413 79.7540 1.202441 498.00 499.22 22.00
3414 79.7744 1.202185 529.00 502.95 23.00
3415 79.7949 1.201928 495.00 507.12 22.00
3416 79.8153 1.201672 543.00 511.51 23.00
3417 79.8357 1.201416 578.00 515.18 24.00
3418 79.8562 1.201159 468.00 517.88 22.00
3419 79.8766 1.200904 517.00 518.31 23.00
3420 79.8970 1.200649 543.00 516.76 23.00
3421 79.9174 1.200394 486.00 514.49 22.00
3422 79.9379 1.200137 501.00 511.40 22.00
3423 79.9583 1.199882 532.00 508.88 23.00
3424 79.9787 1.199628 517.00 507.33 23.00
3425 79.9992 1.199372 530.00 507.35 23.00
3426 80.0196 1.199118 514.00 508.67 23.00
3427 80.0400 1.198863 486.00 511.00 22.00
3428 80.0604 1.198609 528.00 514.36 23.00
3429 80.0809 1.198354 507.00 517.76 23.00
3430 80.1013 1.198100 553.00 521.47 24.00
3431 80.1217 1.197847 523.00 525.75 23.00
3432 80.1422 1.197592 539.00 531.11 23.00
3433 80.1626 1.197338 551.00 538.20 23.00
3434 80.1830 1.197085 525.00 547.62 23.00
3435 80.2034 1.196832 567.00 559.74 24.00
3436 80.2239 1.196578 561.00 574.66 24.00
3437 80.2443 1.196325 570.00 591.66 24.00
3438 80.2647 1.196072 584.00 609.79 24.00
3439 80.2852 1.195819 640.00 627.68 25.00
3440 80.3056 1.195566 621.00 643.37 25.00
3441 80.3260 1.195314 668.00 655.66 26.00
3442 80.3464 1.195062 708.00 662.80 27.00
3443 80.3669 1.194809 705.00 664.16 27.00
3444 80.3873 1.194557 661.00 660.17 26.00
3445 80.4077 1.194306 665.00 652.05 26.00
3446 80.4282 1.194053 630.00 640.89 25.00
3447 80.4486 1.193802 585.00 628.72 24.00
3448 80.4690 1.193550 626.00 616.94 25.00
3449 80.4894 1.193299 618.00 606.81 25.00
3450 80.5099 1.193047 611.00 598.10 25.00
3451 80.5303 1.192796 584.00 590.87 24.00
3452 80.5507 1.192546 524.00 584.96 23.00
3453 80.5712 1.192294 566.00 579.31 24.00
3454 80.5916 1.192044 614.00 573.36 25.00
3455 80.6120 1.191793 557.00 566.96 24.00
3456 80.6324 1.191543 551.00 560.06 23.00
3457 80.6529 1.191292 558.00 553.20 24.00
3458 80.6733 1.191042 558.00 547.24 24.00
3459 80.6937 1.190793 573.00 542.57 24.00
3460 80.7142 1.190542 571.00 539.72 24.00
3461 80.7346 1.190293 580.00 539.06 24.00
3462 80.7550 1.190044 537.00 540.30 23.00
3463 80.7754 1.189795 567.00 543.08 24.00
3464 80.7959 1.189544 552.00 546.05 23.00
3465 80.8163 1.189296 538.00 548.17 23.00
3466 80.8367 1.189047 523.00 548.71 23.00
3467 80.8572 1.188797 572.00 546.66 24.00
3468 80.8776 1.188549 558.00 542.35 24.00
3469 80.8980 1.188301 512.00 536.36 23.00
3470 80.9184 1.188053 568.00 529.43 24.00
3471 80.9389 1.187804 535.00 522.19 23.00
3472 80.9593 1.187556 520.00 515.01 23.00
3473 80.9797 1.187308 533.00 508.34 23.00
3474 81.0001 1.187061 515.00 501.98 23.00
3475 81.0206 1.186812 526.00 496.03 23.00
3476 81.0410 1.186565 538.00 490.54 23.00
3477 81.0614 1.186318 513.00 485.14 23.00
3478 81.0819 1.186070 462.00 479.50 21.00
3479 81.1023 1.185823 418.00 473.52 20.00
3480 81.1227 1.185576 495.00 467.11 22.00
3481 81.1431 1.185330 465.00 460.83 22.00
3482 81.1636 1.185082 479.00 454.77 22.00
3483 81.1840 1.184836 462.00 449.18 21.00
3484 81.2044 1.184590 462.00 444.30 21.00
3485 81.2249 1.184343 461.00 439.73 21.00
3486 81.2453 1.184097 451.00 435.63 21.00
3487 81.2657 1.183851 421.00 431.85 21.00
3488 81.2861 1.183606 413.00 428.37 20.00
3489 81.3066 1.183359 427.00 425.06 21.00
3490 81.3270 1.183114 387.00 421.93 20.00
3491 81.3474 1.182869 418.00 419.04 20.00
3492 81.3679 1.182622 385.00 416.19 20.00
3493 81.3883 1.182378 389.00 413.71 20.00
3494 81.4087 1.182133 394.00 411.55 20.00
3495 81.4291 1.181888 384.00 409.83 20.00
3496 81.4496 1.181643 351.00 408.64 19.00
3497 81.4700 1.181398 380.00 407.98 19.00
3498 81.4904 1.181154 418.00 407.74 20.00
3499 81.5109 1.180909 415.00 408.03 20.00
3500 81.5313 1.180665 377.00 408.20 19.00
3501 81.5517 1.180421 372.00 408.38 19.00
3502 81.5721 1.180178 386.00 408.52 20.00
3503 81.5926 1.179933 381.00 409.02 20.00
3504 81.6130 1.179690 435.00 409.58 21.00
3505 81.6334 1.179447 395.00 409.72 20.00
3506 81.6539 1.179203 388.00 409.84 20.00
3507 81.6743 1.178960 393.00 410.01 20.00
3508 81.6947 1.178717 416.00 410.37 20.00
3509 81.7151 1.178474 403.00 411.12 20.00
3510 81.7356 1.178231 444.00 412.36 21.00
3511 81.7560 1.177988 388.00 414.42 20.00
3512 81.7764 1.177746 387.00 417.30 20.00
3513 81.7969 1.177503 447.00 421.76 21.00
3514 81.8173 1.177261 423.00 427.70 21.00
3515 81.8377 1.177019 434.00 435.37 21.00
3516 81.8581 1.176777 442.00 444.80 21.00
3517 81.8786 1.176535 435.00 456.15 21.00
3518 81.8990 1.176293 515.00 469.42 23.00
3519 81.9194 1.176052 440.00 484.53 21.00
3520 81.9399 1.175810 487.00 501.39 22.00
3521 81.9603 1.175569 473.00 519.46 22.00
3522 81.9807 1.175328 509.00 538.35 23.00
3523 82.0011 1.175087 598.00 557.35 24.00
3524 82.0216 1.174845 583.00 575.74 24.00
3525 82.0420 1.174605 619.00 592.91 25.00
3526 82.0624 1.174365 616.00 608.35 25.00
3527 82.0829 1.174123 642.00 621.65 25.00
3528 82.1033 1.173883 665.00 632.49 26.00
3529 82.1237 1.173643 672.00 641.17 26.00
3530 82.1441 1.173404 688.00 648.32 26.00
3531 82.1646 1.173163 660.00 654.78 26.00
3532 82.1850 1.172923 628.00 661.43 25.00
3533 82.2054 1.172684 666.00 668.94 26.00
3534 82.2258 1.172445 677.00 677.62 26.00
3535 82.2463 1.172204 715.00 687.34 27.00
3536 82.2667 1.171965 673.00 697.10 26.00
3537 82.2871 1.171727 722.00 706.44 27.00
3538 82.3076 1.171487 689.00 714.03 26.00
3539 82.3280 1.171248 728.00 718.90 27.00
3540 82.3484 1.171010 716.00 720.86 27.00
3541 82.3688 1.170771 714.00 720.43 27.00
3542 82.3893 1.170532 764.00 718.79 28.00
3543 82.4097 1.170294 701.00 716.71 26.00
3544 82.4301 1.170056 723.00 715.22 27.00
3545 82.4506 1.169817 661.00 714.72 26.00
3546 82.4710 1.169580 683.00 715.14 26.00
3547 82.4914 1.169342 710.00 716.49 27.00
3548 82.5118 1.169105 750.00 718.31 27.00
3549 82.5323 1.168867 717.00 720.70 27.00
3550 82.5527 1.168630 711.00 722.91 27.00
3551 82.5731 1.168393 746.00 724.46 27.00
3552 82.5936 1.168155 670.00 724.97 26.00
3553 82.6140 1.167918 778.00 724.20 28.00
3554 82.6344 1.167681 765.00 722.32 28.00
3555 82.6548 1.167445 764.00 719.60 28.00
3556 82.6753 1.167207 688.00 716.51 26.00
3557 82.6957 1.166971 714.00 713.44 27.00
3558 82.7161 1.166735 686.00 710.23 26.00
3559 82.7366 1.166498 669.00 706.53 26.00
3560 82.7570 1.166263 712.00 702.19 27.00
3561 82.7774 1.166027 673.00 696.85 26.00
3562 82.7978 1.165792 647.00 690.00 25.00
3563 82.8183 1.165555 702.00 682.86 26.00
3564 82.8387 1.165320 711.00 675.07 27.00
3565 82.8591 1.165085 644.00 667.12 25.00
3566 82.8796 1.164849 693.00 659.29 26.00
3567 82.9000 1.164614 672.00 652.09 26.00
3568 82.9204 1.164379 639.00 645.66 25.00
3569 82.9408 1.164145 616.00 640.04 25.00
3570 82.9613 1.163909 655.00 635.02 26.00
3571 82.9817 1.163675 616.00 630.42 25.00
3572 83.0021 1.163441 567.00 625.79 24.00
3573 83.0226 1.163205 606.00 621.59 25.00
3574 83.0430 1.162971 574.00 617.19 24.00
3575 83.0634 1.162738 632.00 612.64 25.00
3576 83.0838 1.162504 579.00 608.53 24.00
3577 83.1043 1.162269 630.00 603.83 25.00
3578 83.1247 1.162036 568.00 598.71 24.00
3579 83.1451 1.161803 602.00 592.58 25.00
3580 83.1656 1.161569 579.00 585.42 24.00
3581 83.1860 1.161336 549.00 577.36 23.00
3582 83.2064 1.161103 581.00 568.56 24.00
3583 83.2268 1.160870 586.00 559.28 24.00
3584 83.2473 1.160636 533.00 549.78 23.00
3585 83.2677 1.160404 521.00 540.62 23.00
3586 83.2881 1.160171 556.00 531.84 24.00
3587 83.3086 1.159938 498.00 524.53 22.00
3588 83.3290 1.159706 566.00 518.68 24.00
3589 83.3494 1.159474 508.00 514.27 23.00
3590 83.3698 1.159242 536.00 511.19 23.00
3591 83.3903 1.159009 510.00 509.16 23.00
3592 83.4107 1.158778 528.00 507.84 23.00
3593 83.4311 1.158547 499.00 507.20 22.00
3594 83.4516 1.158314 512.00 506.88 23.00
3595 83.4720 1.158083 530.00 506.60 23.00
3596 83.4924 1.157852 517.00 506.02 23.00
3597 83.5128 1.157621 512.00 504.92 23.00
3598 83.5333 1.157389 552.00 502.95 23.00
3599 83.5537 1.157158 530.00 500.72 23.00
3600 83.5741 1.156928 499.00 498.45 22.00
3601 83.5945 1.156697 500.00 496.63 22.00
3602 83.6150 1.156466 513.00 495.74 23.00
3603 83.6354 1.156236 536.00 496.11 23.00
3604 83.6558 1.156006 498.00 497.90 22.00
3605 83.6763 1.155775 479.00 501.45 22.00
3606 83.6967 1.155545 516.00 506.88 23.00
3607 83.7171 1.155316 535.00 514.31 23.00
3608 83.7375 1.155086 548.00 523.85 23.00
3609 83.7580 1.154855 511.00 535.49 23.00
3610 83.7784 1.154626 566.00 549.16 24.00
3611 83.7988 1.154397 545.00 564.67 23.00
3612 83.8193 1.154167 614.00 581.87 25.00
3613 83.8397 1.153938 610.00 600.14 25.00
3614 83.8601 1.153709 608.00 618.75 25.00
3615 83.8805 1.153481 651.00 636.59 26.00
3616 83.9010 1.153251 653.00 652.04 26.00
3617 83.9214 1.153023 682.00 663.08 26.00
3618 83.9418 1.152795 654.00 668.81 26.00
3619 83.9623 1.152565 619.00 668.57 25.00
3620 83.9827 1.152338 609.00 663.02 25.00
3621 84.0031 1.152110 586.00 653.47 24.00
3622 84.0235 1.151882 649.00 641.86 25.00
3623 84.0440 1.151653 617.00 629.56 25.00
3624 84.0644 1.151426 586.00 617.99 24.00
3625 84.0848 1.151199 584.00 607.79 24.00
3626 84.1053 1.150970 599.00 599.13 24.00
3627 84.1257 1.150743 587.00 591.77 24.00
3628 84.1461 1.150516 576.00 584.88 24.00
3629 84.1665 1.150289 556.00 577.47 24.00
3630 84.1870 1.150061 551.00 568.67 23.00
3631 84.2074 1.149835 592.00 557.95 24.00
3632 84.2278 1.149608 537.00 545.16 23.00
3633 84.2483 1.149381 502.00 530.64 22.00
3634 84.2687 1.149155 489.00 515.20 22.00
3635 84.2891 1.148929 508.00 499.60 23.00
3636 84.3095 1.148703 447.00 484.39 21.00
3637 84.3300 1.148476 475.00 470.00 22.00
3638 84.3504 1.148250 493.00 456.85 22.00
3639 84.3708 1.148025 444.00 444.94 21.00
3640 84.3913 1.147798 463.00 434.27 22.00
3641 84.4117 1.147573 427.00 424.72 21.00
3642 84.4321 1.147348 444.00 416.18 21.00
3643 84.4525 1.147123 434.00 408.61 21.00
3644 84.4730 1.146896 405.00 401.98 20.00
3645 84.4934 1.146672 432.00 396.52 21.00
3646 84.5138 1.146447 416.00 391.82 20.00
3647 84.5343 1.146221 434.00 388.44 21.00
3648 84.5547 1.145997 418.00 386.14 20.00
3649 84.5751 1.145772 428.00 384.93 21.00
3650 84.5955 1.145548 436.00 384.46 21.00
3651 84.6160 1.145323 405.00 385.36 20.00
3652 84.6364 1.145099 457.00 387.25 21.00
3653 84.6568 1.144875 412.00 390.07 20.00
3654 84.6773 1.144650 413.00 393.67 20.00
3655 84.6977 1.144427 386.00 398.11 20.00
3656 84.7181 1.144203 448.00 403.23 21.00
3657 84.7385 1.143980 432.00 408.83 21.00
3658 84.7590 1.143756 442.00 414.88 21.00
3659 84.7794 1.143533 458.00 421.18 21.00
3660 84.7998 1.143310 463.00 427.95 22.00
3661 84.8202 1.143087 481.00 435.09 22.00
3662 84.8407 1.142863 470.00 442.20 22.00
3663 84.8611 1.142640 494.00 449.50 22.00
3664 84.8815 1.142418 475.00 456.68 22.00
3665 84.9020 1.142195 483.00 463.39 22.00
3666 84.9224 1.141972 473.00 469.47 22.00
3667 84.9428 1.141750 504.00 474.71 22.00
3668 84.9632 1.141528 493.00 479.27 22.00
3669 84.9837 1.141305 519.00 483.24 23.00
3670 85.0041 1.141084 492.00 486.39 22.00
3671 85.0245 1.140862 475.00 489.24 22.00
3672 85.0450 1.140639 466.00 491.59 22.00
3673 85.0654 1.140418 479.00 493.50 22.00
3674 85.0858 1.140197 506.00 495.07 22.00
3675 85.1062 1.139976 527.00 496.12 23.00
3676 85.1267 1.139754 480.00 496.98 22.00
3677 85.1471 1.139533 491.00 497.09 22.00
3678 85.1675 1.139312 485.00 497.10 22.00
3679 85.1880 1.139090 463.00 496.71 22.00
3680 85.2084 1.138870 513.00 496.32 23.00
3681 85.2288 1.138649 474.00 496.49 22.00
3682 85.2492 1.138429 531.00 497.63 23.00
3683 85.2697 1.138208 452.00 499.96 21.00
3684 85.2901 1.137988 492.00 503.66 22.00
3685 85.3105 1.137768 490.00 509.10 22.00
3686 85.3310 1.137547 526.00 515.90 23.00
3687 85.3514 1.137327 529.00 523.71 23.00
3688 85.3718 1.137108 481.00 531.88 22.00
3689 85.3922 1.136888 504.00 539.88 22.00
3690 85.4127 1.136668 545.00 546.67 23.00
3691 85.4331 1.136449 556.00 551.65 24.00
3692 85.4535 1.136230 577.00 554.16 24.00
3693 85.4740 1.136010 518.00 553.89 23.00
3694 85.4944 1.135791 522.00 550.93 23.00
3695 85.5148 1.135572 523.00 545.46 23.00
3696 85.5352 1.135354 527.00 538.36 23.00
3697 85.5557 1.135134 544.00 530.04 23.00
3698 85.5761 1.134916 541.00 521.57 23.00
3699 85.5965 1.134698 562.00 513.36 24.00
3700 85.6170 1.134479 490.00 506.43 22.00
3701 85.6374 1.134261 483.00 499.58 22.00
3702 85.6578 1.134043 505.00 493.11 22.00
3703 85.6782 1.133825 482.00 486.72 22.00
3704 85.6987 1.133606 464.00 479.75 22.00
3705 85.7191 1.133389 418.00 472.47 20.00
3706 85.7395 1.133171 448.00 464.46 21.00
3707 85.7600 1.132953 430.00 455.94 21.00
3708 85.7804 1.132736 441.00 446.56 21.00
3709 85.8008 1.132519 434.00 436.81 21.00
3710 85.8212 1.132302 401.00 427.20 20.00
3711 85.8417 1.132084 382.00 417.75 20.00
3712 85.8621 1.131868 389.00 408.90 20.00
3713 85.8825 1.131651 392.00 400.82 20.00
3714 85.9030 1.131433 384.00 393.57 20.00
3715 85.9234 1.131217 423.00 387.26 21.00
3716 85.9438 1.131001 379.00 381.86 19.00
3717 85.9642 1.130785 380.00 377.23 19.00
3718 85.9847 1.130568 402.00 373.61 20.00
3719 86.0051 1.130352 396.00 370.96 20.00
3720 86.0255 1.130136 399.00 369.42 20.00
3721 86.0460 1.129920 380.00 368.79 19.00
3722 86.0664 1.129704 388.00 369.05 20.00
3723 86.0868 1.129489 412.00 370.11 20.00
3724 86.1072 1.129274 422.00 372.25 21.00
3725 86.1277 1.129057 399.00 375.26 20.00
3726 86.1481 1.128842 383.00 379.13 20.00
3727 86.1685 1.128627 395.00 383.86 20.00
3728 86.1889 1.128413 415.00 389.47 20.00
3729 86.2094 1.128197 408.00 395.98 20.00
3730 86.2298 1.127982 416.00 403.14 20.00
3731 86.2502 1.127768 430.00 410.91 21.00
3732 86.2707 1.127553 407.00 418.89 20.00
3733 86.2911 1.127339 429.00 426.51 21.00
3734 86.3115 1.127124 405.00 433.28 20.00
3735 86.3319 1.126910 432.00 438.66 21.00
3736 86.3524 1.126696 484.00 442.19 22.00
3737 86.3728 1.126482 458.00 443.87 21.00
3738 86.3932 1.126268 444.00 443.72 21.00
3739 86.4137 1.126054 456.00 442.07 21.00
3740 86.4341 1.125841 438.00 439.34 21.00
3741 86.4545 1.125627 423.00 435.97 21.00
3742 86.4749 1.125414 408.00 432.27 20.00
3743 86.4954 1.125200 437.00 428.94 21.00
3744 86.5158 1.124987 433.00 424.82 21.00
3745 86.5362 1.124774 454.00 421.34 21.00
3746 86.5567 1.124561 433.00 417.80 21.00
3747 86.5771 1.124348 399.00 414.62 20.00
3748 86.5975 1.124136 405.00 411.44 20.00
3749 86.6179 1.123923 426.00 408.27 21.00
3750 86.6384 1.123710 393.00 404.79 20.00
3751 86.6588 1.123498 388.00 401.24 20.00
3752 86.6792 1.123286 402.00 397.73 20.00
3753 86.6997 1.123073 390.00 394.31 20.00
3754 86.7201 1.122861 401.00 391.11 20.00
3755 86.7405 1.122650 356.00 388.39 19.00
3756 86.7609 1.122438 419.00 385.87 20.00
3757 86.7814 1.122226 377.00 383.75 19.00
3758 86.8018 1.122015 370.00 382.10 19.00
3759 86.8222 1.121803 370.00 380.91 19.00
3760 86.8427 1.121591 382.00 380.34 20.00
3761 86.8631 1.121380 384.00 380.22 20.00
3762 86.8835 1.121170 378.00 380.52 19.00
3763 86.9039 1.120959 419.00 381.21 20.00
3764 86.9244 1.120747 419.00 382.02 20.00
3765 86.9448 1.120537 343.00 382.84 19.00
3766 86.9652 1.120326 375.00 383.44 19.00
3767 86.9857 1.120115 400.00 383.65 20.00
3768 87.0061 1.119905 373.00 383.40 19.00
3769 87.0265 1.119695 379.00 382.76 19.00
3770 87.0469 1.119485 413.00 381.84 20.00
3771 87.0674 1.119274 359.00 381.00 19.00
3772 87.0878 1.119065 387.00 380.44 20.00
3773 87.1082 1.118855 370.00 380.35 19.00
3774 87.1287 1.118645 366.00 380.93 19.00
3775 87.1491 1.118435 393.00 382.15 20.00
3776 87.1695 1.118226 403.00 384.10 20.00
3777 87.1899 1.118017 390.00 386.67 20.00
3778 87.2104 1.117807 409.00 389.78 20.00
3779 87.2308 1.117598 413.00 393.21 20.00
3780 87.2512 1.117389 441.00 396.72 21.00
3781 87.2717 1.117180 437.00 400.08 21.00
3782 87.2921 1.116971 415.00 403.03 20.00
3783 87.3125 1.116763 404.00 405.36 20.00
3784 87.3329 1.116554 404.00 406.95 20.00
3785 87.3534 1.116345 424.00 407.69 21.00
3786 87.3738 1.116137 415.00 407.55 20.00
3787 87.3942 1.115929 402.00 406.52 20.00
3788 87.4146 1.115721 425.00 404.82 21.00
3789 87.4351 1.115513 424.00 402.57 21.00
3790 87.4555 1.115305 378.00 400.01 19.00
3791 87.4759 1.115097 414.00 397.42 20.00
3792 87.4964 1.114889 411.00 395.03 20.00
3793 87.5168 1.114682 392.00 393.06 20.00
3794 87.5372 1.114475 408.00 391.68 20.00
3795 87.5576 1.114267 413.00 390.99 20.00
3796 87.5781 1.114060 401.00 390.73 20.00
3797 87.5985 1.113853 379.00 390.86 19.00
3798 87.6189 1.113646 387.00 391.50 20.00
3799 87.6394 1.113438 393.00 391.96 20.00
3800 87.6598 1.113232 437.00 392.42 21.00
3801 87.6802 1.113025 453.00 392.73 21.00
3802 87.7006 1.112819 420.00 393.06 20.00
3803 87.7211 1.112612 358.00 393.33 19.00
3804 87.7415 1.112406 390.00 393.68 20.00
3805 87.7619 1.112200 388.00 393.96 20.00
3806 87.7824 1.111993 390.00 394.58 20.00
3807 87.8028 1.111787 416.00 395.01 20.00
3808 87.8232 1.111582 394.00 395.84 20.00
3809 87.8436 1.111376 389.00 397.22 20.00
3810 87.8641 1.111170 420.00 399.31 20.00
3811 87.8845 1.110965 406.00 402.34 20.00
3812 87.9049 1.110759 415.00 406.52 20.00
3813 87.9254 1.110554 414.00 412.06 20.00
3814 87.9458 1.110348 467.00 419.01 22.00
3815 87.9662 1.110144 412.00 427.55 20.00
3816 87.9866 1.109939 432.00 437.93 21.00
3817 88.0071 1.109733 440.00 449.50 21.00
3818 88.0275 1.109529 465.00 462.20 22.00
3819 88.0479 1.109324 491.00 475.70 22.00
3820 88.0684 1.109119 473.00 489.47 22.00
3821 88.0888 1.108915 573.00 502.54 24.00
3822 88.1092 1.108711 586.00 514.38 24.00
3823 88.1296 1.108507 550.00 524.06 23.00
3824 88.1501 1.108302 506.00 531.45 22.00
3825 88.1705 1.108099 562.00 536.36 24.00
3826 88.1909 1.107895 557.00 539.04 24.00
3827 88.2114 1.107690 603.00 540.53 25.00
3828 88.2318 1.107487 545.00 541.28 23.00
3829 88.2522 1.107284 520.00 541.76 23.00
3830 88.2726 1.107080 586.00 542.29 24.00
3831 88.2931 1.106876 570.00 542.50 24.00
3832 88.3135 1.106673 507.00 542.29 23.00
3833 88.3339 1.106471 523.00 542.05 23.00
3834 88.3544 1.106267 531.00 540.07 23.00
3835 88.3748 1.106064 530.00 537.03 23.00
3836 88.3952 1.105862 562.00 532.83 24.00
3837 88.4156 1.105659 496.00 527.67 22.00
3838 88.4361 1.105456 525.00 521.54 23.00
3839 88.4565 1.105254 479.00 514.81 22.00
3840 88.4769 1.105052 491.00 508.08 22.00
3841 88.4974 1.104849 503.00 501.33 22.00
3842 88.5178 1.104647 487.00 494.82 22.00
3843 88.5382 1.104445 488.00 488.45 22.00
3844 88.5586 1.104244 471.00 482.05 22.00
3845 88.5791 1.104041 478.00 475.35 22.00
3846 88.5995 1.103840 461.00 468.20 21.00
3847 88.6199 1.103638 446.00 460.52 21.00
3848 88.6404 1.103436 458.00 452.52 21.00
3849 88.6608 1.103235 464.00 444.57 22.00
3850 88.6812 1.103034 451.00 437.01 21.00
3851 88.7016 1.102833 461.00 430.28 21.00
3852 88.7221 1.102631 409.00 424.53 20.00
3853 88.7425 1.102431 431.00 420.09 21.00
3854 88.7629 1.102230 430.00 417.06 21.00
3855 88.7833 1.102030 432.00 415.46 21.00
3856 88.8038 1.101828 448.00 415.27 21.00
3857 88.8242 1.101628 420.00 416.37 20.00
3858 88.8446 1.101428 449.00 418.74 21.00
3859 88.8651 1.101227 431.00 422.27 21.00
3860 88.8855 1.101027 427.00 426.88 21.00
3861 88.9059 1.100827 426.00 432.55 21.00
3862 88.9263 1.100628 448.00 439.33 21.00
3863 88.9468 1.100427 496.00 447.05 22.00
3864 88.9672 1.100227 437.00 455.53 21.00
3865 88.9876 1.100028 486.00 464.68 22.00
3866 89.0081 1.099828 535.00 473.84 23.00
3867 89.0285 1.099629 545.00 482.45 23.00
3868 89.0489 1.099430 525.00 490.04 23.00
3869 89.0693 1.099231 489.00 496.26 22.00
3870 89.0898 1.099031 496.00 501.10 22.00
3871 89.1102 1.098832 525.00 504.58 23.00
3872 89.1306 1.098634 499.00 506.97 22.00
3873 89.1511 1.098434 528.00 508.60 23.00
3874 89.1715 1.098236 509.00 509.74 23.00
3875 89.1919 1.098037 437.00 510.51 21.00
3876 89.2123 1.097839 526.00 511.05 23.00
3877 89.2328 1.097640 495.00 511.25 22.00
3878 89.2532 1.097442 505.00 511.23 22.00
3879 89.2736 1.097244 463.00 510.48 22.00
3880 89.2941 1.097045 524.00 509.27 23.00
3881 89.3145 1.096848 492.00 507.30 22.00
3882 89.3349 1.096650 519.00 504.81 23.00
3883 89.3553 1.096453 495.00 501.74 22.00
3884 89.3758 1.096254 524.00 498.36 23.00
3885 89.3962 1.096057 480.00 494.60 22.00
3886 89.4166 1.095860 460.00 490.57 21.00
3887 89.4371 1.095662 478.00 486.21 22.00
3888 89.4575 1.095465 405.00 481.56 20.00
3889 89.4779 1.095268 509.00 476.12 23.00
3890 89.4983 1.095072 472.00 470.02 22.00
3891 89.5188 1.094874 418.00 463.20 20.00
3892 89.5392 1.094678 436.00 455.90 21.00
3893 89.5596 1.094481 445.00 448.64 21.00
3894 89.5801 1.094284 434.00 441.15 21.00
3895 89.6005 1.094088 398.00 433.99 20.00
3896 89.6209 1.093892 405.00 427.42 20.00
3897 89.6413 1.093696 381.00 421.58 20.00
3898 89.6618 1.093499 377.00 416.49 19.00
3899 89.6822 1.093303 375.00 412.14 19.00
3900 89.7026 1.093107 409.00 408.30 20.00
3901 89.7231 1.092911 446.00 404.79 21.00
3902 89.7435 1.092715 377.00 401.32 19.00
3903 89.7639 1.092520 393.00 397.89 20.00
3904 89.7843 1.092325 393.00 394.34 20.00
3905 89.8048 1.092129 340.00 390.71 18.00
3906 89.8252 1.091934 374.00 387.21 19.00
3907 89.8456 1.091739 361.00 384.01 19.00
3908 89.8661 1.091543 366.00 381.33 19.00
3909 89.8865 1.091348 367.00 379.31 19.00
3910 89.9069 1.091154 426.00 378.12 21.00
3911 89.9273 1.090959 374.00 377.81 19.00
3912 89.9478 1.090764 361.00 378.46 19.00
3913 89.9682 1.090569 374.00 380.14 19.00
3914 89.9886 1.090375 379.00 382.74 19.00
3915 90.0090 1.090181 375.00 386.32 19.00
3916 90.0295 1.089986 372.00 390.86 19.00
3917 90.0499 1.089792 393.00 396.36 20.00
3918 90.0703 1.089598 430.00 402.75 21.00
3919 90.0908 1.089404 418.00 410.13 20.00
3920 90.1112 1.089210 429.00 418.28 21.00
3921 90.1316 1.089017 437.00 427.29 21.00
3922 90.1520 1.088823 439.00 436.92 21.00
3923 90.1725 1.088629 468.00 446.98 22.00
3924 90.1929 1.088436 535.00 457.07 23.00
3925 90.2133 1.088243 499.00 467.08 22.00
3926 90.2338 1.088049 515.00 476.65 23.00
3927 90.2542 1.087856 471.00 485.53 22.00
3928 90.2746 1.087664 514.00 493.67 23.00
3929 90.2950 1.087471 563.00 501.02 24.00
3930 90.3155 1.087277 565.00 507.55 24.00
3931 90.3359 1.087085 550.00 513.11 23.00
3932 90.3563 1.086892 530.00 517.59 23.00
3933 90.3768 1.086699 511.00 521.19 23.00
3934 90.3972 1.086507 531.00 523.45 23.00
3935 90.4176 1.086315 554.00 524.65 24.00
3936 90.4380 1.086123 510.00 525.11 23.00
3937 90.4585 1.085930 581.00 525.28 24.00
3938 90.4789 1.085739 535.00 525.44 23.00
3939 90.4993 1.085547 559.00 526.01 24.00
3940 90.5198 1.085355 535.00 527.23 23.00
3941 90.5402 1.085163 521.00 529.26 23.00
3942 90.5606 1.084972 533.00 532.30 23.00
3943 90.5810 1.084781 566.00 536.19 24.00
3944 90.6015 1.084589 542.00 541.11 23.00
3945 90.6219 1.084398 503.00 546.79 22.00
3946 90.6423 1.084207 561.00 552.94 24.00
3947 90.6628 1.084015 541.00 559.25 23.00
3948 90.6832 1.083824 543.00 565.25 23.00
3949 90.7036 1.083634 571.00 570.61 24.00
3950 90.7240 1.083443 544.00 575.24 23.00
3951 90.7445 1.083252 552.00 579.11 23.00
3952 90.7649 1.083061 546.00 582.57 23.00
3953 90.7853 1.082871 575.00 586.20 24.00
3954 90.8058 1.082680 572.00 590.65 24.00
3955 90.8262 1.082490 630.00 596.45 25.00
3956 90.8466 1.082300 586.00 604.02 24.00
3957 90.8670 1.082111 635.00 613.31 25.00
3958 90.8875 1.081920 615.00 624.55 25.00
3959 90.9079 1.081730 622.00 636.45 25.00
3960 90.9283 1.081541 670.00 648.60 26.00
3961 90.9488 1.081351 693.00 659.24 26.00
3962 90.9692 1.081161 685.00 668.04 26.00
3963 90.9896 1.080972 664.00 673.76 26.00
3964 91.0100 1.080783 691.00 675.74 26.00
3965 91.0305 1.080593 665.00 673.91 26.00
3966 91.0509 1.080404 672.00 668.88 26.00
3967 91.0713 1.080215 683.00 661.36 26.00
3968 91.0918 1.080026 687.00 652.20 26.00
3969 91.1122 1.079837 619.00 642.15 25.00
3970 91.1326 1.079649 595.00 631.84 24.00
3971 91.1530 1.079460 579.00 621.35 24.00
3972 91.1735 1.079271 622.00 611.19 25.00
3973 91.1939 1.079083 592.00 601.38 24.00
3974 91.2143 1.078895 630.00 591.83 25.00
3975 91.2348 1.078706 572.00 582.18 24.00
3976 91.2552 1.078518 565.00 572.70 24.00
3977 91.2756 1.078330 569.00 562.93 24.00
3978 91.2960 1.078142 471.00 552.80 22.00
3979 91.3165 1.077954 520.00 542.20 23.00
3980 91.3369 1.077767 522.00 531.43 23.00
3981 91.3573 1.077579 512.00 520.71 23.00
3982 91.3777 1.077392 493.00 510.27 22.00
3983 91.3982 1.077204 514.00 500.14 23.00
3984 91.4186 1.077017 486.00 491.35 22.00
3985 91.4390 1.076830 476.00 482.77 22.00
3986 91.4595 1.076642 469.00 475.13 22.00
3987 91.4799 1.076455 440.00 468.67 21.00
3988 91.5003 1.076268 518.00 463.18 23.00
3989 91.5207 1.076082 462.00 458.88 21.00
3990 91.5412 1.075894 457.00 455.84 21.00
3991 91.5616 1.075708 453.00 453.97 21.00
3992 91.5820 1.075521 505.00 453.32 22.00
3993 91.6025 1.075334 462.00 453.36 21.00
3994 91.6229 1.075148 486.00 454.06 22.00
3995 91.6433 1.074962 488.00 455.01 22.00
3996 91.6637 1.074776 524.00 456.01 23.00
3997 91.6842 1.074590 458.00 456.83 21.00
3998 91.7046 1.074404 427.00 457.36 21.00
3999 91.7250 1.074218 484.00 457.72 22.00
4000 91.7455 1.074032 450.00 458.04 21.00
4001 91.7659 1.073846 430.00 458.59 21.00
4002 91.7863 1.073661 480.00 459.69 22.00
4003 91.8067 1.073476 505.00 461.64 22.00
4004 91.8272 1.073290 485.00 464.58 22.00
4005 91.8476 1.073105 457.00 468.59 21.00
4006 91.8680 1.072920 511.00 473.61 23.00
4007 91.8885 1.072734 476.00 479.67 22.00
4008 91.9089 1.072550 498.00 485.83 22.00
4009 91.9293 1.072365 509.00 492.40 23.00
4010 91.9497 1.072180 532.00 498.75 23.00
4011 91.9702 1.071995 513.00 504.52 23.00
4012 91.9906 1.071811 524.00 509.58 23.00
4013 92.0110 1.071626 545.00 513.83 23.00
4014 92.0315 1.071441 560.00 517.44 24.00
4015 92.0519 1.071257 515.00 520.36 23.00
4016 92.0723 1.071073 509.00 522.81 23.00
4017 92.0927 1.070890 520.00 525.23 23.00
4018 92.1132 1.070705 521.00 527.73 23.00
4019 92.1336 1.070521 582.00 530.40 24.00
4020 92.1540 1.070338 539.00 533.46 23.00
4021 92.1745 1.070153 551.00 536.89 23.00
4022 92.1949 1.069970 521.00 540.50 23.00
4023 92.2153 1.069787 542.00 543.89 23.00
4024 92.2357 1.069603 584.00 546.61 24.00
4025 92.2562 1.069420 541.00 548.23 23.00
4026 92.2766 1.069237 550.00 548.25 23.00
4027 92.2970 1.069054 587.00 545.94 24.00
4028 92.3175 1.068870 595.00 541.47 24.00
4029 92.3379 1.068687 548.00 535.10 23.00
4030 92.3583 1.068505 504.00 527.14 22.00
4031 92.3787 1.068322 604.00 518.38 25.00
4032 92.3992 1.068139 484.00 509.29 22.00
4033 92.4196 1.067957 496.00 500.38 22.00
4034 92.4400 1.067774 481.00 492.03 22.00
4035 92.4605 1.067591 476.00 484.45 22.00
4036 92.4809 1.067409 464.00 477.80 22.00
4037 92.5013 1.067227 435.00 472.03 21.00
4038 92.5217 1.067046 454.00 467.00 21.00
4039 92.5422 1.066863 493.00 462.46 22.00
4040 92.5626 1.066681 492.00 458.16 22.00
4041 92.5830 1.066500 437.00 453.78 21.00
4042 92.6034 1.066318 489.00 449.11 22.00
4043 92.6239 1.066136 444.00 444.04 21.00
4044 92.6443 1.065955 478.00 438.55 22.00
4045 92.6647 1.065774 469.00 432.95 22.00
4046 92.6852 1.065592 418.00 427.24 20.00
4047 92.7056 1.065411 429.00 421.66 21.00
4048 92.7260 1.065230 458.00 416.30 21.00
4049 92.7464 1.065049 392.00 411.25 20.00
4050 92.7669 1.064868 395.00 406.62 20.00
4051 92.7873 1.064687 382.00 402.45 20.00
4052 92.8077 1.064507 430.00 398.89 21.00
4053 92.8282 1.064325 418.00 395.96 20.00
4054 92.8486 1.064145 409.00 393.80 20.00
4055 92.8690 1.063965 356.00 392.49 19.00
4056 92.8894 1.063785 391.00 392.08 20.00
4057 92.9099 1.063604 407.00 392.58 20.00
4058 92.9303 1.063424 420.00 393.98 20.00
4059 92.9507 1.063244 418.00 396.27 20.00
4060 92.9712 1.063063 409.00 399.39 20.00
4061 92.9916 1.062884 426.00 403.22 21.00
4062 93.0120 1.062704 445.00 407.66 21.00
4063 93.0324 1.062525 412.00 412.54 20.00
4064 93.0529 1.062345 416.00 417.70 20.00
4065 93.0733 1.062165 442.00 422.79 21.00
4066 93.0937 1.061986 455.00 427.55 21.00
4067 93.1142 1.061806 448.00 431.66 21.00
4068 93.1346 1.061627 426.00 434.76 21.00
4069 93.1550 1.061448 417.00 436.51 20.00
4070 93.1754 1.061270 435.00 437.20 21.00
4071 93.1959 1.061090 469.00 436.78 22.00
4072 93.2163 1.060911 460.00 435.55 21.00
4073 93.2367 1.060733 454.00 433.89 21.00
4074 93.2572 1.060554 456.00 432.20 21.00
4075 93.2776 1.060375 440.00 430.72 21.00
4076 93.2980 1.060197 418.00 430.04 20.00
4077 93.3184 1.060019 440.00 430.24 21.00
4078 93.3389 1.059840 455.00 431.34 21.00
4079 93.3593 1.059662 447.00 433.59 21.00
4080 93.3797 1.059484 440.00 436.81 21.00
4081 93.4002 1.059306 445.00 440.87 21.00
4082 93.4206 1.059128 483.00 445.53 22.00
4083 93.4410 1.058950 486.00 450.48 22.00
4084 93.4614 1.058773 462.00 455.66 21.00
4085 93.4819 1.058595 466.00 460.81 22.00
4086 93.5023 1.058417 416.00 465.82 20.00
4087 93.5227 1.058240 469.00 470.70 22.00
4088 93.5432 1.058062 451.00 475.57 21.00
4089 93.5636 1.057885 483.00 480.50 22.00
4090 93.5840 1.057708 518.00 485.60 23.00
4091 93.6044 1.057531 512.00 491.06 23.00
4092 93.6249 1.057354 514.00 496.82 23.00
4093 93.6453 1.057177 517.00 502.60 23.00
4094 93.6657 1.057001 487.00 508.03 22.00
4095 93.6862 1.056823 485.00 513.19 22.00
4096 93.7066 1.056647 509.00 517.37 23.00
4097 93.7270 1.056471 558.00 520.30 24.00
4098 93.7474 1.056294 496.00 521.88 22.00
4099 93.7679 1.056118 513.00 521.78 23.00
4100 93.7883 1.055941 496.00 520.24 22.00
4101 93.8087 1.055766 505.00 517.47 22.00
4102 93.8292 1.055589 485.00 513.82 22.00
4103 93.8496 1.055413 496.00 509.59 22.00
4104 93.8700 1.055238 519.00 505.17 23.00
4105 93.8904 1.055062 505.00 500.83 22.00
4106 93.9109 1.054886 508.00 496.99 23.00
4107 93.9313 1.054710 472.00 493.50 22.00
4108 93.9517 1.054535 494.00 491.11 22.00
4109 93.9721 1.054360 482.00 489.62 22.00
4110 93.9926 1.054184 502.00 489.13 22.00
4111 94.0130 1.054009 472.00 489.41 22.00
4112 94.0334 1.053834 492.00 490.38 22.00
4113 94.0539 1.053658 447.00 491.97 21.00
4114 94.0743 1.053484 477.00 494.15 22.00
4115 94.0947 1.053309 518.00 496.83 23.00
4116 94.1151 1.053135 510.00 500.29 23.00
4117 94.1356 1.052959 537.00 504.45 23.00
4118 94.1560 1.052785 498.00 509.24 22.00
4119 94.1764 1.052611 526.00 514.55 23.00
4120 94.1969 1.052436 504.00 520.19 22.00
4121 94.2173 1.052262 530.00 525.86 23.00
4122 94.2377 1.052088 532.00 530.88 23.00
4123 94.2581 1.051914 515.00 535.21 23.00
4124 94.2786 1.051739 557.00 538.49 24.00
4125 94.2990 1.051566 534.00 540.34 23.00
4126 94.3194 1.051392 599.00 540.73 24.00
4127 94.3399 1.051218 524.00 539.72 23.00
4128 94.3603 1.051044 526.00 537.59 23.00
4129 94.3807 1.050871 563.00 534.59 24.00
4130 94.4011 1.050697 505.00 530.94 22.00
4131 94.4216 1.050524 497.00 526.96 22.00
4132 94.4420 1.050350 515.00 522.78 23.00
4133 94.4624 1.050177 497.00 518.61 22.00
4134 94.4829 1.050004 499.00 514.43 22.00
4135 94.5033 1.049831 497.00 510.31 22.00
4136 94.5237 1.049658 491.00 506.65 22.00
4137 94.5441 1.049486 517.00 502.91 23.00
4138 94.5646 1.049312 483.00 499.34 22.00
4139 94.5850 1.049140 489.00 495.93 22.00
4140 94.6054 1.048967 477.00 492.63 22.00
4141 94.6259 1.048794 494.00 489.45 22.00
4142 94.6463 1.048622 476.00 486.39 22.00
4143 94.6667 1.048450 492.00 483.56 22.00
4144 94.6871 1.048278 475.00 481.12 22.00
4145 94.7076 1.048105 504.00 478.99 22.00
4146 94.7280 1.047934 475.00 477.48 22.00
4147 94.7484 1.047762 491.00 476.48 22.00
4148 94.7689 1.047589 455.00 476.01 21.00
4149 94.7893 1.047418 484.00 476.06 22.00
4150 94.8097 1.047246 477.00 476.62 22.00
4151 94.8301 1.047075 458.00 477.63 21.00
4152 94.8506 1.046903 435.00 479.03 21.00
4153 94.8710 1.046732 450.00 480.71 21.00
4154 94.8914 1.046561 473.00 482.57 22.00
4155 94.9119 1.046389 457.00 484.61 21.00
4156 94.9323 1.046218 431.00 486.80 21.00
4157 94.9527 1.046047 473.00 489.29 22.00
4158 94.9731 1.045876 477.00 492.05 22.00
4159 94.9936 1.045705 480.00 495.32 22.00
4160 95.0140 1.045534 483.00 498.84 22.00
4161 95.0344 1.045364 501.00 502.67 22.00
4162 95.0549 1.045193 462.00 506.41 21.00
4163 95.0753 1.045022 467.00 509.62 22.00
4164 95.0957 1.044852 484.00 511.74 22.00
4165 95.1161 1.044682 474.00 512.55 22.00
4166 95.1366 1.044511 446.00 511.60 21.00
4167 95.1570 1.044341 466.00 508.72 22.00
4168 95.1774 1.044171 477.00 504.00 22.00
4169 95.1979 1.044001 468.00 497.69 22.00
4170 95.2183 1.043831 464.00 490.22 22.00
4171 95.2387 1.043661 404.00 482.05 20.00
4172 95.2591 1.043492 473.00 473.65 22.00
4173 95.2796 1.043322 436.00 465.27 21.00
4174 95.3000 1.043152 432.00 457.26 21.00
4175 95.3204 1.042983 429.00 449.78 21.00
4176 95.3408 1.042814 424.00 443.20 21.00
4177 95.3613 1.042644 422.00 437.16 21.00
4178 95.3817 1.042475 431.00 431.61 21.00
4179 95.4021 1.042306 393.00 426.26 20.00
4180 95.4226 1.042137 367.00 421.07 19.00
4181 95.4430 1.041968 415.00 415.65 20.00
4182 95.4634 1.041799 408.00 409.99 20.00
4183 95.4838 1.041631 397.00 404.07 20.00
4184 95.5043 1.041462 402.00 397.95 20.00
4185 95.5247 1.041293 376.00 391.87 19.00
4186 95.5451 1.041125 392.00 385.92 20.00
4187 95.5656 1.040956 382.00 380.22 20.00
4188 95.5860 1.040788 333.00 374.94 18.00
4189 95.6064 1.040620 315.00 370.09 18.00
4190 95.6268 1.040452 338.00 365.49 18.00
4191 95.6473 1.040283 360.00 361.39 19.00
4192 95.6677 1.040115 357.00 357.62 19.00
4193 95.6881 1.039948 378.00 354.04 19.00
4194 95.7086 1.039779 351.00 350.62 19.00
4195 95.7290 1.039612 318.00 347.34 18.00
4196 95.7494 1.039445 325.00 344.22 18.00
4197 95.7698 1.039277 339.00 341.07 18.00
4198 95.7903 1.039109 355.00 338.02 19.00
4199 95.8107 1.038942 316.00 335.08 18.00
4200 95.8311 1.038775 304.00 332.53 17.00
4201 95.8516 1.038607 338.00 330.04 18.00
4202 95.8720 1.038440 335.00 328.02 18.00
4203 95.8924 1.038274 288.00 326.19 17.00
4204 95.9128 1.038107 335.00 324.46 18.00
4205 95.9333 1.037940 282.00 322.96 17.00
4206 95.9537 1.037773 292.00 321.61 17.00
4207 95.9741 1.037607 336.00 320.39 18.00
4208 95.9946 1.037439 326.00 319.23 18.00
4209 96.0150 1.037273 327.00 318.10 18.00
4210 96.0354 1.037107 358.00 316.99 19.00
4211 96.0558 1.036941 336.00 315.86 18.00
4212 96.0763 1.036774 300.00 314.73 17.00
4213 96.0967 1.036608 340.00 313.61 18.00
4214 96.1171 1.036442 316.00 312.53 18.00
4215 96.1376 1.036276 311.00 311.48 18.00
4216 96.1580 1.036110 303.00 310.57 17.00
4217 96.1784 1.035944 292.00 309.80 17.00
4218 96.1988 1.035779 320.00 309.15 18.00
4219 96.2193 1.035613 304.00 308.51 17.00
4220 96.2397 1.035447 311.00 308.28 18.00
4221 96.2601 1.035282 329.00 308.25 18.00
4222 96.2806 1.035116 303.00 308.44 17.00
4223 96.3010 1.034951 316.00 308.85 18.00
4224 96.3214 1.034786 299.00 309.59 17.00
4225 96.3418 1.034621 295.00 310.54 17.00
4226 96.3623 1.034456 324.00 311.67 18.00
4227 96.3827 1.034291 296.00 313.05 17.00
4228 96.4031 1.034126 306.00 314.70 17.00
4229 96.4236 1.033961 316.00 316.65 18.00
4230 96.4440 1.033796 329.00 318.89 18.00
4231 96.4644 1.033632 341.00 321.46 18.00
4232 96.4848 1.033468 355.00 324.38 19.00
4233 96.5053 1.033303 352.00 327.67 19.00
4234 96.5257 1.033139 343.00 331.31 19.00
4235 96.5461 1.032975 330.00 335.26 18.00
4236 96.5665 1.032811 345.00 339.69 19.00
4237 96.5870 1.032646 358.00 344.52 19.00
4238 96.6074 1.032482 333.00 349.69 18.00
4239 96.6278 1.032319 366.00 355.11 19.00
4240 96.6483 1.032154 388.00 360.87 20.00
4241 96.6687 1.031991 369.00 366.76 19.00
4242 96.6891 1.031827 367.00 372.70 19.00
4243 96.7095 1.031664 372.00 378.52 19.00
4244 96.7300 1.031500 413.00 384.11 20.00
4245 96.7504 1.031337 372.00 389.21 19.00
4246 96.7708 1.031173 423.00 393.62 21.00
4247 96.7913 1.031010 449.00 397.26 21.00
4248 96.8117 1.030847 431.00 400.00 21.00
4249 96.8321 1.030684 418.00 401.45 20.00
4250 96.8525 1.030521 395.00 402.18 20.00
4251 96.8730 1.030357 442.00 402.10 21.00
4252 96.8934 1.030195 393.00 401.36 20.00
4253 96.9138 1.030032 412.00 400.17 20.00
4254 96.9343 1.029869 393.00 398.93 20.00
4255 96.9547 1.029707 400.00 397.60 20.00
4256 96.9751 1.029544 393.00 396.51 20.00
4257 96.9955 1.029382 437.00 395.71 21.00
4258 97.0160 1.029219 390.00 395.29 20.00
4259 97.0364 1.029058 443.00 395.24 21.00
4260 97.0568 1.028895 371.00 395.55 19.00
4261 97.0773 1.028733 396.00 396.13 20.00
4262 97.0977 1.028571 377.00 396.85 19.00
4263 97.1181 1.028409 426.00 397.65 21.00
4264 97.1385 1.028248 392.00 398.45 20.00
4265 97.1590 1.028085 380.00 399.04 19.00
4266 97.1794 1.027924 402.00 399.62 20.00
4267 97.1998 1.027763 407.00 400.12 20.00
4268 97.2203 1.027601 420.00 400.60 20.00
4269 97.2407 1.027439 405.00 401.24 20.00
4270 97.2611 1.027278 393.00 402.17 20.00
4271 97.2815 1.027117 390.00 403.52 20.00
4272 97.3020 1.026956 422.00 405.47 21.00
4273 97.3224 1.026795 413.00 408.08 20.00
4274 97.3428 1.026634 420.00 411.38 20.00
4275 97.3633 1.026473 443.00 415.38 21.00
4276 97.3837 1.026312 444.00 419.79 21.00
4277 97.4041 1.026151 415.00 424.71 20.00
4278 97.4245 1.025991 410.00 429.86 20.00
4279 97.4450 1.025830 430.00 434.51 21.00
4280 97.4654 1.025670 467.00 438.88 22.00
4281 97.4858 1.025509 415.00 442.41 20.00
4282 97.5063 1.025349 432.00 444.84 21.00
4283 97.5267 1.025188 441.00 445.98 21.00
4284 97.5471 1.025029 421.00 445.80 21.00
4285 97.5675 1.024869 450.00 444.43 21.00
4286 97.5880 1.024708 461.00 441.90 21.00
4287 97.6084 1.024549 405.00 438.74 20.00
4288 97.6288 1.024389 408.00 435.09 20.00
4289 97.6493 1.024228 427.00 431.18 21.00
4290 97.6697 1.024069 425.00 427.26 21.00
4291 97.6901 1.023910 404.00 423.50 20.00
4292 97.7105 1.023750 412.00 419.97 20.00
4293 97.7310 1.023590 410.00 416.82 20.00
4294 97.7514 1.023431 395.00 414.10 20.00
4295 97.7718 1.023272 412.00 411.49 20.00
4296 97.7923 1.023113 405.00 409.21 20.00
4297 97.8127 1.022954 402.00 407.02 20.00
4298 97.8331 1.022795 393.00 404.81 20.00
4299 97.8535 1.022636 393.00 402.46 20.00
4300 97.8740 1.022477 429.00 399.91 21.00
4301 97.8944 1.022318 413.00 397.16 20.00
4302 97.9148 1.022160 400.00 394.10 20.00
4303 97.9352 1.022001 408.00 390.93 20.00
4304 97.9557 1.021842 406.00 387.55 20.00
4305 97.9761 1.021684 391.00 384.02 20.00
4306 97.9965 1.021526 412.00 380.36 20.00
4307 98.0170 1.021367 382.00 376.59 20.00
4308 98.0374 1.021209 419.00 373.26 20.00
4309 98.0578 1.021051 384.00 369.59 20.00
4310 98.0782 1.020894 370.00 366.08 19.00
4311 98.0987 1.020735 417.00 362.85 20.00
4312 98.1191 1.020577 377.00 360.03 19.00
4313 98.1395 1.020420 370.00 357.67 19.00
4314 98.1600 1.020262 339.00 355.85 18.00
4315 98.1804 1.020104 408.00 354.58 20.00
4316 98.2008 1.019947 385.00 353.88 20.00
4317 98.2212 1.019790 372.00 353.70 19.00
4318 98.2417 1.019632 377.00 354.02 19.00
4319 98.2621 1.019475 382.00 354.79 20.00
4320 98.2825 1.019318 346.00 355.91 19.00
4321 98.3030 1.019160 403.00 357.17 20.00
4322 98.3234 1.019003 372.00 358.53 19.00
4323 98.3438 1.018846 367.00 360.14 19.00
4324 98.3642 1.018690 351.00 361.73 19.00
4325 98.3847 1.018532 362.00 363.21 19.00
4326 98.4051 1.018376 380.00 364.47 19.00
4327 98.4255 1.018219 406.00 365.64 20.00
4328 98.4460 1.018062 362.00 366.67 19.00
4329 98.4664 1.017906 365.00 367.58 19.00
4330 98.4868 1.017750 367.00 368.43 19.00
4331 98.5072 1.017594 367.00 369.32 19.00
4332 98.5277 1.017437 358.00 370.27 19.00
4333 98.5481 1.017281 383.00 371.42 20.00
4334 98.5685 1.017125 363.00 372.80 19.00
4335 98.5890 1.016968 383.00 374.58 20.00
4336 98.6094 1.016813 379.00 376.78 19.00
4337 98.6298 1.016657 374.00 379.43 19.00
4338 98.6502 1.016502 413.00 382.70 20.00
4339 98.6707 1.016345 386.00 386.60 20.00
4340 98.6911 1.016190 378.00 391.15 19.00
4341 98.7115 1.016034 390.00 396.34 20.00
4342 98.7320 1.015879 376.00 402.16 19.00
4343 98.7524 1.015723 391.00 408.50 20.00
4344 98.7728 1.015568 399.00 415.41 20.00
4345 98.7932 1.015413 412.00 422.58 20.00
4346 98.8137 1.015258 423.00 429.98 21.00
4347 98.8341 1.015103 401.00 437.42 20.00
4348 98.8545 1.014948 402.00 444.53 20.00
4349 98.8750 1.014793 456.00 451.18 21.00
4350 98.8954 1.014638 464.00 456.95 22.00
4351 98.9158 1.014483 483.00 461.68 22.00
4352 98.9362 1.014329 485.00 465.09 22.00
4353 98.9567 1.014174 475.00 467.12 22.00
4354 98.9771 1.014020 462.00 467.70 21.00
4355 98.9975 1.013865 454.00 466.63 21.00
4356 99.0180 1.013711 458.00 464.21 21.00
4357 99.0384 1.013557 454.00 460.76 21.00
4358 99.0588 1.013403 433.00 456.53 21.00
4359 99.0792 1.013249 409.00 451.86 20.00
4360 99.0997 1.013094 438.00 447.06 21.00
4361 99.1201 1.012940 402.00 442.45 20.00
4362 99.1405 1.012787 440.00 438.18 21.00
4363 99.1609 1.012633 432.00 434.36 21.00
4364 99.1814 1.012479 421.00 431.01 21.00
4365 99.2018 1.012326 436.00 428.11 21.00
4366 99.2222 1.012172 429.00 425.53 21.00
4367 99.2427 1.012018 412.00 423.34 20.00
4368 99.2631 1.011865 401.00 421.04 20.00
4369 99.2835 1.011712 411.00 418.67 20.00
4370 99.3039 1.011559 394.00 416.10 20.00
4371 99.3244 1.011405 417.00 413.26 20.00
4372 99.3448 1.011252 395.00 410.13 20.00
4373 99.3652 1.011100 391.00 406.66 20.00
4374 99.3857 1.010946 410.00 402.96 20.00
4375 99.4061 1.010793 399.00 398.93 20.00
4376 99.4265 1.010641 377.00 394.72 19.00
4377 99.4469 1.010489 415.00 390.37 20.00
4378 99.4674 1.010335 403.00 385.98 20.00
4379 99.4878 1.010183 370.00 381.68 19.00
4380 99.5082 1.010031 403.00 377.58 20.00
4381 99.5287 1.009878 387.00 373.77 20.00
4382 99.5491 1.009726 348.00 370.38 19.00
4383 99.5695 1.009574 337.00 367.49 18.00
4384 99.5899 1.009422 384.00 365.14 20.00
4385 99.6104 1.009269 353.00 363.36 19.00
4386 99.6308 1.009117 357.00 362.13 19.00
4387 99.6512 1.008966 376.00 361.40 19.00
4388 99.6717 1.008814 348.00 361.11 19.00
4389 99.6921 1.008662 368.00 361.14 19.00
4390 99.7125 1.008510 345.00 361.39 19.00
4391 99.7329 1.008359 362.00 361.76 19.00
4392 99.7534 1.008207 355.00 362.09 19.00
4393 99.7738 1.008056 351.00 362.36 19.00
4394 99.7942 1.007905 346.00 362.50 19.00
4395 99.8147 1.007753 370.00 362.56 19.00
4396 99.8351 1.007602 329.00 362.57 18.00
4397 99.8555 1.007451 357.00 362.61 19.00
4398 99.8759 1.007300 392.00 362.75 20.00
4399 99.8964 1.007149 347.00 363.04 19.00
4400 99.9168 1.006998 394.00 363.55 20.00
4401 99.9372 1.006847 346.00 364.33 19.00
4402 99.9577 1.006696 352.00 365.46 19.00
4403 99.9781 1.006546 360.00 366.68 19.00
4404 99.9985 1.006395 354.00 368.11 19.00
4405 100.0189 1.006245 390.00 369.51 20.00
4406 100.0394 1.006094 382.00 370.73 20.00
4407 100.0598 1.005944 377.00 371.63 19.00
4408 100.0802 1.005794 397.00 372.01 20.00
4409 100.1007 1.005643 355.00 372.05 19.00
4410 100.1211 1.005493 378.00 371.54 19.00
4411 100.1415 1.005343 379.00 370.60 19.00
4412 100.1619 1.005193 385.00 369.26 20.00
4413 100.1824 1.005043 344.00 367.53 19.00
4414 100.2028 1.004894 391.00 365.62 20.00
4415 100.2232 1.004744 373.00 363.87 19.00
4416 100.2437 1.004594 382.00 361.74 20.00
4417 100.2641 1.004444 363.00 359.61 19.00
4418 100.2845 1.004295 302.00 357.62 17.00
4419 100.3049 1.004146 326.00 355.53 18.00
4420 100.3254 1.003996 346.00 353.47 19.00
4421 100.3458 1.003847 354.00 351.45 19.00
4422 100.3662 1.003698 356.00 349.44 19.00
4423 100.3867 1.003548 339.00 347.45 18.00
4424 100.4071 1.003399 342.00 345.50 18.00
4425 100.4275 1.003251 365.00 343.49 19.00
4426 100.4479 1.003102 354.00 341.53 19.00
4427 100.4684 1.002953 367.00 339.55 19.00
4428 100.4888 1.002804 361.00 337.66 19.00
4429 100.5092 1.002656 328.00 335.80 18.00
4430 100.5296 1.002507 343.00 334.14 19.00
4431 100.5501 1.002358 298.00 332.64 17.00
4432 100.5705 1.002210 325.00 331.36 18.00
4433 100.5909 1.002062 316.00 330.33 18.00
4434 100.6114 1.001913 310.00 329.55 18.00
4435 100.6318 1.001765 315.00 329.08 18.00
4436 100.6522 1.001617 352.00 328.89 19.00
4437 100.6726 1.001469 308.00 329.03 18.00
4438 100.6931 1.001321 324.00 329.53 18.00
4439 100.7135 1.001173 330.00 330.38 18.00
4440 100.7339 1.001025 336.00 331.64 18.00
4441 100.7544 1.000877 331.00 333.36 18.00
4442 100.7748 1.000729 293.00 335.61 17.00
4443 100.7952 1.000582 333.00 338.18 18.00
4444 100.8156 1.000435 337.00 341.13 18.00
4445 100.8361 1.000287 336.00 344.53 18.00
4446 100.8565 1.000140 316.00 348.07 18.00
4447 100.8769 0.999992 341.00 352.15 18.00
4448 100.8974 0.999845 344.00 356.52 19.00
4449 100.9178 0.999698 325.00 361.15 18.00
4450 100.9382 0.999551 360.00 365.86 19.00
4451 100.9586 0.999404 348.00 370.74 19.00
4452 100.9791 0.999257 371.00 375.73 19.00
4453 100.9995 0.999110 384.00 380.95 20.00
4454 101.0199 0.998963 339.00 386.48 18.00
4455 101.0404 0.998816 396.00 392.46 20.00
4456 101.0608 0.998670 391.00 398.92 20.00
4457 101.0812 0.998523 403.00 405.90 20.00
4458 101.1016 0.998377 393.00 413.46 20.00
4459 101.1221 0.998230 423.00 421.60 21.00
4460 101.1425 0.998084 413.00 430.12 20.00
4461 101.1629 0.997938 432.00 438.89 21.00
4462 101.1834 0.997791 435.00 447.69 21.00
4463 101.2038 0.997645 454.00 455.98 21.00
4464 101.2242 0.997499 497.00 463.59 22.00
4465 101.2446 0.997354 453.00 470.11 21.00
4466 101.2651 0.997207 443.00 475.02 21.00
4467 101.2855 0.997062 458.00 477.97 21.00
4468 101.3059 0.996916 423.00 478.98 21.00
4469 101.3264 0.996770 462.00 478.05 21.00
4470 101.3468 0.996625 429.00 475.51 21.00
4471 101.3672 0.996479 473.00 471.71 22.00
4472 101.3876 0.996334 505.00 467.03 22.00
4473 101.4081 0.996188 470.00 461.96 22.00
4474 101.4285 0.996043 453.00 456.87 21.00
4475 101.4489 0.995898 474.00 452.02 22.00
4476 101.4694 0.995752 426.00 447.61 21.00
4477 101.4898 0.995607 425.00 443.79 21.00
4478 101.5102 0.995463 425.00 440.51 21.00
4479 101.5306 0.995318 465.00 437.76 22.00
4480 101.5511 0.995173 400.00 435.38 20.00
4481 101.5715 0.995028 450.00 433.25 21.00
4482 101.5919 0.994883 448.00 431.15 21.00
4483 101.6124 0.994738 405.00 428.91 20.00
4484 101.6328 0.994594 433.00 426.40 21.00
4485 101.6532 0.994450 413.00 423.55 20.00
4486 101.6736 0.994305 431.00 420.35 21.00
4487 101.6941 0.994161 442.00 416.86 21.00
4488 101.7145 0.994017 408.00 413.29 20.00
4489 101.7349 0.993873 405.00 409.74 20.00
4490 101.7553 0.993729 434.00 406.37 21.00
4491 101.7758 0.993584 435.00 403.30 21.00
4492 101.7962 0.993440 388.00 400.77 20.00
4493 101.8166 0.993297 386.00 398.80 20.00
4494 101.8371 0.993152 415.00 397.47 20.00
4495 101.8575 0.993009 403.00 396.85 20.00
4496 101.8779 0.992865 388.00 396.93 20.00
4497 101.8983 0.992722 440.00 397.83 21.00
4498 101.9188 0.992578 396.00 399.49 20.00
4499 101.9392 0.992435 407.00 401.91 20.00
4500 101.9596 0.992291 399.00 405.05 20.00
4501 101.9801 0.992148 403.00 408.86 20.00
4502 102.0005 0.992004 429.00 413.22 21.00
4503 102.0209 0.991862 425.00 418.08 21.00
4504 102.0413 0.991719 416.00 423.29 20.00
4505 102.0618 0.991575 448.00 428.74 21.00
4506 102.0822 0.991432 428.00 434.21 21.00
4507 102.1026 0.991290 406.00 439.58 20.00
4508 102.1231 0.991146 495.00 444.89 22.00
4509 102.1435 0.991004 471.00 449.56 22.00
4510 102.1639 0.990861 472.00 453.71 22.00
4511 102.1843 0.990719 432.00 457.18 21.00
4512 102.2048 0.990576 473.00 459.96 22.00
4513 102.2252 0.990434 490.00 461.78 22.00
4514 102.2456 0.990292 437.00 462.70 21.00
4515 102.2661 0.990149 492.00 462.80 22.00
4516 102.2865 0.990007 482.00 462.11 22.00
4517 102.3069 0.989865 452.00 460.80 21.00
4518 102.3273 0.989723 447.00 458.94 21.00
4519 102.3478 0.989580 438.00 456.84 21.00
4520 102.3682 0.989439 441.00 454.75 21.00
4521 102.3886 0.989297 461.00 452.74 21.00
4522 102.4091 0.989155 470.00 450.78 22.00
4523 102.4295 0.989013 426.00 449.29 21.00
4524 102.4499 0.988872 464.00 448.08 22.00
4525 102.4703 0.988730 466.00 447.27 22.00
4526 102.4908 0.988588 502.00 446.75 22.00
4527 102.5112 0.988447 429.00 446.48 21.00
4528 102.5316 0.988306 450.00 446.36 21.00
4529 102.5521 0.988164 447.00 446.26 21.00
4530 102.5725 0.988023 454.00 446.05 21.00
4531 102.5929 0.987882 458.00 445.61 21.00
4532 102.6133 0.987741 463.00 444.82 22.00
4533 102.6338 0.987600 448.00 443.54 21.00
4534 102.6542 0.987459 435.00 441.68 21.00
4535 102.6746 0.987318 409.00 439.14 20.00
4536 102.6951 0.987177 428.00 435.95 21.00
4537 102.7155 0.987037 426.00 432.19 21.00
4538 102.7359 0.986896 401.00 427.89 20.00
4539 102.7563 0.986756 404.00 423.25 20.00
4540 102.7768 0.986615 409.00 418.27 20.00
4541 102.7972 0.986475 410.00 413.36 20.00
4542 102.8176 0.986334 437.00 408.60 21.00
4543 102.8381 0.986194 456.00 404.14 21.00
4544 102.8585 0.986054 380.00 400.22 19.00
4545 102.8789 0.985914 357.00 396.79 19.00
4546 102.8993 0.985774 409.00 393.86 20.00
4547 102.9198 0.985633 364.00 391.59 19.00
4548 102.9402 0.985493 410.00 389.97 20.00
4549 102.9606 0.985354 426.00 389.33 21.00
4550 102.9811 0.985214 401.00 388.89 20.00
4551 103.0015 0.985074 384.00 389.15 20.00
4552 103.0219 0.984935 412.00 389.72 20.00
4553 103.0423 0.984795 400.00 390.71 20.00
4554 103.0628 0.984655 400.00 392.08 20.00
4555 103.0832 0.984516 372.00 393.78 19.00
4556 103.1036 0.984377 411.00 395.81 20.00
4557 103.1240 0.984238 407.00 398.19 20.00
4558 103.1445 0.984098 396.00 400.93 20.00
4559 103.1649 0.983959 403.00 404.11 20.00
4560 103.1853 0.983820 445.00 407.58 21.00
4561 103.2058 0.983681 362.00 411.33 19.00
4562 103.2262 0.983542 361.00 415.41 19.00
4563 103.2466 0.983403 413.00 419.69 20.00
4564 103.2670 0.983265 368.00 424.11 19.00
4565 103.2875 0.983125 415.00 428.63 20.00
4566 103.3079 0.982987 426.00 432.94 21.00
4567 103.3283 0.982849 415.00 437.06 20.00
4568 103.3488 0.982710 424.00 440.87 21.00
4569 103.3692 0.982571 447.00 444.29 21.00
4570 103.3896 0.982433 446.00 447.34 21.00
4571 103.4100 0.982295 487.00 450.09 22.00
4572 103.4305 0.982156 447.00 452.68 21.00
4573 103.4509 0.982018 426.00 455.18 21.00
4574 103.4713 0.981880 440.00 457.76 21.00
4575 103.4918 0.981742 446.00 460.52 21.00
4576 103.5122 0.981604 433.00 463.50 21.00
4577 103.5326 0.981466 468.00 466.67 22.00
4578 103.5530 0.981329 491.00 469.90 22.00
4579 103.5735 0.981191 457.00 473.37 21.00
4580 103.5939 0.981053 444.00 476.34 21.00
4581 103.6143 0.980916 457.00 478.76 21.00
4582 103.6348 0.980778 511.00 480.62 23.00
4583 103.6552 0.980640 449.00 481.42 21.00
4584 103.6756 0.980503 477.00 481.07 22.00
4585 103.6960 0.980366 467.00 479.61 22.00
4586 103.7165 0.980228 491.00 477.10 22.00
4587 103.7369 0.980091 477.00 473.68 22.00
4588 103.7573 0.979954 477.00 469.59 22.00
4589 103.7778 0.979817 454.00 465.11 21.00
4590 103.7982 0.979680 462.00 460.55 21.00
4591 103.8186 0.979543 439.00 456.14 21.00
4592 103.8390 0.979407 443.00 452.08 21.00
4593 103.8595 0.979269 428.00 448.55 21.00
4594 103.8799 0.979133 426.00 445.68 21.00
4595 103.9003 0.978996 469.00 443.50 22.00
4596 103.9208 0.978859 414.00 441.97 20.00
4597 103.9412 0.978723 428.00 441.11 21.00
4598 103.9616 0.978587 468.00 440.78 22.00
4599 103.9820 0.978451 426.00 440.86 21.00
4600 104.0025 0.978314 453.00 441.30 21.00
4601 104.0229 0.978178 405.00 441.94 20.00
4602 104.0433 0.978042 441.00 442.71 21.00
4603 104.0638 0.977905 410.00 443.56 20.00
4604 104.0842 0.977770 436.00 444.42 21.00
4605 104.1046 0.977634 450.00 446.09 21.00
4606 104.1250 0.977498 461.00 446.89 21.00
4607 104.1455 0.977362 439.00 447.58 21.00
4608 104.1659 0.977226 455.00 448.08 21.00
4609 104.1863 0.977091 449.00 448.31 21.00
4610 104.2068 0.976955 428.00 448.57 21.00
4611 104.2272 0.976819 422.00 448.12 21.00
4612 104.2476 0.976684 471.00 447.33 22.00
4613 104.2680 0.976549 444.00 446.26 21.00
4614 104.2885 0.976413 435.00 444.99 21.00
4615 104.3089 0.976278 441.00 443.63 21.00
4616 104.3293 0.976143 422.00 442.27 21.00
4617 104.3497 0.976008 419.00 441.05 20.00
4618 104.3702 0.975873 410.00 439.91 20.00
4619 104.3906 0.975738 416.00 438.95 20.00
4620 104.4110 0.975603 403.00 438.20 20.00
4621 104.4315 0.975468 417.00 437.69 20.00
4622 104.4519 0.975333 425.00 437.41 21.00
4623 104.4723 0.975199 437.00 437.36 21.00
4624 104.4927 0.975064 468.00 437.53 22.00
4625 104.5132 0.974929 431.00 437.80 21.00
4626 104.5336 0.974795 449.00 438.28 21.00
4627 104.5540 0.974660 496.00 438.83 22.00
4628 104.5745 0.974526 439.00 439.39 21.00
4629 104.5949 0.974392 438.00 439.88 21.00
4630 104.6153 0.974257 457.00 440.26 21.00
4631 104.6357 0.974124 466.00 440.41 22.00
4632 104.6562 0.973989 506.00 440.28 22.00
4633 104.6766 0.973855 449.00 439.78 21.00
4634 104.6970 0.973721 410.00 438.84 20.00
4635 104.7175 0.973587 423.00 437.37 21.00
4636 104.7379 0.973453 427.00 435.35 21.00
4637 104.7583 0.973320 442.00 432.75 21.00
4638 104.7787 0.973186 416.00 429.60 20.00
4639 104.7992 0.973052 422.00 425.95 21.00
4640 104.8196 0.972919 422.00 421.92 21.00
4641 104.8400 0.972786 431.00 417.65 21.00
4642 104.8605 0.972652 391.00 412.78 20.00
4643 104.8809 0.972518 427.00 408.22 21.00
4644 104.9013 0.972385 435.00 403.77 21.00
4645 104.9217 0.972252 404.00 399.47 20.00
4646 104.9422 0.972119 368.00 395.35 19.00
4647 104.9626 0.971986 418.00 391.51 20.00
4648 104.9830 0.971853 380.00 387.94 19.00
4649 105.0035 0.971720 367.00 384.60 19.00
4650 105.0239 0.971587 367.00 381.49 19.00
4651 105.0443 0.971454 394.00 378.56 20.00
4652 105.0647 0.971322 409.00 375.75 20.00
4653 105.0852 0.971189 371.00 373.01 19.00
4654 105.1056 0.971056 408.00 370.36 20.00
4655 105.1260 0.970924 361.00 367.70 19.00
4656 105.1465 0.970791 382.00 365.06 20.00
4657 105.1669 0.970658 362.00 362.46 19.00
4658 105.1873 0.970526 371.00 359.92 19.00
4659 105.2077 0.970394 375.00 357.47 19.00
4660 105.2282 0.970262 383.00 354.95 20.00
4661 105.2486 0.970130 370.00 352.84 19.00
4662 105.2690 0.969998 395.00 350.92 20.00
4663 105.2895 0.969865 415.00 349.20 20.00
4664 105.3099 0.969734 345.00 347.96 19.00
4665 105.3303 0.969602 365.00 346.79 19.00
4666 105.3507 0.969470 331.00 345.90 18.00
4667 105.3712 0.969338 365.00 345.32 19.00
4668 105.3916 0.969207 395.00 345.05 20.00
4669 105.4120 0.969075 339.00 345.07 18.00
4670 105.4325 0.968943 342.00 345.43 18.00
4671 105.4529 0.968812 318.00 346.11 18.00
4672 105.4733 0.968681 361.00 347.12 19.00
4673 105.4937 0.968549 350.00 348.52 19.00
4674 105.5142 0.968418 371.00 350.18 19.00
4675 105.5346 0.968287 368.00 352.22 19.00
4676 105.5550 0.968156 371.00 354.45 19.00
4677 105.5755 0.968024 331.00 356.93 18.00
4678 105.5959 0.967893 416.00 359.57 20.00
4679 105.6163 0.967763 382.00 362.31 20.00
4680 105.6367 0.967632 363.00 365.08 19.00
4681 105.6572 0.967501 370.00 367.73 19.00
4682 105.6776 0.967370 402.00 370.10 20.00
4683 105.6980 0.967239 399.00 372.21 20.00
4684 105.7184 0.967109 350.00 373.83 19.00
4685 105.7389 0.966978 420.00 374.90 20.00
4686 105.7593 0.966848 410.00 375.52 20.00
4687 105.7797 0.966717 414.00 375.93 20.00
4688 105.8002 0.966587 389.00 375.64 20.00
4689 105.8206 0.966457 373.00 375.14 19.00
4690 105.8410 0.966326 376.00 374.51 19.00
4691 105.8614 0.966197 394.00 373.82 20.00
4692 105.8819 0.966066 374.00 373.20 19.00
4693 105.9023 0.965936 416.00 372.75 20.00
4694 105.9227 0.965806 437.00 372.68 21.00
4695 105.9432 0.965676 374.00 372.95 19.00
4696 105.9636 0.965546 400.00 373.59 20.00
4697 105.9840 0.965417 421.00 374.62 21.00
4698 106.0044 0.965287 393.00 376.01 20.00
4699 106.0249 0.965157 409.00 377.80 20.00
4700 106.0453 0.965028 406.00 379.90 20.00
4701 106.0657 0.964898 409.00 382.33 20.00
4702 106.0862 0.964769 393.00 385.05 20.00
4703 106.1066 0.964639 390.00 388.15 20.00
4704 106.1270 0.964510 404.00 391.51 20.00
4705 106.1474 0.964381 423.00 395.01 21.00
4706 106.1679 0.964252 442.00 398.83 21.00
4707 106.1883 0.964123 442.00 403.02 21.00
4708 106.2087 0.963994 448.00 407.63 21.00
4709 106.2292 0.963864 427.00 412.72 21.00
4710 106.2496 0.963736 427.00 418.27 21.00
4711 106.2700 0.963607 425.00 424.33 21.00
4712 106.2904 0.963478 462.00 430.86 21.00
4713 106.3109 0.963349 474.00 437.94 22.00
4714 106.3313 0.963221 471.00 445.37 22.00
4715 106.3517 0.963092 507.00 453.13 23.00
4716 106.3722 0.962963 516.00 460.99 23.00
4717 106.3926 0.962835 490.00 469.05 22.00
4718 106.4130 0.962707 507.00 477.14 23.00
4719 106.4334 0.962579 491.00 485.05 22.00
4720 106.4539 0.962450 516.00 492.70 23.00
4721 106.4743 0.962322 520.00 499.86 23.00
4722 106.4947 0.962194 515.00 506.39 23.00
4723 106.5152 0.962066 547.00 512.14 23.00
4724 106.5356 0.961938 541.00 516.97 23.00
4725 106.5560 0.961810 534.00 520.72 23.00
4726 106.5764 0.961682 554.00 523.33 24.00
4727 106.5969 0.961554 553.00 524.82 24.00
4728 106.6173 0.961426 536.00 525.30 23.00
4729 106.6377 0.961299 547.00 524.90 23.00
4730 106.6582 0.961171 505.00 523.83 22.00
4731 106.6786 0.961043 540.00 522.26 23.00
4732 106.6990 0.960916 507.00 520.39 23.00
4733 106.7194 0.960789 553.00 518.36 24.00
4734 106.7399 0.960661 498.00 516.36 22.00
4735 106.7603 0.960534 531.00 514.26 23.00
4736 106.7807 0.960407 506.00 512.33 22.00
4737 106.8012 0.960279 531.00 510.54 23.00
4738 106.8216 0.960152 512.00 509.16 23.00
4739 106.8420 0.960025 520.00 507.85 23.00
4740 106.8624 0.959899 494.00 506.50 22.00
4741 106.8829 0.959771 539.00 505.28 23.00
4742 106.9033 0.959645 502.00 504.26 22.00
4743 106.9237 0.959518 485.00 503.26 22.00
4744 106.9441 0.959392 554.00 502.29 24.00
4745 106.9646 0.959264 491.00 501.37 22.00
4746 106.9850 0.959138 517.00 500.47 23.00
4747 107.0054 0.959012 443.00 499.64 21.00
4748 107.0259 0.958885 449.00 498.92 21.00
4749 107.0463 0.958759 491.00 498.31 22.00
4750 107.0667 0.958632 478.00 497.89 22.00
4751 107.0871 0.958506 468.00 497.72 22.00
4752 107.1076 0.958380 500.00 497.84 22.00
4753 107.1280 0.958254 508.00 498.24 23.00
4754 107.1484 0.958128 514.00 498.86 23.00
4755 107.1689 0.958001 489.00 499.63 22.00
4756 107.1893 0.957876 506.00 500.44 22.00
4757 107.2097 0.957750 511.00 501.18 23.00
4758 107.2301 0.957624 509.00 501.72 23.00
4759 107.2506 0.957498 488.00 501.96 22.00
4760 107.2710 0.957372 477.00 501.85 22.00
4761 107.2914 0.957247 474.00 501.38 22.00
4762 107.3119 0.957121 501.00 500.65 22.00
4763 107.3323 0.956996 510.00 499.71 23.00
4764 107.3527 0.956870 493.00 498.86 22.00
4765 107.3731 0.956745 508.00 498.10 23.00
4766 107.3936 0.956619 537.00 497.45 23.00
4767 107.4140 0.956494 509.00 497.62 23.00
4768 107.4344 0.956369 491.00 498.53 22.00
4769 107.4549 0.956244 474.00 500.27 22.00
4770 107.4753 0.956119 514.00 503.07 23.00
4771 107.4957 0.955994 516.00 506.89 23.00
4772 107.5161 0.955869 503.00 511.85 22.00
4773 107.5366 0.955744 557.00 517.92 24.00
4774 107.5570 0.955619 506.00 525.02 22.00
4775 107.5774 0.955495 515.00 533.09 23.00
4776 107.5979 0.955370 521.00 542.13 23.00
4777 107.6183 0.955245 502.00 551.80 22.00
4778 107.6387 0.955121 539.00 562.01 23.00
4779 107.6591 0.954996 571.00 572.58 24.00
4780 107.6796 0.954872 626.00 583.39 25.00
4781 107.7000 0.954747 572.00 594.07 24.00
4782 107.7204 0.954623 583.00 604.48 24.00
4783 107.7409 0.954499 604.00 614.45 25.00
4784 107.7613 0.954375 622.00 623.65 25.00
4785 107.7817 0.954251 610.00 631.80 25.00
4786 107.8021 0.954127 640.00 638.97 25.00
4787 107.8226 0.954002 646.00 644.83 25.00
4788 107.8430 0.953878 634.00 649.17 25.00
4789 107.8634 0.953755 632.00 651.92 25.00
4790 107.8839 0.953631 671.00 653.03 26.00
4791 107.9043 0.953507 622.00 652.51 25.00
4792 107.9247 0.953383 597.00 650.49 24.00
4793 107.9451 0.953260 616.00 647.14 25.00
4794 107.9656 0.953136 634.00 642.64 25.00
4795 107.9860 0.953013 656.00 637.24 26.00
4796 108.0064 0.952889 644.00 631.31 25.00
4797 108.0269 0.952766 613.00 624.90 25.00
4798 108.0473 0.952642 571.00 618.29 24.00
4799 108.0677 0.952519 634.00 611.55 25.00
4800 108.0881 0.952396 641.00 604.77 25.00
4801 108.1086 0.952273 586.00 597.98 24.00
4802 108.1290 0.952150 612.00 591.28 25.00
4803 108.1494 0.952027 569.00 584.62 24.00
4804 108.1699 0.951904 603.00 577.87 25.00
4805 108.1903 0.951781 583.00 571.19 24.00
4806 108.2107 0.951658 574.00 564.42 24.00
4807 108.2311 0.951536 558.00 557.46 24.00
4808 108.2516 0.951413 504.00 550.23 22.00
4809 108.2720 0.951290 524.00 542.77 23.00
4810 108.2924 0.951168 488.00 534.95 22.00
4811 108.3128 0.951045 495.00 526.86 22.00
4812 108.3333 0.950923 505.00 518.49 22.00
4813 108.3537 0.950800 532.00 510.01 23.00
4814 108.3741 0.950678 464.00 501.44 22.00
4815 108.3946 0.950556 521.00 492.80 23.00
4816 108.4150 0.950434 507.00 484.39 23.00
4817 108.4354 0.950312 489.00 476.15 22.00
4818 108.4558 0.950190 481.00 468.14 22.00
4819 108.4763 0.950067 475.00 460.40 22.00
4820 108.4967 0.949945 439.00 453.06 21.00
4821 108.5171 0.949824 415.00 446.11 20.00
4822 108.5376 0.949701 449.00 439.49 21.00
4823 108.5580 0.949580 469.00 433.46 22.00
4824 108.5784 0.949458 409.00 427.91 20.00
4825 108.5988 0.949337 425.00 422.88 21.00
4826 108.6193 0.949215 405.00 418.34 20.00
4827 108.6397 0.949093 400.00 414.36 20.00
4828 108.6601 0.948972 393.00 410.98 20.00
4829 108.6806 0.948850 385.00 408.15 20.00
4830 108.7010 0.948729 394.00 405.95 20.00
4831 108.7214 0.948608 386.00 404.59 20.00
4832 108.7418 0.948487 403.00 403.61 20.00
4833 108.7623 0.948365 396.00 403.24 20.00
4834 108.7827 0.948245 398.00 403.76 20.00
4835 108.8031 0.948124 444.00 404.68 21.00
4836 108.8236 0.948002 407.00 406.06 20.00
4837 108.8440 0.947882 396.00 408.00 20.00
4838 108.8644 0.947761 392.00 410.37 20.00
4839 108.8848 0.947640 453.00 413.15 21.00
4840 108.9053 0.947519 385.00 416.27 20.00
4841 108.9257 0.947399 422.00 419.63 21.00
4842 108.9461 0.947278 413.00 423.28 20.00
4843 108.9666 0.947157 425.00 426.95 21.00
4844 108.9870 0.947037 439.00 430.61 21.00
4845 109.0074 0.946917 420.00 434.20 20.00
4846 109.0278 0.946796 406.00 437.65 20.00
4847 109.0483 0.946676 447.00 440.97 21.00
4848 109.0687 0.946556 458.00 444.07 21.00
4849 109.0891 0.946436 444.00 447.00 21.00
4850 109.1096 0.946315 439.00 449.82 21.00
4851 109.1300 0.946195 455.00 452.58 21.00
4852 109.1504 0.946075 408.00 455.31 20.00
4853 109.1708 0.945956 440.00 458.17 21.00
4854 109.1913 0.945835 452.00 461.06 21.00
4855 109.2117 0.945716 478.00 464.05 22.00
4856 109.2321 0.945596 472.00 467.15 22.00
4857 109.2526 0.945476 464.00 470.38 22.00
4858 109.2730 0.945356 488.00 473.66 22.00
4859 109.2934 0.945237 456.00 477.05 21.00
4860 109.3138 0.945118 477.00 480.46 22.00
4861 109.3343 0.944998 466.00 483.84 22.00
4862 109.3547 0.944879 473.00 487.15 22.00
4863 109.3751 0.944759 543.00 490.39 23.00
4864 109.3956 0.944640 474.00 493.53 22.00
4865 109.4160 0.944521 433.00 496.47 21.00
4866 109.4364 0.944402 536.00 499.19 23.00
4867 109.4568 0.944283 532.00 501.62 23.00
4868 109.4773 0.944163 523.00 503.80 23.00
4869 109.4977 0.944044 535.00 505.56 23.00
4870 109.5181 0.943926 477.00 506.90 22.00
4871 109.5385 0.943807 489.00 507.82 22.00
4872 109.5590 0.943688 468.00 508.30 22.00
4873 109.5794 0.943569 498.00 508.33 22.00
4874 109.5998 0.943451 507.00 507.93 23.00
4875 109.6203 0.943332 545.00 507.01 23.00
4876 109.6407 0.943213 510.00 505.93 23.00
4877 109.6611 0.943095 491.00 504.65 22.00
4878 109.6815 0.942977 481.00 503.25 22.00
4879 109.7020 0.942858 478.00 501.85 22.00
4880 109.7224 0.942740 514.00 500.56 23.00
4881 109.7428 0.942622 516.00 499.45 23.00
4882 109.7633 0.942503 495.00 498.58 22.00
loop_
_refln_index_h
_refln_index_k
_refln_index_l
_refln_F_squared_calc
_refln_F_squared_meas
_refln_F_squared_sigma
_refln_observed_status
_refln_d_spacing
0 2 1 1215.08 463.07 203.86 < 8.448030
0 0 2 382.76 319.77 253.29 < 7.423828
0 1 2 10950.15 10258.39 378.27 o 6.982030
0 3 1 59.05 73.80 69.26 < 6.218976
0 2 2 21691.86 19346.42 573.42 o 6.017113
0 4 0 7.31 13.64 26.70 < 5.136512
0 3 2 1479.36 1088.97 386.94 o 5.033814
0 4 1 2344.36 2583.60 444.52 o 4.854241
0 1 3 2011.73 1775.93 331.91 o 4.811590
0 2 3 5933.89 4450.33 519.29 o 4.458754
0 4 2 4272.73 2589.76 563.65 o 4.224015
0 3 3 1297.81 1367.31 854.52 < 4.011409
0 5 1 8.97 7.18 33.46 < 3.960336
1 1 0 1720.04 778.73 639.16 < 3.912048
1 1 1 25.38 3.03 42.92 < 3.782943
0 0 4 4.75 16.75 105.77 < 3.711914
0 1 4 198.10 363.12 389.86 < 3.652781
1 2 1 227.32 100.13 141.01 < 3.604109
0 5 2 74.95 22.58 57.50 < 3.595203
0 4 3 933.91 262.22 181.56 < 3.564000
1 0 2 10373.95 10495.70 311.62 o 3.511097
0 2 4 56768.49 56138.83 1382.99 o 3.491015
1 1 2 107966.73 107757.38 2358.41 o 3.460925
1 3 0 5.70 5.71 0.90 o 3.444327
0 6 0 571109.94 585383.00 12637.83 o 3.424341
1 3 1 293.74 329.83 10.78 o 3.355231
0 6 1 4642.12 4616.87 104.86 o 3.336748
1 2 2 158501.69 154459.05 3347.47 o 3.322406
0 3 4 591931.13 603978.19 12840.05 o 3.263415
0 5 3 14391.84 14015.16 604.31 o 3.161533
1 3 2 137944.28 137134.27 3066.56 o 3.124429
0 6 2 5367.19 5187.75 117.74 o 3.109488
1 4 1 393.51 403.30 23.45 o 3.080041
1 1 3 6363.92 6223.52 383.23 o 3.069060
0 4 4 57888.77 61942.36 2014.62 o 3.008557
1 2 3 3740.35 4997.17 338.47 o 2.971226
0 1 5 1534.57 1789.20 86.87 o 2.938993
1 4 2 343345.78 330794.12 7175.41 o 2.898617
0 7 1 35789.37 35460.73 778.65 o 2.879426
1 5 0 15177.80 15941.91 386.09 o 2.860706
0 2 5 112678.01 114553.53 2834.69 o 2.852740
1 3 3 39797.64 43640.58 1184.64 o 2.827093
0 6 3 583.37 646.76 18.21 o 2.816010
1 5 1 2295.23 2539.01 100.34 o 2.809042
0 5 4 5291.77 7707.76 566.18 o 2.754498
0 7 2 108972.82 109917.66 2922.07 o 2.729555
0 3 5 13740.32 13884.55 376.94 o 2.724453
1 0 4 186.51 188.75 5.15 o 2.716119
1 1 4 3248.35 3995.86 144.34 o 2.692693
1 5 2 215691.31 204436.03 4619.16 o 2.669377
1 4 3 7673.52 7172.21 161.41 o 2.656530
1 2 4 12866.84 11636.88 595.90 o 2.625890
0 4 5 510.46 504.73 143.61 o 2.570830
0 8 0 10022.14 10365.75 1455.25 o 2.568256
1 6 1 849.30 946.86 149.60 o 2.558316
0 8 1 25870.59 26389.96 739.76 o 2.530676
1 3 4 55527.48 56621.87 1543.06 o 2.524811
0 7 3 1090.79 1111.88 31.32 o 2.524574
0 6 4 632.40 649.75 17.03 o 2.516907
1 5 3 10371.35 11375.63 457.88 o 2.476734
0 0 6 56557.93 63077.08 2504.17 o 2.474609
0 1 6 39505.86 44425.40 1602.37 o 2.456853
1 6 2 7885.19 8497.66 320.54 o 2.451472
0 8 2 61155.47 67334.20 2449.51 o 2.427121
0 5 5 6757.41 6831.96 263.72 o 2.406845
0 2 6 4031.48 4058.57 134.59 o 2.405795
1 4 4 34731.93 34821.76 1183.42 o 2.401094
1 1 5 2563.76 2699.39 191.18 o 2.365284
1 7 0 20691.97 21739.53 1494.35 o 2.363279
1 7 1 9226.96 8866.25 762.73 o 2.333899
0 3 6 4288.47 4195.98 369.58 o 2.327343
1 2 5 209.02 196.18 20.02 o 2.319621
0 7 4 11601.50 8748.75 511.46 o 2.302332
1 6 3 15694.97 11852.01 685.32 o 2.299745
0 8 3 47.30 24.00 5.54 o 2.279605
1 5 4 2837.50 2556.40 101.76 o 2.265874
0 9 1 4661.64 4339.69 110.60 o 2.256379
1 7 2 138238.94 128671.29 3219.16 o 2.251929
1 3 5 3565.86 3319.05 81.59 o 2.249061
0 6 5 2302.76 2153.69 56.09 o 2.243469
0 4 6 18597.69 15106.98 919.36 o 2.229377
0 9 2 0.60 0.27 11.60 < 2.182055
1 4 5 530.61 575.39 289.60 < 2.160285
1 8 1 3994.47 3292.28 249.38 o 2.136296
1 7 3 843.63 716.57 45.35 o 2.132622
1 6 4 17.70 15.73 0.98 o 2.127994
0 5 6 113659.40 104765.44 2914.10 o 2.119890
0 8 4 103533.49 100096.77 2498.92 o 2.112007
0 1 7 892.36 880.31 21.67 o 2.109880
1 0 6 305102.84 316116.78 7554.62 o 2.102246
1 1 6 127547.59 134828.66 3218.93 o 2.091327
0 7 5 20310.52 21297.27 533.95 o 2.087514
0 2 7 1182.21 1171.31 29.53 o 2.077278
0 9 3 32.22 31.22 1.32 o 2.072992
1 8 2 119903.27 116186.90 2982.35 o 2.072896
1 5 5 517.49 490.04 13.82 o 2.060223
1 2 6 55218.83 52324.46 1462.31 o 2.059564
0 10 0 3635.63 3437.10 107.61 o 2.054605
0 10 1 16644.63 20260.70 1509.86 o 2.035211
0 3 7 59.66 81.25 6.52 o 2.026145
1 3 6 12645.51 11771.99 461.42 o 2.009697
0 6 6 31119.91 29682.67 943.52 o 2.005704
1 7 4 12416.90 13034.31 308.42 o 1.993527
2 0 0 1252591.63 1319363.75 31348.38 o 1.992475
1 9 0 194.47 200.35 6.48 o 1.980868
0 10 2 33587.36 33933.52 871.48 o 1.980168
1 8 3 3193.06 3136.07 101.84 o 1.978719
2 1 1 571.93 438.84 25.96 o 1.965714
1 9 1 177.98 137.91 7.93 o 1.963472
0 4 7 178.52 152.07 7.38 o 1.960513
2 2 0 930.34 851.18 27.14 o 1.956024
1 6 5 3064.52 2913.64 89.37 o 1.954947
1 4 6 47566.68 49086.06 1203.66 o 1.945601
0 9 4 467243.19 483405.22 11669.67 o 1.944564
0 8 5 33579.93 34901.25 824.35 o 1.942530
2 2 1 475.02 501.99 11.28 o 1.939268
2 0 2 649.59 663.77 29.86 o 1.924371
2 1 2 5171.08 4469.43 143.97 o 1.915985
1 9 2 69304.45 59828.70 1982.12 o 1.913908
0 10 3 6370.65 7146.69 414.05 o 1.897587
2 3 1 65.78 73.79 4.45 o 1.897468
0 7 6 380.87 413.60 26.00 o 1.891934
2 2 2 11949.99 12976.81 698.56 o 1.891471
0 5 7 29014.29 30328.30 1502.47 o 1.884808
1 5 6 70282.53 66679.54 2098.45 o 1.871546
1 8 4 18758.83 18167.61 547.15 o 1.866115
1 1 7 1420.53 1393.71 44.88 o 1.864648
2 4 0 632.74 663.26 20.30 o 1.857613
0 0 8 199805.89 210788.55 6329.32 o 1.855957
0 11 1 4533.99 4790.21 138.75 o 1.853216
2 3 2 578.36 610.71 20.29 o 1.852626
1 7 5 13167.54 13584.91 398.08 o 1.849155
0 1 8 96409.57 99588.58 2812.18 o 1.848431
2 4 1 1096.53 1133.56 34.50 o 1.843243
1 2 7 38862.19 40086.10 1203.51 o 1.842029
2 1 3 1294.28 1319.58 40.44 o 1.840881
1 9 3 37.52 37.98 3.50 o 1.839039
0 2 8 2801.61 1791.83 231.84 o 1.826390
2 2 3 3422.23 2800.45 327.04 o 1.819106
1 10 1 4863.38 4591.31 352.33 o 1.812506
0 11 2 8948.70 8412.84 611.36 o 1.811371
0 9 5 7458.04 7110.99 494.03 o 1.809877
1 3 7 1160.57 1071.06 68.70 o 1.806094
0 6 7 380.11 351.35 21.20 o 1.803194
2 4 2 2328.17 2142.21 103.45 o 1.802055
0 10 4 6970.40 6803.21 207.92 o 1.797602
1 6 6 154212.27 152757.08 4214.35 o 1.791571
0 3 8 2.33 2.30 0.24 o 1.791346
2 3 3 640.22 634.99 20.58 o 1.784471
0 8 6 1684.51 1692.94 51.42 o 1.782000
2 5 1 3.32 3.34 0.91 o 1.779906
1 10 2 54912.14 51656.55 1988.20 o 1.773301
1 4 7 3340.54 4175.38 299.09 o 1.759144
2 0 4 244.47 310.58 20.72 o 1.755548
2 1 4 1021.75 1138.80 42.49 o 1.749175
1 9 4 49873.75 55547.24 2089.15 o 1.747594
0 11 3 8058.77 8975.51 337.56 o 1.747515
1 8 5 17.41 19.09 1.88 o 1.746117
0 4 8 5833.44 6376.15 238.96 o 1.745507
2 5 2 192.19 205.06 10.15 o 1.742735
2 4 3 664.07 686.66 36.32 o 1.739146
2 2 4 31256.76 30081.83 976.16 o 1.730463
2 6 0 328492.69 319460.09 8488.40 o 1.722164
0 7 7 1030.38 1008.66 28.91 o 1.719175
1 10 3 9866.41 9834.80 248.13 o 1.713258
0 12 0 266530.56 264181.38 6813.10 o 1.712171
2 6 1 2529.54 2506.51 65.82 o 1.710695
1 7 6 97762.42 97437.75 2463.24 o 1.709094
1 5 7 11532.98 11863.55 287.86 o 1.703835
0 12 1 14035.27 14662.87 373.25 o 1.700899
2 3 4 332017.56 346864.03 8488.79 o 1.700567
0 5 8 99292.27 100509.70 2520.79 o 1.691436
1 11 0 244897.70 247900.38 6244.35 o 1.691257
0 10 5 2577.39 2600.88 64.03 o 1.689606
2 5 3 7436.69 7289.03 189.51 o 1.685645
1 0 8 113123.34 109843.52 2929.09 o 1.682433
1 11 1 2749.50 2715.29 72.34 o 1.680390
0 9 6 3259.22 3282.47 94.40 o 1.677938
2 6 2 3657.24 3686.22 102.82 o 1.677616
1 1 8 78973.38 79777.55 2289.45 o 1.676820
0 11 4 2833.57 2883.83 103.33 o 1.668492
0 12 2 187.33 190.65 10.41 o 1.668374
2 4 4 29901.85 29923.23 1184.42 o 1.661203
1 2 8 18196.06 18092.48 725.54 o 1.660314
2 1 5 304.32 290.26 9.47 o 1.649204
1 11 2 34406.43 32816.03 1105.21 o 1.649006
1 9 5 29603.12 28448.72 948.00 o 1.647879
0 1 9 31482.95 31441.88 942.43 o 1.644447
1 6 7 6004.24 6025.97 186.17 o 1.642830
1 10 4 65736.66 68855.85 1974.72 o 1.638598
2 7 1 15022.27 15735.07 442.42 o 1.638456
0 8 7 2734.94 2851.02 80.55 o 1.635441
1 3 8 1034.07 1081.40 30.78 o 1.633855
2 2 5 53862.15 56318.88 1580.07 o 1.633493
0 6 8 101409.03 105297.35 3024.46 o 1.631707
0 2 9 124.63 129.09 5.13 o 1.628870
1 8 6 8793.60 8949.02 285.92 o 1.626755
2 6 3 289.10 294.11 9.48 o 1.626507
0 12 3 1410.08 1434.13 94.62 o 1.618080
2 5 4 4669.12 4653.37 216.36 o 1.614391
2 7 2 57634.92 57695.46 2205.10 o 1.609324
2 3 5 6580.47 6564.50 253.80 o 1.608276
0 3 9 9917.54 9905.98 383.73 o 1.603863
1 11 3 30659.68 29819.24 1263.65 o 1.600394
1 4 8 164.80 159.50 6.78 o 1.598851
0 11 5 22955.46 21905.04 844.61 o 1.581064
0 10 6 27061.43 25799.88 971.24 o 1.580767
1 7 7 62207.95 59092.87 2187.47 o 1.578540
2 4 5 162.72 157.45 14.52 o 1.574858
2 8 0 2346.70 2248.80 83.96 o 1.574265
0 13 1 264.72 250.83 16.68 o 1.571587
0 4 9 9011.21 8613.25 360.73 o 1.570713
0 7 8 39516.72 37997.38 1610.99 o 1.568665
2 8 1 12491.84 12419.19 543.37 o 1.565490
1 12 1 18209.20 17910.91 792.10 o 1.564357
2 7 3 302.02 296.80 13.98 o 1.564043
2 6 4 15.22 14.52 0.91 o 1.562215
1 5 8 4699.89 4492.87 240.33 o 1.556985
1 10 5 4737.42 4421.00 237.49 o 1.555558
0 12 4 2589.70 2392.66 127.94 o 1.554744
0 9 7 4903.06 4629.83 243.73 o 1.553895
2 0 6 32413.23 30845.11 1455.34 o 1.551942
2 1 6 21226.01 20525.91 840.18 o 1.547533
1 9 6 209.67 205.07 8.22 o 1.546438
0 13 2 52731.00 51764.41 1992.91 o 1.545823
2 8 2 38588.53 37204.58 1470.87 o 1.540021
1 11 4 5220.13 5034.22 207.74 o 1.539034
1 12 2 847.10 817.83 33.26 o 1.538942
2 5 5 3757.23 3636.55 184.82 o 1.534802
2 2 6 2773.55 2643.67 117.99 o 1.534530
0 5 9 39513.14 37209.16 2033.48 o 1.530965
1 1 9 2839.81 3221.70 315.99 o 1.520102
2 3 6 1164.53 1170.65 54.40 o 1.513568
1 8 7 12260.48 12342.94 510.97 o 1.512980
1 6 8 52911.68 52855.78 2028.40 o 1.510022
1 2 9 19083.35 19094.47 743.12 o 1.507773
2 7 4 8424.29 8505.89 329.68 o 1.506624
0 13 3 3196.85 3225.64 126.41 o 1.505563
0 8 8 248.09 252.73 9.87 o 1.504278
2 8 3 0.03 0.03 0.02 o 1.500201
1 12 3 2857.26 2976.16 182.47 o 1.499203
2 9 1 2841.85 2673.50 139.25 o 1.493523
0 11 6 95127.50 88043.25 4170.26 o 1.490820
2 6 5 1552.10 1427.35 68.37 o 1.489761
1 3 9 4584.88 4175.92 199.51 o 1.487874
0 6 9 6391.21 5832.06 281.05 o 1.486251
2 4 6 11514.58 10431.71 501.41 o 1.485613
0 0 10 447.06 397.93 20.54 o 1.484766
0 12 5 457.05 405.51 24.22 o 1.483278
0 1 10 861.81 810.00 55.12 o 1.480904
0 10 7 232.07 238.08 29.36 o 1.475771
2 9 2 0.32 0.34 0.35 o 1.471359
1 11 5 91.76 98.11 7.57 o 1.469618
0 2 10 18559.13 19855.45 1192.52 o 1.469497
1 10 6 3240.39 3471.75 215.30 o 1.469379
1 13 0 32460.94 34898.26 2110.18 o 1.469137
0 14 0 100.16 107.57 9.49 o 1.467575
1 13 1 2830.74 2834.17 118.16 o 1.461997
1 4 9 1064.98 1069.66 44.40 o 1.461294
0 14 1 13607.33 13325.10 528.30 o 1.460458
1 7 8 51939.74 50557.57 1979.57 o 1.459644
0 13 4 626.96 622.59 20.02 o 1.454141
2 5 6 68358.48 69401.66 2092.36 o 1.451848
0 3 10 87260.83 88595.10 2652.97 o 1.451057
2 8 4 59335.93 60299.54 1804.70 o 1.449308
2 1 7 702.17 717.72 21.53 o 1.448620
1 12 4 805.90 823.75 24.28 o 1.448409
1 9 7 20523.00 21054.41 626.48 o 1.447722
2 7 5 11657.65 11544.24 400.79 o 1.441320
1 13 2 30646.96 30348.83 1026.21 o 1.441188
0 9 8 1658.86 1648.65 64.13 o 1.440093
0 14 2 67951.53 66975.02 2396.95 o 1.439713
0 7 9 12275.68 12098.12 447.93 o 1.438141
2 2 7 974.32 960.23 35.94 o 1.437938
2 9 3 2.31 2.26 0.51 o 1.436514
2 10 0 3072.26 3293.35 216.48 o 1.430353
1 5 9 1140.61 1214.55 89.61 o 1.429125
0 4 10 30073.44 34922.79 2589.79 o 1.426370
2 10 1 8356.54 9714.28 732.62 o 1.423762
2 3 7 45.42 52.23 3.99 o 1.420647
2 6 6 19142.39 21422.83 1633.55 o 1.413547
1 13 3 836.11 815.04 49.98 o 1.408396
0 12 6 1330.64 1286.58 77.76 o 1.408005
1 8 8 1253.94 1214.61 71.37 o 1.407344
0 14 3 19109.62 18472.39 1108.55 o 1.407020
2 10 2 21507.05 21140.43 1180.52 o 1.404521
0 11 7 5687.13 5604.20 292.22 o 1.401787
2 4 7 8.51 8.77 0.26 o 1.397455
0 5 10 301.27 313.08 9.44 o 1.396406
1 11 6 4976.00 5171.05 160.34 o 1.396305
0 13 5 6678.65 6835.00 202.37 o 1.395168
1 6 9 2125.42 2155.76 61.04 o 1.392549
2 9 4 278264.75 280713.31 8004.84 o 1.391644
1 0 10 12809.51 12928.05 376.85 o 1.391327
2 8 5 19148.70 19265.94 535.94 o 1.390898
1 12 5 649.79 651.51 18.74 o 1.390103
1 1 10 1236.76 1238.59 37.34 o 1.388148
0 8 9 7181.04 7187.21 201.69 o 1.388040
1 10 7 6377.17 6063.31 203.74 o 1.383918
1 2 10 5806.92 4754.74 305.60 o 1.378740
0 10 8 16197.70 13165.18 896.91 o 1.377249
2 10 3 3158.65 2762.45 165.44 o 1.374117
2 7 6 532.35 476.99 29.11 o 1.371966
1 14 1 6869.86 6354.51 323.74 o 1.371266
2 5 7 17149.40 16446.25 673.36 o 1.369242
1 13 4 3398.97 3247.86 108.19 o 1.366034
0 14 4 22963.94 21984.18 722.93 o 1.364778
0 15 1 6420.71 6167.61 202.72 o 1.363945
1 3 10 122464.69 118269.64 3824.13 o 1.363476
0 6 10 4070.85 3963.65 128.38 o 1.362227
2 0 8 121572.38 119663.73 3761.75 o 1.358060
2 11 1 2691.27 2666.64 84.32 o 1.356985
2 1 8 56928.58 56376.05 1841.91 o 1.355103
1 9 8 2756.39 2764.46 92.66 o 1.354367
1 14 2 24010.06 24038.94 796.56 o 1.354051
1 7 9 205.03 204.04 8.11 o 1.352743
0 15 2 10693.05 10243.23 525.63 o 1.347001
0 1 11 3.30 3.14 0.10 o 1.346884
2 2 8 2459.34 2336.02 125.06 o 1.346346
1 4 10 19984.02 17521.20 1141.82 o 1.342933
2 11 2 6354.24 5433.63 367.76 o 1.340296
2 9 5 3986.87 3443.53 230.37 o 1.339690
0 2 11 18927.26 16126.29 1115.71 o 1.338284
0 9 9 3007.51 2519.12 189.24 o 1.337136
2 6 7 262.36 219.57 18.34 o 1.336973
2 10 4 3772.68 3254.77 238.73 o 1.334689
0 12 7 1268.32 1162.96 73.71 o 1.332281
2 3 8 393.78 361.07 23.02 o 1.332122
0 13 6 3971.03 3606.15 205.87 o 1.331983
2 8 6 1095.65 1011.12 49.32 o 1.328265
1 12 6 67354.62 62166.58 3120.90 o 1.327573
1 14 3 844.68 782.65 38.12 o 1.326747
3 1 0 190.30 177.59 12.23 o 1.325549
0 7 10 349.30 327.18 22.87 o 1.324896
0 3 11 75.22 70.99 3.48 o 1.324312
1 11 7 732.71 706.94 45.74 o 1.322356
3 1 1 36.95 40.23 5.27 o 1.320298
0 15 3 2391.25 2589.58 136.53 o 1.320112
1 5 10 1410.05 1515.41 86.96 o 1.317837
1 13 5 246.05 263.18 14.78 o 1.316796
0 11 8 68194.74 72723.39 3956.10 o 1.316535
0 14 5 19536.97 20585.53 1125.45 o 1.315671
2 11 3 4725.64 4793.62 260.62 o 1.313799
2 4 8 4721.97 4673.04 255.54 o 1.312945
3 2 1 19.34 18.90 1.74 o 1.312195
1 8 9 3302.51 3092.58 174.04 o 1.310798
3 0 2 8739.90 8262.31 432.61 o 1.307551
0 4 11 4176.85 4051.12 189.39 o 1.305465
3 1 2 39830.35 39191.53 1754.88 o 1.304911
3 3 0 205.19 209.56 12.10 o 1.304016
1 10 8 11640.21 12214.83 446.53 o 1.301699
2 7 7 683.91 717.67 28.30 o 1.301628
3 3 1 70.37 75.29 2.52 o 1.299016
2 12 0 167147.38 178765.14 6026.16 o 1.298580
3 2 2 51471.66 55539.68 1826.31 o 1.297087
1 15 0 11642.91 12808.63 413.13 o 1.295350
2 12 1 8054.61 8780.94 291.57 o 1.293641
1 14 4 62255.72 66998.76 2123.92 o 1.291154
1 15 1 1494.26 1590.69 51.14 o 1.290449
2 5 8 61625.23 63900.08 2020.81 o 1.289464
1 6 10 5833.24 5979.80 194.93 o 1.288993
2 10 5 1482.52 1509.56 46.55 o 1.288652
0 10 9 661.05 648.58 22.05 o 1.286379
0 8 10 80104.55 76796.88 2469.44 o 1.285415
0 15 4 47547.61 45169.12 1448.73 o 1.285037
3 3 2 63666.09 59795.66 1961.36 o 1.284353
0 16 0 2202.49 2057.24 68.85 o 1.284128
2 9 6 2885.38 2675.24 91.07 o 1.283453
0 5 11 5229.66 4734.19 168.22 o 1.282376
3 4 1 607.51 538.30 20.54 o 1.281214
3 1 3 1665.43 1460.48 53.07 o 1.280420
0 16 1 8329.29 7317.80 286.95 o 1.279352
2 11 4 856.49 752.48 31.14 o 1.279211
2 12 2 25.89 22.78 2.42 o 1.279158
1 15 2 10849.11 9352.74 466.29 o 1.276071
1 1 11 13727.60 11834.22 596.24 o 1.275971
3 2 3 653.88 594.25 26.79 o 1.273026
1 2 11 22054.68 21159.41 693.21 o 1.268653
2 1 9 19978.40 19159.92 622.32 o 1.268278
1 9 9 208.98 201.85 6.01 o 1.267675
0 13 7 6915.82 6691.20 215.31 o 1.267336
3 4 2 106618.17 103357.95 3306.37 o 1.267140
0 16 2 56208.06 54449.26 1696.99 o 1.265338
2 8 7 1800.89 1744.20 54.33 o 1.264132
3 5 0 9476.15 9169.80 280.32 o 1.263921
1 12 7 193.11 186.86 5.99 o 1.263535
1 13 6 66272.07 64072.76 1981.26 o 1.263281
2 6 8 64754.43 62992.20 1971.71 o 1.262406
0 14 6 1311.82 1282.46 39.96 o 1.262287
2 2 9 14.71 14.43 1.32 o 1.261090
3 3 3 9741.23 9551.78 313.33 o 1.260981
3 5 1 649.61 627.22 27.46 o 1.259367
0 12 8 15696.03 15249.02 532.10 o 1.258454
1 7 10 15.42 14.71 0.78 o 1.257230
1 3 11 2110.01 2007.46 80.41 o 1.256731
2 12 3 822.44 773.92 35.86 o 1.256063
0 6 11 920.38 868.64 38.50 o 1.255752
1 15 3 5648.61 5455.54 294.14 o 1.253140
3 0 4 0.23 0.22 0.10 o 1.250650
1 11 8 5912.46 5599.12 254.20 o 1.250079
2 3 9 5548.84 5328.43 235.62 o 1.249378
1 14 5 4845.02 4645.99 194.37 o 1.249340
3 1 4 432.86 415.26 16.63 o 1.248339
3 5 2 76619.77 73286.87 2753.31 o 1.245992
3 4 3 1574.49 1504.10 55.35 o 1.244678
0 9 10 71333.25 68144.35 2502.18 o 1.244672
0 15 5 15064.79 14321.04 521.88 o 1.243795
0 16 3 21731.46 20714.43 739.64 o 1.242971
3 2 4 5263.25 5146.37 181.60 o 1.241484
1 4 11 22299.46 21759.50 771.16 o 1.240590
2 11 5 12873.46 12666.58 466.87 o 1.238510
2 10 6 17333.15 17054.59 622.58 o 1.238367
0 0 12 12601.42 12544.91 483.55 o 1.237305
0 11 9 81833.19 82315.22 3146.74 o 1.236491
0 1 12 7531.51 7753.18 294.54 o 1.235067
3 6 1 387.17 407.47 21.22 o 1.234123
2 13 1 97.71 102.84 9.25 o 1.233939
2 4 9 5936.97 6271.87 264.06 o 1.233516
2 7 8 23073.59 24094.48 966.58 o 1.232523
3 3 4 22566.08 23930.31 991.32 o 1.230305
0 2 12 52497.38 55035.78 2422.94 o 1.228427
0 7 11 4964.51 5051.24 229.55 o 1.226329
2 12 4 1075.18 1074.31 47.57 o 1.225736
2 9 7 3263.12 3246.15 149.08 o 1.225320
3 5 3 3504.34 3448.39 153.15 o 1.224619
1 10 9 5.89 5.72 0.67 o 1.224176
1 8 10 340.59 330.04 14.48 o 1.223345
1 15 4 17891.10 17253.45 775.71 o 1.223019
3 6 2 6874.28 6540.53 305.71 o 1.221529
2 13 2 33999.71 32309.39 1481.48 o 1.221350
1 5 11 13064.45 12282.15 582.12 o 1.220724
1 16 1 3700.92 3446.77 169.60 o 1.218115
0 3 12 3849.12 3554.62 175.34 o 1.217594
3 4 4 11725.93 10948.13 589.74 o 1.215149
2 5 9 25337.08 23664.92 1300.25 o 1.213982
0 16 4 593.14 555.79 31.20 o 1.213560
3 1 5 1920.01 1854.36 99.03 o 1.210429
3 7 0 9417.21 9066.23 470.44 o 1.210160
1 13 7 14902.41 14747.45 683.12 o 1.207730
0 14 7 3568.62 3552.82 164.91 o 1.206861
3 7 1 2458.15 2469.01 109.10 o 1.206161
1 16 2 54453.38 54694.01 2451.33 o 1.206000
0 17 1 344.54 349.42 15.72 o 1.204607
3 2 5 72.72 73.44 2.79 o 1.204177
0 10 10 1492.99 1519.24 73.75 o 1.203423
1 14 6 3007.01 3059.87 128.77 o 1.203358
0 13 8 0.41 0.41 0.11 o 1.203290
0 4 12 18010.52 18370.64 766.78 o 1.202898
3 6 3 5409.75 5509.87 229.98 o 1.201370
2 13 3 1574.18 1600.58 65.86 o 1.201200
2 8 8 305.17 311.97 12.16 o 1.200547
1 12 8 44823.48 45559.37 1834.37 o 1.200035
0 15 6 331.33 335.96 14.12 o 1.198401
1 6 11 15331.92 15573.54 599.71 o 1.197692
3 5 4 2083.98 2088.89 80.78 o 1.196463
0 8 11 9780.59 9700.73 362.10 o 1.194820
3 7 2 48879.59 48775.12 1809.90 o 1.194396
3 3 5 972.13 974.43 35.22 o 1.193967
2 11 6 63598.27 63684.33 2337.76 o 1.193672
0 17 2 13091.20 13130.84 485.43 o 1.192887
2 6 9 3661.69 3666.45 134.87 o 1.191323
2 0 10 59.98 60.53 2.35 o 1.190557
2 12 5 115.35 117.68 4.88 o 1.189790
2 1 10 1037.68 1047.41 39.00 o 1.188564
1 9 10 50955.49 51607.43 2003.16 o 1.188067
0 12 9 13406.52 13682.71 542.45 o 1.188000
1 15 5 2919.47 2970.83 120.98 o 1.187305
1 16 3 17450.26 17906.88 736.32 o 1.186588
2 10 7 294.46 300.52 15.25 o 1.185905
0 5 12 549.87 547.72 31.19 o 1.184762
2 2 10 11502.34 11027.33 534.92 o 1.182642
1 0 12 15766.84 14925.99 800.75 o 1.181655
2 14 0 406.87 385.17 23.78 o 1.181639
1 11 9 2055.26 1904.55 111.18 o 1.180947
3 4 5 260.43 240.55 13.81 o 1.180100
1 1 12 5857.98 5370.40 292.24 o 1.179706
0 16 5 2918.34 2635.68 138.50 o 1.178645
2 14 1 7871.21 7246.66 356.70 o 1.177915
3 8 1 825.05 803.74 32.78 o 1.176144
3 7 3 347.11 342.12 15.54 o 1.175529
3 6 4 20.68 20.45 1.40 o 1.174753
2 13 4 674.84 669.32 26.32 o 1.174594
0 17 3 1901.79 1901.01 70.43 o 1.174091
1 2 12 30144.58 30044.42 1115.18 o 1.173915
2 3 10 57075.96 56543.18 2032.13 o 1.172966
1 7 11 18221.51 18102.73 646.57 o 1.172084
3 0 6 129634.41 129539.59 4366.46 o 1.170366
3 1 6 40990.93 40872.13 1350.26 o 1.168471
2 9 8 1979.00 1963.14 70.52 o 1.167152
2 14 2 47691.35 47120.71 1581.95 o 1.166950
2 7 9 8431.11 8293.08 273.83 o 1.166112
3 8 2 42523.39 41803.17 1404.89 o 1.165227
1 3 12 18695.78 18350.14 610.00 o 1.164450
0 6 12 1032.29 1017.70 35.19 o 1.163672
3 5 5 649.17 638.69 22.67 o 1.162962
3 2 6 24952.60 24585.71 862.11 o 1.162844
0 11 10 1256.93 1238.13 43.24 o 1.162283
0 9 11 6038.30 5927.36 205.21 o 1.161888
1 16 4 40003.83 39469.34 1431.53 o 1.160921
2 4 10 17921.72 17922.79 667.37 o 1.159810
1 17 0 61426.81 62493.33 2367.27 o 1.156568
1 14 7 14199.91 14113.52 535.28 o 1.155052
3 3 6 2657.87 2613.78 100.71 o 1.153642
1 17 1 476.62 469.00 18.85 o 1.153075
1 10 10 37081.65 36123.95 1346.64 o 1.152036
1 13 8 42773.23 41668.53 1554.86 o 1.151920
1 4 12 48547.71 47142.46 1767.17 o 1.151576
0 14 8 610.74 593.90 21.93 o 1.151166
0 15 7 342.78 333.46 12.58 o 1.150666
3 7 4 3956.17 3837.61 145.03 o 1.150558
2 12 6 1099.06 1069.02 41.27 o 1.149873
2 14 3 11740.28 11415.75 446.87 o 1.149336
0 17 4 2932.92 2856.96 110.29 o 1.149209
3 9 0 7.84 7.65 1.20 o 1.148109
3 8 3 1096.39 1066.36 54.30 o 1.147690
1 15 6 624.29 607.19 25.69 o 1.147629
2 11 7 3634.01 3685.48 159.83 o 1.146478
3 9 1 43.29 46.52 2.19 o 1.144692
1 8 11 797.10 863.43 39.60 o 1.144483
2 5 10 533.61 581.54 26.66 o 1.143529
3 6 5 1319.49 1440.95 71.51 o 1.142995
2 13 5 3953.59 4298.05 203.64 o 1.142849
1 17 2 6957.50 7563.68 357.10 o 1.142783
0 18 0 39721.80 41469.42 1905.62 o 1.141447
0 13 9 1170.64 1215.63 61.46 o 1.141262
3 4 6 20801.15 21555.16 995.46 o 1.141119
0 1 13 1773.94 1789.25 75.74 o 1.140367
0 7 12 11624.80 11692.00 505.69 o 1.140142
0 16 6 35033.73 35226.50 1509.25 o 1.139803
2 8 9 3922.98 3866.14 157.91 o 1.138921
1 12 9 21744.54 21494.65 889.45 o 1.138484
0 18 1 4.12 4.08 0.38 o 1.138089
1 5 12 31475.15 29794.68 1236.29 o 1.135634
0 2 13 47326.67 44752.94 1870.12 o 1.135134
3 9 2 35156.03 33229.84 1399.79 o 1.134621
2 10 8 11302.79 10711.76 469.54 o 1.132937
1 16 5 185.43 181.22 15.39 o 1.130243
0 18 2 11127.73 10929.12 582.15 o 1.128190
0 10 11 1053.28 1037.59 54.17 o 1.128120
0 3 13 327.86 337.14 18.27 o 1.126569
1 17 3 9716.79 10054.99 539.69 o 1.126225
2 14 4 15202.68 15737.79 845.95 o 1.125964
3 5 6 22443.22 23105.76 1258.59 o 1.125601
2 15 1 4382.81 4503.64 246.25 o 1.125496
2 6 10 1832.30 1861.41 103.75 o 1.124530
3 8 4 10779.66 10981.17 589.51 o 1.124417
3 1 7 224.73 229.41 19.18 o 1.124095
0 12 10 2826.95 2793.65 159.24 o 1.121734
3 7 5 5825.17 5848.07 345.78 o 1.120674
0 17 5 13324.74 13503.34 765.91 o 1.119427
3 2 7 16359.81 16492.25 978.03 o 1.119082
3 9 3 178.86 180.91 15.51 o 1.118410
1 6 12 850.81 874.74 59.08 o 1.117020
2 15 2 6675.26 6957.47 404.22 o 1.115919
2 1 11 1.84 1.92 0.19 o 1.115852
1 11 10 814.18 847.04 50.11 o 1.115791
1 9 11 13909.89 14366.96 823.90 o 1.115442
0 4 13 5394.15 5635.16 320.67 o 1.114899
0 8 12 29233.29 30390.64 1736.01 o 1.114688
3 10 1 2342.33 2452.65 134.14 o 1.112361
0 18 3 3665.26 3837.89 200.59 o 1.112249
2 2 11 12452.88 13087.12 623.80 o 1.110948
3 3 7 441.01 463.48 21.69 o 1.110873
2 9 9 2526.61 2654.67 127.60 o 1.110291
2 12 7 768.30 772.69 36.79 o 1.107507
3 6 6 72158.84 72582.08 3039.68 o 1.107469
2 13 6 3475.00 3489.59 147.54 o 1.107335
1 14 8 14628.96 14771.14 626.02 o 1.105945
1 15 7 33600.81 33930.72 1412.00 o 1.105501
1 17 4 508.43 516.18 22.14 o 1.104209
2 7 10 93.46 94.66 7.05 o 1.103254
3 10 2 20302.86 20512.40 852.23 o 1.103112
2 3 11 52.73 53.77 2.26 o 1.102916
0 15 8 1443.01 1460.93 60.40 o 1.102093
2 15 3 1524.34 1514.44 64.33 o 1.100487
0 5 13 38.45 38.27 3.12 o 1.100413
3 4 7 1719.54 1735.36 74.15 o 1.099679
0 16 7 8457.02 8403.02 371.36 o 1.098501
2 11 8 45417.18 45127.14 1939.62 o 1.098412
2 14 5 12857.18 12644.02 546.02 o 1.097910
1 13 9 2312.92 2251.85 95.45 o 1.097154
3 9 4 21106.62 20305.51 879.14 o 1.096841
0 14 9 693.06 661.40 29.77 o 1.096503
3 8 5 9.18 8.76 1.02 o 1.096475
1 1 13 11780.19 11242.00 494.54 o 1.096358
1 7 12 6136.26 5867.50 256.31 o 1.096159
1 16 6 68.04 64.66 3.09 o 1.095857
1 18 1 27317.94 25180.98 1135.45 o 1.094334
0 11 11 2.43 2.22 0.31 o 1.094021
2 4 11 2754.44 2538.67 125.03 o 1.091958
1 2 13 7828.86 7240.46 359.54 o 1.091705
0 18 4 532.47 498.31 25.32 o 1.091027
3 10 3 2583.93 2662.08 118.66 o 1.088198
0 9 12 3677.07 3819.88 176.30 o 1.087805
3 7 6 35768.25 36498.93 1568.16 o 1.087128
0 17 6 59762.92 60345.80 2466.71 o 1.085990
3 5 7 4643.04 4695.77 187.42 o 1.085771
1 18 2 485.37 489.69 20.48 o 1.085524
1 10 11 25640.90 25953.02 1026.24 o 1.085463
1 3 13 2634.28 2674.31 101.51 o 1.084081
0 6 13 8.55 8.67 0.39 o 1.083453
3 11 0 108565.08 108677.55 3984.73 o 1.082495
0 13 10 818.94 818.11 30.05 o 1.082139
2 10 9 451.96 443.78 17.35 o 1.080714
3 0 8 51213.60 50040.80 1804.42 o 1.080170
2 8 10 53194.55 51976.40 1888.20 o 1.080143
2 15 4 31939.03 31183.80 1129.68 o 1.079918
1 12 10 2822.54 2751.54 104.85 o 1.079770
3 11 1 1205.12 1176.87 42.17 o 1.079629
2 16 0 1708.72 1666.04 61.67 o 1.079379
3 1 8 28067.88 27533.53 1024.21 o 1.078681
0 19 1 8110.43 7966.87 289.83 o 1.078514
2 5 11 3505.77 3447.84 131.75 o 1.078338
1 17 5 442.85 439.92 16.08 o 1.077712
2 16 1 4841.27 4826.41 181.93 o 1.076538
3 2 8 9522.87 9621.25 403.84 o 1.074248
1 4 13 7938.71 8018.97 327.58 o 1.073669
1 8 12 24413.62 24731.90 1026.08 o 1.073482
1 18 3 9009.30 9410.14 381.07 o 1.071303
3 11 2 16258.85 17025.29 688.64 o 1.071167
3 9 5 10423.44 10846.64 440.39 o 1.070858
0 19 2 47375.23 48851.06 1978.76 o 1.070078
3 6 7 2706.16 2775.48 116.44 o 1.069469
2 13 7 4472.55 4588.57 187.40 o 1.069349
3 10 4 29345.29 30293.73 1250.50 o 1.068299
2 16 2 39072.17 40284.55 1650.10 o 1.068148
3 3 8 144.45 147.81 6.33 o 1.066981
2 14 6 784.70 802.98 33.96 o 1.066311
0 18 5 3179.93 3278.82 146.13 o 1.065446
3 8 6 5935.45 6106.24 272.18 o 1.064996
0 7 13 2588.36 2659.63 117.18 o 1.064385
2 12 8 10926.02 11309.89 515.76 o 1.063997
2 6 11 715.67 746.35 36.56 o 1.062363
1 15 8 42.27 44.40 2.58 o 1.062218
1 5 13 6428.15 6664.37 316.47 o 1.060714
0 0 14 163408.83 169120.89 8071.22 o 1.060547
0 12 11 2379.25 2431.51 115.15 o 1.060004
0 10 12 4660.59 4752.57 231.69 o 1.059945
0 1 14 86.77 88.03 6.82 o 1.059137
1 16 7 21.18 21.41 1.20 o 1.059001
3 11 3 11961.72 11943.50 520.79 o 1.057496
1 14 9 9893.35 9873.67 423.55 o 1.057210
3 4 8 4.45 4.44 0.15 o 1.057050
0 19 3 1003.72 991.89 40.33 o 1.056448
0 16 8 17012.76 16901.00 707.89 o 1.056004
2 9 10 48187.29 47579.14 2006.92 o 1.055628
2 15 5 9011.36 8876.08 373.53 o 1.055093
1 11 11 7271.05 7176.93 298.67 o 1.054985
0 2 14 1824.01 1800.40 76.77 o 1.054940
2 16 3 13638.06 13491.43 548.18 o 1.054590
0 15 9 1162.06 1139.65 47.29 o 1.053844
1 18 4 588.78 573.56 25.03 o 1.052300
2 0 12 10834.19 10580.32 434.81 o 1.051123
3 7 7 21328.67 20828.88 832.32 o 1.051117
2 11 9 53787.93 52728.92 2136.78 o 1.050624
0 17 7 2099.08 2050.60 83.38 o 1.050088
2 1 12 5105.75 4961.91 198.34 o 1.049750
1 9 12 28499.37 27496.73 1109.45 o 1.049408
0 3 14 1008.28 960.84 41.97 o 1.048055
1 17 6 475.93 450.74 18.71 o 1.047778
3 12 1 5621.87 5179.56 209.69 o 1.046898
2 2 12 34729.11 31397.28 1333.97 o 1.045663
1 6 13 1486.07 1341.31 64.25 o 1.045499
3 5 8 1006.84 904.48 39.64 o 1.044680
2 7 11 2969.69 2657.59 118.45 o 1.044369
1 13 10 508.58 455.13 25.88 o 1.044318
3 10 5 1593.93 1425.11 63.25 o 1.044249
0 14 10 60145.38 53073.51 2401.00 o 1.043757
1 19 0 26539.52 23383.77 1059.01 o 1.043628
0 8 13 56538.56 49725.10 2258.76 o 1.043586
3 9 6 2.39 2.04 0.10 o 1.041476
1 19 1 250.88 214.45 10.64 o 1.041059
3 11 4 3631.90 3094.23 197.00 o 1.039206
3 12 2 1310.81 1115.27 69.42 o 1.039177
2 3 12 2540.16 2154.16 144.33 o 1.038957
0 4 14 11535.59 10011.23 707.30 o 1.038639
0 19 4 1999.71 1723.73 126.14 o 1.038212
0 18 6 158.71 137.21 15.48 o 1.036496
2 16 4 237.48 202.83 20.53 o 1.036448
1 19 2 529.76 546.37 44.33 o 1.033466
3 1 9 929.71 952.23 75.55 o 1.033319
2 14 7 2364.11 2508.43 177.15 o 1.032266
0 11 12 1188.57 1234.82 83.61 o 1.031511
3 8 7 5903.55 6069.61 390.67 o 1.031073
2 17 1 324.55 334.85 22.00 o 1.030854
3 6 8 25736.00 26478.39 1577.84 o 1.030135
2 10 10 1452.40 1494.30 102.13 o 1.030111
2 13 8 22.17 22.81 1.78 o 1.030028
2 4 12 11583.99 11942.56 709.62 o 1.029782
3 2 9 9031.45 9392.71 546.33 o 1.029420
1 18 5 1142.62 1186.35 71.17 o 1.029292
1 7 13 1553.58 1578.97 85.12 o 1.028334
0 20 0 6165.14 6162.31 317.99 o 1.027302
2 15 6 89.62 89.05 5.40 o 1.026957
0 5 14 18539.65 18402.04 934.41 o 1.026897
3 12 3 1197.37 1189.00 60.99 o 1.026680
0 13 11 2573.91 2542.47 127.98 o 1.026405
1 0 14 10882.37 10690.61 534.37 o 1.024872
0 20 1 11131.63 10935.47 548.32 o 1.024852
2 8 11 6671.80 6569.50 331.76 o 1.024701
1 12 11 10588.90 10433.16 527.84 o 1.024382
1 10 12 31570.74 31106.39 1567.74 o 1.024329
1 1 14 2439.96 2430.46 132.48 o 1.023600
2 17 2 10112.54 10073.19 515.37 o 1.023480
3 3 9 1685.26 1685.04 88.13 o 1.023020
0 9 13 420.63 421.12 22.77 o 1.021428
1 19 3 984.83 987.10 54.03 o 1.021172
1 16 8 6284.72 6328.52 344.36 o 1.020771
2 12 9 8276.39 8373.83 462.74 o 1.020389
1 2 14 102.65 104.41 5.82 o 1.019810
1 15 9 691.21 712.09 48.07 o 1.018820
2 5 12 389.14 399.90 29.31 o 1.018335
0 20 2 22886.15 23237.74 1287.91 o 1.017606
3 11 5 0.00 0.00 0.00 o 1.017028
3 10 6 1679.40 1689.39 91.98 o 1.016949
3 13 0 17767.27 17805.45 961.93 o 1.016868
0 19 5 11356.90 10985.67 573.45 o 1.016096
1 17 7 1245.95 1200.02 65.10 o 1.015425
3 13 1 1038.81 989.01 49.83 o 1.014492
2 16 5 1912.40 1820.71 89.90 o 1.014443
3 4 9 627.15 595.17 30.38 o 1.014257
3 7 8 21353.20 20223.49 1001.81 o 1.013705
1 3 14 12770.71 12125.65 615.49 o 1.013586
0 16 9 2044.04 1935.21 97.32 o 1.013332
0 6 14 76513.03 72617.38 3560.38 o 1.013073
0 17 8 24909.89 23617.18 1152.58 o 1.012782
2 17 3 1179.13 1110.07 54.60 o 1.011535
3 12 4 167.73 159.96 8.15 o 1.009919
1 14 10 3233.04 3072.44 157.20 o 1.009696
3 9 7 8401.23 7982.56 411.52 o 1.009686
1 8 13 5333.24 5043.92 262.36 o 1.009542
3 13 2 12369.01 11968.76 700.30 o 1.007461
0 15 10 13384.40 12770.41 764.11 o 1.006763
0 20 3 259.80 251.01 18.22 o 1.005862
0 18 7 25014.37 23711.68 1526.28 o 1.005146
1 4 14 32.09 30.42 1.84 o 1.005061
2 6 12 1355.40 1279.33 85.37 o 1.004849
1 19 4 13303.55 12687.46 852.17 o 1.004674
2 11 10 1247.01 1181.59 79.53 o 1.003954
2 9 11 4097.52 3831.57 255.35 o 1.003700
3 5 9 397.58 372.03 26.33 o 1.003314
1 18 6 5331.49 4957.46 340.38 o 1.003119
0 12 12 0.43 0.40 0.14 o 1.002852
1 11 12 21514.32 19761.26 1068.59 o 0.998599
0 10 13 468.65 429.21 24.60 o 0.998259
0 7 14 543.48 501.84 25.32 o 0.997433
2 14 8 469.54 439.27 21.55 o 0.996764
2 15 7 321.09 301.76 14.97 o 0.996439
4 0 0 335880.53 316185.91 15567.91 o 0.996237
3 13 3 317.27 298.89 15.20 o 0.996062
3 8 8 1638.22 1555.17 75.55 o 0.995690
2 17 4 1524.40 1449.46 69.83 o 0.995492
1 5 14 2748.56 2656.76 123.66 o 0.994410
1 13 11 438.03 426.88 20.22 o 0.993963
0 14 11 4902.98 4811.41 223.56 o 0.993479
4 1 1 19.83 19.55 2.70 o 0.992841
1 20 1 4970.06 4876.44 226.68 o 0.992553
3 11 6 1286.51 1296.51 59.46 o 0.991757
4 2 0 3237.19 3276.68 151.52 o 0.991586
0 19 6 12978.24 13097.08 609.24 o 0.990893
2 18 0 26736.48 27067.53 1242.09 o 0.990434
3 6 9 843.96 854.41 39.49 o 0.990409
2 13 9 596.64 604.48 31.57 o 0.990313
0 20 4 18174.04 18324.02 841.82 o 0.990084
3 0 10 5487.57 5513.46 261.34 o 0.989969
2 1 13 1043.17 1048.26 45.96 o 0.989728
2 7 12 8010.95 8051.71 366.47 o 0.989581
3 12 5 180.44 181.11 8.31 o 0.989527
1 9 13 14570.25 14624.78 683.15 o 0.989442
4 2 1 79.48 79.79 3.59 o 0.989382
2 16 6 23518.82 23608.50 1085.97 o 0.989359
3 1 10 1260.53 1260.48 60.34 o 0.988821
0 1 15 12219.33 12153.03 557.19 o 0.988697
2 18 1 0.55 0.55 0.09 o 0.988238
4 0 2 1275.50 1275.29 58.39 o 0.987386
3 10 7 3050.86 3054.58 143.22 o 0.987289
2 2 13 32830.79 32078.70 1516.17 o 0.986301
4 1 2 1108.06 1082.68 49.10 o 0.986248
1 20 2 1186.92 1152.26 53.55 o 0.985966
3 2 10 1337.14 1294.87 62.60 o 0.985404
0 2 15 15.69 15.20 0.64 o 0.985281
1 19 5 1160.68 1114.85 51.67 o 0.984592
4 3 1 66.19 62.75 3.03 o 0.983696
4 2 2 4328.08 4087.43 194.00 o 0.982857
3 14 1 2466.99 2332.39 110.77 o 0.982664
1 16 9 4894.46 4633.67 214.20 o 0.982077
1 6 14 24994.10 23708.75 1120.63 o 0.981841
2 18 2 7725.11 7321.33 345.52 o 0.981736
2 10 11 666.81 631.96 28.83 o 0.981690
1 17 8 10371.80 9833.82 456.40 o 0.981576
3 13 4 1431.48 1351.74 61.39 o 0.980733
2 3 13 206.75 195.51 8.99 o 0.980668
0 8 14 348.44 329.57 16.13 o 0.980257
3 3 10 58319.78 54912.03 2508.50 o 0.979786
0 3 15 1890.52 1784.89 83.90 o 0.979664
4 4 0 2147.22 2039.70 92.02 o 0.978012
2 12 10 1434.44 1365.53 64.07 o 0.977473
4 3 2 36.19 34.60 2.18 o 0.977282
3 9 8 823.88 793.13 36.52 o 0.976389
3 14 2 10098.50 9764.42 440.24 o 0.976271
0 21 1 119.00 115.06 6.62 o 0.976266
1 15 10 24689.20 23895.65 1084.95 o 0.976094
2 17 5 8164.18 7880.63 351.94 o 0.975946
4 4 1 131.94 127.77 6.23 o 0.975897
3 7 9 28.29 27.42 2.21 o 0.975780
4 1 3 898.63 871.74 40.06 o 0.975546
1 20 3 116.54 113.04 5.18 o 0.975273
0 17 9 31646.82 30627.35 1421.20 o 0.974957
1 18 7 1176.69 1138.76 57.16 o 0.974620
0 11 13 11.48 11.15 1.03 o 0.974399
0 13 12 13916.77 13509.60 635.97 o 0.974258
2 4 13 4233.01 4193.50 205.80 o 0.972940
2 8 12 20262.46 20077.03 994.14 o 0.972801
1 12 12 5361.31 5316.53 268.02 o 0.972529
0 18 8 8225.09 8152.34 415.50 o 0.972282
4 2 3 1594.75 1585.40 85.82 o 0.972264
3 4 10 7182.95 7180.48 364.00 o 0.972079
0 4 15 290.08 289.06 14.80 o 0.971961
0 16 10 10.46 10.53 0.44 o 0.971265
2 18 3 2286.44 2316.86 124.13 o 0.971178
0 20 5 3538.53 3635.33 195.60 o 0.970848
0 21 2 400.40 415.05 23.77 o 0.969996
4 4 2 705.15 735.61 40.94 o 0.969634
1 10 13 3260.07 3503.52 206.46 o 0.968337
1 7 14 592.24 646.63 40.23 o 0.967584
4 3 3 218.33 248.40 16.67 o 0.966866
3 12 6 33422.42 37999.20 2209.70 o 0.966206
4 5 1 68.80 78.23 8.33 o 0.966138
3 14 3 584.69 671.85 37.18 o 0.965887
2 15 8 651.92 729.33 34.82 o 0.964395
3 11 7 123.25 137.86 10.65 o 0.964189
1 14 11 592.93 658.73 31.13 o 0.963973
0 19 7 3650.76 3983.84 182.19 o 0.963395
2 5 13 7.61 8.33 1.40 o 0.963269
3 5 10 1466.38 1583.29 72.68 o 0.962433
0 5 15 16528.01 17864.16 794.68 o 0.962318
4 0 4 1258.27 1353.98 62.92 o 0.962185
3 13 5 71.46 76.79 3.70 o 0.962027
2 16 7 5485.54 5836.36 262.03 o 0.961985
0 9 14 368.86 389.06 16.59 o 0.961824
1 19 6 15932.93 16728.89 722.47 o 0.961610
0 15 11 7617.52 7959.93 343.11 o 0.961419
4 1 4 2215.54 2306.29 98.63 o 0.961132
1 20 4 70926.96 73673.18 3167.15 o 0.960871
2 14 9 320.49 332.20 15.50 o 0.960643
4 5 2 320.62 328.42 15.22 o 0.960060
0 21 3 3940.06 4031.80 167.44 o 0.959809
3 8 9 1894.48 1937.27 79.86 o 0.959681
1 1 15 14041.75 14336.99 595.95 o 0.959603
4 4 3 653.15 667.67 32.43 o 0.959458
2 11 11 0.77 0.78 0.16 o 0.958972
4 2 4 8776.38 8724.09 356.63 o 0.957993
2 18 4 239.01 234.84 10.02 o 0.956954
4 6 0 102036.91 99836.83 3976.93 o 0.956577
1 2 15 3896.19 3808.83 154.39 o 0.956478
3 10 8 5051.61 4896.80 196.79 o 0.956093
2 9 12 2588.56 2511.68 101.34 o 0.954777
4 6 1 604.78 588.19 23.71 o 0.954598
3 15 0 3968.56 3852.72 149.41 o 0.953569
2 17 6 42903.01 41650.75 1619.96 o 0.953550
4 3 4 102315.21 99536.86 3893.34 o 0.952828
3 14 4 32250.38 31247.96 1231.87 o 0.951891
1 8 14 221.00 214.13 8.53 o 0.951880
2 6 13 1.56 1.51 0.10 o 0.951831
3 15 1 643.22 623.24 24.73 o 0.951608
1 3 15 204.30 197.51 7.97 o 0.951338
3 6 10 2614.31 2526.29 104.43 o 0.951024
2 13 10 586.36 566.74 23.00 o 0.950940
0 6 15 54.20 52.38 2.85 o 0.950913
4 5 3 2369.90 2293.44 92.99 o 0.950179
1 21 0 133.29 128.99 4.94 o 0.950164
0 12 13 95.54 92.55 4.30 o 0.950133
0 20 6 1284.85 1244.38 53.84 o 0.948794
4 6 2 2494.66 2415.50 104.13 o 0.948734
2 19 1 5093.60 4951.41 212.36 o 0.948477
1 21 1 61.06 59.12 3.44 o 0.948225
1 17 9 1090.38 1042.31 47.49 o 0.947025
1 11 13 5060.53 4866.13 224.71 o 0.946513
1 13 12 48.38 46.69 2.48 o 0.946385
0 21 4 3117.10 3027.88 140.25 o 0.946071
0 14 12 18999.54 18384.89 859.68 o 0.945967
3 15 2 6533.19 6294.96 294.13 o 0.945798
3 1 11 7439.37 7155.18 336.00 o 0.945758
4 4 4 7634.63 7329.06 345.93 o 0.945736
1 18 8 20072.50 19311.94 917.73 o 0.944573
1 4 15 3809.41 3679.52 180.34 o 0.944278
1 16 10 16232.66 15713.77 762.31 o 0.943640
4 1 5 0.01 0.01 0.01 o 0.943505
1 20 5 1888.36 1823.67 91.36 o 0.943258
3 2 11 9984.80 9651.87 477.50 o 0.942766
2 19 2 32674.80 31605.36 1591.06 o 0.942724
1 21 2 213.90 206.55 10.53 o 0.942476
0 10 14 604.38 583.62 30.53 o 0.942404
3 9 9 26.44 25.56 1.18 o 0.942364
loop_
_restr_distance_atom_site_label_1
_restr_distance_site_symmetry_1
_restr_distance_atom_site_label_2
_restr_distance_site_symmetry_2
_restr_distance_target
_restr_distance_target_weight_param
? ? ? ? ? ?
loop_
_restr_angle_atom_site_label_1
_restr_angle_site_symmetry_1
_restr_angle_atom_site_label_2
_restr_angle_site_symmetry_2
_restr_angle_atom_site_label_3
_restr_angle_site_symmetry_3
_restr_angle_target
_restr_angle_target_weight_param
? ? ? ? ? ? ? ?
loop_
_restr_torsion_atom_site_label_1
_restr_torsion_site_symmetry_1
_restr_torsion_atom_site_label_2
_restr_torsion_site_symmetry_2
_restr_torsion_atom_site_label_3
_restr_torsion_site_symmetry_3
_restr_torsion_atom_site_label_4
_restr_torsion_site_symmetry_4
_restr_torsion_angle_target
_restr_torsion_weight_param
? ? ? ? ? ? ? ? ? ?
loop_
_restr_equal_distance_atom_site_label_1
_restr_equal_distance_site_symmetry_1
_restr_equal_distance_atom_site_label_2
_restr_equal_distance_site_symmetry_2
_restr_equal_distance_class_class_id
_restr_equal_distance_class_target_weight_param
? ? ? ? ? ?
loop_
_restr_equal_angle_atom_site_label_1
_restr_equal_angle_site_symmetry_1
_restr_equal_angle_atom_site_label_2
_restr_equal_angle_site_symmetry_2
_restr_equal_angle_atom_site_label_3
_restr_equal_angle_site_symmetry_3
_restr_equal_angle_class_class_id
_restr_equal_angle_class_target_weight_param
? ? ? ? ? ? ? ?
loop_
_restr_equal_torsion_atom_site_label_1
_restr_equal_torsion_site_symmetry_1
_restr_equal_torsion_atom_site_label_2
_restr_equal_torsion_site_symmetry_2
_restr_equal_torsion_atom_site_label_3
_restr_equal_torsion_site_symmetry_3
_restr_equal_torsion_atom_site_label_4
_restr_equal_torsion_site_symmetry_4
_restr_equal_torsion_class_class_id
_restr_equal_torsion_class_target_weight_param
? ? ? ? ? ? ? ? ? ?
loop_
_jana_atom_site_adp_c_label
_jana_atom_site_adp_c_type_symbol
_jana_atom_site_adp_c_111
_jana_atom_site_adp_c_112
_jana_atom_site_adp_c_113
_jana_atom_site_adp_c_122
_jana_atom_site_adp_c_123
_jana_atom_site_adp_c_133
_jana_atom_site_adp_c_222
_jana_atom_site_adp_c_223
_jana_atom_site_adp_c_233
_jana_atom_site_adp_c_333
? ? ? ? ? ? ? ? ? ? ? ?
loop_
_jana_atom_site_adp_d_label
_jana_atom_site_adp_d_type_symbol
_jana_atom_site_adp_d_1111
_jana_atom_site_adp_d_1112
_jana_atom_site_adp_d_1113
_jana_atom_site_adp_d_1122
_jana_atom_site_adp_d_1123
_jana_atom_site_adp_d_1133
_jana_atom_site_adp_d_1222
_jana_atom_site_adp_d_1223
_jana_atom_site_adp_d_1233
_jana_atom_site_adp_d_1333
_jana_atom_site_adp_d_2222
_jana_atom_site_adp_d_2223
_jana_atom_site_adp_d_2233
_jana_atom_site_adp_d_2333
_jana_atom_site_adp_d_3333
? ? ? ? ? ? ? ? ? ? ? ? ? ? ? ? ?
loop_
_jana_atom_site_adp_e_label
_jana_atom_site_adp_e_type_symbol
_jana_atom_site_adp_e_11111
_jana_atom_site_adp_e_11112
_jana_atom_site_adp_e_11113
_jana_atom_site_adp_e_11122
_jana_atom_site_adp_e_11123
_jana_atom_site_adp_e_11133
_jana_atom_site_adp_e_11222
_jana_atom_site_adp_e_11223
_jana_atom_site_adp_e_11233
_jana_atom_site_adp_e_11333
_jana_atom_site_adp_e_12222
_jana_atom_site_adp_e_12223
_jana_atom_site_adp_e_12233
_jana_atom_site_adp_e_12333
_jana_atom_site_adp_e_13333
_jana_atom_site_adp_e_22222
_jana_atom_site_adp_e_22223
_jana_atom_site_adp_e_22233
_jana_atom_site_adp_e_22333
_jana_atom_site_adp_e_23333
_jana_atom_site_adp_e_33333
? ? ? ? ? ? ? ? ? ? ? ? ? ? ? ? ? ? ? ? ? ? ?
loop_
_jana_atom_site_adp_f_label
_jana_atom_site_adp_f_type_symbol
_jana_atom_site_adp_f_111111
_jana_atom_site_adp_f_111112
_jana_atom_site_adp_f_111113
_jana_atom_site_adp_f_111122
_jana_atom_site_adp_f_111123
_jana_atom_site_adp_f_111133
_jana_atom_site_adp_f_111222
_jana_atom_site_adp_f_111223
_jana_atom_site_adp_f_111233
_jana_atom_site_adp_f_111333
_jana_atom_site_adp_f_112222
_jana_atom_site_adp_f_112223
_jana_atom_site_adp_f_112233
_jana_atom_site_adp_f_112333
_jana_atom_site_adp_f_113333
_jana_atom_site_adp_f_122222
_jana_atom_site_adp_f_122223
_jana_atom_site_adp_f_122233
_jana_atom_site_adp_f_122333
_jana_atom_site_adp_f_123333
_jana_atom_site_adp_f_133333
_jana_atom_site_adp_f_222222
_jana_atom_site_adp_f_222223
_jana_atom_site_adp_f_222233
_jana_atom_site_adp_f_222333
_jana_atom_site_adp_f_223333
_jana_atom_site_adp_f_233333
_jana_atom_site_adp_f_333333
? ? ? ? ? ? ? ? ? ? ? ? ? ? ? ? ? ? ? ? ? ? ? ? ? ? ? ? ? ?
