#------------------------------------------------------------------------------
#$Date: 2020-07-06 04:59:54 +0300 (Mon, 06 Jul 2020) $
#$Revision: 253808 $
#$URL: file:///home/coder/svn-repositories/cod/cif/7/12/64/7126452.cif $
#------------------------------------------------------------------------------
#
# This file is available in the Crystallography Open Database (COD),
# http://www.crystallography.net/
#
# All data on this site have been placed in the public domain by the
# contributors.
#
data_7126452
loop_
_publ_author_name
'Niazi, Muhammad Rizwan'
'Hamzehpoor, Ehsan'
'Ghamari, Pegah'
'Perepichka, Igor F.'
'Perepichka, Dmitrii F.'
_publ_section_title
;
 Nitroaromatics as n-type organic semiconductors for field effect
 transistors.
;
_journal_issue                   47
_journal_name_full
'Chemical communications (Cambridge, England)'
_journal_page_first              6432
_journal_page_last               6435
_journal_paper_doi               10.1039/d0cc01236j
_journal_volume                  56
_journal_year                    2020
_chemical_formula_moiety         '2(C7 H2.5 N1.5 O2.5)'
_chemical_formula_sum            'C14 H5 N3 O5'
_chemical_formula_weight         295.21
_space_group_crystal_system      monoclinic
_space_group_IT_number           14
_space_group_name_Hall           '-P 2ybc'
_space_group_name_H-M_alt        'P 1 21/c 1'
_atom_sites_solution_hydrogens   mixed
_atom_sites_solution_primary     dual
_audit_creation_date             2019-09-30
_audit_creation_method
;
Olex2 1.2
(compiled 2018.05.29 svn.r3508 for OlexSys, GUI svn.r5506)
;
_audit_update_record
;
2020-02-16 deposited with the CCDC.	2020-04-28 downloaded from the CCDC.
;
_cell_angle_alpha                90
_cell_angle_beta                 93.994(2)
_cell_angle_gamma                90
_cell_formula_units_Z            2
_cell_length_a                   5.0814(2)
_cell_length_b                   6.9825(3)
_cell_length_c                   17.0804(8)
_cell_measurement_reflns_used    5405
_cell_measurement_temperature    100
_cell_measurement_theta_max      69.996
_cell_measurement_theta_min      5.192
_cell_volume                     604.56(5)
_computing_cell_refinement
;
SAINT (2013) V8.38A; Integration Software for Single Crystal Data.
Bruker AXS Inc., Madison, WI 53719-1173.
;
_computing_data_collection
;
APEX 2 (2013) Bruker AXS Inc., Madison, WI 53719-1173.
;
_computing_data_reduction
;
SAINT (2013) V8.38A; Integration Software for Single Crystal Data.
Bruker AXS Inc., Madison, WI 53719-1173.
;
_computing_molecular_graphics    'Olex2 (Dolomanov et al., 2009)'
_computing_publication_material  'Olex2 (Dolomanov et al., 2009)'
_computing_structure_refinement  'ShelXL (Sheldrick, 2015)'
_computing_structure_solution    'XM (Sheldrick, 2008)'
_diffrn_ambient_temperature      100
_diffrn_detector                 'CCD area detector'
_diffrn_detector_area_resol_mean 8.3
_diffrn_detector_type            'Bruker APEX2 CCD'
_diffrn_measured_fraction_theta_full 0.996
_diffrn_measured_fraction_theta_max 0.997
_diffrn_measurement_device       'three-circle diffractometer'
_diffrn_measurement_device_type  'Bruker Smart APEX'
_diffrn_measurement_method       '\w scans'
_diffrn_radiation_collimation    'Focusing mirrors'
_diffrn_radiation_monochromator  'Quazar MX Mirror Optics'
_diffrn_radiation_probe          x-ray
_diffrn_radiation_type           CuK\a
_diffrn_radiation_wavelength     1.54178
_diffrn_reflns_av_R_equivalents  0.0173
_diffrn_reflns_av_unetI/netI     0.0073
_diffrn_reflns_Laue_measured_fraction_full 0.996
_diffrn_reflns_Laue_measured_fraction_max 0.997
_diffrn_reflns_limit_h_max       6
_diffrn_reflns_limit_h_min       -6
_diffrn_reflns_limit_k_max       8
_diffrn_reflns_limit_k_min       -8
_diffrn_reflns_limit_l_max       20
_diffrn_reflns_limit_l_min       -20
_diffrn_reflns_number            15821
_diffrn_reflns_point_group_measured_fraction_full 0.996
_diffrn_reflns_point_group_measured_fraction_max 0.997
_diffrn_reflns_theta_full        67.679
_diffrn_reflns_theta_max         70.084
_diffrn_reflns_theta_min         5.192
_diffrn_source                   'Microfocus Source'
_diffrn_source_target            Cu
_diffrn_source_type              'Incoatec I\mS High Brilliance Microsource'
_exptl_absorpt_coefficient_mu    1.092
_exptl_absorpt_correction_T_max  0.8644
_exptl_absorpt_correction_T_min  0.8139
_exptl_absorpt_correction_type   multi-scan
_exptl_absorpt_process_details
'SADABS-2016/2 (Bruker,2016/2) was used for absorption correction. wR2(int) was 0.0731 before and 0.0338 after correction. The Ratio of minimum to maximum transmission is 0.9416. The \l/2 correction factor is Not present.'
_exptl_crystal_colour            yellow
_exptl_crystal_colour_primary    yellow
_exptl_crystal_density_diffrn    1.622
_exptl_crystal_description       rectangular
_exptl_crystal_F_000             300
_exptl_crystal_recrystallization_method 'Vapour deposition'
_exptl_crystal_size_max          0.113
_exptl_crystal_size_mid          0.105
_exptl_crystal_size_min          0.055
_refine_diff_density_max         0.080
_refine_diff_density_min         -0.172
_refine_diff_density_rms         0.025
_refine_ls_extinction_method     none
_refine_ls_goodness_of_fit_ref   1.053
_refine_ls_hydrogen_treatment    constr
_refine_ls_matrix_type           full
_refine_ls_number_parameters     236
_refine_ls_number_reflns         1152
_refine_ls_number_restraints     18
_refine_ls_restrained_S_all      1.064
_refine_ls_R_factor_all          0.0374
_refine_ls_R_factor_gt           0.0356
_refine_ls_shift/su_max          0.000
_refine_ls_shift/su_mean         0.000
_refine_ls_structure_factor_coef Fsqd
_refine_ls_weighting_details
'w=1/[\s^2^(Fo^2^)+(0.0727P)^2^+0.0424P] where P=(Fo^2^+2Fc^2^)/3'
_refine_ls_weighting_scheme      calc
_refine_ls_wR_factor_gt          0.1015
_refine_ls_wR_factor_ref         0.1047
_reflns_Friedel_coverage         0.000
_reflns_number_gt                1075
_reflns_number_total             1152
_reflns_threshold_expression     'I > 2\s(I)'
_cod_data_source_file            d0cc01236j2.cif
_cod_data_source_block           per1132
_cod_depositor_comments
;
The following automatic conversions were performed:

data item '_diffrn_radiation_probe' value 'X-ray' was changed to
'x-ray' in accordance with the
/home/data/users/saulius/crontab/automatic-downloads/rss-feeds/RSC/lib/dictionaries/cif_core.dic
dictionary named 'cif_core.dic' version 2.4.2 last updated on
2011-04-26.

Automatic conversion script
Id: cif_fix_values 7556 2019-12-06 15:28:31Z antanas 

 Adding full bibliography for 7126452.cif.
;
_cod_database_code               7126452
_shelx_shelxl_version_number     2018/3
_shelx_space_group_comment
;
The symmetry employed for this shelxl refinement is uniquely defined
by the following loop, which should always be used as a source of
symmetry information in preference to the above space-group names.
They are only intended as comments.
;
_shelx_estimated_absorpt_t_max   0.942
_shelx_estimated_absorpt_t_min   0.887
_olex2_refinement_description
;
1. Fixed Uiso
 At 1.2 times of:
  All C(H) groups
2. Restrained distances
 O2-N2 \\sim N2-O3 \\sim O4-N3A \\sim N3A-O5A \\sim N3A-O5B
 with sigma of 0.02
3. Uiso/Uaniso restraints and constraints
O5A \\sim O5B: within 2A with sigma of 0.02 and sigma for terminal atoms of 0.05
N3A \\sim N3B: within 2A with sigma of 0.008 and sigma for terminal atoms of
0.04
4. Others
 Sof(O5A)=Sof(N1A)=Sof(N3A)=Sof(C1A)=Sof(H12)=0.5*(1-FVAR(2))
 Sof(O5B)=Sof(N1B)=Sof(N3B)=Sof(C1B)=Sof(H2)=0.5*FVAR(2)
 Fixed Sof: O1(0.5) O2(0.5) O3(0.5) O4(0.5) N2(0.5) C2(0.5) C3(0.5) H3(0.5)
 C4(0.5) C5(0.5) H5(0.5) C6(0.5) C7(0.5) C8(0.5) C9(0.5) H9(0.5) C10(0.5)
 C11(0.5) H11(0.5) C12(0.5) C13(0.5) C14(0.5)
5.a Riding coordinates:
 C2(H2)
5.b Aromatic/amide H refined with riding coordinates:
 C3(H3), C5(H5), C9(H9), C11(H11), C12(H12)
;
_shelx_res_file
;
TITL per1132 in P21/c #14
    per1132.res
    created by SHELXL-2018/3 at 13:20:00 on 30-Sep-2019
REM Best SHELXD solution FINAL CC 63.36
REM Fragments: 15
REM reset to P21/c #14
CELL 1.54178 5.0814 6.9825 17.0804 90 93.9936 90
ZERR 2 0.0002 0.0003 0.0008 0 0.0023 0
LATT 1
SYMM -X,0.5+Y,0.5-Z
SFAC C H N O
UNIT 28 10 6 10
SADI O2 N2 N2 O3 O4 N3A N3A O5A N3A O5B
SIMU 0.02 0.05 2 O5A O5B
SIMU 0.008 0.04 2 N3A N3B

L.S. 20
PLAN  30
SIZE 0.055 0.105 0.113
TEMP -173.15
more -1
conf
HTAB
fmap 2
acta
REM <olex2.extras>
REM <HklSrc "%.\\per1132.hkl">
REM </olex2.extras>

WGHT    0.072700    0.042400
FVAR       0.72534   0.25563
PART -1
O1    4    1.428962    1.282716    0.443084    10.50000    0.04080    0.05605 =
         0.04667    0.01069    0.00461   -0.00979
O2    4    0.730133    1.474545    0.744878    10.50000    0.19920    0.13250 =
         0.07960   -0.01167    0.06870    0.03002
O3    4    1.014041    1.641155    0.685984    10.50000    0.08784    0.09353 =
         0.06171   -0.02486   -0.01999    0.02160
PART 0
O4    4    1.178310    0.453372    0.261928    10.50000    0.09867    0.09751 =
         0.09368   -0.04846   -0.04079    0.01404
PART -1
O5A   4    1.508484    0.637091    0.268537   -20.50000    0.06934    0.08360 =
         0.05225   -0.01493    0.00360    0.01175
PART 0
PART -2
O5B   4    1.401027    0.704056    0.232765    20.50000    0.15514    0.16291 =
         0.11826   -0.03920    0.04266    0.01525
PART 0
PART -1
N1A   3    0.447463    0.724225    0.598088   -20.50000    0.05050    0.06759 =
         0.05769    0.01598    0.00660   -0.01118
PART 0
PART -2
N1B   3    0.491796    0.624303    0.550875    20.50000    0.04662    0.04482 =
         0.06886    0.01666   -0.00836   -0.01663
N3B   3    1.257674    0.622513    0.279945    20.50000    0.07867    0.07065 =
         0.04587   -0.03833   -0.02863    0.03117
PART 0
PART -1
N2    3    0.886831    1.504250    0.695863    10.50000    0.07750    0.09187 =
         0.04898    0.00360    0.00623    0.02958
N3A   3    1.296402    0.582568    0.292975   -20.50000    0.08804    0.07668 =
         0.04581   -0.01338   -0.03348    0.02990
C1A   1    0.579376    0.854986    0.596852   -20.50000    0.03793    0.05730 =
         0.04226    0.01632    0.00645    0.00070
PART 0
PART -2
C1B   1    0.656471    0.674090    0.514057    20.50000    0.03522    0.03274 =
         0.05195    0.01082   -0.00400   -0.01429
PART 0
C2    1    0.747430    1.029207    0.595404    10.50000    0.03417    0.06818 =
         0.05055    0.02957    0.00760    0.00483
PART -2
AFIX   3
H2    2    0.641870    0.918807    0.598064    20.50000   -1.20000
AFIX   0
PART 0
PART -1
C3    1    0.736902    1.187310    0.647399    10.50000    0.05517    0.08210 =
         0.03440    0.01503    0.00995    0.02676
AFIX  43
H3    2    0.617183    1.187216    0.687711    10.50000   -1.20000
AFIX   0
C4    1    0.903934    1.342059    0.638536    10.50000    0.05225    0.06828 =
         0.03397    0.00603    0.00020    0.01325
C5    1    1.083281    1.352695    0.580535    10.50000    0.03778    0.05926 =
         0.03014    0.00996    0.00423    0.00754
AFIX  43
H5    2    1.194671    1.460652    0.575567    10.50000   -1.20000
AFIX   0
C6    1    1.089804    1.194650    0.529880    10.50000    0.04735    0.04725 =
         0.03009   -0.00293   -0.00558    0.01504
C7    1    1.263543    1.173612    0.464648    10.50000    0.03404    0.04691 =
         0.03562    0.01150   -0.00068   -0.00168
C8    1    1.190748    0.981118    0.430222    10.50000    0.02856    0.04523 =
         0.04085    0.01668    0.00132   -0.00766
C9    1    1.288498    0.881504    0.370501    10.50000    0.04267    0.05026 =
         0.03667    0.00089    0.00049    0.00259
AFIX  43
H9    2    1.425414    0.932413    0.341568    10.50000   -1.20000
AFIX   0
PART 0
C10   1    1.180677    0.702085    0.353254    10.50000    0.04859    0.04804 =
         0.05263   -0.00023   -0.00993    0.00419
PART -1
C11   1    0.979583    0.627768    0.392401    10.50000    0.04334    0.04333 =
         0.05040    0.00602   -0.00744   -0.00156
AFIX  43
H11   2    0.905008    0.507212    0.377634    10.50000   -1.20000
AFIX   0
PART 0
C12   1    0.885372    0.729960    0.453886    10.50000    0.03746    0.04529 =
         0.04088    0.00919    0.00316    0.00556
PART -1
AFIX  43
H12   2    0.747863    0.678985    0.482562   -20.50000   -1.20000
AFIX   0
C13   1    0.993160    0.907247    0.473310    10.50000    0.03638    0.02922 =
         0.04399    0.00669   -0.00872   -0.00268
C14   1    0.922778    1.035626    0.537227    10.50000    0.03429    0.04256 =
         0.05355    0.02270   -0.00855   -0.00817
HKLF 4




REM  per1132 in P21/c #14
REM wR2 = 0.1047, GooF = S = 1.053, Restrained GooF = 1.064 for all data
REM R1 = 0.0356 for 1075 Fo > 4sig(Fo) and 0.0374 for all 1152 data
REM 236 parameters refined using 18 restraints

END

WGHT      0.0727      0.0424

REM No hydrogen bonds found for HTAB generation

REM Highest difference peak  0.080,  deepest hole -0.172,  1-sigma level  0.025
Q1    1   0.9754  1.5568  0.7292  11.00000  0.05    0.08
Q2    1   0.5823  1.4714  0.7319  11.00000  0.05    0.08
Q3    1   0.8818  0.6523  0.4512  11.00000  0.05    0.07
Q4    1   1.1607  1.2013  0.5037  11.00000  0.05    0.07
Q5    1   0.7864  1.3807  0.7707  11.00000  0.05    0.07
Q6    1   0.5998  0.7105  0.6259  11.00000  0.05    0.07
Q7    1   1.3049  0.9723  0.3676  11.00000  0.05    0.06
Q8    1   1.4371  0.8853  0.3234  11.00000  0.05    0.06
Q9    1   1.1425  1.5657  0.6984  11.00000  0.05    0.06
Q10   1   0.5763  0.5976  0.4960  11.00000  0.05    0.06
Q11   1   0.7471  1.2359  0.6370  11.00000  0.05    0.05
Q12   1   1.5867  0.5241  0.2303  11.00000  0.05    0.05
Q13   1   1.1048  0.7602  0.3474  11.00000  0.05    0.05
Q14   1   1.4598  1.0403  0.3310  11.00000  0.05    0.05
Q15   1   0.9148  1.4486  0.7316  11.00000  0.05    0.05
Q16   1   1.5804  0.6270  0.2008  11.00000  0.05    0.05
Q17   1   0.4065  0.6742  0.5890  11.00000  0.05    0.05
Q18   1   0.4422  0.6537  0.6511  11.00000  0.05    0.05
Q19   1   1.4676  1.4377  0.6182  11.00000  0.05    0.05
Q20   1   1.6441  0.7310  0.1926  11.00000  0.05    0.04
Q21   1   1.5392  1.0080  0.3364  11.00000  0.05    0.04
Q22   1   0.4217  1.1483  0.7357  11.00000  0.05    0.04
Q23   1   0.7314  1.1181  0.7501  11.00000  0.05    0.04
Q24   1   1.6104  0.7497  0.3011  11.00000  0.05    0.04
Q25   1   1.5985  0.9133  0.2933  11.00000  0.05    0.04
Q26   1   0.5938  0.5533  0.5696  11.00000  0.05    0.04
Q27   1   1.1872  1.5097  0.5931  11.00000  0.05    0.04
Q28   1   1.0887  1.7432  0.7067  11.00000  0.05    0.04
Q29   1   0.5962  1.1177  0.7448  11.00000  0.05    0.04
Q30   1   1.0566  1.6651  0.6769  11.00000  0.05    0.04
;
_shelx_res_checksum              77083
_shelx_hkl_file
;
   1   0   0  922.04   10.70
   1   0   0  945.36   10.83
   1   0   0  785.73   10.83
   1   0   0  910.85   10.66
   2   0   0   16.84    0.58
   2   0   0   15.90    0.63
  -2   0   0   15.93    0.53
  -2   0   0   15.15    0.41
  -2   0   0   16.09    0.52
  -2   0   0   17.35    0.59
  -2   0   0   16.68    0.38
  -2   0   0   15.94    0.44
   2   0   0   16.62    0.63
   2   0   0   17.75    0.52
   2   0   0   15.92    0.47
   3   0   0   13.20    0.73
   3   0   0   13.52    0.66
  -3   0   0   13.07    0.47
   3   0   0   13.00    0.70
  -3   0   0   13.05    0.60
  -3   0   0   13.43    0.68
  -3   0   0   12.41    0.59
  -4   0   0   25.42    0.55
  -4   0   0   25.58    0.61
  -4   0   0   25.14    0.56
   4   0   0   26.38    0.64
   4   0   0   25.34    0.68
   4   0   0   25.76    0.63
   4   0   0   25.53    0.63
  -5   0   0    3.12    0.23
  -5   0   0    3.34    0.27
   5   0   0    3.69    0.28
   5   0   0    3.02    0.24
   5   0   0    3.64    0.31
   5   0   0    3.31    0.25
  -5   0   0    3.65    0.25
  -6   0   0   15.41    0.39
   6   0   0   15.46    0.40
  -6   0   0   15.02    0.34
   6   0   0   14.42    0.37
   0  -1   0    0.03    0.03
   0  -1   0   -0.02    0.03
   0  -1   0    0.01    0.03
   0   1   0   -0.02    0.03
   0   1   0    0.00    0.03
   0   1   0    0.00    0.03
   0   1   0    0.04    0.04
   0   1   0   -0.02    0.03
   0   1   0   -0.03    0.02
  -1  -1   0   15.38    0.32
   1  -1   0   15.16    0.43
   1  -1   0   15.94    0.49
  -1  -1   0   15.55    0.44
   1  -1   0   15.22    0.45
   1  -1   0   15.28    0.40
  -1  -1   0   15.85    0.46
  -1  -1   0   15.84    0.42
  -1   1   0   15.69    0.43
  -1   1   0   15.77    0.44
  -1   1   0   15.41    0.31
  -1   1   0   15.06    0.36
   1   1   0   15.65    0.38
  -1   1   0   15.74    0.37
   1   1   0   16.33    0.51
   1   1   0   16.04    0.45
   1   1   0   15.13    0.41
  -1   1   0   15.30    0.48
   1   1   0   15.38    0.39
   1   1   0   15.01    0.40
   2  -1   0   13.40    0.58
   2  -1   0   12.75    0.49
   2  -1   0   12.66    0.50
  -2  -1   0   13.21    0.54
   2  -1   0   12.41    0.47
  -2  -1   0   13.04    0.34
  -2  -1   0   12.70    0.50
  -2  -1   0   13.13    0.45
   2  -1   0   13.07    0.51
  -2  -1   0   13.05    0.49
  -2   1   0   12.36    0.49
   2   1   0   13.44    0.62
  -2   1   0   13.76    0.52
   2   1   0   13.01    0.53
   2   1   0   12.81    0.51
  -2   1   0   12.53    0.33
   2   1   0   12.01    0.42
  -2   1   0   13.18    0.56
   2   1   0   12.95    0.50
  -2   1   0   12.94    0.41
  -2   1   0   13.28    0.38
  -3  -1   0  131.41    2.19
  -3  -1   0  137.87    2.57
  -3  -1   0  128.90    2.41
   3  -1   0  133.72    2.36
  -3  -1   0  128.02    2.40
   3  -1   0  131.65    2.50
   3  -1   0  136.24    2.80
  -3   1   0  135.00    2.66
   3   1   0  131.47    2.56
  -3   1   0  135.42    2.51
   3   1   0  135.85    2.83
   3   1   0  131.79    2.54
  -3   1   0  129.79    2.16
   3   1   0  133.78    2.44
  -3   1   0  127.53    2.41
  -4  -1   0    0.18    0.07
   4  -1   0    0.07    0.08
   4  -1   0    0.17    0.09
   4  -1   0    0.23    0.09
  -4   1   0    0.08    0.07
   4   1   0    0.03    0.08
   4   1   0   -0.01    0.08
   4   1   0   -0.02    0.07
   4   1   0    0.07    0.07
  -4   1   0    0.11    0.07
  -4   1   0    0.13    0.07
   4   1   0    0.00    0.09
  -5  -1   0    1.50    0.18
   5  -1   0    1.14    0.17
  -5  -1   0    1.67    0.17
  -5  -1   0    1.45    0.16
   5  -1   0    1.48    0.20
  -5   1   0    1.54    0.16
  -5   1   0    1.66    0.17
   5   1   0    1.22    0.16
   5   1   0    1.33    0.20
   5   1   0    1.65    0.19
  -5   1   0    1.67    0.21
   6  -1   0    0.14    0.04
  -6  -1   0    0.13    0.06
  -6  -1   0    0.19    0.08
  -6  -1   0    0.14    0.05
   6  -1   0    0.28    0.08
   6  -1   0    0.09    0.07
   6   1   0    0.15    0.07
   6   1   0    0.08    0.06
  -6   1   0    0.12    0.07
   6   1   0    0.13    0.07
  -6   1   0    0.12    0.07
   0  -2   0    1.65    0.15
   0  -2   0    1.54    0.18
   0  -2   0    1.55    0.15
   0   2   0    1.55    0.18
   0   2   0    1.44    0.15
   0   2   0    1.74    0.16
   0   2   0    1.50    0.15
   0   2   0    1.76    0.20
   0   2   0    1.53    0.21
   1  -2   0  230.14    3.37
  -1  -2   0  237.86    3.35
   1  -2   0  234.09    3.08
  -1  -2   0  234.82    3.11
  -1  -2   0  241.69    3.45
  -1  -2   0  237.72    3.08
   1  -2   0  239.75    3.45
   1  -2   0  237.38    3.33
   1   2   0  233.32    3.13
   1   2   0  241.97    3.27
   1   2   0  237.51    3.38
  -1   2   0  238.61    3.48
  -1   2   0  238.90    3.21
  -1   2   0  239.30    3.39
   1   2   0  235.10    3.37
  -1   2   0  232.85    3.08
  -1   2   0  239.17    3.38
   1   2   0  236.90    3.45
   1   2   0  234.17    3.26
   2  -2   0  169.24    2.89
  -2  -2   0  164.93    2.29
  -2  -2   0  163.56    2.69
   2  -2   0  161.82    2.76
   2  -2   0  167.32    2.71
  -2  -2   0  168.38    2.77
   2  -2   0  166.72    2.57
  -2  -2   0  163.62    2.64
   2   2   0  159.68    2.60
   2   2   0  162.33    2.55
   2   2   0  168.65    2.77
  -2   2   0  164.82    2.77
  -2   2   0  164.27    2.48
  -2   2   0  164.58    2.43
   2   2   0  165.77    2.96
   2   2   0  164.94    2.57
  -2   2   0  159.84    2.84
  -2   2   0  158.72    2.68
   3  -2   0    1.15    0.32
  -3  -2   0    1.11    0.23
  -3  -2   0    1.18    0.25
   3  -2   0    1.11    0.27
  -3  -2   0    1.30    0.24
  -3  -2   0    1.03    0.25
   3  -2   0    1.37    0.27
   3   2   0    1.56    0.29
  -3   2   0    1.27    0.30
  -3   2   0    1.14    0.28
   3   2   0    1.03    0.23
  -3   2   0    1.07    0.17
   3   2   0    1.30    0.28
   3   2   0    1.34    0.23
  -3   2   0    1.16    0.26
   4  -2   0    6.10    0.31
  -4  -2   0    6.42    0.26
   4  -2   0    5.82    0.28
   4  -2   0    6.42    0.32
   4   2   0    6.34    0.26
   4   2   0    5.72    0.29
   4   2   0    5.83    0.25
  -4   2   0    5.87    0.27
   4   2   0    6.35    0.28
  -4   2   0    6.06    0.26
   4   2   0    6.19    0.27
   4   2   0    6.17    0.34
  -4   2   0    5.33    0.30
   4   2   0    5.98    0.28
  -4   2   0    6.41    0.27
   5  -2   0    1.72    0.17
   5  -2   0    1.31    0.17
  -5  -2   0    1.80    0.17
   5  -2   0    1.40    0.17
  -5  -2   0    1.78    0.19
   5   2   0    1.44    0.18
   5   2   0    2.03    0.22
  -5   2   0    1.92    0.19
  -5   2   0    1.71    0.20
  -5   2   0    2.03    0.19
   5   2   0    1.68    0.16
   6  -2   0    2.38    0.15
   6  -2   0    1.91    0.14
  -6  -2   0    2.63    0.15
  -6   2   0    2.54    0.15
   6   2   0    2.45    0.15
   6   2   0    2.49    0.14
   0  -3   0   -0.06    0.07
   0  -3   0    0.06    0.07
   0  -3   0    0.06    0.10
   0  -3   0    0.00    0.08
   0   3   0    0.00    0.05
   0   3   0   -0.08    0.05
   0   3   0    0.05    0.08
   0   3   0    0.02    0.07
   0   3   0   -0.04    0.09
   1  -3   0   90.36    1.60
  -1  -3   0   90.89    1.77
  -1  -3   0   88.04    1.83
  -1  -3   0   89.56    1.54
   1  -3   0   89.72    1.70
   1  -3   0   88.06    1.67
  -1  -3   0   88.87    1.51
  -1   3   0   92.44    1.82
   1   3   0   91.95    1.68
   1   3   0   88.44    1.66
  -1   3   0   88.98    1.92
  -1   3   0   88.77    1.64
   1   3   0   87.61    1.75
   1   3   0   87.61    1.74
  -1   3   0   89.70    1.81
   1   3   0   91.95    1.79
  -1   3   0   88.90    1.52
   2  -3   0    6.82    0.47
   2  -3   0    6.13    0.58
   2  -3   0    6.44    0.53
   2  -3   0    6.51    0.60
  -2  -3   0    5.25    0.46
  -2  -3   0    5.90    0.50
  -2  -3   0    5.74    0.52
   2   3   0    5.75    0.45
   2   3   0    5.36    0.48
  -2   3   0    6.16    0.46
  -2   3   0    6.44    0.56
   2   3   0    6.17    0.48
   2   3   0    5.37    0.55
  -2   3   0    6.62    0.61
  -2   3   0    5.78    0.52
   3  -3   0    0.28    0.08
  -3  -3   0   -0.02    0.18
  -3  -3   0   -0.02    0.14
   3  -3   0    0.11    0.19
  -3  -3   0   -0.06    0.15
   3  -3   0   -0.10    0.20
  -3  -3   0    0.04    0.22
  -3   3   0    0.05    0.18
   3   3   0    0.09    0.17
   3   3   0    0.06    0.27
  -3   3   0    0.18    0.24
   3   3   0    0.08    0.12
   4  -3   0    5.44    0.29
  -4  -3   0    5.36    0.28
   4  -3   0    5.70    0.29
   4  -3   0    5.61    0.37
  -4   3   0    5.42    0.25
   4   3   0    5.89    0.31
   4   3   0    4.98    0.26
   4   3   0    5.59    0.24
   4   3   0    5.43    0.26
  -4   3   0    5.26    0.29
  -4   3   0    4.76    0.33
  -4   3   0    5.13    0.26
   4   3   0    5.76    0.28
   4   3   0    6.05    0.26
   4   3   0    5.22    0.34
   4   3   0    4.93    0.31
   5  -3   0    0.18    0.09
  -5  -3   0    0.30    0.11
   5  -3   0    0.00    0.07
  -5  -3   0    0.17    0.07
   5  -3   0    0.16    0.09
   5   3   0    0.15    0.10
   5   3   0    0.11    0.06
  -5   3   0    0.16    0.08
  -5   3   0    0.21    0.09
  -5   3   0    0.05    0.07
   5   3   0    0.28    0.08
   5   3   0    0.21    0.08
   5   3   0    0.23    0.10
   0  -4   0    2.14    0.32
   0  -4   0    1.79    0.25
   0  -4   0    2.06    0.25
   0   4   0    1.81    0.30
   0   4   0    2.59    0.39
   0   4   0    1.64    0.27
   0   4   0    2.20    0.28
   1  -4   0    2.01    0.32
  -1  -4   0    2.00    0.31
   1  -4   0    1.99    0.30
  -1  -4   0    1.66    0.23
  -1  -4   0    1.89    0.30
   1  -4   0    2.31    0.36
   1   4   0    2.18    0.32
   1   4   0    1.92    0.32
  -1   4   0    2.31    0.35
  -1   4   0    1.77    0.32
  -1   4   0    1.99    0.35
  -1   4   0    1.43    0.27
   1   4   0    2.04    0.29
  -1   4   0    2.12    0.24
   1   4   0    1.91    0.28
   2  -4   0   59.42    1.77
  -2  -4   0   61.25    1.63
  -2  -4   0   57.60    1.67
   2  -4   0   59.26    1.62
   2  -4   0   58.89    1.43
  -2  -4   0   59.70    1.69
  -2   4   0   60.81    1.85
  -2   4   0   60.47    1.50
  -2   4   0   60.04    1.67
   2   4   0   61.06    1.73
   2   4   0   59.14    1.72
   2   4   0   60.73    1.54
  -2   4   0   57.07    1.68
   2   4   0   60.64    1.55
   3  -4   0   78.96    1.35
  -3   4   0   77.96    1.31
  -3   4   0   80.40    1.41
  -3   4   0   76.96    1.34
   3   4   0   78.21    1.35
  -3   4   0   79.88    1.40
   3   4   0   77.50    1.33
   3   4   0   78.46    1.34
   3   4   0   79.24    1.29
  -3   4   0   77.93    1.30
  -3   4   0   79.93    1.31
   3   4   0   79.54    1.28
   3   4   0   78.89    1.28
   3   4   0   79.77    1.33
   3   4   0   78.81    1.25
  -3   4   0   78.16    1.29
   3   4   0   79.38    1.30
   3   4   0   80.01    1.22
   3   4   0   77.47    1.33
  -4  -4   0   20.29    0.54
   4  -4   0   19.73    0.55
   4  -4   0   19.75    0.58
  -4   4   0   19.08    0.51
   4   4   0   20.49    0.50
  -4   4   0   19.95    0.53
   4   4   0   20.07    0.52
   4   4   0   20.10    0.56
   4   4   0   19.49    0.48
  -4   4   0   20.35    0.52
   4   4   0   19.28    0.47
  -4   4   0   18.87    0.57
   4   4   0   19.90    0.48
  -4   4   0   19.15    0.59
   4   4   0   19.36    0.53
   4   4   0   19.94    0.54
   4   4   0   19.66    0.52
   4   4   0   18.92    0.52
  -5  -4   0    1.03    0.13
   5  -4   0    0.71    0.11
  -5  -4   0    0.82    0.11
   5  -4   0    0.92    0.13
  -5   4   0    0.84    0.13
   5   4   0    0.95    0.12
   5   4   0    0.86    0.10
  -5   4   0    0.80    0.11
   5   4   0    1.06    0.13
   5   4   0    1.03    0.11
   0  -5   0   -0.02    0.17
   0  -5   0   -0.04    0.24
   0  -5   0    0.08    0.12
   0   5   0    0.03    0.16
   0   5   0    0.22    0.22
   0   5   0   -0.03    0.15
  -1  -5   0    6.18    0.64
   1  -5   0    7.00    0.70
  -1  -5   0    5.49    0.47
   1  -5   0    5.98    0.51
   1  -5   0    5.97    0.67
  -1  -5   0    6.08    0.66
   1   5   0    6.97    0.71
   1   5   0    7.40    0.68
   1   5   0    6.69    0.62
  -1   5   0    6.52    0.62
  -1   5   0    6.63    0.70
  -1   5   0    6.24    0.70
  -2   5   0    1.04    0.14
   2   5   0    1.70    0.18
   2   5   0    1.33    0.16
  -2   5   0    1.34    0.16
  -2   5   0    1.20    0.18
   2   5   0    1.40    0.15
   2   5   0    1.17    0.15
   2   5   0    1.46    0.14
   2   5   0    1.30    0.16
   2   5   0    1.33    0.17
  -2   5   0    1.62    0.18
   2   5   0    1.14    0.16
   2   5   0    1.22    0.18
  -2   5   0    1.23    0.17
  -2   5   0    1.40    0.18
  -2   5   0    1.25    0.17
  -2   5   0    1.31    0.16
  -2   5   0    1.55    0.19
  -2   5   0    1.21    0.18
   2   5   0    1.54    0.18
   3  -5   0    0.66    0.14
   3   5   0    0.53    0.12
   3   5   0    0.39    0.10
   3   5   0    0.38    0.10
  -3   5   0    0.37    0.10
   3   5   0    0.55    0.10
   3   5   0    0.39    0.10
  -3   5   0    0.46    0.13
   3   5   0    0.74    0.13
  -3   5   0    0.51    0.12
  -3   5   0    0.38    0.11
  -3   5   0    0.47    0.13
   3   5   0    0.47    0.12
  -3   5   0    0.53    0.13
   3   5   0    0.50    0.11
   3   5   0    0.63    0.14
  -3   5   0    0.39    0.11
   3   5   0    0.43    0.10
  -4  -5   0    0.01    0.06
   4  -5   0   -0.14    0.07
   4  -5   0    0.03    0.08
   4  -5   0   -0.04    0.07
   4   5   0   -0.03    0.04
  -4   5   0   -0.01    0.07
  -4   5   0    0.10    0.06
   4   5   0    0.08    0.07
   4   5   0    0.01    0.05
   4   5   0   -0.06    0.06
   4   5   0    0.05    0.06
  -4   5   0   -0.02    0.07
  -4   5   0   -0.03    0.07
   4   5   0   -0.07    0.05
   4   5   0    0.06    0.07
   4   5   0    0.05    0.07
  -4   5   0    0.01    0.05
   4   5   0   -0.01    0.05
   5  -5   0    3.46    0.16
  -5  -5   0    3.68    0.14
  -5  -5   0    3.66    0.15
  -5   5   0    3.83    0.18
   5   5   0    3.47    0.15
  -5   5   0    3.75    0.16
   5   5   0    3.89    0.15
   0   6   0   24.49    0.61
   0   6   0   24.73    0.62
   0   6   0   24.96    0.64
   0   6   0   23.67    0.64
   0   6   0   24.87    0.59
   0   6   0   24.13    0.61
   0   6   0   25.11    0.61
   0   6   0   24.64    0.61
   0   6   0   23.94    0.64
   0   6   0   24.49    0.65
  -1   6   0    2.82    0.24
   1   6   0    2.62    0.22
   1   6   0    2.92    0.22
   1   6   0    2.73    0.24
  -1   6   0    2.52    0.21
   1   6   0    3.16    0.26
  -1   6   0    3.25    0.26
   1   6   0    2.66    0.23
  -1   6   0    2.79    0.25
   1   6   0    2.70    0.21
   1   6   0    2.81    0.24
   1   6   0    2.84    0.26
  -1   6   0    2.46    0.24
  -1   6   0    2.68    0.27
  -1   6   0    2.75    0.22
   1   6   0    2.54    0.21
  -1   6   0    3.11    0.24
  -1   6   0    2.99    0.24
   1   6   0    2.67    0.23
  -1   6   0    3.09    0.26
  -2   6   0    3.71    0.29
   2   6   0    4.18    0.29
  -2   6   0    4.20    0.28
   2   6   0    4.45    0.28
  -2   6   0    4.34    0.33
  -2   6   0    3.94    0.26
   2   6   0    4.75    0.34
   2   6   0    4.49    0.29
  -2   6   0    4.29    0.29
   2   6   0    4.48    0.22
  -2   6   0    4.42    0.30
   2   6   0    4.32    0.24
  -2   6   0    4.94    0.28
   2   6   0    4.21    0.22
  -2   6   0    4.13    0.30
  -2   6   0    5.02    0.25
   2   6   0    4.32    0.29
   2   6   0    4.28    0.30
  -2   6   0    4.12    0.29
   2   6   0    4.44    0.29
   3  -6   0    0.52    0.13
   3  -6   0    0.90    0.14
   3   6   0    0.52    0.10
  -3   6   0    0.82    0.12
  -3   6   0    0.88    0.14
   3   6   0    0.75    0.12
   3   6   0    0.63    0.12
  -3   6   0    0.79    0.14
   3   6   0    0.66    0.10
   3   6   0    0.55    0.11
  -3   6   0    0.79    0.12
   3   6   0    0.62    0.12
   3   6   0    0.91    0.14
  -3   6   0    0.76    0.14
   3   6   0    0.60    0.11
   3   6   0    0.65    0.11
  -3   6   0    0.73    0.12
  -3   6   0    0.53    0.11
  -4  -6   0    0.08    0.05
  -4  -6   0    0.00    0.06
   4  -6   0    0.07    0.09
   4  -6   0    0.09    0.07
   4  -6   0    0.12    0.07
   4   6   0    0.15    0.07
   4   6   0    0.05    0.04
   4   6   0    0.01    0.05
   4   6   0    0.09    0.06
   4   6   0    0.07    0.06
  -4   6   0    0.04    0.06
   4   6   0    0.05    0.05
   4   6   0   -0.01    0.05
  -4   6   0    0.02    0.06
   4   6   0    0.12    0.06
   0   7   0    0.01    0.06
   0   7   0    0.10    0.09
   0   7   0    0.07    0.08
   0   7   0    0.09    0.08
   0   7   0    0.04    0.06
   0   7   0    0.09    0.08
   0   7   0    0.00    0.07
   0   7   0    0.01    0.08
   0   7   0    0.02    0.08
   0   7   0   -0.01    0.07
  -1   7   0    0.20    0.09
   1   7   0    0.31    0.11
   1   7   0    0.25    0.09
  -1   7   0    0.30    0.10
  -1   7   0    0.18    0.08
  -1   7   0    0.23    0.10
  -1   7   0    0.24    0.09
   1   7   0    0.09    0.07
  -1   7   0    0.21    0.09
  -1   7   0    0.33    0.10
  -1   7   0    0.38    0.11
   1   7   0    0.18    0.09
   1   7   0    0.23    0.09
   1   7   0    0.15    0.08
   1   7   0    0.27    0.09
   1   7   0    0.23    0.09
   1   7   0    0.12    0.07
   1   7   0    0.24    0.09
  -1   7   0    0.27    0.09
  -1   7   0    0.40    0.11
   2  -7   0    7.27    0.32
  -2   7   0    7.93    0.29
   2   7   0    7.70    0.29
   2   7   0    7.41    0.28
   2   7   0    7.64    0.30
  -2   7   0    7.21    0.27
  -2   7   0    7.93    0.33
   2   7   0    8.17    0.33
   2   7   0    7.91    0.27
  -2   7   0    7.65    0.30
   2   7   0    7.45    0.26
  -2   7   0    7.84    0.30
   2   7   0    7.26    0.29
   2   7   0    7.69    0.31
  -2   7   0    7.37    0.32
   2   7   0    8.27    0.30
  -2   7   0    7.57    0.30
  -2   7   0    7.48    0.30
  -2   7   0    7.76    0.31
   3  -7   0    1.04    0.13
   3  -7   0    0.73    0.12
   3   7   0    0.93    0.10
   3   7   0    0.82    0.10
   3   7   0    0.63    0.08
   3   7   0    0.93    0.11
  -3   7   0    0.74    0.11
   3   7   0    0.79    0.09
   3   7   0    0.85    0.12
  -3   7   0    0.91    0.11
   3   7   0    0.94    0.11
   3   7   0    0.71    0.10
  -3   7   0    0.58    0.09
  -3   7   0    0.90    0.12
  -3   7   0    0.84    0.09
   0  -8   0    0.82    0.12
   0   8   0    0.77    0.10
   0   8   0    0.88    0.11
   0   8   0    0.88    0.11
   0   8   0    0.96    0.10
   0   8   0    0.83    0.11
   0   8   0    0.68    0.12
   0   8   0    0.86    0.10
   0   8   0    0.84    0.11
  -1  -8   0    0.02    0.06
  -1   8   0    0.02    0.05
   1   8   0    0.04    0.05
   1   8   0    0.12    0.07
  -1   8   0   -0.01    0.05
   1   8   0   -0.01    0.04
   1   8   0    0.04    0.05
   1   8   0   -0.04    0.04
  -1   8   0    0.00    0.06
   1   8   0   -0.04    0.05
   1   8   0    0.00    0.05
  -1   8   0   -0.04    0.05
  -1   8   0    0.04    0.04
  -1   8   0   -0.06    0.05
  -1   8   0   -0.03    0.05
   1   8   0    0.04    0.06
  -1   8   0    0.01    0.06
   2  -8   0    2.25    0.15
   2   8   0    2.36    0.11
   2   8   0    2.44    0.13
  -2   8   0    2.33    0.12
  -2   8   0    2.50    0.14
   2   8   0    2.14    0.12
  -2   8   0    2.14    0.14
  -2   8   0    1.88    0.13
   2   8   0    2.44    0.13
   2   8   0    2.30    0.12
   2   8   0    2.61    0.13
   2   8   0    2.21    0.12
   6   0  -1   -0.05    0.07
   6   0  -1    0.04    0.06
  -6   0   1   -0.03    0.06
  -6   0   1   -0.06    0.05
  -5   0   1    0.00    0.07
   5   0  -1   -0.04    0.07
   5   0  -1    0.09    0.09
   5   0  -1    0.03    0.07
  -5   0   1   -0.01    0.06
   5   0  -1    0.15    0.08
  -5   0   1   -0.06    0.07
  -5   0   1    0.02    0.07
   4   0  -1    0.08    0.08
  -4   0   1    0.05    0.06
   4   0  -1   -0.10    0.06
  -4   0   1   -0.06    0.05
   4   0  -1    0.07    0.10
   4   0  -1    0.07    0.08
   4   0  -1   -0.06    0.07
  -3   0   1    0.01    0.12
  -3   0   1    0.00    0.13
   3   0  -1    0.32    0.20
  -3   0   1   -0.03    0.08
   3   0  -1    0.04    0.13
   3   0  -1   -0.04    0.10
  -2   0   1   -0.02    0.04
   2   0  -1    0.11    0.08
   2   0  -1    0.00    0.08
  -2   0   1   -0.02    0.05
  -2   0   1    0.07    0.05
  -2   0   1    0.05    0.07
   2   0  -1    0.02    0.09
   2   0  -1   -0.02    0.06
   2   0  -1    0.05    0.08
  -2   0   1    0.10    0.06
   1   0  -1   -0.01    0.05
   1   0  -1    0.21    0.07
   1   0  -1    0.01    0.06
   1   0  -1   -0.06    0.04
   1   0  -1   -0.02    0.06
  -1   0   1   -0.02    0.04
  -1   0   1   -0.01    0.04
  -1   0   1    0.07    0.04
  -1   0   1    0.43    0.08
   0   0  -1    0.00    0.02
   0   0   1    0.02    0.01
   0   0  -1   -0.01    0.01
   0   0  -1    0.01    0.02
   0   0   1    0.00    0.01
   0   0  -1    0.00    0.01
   0   0   1   -0.01    0.01
   0   0  -1    0.01    0.01
   0   0  -1    0.00    0.01
   0   0   1    0.01    0.01
   1   0   1   -0.01    0.05
   1   0   1    0.07    0.06
   1   0   1   -0.01    0.07
   1   0   1   -0.01    0.05
  -1   0  -1    0.04    0.04
  -1   0  -1    0.39    0.08
  -1   0  -1   -0.02    0.05
   1   0   1    0.02    0.07
  -1   0  -1    0.03    0.03
   1   0   1   -0.03    0.03
  -1   0  -1    0.04    0.05
  -2   0  -1   -0.07    0.06
  -2   0  -1    0.05    0.07
   2   0   1    0.01    0.06
  -2   0  -1   -0.01    0.04
  -2   0  -1   -0.01    0.05
  -2   0  -1    0.01    0.05
   2   0   1    0.17    0.10
   2   0   1   -0.04    0.07
   2   0   1   -0.05    0.05
   2   0   1   -0.06    0.07
   2   0   1    0.02    0.06
   3   0   1   -0.08    0.12
  -3   0  -1    0.00    0.17
   3   0   1   -0.04    0.11
  -3   0  -1    0.09    0.03
  -3   0  -1    0.00    0.12
   3   0   1   -0.28    0.14
  -3   0  -1    0.05    0.09
  -4   0  -1   -0.02    0.06
   4   0   1   -0.08    0.08
   4   0   1    0.01    0.07
   4   0   1    0.03    0.07
  -4   0  -1    0.04    0.05
   4   0   1   -0.02    0.07
  -4   0  -1    0.04    0.06
   5   0   1   -0.01    0.07
  -5   0  -1   -0.04    0.07
  -5   0  -1   -0.04    0.06
  -5   0  -1   -0.04    0.06
   5   0   1    0.01    0.09
   5   0   1   -0.06    0.06
   5   0   1   -0.02    0.07
   6   0   1   -0.05    0.07
  -6   0  -1   -0.02    0.06
  -6   0  -1    0.00    0.04
  -6   0  -1    0.09    0.08
   6   0   1   -0.05    0.06
   6  -1  -1    1.38    0.13
   6  -1  -1    1.27    0.13
  -6  -1   1    1.21    0.11
   6  -1  -1    1.22    0.11
  -6  -1   1    1.36    0.13
   6   1  -1    1.23    0.12
  -6   1   1    1.40    0.14
   6   1  -1    1.03    0.10
   6   1  -1    1.36    0.14
  -6   1   1    1.26    0.12
   5  -1  -1    1.24    0.17
   5  -1  -1    1.28    0.19
  -5  -1   1    0.98    0.13
  -5  -1   1    1.70    0.17
   5  -1  -1    1.25    0.17
  -5  -1   1    1.24    0.17
  -5   1   1    1.28    0.15
   5   1  -1    1.12    0.17
  -5   1   1    1.54    0.21
   5   1  -1    1.14    0.18
   5   1  -1    1.55    0.16
  -5   1   1    1.10    0.14
   5   1  -1    1.22    0.16
  -5   1   1    1.39    0.16
   4  -1  -1    6.04    0.32
  -4  -1   1    6.41    0.28
  -4  -1   1    6.86    0.26
   4  -1  -1    6.31    0.31
   4  -1  -1    7.00    0.32
  -4   1   1    6.27    0.27
   4   1  -1    6.24    0.34
   4   1  -1    6.50    0.31
  -4   1   1    6.45    0.27
   4   1  -1    6.00    0.27
   4   1  -1    6.67    0.27
   4   1  -1    6.31    0.26
  -4   1   1    6.41    0.30
  -4   1   1    6.48    0.27
   4   1  -1    6.38    0.31
   3  -1  -1    5.67    0.55
   3  -1  -1    6.07    0.51
   3  -1  -1    5.36    0.59
  -3  -1   1    5.04    0.36
  -3  -1   1    6.63    0.58
  -3  -1   1    6.17    0.45
  -3  -1   1    5.39    0.48
   3   1  -1    5.55    0.57
   3   1  -1    6.17    0.59
   3   1  -1    5.79    0.59
  -3   1   1    5.98    0.42
  -3   1   1    5.54    0.56
  -3   1   1    5.55    0.52
   3   1  -1    5.75    0.49
  -2  -1   1    5.56    0.30
   2  -1  -1    6.04    0.34
   2  -1  -1    5.22    0.38
   2  -1  -1    6.39    0.41
   2  -1  -1    5.99    0.32
   2  -1  -1    6.09    0.35
   2  -1  -1    6.15    0.25
  -2  -1   1    6.36    0.34
  -2  -1   1    6.06    0.32
  -2  -1   1    5.97    0.35
  -2   1   1    5.80    0.28
  -2   1   1    5.94    0.24
  -2   1   1    6.00    0.24
  -2   1   1    6.42    0.32
   2   1  -1    5.94    0.30
   2   1  -1    6.48    0.43
  -2   1   1    6.03    0.33
   2   1  -1    6.05    0.36
   2   1  -1    6.02    0.36
   2   1  -1    5.73    0.42
  -2   1   1    5.79    0.36
  -1  -1   1  186.85    2.34
   1  -1  -1  192.10    2.68
   1  -1  -1  189.13    2.58
  -1  -1   1  191.86    2.62
   1  -1  -1  188.29    2.51
   1  -1  -1  186.77    2.46
  -1  -1   1  186.76    2.52
   1  -1  -1  188.29    2.60
  -1  -1   1  189.59    2.60
   1   1  -1  187.38    2.50
   1   1  -1  191.33    2.61
   1   1  -1  189.72    2.53
  -1   1   1  194.25    2.49
  -1   1   1  166.45    2.50
  -1   1   1  192.72    2.59
   1   1  -1  189.72    2.52
   1   1  -1  188.21    2.71
  -1   1   1  186.16    2.37
  -1   1   1  187.06    2.40
  -1   1   1  187.75    2.63
   0  -1  -1  122.78    1.64
   0  -1  -1  120.24    1.63
   0  -1  -1  122.87    1.72
   0  -1   1  125.66    1.65
   0  -1  -1  125.77    1.72
   0   1  -1  125.79    1.63
   0   1  -1  128.11    1.59
   0   1   1  126.20    1.63
   0   1  -1  126.32    1.63
   0   1   1  125.19    1.73
   0   1  -1  125.17    1.78
   0   1   1  125.64    1.67
   0   1  -1  126.03    1.71
   0   1  -1  125.62    1.64
   0   1  -1  126.60    1.65
   0   1  -1  126.86    1.65
   0   1  -1  124.91    1.74
   0   1   1  125.21    1.66
   0   1   1  126.99    1.72
   1  -1   1  119.57    1.68
   1  -1   1  119.04    1.73
   1  -1   1  121.57    1.78
  -1  -1  -1  117.87    1.62
  -1  -1  -1  121.98    1.82
  -1  -1  -1  120.74    1.77
  -1  -1  -1  122.17    1.78
   1  -1   1  122.38    1.88
   1   1   1  117.63    1.69
  -1   1  -1  120.25    1.68
  -1   1  -1  121.53    1.88
   1   1   1  122.29    1.74
  -1   1  -1  122.66    1.63
   1   1   1  115.49    1.65
   1   1   1  119.81    1.72
  -1   1  -1  122.82    1.82
  -1   1  -1  121.08    1.78
  -2  -1  -1  263.34    3.74
  -2  -1  -1  262.18    3.58
  -2  -1  -1  269.32    3.83
   2  -1   1  267.63    4.02
   2  -1   1  266.22    3.78
   2  -1   1  259.46    3.73
   2  -1   1  267.53    3.76
  -2  -1  -1  262.07    3.75
  -2  -1  -1  265.22    3.47
   2  -1   1  263.79    3.78
  -2   1  -1  268.61    3.94
  -2   1  -1  261.38    3.51
   2   1   1  261.82    3.58
  -2   1  -1  267.17    3.77
  -2   1  -1  263.87    3.50
   2   1   1  264.20    3.78
   2   1   1  261.74    3.80
  -2   1  -1  267.93    3.80
   2   1   1  268.33    3.82
   2   1   1  272.07    4.08
  -3  -1  -1    1.62    0.18
  -3  -1  -1    1.84    0.30
  -3  -1  -1    1.93    0.32
   3  -1   1    2.10    0.42
  -3  -1  -1    2.23    0.31
   3  -1   1    2.17    0.29
   3  -1   1    2.91    0.39
   3   1   1    2.56    0.34
   3   1   1    2.46    0.40
   3   1   1    2.10    0.29
   3   1   1    2.16    0.33
  -3   1  -1    3.15    0.44
  -3   1  -1    2.48    0.34
  -3   1  -1    2.55    0.36
   4  -1   1   20.46    0.59
   4  -1   1   19.58    0.56
   4  -1   1   18.87    0.54
  -4  -1  -1   20.24    0.49
  -4  -1  -1   19.51    0.51
   4   1   1   20.09    0.47
  -4   1  -1   19.85    0.55
   4   1   1   19.80    0.60
  -4   1  -1   19.68    0.49
   4   1   1   19.15    0.56
   4   1   1   18.89    0.50
  -4   1  -1   19.04    0.50
   4   1   1   18.68    0.53
  -5  -1  -1   10.18    0.37
   5  -1   1    9.53    0.39
  -5  -1  -1    9.49    0.34
  -5  -1  -1    9.55    0.32
   5  -1   1    8.85    0.40
   5  -1   1    9.47    0.38
  -5   1  -1    9.74    0.35
   5   1   1    9.07    0.37
  -5   1  -1    9.90    0.33
  -5   1  -1    9.52    0.39
   5   1   1    9.18    0.36
   5   1   1   10.62    0.44
  -6  -1  -1    0.74    0.11
   6  -1   1    0.59    0.12
   6  -1   1    0.64    0.10
   6  -1   1    0.86    0.11
  -6  -1  -1    0.87    0.10
  -6   1  -1    0.83    0.09
  -6   1  -1    0.90    0.09
  -6   1  -1    0.80    0.11
   6   1   1    0.90    0.10
   6   1   1    0.80    0.12
   6   1   1    0.97    0.09
   6  -2  -1   -0.01    0.05
  -6  -2   1    0.05    0.06
   6  -2  -1   -0.03    0.05
  -6  -2   1    0.12    0.06
   6   2  -1    0.07    0.06
   6   2  -1   -0.01    0.05
  -6   2   1    0.07    0.06
  -6   2   1    0.06    0.05
  -5  -2   1    0.46    0.11
  -5  -2   1    0.49    0.10
   5  -2  -1    0.46    0.13
   5  -2  -1    0.18    0.10
   5  -2  -1    0.48    0.10
  -5   2   1    0.35    0.10
   5   2  -1    0.44    0.12
  -5   2   1    0.44    0.11
   5   2  -1    0.29    0.12
  -5   2   1    0.59    0.13
   5   2  -1    0.32    0.10
   5   2  -1    0.36    0.09
  -5   2   1    0.39    0.09
  -4  -2   1   10.42    0.33
   4  -2  -1   10.06    0.37
   4  -2  -1   10.73    0.40
   4  -2  -1   11.21    0.42
   4   2  -1   10.24    0.34
   4   2  -1   10.64    0.38
   4   2  -1   10.77    0.34
   4   2  -1   11.06    0.37
  -4   2   1   10.45    0.41
  -4   2   1   10.62    0.36
   4   2  -1   10.34    0.36
   4   2  -1   10.55    0.43
  -4   2   1   10.25    0.35
  -4   2   1   10.29    0.36
   4   2  -1   10.52    0.40
  -3  -2   1    9.40    0.58
  -3  -2   1   10.94    0.53
  -3  -2   1   10.08    0.77
   3  -2  -1    8.98    0.64
   3  -2  -1   10.58    0.87
   3  -2  -1   10.37    0.60
  -3  -2   1   10.83    0.63
   3   2  -1   10.91    0.63
  -3   2   1   11.08    0.70
   3   2  -1    9.20    0.77
  -3   2   1    9.77    0.59
   3   2  -1   10.58    0.53
   3   2  -1   10.55    0.61
  -3   2   1    9.98    0.50
  -2  -2   1    6.54    0.39
   2  -2  -1    6.75    0.54
   2  -2  -1    6.34    0.31
  -2  -2   1    6.91    0.38
   2  -2  -1    6.39    0.48
   2  -2  -1    6.49    0.47
  -2  -2   1    8.46    0.48
   2  -2  -1    6.14    0.35
   2   2  -1    6.46    0.57
   2   2  -1    6.42    0.36
  -2   2   1    6.36    0.27
   2   2  -1    6.47    0.46
  -2   2   1    7.04    0.43
  -2   2   1    6.55    0.35
   2   2  -1    7.47    0.55
  -2   2   1    6.54    0.38
  -2   2   1    6.47    0.44
   1  -2  -1  111.88    1.55
  -1  -2   1  108.41    1.80
   1  -2  -1  108.83    1.79
   1  -2  -1  107.63    1.82
  -1  -2   1  110.97    1.89
   1  -2  -1  108.18    1.66
   1  -2  -1  111.24    1.87
  -1  -2   1  106.04    1.57
   1   2  -1  110.36    1.90
   1   2  -1  112.49    1.75
   1   2  -1  108.58    1.85
  -1   2   1  112.33    1.72
   1   2  -1  106.08    1.63
  -1   2   1  108.49    1.88
  -1   2   1  108.12    1.61
   1   2  -1  113.04    1.74
   1   2  -1  108.61    1.82
  -1   2   1  108.79    1.80
  -1   2   1  109.80    1.84
   0  -2   1   23.08    0.44
   0  -2   1   23.36    0.42
   0  -2  -1   23.96    0.54
   0  -2   1   22.81    0.53
   0  -2   1   23.25    0.62
   0  -2  -1   22.77    0.51
   0  -2  -1   23.40    0.62
   0  -2   1   23.67    0.55
   0  -2   1   23.18    0.50
   0  -2  -1   23.27    0.63
   0   2   1   24.71    0.64
   0   2  -1   23.71    0.64
   0   2   1   23.74    0.55
   0   2   1   23.65    0.65
   0   2  -1   23.07    0.55
   0   2  -1   23.80    0.68
   0   2  -1   24.83    0.65
   0   2  -1   23.15    0.53
   0   2   1   23.79    0.56
   0   2   1   24.39    0.57
   0   2  -1   23.90    0.53
  -1  -2  -1    6.59    0.27
   1  -2   1    6.70    0.26
   1  -2   1    7.42    0.36
   1  -2   1    6.41    0.36
   1  -2   1    6.39    0.37
  -1  -2  -1    7.20    0.35
  -1  -2  -1    7.75    0.39
  -1  -2  -1    6.49    0.26
   1   2   1    6.85    0.35
  -1   2  -1    6.60    0.23
  -1   2  -1    6.83    0.36
  -1   2  -1    6.86    0.30
   1   2   1    6.74    0.31
   1   2   1    6.82    0.27
  -1   2  -1    6.79    0.28
   1   2   1    6.90    0.39
   1   2   1    7.42    0.33
  -1   2  -1    6.62    0.38
  -1   2  -1    6.32    0.34
   1   2   1    6.93    0.36
  -2  -2  -1    4.26    0.37
   2  -2   1    4.02    0.39
  -2  -2  -1    4.62    0.29
   2  -2   1    4.77    0.48
  -2  -2  -1    4.46    0.38
  -2  -2  -1    4.77    0.32
   2  -2   1    4.34    0.35
   2  -2   1    4.16    0.38
   2   2   1    4.69    0.50
   2   2   1    5.41    0.41
  -2   2  -1    4.82    0.42
  -2   2  -1    4.02    0.31
  -2   2  -1    5.25    0.45
   2   2   1    4.41    0.35
   2   2   1    4.33    0.40
  -2   2  -1    5.07    0.35
  -2   2  -1    4.29    0.43
   2   2   1    3.90    0.32
   3  -2   1   10.51    0.61
  -3  -2  -1   10.69    0.60
   3  -2   1   10.69    0.88
  -3  -2  -1    9.97    0.62
  -3  -2  -1   10.57    0.58
   3  -2   1   10.45    0.61
  -3  -2  -1    9.99    0.49
  -3   2  -1   10.89    0.64
  -3   2  -1   10.47    0.71
   3   2   1   11.64    0.83
  -3   2  -1   10.63    0.82
   3   2   1   10.30    0.52
   3   2   1   10.91    0.72
   3   2   1   11.06    0.66
   4  -2   1   -0.05    0.08
   4  -2   1    0.05    0.09
  -4  -2  -1    0.07    0.07
  -4  -2  -1    0.09    0.06
   4   2   1   -0.01    0.08
  -4   2  -1   -0.02    0.06
  -4   2  -1    0.18    0.07
   4   2   1    0.13    0.09
   4   2   1    0.11    0.08
   4   2   1    0.04    0.07
   4   2   1    0.08    0.07
  -4   2  -1    0.10    0.08
   4   2   1    0.21    0.07
  -5  -2  -1    0.48    0.11
   5  -2   1    0.43    0.12
  -5  -2  -1    0.34    0.08
   5  -2   1    0.33    0.09
  -5  -2  -1    0.45    0.11
   5  -2   1    0.33    0.11
  -5   2  -1    0.22    0.08
  -5   2  -1    0.57    0.11
  -5   2  -1    0.45    0.12
   5   2   1    0.41    0.10
   5   2   1    0.39    0.12
   5   2   1    0.32    0.11
   5  -3  -1    7.10    0.31
  -5  -3   1    6.75    0.28
  -5  -3   1    7.21    0.26
   5  -3  -1    6.75    0.28
   5  -3  -1    6.76    0.29
  -5   3   1    6.84    0.31
   5   3  -1    6.75    0.31
  -5   3   1    6.73    0.27
   5   3  -1    6.63    0.25
   5   3  -1    6.74    0.25
   5   3  -1    6.74    0.24
   5   3  -1    6.79    0.27
   5   3  -1    6.72    0.30
   4  -3  -1    0.04    0.08
   4  -3  -1    0.05    0.09
   4  -3  -1   -0.09    0.08
   4   3  -1   -0.04    0.05
   4   3  -1    0.09    0.07
  -4   3   1    0.06    0.08
   4   3  -1    0.01    0.07
  -4   3   1   -0.03    0.06
   4   3  -1   -0.09    0.04
   4   3  -1    0.12    0.09
   4   3  -1   -0.12    0.06
  -4   3   1   -0.03    0.06
  -4   3   1    0.01    0.07
   4   3  -1    0.06    0.09
   4   3  -1   -0.03    0.06
   4   3  -1   -0.02    0.07
   3  -3  -1    6.58    0.73
   3  -3  -1    5.98    0.61
  -3  -3   1    7.29    0.69
  -3  -3   1    6.58    0.61
  -3  -3   1    6.77    0.57
   3  -3  -1    7.37    0.48
  -3   3   1    6.89    0.52
   3   3  -1    6.24    0.62
   3   3  -1    7.39    0.59
  -3   3   1    6.96    0.68
  -3   3   1    7.01    0.75
   3   3  -1    6.68    0.77
  -2  -3   1   45.47    1.30
  -2  -3   1   41.83    1.15
  -2  -3   1   42.34    1.23
   2  -3  -1   41.46    1.29
   2  -3  -1   41.66    1.03
   2  -3  -1   41.03    1.29
   2  -3  -1   44.22    1.23
  -2   3   1   42.99    1.27
   2   3  -1   41.87    1.34
  -2   3   1   41.90    1.32
  -2   3   1   40.85    1.18
   2   3  -1   43.63    1.14
  -2   3   1   42.34    1.10
   2   3  -1   43.29    1.15
   2   3  -1   42.44    1.25
  -1  -3   1  177.98    2.60
   1  -3  -1  186.03    3.00
   1  -3  -1  181.12    2.83
  -1  -3   1  182.94    3.04
  -1  -3   1  183.49    2.91
   1  -3  -1  178.09    2.81
   1  -3  -1  181.72    2.71
  -1  -3   1  180.59    2.65
   1   3  -1  180.99    2.96
   1   3  -1  180.51    2.80
   1   3  -1  177.21    2.89
   1   3  -1  183.36    2.81
  -1   3   1  181.71    2.79
  -1   3   1  183.53    2.98
  -1   3   1  178.78    2.93
  -1   3   1  180.59    3.06
  -1   3   1  178.47    2.65
   1   3  -1  174.97    2.88
   0  -3   1  209.98    2.98
   0  -3   1  203.95    2.92
   0  -3  -1  209.56    3.21
   0  -3   1  204.94    3.19
   0  -3  -1  202.72    2.89
   0  -3  -1  208.25    3.17
   0  -3  -1  214.13    2.97
   0   3   1  205.34    3.28
   0   3  -1  205.26    3.22
   0   3   1  204.42    3.01
   0   3  -1  209.72    3.33
   0   3   1  204.15    3.00
   0   3   1  206.84    3.04
   0   3  -1  199.76    2.95
   0   3   1  207.99    3.21
   0   3  -1  201.26    2.92
   0   3  -1  208.15    3.06
   1  -3   1    2.04    0.27
   1  -3   1    1.90    0.25
  -1  -3  -1    2.24    0.23
  -1  -3  -1    1.83    0.27
  -1  -3  -1    1.75    0.25
   1  -3   1    1.92    0.24
   1  -3   1    2.36    0.31
  -1  -3  -1    1.84    0.20
   1   3   1    2.05    0.27
  -1   3  -1    2.11    0.29
  -1   3  -1    2.46    0.33
   1   3   1    2.35    0.29
   1   3   1    2.20    0.27
   1   3   1    2.37    0.30
  -1   3  -1    1.95    0.23
   1   3   1    2.56    0.28
  -1   3  -1    1.96    0.20
  -1   3  -1    2.15    0.32
   2  -3   1   43.15    1.33
   2  -3   1   42.95    1.23
  -2  -3  -1   40.79    0.94
  -2  -3  -1   40.56    1.19
   2  -3   1   40.49    1.29
  -2  -3  -1   42.65    1.19
   2  -3   1   40.89    1.05
  -2  -3  -1   43.10    1.27
   2   3   1   41.53    1.13
   2   3   1   41.50    1.23
  -2   3  -1   45.22    1.40
  -2   3  -1   41.62    1.26
   2   3   1   41.72    1.35
   2   3   1   41.11    1.09
  -2   3  -1   42.65    1.27
  -2   3  -1   42.01    1.05
  -3  -3  -1    8.70    0.49
   3  -3   1    8.37    0.52
  -3  -3  -1    8.10    0.68
   3  -3   1    7.49    0.76
   3  -3   1    8.56    0.75
  -3  -3  -1    8.17    0.69
  -3  -3  -1    7.67    0.68
   3   3   1    7.76    0.75
  -3   3  -1    7.78    0.78
   3   3   1    7.43    0.58
  -3   3  -1    9.19    0.77
   3   3   1    9.11    0.93
  -3   3  -1    7.13    0.70
   4  -3   1    6.67    0.32
  -4  -3  -1    7.02    0.32
  -4  -3  -1    7.45    0.28
   4  -3   1    7.44    0.36
  -4   3  -1    7.05    0.30
   4   3   1    6.52    0.34
   4   3   1    7.64    0.31
   4   3   1    7.22    0.27
   4   3   1    7.28    0.32
   4   3   1    6.66    0.30
  -4   3  -1    7.27    0.31
  -4   3  -1    6.84    0.34
   4   3   1    7.11    0.34
  -4   3  -1    6.78    0.33
   5  -3   1    0.17    0.10
   5  -3   1    0.07    0.09
   5  -3   1    0.17    0.09
  -5  -3  -1    0.09    0.07
  -5  -3  -1    0.04    0.07
  -5   3  -1    0.16    0.08
  -5   3  -1    0.14    0.08
  -5   3  -1    0.13    0.08
   5   3   1    0.18    0.08
   5   3   1    0.14    0.10
   5   3   1    0.19    0.08
  -5  -4   1    2.49    0.17
  -5  -4   1    2.53    0.18
   5  -4  -1    2.32    0.19
   5  -4  -1    2.28    0.17
   5   4  -1    2.67    0.17
   5   4  -1    2.20    0.18
   5   4  -1    2.26    0.15
  -5   4   1    2.88    0.21
   5   4  -1    2.36    0.18
   5   4  -1    2.67    0.19
  -5   4   1    2.25    0.17
   4  -4  -1    0.27    0.11
   4  -4  -1    0.37    0.13
   4  -4  -1    0.11    0.10
  -4   4   1    0.18    0.08
  -4   4   1    0.36    0.10
   4   4  -1    0.45    0.11
   4   4  -1    0.18    0.09
   4   4  -1    0.25    0.10
  -4   4   1    0.36    0.11
   4   4  -1    0.33    0.10
   4   4  -1    0.33    0.09
   4   4  -1    0.28    0.08
  -4   4   1    0.39    0.11
   4   4  -1    0.30    0.08
   4   4  -1    0.33    0.09
   4   4  -1    0.40    0.11
   4   4  -1    0.20    0.09
   3  -4  -1   15.19    0.46
   3  -4  -1   14.06    0.46
   3   4  -1   14.93    0.44
   3   4  -1   14.70    0.39
  -3   4   1   14.73    0.44
   3   4  -1   14.34    0.45
   3   4  -1   14.24    0.42
  -3   4   1   14.32    0.43
  -3   4   1   14.32    0.46
   3   4  -1   15.01    0.41
   3   4  -1   15.09    0.45
   3   4  -1   13.89    0.46
   3   4  -1   13.98    0.46
   3   4  -1   15.05    0.42
   3   4  -1   14.53    0.44
  -3   4   1   14.85    0.49
  -3   4   1   15.33    0.50
   3   4  -1   14.22    0.45
   2  -4  -1   30.50    1.20
  -2  -4   1   31.26    1.18
   2  -4  -1   32.78    1.16
   2  -4  -1   31.92    1.01
  -2  -4   1   31.74    1.21
  -2  -4   1   32.92    1.14
  -2   4   1   31.08    1.15
   2   4  -1   30.85    1.18
  -2   4   1   32.34    1.23
   2   4  -1   32.43    1.07
  -2   4   1   30.84    1.03
   2   4  -1   30.54    1.18
   2   4  -1   31.42    1.06
  -2   4   1   32.63    1.29
  -1  -4   1   98.68    2.12
  -1  -4   1  101.18    2.24
   1  -4  -1   96.45    1.88
   1  -4  -1   97.35    1.97
   1  -4  -1  101.20    2.21
   1  -4  -1   96.14    2.13
  -1  -4   1   95.52    1.77
   1   4  -1   93.20    1.93
  -1   4   1   98.11    2.25
  -1   4   1   99.68    2.18
   1   4  -1  104.33    2.21
  -1   4   1   98.54    1.99
  -1   4   1   98.47    1.84
   1   4  -1   98.27    2.06
   1   4  -1   99.78    1.98
   0  -4   1   17.69    0.65
   0  -4  -1   18.02    0.81
   0  -4   1   18.86    0.82
   0  -4   1   16.68    0.74
   0  -4  -1   18.03    0.76
   0  -4  -1   17.49    0.64
   0   4  -1   16.99    0.76
   0   4  -1   18.06    0.71
   0   4   1   17.24    0.81
   0   4   1   19.05    0.82
   0   4   1   16.25    0.61
   0   4  -1   18.12    0.85
   0   4   1   18.81    0.70
   0   4   1   16.89    0.68
   0   4  -1   17.83    0.66
  -1  -4  -1    0.03    0.19
   1  -4   1    0.42    0.18
   1  -4   1   -0.07    0.11
  -1  -4  -1    0.25    0.16
  -1  -4  -1    0.09    0.10
   1  -4   1    0.14    0.16
  -1   4  -1   -0.11    0.12
   1   4   1    0.20    0.11
   1   4   1    0.09    0.12
   1   4   1    0.04    0.12
   1   4   1   -0.11    0.06
  -1   4  -1   -0.04    0.13
  -1   4  -1    0.11    0.11
  -1   4  -1    0.10    0.16
   2  -4   1   27.50    1.06
  -2  -4  -1   24.05    1.09
   2  -4   1   25.11    1.14
  -2  -4  -1   27.89    1.08
   2  -4   1   26.67    0.92
  -2  -4  -1   25.59    1.06
   2   4   1   27.22    0.99
  -2   4  -1   26.71    1.11
  -2   4  -1   26.82    0.89
  -2   4  -1   26.23    1.14
   2   4   1   28.83    0.99
  -2   4  -1   27.56    1.24
   2   4   1   26.42    1.08
   2   4   1   25.89    1.06
   3  -4   1    7.21    0.33
  -3   4  -1    7.86    0.35
  -3   4  -1    7.55    0.31
   3   4   1    7.85    0.34
   3   4   1    7.31    0.32
  -3   4  -1    7.38    0.35
   3   4   1    7.38    0.32
   3   4   1    7.66    0.30
  -3   4  -1    8.27    0.33
   3   4   1    7.75    0.30
   3   4   1    7.69    0.32
  -3   4  -1    7.44    0.32
   3   4   1    7.57    0.28
  -3   4  -1    7.87    0.36
  -3   4  -1    7.46    0.31
   3   4   1    8.02    0.33
   3   4   1    7.60    0.31
   3   4   1    7.40    0.30
   3   4   1    7.62    0.29
  -3   4  -1    7.87    0.35
  -3   4  -1    7.38    0.37
  -4  -4  -1    1.96    0.20
   4  -4   1    1.82    0.19
   4  -4   1    2.04    0.23
  -4   4  -1    2.33    0.24
   4   4   1    2.28    0.21
   4   4   1    2.21    0.18
   4   4   1    1.87    0.20
  -4   4  -1    2.19    0.21
   4   4   1    1.54    0.23
   4   4   1    2.04    0.19
  -4   4  -1    2.55    0.24
   4   4   1    2.04    0.17
   4   4   1    2.29    0.22
  -4   4  -1    2.38    0.21
   4   4   1    2.17    0.22
   5  -4   1    1.13    0.12
   5  -4   1    1.39    0.15
  -5  -4  -1    1.39    0.14
  -5  -4  -1    1.17    0.12
  -5   4  -1    1.44    0.13
   5   4   1    1.48    0.14
   5   4   1    1.40    0.15
  -5   4  -1    1.21    0.15
   5   4   1    1.16    0.12
  -5   4  -1    1.32    0.14
  -5  -5   1    4.47    0.18
   5  -5  -1    4.22    0.17
  -5  -5   1    4.16    0.21
  -5   5   1    4.33    0.18
   5   5  -1    4.35    0.16
   5   5  -1    4.12    0.18
   5   5  -1    4.29    0.16
  -5   5   1    4.09    0.16
  -4  -5   1    0.70    0.11
   4  -5  -1    0.72    0.13
   4  -5  -1    0.63    0.14
   4  -5  -1    0.74    0.13
  -4   5   1    0.69    0.13
   4   5  -1    0.85    0.11
   4   5  -1    0.73    0.12
   4   5  -1    0.99    0.12
  -4   5   1    0.97    0.13
   4   5  -1    0.71    0.11
   4   5  -1    0.78    0.11
  -4   5   1    0.92    0.13
   4   5  -1    0.78    0.12
   4   5  -1    0.70    0.11
  -4   5   1    0.81    0.13
   4   5  -1    0.83    0.11
   4   5  -1    0.76    0.12
   3  -5  -1    1.33    0.17
  -3   5   1    1.28    0.18
   3   5  -1    0.93    0.15
   3   5  -1    1.09    0.16
  -3   5   1    1.09    0.15
   3   5  -1    1.07    0.14
  -3   5   1    1.07    0.16
  -3   5   1    0.90    0.14
  -3   5   1    0.84    0.14
   3   5  -1    1.29    0.18
  -3   5   1    1.09    0.17
  -3   5   1    0.81    0.15
   3   5  -1    1.13    0.15
   3   5  -1    1.19    0.16
   3   5  -1    1.19    0.16
   3   5  -1    1.04    0.14
   3   5  -1    0.82    0.11
   3   5  -1    1.26    0.16
  -2   5   1    2.71    0.23
   2   5  -1    2.02    0.20
  -2   5   1    2.53    0.24
  -2   5   1    2.55    0.22
   2   5  -1    2.42    0.19
   2   5  -1    2.60    0.21
   2   5  -1    2.47    0.24
  -2   5   1    2.64    0.23
  -2   5   1    3.23    0.27
  -2   5   1    2.72    0.25
   2   5  -1    2.75    0.20
  -2   5   1    2.84    0.24
  -2   5   1    2.78    0.22
   2   5  -1    3.03    0.25
   2   5  -1    3.14    0.25
  -2   5   1    3.24    0.23
  -2   5   1    2.50    0.22
   2   5  -1    2.49    0.21
  -2   5   1    2.93    0.22
   2   5  -1    2.68    0.23
   2   5  -1    2.59    0.21
   1  -5  -1   12.70    0.68
  -1  -5   1   12.38    0.76
  -1  -5   1   12.64    0.71
   1  -5  -1   13.74    0.83
  -1  -5   1   13.30    0.61
   1  -5  -1   13.74    0.83
  -1   5   1   15.30    0.92
   1   5  -1   12.94    0.73
   1   5  -1   12.89    0.67
  -1   5   1   11.87    0.81
  -1   5   1   12.75    0.81
   1   5  -1   12.80    0.81
   0  -5   1    1.46    0.26
   0  -5   1    1.22    0.30
   0  -5   1    1.34    0.25
   0  -5  -1    0.88    0.27
   0  -5  -1    1.16    0.31
   0  -5  -1    0.89    0.22
   0   5  -1    1.04    0.29
   0   5   1    0.95    0.32
   0   5  -1    0.91    0.24
   0   5  -1    1.08    0.30
   0   5   1    1.25    0.33
   0   5  -1    1.01    0.32
   1  -5   1    2.42    0.47
   1  -5   1    1.78    0.39
   1  -5   1    2.04    0.22
  -1  -5  -1    1.86    0.29
  -1  -5  -1    1.72    0.43
  -1  -5  -1    2.02    0.35
   1   5   1    2.49    0.35
  -1   5  -1    2.07    0.43
   1   5   1    1.79    0.32
  -1   5  -1    2.07    0.32
   1   5   1    1.97    0.37
  -1   5  -1    2.32    0.40
   1   5   1    2.32    0.28
  -2   5  -1   19.05    0.60
   2   5   1   18.95    0.54
  -2   5  -1   18.77    0.58
  -2   5  -1   19.09    0.57
   2   5   1   18.85    0.51
   2   5   1   18.94    0.56
  -2   5  -1   18.60    0.54
  -2   5  -1   18.35    0.48
   2   5   1   18.92    0.51
   2   5   1   19.13    0.48
   2   5   1   18.86    0.49
  -2   5  -1   19.27    0.52
   2   5   1   18.93    0.51
  -2   5  -1   18.71    0.56
   2   5   1   19.14    0.46
  -2   5  -1   18.94    0.52
  -2   5  -1   18.83    0.52
  -2   5  -1   19.30    0.56
   2   5   1   19.01    0.52
  -2   5  -1   18.51    0.52
  -3  -5  -1    3.62    0.28
   3  -5   1    3.70    0.27
   3   5   1    4.08    0.21
   3   5   1    3.97    0.27
   3   5   1    3.87    0.30
  -3   5  -1    3.72    0.29
  -3   5  -1    4.32    0.31
  -3   5  -1    3.92    0.31
  -3   5  -1    3.96    0.28
   3   5   1    4.42    0.29
   3   5   1    4.29    0.28
  -3   5  -1    3.19    0.28
   3   5   1    4.09    0.23
  -3   5  -1    3.64    0.28
   3   5   1    4.69    0.29
   3   5   1    4.18    0.30
  -3   5  -1    3.87    0.27
   3   5   1    3.80    0.24
  -3   5  -1    3.65    0.26
   3   5   1    3.74    0.28
  -3   5  -1    3.76    0.27
  -4  -5  -1    2.58    0.20
   4  -5   1    2.73    0.22
   4  -5   1    3.25    0.24
   4   5   1    2.78    0.22
  -4   5  -1    3.08    0.22
  -4   5  -1    3.16    0.22
   4   5   1    3.29    0.21
   4   5   1    3.11    0.22
   4   5   1    3.28    0.22
  -4   5  -1    3.30    0.26
  -4   5  -1    2.89    0.22
   4   5   1    2.90    0.19
   4   5   1    3.12    0.24
   4   5   1    3.53    0.24
   4  -6  -1    0.82    0.11
   4  -6  -1    0.78    0.10
   4  -6  -1    0.75    0.13
  -4  -6   1    0.51    0.08
   4   6  -1    0.69    0.10
   4   6  -1    0.80    0.09
   4   6  -1    0.68    0.09
   4   6  -1    0.89    0.11
  -4   6   1    0.76    0.09
  -4   6   1    0.86    0.11
   4   6  -1    0.96    0.11
   4   6  -1    0.85    0.11
   4   6  -1    0.87    0.09
   4   6  -1    0.67    0.08
  -4   6   1    0.84    0.12
   3  -6  -1    0.26    0.09
   3  -6  -1    0.33    0.11
   3   6  -1    0.14    0.08
  -3   6   1    0.15    0.07
   3   6  -1    0.03    0.08
  -3   6   1    0.16    0.08
   3   6  -1    0.09    0.06
  -3   6   1   -0.01    0.07
  -3   6   1    0.15    0.08
  -3   6   1    0.06    0.08
  -3   6   1    0.11    0.08
   3   6  -1    0.24    0.08
   3   6  -1    0.04    0.06
   3   6  -1    0.18    0.09
   3   6  -1    0.16    0.08
   3   6  -1    0.15    0.07
   3   6  -1    0.06    0.07
   2  -6  -1    1.41    0.20
   2   6  -1    1.41    0.17
  -2   6   1    1.52    0.18
   2   6  -1    1.31    0.17
  -2   6   1    1.43    0.18
  -2   6   1    1.39    0.16
   2   6  -1    1.47    0.16
  -2   6   1    1.17    0.17
   2   6  -1    1.12    0.15
   2   6  -1    1.40    0.17
  -2   6   1    1.37    0.18
   2   6  -1    1.21    0.15
   2   6  -1    1.45    0.19
  -2   6   1    1.50    0.16
  -2   6   1    1.48    0.20
   2   6  -1    1.29    0.15
  -2   6   1    1.35    0.17
   2   6  -1    1.14    0.15
   2   6  -1    1.15    0.17
  -2   6   1    1.67    0.17
  -2   6   1    1.36    0.17
  -1   6   1    0.31    0.10
  -1   6   1    0.28    0.10
   1   6  -1    0.41    0.10
   1   6  -1    0.35    0.11
  -1   6   1    0.45    0.10
  -1   6   1    0.24    0.10
  -1   6   1    0.38    0.11
  -1   6   1    0.34    0.10
   1   6  -1    0.34    0.09
   1   6  -1    0.47    0.10
   1   6  -1    0.40    0.10
  -1   6   1    0.25    0.09
   1   6  -1    0.34    0.11
  -1   6   1    0.31    0.09
  -1   6   1    0.39    0.13
   1   6  -1    0.34    0.11
   1   6  -1    0.43    0.12
   1   6  -1    0.49    0.12
  -1   6   1    0.57    0.13
   1   6  -1    0.43    0.11
   0   6  -1    8.96    0.34
   0   6  -1    8.60    0.34
   0   6  -1    9.10    0.39
   0   6  -1    8.60    0.36
   0   6  -1    8.94    0.37
   0   6   1    9.06    0.35
   0   6  -1    9.88    0.40
   0   6   1    9.08    0.38
   0   6   1    9.07    0.38
   0   6   1    9.03    0.33
   0   6   1    9.34    0.36
   0   6   1    8.69    0.35
   0   6   1    9.30    0.37
   0   6   1    9.22    0.36
   0   6  -1    9.59    0.36
   0   6  -1    9.27    0.37
   0   6   1    9.44    0.36
   0   6   1    9.14    0.38
   0   6  -1    8.60    0.38
   0   6  -1    9.77    0.36
  -1   6  -1    2.86    0.24
  -1   6  -1    2.31    0.22
   1   6   1    1.96    0.20
  -1   6  -1    2.40    0.23
   1   6   1    2.51    0.23
  -1   6  -1    2.15    0.20
  -1   6  -1    2.73    0.26
   1   6   1    2.69    0.23
   1   6   1    2.57    0.22
  -1   6  -1    2.48    0.22
   1   6   1    2.58    0.23
   1   6   1    2.64    0.22
   1   6   1    2.89    0.22
  -1   6  -1    2.46    0.24
  -1   6  -1    2.24    0.22
   1   6   1    2.83    0.22
  -1   6  -1    2.24    0.21
   1   6   1    2.17    0.23
  -1   6  -1    2.49    0.22
   1   6   1    2.18    0.20
   2   6   1    5.72    0.29
  -2   6  -1    5.54    0.28
   2   6   1    5.57    0.27
   2   6   1    5.54    0.31
  -2   6  -1    5.51    0.28
  -2   6  -1    5.52    0.30
  -2   6  -1    5.57    0.28
   2   6   1    5.71    0.29
  -2   6  -1    5.89    0.33
   2   6   1    6.00    0.25
   2   6   1    5.39    0.26
   2   6   1    5.49    0.25
  -2   6  -1    5.86    0.32
   2   6   1    5.75    0.28
  -2   6  -1    6.17    0.30
  -2   6  -1    5.80    0.31
   2   6   1    5.76    0.28
   2   6   1    5.40    0.34
  -2   6  -1    5.74    0.30
  -2   6  -1    6.07    0.29
  -3  -6  -1    2.67    0.20
   3  -6   1    2.92    0.22
   3   6   1    2.75    0.22
   3   6   1    2.77    0.19
  -3   6  -1    2.75    0.21
  -3   6  -1    2.76    0.23
  -3   6  -1    2.85    0.25
   3   6   1    2.64    0.20
   3   6   1    2.77    0.22
  -3   6  -1    2.57    0.23
   3   6   1    2.14    0.19
  -3   6  -1    2.66    0.23
   3   6   1    2.35    0.18
  -3   6  -1    3.02    0.26
   3   6   1    2.63    0.21
  -3   6  -1    2.54    0.21
  -3   6  -1    2.49    0.21
  -3   6  -1    2.57    0.20
   3   6   1    2.69    0.23
   3   6   1    2.43    0.22
   4  -6   1    2.64    0.17
  -4  -6  -1    2.59    0.15
   4  -6   1    3.09    0.22
  -4  -6  -1    2.86    0.14
   4   6   1    2.93    0.18
  -4   6  -1    3.06    0.15
   4   6   1    2.84    0.14
   4   6   1    2.96    0.16
   4   6   1    2.82    0.15
  -4   6  -1    2.76    0.17
  -4   6  -1    3.22    0.21
   4   6   1    2.88    0.13
   4   6   1    2.78    0.15
   3  -7  -1    2.91    0.20
   3  -7  -1    3.03    0.21
  -3   7   1    3.25    0.17
   3   7  -1    3.14    0.15
   3   7  -1    3.35    0.16
   3   7  -1    3.06    0.16
  -3   7   1    3.07    0.18
  -3   7   1    3.05    0.17
   3   7  -1    3.10    0.19
   3   7  -1    3.07    0.15
   3   7  -1    3.19    0.16
   3   7  -1    3.07    0.17
  -3   7   1    2.98    0.19
   3   7  -1    3.07    0.15
   2  -7  -1    2.61    0.22
   2   7  -1    2.93    0.19
  -2   7   1    2.50    0.20
  -2   7   1    2.30    0.18
   2   7  -1    2.89    0.22
   2   7  -1    2.69    0.20
   2   7  -1    2.76    0.21
  -2   7   1    3.12    0.24
  -2   7   1    2.76    0.19
   2   7  -1    2.94    0.19
  -2   7   1    2.91    0.22
  -2   7   1    3.03    0.20
   2   7  -1    2.78    0.21
  -2   7   1    2.84    0.21
  -2   7   1    2.95    0.23
   2   7  -1    2.89    0.20
   2   7  -1    3.05    0.24
   2   7  -1    2.78    0.20
  -2   7   1    3.01    0.19
   1   7  -1   25.37    0.63
  -1   7   1   24.29    0.63
  -1   7   1   25.86    0.61
  -1   7   1   24.41    0.59
  -1   7   1   24.76    0.59
  -1   7   1   25.04    0.61
   1   7  -1   25.41    0.62
  -1   7   1   25.02    0.64
   1   7  -1   24.82    0.58
  -1   7   1   24.86    0.61
   1   7  -1   25.59    0.60
   1   7  -1   25.09    0.57
   1   7  -1   24.98    0.56
   1   7  -1   24.95    0.64
  -1   7   1   25.59    0.62
  -1   7   1   24.80    0.56
   1   7  -1   25.53    0.60
   1   7  -1   26.56    0.62
   0   7   1    0.77    0.12
   0   7  -1    0.62    0.13
   0   7  -1    0.82    0.14
   0   7  -1    0.65    0.12
   0   7  -1    0.53    0.11
   0   7   1    0.41    0.12
   0   7   1    0.71    0.14
   0   7   1    0.84    0.13
   0   7   1    0.75    0.14
   0   7   1    0.78    0.13
   0   7   1    0.80    0.14
   0   7  -1    0.63    0.12
   0   7   1    0.64    0.12
   0   7  -1    0.75    0.13
   0   7   1    0.68    0.13
   0   7  -1    0.60    0.14
   0   7  -1    0.67    0.12
   0   7  -1    0.70    0.13
   0   7   1    0.72    0.13
  -1   7  -1    4.79    0.28
   1   7   1    4.54    0.24
  -1   7  -1    4.92    0.25
  -1   7  -1    5.12    0.27
  -1   7  -1    4.56    0.23
   1   7   1    4.65    0.22
   1   7   1    4.58    0.29
   1   7   1    4.75    0.24
  -1   7  -1    4.68    0.30
  -1   7  -1    4.51    0.24
   1   7   1    3.98    0.28
   1   7   1    4.73    0.27
   1   7   1    4.72    0.25
   1   7   1    5.18    0.26
  -1   7  -1    4.21    0.30
   1   7   1    4.66    0.25
  -1   7  -1    4.87    0.26
  -1   7  -1    4.89    0.26
  -1   7  -1    4.86    0.26
   1   7   1    4.75    0.23
   2  -7   1    5.13    0.27
  -2   7  -1    5.14    0.25
   2   7   1    4.99    0.22
   2   7   1    5.38    0.23
  -2   7  -1    5.36    0.28
  -2   7  -1    4.97    0.25
  -2   7  -1    5.31    0.25
   2   7   1    4.92    0.25
  -2   7  -1    5.10    0.27
   2   7   1    5.14    0.23
   2   7   1    5.47    0.25
  -2   7  -1    5.41    0.26
  -2   7  -1    5.12    0.24
   2   7   1    5.62    0.22
   2   7   1    4.90    0.23
  -2   7  -1    5.46    0.24
  -2   7  -1    5.45    0.26
   2   7   1    5.21    0.27
   2   7   1    5.59    0.25
   3  -7   1    3.10    0.21
  -3  -7  -1    2.76    0.18
   3   7   1    2.63    0.14
  -3   7  -1    2.84    0.15
   3   7   1    2.92    0.14
   3   7   1    2.70    0.16
   3   7   1    3.30    0.14
  -3   7  -1    3.18    0.18
   3   7   1    2.86    0.15
  -3   7  -1    2.71    0.14
   3   7   1    3.05    0.17
  -3   7  -1    2.94    0.18
   3   7   1    3.09    0.19
  -3   7  -1    3.07    0.18
  -3   7  -1    3.12    0.16
   3   7   1    3.12    0.16
   2  -8  -1    0.05    0.07
   2  -8  -1    0.09    0.06
   2   8  -1    0.09    0.05
   2   8  -1    0.09    0.05
   2   8  -1    0.19    0.06
  -2   8   1    0.05    0.05
   2   8  -1    0.12    0.06
   2   8  -1    0.09    0.05
  -2   8   1    0.01    0.05
   2   8  -1    0.03    0.04
  -2   8   1    0.06    0.04
  -2   8   1    0.12    0.06
   2   8  -1    0.05    0.04
  -1  -8   1    1.98    0.14
   1  -8  -1    1.58    0.16
   1   8  -1    1.85    0.13
  -1   8   1    1.84    0.14
  -1   8   1    1.91    0.14
   1   8  -1    1.75    0.14
  -1   8   1    1.89    0.14
  -1   8   1    1.82    0.15
  -1   8   1    1.68    0.14
  -1   8   1    1.80    0.12
  -1   8   1    1.76    0.15
   1   8  -1    1.88    0.14
   1   8  -1    1.84    0.13
   1   8  -1    1.82    0.15
   1   8  -1    1.92    0.16
  -1   8   1    1.57    0.13
   1   8  -1    1.99    0.15
   1   8  -1    1.54    0.13
   0  -8  -1    0.04    0.07
   0   8   1    0.11    0.06
   0   8  -1   -0.07    0.05
   0   8   1    0.00    0.05
   0   8   1    0.04    0.05
   0   8  -1    0.03    0.06
   0   8   1   -0.03    0.05
   0   8  -1    0.06    0.06
   0   8   1    0.02    0.05
   0   8  -1    0.00    0.06
   0   8   1    0.09    0.06
   0   8  -1    0.07    0.06
   0   8  -1   -0.02    0.06
   0   8  -1    0.01    0.05
   0   8   1    0.04    0.06
   0   8   1    0.09    0.06
   0   8   1    0.06    0.06
   0   8  -1    0.06    0.06
  -1  -8  -1    0.03    0.06
   1   8   1    0.01    0.05
   1   8   1    0.05    0.05
   1   8   1    0.07    0.07
  -1   8  -1    0.08    0.06
   1   8   1   -0.01    0.04
   1   8   1    0.00    0.05
  -1   8  -1    0.09    0.07
  -1   8  -1   -0.03    0.06
   1   8   1    0.11    0.07
  -1   8  -1    0.03    0.06
  -1   8  -1    0.05    0.06
   1   8   1    0.12    0.05
  -1   8  -1    0.05    0.07
  -1   8  -1    0.10    0.07
  -1   8  -1    0.05    0.06
   1   8   1    0.06    0.05
   2  -8   1    6.16    0.21
  -2  -8  -1    6.15    0.24
   2   8   1    6.34    0.20
  -2   8  -1    6.62    0.22
   2   8   1    6.18    0.21
  -2   8  -1    6.93    0.26
  -2   8  -1    6.30    0.20
   2   8   1    6.56    0.19
   2   8   1    6.78    0.20
   2   8   1    6.16    0.20
  -2   8  -1    6.50    0.21
   2   8   1    6.42    0.22
   2   8   1    6.90    0.18
  -2   8  -1    6.80    0.21
  -6   0   2    3.17    0.18
  -6   0   2    3.15    0.16
   6   0  -2    3.15    0.20
   6   0  -2    3.19    0.19
  -5   0   2    2.83    0.22
  -5   0   2    3.20    0.23
  -5   0   2    2.78    0.25
   5   0  -2    3.02    0.25
   5   0  -2    2.67    0.26
   5   0  -2    3.24    0.25
   5   0  -2    2.94    0.25
   4   0  -2    3.48    0.26
   4   0  -2    3.91    0.32
  -4   0   2    3.12    0.24
   4   0  -2    3.28    0.23
   4   0  -2    2.51    0.23
   4   0  -2    2.89    0.25
  -3   0   2  132.26    2.13
  -3   0   2  133.82    2.53
   3   0  -2  136.19    2.73
  -3   0   2  132.76    2.45
   3   0  -2  138.25    2.71
   3   0  -2  135.89    2.58
  -3   0   2  133.33    2.22
   3   0  -2  130.71    2.29
   2   0  -2  254.62    3.81
  -2   0   2  253.91    3.57
   2   0  -2  259.33    3.80
   2   0  -2  258.71    3.48
   2   0  -2  253.91    3.53
  -2   0   2  251.04    3.40
  -2   0   2  246.88    3.61
  -2   0   2  254.87    3.40
  -2   0   2  257.03    3.47
   2   0  -2  265.61    3.69
   1   0  -2 1000.00   11.73
   1   0  -2  982.97   11.83
   1   0  -2  960.32   11.91
   1   0  -2  967.57   11.77
   1   0  -2  976.59   11.91
   0   0   2   25.46    0.43
   0   0  -2   25.38    0.46
   0   0  -2   25.08    0.41
   0   0  -2   25.47    0.41
   0   0   2   25.48    0.47
   0   0  -2   25.25    0.44
   0   0   2   25.31    0.36
   0   0  -2   25.11    0.44
   0   0  -2   25.59    0.47
   0   0   2   24.96    0.38
  -2   0  -2   55.37    1.05
   2   0   2   57.17    1.21
  -2   0  -2   57.87    1.12
   2   0   2   52.86    1.25
  -2   0  -2   56.72    1.24
   2   0   2   54.42    1.05
   2   0   2   53.91    0.88
  -2   0  -2   55.12    0.92
   2   0   2   53.79    1.30
   2   0   2   56.20    1.08
  -2   0  -2   55.79    0.99
  -2   0  -2   55.19    1.21
  -3   0  -2   44.06    1.33
  -3   0  -2   43.89    1.17
   3   0   2   43.12    1.26
   3   0   2   42.07    1.33
  -3   0  -2   43.18    1.24
   3   0   2   41.76    1.36
   4   0   2   21.18    0.57
  -4   0  -2   21.30    0.49
  -4   0  -2   20.88    0.57
   4   0   2   20.59    0.56
  -4   0  -2   20.81    0.52
   4   0   2   21.66    0.62
  -4   0  -2   20.93    0.55
   4   0   2   20.46    0.56
   5   0   2    1.47    0.18
  -5   0  -2    1.17    0.15
   5   0   2    1.09    0.15
  -5   0  -2    1.10    0.14
   5   0   2    1.52    0.21
  -5   0  -2    1.32    0.18
   6   0   2   10.71    0.30
   6   0   2   10.41    0.31
  -6   0  -2   10.71    0.30
   6  -1  -2    2.01    0.15
   6  -1  -2    1.69    0.14
   6  -1  -2    1.81    0.14
  -6  -1   2    1.58    0.12
  -6  -1   2    2.04    0.16
  -6   1   2    1.93    0.16
  -6   1   2    1.99    0.14
   6   1  -2    2.12    0.17
   6   1  -2    1.92    0.14
   6   1  -2    1.99    0.14
   5  -1  -2   24.08    0.62
  -5  -1   2   22.83    0.54
  -5  -1   2   22.80    0.59
   5  -1  -2   23.47    0.62
  -5  -1   2   23.56    0.54
   5  -1  -2   23.46    0.63
   5   1  -2   24.07    0.54
   5   1  -2   23.33    0.61
   5   1  -2   23.60    0.60
   5   1  -2   23.75    0.66
  -5   1   2   23.78    0.57
  -5   1   2   22.61    0.62
  -5   1   2   23.73    0.55
   4  -1  -2    5.54    0.30
   4  -1  -2    5.17    0.32
   4  -1  -2    5.48    0.30
   4  -1  -2    5.03    0.25
  -4  -1   2    5.05    0.22
   4   1  -2    5.12    0.24
   4   1  -2    5.47    0.26
  -4   1   2    5.27    0.28
  -4   1   2    5.13    0.24
   4   1  -2    5.16    0.32
   4   1  -2    4.95    0.32
   4   1  -2    5.14    0.24
   4   1  -2    5.03    0.35
  -4   1   2    5.22    0.24
  -3  -1   2   27.41    0.95
  -3  -1   2   25.00    0.79
   3  -1  -2   25.11    0.93
   3  -1  -2   24.39    0.85
   3  -1  -2   25.34    1.06
  -3  -1   2   24.59    0.86
  -3  -1   2   24.85    0.77
   3   1  -2   25.15    0.95
   3   1  -2   24.66    0.98
  -3   1   2   24.38    0.90
  -3   1   2   25.31    0.78
   3   1  -2   25.44    0.88
   3   1  -2   26.98    1.10
  -3   1   2   24.73    0.94
   2  -1  -2  158.23    2.45
  -2  -1   2  158.60    2.49
   2  -1  -2  151.91    2.45
  -2  -1   2  156.23    2.49
   2  -1  -2  158.78    2.47
  -2  -1   2  156.97    2.30
   2  -1  -2  155.08    2.38
   2  -1  -2  162.63    2.69
  -2  -1   2  156.32    2.39
   2   1  -2  156.93    2.34
   2   1  -2  159.79    2.52
  -2   1   2  151.52    2.51
  -2   1   2  156.17    2.32
  -2   1   2  152.10    2.19
  -2   1   2  157.18    2.31
   2   1  -2  159.99    2.73
   2   1  -2  157.32    2.50
  -2   1   2  153.56    2.21
   2   1  -2  158.55    2.55
  -2   1   2  158.35    2.49
   1  -1  -2    5.30    0.26
   1  -1  -2    5.33    0.18
  -1  -1   2    5.85    0.26
   1  -1  -2    4.77    0.28
   1  -1  -2    5.00    0.22
   1  -1  -2    5.17    0.25
   1  -1  -2    4.84    0.23
  -1  -1   2    4.87    0.25
  -1  -1   2    5.10    0.21
   1   1  -2    4.91    0.17
  -1   1   2    5.00    0.25
  -1   1   2    3.69    0.17
   1   1  -2    4.89    0.23
   1   1  -2    5.05    0.23
   1   1  -2    5.20    0.23
  -1   1   2    4.53    0.24
   1   1  -2    5.15    0.25
  -1   1   2    4.92    0.19
   1   1  -2    4.91    0.29
  -1   1   2    4.73    0.20
   1   1  -2    5.60    0.27
   0  -1  -2  462.20    5.60
   0  -1  -2  456.90    5.64
   0  -1  -2  463.75    5.68
   0  -1  -2  470.12    5.62
   0  -1  -2  459.08    5.73
   0   1   2  469.02    5.65
   0   1  -2  460.27    5.72
   0   1  -2  456.75    5.59
   0   1  -2  465.09    5.62
   0   1  -2  468.82    5.67
   0   1  -2  459.02    5.62
   0   1  -2  454.77    5.76
   0   1  -2  464.50    5.67
   0   1   2  460.12    5.64
   0   1  -2  463.52    5.64
   0   1  -2  474.84    5.63
   0   1   2  464.55    5.67
   0   1   2  462.65    5.64
   0   1  -2  452.42    5.61
   0   1  -2  454.10    5.70
   0   1   2  465.32    5.66
   0   1  -2  458.13    5.73
   0   1   2  464.59    5.67
  -2  -1  -2   99.42    1.71
  -2  -1  -2   99.75    1.58
   2  -1   2   99.18    1.79
   2  -1   2  101.00    1.81
  -2  -1  -2   99.72    1.58
  -2  -1  -2  102.62    1.83
   2  -1   2  101.26    1.82
  -2  -1  -2  100.29    1.83
   2  -1   2  100.60    1.96
   2  -1   2  100.55    1.78
  -2   1  -2  102.68    1.79
  -2   1  -2  101.61    1.53
  -2   1  -2   98.39    1.83
  -2   1  -2   99.58    1.61
   2   1   2   98.07    1.79
   2   1   2  100.26    1.79
   2   1   2  103.43    1.83
   2   1   2  103.40    2.03
   2   1   2  100.95    1.60
  -2   1  -2  102.06    1.94
  -3  -1  -2   26.52    0.97
   3  -1   2   24.02    0.83
   3  -1   2   25.13    0.95
  -3  -1  -2   26.05    0.95
   3  -1   2   25.52    1.07
  -3  -1  -2   25.03    0.84
   3   1   2   26.70    1.12
   3   1   2   24.00    0.89
  -3   1  -2   24.67    0.95
  -3   1  -2   27.51    1.06
   3   1   2   25.35    0.93
  -3   1  -2   25.24    0.92
   3   1   2   24.33    0.96
   4  -1   2    3.47    0.29
   4  -1   2    3.36    0.26
  -4  -1  -2    3.43    0.23
  -4  -1  -2    3.51    0.26
  -4  -1  -2    3.50    0.24
   4  -1   2    3.34    0.27
   4   1   2    3.45    0.18
  -4   1  -2    3.39    0.23
   4   1   2    3.98    0.33
   4   1   2    3.82    0.27
  -4   1  -2    3.45    0.24
   4   1   2    3.63    0.25
  -4   1  -2    3.05    0.25
   4   1   2    3.51    0.28
  -4   1  -2    4.18    0.28
   5  -1   2    1.18    0.18
  -5  -1  -2    1.28    0.16
  -5  -1  -2    1.30    0.16
   5  -1   2    1.27    0.17
  -5  -1  -2    1.36    0.14
   5  -1   2    1.68    0.21
  -5   1  -2    1.49    0.15
   5   1   2    1.63    0.21
   5   1   2    1.62    0.19
  -5   1  -2    1.19    0.16
  -5   1  -2    1.40    0.18
  -6  -1  -2    0.61    0.09
  -6  -1  -2    0.47    0.08
   6  -1   2    0.33    0.08
   6  -1   2    0.37    0.08
  -6   1  -2    0.51    0.08
   6   1   2    0.51    0.10
   6   1   2    0.45    0.13
  -6   1  -2    0.36    0.08
   6  -2  -2    1.95    0.14
  -6  -2   2    1.90    0.12
  -6  -2   2    2.11    0.14
   6  -2  -2    1.81    0.13
  -6   2   2    2.34    0.15
   6   2  -2    2.00    0.15
  -6   2   2    2.11    0.13
   6   2  -2    2.13    0.14
  -5  -2   2    1.85    0.19
  -5  -2   2    1.74    0.16
   5  -2  -2    1.66    0.17
   5  -2  -2    1.54    0.18
   5  -2  -2    1.48    0.19
   5   2  -2    1.85    0.17
   5   2  -2    1.53    0.19
   5   2  -2    1.62    0.17
  -5   2   2    1.37    0.18
  -5   2   2    1.62    0.16
  -5   2   2    1.28    0.16
   5   2  -2    1.54    0.16
   5   2  -2    1.32    0.19
   4  -2  -2    1.29    0.17
  -4  -2   2    1.36    0.14
   4  -2  -2    1.53    0.18
   4  -2  -2    1.08    0.17
  -4   2   2    1.51    0.16
  -4   2   2    1.35    0.16
  -4   2   2    1.06    0.16
   4   2  -2    1.39    0.16
   4   2  -2    1.33    0.14
   4   2  -2    1.47    0.16
   4   2  -2    1.47    0.15
   4   2  -2    1.28    0.16
   4   2  -2    1.29    0.18
   4   2  -2    1.08    0.15
   4   2  -2    1.11    0.15
  -3  -2   2    1.23    0.25
   3  -2  -2    1.27    0.28
  -3  -2   2    1.02    0.20
  -3  -2   2    1.39    0.28
   3  -2  -2    1.36    0.32
   3  -2  -2    1.01    0.25
   3   2  -2    1.31    0.28
   3   2  -2    1.01    0.23
   3   2  -2    1.04    0.22
  -3   2   2    0.98    0.24
  -3   2   2    0.81    0.23
  -3   2   2    1.33    0.31
   3   2  -2    1.04    0.24
   2  -2  -2   11.93    0.56
  -2  -2   2   12.64    0.57
   2  -2  -2   10.46    0.52
   2  -2  -2   10.75    0.58
   2  -2  -2   10.93    0.47
  -2  -2   2   10.94    0.46
  -2  -2   2   10.88    0.47
   2  -2  -2   10.95    0.39
  -2  -2   2   11.26    0.56
   2   2  -2   10.92    0.63
   2   2  -2   11.85    0.56
  -2   2   2   10.86    0.39
   2   2  -2   10.37    0.44
  -2   2   2   10.76    0.54
  -2   2   2   10.31    0.55
  -2   2   2   10.52    0.46
   2   2  -2   10.93    0.51
   2   2  -2   11.12    0.48
  -2   2   2   10.55    0.47
  -1  -2   2   18.83    0.62
   1  -2  -2   17.68    0.58
  -1  -2   2   18.08    0.44
  -1  -2   2   18.29    0.56
   1  -2  -2   18.51    0.57
   1  -2  -2   17.89    0.48
   1  -2  -2   18.71    0.62
  -1   2   2   18.56    0.49
  -1   2   2   18.62    0.61
   1   2  -2   18.82    0.55
  -1   2   2   18.88    0.60
   1   2  -2   19.04    0.61
   1   2  -2   18.60    0.45
  -1   2   2   18.75    0.54
   1   2  -2   18.77    0.50
   1   2  -2   18.87    0.55
  -1   2   2   18.18    0.43
   1   2  -2   18.31    0.62
   1   2  -2   18.64    0.60
  -1   2   2   18.32    0.56
   0  -2   2  552.12    6.90
   0  -2   2  556.35    6.90
   0  -2  -2  574.48    7.06
   0  -2   2  551.95    6.77
   0  -2   2  552.67    7.06
   0  -2   2  552.62    6.74
   0  -2  -2  570.63    6.89
   0  -2  -2  552.20    6.87
   0  -2  -2  550.34    7.06
   0   2  -2  553.87    7.07
   0   2  -2  558.92    6.91
   0   2  -2  559.04    7.10
   0   2   2  546.74    7.04
   0   2   2  556.37    6.93
   0   2   2  544.15    7.08
   0   2  -2  547.29    6.85
   0   2   2  560.71    6.96
   0   2  -2  565.57    6.88
   0   2   2  552.88    6.96
   0   2  -2  566.09    7.19
   0   2  -2  549.77    6.86
   0   2   2  555.36    6.88
   0   2  -2  560.59    6.93
   1  -2   2   59.44    1.26
  -1  -2  -2   56.84    1.02
   1  -2   2   59.14    1.03
  -1  -2  -2   57.74    1.04
   1  -2   2   57.13    1.21
  -1  -2  -2   59.00    1.22
   1  -2   2   59.09    1.17
  -1  -2  -2   59.80    1.19
  -1   2  -2   57.86    1.19
   1   2   2   57.85    1.15
  -1   2  -2   60.35    1.25
  -1   2  -2   60.63    1.10
   1   2   2   58.77    1.12
   1   2   2   59.72    1.02
   1   2   2   59.63    1.22
   1   2   2   57.05    1.25
  -1   2  -2   59.04    1.30
   1   2   2   56.17    1.08
  -1   2  -2   58.50    1.03
  -2  -2  -2   83.58    1.75
   2  -2   2   89.56    1.92
  -2  -2  -2   85.68    1.45
   2  -2   2   86.28    1.80
  -2  -2  -2   83.17    1.63
   2  -2   2   83.91    1.63
   2  -2   2   86.69    1.75
  -2  -2  -2   86.08    1.71
  -2   2  -2   85.26    1.46
   2   2   2   88.92    1.79
  -2   2  -2   86.39    1.90
   2   2   2   83.91    1.55
   2   2   2   88.35    2.00
  -2   2  -2   86.52    1.76
  -2   2  -2   83.37    1.53
  -2   2  -2   86.57    1.80
   2   2   2   85.72    1.66
   2   2   2   85.24    1.59
   3  -2   2   26.76    0.99
   3  -2   2   26.89    1.16
   3  -2   2   26.92    1.01
  -3  -2  -2   26.18    1.00
  -3  -2  -2   26.53    1.00
   3   2   2   27.43    1.04
  -3   2  -2   27.49    1.17
   3   2   2   26.74    1.19
   3   2   2   28.81    1.02
  -3   2  -2   28.48    1.08
  -3   2  -2   26.82    1.05
  -4  -2  -2   24.32    0.63
  -4  -2  -2   24.98    0.57
   4  -2   2   24.67    0.66
   4  -2   2   25.55    0.65
   4   2   2   25.02    0.67
  -4   2  -2   24.95    0.61
  -4   2  -2   24.91    0.58
  -4   2  -2   24.73    0.66
   4   2   2   24.82    0.54
   4   2   2   24.69    0.68
   4   2   2   25.30    0.59
  -4   2  -2   23.80    0.64
  -4   2  -2   24.99    0.59
   4   2   2   25.12    0.61
   5  -2   2    5.82    0.25
   5  -2   2    6.51    0.31
   5  -2   2    5.76    0.31
  -5  -2  -2    5.89    0.28
  -5  -2  -2    5.96    0.26
  -5  -2  -2    5.97    0.23
  -5  -2  -2    6.28    0.29
  -5   2  -2    6.32    0.31
  -5   2  -2    6.15    0.25
   5   2   2    6.73    0.31
   5   2   2    5.90    0.26
   5   2   2    5.66    0.32
  -5   2  -2    6.39    0.28
   5  -3  -2   -0.06    0.06
  -5  -3   2    0.02    0.07
  -5  -3   2    0.09    0.07
   5  -3  -2    0.03    0.07
   5  -3  -2    0.08    0.10
  -5   3   2    0.11    0.07
   5   3  -2    0.07    0.06
  -5   3   2    0.14    0.08
   5   3  -2   -0.04    0.08
   5   3  -2    0.02    0.07
   5   3  -2    0.16    0.08
   5   3  -2    0.08    0.09
   5   3  -2   -0.02    0.05
  -5   3   2    0.05    0.08
   4  -3  -2    1.70    0.19
   4  -3  -2    1.58    0.19
   4  -3  -2    1.57    0.20
   4  -3  -2    1.58    0.21
   4   3  -2    1.28    0.17
   4   3  -2    1.54    0.19
   4   3  -2    1.81    0.19
   4   3  -2    1.23    0.15
   4   3  -2    1.81    0.19
   4   3  -2    1.41    0.17
  -4   3   2    1.39    0.16
   4   3  -2    1.64    0.17
   4   3  -2    2.10    0.23
  -4   3   2    1.32    0.18
  -4   3   2    1.94    0.20
   4   3  -2    1.70    0.17
   4   3  -2    1.66    0.16
   3  -3  -2   49.78    1.68
   3  -3  -2   46.76    1.45
  -3  -3   2   48.33    1.49
  -3  -3   2   51.81    1.57
  -3  -3   2   49.48    1.40
  -3   3   2   52.14    1.38
  -3   3   2   49.91    1.63
  -3   3   2   50.18    1.59
   3   3  -2   50.05    1.54
   3   3  -2   51.75    1.36
   3   3  -2   50.59    1.81
   2  -3  -2   74.94    1.81
  -2  -3   2   75.84    1.77
   2  -3  -2   75.39    1.45
  -2  -3   2   74.06    1.63
  -2  -3   2   75.32    1.73
   2  -3  -2   73.40    1.79
   2  -3  -2   79.00    1.74
  -2   3   2   71.09    1.63
   2   3  -2   72.64    1.85
   2   3  -2   75.00    1.76
   2   3  -2   77.08    1.62
  -2   3   2   72.04    1.75
  -2   3   2   73.71    1.59
   2   3  -2   77.09    1.64
   2   3  -2   75.99    1.75
  -2   3   2   72.69    1.81
  -1  -3   2    0.00    0.08
  -1  -3   2    0.02    0.09
   1  -3  -2   -0.05    0.10
  -1  -3   2    0.08    0.11
   1  -3  -2    0.28    0.12
   1  -3  -2    0.03    0.10
  -1  -3   2    0.07    0.07
   1  -3  -2    0.14    0.05
   1   3  -2    0.12    0.13
   1   3  -2    0.40    0.08
  -1   3   2    0.10    0.10
   1   3  -2    0.00    0.11
  -1   3   2    0.09    0.08
   1   3  -2    0.01    0.06
   1   3  -2    0.27    0.11
  -1   3   2    0.03    0.10
  -1   3   2    0.12    0.11
   0  -3   2  161.24    2.41
   0  -3  -2  160.40    2.34
   0  -3  -2  161.82    2.40
   0  -3  -2  160.90    2.61
   0  -3  -2  158.33    2.59
   0  -3   2  155.26    2.60
   0  -3   2  155.54    2.32
   0  -3   2  161.97    2.39
   0   3  -2  156.84    2.46
   0   3  -2  158.79    2.67
   0   3   2  161.65    2.50
   0   3   2  158.46    2.47
   0   3   2  157.61    2.47
   0   3  -2  157.49    2.64
   0   3  -2  155.96    2.38
   0   3   2  157.71    2.61
   0   3  -2  150.31    2.31
   0   3  -2  160.53    2.76
   0   3   2  154.01    2.65
   1  -3   2   99.19    1.86
   1  -3   2   99.61    1.90
  -1  -3  -2   97.73    1.96
   1  -3   2  101.97    2.03
  -1  -3  -2  100.22    1.66
  -1  -3  -2   98.33    1.73
  -1  -3  -2   99.82    1.91
   1   3   2   96.92    1.93
   1   3   2   98.19    1.93
  -1   3  -2  101.15    2.01
  -1   3  -2   97.95    1.96
   1   3   2   97.36    1.89
   1   3   2   99.97    1.81
  -1   3  -2  101.19    1.76
  -1   3  -2   97.58    1.72
  -1   3  -2  101.48    2.11
   1   3   2   99.72    1.79
   2  -3   2   21.65    0.86
  -2  -3  -2   19.66    0.64
   2  -3   2   21.73    0.94
  -2  -3  -2   22.40    0.85
  -2  -3  -2   21.20    0.81
   2  -3   2   21.90    0.92
  -2  -3  -2   22.67    0.92
   2   3   2   21.75    0.88
  -2   3  -2   21.34    0.90
   2   3   2   22.21    0.97
  -2   3  -2   21.89    0.69
  -2   3  -2   20.51    0.95
  -2   3  -2   21.80    0.90
  -2   3  -2   21.96    0.74
   2   3   2   20.83    0.74
   2   3   2   23.71    0.81
   3  -3   2    0.87    0.37
  -3  -3  -2    1.33    0.30
  -3  -3  -2    0.95    0.25
   3  -3   2    1.16    0.30
  -3  -3  -2    1.14    0.33
   3  -3   2    1.03    0.34
  -3   3  -2    0.79    0.25
  -3   3  -2    0.93    0.31
   3   3   2    1.10    0.31
  -3   3  -2    1.23    0.33
   3   3   2    0.98    0.40
   3   3   2    0.99    0.24
  -4  -3  -2   15.68    0.49
   4  -3   2   16.43    0.49
  -4  -3  -2   15.93    0.44
   4  -3   2   16.58    0.53
  -4   3  -2   15.88    0.46
  -4   3  -2   16.14    0.48
   4   3   2   15.55    0.52
   4   3   2   16.03    0.48
  -4   3  -2   15.76    0.51
   4   3   2   15.31    0.48
   4   3   2   15.87    0.46
  -4   3  -2   16.61    0.53
  -4   3  -2   15.33    0.47
   4   3   2   16.07    0.41
   4   3   2   16.41    0.52
  -4   3  -2   15.07    0.50
   5  -3   2   -0.10    0.07
  -5  -3  -2    0.11    0.07
  -5  -3  -2    0.01    0.04
   5  -3   2   -0.05    0.07
   5  -3   2    0.11    0.09
  -5  -3  -2    0.08    0.07
  -5  -3  -2    0.00    0.07
  -5   3  -2   -0.07    0.07
  -5   3  -2    0.13    0.07
  -5   3  -2    0.10    0.07
   5   3   2    0.13    0.10
   5   3   2   -0.05    0.08
   5   3   2    0.08    0.07
  -5  -4   2    2.53    0.16
  -5  -4   2    2.47    0.18
   5  -4  -2    2.35    0.17
   5  -4  -2    2.17    0.18
  -5   4   2    2.42    0.19
   5   4  -2    2.38    0.17
   5   4  -2    2.16    0.21
   5   4  -2    2.57    0.16
  -5   4   2    3.17    0.22
  -5   4   2    2.38    0.16
   5   4  -2    2.79    0.19
   5   4  -2    2.48    0.19
   5   4  -2    2.71    0.17
   4  -4  -2    0.18    0.09
   4  -4  -2    0.09    0.09
   4  -4  -2    0.00    0.09
   4   4  -2    0.15    0.08
   4   4  -2    0.12    0.08
   4   4  -2    0.13    0.07
   4   4  -2    0.11    0.06
   4   4  -2    0.12    0.08
   4   4  -2   -0.03    0.06
   4   4  -2    0.12    0.07
   4   4  -2    0.11    0.07
  -4   4   2    0.23    0.09
   4   4  -2    0.15    0.07
  -4   4   2    0.18    0.09
   4   4  -2   -0.02    0.08
  -4   4   2    0.09    0.08
   3  -4  -2    5.52    0.33
   3  -4  -2    5.31    0.31
   3   4  -2    5.12    0.23
   3   4  -2    5.18    0.25
   3   4  -2    4.97    0.26
   3   4  -2    4.79    0.27
   3   4  -2    5.53    0.33
   3   4  -2    4.83    0.22
  -3   4   2    5.35    0.26
   3   4  -2    5.24    0.32
   3   4  -2    5.13    0.25
  -3   4   2    4.88    0.25
  -3   4   2    5.04    0.29
  -3   4   2    4.85    0.27
   3   4  -2    5.08    0.24
   3   4  -2    5.06    0.27
   3   4  -2    5.42    0.27
  -3   4   2    4.75    0.28
   2  -4  -2    5.19    0.54
   2  -4  -2    5.05    0.60
  -2  -4   2    5.85    0.63
   2  -4  -2    4.73    0.40
  -2  -4   2    5.14    0.55
  -2  -4   2    5.04    0.53
   2   4  -2    4.27    0.54
  -2   4   2    4.50    0.56
  -2   4   2    4.70    0.52
   2   4  -2    4.45    0.42
   2   4  -2    5.94    0.57
   2   4  -2    5.30    0.57
  -2   4   2    5.71    0.63
   1  -4  -2   11.76    0.59
   1  -4  -2   11.95    0.57
  -1  -4   2   12.40    0.66
  -1  -4   2   11.26    0.49
   1  -4  -2   10.96    0.67
   1  -4  -2   11.16    0.62
  -1  -4   2   12.75    0.73
   1   4  -2   12.26    0.62
  -1   4   2   10.87    0.58
  -1   4   2   12.60    0.71
   1   4  -2   11.87    0.63
   1   4  -2   11.40    0.59
  -1   4   2   12.82    0.58
   1   4  -2   11.96    0.63
  -1   4   2   11.34    0.66
   0  -4   2   16.02    0.62
   0  -4   2   16.30    0.77
   0  -4  -2   17.27    0.63
   0  -4   2   15.34    0.71
   0  -4  -2   15.05    0.71
   0  -4  -2   16.32    0.75
   0   4  -2   15.70    0.69
   0   4  -2   17.02    0.80
   0   4  -2   16.99    0.80
   0   4   2   16.41    0.67
   0   4   2   15.38    0.61
   0   4   2   16.43    0.76
   0   4   2   16.47    0.68
   0   4   2   16.80    0.77
   0   4  -2   16.14    0.64
   1  -4   2    5.21    0.55
   1  -4   2    5.45    0.43
  -1  -4  -2    4.78    0.44
  -1  -4  -2    5.84    0.57
  -1  -4  -2    5.23    0.40
   1  -4   2    5.44    0.51
   1   4   2    4.89    0.45
  -1   4  -2    5.35    0.46
   1   4   2    5.93    0.55
  -1   4  -2    5.66    0.62
   1   4   2    4.97    0.43
  -1   4  -2    5.92    0.58
   1   4   2    4.72    0.49
  -1   4  -2    6.48    0.61
   2  -4   2   48.05    1.46
   2  -4   2   45.78    1.48
  -2  -4  -2   46.84    1.43
   2  -4   2   47.00    1.29
   2  -4   2   48.27    1.59
  -2  -4  -2   46.59    1.53
  -2  -4  -2   47.39    1.18
  -2  -4  -2   48.83    1.45
   2   4   2   45.90    1.51
   2   4   2   47.02    1.31
   2   4   2   46.47    1.52
  -2   4  -2   48.55    1.70
  -2   4  -2   48.13    1.59
   2   4   2   48.42    1.37
  -2   4  -2   48.23    1.54
   3  -4   2    2.27    0.22
  -3  -4  -2    2.43    0.19
  -3   4  -2    1.99    0.22
   3   4   2    1.91    0.21
   3   4   2    1.86    0.20
  -3   4  -2    2.35    0.21
   3   4   2    1.89    0.21
  -3   4  -2    2.04    0.22
  -3   4  -2    2.41    0.24
   3   4   2    1.79    0.27
   3   4   2    2.34    0.20
   3   4   2    2.24    0.18
  -3   4  -2    2.53    0.23
  -3   4  -2    2.49    0.22
   3   4   2    2.11    0.20
  -3   4  -2    2.31    0.21
   3   4   2    2.10    0.20
   3   4   2    2.29    0.18
   3   4   2    2.35    0.22
  -3   4  -2    2.27    0.23
  -3   4  -2    2.62    0.27
   4  -4   2    3.20    0.27
  -4  -4  -2    3.19    0.25
   4  -4   2    3.17    0.25
   4   4   2    3.45    0.26
   4   4   2    3.42    0.18
  -4   4  -2    3.63    0.29
   4   4   2    3.33    0.26
  -4   4  -2    3.53    0.26
  -4   4  -2    3.39    0.25
   4   4   2    3.38    0.24
  -4   4  -2    3.41    0.27
  -4   4  -2    3.18    0.25
   4   4   2    3.26    0.23
   4   4   2    3.37    0.27
   5  -4   2   -0.03    0.06
  -5  -4  -2    0.06    0.06
  -5  -4  -2    0.05    0.07
  -5  -4  -2    0.02    0.05
   5  -4   2    0.06    0.06
   5   4   2    0.04    0.06
   5   4   2    0.06    0.07
  -5   4  -2   -0.01    0.06
  -5   4  -2    0.07    0.06
   5   4   2    0.09    0.06
  -5   4  -2    0.02    0.07
   5  -5  -2    6.45    0.20
  -5  -5   2    5.89    0.20
   5   5  -2    6.17    0.19
   5   5  -2    6.58    0.18
   5   5  -2    5.91    0.19
  -5   5   2    5.96    0.21
   4  -5  -2    5.41    0.26
   4  -5  -2    5.09    0.24
   4  -5  -2    5.03    0.29
  -4   5   2    5.22    0.25
   4   5  -2    5.10    0.22
   4   5  -2    5.02    0.24
   4   5  -2    4.80    0.24
  -4   5   2    4.88    0.25
   4   5  -2    5.25    0.24
  -4   5   2    4.93    0.27
   4   5  -2    5.05    0.24
   4   5  -2    5.60    0.25
   4   5  -2    5.19    0.24
   4   5  -2    5.58    0.23
   4   5  -2    5.01    0.21
   3  -5  -2    1.63    0.19
   3  -5  -2    1.13    0.18
   3   5  -2    1.36    0.15
   3   5  -2    1.57    0.19
   3   5  -2    1.36    0.16
   3   5  -2    1.26    0.16
   3   5  -2    1.33    0.14
   3   5  -2    1.52    0.16
   3   5  -2    1.34    0.17
   3   5  -2    1.31    0.17
  -3   5   2    1.31    0.17
  -3   5   2    1.35    0.17
   3   5  -2    1.45    0.17
  -3   5   2    1.59    0.19
  -3   5   2    1.38    0.17
  -3   5   2    1.43    0.18
   3   5  -2    1.37    0.17
   2   5  -2    0.31    0.08
  -2   5   2    0.31    0.09
  -2   5   2    0.28    0.10
  -2   5   2    0.16    0.08
   2   5  -2    0.09    0.06
  -2   5   2    0.25    0.08
  -2   5   2    0.13    0.08
   2   5  -2    0.24    0.09
   2   5  -2    0.22    0.08
  -2   5   2    0.25    0.09
  -2   5   2    0.25    0.08
  -2   5   2    0.20    0.09
   2   5  -2    0.33    0.09
  -2   5   2    0.15    0.10
   2   5  -2    0.16    0.09
   2   5  -2    0.28    0.10
   2   5  -2    0.28    0.09
   2   5  -2    0.21    0.09
  -1  -5   2   10.39    0.56
  -1  -5   2    9.78    0.80
   1  -5  -2    8.31    0.61
   1  -5  -2    9.40    0.79
  -1  -5   2    9.23    0.83
   1  -5  -2    9.32    0.81
  -1   5   2    8.51    0.68
  -1   5   2   10.80    0.88
   1   5  -2    8.74    0.70
  -1   5   2    8.31    0.76
   1   5  -2   10.10    0.71
   1   5  -2    9.43    0.60
   0  -5   2    0.34    0.17
   0  -5   2    0.28    0.18
   0  -5  -2    0.24    0.20
   0  -5  -2    0.58    0.22
   0  -5  -2    0.51    0.23
   0  -5   2    0.34    0.22
   0  -5  -2    0.35    0.17
   0   5  -2    0.34    0.26
   0   5  -2    0.39    0.24
   0   5   2    0.36    0.18
   0   5   2    0.27    0.20
   0   5   2    0.53    0.22
   0   5  -2    0.31    0.19
   1  -5   2   10.52    0.54
  -1  -5  -2   11.89    0.71
   1  -5   2   12.20    0.97
   1  -5   2   11.20    0.92
  -1  -5  -2   11.03    0.90
  -1  -5  -2   12.88    0.62
   1   5   2   10.56    0.75
   1   5   2   13.07    0.67
   1   5   2   11.36    0.74
  -1   5  -2   10.25    0.85
  -1   5  -2   11.95    0.62
  -1   5  -2   11.89    0.97
   1   5   2   10.43    0.80
  -2   5  -2   26.39    0.69
  -2   5  -2   25.85    0.62
   2   5   2   25.90    0.64
  -2   5  -2   26.18    0.70
  -2   5  -2   25.67    0.63
   2   5   2   26.04    0.63
   2   5   2   26.14    0.62
  -2   5  -2   26.99    0.63
  -2   5  -2   25.87    0.72
  -2   5  -2   25.84    0.66
   2   5   2   26.26    0.57
  -2   5  -2   26.46    0.68
  -2   5  -2   26.17    0.60
   2   5   2   26.80    0.59
   2   5   2   26.32    0.68
   2   5   2   26.84    0.63
   2   5   2   26.44    0.58
  -2   5  -2   26.01    0.64
  -2   5  -2   26.37    0.69
   2   5   2   25.93    0.62
  -3  -5  -2    1.31    0.15
  -3   5  -2    1.70    0.19
  -3   5  -2    1.85    0.19
  -3   5  -2    1.33    0.19
   3   5   2    1.25    0.17
   3   5   2    1.40    0.16
   3   5   2    1.71    0.17
   3   5   2    1.66    0.18
  -3   5  -2    1.63    0.18
   3   5   2    1.36    0.16
   3   5   2    1.67    0.16
  -3   5  -2    1.86    0.23
   3   5   2    1.40    0.17
  -3   5  -2    1.64    0.20
  -3   5  -2    1.54    0.19
  -3   5  -2    1.59    0.20
   3   5   2    1.72    0.19
  -3   5  -2    1.41    0.18
  -3   5  -2    1.46    0.17
   3   5   2    1.52    0.15
   3   5   2    1.50    0.19
   4  -5   2    1.37    0.16
  -4  -5  -2    1.34    0.16
   4  -5   2    1.24    0.15
  -4   5  -2    1.64    0.18
   4   5   2    1.59    0.17
   4   5   2    1.31    0.15
  -4   5  -2    1.85    0.18
  -4   5  -2    1.65    0.19
  -4   5  -2    1.44    0.16
   4   5   2    1.40    0.14
  -4   5  -2    1.46    0.16
   4   5   2    1.58    0.13
   4   5   2    1.56    0.16
   4  -6  -2    0.93    0.14
   4  -6  -2    0.92    0.11
   4  -6  -2    1.04    0.12
  -4   6   2    1.04    0.12
   4   6  -2    1.03    0.10
  -4   6   2    1.00    0.12
   4   6  -2    0.82    0.09
   4   6  -2    1.01    0.11
   4   6  -2    0.92    0.11
   4   6  -2    1.15    0.12
  -4   6   2    0.87    0.11
   4   6  -2    1.04    0.11
   4   6  -2    0.92    0.11
   4   6  -2    0.66    0.09
   3  -6  -2    0.39    0.10
   3  -6  -2    0.17    0.10
   3   6  -2    0.34    0.09
  -3   6   2    0.31    0.10
   3   6  -2    0.34    0.09
   3   6  -2    0.36    0.11
   3   6  -2    0.35    0.09
   3   6  -2    0.26    0.08
   3   6  -2    0.45    0.11
   3   6  -2    0.33    0.10
  -3   6   2    0.34    0.10
   3   6  -2    0.43    0.10
   3   6  -2    0.43    0.09
  -3   6   2    0.41    0.11
  -3   6   2    0.44    0.11
  -3   6   2    0.28    0.09
   2  -6  -2   16.25    0.54
  -2   6   2   16.09    0.46
  -2   6   2   16.34    0.50
   2   6  -2   16.27    0.47
   2   6  -2   16.05    0.43
   2   6  -2   15.50    0.48
   2   6  -2   16.32    0.47
  -2   6   2   16.46    0.47
  -2   6   2   16.01    0.49
   2   6  -2   16.06    0.45
   2   6  -2   16.49    0.50
   2   6  -2   16.33    0.52
  -2   6   2   16.25    0.51
  -2   6   2   16.20    0.52
   2   6  -2   15.59    0.49
   2   6  -2   16.35    0.46
  -2   6   2   16.23    0.44
  -2   6   2   15.52    0.49
  -2   6   2   15.56    0.45
   2   6  -2   15.63    0.43
  -1   6   2   10.62    0.39
  -1   6   2   10.89    0.41
   1   6  -2   11.21    0.40
  -1   6   2   11.03    0.40
   1   6  -2   11.12    0.41
   1   6  -2   11.06    0.39
  -1   6   2   11.21    0.38
  -1   6   2   11.09    0.39
   1   6  -2   10.98    0.37
   1   6  -2   11.22    0.41
  -1   6   2   10.85    0.38
   1   6  -2   11.53    0.37
  -1   6   2   11.10    0.40
   1   6  -2   10.83    0.37
   1   6  -2   11.13    0.39
   1   6  -2   10.52    0.41
  -1   6   2   10.10    0.39
   1   6  -2   10.81    0.42
  -1   6   2   10.58    0.42
  -1   6   2   11.17    0.40
  -1   6   2   10.79    0.36
   0   6   2    0.12    0.08
   0   6   2    0.03    0.06
   0   6  -2    0.17    0.07
   0   6  -2    0.03    0.07
   0   6   2    0.09    0.07
   0   6  -2   -0.09    0.06
   0   6   2    0.08    0.08
   0   6  -2    0.00    0.07
   0   6  -2    0.08    0.08
   0   6   2    0.05    0.06
   0   6  -2    0.19    0.09
   0   6   2    0.07    0.08
   0   6   2    0.00    0.08
   0   6   2    0.13    0.08
   0   6  -2    0.03    0.07
   0   6   2    0.10    0.08
   0   6   2    0.10    0.08
   0   6  -2    0.07    0.09
   0   6  -2    0.19    0.09
  -1   6  -2    1.79    0.21
   1   6   2    1.49    0.20
  -1   6  -2    1.49    0.17
   1   6   2    1.37    0.15
  -1   6  -2    2.15    0.23
  -1   6  -2    1.56    0.20
   1   6   2    1.67    0.19
   1   6   2    1.95    0.21
  -1   6  -2    1.76    0.20
   1   6   2    2.20    0.22
  -1   6  -2    2.01    0.21
  -1   6  -2    1.97    0.21
  -1   6  -2    1.87    0.19
   1   6   2    1.90    0.19
   1   6   2    1.86    0.19
  -1   6  -2    1.99    0.20
  -1   6  -2    1.81    0.21
   1   6   2    1.86    0.18
   1   6   2    1.48    0.19
   1   6   2    1.76    0.19
   2   6   2    6.09    0.27
   2   6   2    6.08    0.29
  -2   6  -2    6.51    0.30
  -2   6  -2    6.34    0.33
  -2   6  -2    6.18    0.32
   2   6   2    6.10    0.26
  -2   6  -2    5.92    0.31
  -2   6  -2    5.81    0.30
  -2   6  -2    5.82    0.31
   2   6   2    6.11    0.25
   2   6   2    6.00    0.29
   2   6   2    6.03    0.28
   2   6   2    6.83    0.32
   2   6   2    5.87    0.29
  -2   6  -2    6.22    0.31
   2   6   2    6.34    0.32
   2   6   2    5.93    0.28
  -2   6  -2    6.20    0.33
  -2   6  -2    6.01    0.29
  -2   6  -2    5.76    0.29
  -3  -6  -2    0.00    0.07
   3  -6   2   -0.10    0.06
   3   6   2    0.03    0.06
  -3   6  -2   -0.02    0.06
  -3   6  -2   -0.03    0.06
  -3   6  -2   -0.04    0.07
  -3   6  -2   -0.11    0.05
  -3   6  -2   -0.07    0.06
  -3   6  -2    0.06    0.07
  -3   6  -2    0.02    0.07
   3   6   2    0.00    0.07
   3   6   2    0.00    0.05
   3   6   2    0.04    0.05
  -3   6  -2   -0.07    0.06
  -3   6  -2    0.10    0.09
   3   6   2    0.08    0.06
   3   6   2    0.01    0.06
   3   6   2   -0.07    0.07
   3   6   2    0.10    0.06
   3   6   2    0.00    0.06
   3   6   2    0.11    0.06
  -4  -6  -2    0.44    0.08
  -4  -6  -2    0.64    0.09
   4  -6   2    0.50    0.09
   4  -6   2    0.62    0.12
   4   6   2    0.71    0.09
   4   6   2    0.68    0.09
   4   6   2    0.74    0.10
   4   6   2    0.71    0.09
   4   6   2    0.51    0.08
  -4   6  -2    0.51    0.09
  -4   6  -2    0.71    0.09
  -4   6  -2    0.49    0.09
   3  -7  -2    1.42    0.15
   3  -7  -2    1.68    0.16
   3   7  -2    1.78    0.12
  -3   7   2    1.40    0.13
   3   7  -2    1.64    0.15
   3   7  -2    1.64    0.12
  -3   7   2    1.68    0.15
   3   7  -2    1.84    0.14
   3   7  -2    1.69    0.14
  -3   7   2    1.46    0.14
   3   7  -2    1.64    0.13
   3   7  -2    1.43    0.13
   3   7  -2    1.68    0.13
   2  -7  -2    0.29    0.10
   2  -7  -2    0.37    0.11
   2   7  -2    0.38    0.10
   2   7  -2    0.33    0.10
   2   7  -2    0.20    0.09
   2   7  -2    0.51    0.11
   2   7  -2    0.49    0.10
   2   7  -2    0.23    0.08
  -2   7   2    0.50    0.11
  -2   7   2    0.31    0.08
  -2   7   2    0.34    0.10
  -2   7   2    0.38    0.09
  -2   7   2    0.38    0.09
   2   7  -2    0.52    0.11
   2   7  -2    0.47    0.09
  -2   7   2    0.42    0.09
  -2   7   2    0.38    0.10
   2   7  -2    0.28    0.07
  -2   7   2    0.27    0.09
   1  -7  -2    0.09    0.08
  -1   7   2    0.09    0.08
   1   7  -2    0.00    0.07
  -1   7   2   -0.11    0.06
   1   7  -2    0.04    0.06
   1   7  -2   -0.04    0.06
  -1   7   2    0.03    0.06
  -1   7   2    0.00    0.06
  -1   7   2   -0.01    0.06
   1   7  -2    0.01    0.07
   1   7  -2    0.02    0.06
  -1   7   2   -0.07    0.06
   1   7  -2   -0.06    0.07
  -1   7   2    0.00    0.05
  -1   7   2   -0.05    0.06
  -1   7   2    0.03    0.07
   1   7  -2   -0.01    0.06
   1   7  -2   -0.04    0.07
   1   7  -2   -0.06    0.07
   0   7  -2    0.97    0.14
   0   7   2    0.58    0.13
   0   7   2    1.09    0.15
   0   7   2    0.86    0.14
   0   7   2    0.97    0.14
   0   7  -2    1.02    0.15
   0   7   2    1.17    0.15
   0   7  -2    1.08    0.15
   0   7  -2    0.99    0.16
   0   7  -2    1.21    0.15
   0   7   2    0.99    0.15
   0   7   2    0.98    0.15
   0   7   2    0.83    0.13
   0   7  -2    0.84    0.14
   0   7  -2    0.99    0.14
   0   7   2    1.01    0.16
   0   7  -2    0.94    0.14
   0   7   2    1.13    0.14
   0   7  -2    0.85    0.15
  -1   7  -2   -0.08    0.06
  -1   7  -2    0.10    0.08
   1   7   2   -0.05    0.06
   1   7   2    0.05    0.07
   1   7   2    0.07    0.06
   1   7   2    0.09    0.08
  -1   7  -2    0.05    0.08
  -1   7  -2    0.11    0.08
   1   7   2   -0.02    0.06
   1   7   2    0.00    0.08
  -1   7  -2    0.07    0.09
  -1   7  -2   -0.09    0.07
  -1   7  -2    0.02    0.06
   1   7   2    0.04    0.06
   1   7   2   -0.04    0.06
  -1   7  -2    0.01    0.07
   1   7   2   -0.04    0.06
   1   7   2    0.06    0.07
  -1   7  -2    0.01    0.06
   2  -7   2    3.72    0.26
   2   7   2    4.61    0.22
   2   7   2    4.88    0.26
  -2   7  -2    4.56    0.23
  -2   7  -2    4.57    0.23
  -2   7  -2    4.58    0.23
  -2   7  -2    4.43    0.25
   2   7   2    4.41    0.19
  -2   7  -2    4.17    0.24
   2   7   2    4.26    0.23
   2   7   2    4.39    0.22
   2   7   2    3.54    0.24
  -2   7  -2    4.51    0.23
  -2   7  -2    4.53    0.22
  -2   7  -2    4.26    0.25
   2   7   2    4.06    0.21
   2   7   2    4.42    0.20
  -2   7  -2    4.42    0.22
   3  -7   2    8.11    0.29
  -3  -7  -2    8.21    0.27
  -3  -7  -2    7.64    0.23
   3   7   2    8.21    0.27
  -3   7  -2    8.12    0.28
   3   7   2    7.74    0.26
   3   7   2    8.05    0.22
   3   7   2    7.74    0.22
   3   7   2    7.50    0.24
  -3   7  -2    8.13    0.24
  -3   7  -2    7.85    0.24
  -3   7  -2    7.83    0.26
  -3   7  -2    7.52    0.27
  -3   7  -2    7.83    0.25
   3   7   2    7.88    0.21
  -3   7  -2    7.76    0.25
   3   7   2    7.68    0.22
  -3   7  -2    7.72    0.27
   3   7   2    7.83    0.23
   2  -8  -2    0.27    0.07
   2  -8  -2    0.17    0.07
   2   8  -2    0.21    0.05
  -2   8   2    0.24    0.06
  -2   8   2    0.21    0.05
   2   8  -2    0.28    0.06
   2   8  -2    0.20    0.05
   2   8  -2    0.18    0.06
   2   8  -2    0.25    0.06
   2   8  -2    0.15    0.05
  -2   8   2    0.16    0.05
   2   8  -2    0.22    0.06
   1  -8  -2    0.28    0.08
   1   8  -2    0.29    0.07
  -1   8   2    0.18    0.06
  -1   8   2    0.26    0.07
   1   8  -2    0.26    0.06
   1   8  -2    0.29    0.06
   1   8  -2    0.22    0.07
   1   8  -2    0.39    0.09
  -1   8   2    0.22    0.06
  -1   8   2    0.21    0.09
  -1   8   2    0.21    0.07
  -1   8   2    0.17    0.07
   1   8  -2    0.23    0.06
  -1   8   2    0.29    0.06
  -1   8   2    0.39    0.07
   1   8  -2    0.11    0.06
   1   8  -2    0.29    0.08
   0  -8  -2    0.43    0.10
   0   8   2    0.45    0.09
   0   8   2    0.32    0.08
   0   8   2    0.32    0.07
   0   8  -2    0.25    0.08
   0   8  -2    0.47    0.09
   0   8   2    0.33    0.07
   0   8  -2    0.43    0.08
   0   8   2    0.42    0.07
   0   8   2    0.23    0.07
   0   8  -2    0.45    0.10
   0   8  -2    0.36    0.09
   0   8  -2    0.35    0.08
   0   8  -2    0.56    0.09
   0   8  -2    0.37    0.07
   0   8   2    0.53    0.09
   0   8   2    0.40    0.08
   0   8   2    0.22    0.07
  -1  -8  -2    0.07    0.07
   1   8   2    0.08    0.07
   1   8   2    0.08    0.06
   1   8   2    0.08    0.05
  -1   8  -2    0.09    0.06
  -1   8  -2    0.04    0.06
   1   8   2    0.05    0.05
   1   8   2    0.11    0.07
  -1   8  -2    0.03    0.05
  -1   8  -2    0.00    0.05
  -1   8  -2    0.07    0.06
   1   8   2    0.05    0.05
  -1   8  -2   -0.02    0.06
  -1   8  -2    0.06    0.07
  -1   8  -2    0.03    0.06
   1   8   2    0.11    0.05
   1   8   2    0.06    0.05
  -6   0   3    0.07    0.06
  -6   0   3    0.02    0.05
   6   0  -3   -0.07    0.06
   6   0  -3   -0.08    0.06
   5   0  -3   -0.12    0.07
   5   0  -3    0.01    0.08
   5   0  -3    0.13    0.09
   5   0  -3    0.05    0.08
  -5   0   3   -0.03    0.08
  -5   0   3   -0.08    0.06
  -5   0   3   -0.01    0.06
   4   0  -3   -0.08    0.07
   4   0  -3    0.00    0.08
   4   0  -3    0.17    0.07
   4   0  -3    0.05    0.09
   4   0  -3    0.00    0.05
  -4   0   3   -0.01    0.05
   4   0  -3    0.10    0.07
  -3   0   3   -0.09    0.12
   3   0  -3   -0.05    0.08
   3   0  -3   -0.03    0.14
   3   0  -3    0.01    0.20
  -3   0   3   -0.06    0.08
  -3   0   3    0.31    0.12
  -3   0   3    0.06    0.08
   3   0  -3   -0.06    0.12
  -2   0   3   -0.01    0.06
   2   0  -3    0.01    0.08
   2   0  -3    0.23    0.14
   2   0  -3    0.03    0.08
   2   0  -3    0.02    0.10
  -2   0   3    0.05    0.07
  -2   0   3   -0.05    0.06
   2   0  -3   -0.05    0.06
  -2   0   3    0.01    0.06
  -1   0   3    0.00    0.03
   1   0  -3    0.18    0.07
  -1   0   3    0.00    0.04
  -1   0   3    0.01    0.04
  -1   0   3    0.56    0.09
   1   0  -3    0.08    0.05
   1   0  -3   -0.06    0.06
   1   0  -3   -0.02    0.05
   1   0  -3    0.04    0.06
   1   0  -3    0.13    0.08
   0   0   3    0.01    0.03
   0   0   3    0.02    0.02
   0   0  -3    0.03    0.04
   0   0  -3    0.02    0.05
   0   0   3    0.01    0.04
   0   0  -3    0.02    0.04
   0   0  -3    0.06    0.05
   0   0  -3    0.04    0.05
   0   0   3    0.03    0.04
   0   0  -3    0.00    0.05
   1   0   3   -0.08    0.05
  -1   0  -3    0.08    0.07
   1   0   3   -0.03    0.05
  -1   0  -3   -0.03    0.05
  -1   0  -3    0.03    0.06
  -1   0  -3    0.05    0.04
  -1   0  -3    0.10    0.06
   1   0   3   -0.04    0.06
  -1   0  -3    0.04    0.06
   1   0   3    0.03    0.05
   1   0   3    0.02    0.05
   1   0   3   -0.03    0.05
  -2   0  -3    0.13    0.13
  -2   0  -3    0.03    0.06
  -2   0  -3   -0.02    0.04
   2   0   3    0.10    0.07
   2   0   3    0.06    0.04
   2   0   3    0.05    0.07
  -2   0  -3    0.03    0.07
   2   0   3    0.07    0.09
  -2   0  -3    0.04    0.06
  -2   0  -3    0.04    0.09
   2   0   3   -0.16    0.13
   3   0   3    0.11    0.07
  -3   0  -3    0.00    0.08
   3   0   3   -0.02    0.12
  -3   0  -3    0.02    0.10
   3   0   3    0.35    0.17
  -3   0  -3    0.02    0.12
  -4   0  -3    0.04    0.06
   4   0   3    0.29    0.09
  -4   0  -3   -0.03    0.05
  -4   0  -3    0.06    0.07
   4   0   3    0.00    0.08
   4   0   3    0.05    0.07
   4   0   3    0.02    0.08
  -4   0  -3    0.03    0.07
   5   0   3    0.00    0.09
   5   0   3    0.05    0.08
  -5   0  -3    0.14    0.07
  -5   0  -3    0.02    0.08
   5   0   3    0.02    0.08
  -5   0  -3   -0.05    0.06
  -5   0  -3    0.02    0.08
  -6   0  -3    0.01    0.05
   6   0   3   -0.04    0.05
   6   0   3    0.01    0.06
  -6   0  -3    0.11    0.06
   6  -1  -3    0.07    0.07
  -6  -1   3    0.06    0.05
   6  -1  -3    0.03    0.05
  -6  -1   3    0.12    0.07
   6  -1  -3    0.10    0.07
   6   1  -3    0.03    0.06
   6   1  -3    0.00    0.06
   6   1  -3    0.13    0.06
  -6   1   3    0.04    0.06
  -6   1   3    0.04    0.05
   5  -1  -3    5.08    0.32
  -5  -1   3    5.14    0.24
   5  -1  -3    5.02    0.33
   5  -1  -3    5.56    0.30
  -5  -1   3    5.02    0.27
  -5   1   3    5.32    0.26
   5   1  -3    4.55    0.30
  -5   1   3    5.51    0.29
   5   1  -3    5.62    0.28
   5   1  -3    5.23    0.36
  -5   1   3    5.12    0.25
   5   1  -3    4.99    0.24
   4  -1  -3    0.05    0.09
   4  -1  -3   -0.06    0.06
   4  -1  -3   -0.01    0.08
   4  -1  -3    0.00    0.07
  -4  -1   3    0.00    0.06
   4   1  -3   -0.01    0.07
   4   1  -3    0.01    0.06
   4   1  -3    0.02    0.07
   4   1  -3   -0.17    0.06
   4   1  -3    0.02    0.06
  -4   1   3    0.16    0.08
   4   1  -3   -0.05    0.06
  -4   1   3    0.01    0.05
   4   1  -3   -0.08    0.06
  -3  -1   3   26.14    0.90
  -3  -1   3   24.34    0.81
  -3  -1   3   23.28    0.87
   3  -1  -3   22.89    0.82
   3  -1  -3   24.13    1.04
   3  -1  -3   24.78    0.93
  -3  -1   3   23.48    0.74
  -3   1   3   25.41    0.93
   3   1  -3   25.98    1.09
  -3   1   3   22.26    0.90
   3   1  -3   23.89    0.97
   3   1  -3   24.13    0.96
  -3   1   3   23.40    0.67
   3   1  -3   25.67    0.90
  -3   1   3   23.25    0.78
   2  -1  -3    1.52    0.27
  -2  -1   3    1.86    0.25
   2  -1  -3    1.09    0.18
  -2  -1   3    1.64    0.19
   2  -1  -3    1.83    0.22
  -2  -1   3    1.27    0.19
   2  -1  -3    1.46    0.22
   2  -1  -3    1.30    0.21
  -2  -1   3    1.85    0.19
  -2   1   3    1.40    0.20
   2   1  -3    1.54    0.23
   2   1  -3    2.23    0.19
   2   1  -3    1.78    0.25
  -2   1   3    1.53    0.17
   2   1  -3    1.66    0.26
   2   1  -3    1.31    0.22
  -2   1   3    1.67    0.17
  -2   1   3    1.44    0.21
  -2   1   3    1.57    0.19
   2   1  -3    1.17    0.17
   1  -1  -3  191.03    2.66
  -1  -1   3  195.16    2.71
   1  -1  -3  189.28    2.65
   1  -1  -3  195.91    2.72
  -1  -1   3  195.34    2.69
   1  -1  -3  197.25    2.48
  -1  -1   3  193.68    2.64
   1  -1  -3  195.43    2.82
   1  -1  -3  197.41    2.72
  -1  -1   3  194.03    2.56
  -1   1   3  190.06    2.67
  -1   1   3  192.99    2.57
   1   1  -3  194.62    2.64
   1   1  -3  197.00    2.73
   1   1  -3  197.18    2.86
   1   1  -3  194.22    2.72
   1   1  -3  191.68    2.54
  -1   1   3  191.45    2.58
  -1   1   3  193.11    2.62
  -1   1   3  200.75    2.64
   1   1  -3  193.38    2.71
   0  -1  -3  960.85   11.43
   0  -1  -3  954.80   11.49
   0  -1  -3  958.84   11.41
   0  -1  -3  970.40   11.45
   0  -1  -3  961.73   11.59
   0  -1  -3  952.66   11.50
   0  -1  -3  933.65   11.50
   0   1  -3  958.14   11.41
   0   1  -3  934.62   11.59
   0   1  -3  961.68   11.56
   0   1   3  940.21   11.45
   0   1  -3  962.39   11.45
   0   1  -3  954.70   11.50
   0   1  -3  956.12   11.50
   0   1   3  961.40   11.48
   0   1  -3  979.72   11.59
   2  -1   3  317.73    4.45
   2  -1   3  322.75    4.49
  -2  -1  -3  306.39    4.11
   2  -1   3  316.58    4.52
   2  -1   3  319.99    4.73
  -2  -1  -3  316.82    4.29
  -2  -1  -3  320.06    4.51
  -2  -1  -3  316.77    4.24
  -2  -1  -3  322.02    4.51
  -2  -1  -3  317.11    4.31
  -2   1  -3  314.59    4.55
   2   1   3  328.53    4.80
   2   1   3  312.59    4.47
  -2   1  -3  314.76    4.64
   2   1   3  317.94    4.18
   2   1   3  318.16    4.49
  -2   1  -3  320.30    4.40
  -2   1  -3  308.95    4.45
   2   1   3  313.35    4.44
  -2   1  -3  319.74    4.27
  -3  -1  -3    7.47    0.62
  -3  -1  -3    8.08    0.66
  -3  -1  -3    7.79    0.48
   3  -1   3    7.70    0.59
   3  -1   3    8.09    0.64
   3  -1   3    8.99    0.80
  -3   1  -3    8.48    0.56
   3   1   3    8.17    0.59
  -3   1  -3    6.86    0.59
   3   1   3    8.40    0.75
   3   1   3    8.41    0.70
  -3   1  -3    8.60    0.65
   4  -1   3    0.65    0.14
  -4  -1  -3    0.56    0.12
   4  -1   3    0.50    0.12
   4  -1   3    0.52    0.14
  -4  -1  -3    0.29    0.10
  -4  -1  -3    0.41    0.10
  -4   1  -3    0.61    0.12
  -4   1  -3    0.51    0.11
   4   1   3    0.54    0.12
  -4   1  -3    0.36    0.08
   4   1   3    0.62    0.14
   4   1   3    0.49    0.11
   4   1   3    0.71    0.13
  -4   1  -3    0.61    0.13
   5  -1   3    7.44    0.33
   5  -1   3    7.69    0.34
  -5  -1  -3    7.14    0.32
  -5  -1  -3    6.82    0.31
  -5  -1  -3    7.47    0.30
   5  -1   3    7.32    0.36
  -5   1  -3    7.06    0.32
  -5   1  -3    7.01    0.27
  -5   1  -3    7.13    0.33
   5   1   3    7.09    0.31
   5   1   3    7.04    0.32
   5   1   3    7.85    0.38
  -5   1  -3    7.36    0.31
  -6  -1  -3    0.03    0.06
  -6  -1  -3    0.20    0.06
   6  -1   3    0.06    0.07
   6   1   3    0.14    0.07
  -6   1  -3    0.17    0.06
  -6   1  -3    0.01    0.06
  -6  -2   3    2.00    0.13
  -6  -2   3    2.00    0.13
   6  -2  -3    2.22    0.14
   6  -2  -3    1.99    0.13
  -6   2   3    2.26    0.14
   6   2  -3    1.76    0.12
   6   2  -3    2.15    0.15
   5  -2  -3    9.20    0.33
   5  -2  -3    8.75    0.36
  -5  -2   3    8.49    0.34
   5  -2  -3    9.00    0.36
  -5   2   3    8.64    0.35
   5   2  -3    9.13    0.32
   5   2  -3    8.65    0.38
   5   2  -3    9.01    0.36
   5   2  -3    8.62    0.31
   5   2  -3    8.11    0.31
   5   2  -3    8.82    0.31
  -5   2   3    9.31    0.35
  -5   2   3    8.52    0.32
  -4  -2   3    1.31    0.14
   4  -2  -3    1.43    0.17
   4  -2  -3    1.25    0.16
   4  -2  -3    1.63    0.20
   4   2  -3    1.23    0.15
   4   2  -3    1.48    0.17
   4   2  -3    1.58    0.17
   4   2  -3    1.42    0.16
  -4   2   3    1.29    0.15
   4   2  -3    1.41    0.16
   4   2  -3    1.25    0.15
   4   2  -3    1.47    0.16
   4   2  -3    1.24    0.18
  -4   2   3    1.25    0.16
   4   2  -3    1.30    0.19
   4   2  -3    1.45    0.15
   4   2  -3    1.20    0.16
  -4   2   3    1.21    0.16
  -3  -2   3   16.50    0.72
  -3  -2   3   18.46    0.82
  -3  -2   3   19.71    0.82
   3  -2  -3   17.48    0.77
   3  -2  -3   16.36    0.77
   3  -2  -3   18.12    0.95
  -3   2   3   16.13    0.69
   3   2  -3   17.70    0.92
   3   2  -3   17.82    0.81
   3   2  -3   17.34    0.72
  -3   2   3   18.33    0.87
   3   2  -3   17.59    0.84
  -3   2   3   19.31    0.87
   2  -2  -3    0.67    0.13
   2  -2  -3    0.11    0.10
  -2  -2   3    0.63    0.17
   2  -2  -3    0.51    0.14
   2  -2  -3    0.55    0.19
  -2  -2   3    0.66    0.14
   2  -2  -3    0.34    0.18
  -2  -2   3    0.49    0.15
  -2  -2   3    0.69    0.15
  -2   2   3    0.88    0.15
  -2   2   3    0.60    0.16
   2   2  -3    0.58    0.19
  -2   2   3    0.29    0.14
   2   2  -3    0.39    0.20
  -2   2   3    0.66    0.17
   2   2  -3    0.86    0.17
   2   2  -3    0.79    0.16
   2   2  -3    0.82    0.20
  -1  -2   3  423.17    5.65
  -1  -2   3  423.32    5.78
   1  -2  -3  432.85    5.75
   1  -2  -3  440.24    5.80
   1  -2  -3  435.68    5.42
  -1  -2   3  428.75    5.47
  -1  -2   3  431.29    5.40
   1  -2  -3  439.33    5.48
   1  -2  -3  432.50    5.70
   1   2  -3  444.19    5.78
  -1   2   3  439.55    5.54
  -1   2   3  422.68    5.45
   1   2  -3  437.18    5.72
   1   2  -3  436.82    5.53
  -1   2   3  434.14    5.73
   1   2  -3  436.20    5.63
  -1   2   3  439.56    5.62
   1   2  -3  433.19    5.83
   1   2  -3  433.68    5.57
   1   2  -3  440.54    5.62
  -1   2   3  426.14    5.72
   0  -2  -3   15.64    0.51
   0  -2   3   15.98    0.39
   0  -2   3   15.90    0.41
   0  -2  -3   16.24    0.53
   0  -2   3   16.24    0.49
   0  -2  -3   15.56    0.45
   0   2   3   16.12    0.48
   0   2   3   16.02    0.50
   0   2   3   16.11    0.50
   0   2  -3   15.81    0.42
   0   2  -3   15.74    0.55
   0   2  -3   16.55    0.53
   0   2  -3   16.49    0.58
   0   2  -3   16.70    0.46
   0   2   3   16.09    0.46
   0   2  -3   16.37    0.45
   0   2  -3   15.95    0.52
   0   2   3   16.55    0.48
   0   2  -3   16.31    0.45
   0   2  -3   15.87    0.43
   0   2   3   16.31    0.49
  -1  -2  -3  307.86    4.05
  -1  -2  -3  306.38    4.15
  -1  -2  -3  305.78    4.28
  -1  -2  -3  310.23    4.27
   1  -2   3  311.88    4.27
   1  -2   3  307.73    4.14
   1  -2   3  311.10    4.08
   1  -2   3  313.00    4.10
   1  -2   3  307.96    4.37
  -1   2  -3  309.58    4.45
  -1   2  -3  305.96    4.25
  -1   2  -3  305.12    3.99
   1   2   3  297.43    4.10
   1   2   3  299.58    4.16
   1   2   3  307.44    4.16
  -1   2  -3  317.20    4.38
  -1   2  -3  311.12    4.12
   1   2   3  312.01    4.04
   1   2   3  313.16    4.42
  -1   2  -3  307.54    4.36
   2  -2   3   28.45    0.93
   2  -2   3   32.27    1.08
  -2  -2  -3   30.71    0.93
   2  -2   3   31.36    1.02
  -2  -2  -3   29.53    0.95
  -2  -2  -3   29.17    0.76
   2  -2   3   29.79    0.88
  -2  -2  -3   29.13    0.85
  -2   2  -3   31.63    1.05
  -2   2  -3   30.36    0.93
   2   2   3   31.34    0.80
   2   2   3   31.31    0.90
   2   2   3   30.06    1.08
  -2   2  -3   28.98    0.79
   2   2   3   29.96    0.82
   2   2   3   31.04    0.98
  -2   2  -3   31.54    1.02
  -3  -2  -3   32.12    1.00
   3  -2   3   31.07    1.29
   3  -2   3   30.24    1.54
   3  -2   3   32.18    1.12
  -3  -2  -3   31.90    1.19
  -3  -2  -3   31.93    1.13
   3  -2   3   29.70    1.09
   3   2   3   30.17    1.29
  -3   2  -3   33.01    1.18
   3   2   3   30.43    1.11
  -3   2  -3   32.60    1.20
   3   2   3   30.72    1.11
  -3   2  -3   29.76    1.22
   4  -2   3   22.06    0.63
   4  -2   3   21.13    0.60
  -4  -2  -3   22.29    0.53
   4  -2   3   21.63    0.60
  -4  -2  -3   23.05    0.60
  -4   2  -3   22.22    0.62
   4   2   3   21.04    0.63
  -4   2  -3   21.21    0.53
   4   2   3   22.46    0.62
  -4   2  -3   21.90    0.62
  -4   2  -3   22.06    0.55
   4   2   3   22.08    0.57
  -4   2  -3   22.40    0.58
   5  -2   3    0.29    0.08
   5  -2   3    0.31    0.11
  -5  -2  -3    0.41    0.10
  -5  -2  -3    0.28    0.10
   5  -2   3    0.49    0.13
   5  -2   3    0.40    0.12
  -5  -2  -3    0.13    0.08
   5   2   3    0.54    0.13
  -5   2  -3    0.35    0.10
  -5   2  -3    0.41    0.11
   5   2   3    0.43    0.13
   5   2   3    0.55    0.11
  -5   2  -3    0.44    0.09
   5  -3  -3    0.07    0.08
   5  -3  -3    0.12    0.09
  -5  -3   3    0.11    0.10
  -5  -3   3    0.08    0.07
   5  -3  -3    0.11    0.09
   5   3  -3    0.08    0.07
   5   3  -3    0.09    0.06
   5   3  -3    0.03    0.08
   5   3  -3    0.06    0.06
   5   3  -3    0.31    0.09
   5   3  -3    0.06    0.09
   5   3  -3    0.05    0.07
  -5   3   3    0.06    0.08
  -5   3   3    0.11    0.08
  -5   3   3    0.14    0.08
   4  -3  -3    0.39    0.11
   4  -3  -3    0.58    0.13
   4  -3  -3    0.60    0.14
   4  -3  -3    0.67    0.15
  -4   3   3    0.58    0.13
   4   3  -3    0.72    0.12
   4   3  -3    0.53    0.11
   4   3  -3    0.55    0.12
   4   3  -3    0.42    0.10
   4   3  -3    0.60    0.11
  -4   3   3    0.45    0.11
   4   3  -3    0.50    0.11
   4   3  -3    0.63    0.13
  -4   3   3    0.57    0.12
   4   3  -3    0.73    0.14
   4   3  -3    0.58    0.13
   4   3  -3    0.56    0.13
  -3  -3   3    0.02    0.12
   3  -3  -3    0.00    0.21
   3  -3  -3    0.05    0.19
  -3  -3   3   -0.02    0.19
  -3  -3   3   -0.02    0.14
  -3   3   3    0.05    0.09
   3   3  -3   -0.39    0.23
   3   3  -3    0.02    0.11
  -3   3   3    0.28    0.19
   3   3  -3   -0.12    0.15
   2  -3  -3  113.92    2.32
  -2  -3   3  109.38    2.12
   2  -3  -3  119.35    2.29
  -2  -3   3  115.34    2.33
  -2  -3   3  118.08    2.30
   2  -3  -3  112.53    2.37
   2  -3  -3  115.17    1.92
   2   3  -3  121.46    2.19
  -2   3   3  111.47    1.95
  -2   3   3  115.03    2.16
  -2   3   3  114.16    2.37
   2   3  -3  113.80    2.45
  -2   3   3  117.64    2.36
   2   3  -3  112.90    2.07
   2   3  -3  117.02    2.16
   2   3  -3  115.58    2.31
  -1  -3   3  266.61    4.03
   1  -3  -3  273.96    3.97
  -1  -3   3  276.86    4.17
  -1  -3   3  274.94    3.70
   1  -3  -3  272.43    3.79
   1  -3  -3  275.06    3.90
   1  -3  -3  274.31    3.99
   1   3  -3  273.48    4.06
  -1   3   3  270.58    3.92
   1   3  -3  268.24    3.98
  -1   3   3  272.51    4.09
  -1   3   3  267.65    4.10
   1   3  -3  269.93    3.89
   1   3  -3  273.58    3.93
   1   3  -3  274.69    4.12
   1   3  -3  269.35    3.71
  -1   3   3  272.68    3.84
  -1   3   3  265.76    3.71
   0  -3   3    2.29    0.25
   0  -3  -3    2.04    0.25
   0  -3   3    2.23    0.18
   0  -3  -3    1.88    0.20
   0  -3   3    2.13    0.28
   0  -3   3    2.48    0.25
   0  -3  -3    2.57    0.25
   0  -3   3    2.04    0.22
   0  -3   3    2.26    0.20
   0  -3  -3    2.06    0.27
   0   3   3    2.24    0.25
   0   3  -3    2.31    0.28
   0   3   3    2.65    0.27
   0   3  -3    2.13    0.31
   0   3  -3    2.09    0.23
   0   3   3    2.15    0.27
   0   3  -3    2.10    0.22
   0   3  -3    2.70    0.34
   0   3   3    2.21    0.29
   0   3  -3    2.49    0.22
   0   3   3    2.13    0.25
  -1  -3  -3    1.68    0.29
  -1  -3  -3    1.92    0.24
  -1  -3  -3    2.20    0.24
   1  -3   3    2.02    0.28
  -1  -3  -3    1.77    0.24
   1  -3   3    1.90    0.29
   1  -3   3    1.57    0.25
   1   3   3    1.83    0.28
  -1   3  -3    1.83    0.29
   1   3   3    2.39    0.29
   1   3   3    2.22    0.32
  -1   3  -3    2.13    0.35
  -1   3  -3    1.84    0.20
   1   3   3    1.72    0.25
   1   3   3    1.85    0.24
  -1   3  -3    1.76    0.23
  -1   3  -3    2.02    0.30
  -2  -3  -3    5.84    0.52
  -2  -3  -3    6.25    0.54
  -2  -3  -3    6.15    0.50
   2  -3   3    6.68    0.58
   2  -3   3    5.55    0.57
   2  -3   3    5.28    0.55
  -2  -3  -3    5.51    0.40
   2   3   3    5.37    0.43
   2   3   3    6.77    0.53
  -2   3  -3    6.32    0.60
   2   3   3    5.81    0.58
  -2   3  -3    6.77    0.50
  -2   3  -3    6.55    0.60
   2   3   3    6.31    0.56
  -2   3  -3    5.77    0.54
   3  -3   3    0.65    0.27
   3  -3   3    0.81    0.31
  -3  -3  -3    0.84    0.33
  -3  -3  -3    0.80    0.27
   3  -3   3    0.70    0.33
  -3  -3  -3    1.17    0.15
   3   3   3    0.73    0.10
   3   3   3    0.55    0.24
  -3   3  -3    1.13    0.17
  -3   3  -3    0.84    0.21
  -3   3  -3    1.09    0.16
  -3   3  -3    0.97    0.14
   3   3   3    0.95    0.38
  -3   3  -3    0.66    0.31
   3   3   3    0.90    0.14
  -3   3  -3    0.78    0.33
  -3   3  -3    0.82    0.26
  -3   3  -3    0.77    0.14
   3   3   3    1.02    0.18
   4  -3   3   20.93    0.61
  -4  -3  -3   20.55    0.56
  -4  -3  -3   20.71    0.51
   4  -3   3   21.32    0.57
  -4   3  -3   20.94    0.61
  -4   3  -3   19.88    0.54
   4   3   3   20.48    0.53
   4   3   3   20.63    0.60
   4   3   3   20.89    0.56
   4   3   3   20.83    0.55
  -4   3  -3   19.28    0.58
  -4   3  -3   20.65    0.60
   4   3   3   20.40    0.61
  -4   3  -3   20.63    0.52
  -4   3  -3   20.72    0.55
  -5  -3  -3    3.00    0.20
  -5  -3  -3    2.40    0.19
  -5  -3  -3    2.72    0.20
   5  -3   3    2.62    0.23
   5  -3   3    2.93    0.22
   5  -3   3    3.03    0.21
  -5   3  -3    2.84    0.21
   5   3   3    3.12    0.24
  -5   3  -3    2.71    0.22
   5   3   3    3.00    0.23
   5   3   3    2.73    0.20
  -5   3  -3    3.11    0.19
   5  -4  -3    1.09    0.13
   5  -4  -3    1.21    0.13
  -5  -4   3    1.29    0.12
  -5  -4   3    1.39    0.14
  -5   4   3    1.10    0.12
   5   4  -3    1.20    0.11
   5   4  -3    1.10    0.11
   5   4  -3    1.25    0.14
   5   4  -3    1.17    0.13
   5   4  -3    1.18    0.12
  -5   4   3    1.22    0.14
   5   4  -3    1.19    0.11
   5   4  -3    1.19    0.12
  -5   4   3    1.32    0.14
   4  -4  -3    8.95    0.37
   4  -4  -3    8.87    0.35
   4  -4  -3    8.04    0.38
   4   4  -3    9.00    0.29
   4   4  -3    8.94    0.34
  -4   4   3    9.17    0.35
   4   4  -3    8.44    0.33
   4   4  -3    8.82    0.32
   4   4  -3    8.24    0.32
   4   4  -3    8.90    0.34
  -4   4   3    9.42    0.37
  -4   4   3    9.29    0.35
   4   4  -3    8.62    0.34
   4   4  -3    8.71    0.36
   4   4  -3    8.93    0.31
   4   4  -3    8.34    0.33
   3  -4  -3    1.30    0.18
   3  -4  -3    1.40    0.17
   3   4  -3    1.36    0.14
   3   4  -3    1.35    0.16
   3   4  -3    1.19    0.16
  -3   4   3    1.49    0.18
  -3   4   3    1.75    0.19
   3   4  -3    1.15    0.15
   3   4  -3    1.56    0.16
   3   4  -3    1.39    0.17
   3   4  -3    1.18    0.15
   3   4  -3    1.55    0.18
  -3   4   3    1.61    0.18
  -3   4   3    1.63    0.17
   3   4  -3    1.53    0.19
  -3   4   3    1.48    0.18
   3   4  -3    1.15    0.16
   2  -4  -3   21.89    0.73
  -2  -4   3   22.00    0.98
   2  -4  -3   21.92    0.95
  -2  -4   3   22.28    0.91
   2  -4  -3   21.35    1.03
  -2  -4   3   22.93    1.03
  -2   4   3   21.90    0.92
   2   4  -3   22.02    0.97
   2   4  -3   21.20    0.90
  -2   4   3   23.42    1.05
  -2   4   3   22.36    1.02
   2   4  -3   19.62    0.93
   2   4  -3   21.00    0.86
   1  -4  -3   46.16    1.24
   1  -4  -3   49.74    1.38
   1  -4  -3   47.76    1.18
  -1  -4   3   48.14    1.46
  -1  -4   3   45.88    1.09
  -1  -4   3   47.60    1.37
   1  -4  -3   49.46    1.43
  -1   4   3   49.23    1.24
  -1   4   3   48.24    1.41
   1   4  -3   46.81    1.27
   1   4  -3   46.05    1.40
   1   4  -3   47.07    1.23
  -1   4   3   45.98    1.39
   1   4  -3   48.51    1.28
  -1   4   3   45.82    1.26
   0  -4   3   25.03    0.98
   0  -4   3   23.65    0.78
   0  -4   3   23.30    0.92
   0  -4  -3   24.65    0.95
   0  -4  -3   24.08    0.91
   0  -4  -3   23.55    0.75
   0   4   3   23.85    0.83
   0   4  -3   24.77    0.95
   0   4  -3   23.81    1.02
   0   4   3   24.86    0.85
   0   4   3   25.39    0.86
   0   4   3   24.12    0.93
   0   4  -3   23.97    0.81
   0   4  -3   23.77    0.75
   1  -4   3   30.14    1.14
  -1  -4  -3   29.93    1.09
  -1  -4  -3   30.03    0.88
   1  -4   3   28.97    0.93
   1  -4   3   29.88    1.00
  -1  -4  -3   27.85    1.08
   1   4   3   30.48    0.99
  -1   4  -3   31.77    1.18
  -1   4  -3   27.29    1.08
   1   4   3   30.94    0.99
  -1   4  -3   29.69    0.90
   1   4   3   29.45    1.06
   1   4   3   30.32    1.05
  -1   4  -3   30.65    1.18
  -2  -4  -3    5.38    0.60
  -2  -4  -3    5.99    0.49
   2  -4   3    6.17    0.65
   2  -4   3    7.64    0.76
  -2  -4  -3    5.75    0.58
   2  -4   3    5.83    0.57
   2  -4   3    6.01    0.65
  -2  -4  -3    5.44    0.50
  -2   4  -3    6.80    0.70
   2   4   3    6.64    0.57
   2   4   3    5.94    0.61
  -2   4  -3    9.52    0.88
   2   4   3    5.50    0.63
   2   4   3    6.78    0.58
  -2   4  -3    5.45    0.63
  -3  -4  -3   18.72    0.50
  -3   4  -3   18.46    0.53
  -3   4  -3   18.72    0.52
   3   4   3   18.24    0.45
   3   4   3   19.20    0.49
   3   4   3   19.42    0.53
  -3   4  -3   18.41    0.52
  -3   4  -3   18.97    0.57
  -3   4  -3   18.05    0.58
  -3   4  -3   19.06    0.51
  -3   4  -3   18.83    0.53
   3   4   3   18.79    0.53
   3   4   3   18.09    0.53
   3   4   3   18.62    0.54
  -3   4  -3   17.97    0.55
  -3   4  -3   18.65    0.57
  -3   4  -3   19.00    0.61
   3   4   3   18.19    0.53
   3   4   3   18.34    0.47
   3   4   3   18.93    0.50
  -4  -4  -3    1.16    0.14
  -4  -4  -3    0.98    0.15
   4  -4   3    0.95    0.16
   4   4   3    1.03    0.14
  -4   4  -3    1.07    0.14
  -4   4  -3    1.40    0.18
  -4   4  -3    1.24    0.16
   4   4   3    1.31    0.17
  -4   4  -3    1.12    0.17
   4   4   3    1.26    0.17
   4   4   3    1.04    0.14
   4   4   3    1.09    0.16
  -4   4  -3    1.20    0.18
   5  -4   3    3.70    0.20
  -5  -4  -3    3.40    0.18
   5  -4   3    3.50    0.18
  -5  -4  -3    3.82    0.19
  -5  -4  -3    3.72    0.17
  -5   4  -3    3.40    0.20
   5   4   3    3.74    0.18
   5   4   3    3.44    0.22
  -5   4  -3    3.00    0.14
  -5   4  -3    3.70    0.18
   5   4   3    3.50    0.16
   4  -5  -3    0.82    0.13
   4  -5  -3    0.76    0.12
   4  -5  -3    0.85    0.14
   4   5  -3    0.72    0.12
   4   5  -3    0.94    0.13
   4   5  -3    0.65    0.11
  -4   5   3    0.73    0.12
   4   5  -3    0.86    0.12
   4   5  -3    0.93    0.13
   4   5  -3    0.72    0.11
   4   5  -3    0.57    0.11
   4   5  -3    0.77    0.13
   4   5  -3    0.89    0.11
   4   5  -3    0.82    0.12
  -4   5   3    0.87    0.13
  -4   5   3    0.57    0.11
   3  -5  -3    0.99    0.16
   3  -5  -3    0.98    0.15
   3   5  -3    1.30    0.15
   3   5  -3    0.98    0.14
   3   5  -3    0.96    0.14
  -3   5   3    1.11    0.16
   3   5  -3    1.05    0.15
  -3   5   3    1.09    0.17
  -3   5   3    1.02    0.15
   3   5  -3    1.21    0.17
  -3   5   3    1.32    0.17
   3   5  -3    0.85    0.13
  -3   5   3    1.10    0.17
   3   5  -3    1.06    0.13
   3   5  -3    1.22    0.17
   3   5  -3    1.07    0.13
  -3   5   3    1.10    0.14
   3   5  -3    0.91    0.14
   2  -5  -3   26.84    0.71
  -2   5   3   25.53    0.62
   2   5  -3   26.17    0.65
  -2   5   3   27.06    0.62
   2   5  -3   26.04    0.61
   2   5  -3   25.32    0.61
   2   5  -3   26.50    0.64
   2   5  -3   25.74    0.61
   2   5  -3   26.36    0.62
  -2   5   3   26.52    0.63
  -2   5   3   26.95    0.68
   2   5  -3   26.41    0.67
   2   5  -3   27.11    0.58
  -2   5   3   26.22    0.66
  -2   5   3   25.73    0.63
   2   5  -3   26.81    0.63
  -2   5   3   26.07    0.65
  -1  -5   3    0.09    0.20
   1  -5  -3    0.14    0.29
  -1  -5   3    0.13    0.18
   1  -5  -3   -0.12    0.19
   1  -5  -3   -0.25    0.14
  -1   5   3    0.09    0.07
  -1   5   3    0.12    0.07
  -1   5   3    0.02    0.17
   1   5  -3    0.34    0.19
   1   5  -3    0.08    0.08
  -1   5   3    0.08    0.06
  -1   5   3    0.21    0.13
   1   5  -3    0.15    0.10
   1   5  -3   -0.58    0.14
  -1   5   3    0.04    0.06
   1   5  -3    0.15    0.08
  -1   5   3    0.11    0.20
   1   5  -3    0.15    0.07
   1   5  -3    0.07    0.08
  -1   5   3   -0.07    0.20
   1   5  -3    0.20    0.22
   0  -5  -3    0.72    0.22
   0  -5  -3    1.68    0.32
   0  -5   3    0.93    0.25
   0  -5  -3    0.72    0.22
   0  -5  -3    0.81    0.30
   0  -5   3    0.57    0.25
   0  -5   3    1.13    0.31
   0   5   3    0.77    0.27
   0   5  -3    0.73    0.33
   0   5   3    1.41    0.34
   0   5   3    0.88    0.25
   0   5  -3    1.09    0.28
   0   5  -3    0.89    0.24
   1  -5   3    8.18    0.79
  -1  -5  -3    8.06    0.78
  -1  -5  -3    7.33    0.58
  -1  -5  -3    6.98    0.96
   1   5   3    6.98    0.28
  -1   5  -3    7.25    0.29
   1   5   3    6.53    0.27
   1   5   3    6.06    0.61
   1   5   3    6.47    0.29
   1   5   3    6.42    0.32
   1   5   3    6.70    0.29
  -1   5  -3    6.78    0.30
  -1   5  -3    6.94    0.32
   1   5   3    6.48    0.32
   1   5   3    8.20    0.72
  -1   5  -3    6.77    0.32
  -1   5  -3    7.30    0.36
  -1   5  -3    7.03    0.32
   1   5   3    7.93    0.73
   1   5   3    7.66    0.32
  -1   5  -3    7.43    0.30
  -1   5  -3    7.20    0.33
  -1   5  -3    6.56    0.75
  -2  -5  -3    0.13    0.08
   2   5   3    0.31    0.09
  -2   5  -3    0.15    0.08
   2   5   3    0.06    0.05
   2   5   3    0.05    0.06
  -2   5  -3    0.05    0.09
   2   5   3    0.08    0.06
   2   5   3    0.06    0.06
  -2   5  -3    0.16    0.10
  -2   5  -3   -0.02    0.07
   2   5   3    0.16    0.08
   2   5   3    0.04    0.06
  -2   5  -3    0.00    0.07
   2   5   3    0.00    0.08
   2   5   3    0.02    0.07
  -2   5  -3    0.07    0.07
  -2   5  -3    0.10    0.09
  -2   5  -3    0.27    0.09
  -2   5  -3    0.08    0.07
  -2   5  -3    0.04    0.07
   2   5   3    0.15    0.08
  -3  -5  -3   28.27    0.65
  -3   5  -3   28.41    0.67
  -3   5  -3   27.42    0.74
  -3   5  -3   28.89    0.76
  -3   5  -3   28.29    0.66
  -3   5  -3   28.23    0.66
   3   5   3   28.27    0.59
   3   5   3   27.95    0.63
   3   5   3   27.51    0.59
  -3   5  -3   27.78    0.67
   3   5   3   27.93    0.69
   3   5   3   28.32    0.68
  -3   5  -3   27.89    0.65
   3   5   3   28.61    0.66
   3   5   3   28.65    0.65
  -3   5  -3   28.91    0.74
  -3   5  -3   27.55    0.71
   3   5   3   26.50    0.64
  -3   5  -3   28.58    0.73
   3   5   3   28.19    0.70
  -4  -5  -3    6.42    0.28
  -4  -5  -3    6.85    0.25
   4  -5   3    6.35    0.29
   4  -5   3    6.82    0.28
  -4   5  -3    6.47    0.26
  -4   5  -3    6.71    0.30
  -4   5  -3    6.50    0.27
   4   5   3    6.27    0.27
   4   5   3    6.67    0.26
  -4   5  -3    6.44    0.27
  -4   5  -3    6.01    0.27
  -4   5  -3    6.81    0.31
   4   5   3    6.50    0.26
   4   5   3    6.50    0.25
  -4  -6   3    0.31    0.06
   4  -6  -3    0.55    0.09
   4  -6  -3    0.47    0.11
   4   6  -3    0.43    0.08
   4   6  -3    0.59    0.08
  -4   6   3    0.61    0.10
   4   6  -3    0.41    0.08
   4   6  -3    0.61    0.09
   4   6  -3    0.45    0.08
  -4   6   3    0.47    0.08
   4   6  -3    0.52    0.09
   4   6  -3    0.59    0.08
   4   6  -3    0.55    0.08
  -4   6   3    0.45    0.09
   3  -6  -3    1.67    0.20
   3  -6  -3    1.93    0.17
   3  -6  -3    1.96    0.20
  -3   6   3    1.94    0.19
   3   6  -3    1.88    0.18
  -3   6   3    1.94    0.17
   3   6  -3    2.13    0.19
   3   6  -3    2.19    0.17
   3   6  -3    1.95    0.18
  -3   6   3    2.11    0.19
   3   6  -3    1.99    0.18
   3   6  -3    1.86    0.16
   3   6  -3    2.34    0.18
   3   6  -3    1.99    0.19
   3   6  -3    2.29    0.21
  -3   6   3    1.82    0.18
  -3   6   3    1.86    0.19
   2  -6  -3    5.36    0.31
   2   6  -3    5.10    0.26
   2   6  -3    4.61    0.26
   2   6  -3    5.26    0.26
  -2   6   3    5.39    0.29
  -2   6   3    5.25    0.28
  -2   6   3    5.23    0.28
   2   6  -3    4.68    0.25
  -2   6   3    4.99    0.29
   2   6  -3    5.04    0.28
   2   6  -3    5.11    0.29
  -2   6   3    5.32    0.28
   2   6  -3    6.22    0.42
  -2   6   3    4.75    0.25
  -2   6   3    5.31    0.26
   2   6  -3    5.18    0.24
   2   6  -3    5.02    0.26
  -1   6   3    4.37    0.28
  -1   6   3    5.09    0.27
  -1   6   3    4.41    0.25
   1   6  -3    4.50    0.26
  -1   6   3    4.57    0.23
   1   6  -3    4.68    0.31
   1   6  -3    4.45    0.29
  -1   6   3    5.10    0.27
   1   6  -3    4.24    0.23
  -1   6   3    4.72    0.25
   1   6  -3    4.84    0.33
  -1   6   3    4.50    0.26
   1   6  -3    4.88    0.24
  -1   6   3    4.93    0.29
  -1   6   3    4.58    0.31
  -1   6   3    4.60    0.27
   1   6  -3    4.31    0.30
   1   6  -3    4.64    0.25
  -1   6   3    4.54    0.26
   1   6  -3    4.93    0.26
   0   6   3   17.23    0.50
   0   6  -3   17.33    0.51
   0   6  -3   17.96    0.55
   0   6  -3   15.96    0.52
   0   6  -3   17.17    0.53
   0   6   3   17.21    0.48
   0   6  -3   17.08    0.50
   0   6   3   16.46    0.50
   0   6   3   17.00    0.51
   0   6  -3   17.62    0.48
   0   6  -3   17.38    0.48
   0   6   3   17.51    0.55
   0   6  -3   17.53    0.50
   0   6   3   17.19    0.49
   0   6  -3   17.37    0.50
   0   6   3   17.15    0.50
   0   6   3   17.14    0.45
   0   6   3   17.05    0.51
   0   6   3   17.56    0.49
   1   6   3    0.12    0.10
  -1   6  -3    0.13    0.08
   1   6   3    0.11    0.08
   1   6   3    0.11    0.07
   1   6   3    0.18    0.10
   1   6   3    0.12    0.08
  -1   6  -3    0.12    0.10
  -1   6  -3    0.10    0.09
   1   6   3    0.12    0.08
   1   6   3    0.16    0.08
  -1   6  -3    0.17    0.10
  -1   6  -3    0.10    0.09
  -1   6  -3    0.12    0.10
   1   6   3    0.02    0.07
  -1   6  -3    0.06    0.09
   1   6   3    0.11    0.09
   1   6   3    0.13    0.07
  -1   6  -3    0.14    0.09
  -1   6  -3   -0.05    0.07
  -2  -6  -3    4.33    0.27
  -2   6  -3    3.87    0.27
  -2   6  -3    4.21    0.29
   2   6   3    4.57    0.32
  -2   6  -3    4.30    0.28
  -2   6  -3    4.30    0.31
  -2   6  -3    4.04    0.28
  -2   6  -3    4.53    0.33
  -2   6  -3    4.00    0.30
   2   6   3    4.53    0.23
   2   6   3    3.17    0.24
   2   6   3    4.33    0.29
   2   6   3    3.96    0.21
   2   6   3    4.36    0.22
  -2   6  -3    4.50    0.32
   2   6   3    4.41    0.22
   2   6   3    4.05    0.23
   2   6   3    4.22    0.30
  -2   6  -3    4.94    0.34
   2   6   3    3.97    0.26
  -2   6  -3    4.13    0.28
  -3  -6  -3   -0.09    0.06
   3  -6   3    0.10    0.08
   3   6   3    0.04    0.07
   3   6   3    0.01    0.06
  -3   6  -3    0.01    0.07
  -3   6  -3    0.04    0.08
  -3   6  -3    0.07    0.07
   3   6   3   -0.02    0.05
   3   6   3   -0.02    0.05
   3   6   3   -0.08    0.05
   3   6   3    0.02    0.05
  -3   6  -3   -0.09    0.08
   3   6   3    0.01    0.07
  -3   6  -3    0.09    0.08
   3   6   3   -0.03    0.04
  -3   6  -3   -0.06    0.07
  -3   6  -3   -0.01    0.07
  -3   6  -3   -0.06    0.06
  -3   6  -3   -0.03    0.06
   4  -6   3    0.44    0.10
  -4  -6  -3    0.31    0.07
   4  -6   3    0.28    0.07
  -4  -6  -3    0.38    0.08
  -4   6  -3    0.34    0.07
  -4   6  -3    0.33    0.06
  -4   6  -3    0.41    0.09
  -4   6  -3    0.46    0.08
   4   6   3    0.35    0.07
   4   6   3    0.44    0.09
   4   6   3    0.35    0.07
   3  -7  -3    0.79    0.10
   3  -7  -3    0.87    0.12
   3  -7  -3    0.76    0.12
   3   7  -3    0.89    0.09
   3   7  -3    0.82    0.10
  -3   7   3    0.75    0.10
   3   7  -3    0.97    0.10
   3   7  -3    0.73    0.10
  -3   7   3    0.71    0.10
   3   7  -3    0.85    0.10
  -3   7   3    0.97    0.11
   3   7  -3    1.06    0.12
   3   7  -3    0.72    0.09
   3   7  -3    0.88    0.11
   2  -7  -3    0.90    0.14
   2  -7  -3    0.69    0.13
  -2   7   3    1.01    0.14
   2   7  -3    1.10    0.13
  -2   7   3    0.94    0.13
   2   7  -3    0.95    0.14
  -2   7   3    0.96    0.13
   2   7  -3    1.14    0.13
  -2   7   3    1.06    0.12
   2   7  -3    1.02    0.13
  -2   7   3    1.02    0.14
   2   7  -3    1.19    0.15
   2   7  -3    1.00    0.13
  -2   7   3    1.36    0.16
   2   7  -3    1.09    0.12
   2   7  -3    0.83    0.13
   1  -7  -3    2.92    0.24
   1   7  -3    3.31    0.22
   1   7  -3    3.17    0.24
  -1   7   3    2.96    0.22
   1   7  -3    2.93    0.24
  -1   7   3    3.20    0.22
   1   7  -3    2.90    0.23
  -1   7   3    2.79    0.19
  -1   7   3    3.10    0.22
   1   7  -3    3.20    0.23
  -1   7   3    3.01    0.23
   1   7  -3    2.99    0.25
  -1   7   3    3.03    0.25
  -1   7   3    2.63    0.22
  -1   7   3    2.92    0.23
   1   7  -3    2.71    0.22
   1   7  -3    2.65    0.19
  -1   7   3    2.98    0.22
   1   7  -3    3.07    0.22
  -1   7   3    2.76    0.24
   0  -7  -3   -0.02    0.08
   0   7  -3   -0.05    0.07
   0   7   3    0.14    0.09
   0   7  -3    0.24    0.09
   0   7   3    0.17    0.08
   0   7  -3    0.10    0.08
   0   7  -3    0.13    0.09
   0   7   3    0.07    0.07
   0   7  -3    0.17    0.08
   0   7   3    0.17    0.08
   0   7  -3    0.04    0.07
   0   7   3    0.14    0.09
   0   7  -3    0.09    0.08
   0   7   3    0.13    0.07
   0   7   3    0.02    0.06
   0   7  -3    0.09    0.08
   0   7  -3    0.11    0.08
   0   7   3    0.07    0.07
   0   7   3    0.15    0.08
   1   7   3    5.42    0.24
   1   7   3    5.05    0.26
  -1   7  -3    5.43    0.25
  -1   7  -3    5.24    0.28
  -1   7  -3    4.95    0.28
   1   7   3    5.53    0.25
   1   7   3    5.18    0.22
  -1   7  -3    5.38    0.27
  -1   7  -3    4.97    0.26
  -1   7  -3    5.33    0.28
   1   7   3    5.40    0.26
   1   7   3    5.46    0.24
   1   7   3    5.09    0.29
   1   7   3    5.21    0.27
  -1   7  -3    5.31    0.26
  -1   7  -3    5.07    0.26
  -1   7  -3    5.77    0.30
   1   7   3    4.91    0.25
   2  -7   3    0.35    0.10
  -2  -7  -3    0.45    0.15
  -2  -7  -3    0.55    0.10
  -2   7  -3    0.52    0.10
   2   7   3    0.42    0.08
   2   7   3    0.56    0.09
   2   7   3    0.56    0.10
  -2   7  -3    0.82    0.15
  -2   7  -3    0.45    0.10
   2   7   3    0.49    0.09
   2   7   3    0.47    0.11
  -2   7  -3    0.62    0.10
   2   7   3    0.17    0.06
  -2   7  -3    0.62    0.12
   2   7   3    0.59    0.11
  -2   7  -3    0.72    0.11
  -2   7  -3    0.70    0.12
   2   7   3    0.61    0.10
  -2   7  -3    0.59    0.12
  -2   7  -3    0.66    0.11
   2   7   3    0.42    0.09
  -3  -7  -3    0.39    0.09
  -3  -7  -3    0.31    0.07
   3  -7   3    0.22    0.08
  -3   7  -3    0.39    0.07
  -3   7  -3    0.21    0.08
  -3   7  -3    0.44    0.08
   3   7   3    0.41    0.08
   3   7   3    0.42    0.09
  -3   7  -3    0.27    0.07
   3   7   3    0.35    0.06
  -3   7  -3    0.26    0.08
   3   7   3    0.43    0.07
   3   7   3    0.28    0.06
  -3   7  -3    0.45    0.09
  -3   7  -3    0.39    0.10
   3   7   3    0.43    0.09
  -3   7  -3    0.26    0.06
   1  -8  -3    0.31    0.08
  -1   8   3    0.12    0.06
   1   8  -3    0.16    0.06
   1   8  -3    0.19    0.06
   1   8  -3    0.19    0.06
   1   8  -3    0.21    0.07
   1   8  -3    0.17    0.06
  -1   8   3    0.18    0.06
   1   8  -3    0.16    0.07
  -1   8   3    0.24    0.06
   1   8  -3    0.09    0.06
  -1   8   3    0.16    0.06
  -1   8   3    0.15    0.07
  -1   8   3    0.21    0.07
   0  -8  -3    1.24    0.13
   0   8   3    1.31    0.12
   0   8  -3    1.24    0.13
   0   8  -3    1.36    0.13
   0   8  -3    1.35    0.12
   0   8  -3    1.31    0.14
   0   8  -3    1.32    0.11
   0   8  -3    1.26    0.13
   0   8  -3    1.19    0.13
   0   8   3    1.12    0.11
   0   8   3    1.27    0.10
   0   8   3    1.33    0.13
   0   8   3    1.14    0.11
   0   8   3    1.21    0.13
   0   8   3    1.00    0.12
   0   8  -3    1.28    0.12
   0   8   3    1.25    0.11
  -1  -8  -3    0.82    0.11
   1   8   3    0.68    0.10
   1   8   3    0.90    0.09
  -1   8  -3    0.92    0.12
   1   8   3    0.91    0.09
  -1   8  -3    0.70    0.09
   1   8   3    0.84    0.09
  -1   8  -3    0.68    0.09
  -1   8  -3    0.82    0.11
  -1   8  -3    0.98    0.11
   1   8   3    0.81    0.08
   1   8   3    0.70    0.09
  -1   8  -3    0.66    0.09
  -1   8  -3    0.69    0.10
   1   8   3    0.65    0.10
  -1   8  -3    0.86    0.10
  -6   0   4    0.21    0.07
  -6   0   4    0.31    0.07
   6   0  -4    0.16    0.06
  -6   0   4    0.19    0.07
   6   0  -4    0.31    0.08
   5   0  -4   11.04    0.40
   5   0  -4   11.04    0.43
  -5   0   4   11.24    0.37
  -5   0   4   11.39    0.40
   5   0  -4   10.87    0.41
  -5   0   4   10.59    0.36
   5   0  -4   10.81    0.37
   4   0  -4   21.69    0.57
  -4   0   4   21.76    0.55
   4   0  -4   22.50    0.62
   4   0  -4   21.27    0.57
   4   0  -4   22.04    0.50
   4   0  -4   21.53    0.53
   4   0  -4   21.70    0.59
  -3   0   4    8.38    0.44
  -3   0   4    8.96    0.52
   3   0  -4    7.63    0.66
  -3   0   4    7.49    0.41
   3   0  -4    8.05    0.63
  -3   0   4    7.95    0.50
   3   0  -4    8.82    0.79
   3   0  -4    8.36    0.48
  -2   0   4  341.51    4.52
  -2   0   4  338.62    4.59
  -2   0   4  345.69    4.57
   2   0  -4  350.58    4.81
   2   0  -4  340.87    4.95
  -2   0   4  340.35    4.66
   2   0  -4  337.56    4.65
   2   0  -4  341.57    4.59
   2   0  -4  350.10    4.96
  -1   0   4   97.74    1.44
   1   0  -4   96.19    1.47
  -1   0   4   95.32    1.44
   1   0  -4   96.59    1.63
  -1   0   4   97.06    1.44
   1   0  -4   96.98    1.63
   1   0  -4   96.21    1.52
   1   0  -4   95.23    1.49
   1   0  -4   95.87    1.56
   0   0   4   51.12    0.86
   0   0  -4   50.89    0.89
   0   0   4   51.32    0.73
   0   0   4   52.07    0.95
   0   0  -4   53.03    0.90
   0   0  -4   51.11    0.83
   0   0   4   51.29    0.79
   0   0  -4   50.13    0.95
   0   0  -4   51.74    0.83
   0   0  -4   52.21    0.95
   1   0   4   91.82    1.58
   1   0   4   91.76    1.60
   1   0   4   91.72    1.39
  -1   0  -4   93.75    1.57
  -1   0  -4   91.55    1.30
   1   0   4   90.89    1.43
  -1   0  -4   90.92    1.45
   1   0   4   93.59    1.43
   1   0   4   94.45    1.51
  -1   0  -4   90.89    1.55
  -1   0  -4   94.16    1.49
  -1   0  -4   91.99    1.44
  -2   0  -4  168.47    2.57
   2   0   4  177.10    2.62
  -2   0  -4  173.47    2.82
   2   0   4  170.95    2.95
   2   0   4  170.25    2.88
  -2   0  -4  178.40    2.84
   2   0   4  175.28    2.80
   2   0   4  173.46    2.61
  -2   0  -4  175.43    2.68
  -2   0  -4  174.52    2.57
  -3   0  -4   36.13    1.02
   3   0   4   39.71    1.41
  -3   0  -4   37.92    1.24
   3   0   4   35.88    1.29
  -3   0  -4   36.89    1.28
   3   0   4   37.26    1.18
  -4   0  -4   34.50    0.75
  -4   0  -4   35.56    0.81
   4   0   4   33.41    0.76
   4   0   4   34.90    0.77
   4   0   4   34.62    0.84
  -4   0  -4   34.85    0.72
   4   0   4   34.64    0.78
   5   0   4    1.69    0.19
  -5   0  -4    1.50    0.17
  -5   0  -4    1.47    0.18
   5   0   4    1.42    0.17
   5   0   4    1.37    0.19
  -5   0  -4    1.62    0.17
  -6  -1   4    5.91    0.21
  -6  -1   4    5.56    0.18
   6  -1  -4    5.68    0.20
   6  -1  -4    5.60    0.21
  -6  -1   4    5.65    0.20
  -6   1   4    5.61    0.20
   6   1  -4    6.05    0.23
   6   1  -4    5.74    0.20
   6   1  -4    5.77    0.19
  -6   1   4    5.70    0.20
  -6   1   4    5.70    0.18
  -5  -1   4    7.66    0.32
   5  -1  -4    7.53    0.34
   5  -1  -4    7.86    0.35
   5  -1  -4    7.54    0.34
  -5  -1   4    8.37    0.31
   5   1  -4    7.79    0.33
  -5   1   4    8.32    0.32
   5   1  -4    7.77    0.28
   5   1  -4    7.82    0.37
   5   1  -4    7.19    0.29
  -5   1   4    7.63    0.31
   5   1  -4    7.99    0.34
  -5   1   4    8.03    0.34
   4  -1  -4    4.98    0.33
   4  -1  -4    5.33    0.25
   4  -1  -4    5.31    0.29
   4  -1  -4    6.30    0.30
  -4  -1   4    5.48    0.25
   4  -1  -4    5.44    0.24
  -4   1   4    5.78    0.26
   4   1  -4    5.58    0.29
   4   1  -4    5.33    0.23
   4   1  -4    5.22    0.25
   4   1  -4    5.31    0.25
  -4   1   4    5.37    0.27
   4   1  -4    5.13    0.24
   4   1  -4    4.88    0.35
   4   1  -4    5.10    0.32
   3  -1  -4   32.63    1.09
   3  -1  -4   32.62    1.02
  -3  -1   4   31.77    1.03
  -3  -1   4   31.11    0.90
   3  -1  -4   30.32    1.15
  -3  -1   4   33.35    1.05
  -3  -1   4   31.15    0.94
   3   1  -4   33.22    1.25
  -3   1   4   31.60    0.96
  -3   1   4   31.16    0.84
   3   1  -4   32.81    1.13
   3   1  -4   32.99    1.14
  -3   1   4   31.84    1.06
   3   1  -4   32.91    1.06
  -3   1   4   30.23    1.05
   2  -1  -4    1.10    0.21
   2  -1  -4    0.89    0.21
  -2  -1   4    1.01    0.17
   2  -1  -4    1.05    0.19
  -2  -1   4    1.05    0.19
  -2  -1   4    0.85    0.16
   2  -1  -4    1.10    0.18
   2   1  -4    0.86    0.20
   2   1  -4    0.98    0.21
   2   1  -4    1.04    0.19
  -2   1   4    0.86    0.15
  -2   1   4    0.87    0.17
  -2   1   4    0.95    0.15
   2   1  -4    1.26    0.17
  -2   1   4    0.92    0.15
  -2   1   4    0.80    0.16
   2   1  -4    0.87    0.19
   1  -1  -4  252.01    3.44
   1  -1  -4  250.31    3.38
  -1  -1   4  245.08    3.33
   1  -1  -4  251.40    3.16
   1  -1  -4  250.10    3.42
   1  -1  -4  246.29    3.54
  -1  -1   4  245.20    3.37
  -1  -1   4  245.61    3.34
   1   1  -4  254.51    3.46
   1   1  -4  253.41    3.35
  -1   1   4  252.78    3.30
  -1   1   4  253.97    3.33
   1   1  -4  253.64    3.45
   1   1  -4  250.53    3.48
  -1   1   4  252.37    3.33
   1   1  -4  246.84    3.29
   1   1  -4  251.96    3.59
  -1   1   4  244.97    3.35
   1   1  -4  263.31    3.26
   0  -1  -4   27.35    0.61
   0  -1   4   28.95    0.58
   0  -1  -4   27.94    0.56
   0  -1  -4   28.51    0.63
   0  -1  -4   28.23    0.58
   0  -1  -4   27.79    0.56
   0  -1  -4   28.50    0.67
   0   1   4   27.71    0.57
   0   1  -4   29.13    0.66
   0   1  -4   28.83    0.67
   0   1  -4   28.97    0.61
   0   1   4   28.00    0.65
   0   1  -4   29.03    0.64
   0   1   4   28.18    0.55
   0   1  -4   29.78    0.66
   0   1  -4   29.58    0.63
   0   1  -4   28.53    0.57
   0   1  -4   27.95    0.52
   0   1  -4   28.18    0.66
   0   1  -4   27.77    0.57
   2  -1   4  183.74    3.00
  -2  -1  -4  180.94    2.73
  -2  -1  -4  183.34    2.74
   2  -1   4  186.36    3.15
   2  -1   4  189.21    2.98
  -2  -1  -4  193.38    3.02
  -2  -1  -4  183.96    2.97
  -2  -1  -4  183.63    2.70
   2  -1   4  187.21    2.94
   2   1   4  180.43    2.91
  -2   1  -4  189.86    3.12
   2   1   4  185.24    2.63
   2   1   4  188.98    3.25
  -2   1  -4  187.56    3.05
  -2   1  -4  184.64    2.83
  -2   1  -4  181.65    2.97
  -2   1  -4  187.33    2.78
   2   1   4  187.24    2.96
   2   1   4  184.01    2.95
  -3  -1  -4    8.52    0.46
   3  -1   4    9.20    0.68
   3  -1   4    7.05    0.71
   3  -1   4    8.56    0.68
  -3  -1  -4    8.28    0.70
  -3  -1  -4    7.31    0.66
  -3   1  -4    9.51    0.75
  -3   1  -4    8.90    0.47
   3   1   4    7.27    0.90
   3   1   4    8.29    0.71
   3   1   4    8.44    0.79
  -3   1  -4    8.94    0.50
  -3   1  -4    8.78    0.80
   4  -1   4    5.16    0.33
  -4  -1  -4    5.66    0.30
  -4  -1  -4    5.88    0.27
  -4  -1  -4    5.66    0.27
   4  -1   4    6.13    0.34
   4   1   4    5.82    0.27
  -4   1  -4    5.91    0.31
   4   1   4    6.06    0.33
  -4   1  -4    5.58    0.27
   4   1   4    6.00    0.38
  -4   1  -4    5.65    0.30
   4   1   4    5.43    0.32
   5  -1   4    0.09    0.08
   5  -1   4    0.18    0.10
   5  -1   4    0.25    0.10
  -5  -1  -4    0.35    0.09
  -5  -1  -4    0.19    0.08
  -5  -1  -4    0.09    0.09
   5   1   4    0.17    0.09
  -5   1  -4    0.36    0.11
   5   1   4    0.25    0.10
  -5   1  -4    0.40    0.10
   5   1   4    0.11    0.10
  -5   1  -4    0.20    0.10
   5  -2  -4    2.34    0.20
  -5  -2   4    2.32    0.20
   5  -2  -4    2.07    0.21
   5  -2  -4    2.36    0.22
  -5   2   4    2.57    0.22
   5   2  -4    2.09    0.18
   5   2  -4    2.48    0.21
  -5   2   4    2.46    0.21
  -5   2   4    2.50    0.22
   5   2  -4    2.22    0.22
   5   2  -4    2.29    0.24
   5   2  -4    2.36    0.18
   5   2  -4    2.35    0.19
   4  -2  -4    0.53    0.12
   4  -2  -4    0.28    0.11
   4  -2  -4    0.29    0.11
   4   2  -4    0.17    0.08
  -4   2   4    0.33    0.10
  -4   2   4    0.30    0.10
   4   2  -4    0.20    0.09
   4   2  -4    0.37    0.09
   4   2  -4    0.40    0.13
   4   2  -4    0.27    0.09
   4   2  -4    0.28    0.10
   4   2  -4    0.42    0.10
   4   2  -4    0.41    0.10
   4   2  -4    0.47    0.10
  -4   2   4    0.46    0.10
   4   2  -4    0.40    0.09
  -4   2   4    0.51    0.09
   4   2  -4    0.29    0.09
   3  -2  -4   -0.14    0.15
  -3  -2   4    0.00    0.10
   3  -2  -4    0.10    0.17
  -3  -2   4    0.02    0.11
  -3  -2   4    0.28    0.20
   3  -2  -4    0.12    0.19
  -3  -2   4    0.21    0.15
  -3   2   4    0.00    0.17
   3   2  -4    0.17    0.14
   3   2  -4   -0.01    0.17
  -3   2   4    0.02    0.11
   2  -2  -4  134.49    2.55
   2  -2  -4  133.94    2.36
  -2  -2   4  131.96    2.39
  -2  -2   4  138.89    2.27
  -2  -2   4  139.49    2.40
   2  -2  -4  137.16    2.23
   2  -2  -4  133.87    2.38
   2   2  -4  131.26    2.34
  -2   2   4  133.54    2.15
  -2   2   4  136.97    2.36
  -2   2   4  135.54    2.27
   2   2  -4  133.12    2.28
   2   2  -4  136.16    2.42
   2   2  -4  136.90    2.27
  -2   2   4  133.63    2.42
   2   2  -4  132.00    2.61
   1  -2  -4    0.19    0.13
   1  -2  -4    0.08    0.10
  -1  -2   4    0.06    0.07
   1  -2  -4    0.09    0.06
  -1  -2   4   -0.02    0.07
   1  -2  -4    0.12    0.07
   1  -2  -4    0.14    0.07
  -1  -2   4    0.17    0.06
   1  -2  -4    0.17    0.10
  -1  -2   4    0.22    0.08
  -1   2   4    0.01    0.06
   1   2  -4    0.01    0.08
  -1   2   4   -0.04    0.06
   1   2  -4    0.08    0.08
   1   2  -4    0.12    0.07
   1   2  -4    0.18    0.08
  -1   2   4    0.05    0.07
  -1   2   4    0.03    0.05
  -1   2   4    0.08    0.07
   1   2  -4    0.04    0.06
   1   2  -4    0.08    0.07
   1   2  -4    0.10    0.08
  -1   2   4    0.14    0.09
   0  -2  -4  211.01    2.83
   0  -2  -4  210.18    3.11
   0  -2  -4  208.18    2.94
   0  -2  -4  212.76    2.99
   0  -2  -4  212.05    2.97
   0  -2  -4  212.90    2.89
   0   2  -4  212.16    2.98
   0   2  -4  211.24    2.87
   0   2  -4  210.61    2.96
   0   2  -4  210.03    2.84
   0   2   4  212.97    3.00
   0   2  -4  206.94    2.87
   0   2   4  213.23    2.96
   0   2  -4  210.73    3.16
   0   2   4  213.08    3.03
   0   2   4  213.70    2.98
   0   2  -4  213.24    2.92
   0   2  -4  216.91    3.03
   0   2  -4  212.71    3.09
   0   2  -4  213.43    3.12
   0   2   4  206.91    2.94
   0   2  -4  214.53    3.04
   0   2  -4  212.45    2.88
   1  -2   4   86.06    1.51
   1  -2   4   86.10    1.43
   1  -2   4   87.98    1.62
  -1  -2  -4   88.32    1.47
   1  -2   4   87.05    1.47
  -1  -2  -4   84.62    1.30
   1  -2   4   86.54    1.70
  -1  -2  -4   83.35    1.58
  -1  -2  -4   86.88    1.55
   1  -2   4   88.34    1.51
  -1  -2  -4   86.92    1.59
  -1  -2  -4   86.28    1.49
  -1   2  -4   84.51    1.56
   1   2   4   88.69    1.66
  -1   2  -4   87.37    1.52
  -1   2  -4   86.53    1.75
   1   2   4   90.59    1.49
   1   2   4   85.94    1.44
  -1   2  -4   83.24    1.33
  -1   2  -4   86.28    1.69
   1   2   4   86.85    1.52
   1   2   4   86.14    1.73
  -1   2  -4   91.58    1.77
   2  -2   4   81.08    1.84
  -2  -2  -4   79.25    1.73
   2  -2   4   81.11    1.76
   2  -2   4   80.08    1.67
   2  -2   4   81.43    1.92
  -2  -2  -4   80.44    1.55
  -2  -2  -4   80.88    1.51
  -2  -2  -4   82.57    1.75
   2   2   4   81.76    1.79
  -2   2  -4   82.81    1.93
   2   2   4   80.52    1.97
  -2   2  -4   81.71    1.87
  -2   2  -4   82.64    1.58
   2   2   4   80.13    1.63
  -2   2  -4   81.25    1.68
   2   2   4   78.67    1.55
   3  -2   4    7.73    0.67
  -3  -2  -4   10.15    0.66
   3  -2   4   10.43    0.77
   3  -2   4    9.00    0.59
   3  -2   4    9.47    0.87
  -3  -2  -4    9.88    0.80
  -3   2  -4   10.45    0.57
  -3   2  -4   10.78    0.68
   3   2   4    9.70    0.74
  -3   2  -4    8.68    0.82
   3   2   4   10.25    0.78
  -3   2  -4   10.60    0.84
   3   2   4    9.99    0.90
  -4  -2  -4    1.04    0.14
  -4  -2  -4    1.13    0.15
   4  -2   4    0.94    0.15
   4  -2   4    1.01    0.17
  -4  -2  -4    1.06    0.16
  -4   2  -4    1.17    0.17
   4   2   4    1.10    0.17
  -4   2  -4    0.92    0.14
   4   2   4    0.86    0.13
  -4   2  -4    1.38    0.17
   4   2   4    1.40    0.20
  -4   2  -4    1.04    0.17
  -5  -2  -4    0.67    0.12
  -5  -2  -4    0.83    0.12
  -5  -2  -4    0.73    0.13
   5  -2   4    0.79    0.14
   5  -2   4    0.57    0.12
   5  -2   4    0.88    0.15
  -5   2  -4    0.81    0.13
  -5   2  -4    0.84    0.14
   5   2   4    0.89    0.12
   5   2   4    0.96    0.15
   5   2   4    0.65    0.14
  -5   2  -4    0.71    0.13
  -5  -3   4   10.48    0.35
   5  -3  -4   10.90    0.35
   5  -3  -4   10.18    0.34
   5  -3  -4   10.94    0.38
  -5   3   4   10.75    0.36
   5   3  -4   10.93    0.32
   5   3  -4   10.55    0.30
  -5   3   4   10.31    0.34
   5   3  -4   10.41    0.38
   5   3  -4   10.86    0.37
   5   3  -4   10.63    0.33
  -5   3   4   10.81    0.35
   5   3  -4   10.04    0.32
   5   3  -4   10.74    0.32
   4  -3  -4    2.00    0.21
   4  -3  -4    2.49    0.22
   4  -3  -4    2.38    0.21
   4  -3  -4    2.34    0.24
   4   3  -4    2.28    0.21
  -4   3   4    2.48    0.23
  -4   3   4    2.61    0.20
   4   3  -4    2.14    0.21
   4   3  -4    2.70    0.27
   4   3  -4    2.52    0.21
   4   3  -4    2.23    0.20
   4   3  -4    2.41    0.20
   4   3  -4    2.22    0.21
   4   3  -4    1.88    0.20
  -4   3   4    2.47    0.23
   4   3  -4    2.30    0.20
   4   3  -4    1.94    0.19
  -4   3   4    2.18    0.21
   3  -3  -4   21.41    1.08
  -3  -3   4   21.41    0.91
  -3  -3   4   21.13    0.96
   3  -3  -4   19.57    0.94
  -3  -3   4   21.58    0.96
  -3   3   4   20.89    1.01
   3   3  -4   21.51    0.89
   3   3  -4   20.20    0.73
  -3   3   4   20.02    0.89
   3   3  -4   22.66    1.01
  -3   3   4   21.47    0.68
  -2  -3   4   26.02    0.95
   2  -3  -4   25.53    0.99
   2  -3  -4   27.13    0.95
  -2  -3   4   27.24    1.14
  -2  -3   4   26.96    0.87
   2  -3  -4   26.44    1.00
  -2  -3   4   27.64    0.98
   2   3  -4   26.66    0.83
   2   3  -4   25.91    0.97
  -2   3   4   26.39    0.90
  -2   3   4   26.71    0.80
  -2   3   4   25.98    0.98
   2   3  -4   26.59    0.87
  -2   3   4   24.70    0.94
   2   3  -4   25.73    1.06
  -1  -3   4   51.26    1.32
   1  -3  -4   52.50    1.09
   1  -3  -4   51.50    1.32
   1  -3  -4   51.69    1.17
   1  -3  -4   52.07    1.23
  -1  -3   4   52.78    1.04
   1  -3  -4   50.73    1.18
  -1  -3   4   50.32    1.25
  -1   3   4   52.04    1.19
   1   3  -4   50.67    1.21
  -1   3   4   51.34    1.15
   1   3  -4   52.13    1.18
   1   3  -4   52.56    1.19
  -1   3   4   52.64    1.26
  -1   3   4   51.62    1.28
  -1   3   4   51.50    1.10
   1   3  -4   53.49    1.32
   1   3  -4   50.75    1.28
   1   3  -4   51.31    1.05
   0  -3  -4  105.71    1.97
   0  -3   4  104.71    1.65
   0  -3  -4  104.17    1.94
   0  -3   4  105.98    1.82
   0  -3   4  105.81    1.85
   0  -3  -4  106.95    1.77
   0  -3  -4  104.51    1.93
   0  -3   4  103.26    2.01
   0  -3  -4  104.11    1.74
   0  -3   4  105.09    1.83
   0  -3   4  105.68    1.61
   0   3  -4  101.28    1.78
   0   3  -4  103.95    1.71
   0   3  -4  102.78    1.69
   0   3   4  102.61    1.89
   0   3   4  105.20    1.93
   0   3  -4  105.24    2.12
   0   3   4  107.12    1.88
   0   3  -4  103.28    1.98
   0   3   4  105.97    1.87
   0   3  -4  104.86    2.05
  -1  -3  -4    2.78    0.27
  -1  -3  -4    2.65    0.32
  -1  -3  -4    2.60    0.29
   1  -3   4    3.55    0.38
   1  -3   4    2.84    0.35
  -1  -3  -4    2.70    0.34
   1  -3   4    2.45    0.35
   1   3   4    2.68    0.29
   1   3   4    3.22    0.40
  -1   3  -4    2.88    0.35
   1   3   4    3.01    0.32
  -1   3  -4    3.10    0.30
   1   3   4    2.56    0.29
  -1   3  -4    3.12    0.39
  -1   3  -4    2.70    0.39
   1   3   4    3.09    0.39
  -2  -3  -4   16.44    0.66
  -2  -3  -4   16.05    0.62
   2  -3   4   17.78    0.81
   2  -3   4   17.65    0.87
  -2  -3  -4   17.47    0.79
  -2  -3  -4   17.11    0.79
   2  -3   4   16.69    0.86
  -2   3  -4   17.78    0.80
  -2   3  -4   17.36    0.90
  -2   3  -4   16.56    0.69
   2   3   4   18.98    0.98
  -2   3  -4   18.43    0.88
   2   3   4   17.78    0.73
   2   3   4   17.70    0.84
   2   3   4   16.45    0.64
  -3  -3  -4    7.90    0.30
   3  -3   4    8.19    0.78
  -3  -3  -4    7.18    0.31
   3   3   4    7.58    0.25
  -3   3  -4    8.19    0.71
  -3   3  -4    7.65    0.34
   3   3   4    7.38    0.37
   3   3   4    7.28    0.28
  -3   3  -4    7.33    0.33
  -3   3  -4    7.72    0.35
  -3   3  -4    8.31    0.65
  -3   3  -4    6.86    0.32
  -3   3  -4    7.66    0.39
  -3   3  -4    7.97    0.32
   3   3   4    8.25    0.33
  -3   3  -4    7.92    0.46
   3   3   4    7.63    0.32
  -3   3  -4    7.47    0.30
   3   3   4    8.41    0.35
  -3   3  -4    7.93    0.34
  -3   3  -4    7.76    0.32
  -3   3  -4    7.64    0.36
  -4  -3  -4    8.18    0.31
   4  -3   4    7.87    0.37
   4  -3   4    7.69    0.34
  -4  -3  -4    7.11    0.34
  -4   3  -4    7.98    0.33
   4   3   4    8.36    0.31
   4   3   4    7.63    0.33
  -4   3  -4    7.71    0.37
  -4   3  -4    7.29    0.33
  -4   3  -4    8.01    0.37
   4   3   4    7.55    0.36
  -4   3  -4    8.75    0.38
  -4   3  -4    7.42    0.29
   4   3   4    8.41    0.33
   4   3   4    7.57    0.36
   5  -3   4    7.00    0.31
  -5  -3  -4    6.92    0.26
  -5  -3  -4    6.69    0.28
   5  -3   4    6.51    0.26
   5  -3   4    6.81    0.28
  -5  -3  -4    7.03    0.27
   5   3   4    6.61    0.28
  -5   3  -4    6.33    0.28
  -5   3  -4    7.02    0.27
  -5   3  -4    6.31    0.27
   5   3   4    6.92    0.30
   5   3   4    7.13    0.26
  -5  -4   4    8.39    0.27
   5  -4  -4    7.63    0.26
   5  -4  -4    8.10    0.28
  -5   4   4    7.95    0.27
   5   4  -4    8.02    0.25
   5   4  -4    7.90    0.28
   5   4  -4    7.52    0.25
   5   4  -4    7.96    0.23
   5   4  -4    7.84    0.26
   5   4  -4    7.89    0.26
  -5   4   4    7.30    0.27
  -5   4   4    8.45    0.28
   5   4  -4    7.82    0.24
   5   4  -4    7.65    0.25
   4  -4  -4    5.82    0.29
   4  -4  -4    5.94    0.30
   4  -4  -4    5.58    0.32
   4   4  -4    5.69    0.27
   4   4  -4    5.69    0.28
   4   4  -4    5.77    0.25
  -4   4   4    5.44    0.27
  -4   4   4    5.65    0.25
  -4   4   4    5.53    0.27
   4   4  -4    5.45    0.27
   4   4  -4    6.04    0.29
   4   4  -4    5.46    0.22
  -4   4   4    6.36    0.30
   4   4  -4    5.79    0.26
   4   4  -4    5.63    0.27
   4   4  -4    6.06    0.27
   4   4  -4    5.36    0.28
   3  -4  -4    5.79    0.29
   3  -4  -4    5.35    0.45
   3  -4  -4    5.95    0.33
  -3   4   4    5.73    0.28
   3   4  -4    5.50    0.27
  -3   4   4    4.90    0.27
   3   4  -4    5.63    0.28
   3   4  -4    5.74    0.23
  -3   4   4    5.30    0.26
   3   4  -4    5.76    0.26
   3   4  -4    5.63    0.29
  -3   4   4    5.90    0.28
   3   4  -4    5.61    0.26
   3   4  -4    5.73    0.26
   3   4  -4    5.36    0.26
  -3   4   4    5.52    0.28
   3   4  -4    5.62    0.28
   3   4  -4    5.97    0.28
  -2  -4   4    0.38    0.21
   2  -4  -4    0.40    0.24
   2  -4  -4    0.90    0.28
  -2  -4   4    0.74    0.24
   2   4  -4    0.57    0.24
  -2   4   4    0.67    0.25
   2   4  -4    0.57    0.12
  -2   4   4    0.65    0.25
   2   4  -4    0.50    0.23
   2   4  -4    0.50    0.19
   1  -4  -4   17.06    0.74
  -1  -4   4   17.61    0.81
   1  -4  -4   16.65    0.73
   1  -4  -4   18.32    0.85
  -1  -4   4   17.32    0.62
  -1  -4   4   18.13    0.87
   1  -4  -4   17.09    0.68
   1   4  -4   16.32    0.69
   1   4  -4   16.81    0.70
  -1   4   4   17.58    0.81
   1   4  -4   17.59    0.84
  -1   4   4   17.85    0.73
   1   4  -4   17.32    0.75
  -1   4   4   18.28    0.84
  -1   4   4   17.63    0.75
   0  -4  -4   28.89    1.02
   0  -4  -4   29.03    0.86
   0  -4   4   29.79    0.90
   0  -4  -4   29.74    1.02
   0  -4  -4   29.45    1.03
   0  -4   4   29.83    1.06
   0   4  -4   31.35    0.96
   0   4   4   29.45    0.98
   0   4   4   29.84    1.04
   0   4   4   31.16    0.98
   0   4   4   29.86    0.96
   0   4  -4   29.47    0.82
   0   4  -4   29.60    1.10
   0   4  -4   30.52    1.19
   1  -4   4   69.69    1.87
  -1  -4  -4   67.18    1.73
  -1  -4  -4   69.42    1.75
  -1  -4  -4   68.87    1.49
   1  -4   4   70.94    1.59
   1  -4   4   68.75    1.67
  -1   4  -4   67.91    1.94
   1   4   4   67.53    1.77
   1   4   4   68.52    1.66
  -1   4  -4   67.32    1.75
   1   4   4   69.45    1.64
   1   4   4   71.17    1.62
  -1   4  -4   67.66    1.81
   2  -4   4    1.63    0.38
   2  -4   4    1.64    0.36
  -2  -4  -4    1.75    0.35
  -2  -4  -4    1.04    0.24
   2  -4   4    1.38    0.34
   2  -4   4    1.29    0.36
  -2  -4  -4    1.66    0.28
   2   4   4    1.49    0.32
  -2   4  -4    1.72    0.41
  -2   4  -4    1.63    0.39
   2   4   4    1.09    0.18
   2   4   4    1.65    0.42
  -2   4  -4    1.28    0.43
  -3  -4  -4    1.80    0.18
   3   4   4    1.52    0.16
  -3   4  -4    1.47    0.18
   3   4   4    1.84    0.21
  -3   4  -4    1.71    0.20
   3   4   4    1.78    0.20
  -3   4  -4    1.91    0.20
  -3   4  -4    1.74    0.21
   3   4   4    1.58    0.16
  -3   4  -4    1.99    0.23
  -3   4  -4    1.87    0.22
  -3   4  -4    1.51    0.20
   3   4   4    1.64    0.15
   3   4   4    1.80    0.20
  -3   4  -4    1.74    0.18
  -3   4  -4    1.80    0.20
  -3   4  -4    1.82    0.20
  -3   4  -4    1.89    0.22
   3   4   4    1.95    0.20
  -4  -4  -4    2.78    0.24
  -4  -4  -4    3.15    0.21
   4  -4   4    3.01    0.25
  -4   4  -4    3.28    0.25
  -4   4  -4    3.05    0.26
  -4   4  -4    3.00    0.26
   4   4   4    2.82    0.24
   4   4   4    3.16    0.26
  -4   4  -4    2.99    0.22
   4   4   4    3.36    0.23
  -4   4  -4    3.41    0.25
  -4   4  -4    3.89    0.27
   4   4   4    3.17    0.25
  -4   4  -4    3.04    0.27
  -5  -4  -4    0.04    0.06
  -5  -4  -4   -0.02    0.05
   5  -4   4    0.03    0.05
  -5  -4  -4    0.00    0.06
   5  -4   4    0.02    0.06
  -5   4  -4    0.00    0.06
   5   4   4    0.06    0.06
  -5   4  -4   -0.03    0.06
   5   4   4   -0.03    0.05
   5   4   4   -0.06    0.05
   4  -5  -4    4.66    0.24
   4  -5  -4    4.75    0.24
   4  -5  -4    4.29    0.26
   4   5  -4    4.47    0.21
   4   5  -4    4.20    0.21
   4   5  -4    4.06    0.22
   4   5  -4    4.67    0.22
  -4   5   4    4.65    0.23
   4   5  -4    4.68    0.21
  -4   5   4    4.80    0.23
   4   5  -4    4.61    0.23
   4   5  -4    4.59    0.24
   4   5  -4    4.24    0.21
   4   5  -4    4.51    0.23
  -4   5   4    4.61    0.24
   3  -5  -4    7.70    0.32
   3  -5  -4    7.18    0.37
   3   5  -4    7.43    0.32
   3   5  -4    7.04    0.33
   3   5  -4    7.18    0.31
   3   5  -4    7.37    0.30
  -3   5   4    7.25    0.32
   3   5  -4    7.34    0.30
  -3   5   4    6.97    0.32
   3   5  -4    7.47    0.33
   3   5  -4    7.50    0.31
  -3   5   4    7.21    0.33
  -3   5   4    6.80    0.29
   3   5  -4    6.95    0.26
   3   5  -4    7.07    0.29
  -3   5   4    6.97    0.33
   2  -5  -4   15.31    0.53
  -2   5   4   15.04    0.50
   2   5  -4   15.30    0.44
  -2   5   4   15.24    0.45
   2   5  -4   16.10    0.45
  -2   5   4   15.42    0.47
  -2   5   4   14.60    0.47
  -2   5   4   15.32    0.44
   2   5  -4   15.26    0.41
   2   5  -4   16.26    0.50
   2   5  -4   15.52    0.46
  -2   5   4   15.38    0.46
   2   5  -4   16.04    0.48
   2   5  -4   15.37    0.45
  -2   5   4   14.71    0.48
   2   5  -4   15.39    0.46
  -1  -5   4    0.06    0.19
   1   5  -4    0.06    0.10
  -1   5   4   -0.04    0.05
   1   5  -4    0.00    0.05
  -1   5   4    0.07    0.07
  -1   5   4    0.09    0.08
  -1   5   4    0.06    0.06
  -1   5   4    0.03    0.06
   1   5  -4    0.11    0.08
  -1   5   4    0.02    0.06
  -1   5   4    0.01    0.06
  -1   5   4   -0.04    0.17
   1   5  -4   -0.02    0.06
   1   5  -4   -0.01    0.06
   1   5  -4   -0.03    0.06
   1   5  -4    0.03    0.08
   1   5  -4    0.04    0.06
  -1   5   4   -0.01    0.06
   1   5  -4    0.01    0.07
   0  -5  -4    6.18    0.63
   0  -5  -4    5.96    0.55
   0  -5  -4    5.91    0.44
   0  -5   4    7.45    0.77
   0  -5  -4    5.91    0.58
   0  -5   4    5.87    0.52
   0  -5   4    6.50    0.66
   0   5  -4    6.41    0.56
   0   5  -4    7.12    0.73
   0   5   4    6.38    0.66
   0   5   4    6.87    0.65
   0   5   4    5.34    0.57
   0   5  -4    6.34    0.69
  -1  -5  -4   -0.33    0.20
  -1  -5  -4    0.11    0.09
   1   5   4    0.07    0.06
   1   5   4    0.04    0.08
  -1   5  -4    0.13    0.08
  -1   5  -4    0.15    0.08
  -1   5  -4    0.03    0.07
   1   5   4    0.12    0.08
  -1   5  -4    0.02    0.07
  -1   5  -4    0.15    0.08
   1   5   4    0.04    0.08
   1   5   4    0.08    0.07
  -1   5  -4    0.23    0.09
   1   5   4    0.12    0.09
   1   5   4   -0.03    0.07
  -1   5  -4   -0.05    0.07
  -1   5  -4    0.43    0.12
  -1   5  -4    0.13    0.08
  -1   5  -4    0.05    0.09
   1   5   4   -0.06    0.05
   1   5   4    0.13    0.19
   1   5   4    0.01    0.05
   1   5   4   -0.04    0.07
  -2  -5  -4    4.52    0.28
   2   5   4    4.04    0.22
  -2   5  -4    4.10    0.28
   2   5   4    4.08    0.27
   2   5   4    3.93    0.30
  -2   5  -4    4.32    0.31
   2   5   4    4.06    0.20
   2   5   4    4.14    0.21
   2   5   4    3.98    0.29
  -2   5  -4    4.57    0.29
   2   5   4    4.49    0.24
  -2   5  -4    3.87    0.30
   2   5   4    4.46    0.28
  -2   5  -4    4.29    0.32
   2   5   4    4.20    0.29
  -2   5  -4    4.93    0.36
  -2   5  -4    4.53    0.32
  -2   5  -4    4.97    0.38
  -2   5  -4    3.79    0.30
  -2   5  -4    4.24    0.28
  -3  -5  -4    0.89    0.14
  -3   5  -4    0.72    0.13
  -3   5  -4    0.82    0.15
  -3   5  -4    0.92    0.18
  -3   5  -4    1.09    0.18
  -3   5  -4    0.94    0.15
  -3   5  -4    1.08    0.15
  -3   5  -4    0.87    0.15
   3   5   4    0.97    0.15
   3   5   4    1.11    0.16
   3   5   4    0.88    0.11
   3   5   4    0.82    0.15
   3   5   4    1.16    0.14
   3   5   4    0.94    0.13
  -3   5  -4    0.79    0.15
  -3   5  -4    0.91    0.15
  -3   5  -4    0.94    0.16
   3   5   4    0.69    0.13
   4  -5   4    7.42    0.30
  -4  -5  -4    8.02    0.26
  -4  -5  -4    8.34    0.31
   4  -5   4    8.05    0.31
   4   5   4    8.50    0.30
   4   5   4    7.63    0.28
  -4   5  -4    7.96    0.27
  -4   5  -4    8.02    0.30
  -4   5  -4    7.73    0.32
  -4   5  -4    7.63    0.31
   4   5   4    7.78    0.26
  -4   5  -4    7.90    0.32
   4   5   4    8.24    0.30
  -4   5  -4    7.97    0.30
   4  -6  -4    0.46    0.08
  -4  -6   4    0.35    0.06
   4  -6  -4    0.38    0.09
   4  -6  -4    0.47    0.10
  -4   6   4    0.39    0.08
  -4   6   4    0.36    0.07
   4   6  -4    0.36    0.07
   4   6  -4    0.50    0.07
   4   6  -4    0.52    0.08
   4   6  -4    0.34    0.07
   4   6  -4    0.45    0.08
   4   6  -4    0.56    0.09
   4   6  -4    0.47    0.08
   4   6  -4    0.56    0.08
   3  -6  -4    2.14    0.21
   3  -6  -4    2.11    0.17
   3  -6  -4    2.21    0.22
   3   6  -4    2.31    0.18
   3   6  -4    2.25    0.20
   3   6  -4    2.22    0.17
   3   6  -4    2.25    0.19
   3   6  -4    2.38    0.19
   3   6  -4    2.57    0.23
  -3   6   4    2.04    0.17
  -3   6   4    2.05    0.19
  -3   6   4    2.44    0.20
   3   6  -4    2.63    0.21
  -3   6   4    2.53    0.22
  -3   6   4    2.29    0.19
   3   6  -4    2.29    0.19
   2  -6  -4    0.61    0.14
   2  -6  -4    0.51    0.12
   2   6  -4    0.79    0.13
   2   6  -4    0.59    0.11
  -2   6   4    0.86    0.15
   2   6  -4    0.55    0.13
   2   6  -4    0.53    0.10
  -2   6   4    0.86    0.14
  -2   6   4    0.61    0.13
  -2   6   4    0.85    0.13
  -2   6   4    0.73    0.14
  -2   6   4    0.77    0.13
   2   6  -4    0.87    0.15
   2   6  -4    0.57    0.11
   2   6  -4    0.59    0.12
   2   6  -4    0.59    0.13
   1  -6  -4   26.44    0.68
  -1   6   4   26.73    0.60
   1   6  -4   26.10    0.62
   1   6  -4   26.87    0.67
   1   6  -4   25.73    0.60
   1   6  -4   26.19    0.62
   1   6  -4   26.34    0.66
  -1   6   4   26.72    0.63
  -1   6   4   25.32    0.64
  -1   6   4   26.06    0.68
   1   6  -4   26.78    0.66
  -1   6   4   26.30    0.64
  -1   6   4   25.61    0.63
  -1   6   4   26.28    0.68
   1   6  -4   26.51    0.62
   1   6  -4   26.20    0.66
  -1   6   4   25.60    0.65
   0   6   4    1.61    0.19
   0   6  -4    1.63    0.19
   0   6   4    1.23    0.16
   0   6  -4    1.75    0.19
   0   6   4    1.62    0.18
   0   6   4    1.51    0.17
   0   6  -4    1.42    0.18
   0   6   4    1.41    0.19
   0   6  -4    1.46    0.17
   0   6  -4    1.37    0.18
   0   6   4    1.60    0.19
   0   6   4    1.76    0.18
   0   6  -4    1.86    0.20
   0   6   4    1.34    0.18
   0   6   4    1.50    0.17
   0   6   4    1.45    0.15
   0   6  -4    1.55    0.18
   0   6   4    1.58    0.17
   0   6  -4    1.81    0.19
   0   6  -4    1.57    0.19
  -1  -6  -4    0.14    0.10
  -1   6  -4    0.12    0.08
  -1   6  -4    0.04    0.08
   1   6   4    0.14    0.08
   1   6   4   -0.04    0.04
  -1   6  -4    0.06    0.07
   1   6   4    0.12    0.08
   1   6   4    0.19    0.09
   1   6   4   -0.08    0.06
   1   6   4    0.02    0.07
  -1   6  -4    0.09    0.08
  -1   6  -4   -0.05    0.06
   1   6   4    0.06    0.08
  -1   6  -4    0.03    0.09
   1   6   4    0.09    0.07
  -1   6  -4    0.04    0.08
  -1   6  -4    0.00    0.08
   1   6   4   -0.01    0.06
  -1   6  -4    0.09    0.08
   1   6   4   -0.04    0.06
  -2  -6  -4    2.80    0.23
  -2   6  -4    2.65    0.24
   2   6   4    2.66    0.18
  -2   6  -4    2.43    0.21
  -2   6  -4    2.69    0.27
  -2   6  -4    2.61    0.23
   2   6   4    2.83    0.21
   2   6   4    2.85    0.21
   2   6   4    2.45    0.22
   2   6   4    3.30    0.27
  -2   6  -4    2.76    0.24
   2   6   4    3.03    0.23
  -2   6  -4    2.96    0.27
   2   6   4    2.42    0.24
   2   6   4    2.73    0.22
  -2   6  -4    2.76    0.26
  -2   6  -4    2.63    0.26
  -2   6  -4    2.71    0.26
   3  -6   4    3.80    0.24
  -3  -6  -4    4.10    0.24
  -3  -6  -4    3.87    0.21
  -3   6  -4    3.68    0.27
   3   6   4    3.65    0.17
  -3   6  -4    3.72    0.24
  -3   6  -4    3.96    0.27
  -3   6  -4    3.84    0.27
   3   6   4    3.34    0.24
  -3   6  -4    3.82    0.27
   3   6   4    3.56    0.18
  -3   6  -4    3.70    0.27
  -3   6  -4    3.59    0.24
   3   6   4    3.43    0.21
   3   6   4    3.77    0.26
  -3   6  -4    3.71    0.25
  -3   6  -4    3.78    0.25
   3   6   4    3.52    0.24
   4  -6   4    0.06    0.08
   4  -6   4    0.12    0.07
  -4  -6  -4    0.18    0.05
  -4  -6  -4    0.13    0.06
  -4   6  -4    0.10    0.06
   4   6   4    0.06    0.05
  -4   6  -4    0.09    0.06
   4   6   4    0.07    0.05
   4   6   4    0.16    0.06
  -4   6  -4    0.16    0.06
  -4   6  -4    0.09    0.07
   3  -7  -4   -0.02    0.07
   3  -7  -4   -0.14    0.05
   3  -7  -4   -0.05    0.06
   3   7  -4    0.00    0.05
   3   7  -4    0.03    0.04
  -3   7   4    0.08    0.05
   3   7  -4    0.04    0.05
   3   7  -4   -0.03    0.05
   3   7  -4    0.03    0.05
   3   7  -4    0.00    0.05
  -3   7   4   -0.04    0.04
   3   7  -4    0.03    0.05
  -3   7   4    0.06    0.06
   2  -7  -4    0.16    0.09
   2  -7  -4    0.24    0.10
   2   7  -4    0.05    0.06
   2   7  -4    0.13    0.06
   2   7  -4    0.23    0.09
  -2   7   4    0.17    0.07
  -2   7   4    0.26    0.09
   2   7  -4    0.18    0.06
  -2   7   4    0.19    0.07
   2   7  -4    0.15    0.07
   2   7  -4    0.14    0.07
   2   7  -4    0.07    0.07
   2   7  -4    0.16    0.08
  -2   7   4    0.18    0.07
   1  -7  -4    4.19    0.25
   1   7  -4    4.30    0.24
   1   7  -4    4.40    0.22
  -1   7   4    4.19    0.21
   1   7  -4    4.37    0.22
   1   7  -4    4.13    0.25
  -1   7   4    4.06    0.27
   1   7  -4    4.28    0.22
   1   7  -4    4.30    0.22
  -1   7   4    4.12    0.22
  -1   7   4    4.18    0.23
  -1   7   4    4.41    0.29
  -1   7   4    4.15    0.28
  -1   7   4    4.26    0.28
   1   7  -4    4.45    0.24
   1   7  -4    4.66    0.25
   0  -7  -4    0.35    0.11
   0   7  -4    0.20    0.09
   0   7   4    0.12    0.08
   0   7   4    0.23    0.10
   0   7   4    0.32    0.11
   0   7   4    0.40    0.08
   0   7  -4    0.28    0.09
   0   7  -4    0.30    0.09
   0   7   4    0.16    0.07
   0   7   4    0.17    0.08
   0   7   4    0.32    0.09
   0   7   4    0.34    0.10
   0   7  -4    0.31    0.08
   0   7  -4    0.23    0.09
   0   7   4    0.19    0.08
   0   7  -4    0.38    0.11
   0   7  -4    0.22    0.10
   0   7  -4    0.31    0.10
   0   7  -4    0.15    0.09
  -1  -7  -4    3.59    0.24
   1   7   4    2.77    0.22
  -1   7  -4    3.11    0.24
  -1   7  -4    3.39    0.24
  -1   7  -4    3.10    0.25
   1   7   4    2.72    0.21
   1   7   4    3.44    0.27
   1   7   4    2.88    0.20
   1   7   4    2.91    0.23
  -1   7  -4    3.32    0.26
   1   7   4    3.18    0.21
  -1   7  -4    2.87    0.24
   1   7   4    3.21    0.22
   1   7   4    3.10    0.16
   1   7   4    3.41    0.22
  -1   7  -4    3.56    0.25
  -1   7  -4    3.00    0.22
  -1   7  -4    3.27    0.23
  -1   7  -4    3.45    0.24
  -2  -7  -4    0.71    0.11
  -2  -7  -4    0.85    0.12
   2   7   4    0.70    0.10
   2   7   4    0.81    0.11
  -2   7  -4    0.98    0.13
  -2   7  -4    0.87    0.13
  -2   7  -4    1.04    0.15
   2   7   4    0.75    0.12
  -2   7  -4    0.92    0.15
  -2   7  -4    0.70    0.12
  -2   7  -4    1.24    0.14
   2   7   4    0.83    0.13
  -2   7  -4    1.13    0.14
   2   7   4    0.81    0.11
   2   7   4    0.66    0.10
   2   7   4    0.88    0.10
   2   7   4    0.89    0.12
  -2   7  -4    0.90    0.13
   3  -7   4    3.06    0.18
  -3  -7  -4    3.22    0.17
  -3  -7  -4    2.76    0.14
  -3   7  -4    3.15    0.16
  -3   7  -4    2.93    0.17
  -3   7  -4    3.27    0.15
  -3   7  -4    3.29    0.15
   3   7   4    3.20    0.18
  -3   7  -4    3.13    0.15
   3   7   4    2.88    0.15
  -3   7  -4    3.08    0.17
  -3   7  -4    3.02    0.16
   3   7   4    3.19    0.16
  -3   7  -4    3.18    0.15
   1  -8  -4    0.25    0.08
   1   8  -4    0.15    0.05
   1   8  -4    0.29    0.06
   1   8  -4    0.20    0.06
  -1   8   4    0.25    0.07
   1   8  -4    0.26    0.06
   1   8  -4    0.23    0.06
  -1   8   4    0.28    0.08
  -1   8   4    0.28    0.06
   1   8  -4    0.24    0.07
  -1   8   4    0.28    0.06
   1   8  -4    0.29    0.07
   0  -8  -4    2.42    0.17
   0  -8  -4    2.66    0.17
   0   8   4    2.24    0.16
   0   8   4    2.96    0.20
   0   8   4    2.50    0.18
   0   8  -4    2.52    0.17
   0   8   4    2.62    0.14
   0   8  -4    2.81    0.18
   0   8  -4    2.46    0.15
   0   8   4    2.57    0.13
   0   8  -4    2.49    0.17
   0   8   4    2.72    0.14
   0   8  -4    2.54    0.14
   0   8  -4    2.67    0.17
   0   8  -4    2.60    0.14
  -1  -8  -4    0.10    0.07
  -1  -8  -4    0.25    0.07
   1   8   4    0.22    0.07
  -1   8  -4    0.18    0.07
  -1   8  -4    0.23    0.06
   1   8   4    0.24    0.06
  -1   8  -4    0.25    0.08
  -1   8  -4    0.33    0.07
   1   8   4    0.28    0.07
   1   8   4    0.20    0.06
  -1   8  -4    0.17    0.08
  -1   8  -4    0.17    0.06
  -1   8  -4    0.35    0.08
  -1   8  -4    0.35    0.08
   1   8   4    0.20    0.06
  -6   0   5    0.07    0.05
   6   0  -5   -0.10    0.05
   6   0  -5   -0.05    0.05
  -6   0   5   -0.02    0.04
   5   0  -5    0.01    0.07
   5   0  -5   -0.02    0.07
  -5   0   5    0.03    0.08
  -5   0   5   -0.10    0.06
   5   0  -5   -0.17    0.06
  -5   0   5   -0.04    0.07
   5   0  -5   -0.02    0.09
   5   0  -5   -0.05    0.07
  -4   0   5    0.03    0.05
   4   0  -5    0.07    0.08
   4   0  -5   -0.03    0.08
   4   0  -5   -0.10    0.05
   4   0  -5   -0.08    0.06
   4   0  -5    0.02    0.06
  -4   0   5   -0.08    0.04
   4   0  -5    0.13    0.08
   3   0  -5   -0.05    0.12
  -3   0   5   -0.04    0.09
   3   0  -5   -0.11    0.14
   3   0  -5   -0.02    0.10
  -3   0   5    0.09    0.07
  -3   0   5   -0.01    0.08
   3   0  -5    0.17    0.22
  -2   0   5    0.02    0.06
  -2   0   5   -0.05    0.06
   2   0  -5   -0.02    0.07
   2   0  -5    0.15    0.10
   2   0  -5    0.08    0.10
   2   0  -5    0.08    0.10
  -2   0   5   -0.21    0.06
   2   0  -5    0.01    0.11
  -2   0   5    0.32    0.11
  -1   0   5    0.04    0.05
   1   0  -5    0.05    0.07
   1   0  -5    0.05    0.07
   1   0  -5    0.25    0.11
   1   0  -5    0.09    0.07
   1   0  -5    0.08    0.08
  -1   0   5    0.02    0.04
  -1   0   5    0.02    0.04
  -1   0   5   -0.05    0.04
   0   0  -5    0.00    0.06
   0   0  -5   -0.01    0.06
   0   0  -5   -0.05    0.07
   0   0   5    0.05    0.06
   0   0   5   -0.02    0.06
   0   0  -5    0.05    0.08
   0   0  -5   -0.01    0.06
   0   0  -5    0.00    0.07
   0   0   5    0.09    0.04
   0   0   5   -0.02    0.04
  -1   0  -5   -0.08    0.06
   1   0   5    0.01    0.06
   1   0   5    0.00    0.06
   1   0   5    0.05    0.06
   1   0   5    0.02    0.08
  -1   0  -5    0.08    0.09
  -1   0  -5   -0.06    0.06
  -1   0  -5   -0.07    0.07
   1   0   5    0.01    0.06
  -1   0  -5   -0.03    0.08
   1   0   5    0.06    0.08
  -2   0  -5   -0.11    0.09
  -2   0  -5    0.14    0.08
   2   0   5    0.08    0.09
  -2   0  -5   -0.02    0.11
   2   0   5    0.02    0.10
   2   0   5   -0.08    0.07
  -2   0  -5   -0.02    0.08
   2   0   5   -0.03    0.13
  -2   0  -5   -0.07    0.08
   2   0   5   -0.08    0.11
   3   0   5    0.00    0.26
  -3   0  -5    0.01    0.13
  -3   0  -5    0.01    0.22
   3   0   5    0.22    0.09
  -3   0  -5   -0.21    0.11
   3   0   5   -0.01    0.14
   4   0   5   -0.14    0.07
  -4   0  -5    0.04    0.08
  -4   0  -5    0.00    0.07
   4   0   5   -0.10    0.07
   4   0   5    0.02    0.09
   4   0   5    0.02    0.08
  -4   0  -5    0.05    0.07
  -5   0  -5    0.00    0.08
  -5   0  -5    0.04    0.08
  -5   0  -5   -0.05    0.09
   5   0   5    0.05    0.08
   5   0   5    0.02    0.08
   5   0   5   -0.03    0.09
  -6  -1   5   -0.06    0.04
   6  -1  -5    0.03    0.06
  -6  -1   5    0.03    0.05
   6  -1  -5    0.03    0.06
   6   1  -5    0.11    0.07
  -6   1   5    0.04    0.05
   6   1  -5    0.01    0.06
  -6   1   5    0.04    0.05
  -5  -1   5    0.01    0.07
   5  -1  -5   -0.01    0.08
   5  -1  -5    0.11    0.09
  -5  -1   5   -0.03    0.06
   5  -1  -5   -0.01    0.08
  -5   1   5    0.02    0.07
   5   1  -5   -0.03    0.07
  -5   1   5    0.04    0.08
  -5   1   5    0.04    0.05
   5   1  -5   -0.08    0.06
   5   1  -5    0.06    0.08
   5   1  -5    0.04    0.08
  -5   1   5   -0.01    0.07
   5   1  -5    0.02    0.08
  -4  -1   5    0.48    0.10
   4  -1  -5    0.48    0.11
   4  -1  -5    0.38    0.10
   4  -1  -5    0.50    0.12
   4  -1  -5    0.42    0.11
   4  -1  -5    0.22    0.10
   4   1  -5    0.35    0.10
   4   1  -5    0.58    0.11
  -4   1   5    0.42    0.11
   4   1  -5    0.79    0.14
   4   1  -5    0.32    0.09
   4   1  -5    0.49    0.10
   4   1  -5    0.40    0.12
  -4   1   5    0.45    0.10
   4   1  -5    0.47    0.12
   4   1  -5    0.39    0.11
  -4   1   5    0.62    0.12
   4   1  -5    0.52    0.11
  -3  -1   5    0.87    0.21
  -3  -1   5    1.02    0.24
   3  -1  -5    1.16    0.25
  -3  -1   5    0.99    0.21
   3  -1  -5    1.13    0.27
   3  -1  -5    0.92    0.19
   3   1  -5    0.94    0.35
   3   1  -5    1.38    0.35
  -3   1   5    0.97    0.23
  -3   1   5    1.07    0.24
   3   1  -5    0.87    0.27
  -3   1   5    1.19    0.21
   3   1  -5    1.07    0.24
  -2  -1   5    7.74    0.38
   2  -1  -5    7.68    0.44
   2  -1  -5    7.19    0.38
  -2  -1   5    7.16    0.34
  -2  -1   5    7.32    0.37
   2  -1  -5    7.73    0.43
   2  -1  -5    7.65    0.49
   2  -1  -5    7.16    0.42
  -2  -1   5    7.95    0.41
   2   1  -5    7.80    0.44
   2   1  -5    7.62    0.48
  -2   1   5    7.41    0.35
  -2   1   5    6.99    0.39
  -2   1   5    7.15    0.38
   2   1  -5    6.72    0.50
  -2   1   5    6.94    0.39
  -2   1   5    7.86    0.38
   2   1  -5    7.08    0.55
   2   1  -5    7.68    0.35
   1  -1  -5  167.52    2.46
   1  -1  -5  169.06    2.23
   1  -1  -5  166.50    2.61
   1  -1  -5  169.48    2.52
   1  -1  -5  167.92    2.53
  -1  -1   5  163.84    2.35
  -1  -1   5  169.55    2.40
  -1  -1   5  165.07    2.41
  -1  -1   5  168.87    2.40
   1  -1  -5  169.41    2.51
   1   1  -5  167.74    2.38
  -1   1   5  169.26    2.39
  -1   1   5  167.45    2.42
  -1   1   5  166.15    2.39
   1   1  -5  166.66    2.39
   1   1  -5  167.30    2.57
  -1   1   5  171.71    2.39
   1   1  -5  170.44    2.52
   1   1  -5  169.96    2.67
   0  -1   5  355.01    4.74
   0  -1  -5  359.27    4.55
   0  -1   5  353.76    4.57
   0  -1  -5  358.15    4.55
   0  -1  -5  357.77    4.78
   0  -1   5  356.19    4.45
   0  -1   5  363.17    4.41
   0  -1  -5  358.54    4.68
   0  -1  -5  355.32    4.67
   0   1  -5  363.23    4.76
   0   1  -5  351.29    4.62
   0   1   5  355.74    4.66
   0   1   5  355.43    4.50
   0   1  -5  356.37    4.64
   0   1  -5  363.69    4.76
   0   1  -5  361.12    4.67
   0   1   5  357.20    4.73
   0   1  -5  357.10    4.49
   0   1  -5  362.06    4.64
   0   1  -5  359.51    4.55
   0   1   5  351.64    4.57
  -1  -1  -5   -0.02    0.07
   1  -1   5    0.19    0.10
  -1  -1  -5    0.07    0.08
  -1  -1  -5   -0.05    0.06
   1  -1   5    0.04    0.07
   1  -1   5    0.03    0.05
   1  -1   5    0.06    0.08
  -1  -1  -5    0.16    0.10
   1  -1   5    0.04    0.05
   1  -1   5    0.07    0.06
  -1  -1  -5    0.13    0.08
   1   1   5    0.15    0.07
  -1   1  -5   -0.09    0.08
  -1   1  -5    0.16    0.07
   1   1   5   -0.02    0.05
   1   1   5    0.09    0.06
   1   1   5    0.05    0.08
  -1   1  -5    0.05    0.08
   1   1   5   -0.01    0.06
   1   1   5    0.11    0.08
  -1   1  -5    0.06    0.08
  -1   1  -5    0.07    0.08
  -1   1  -5    1.15    0.18
  -2  -1  -5  355.20    4.71
  -2  -1  -5  341.03    4.69
   2  -1   5  335.53    5.00
  -2  -1  -5  343.13    4.77
  -2  -1  -5  338.38    4.89
   2  -1   5  342.45    4.88
  -2  -1  -5  345.86    4.98
   2  -1   5  344.32    5.17
   2  -1   5  350.43    4.95
   2   1   5  340.93    4.93
   2   1   5  349.05    5.26
  -2   1  -5  343.47    4.73
  -2   1  -5  340.12    4.98
   2   1   5  338.72    4.90
  -2   1  -5  342.75    4.72
  -2   1  -5  351.08    5.05
   2   1   5  331.63    4.88
  -2   1  -5  347.66    5.14
  -3  -1  -5   36.37    1.25
   3  -1   5   36.43    1.39
   3  -1   5   35.62    1.23
  -3  -1  -5   35.03    1.24
   3  -1   5   35.65    1.09
   3   1   5   37.89    1.46
  -3   1  -5   35.67    1.03
   3   1   5   33.74    1.25
  -3   1  -5   37.66    1.32
  -3   1  -5   36.10    1.40
  -4  -1  -5    0.59    0.11
  -4  -1  -5    0.79    0.13
   4  -1   5    0.59    0.13
  -4  -1  -5    0.62    0.14
   4  -1   5    0.73    0.16
   4   1   5    0.61    0.12
   4   1   5    0.83    0.14
  -4   1  -5    0.35    0.10
  -4   1  -5    0.75    0.13
  -4   1  -5    0.80    0.15
  -4   1  -5    0.76    0.15
   4   1   5    0.44    0.13
   4   1   5    0.63    0.14
  -5  -1  -5    0.04    0.08
   5  -1   5    0.29    0.11
   5  -1   5    0.24    0.11
  -5  -1  -5    0.31    0.10
   5  -1   5    0.25    0.10
  -5  -1  -5    0.31    0.10
   5   1   5    0.21    0.09
  -5   1  -5    0.32    0.11
   5   1   5    0.32    0.12
  -5   1  -5    0.15    0.09
  -5   1  -5    0.27    0.11
   5   1   5    0.20    0.09
   5  -2  -5    0.71    0.12
  -5  -2   5    0.83    0.13
   5  -2  -5    1.07    0.17
   5  -2  -5    0.80    0.14
  -5   2   5    1.00    0.14
  -5   2   5    1.01    0.14
   5   2  -5    1.17    0.15
   5   2  -5    0.99    0.14
   5   2  -5    0.84    0.12
   5   2  -5    0.77    0.13
  -5   2   5    0.99    0.14
   5   2  -5    1.13    0.16
   5   2  -5    1.04    0.13
   5   2  -5    1.04    0.13
   4  -2  -5   55.67    1.02
   4  -2  -5   54.84    1.09
   4  -2  -5   54.53    1.05
   4   2  -5   55.33    1.03
  -4   2   5   53.95    1.04
   4   2  -5   55.48    1.12
   4   2  -5   55.55    1.00
   4   2  -5   55.75    0.97
   4   2  -5   54.37    0.99
   4   2  -5   55.00    0.98
  -4   2   5   54.57    1.03
  -4   2   5   53.11    0.97
  -4   2   5   56.11    1.00
   4   2  -5   56.13    1.00
   4   2  -5   54.68    1.03
   4   2  -5   54.46    1.00
   4   2  -5   55.87    1.08
   4   2  -5   54.89    0.97
   3  -2  -5    0.06    0.20
   3  -2  -5    0.18    0.21
  -3  -2   5    0.26    0.05
   3  -2  -5    0.10    0.17
  -3  -2   5    0.24    0.16
  -3  -2   5    0.29    0.17
  -3  -2   5    0.11    0.14
   3   2  -5    0.26    0.10
   3   2  -5    0.37    0.19
   3   2  -5    0.20    0.17
  -3   2   5    0.39    0.14
  -3   2   5    0.09    0.10
  -3   2   5    0.07    0.15
   2  -2  -5   18.48    0.81
  -2  -2   5   20.31    0.71
   2  -2  -5   18.20    0.73
   2  -2  -5   18.58    0.65
  -2  -2   5   18.79    0.71
  -2  -2   5   17.98    0.68
   2  -2  -5   18.32    0.73
   2   2  -5   18.86    0.87
   2   2  -5   17.31    0.71
  -2   2   5   18.82    0.67
   2   2  -5   18.43    0.72
  -2   2   5   17.71    0.72
   2   2  -5   17.77    0.67
  -2   2   5   18.47    0.62
  -2   2   5   17.69    0.56
   2   2  -5   19.21    0.66
   1  -2  -5    6.12    0.29
   1  -2  -5    6.04    0.43
  -1  -2   5    6.05    0.35
   1  -2  -5    5.96    0.27
   1  -2  -5    5.45    0.35
  -1  -2   5    5.84    0.31
  -1  -2   5    6.00    0.25
   1  -2  -5    5.63    0.27
   1  -2  -5    6.27    0.40
  -1  -2   5    5.45    0.33
  -1   2   5    6.60    0.35
   1   2  -5    5.63    0.33
   1   2  -5    5.44    0.36
   1   2  -5    5.91    0.33
   1   2  -5    5.60    0.33
  -1   2   5    5.86    0.30
  -1   2   5    5.80    0.32
  -1   2   5    5.34    0.29
   1   2  -5    5.51    0.44
  -1   2   5    7.11    0.33
   1   2  -5    5.82    0.31
   1   2  -5    5.62    0.28
   1   2  -5    6.01    0.42
  -1   2   5    5.98    0.33
   0  -2  -5    7.03    0.34
   0  -2  -5    6.31    0.30
   0  -2  -5    6.83    0.32
   0  -2  -5    6.99    0.39
   0  -2  -5    6.94    0.31
   0  -2  -5    6.16    0.32
   0   2  -5    6.82    0.38
   0   2   5    6.91    0.31
   0   2   5    6.57    0.32
   0   2   5    6.97    0.33
   0   2  -5    6.75    0.27
   0   2  -5    6.80    0.33
   0   2  -5    6.72    0.31
   0   2   5    7.09    0.37
   0   2   5    6.08    0.34
   0   2  -5    6.72    0.39
   0   2  -5    6.98    0.36
   0   2  -5    6.44    0.28
   0   2  -5    6.76    0.34
   0   2   5    6.73    0.26
   0   2  -5    6.78    0.29
   0   2  -5    6.73    0.38
  -1  -2  -5  326.49    4.20
   1  -2   5  326.75    4.39
  -1  -2  -5  327.16    4.38
  -1  -2  -5  326.32    4.56
   1  -2   5  323.91    4.72
   1  -2   5  324.69    4.44
  -1  -2  -5  319.13    4.29
   1  -2   5  324.35    4.43
  -1  -2  -5  321.68    4.53
   1  -2   5  324.26    4.37
   1  -2   5  333.68    4.59
  -1  -2  -5  318.57    4.44
  -1   2  -5  317.93    4.46
  -1   2  -5  329.03    4.74
   1   2   5  324.45    4.32
   1   2   5  322.60    4.43
   1   2   5  318.71    4.33
  -1   2  -5  318.41    4.72
  -1   2  -5  329.65    4.71
   1   2   5  322.54    4.74
   1   2   5  329.22    4.63
  -1   2  -5  323.01    4.43
   2  -2   5  111.36    2.13
   2  -2   5  109.06    2.19
  -2  -2  -5  108.23    2.11
   2  -2   5  110.48    2.36
  -2  -2  -5  107.84    1.94
  -2  -2  -5  111.62    2.19
  -2   2  -5  109.28    2.07
  -2   2  -5  113.67    2.01
   2   2   5  109.85    2.06
  -2   2  -5  112.04    2.40
   2   2   5  110.08    1.96
   2   2   5  110.68    2.24
  -2   2  -5  112.25    2.36
  -2   2  -5  111.70    2.27
   2   2   5  109.94    2.46
   3  -2   5   34.13    1.20
   3  -2   5   31.64    1.19
   3  -2   5   33.96    1.21
  -3  -2  -5   33.37    1.25
   3  -2   5   33.19    1.31
  -3  -2  -5   31.86    1.22
   3   2   5   32.90    1.20
   3   2   5   32.84    1.12
  -3   2  -5   31.81    1.35
  -3   2  -5   32.53    1.01
  -3   2  -5   31.66    1.28
   3   2   5   30.55    1.35
  -4  -2  -5    1.62    0.17
   4  -2   5    1.53    0.19
  -4  -2  -5    1.51    0.18
  -4  -2  -5    1.54    0.16
  -4  -2  -5    1.52    0.18
   4  -2   5    1.53    0.20
   4   2   5    1.89    0.20
  -4   2  -5    1.70    0.20
   4   2   5    1.52    0.20
  -4   2  -5    1.94    0.23
  -4   2  -5    1.69    0.20
  -4   2  -5    1.60    0.18
   4   2   5    1.72    0.21
  -4   2  -5    1.61    0.19
  -5  -2  -5   20.41    0.50
  -5  -2  -5   20.78    0.53
  -5  -2  -5   20.82    0.50
   5  -2   5   20.50    0.54
   5  -2   5   21.29    0.55
   5  -2   5   20.43    0.55
   5   2   5   21.48    0.55
  -5   2  -5   19.45    0.53
   5   2   5   20.73    0.57
  -5   2  -5   20.81    0.51
   5   2   5   20.55    0.48
  -5   2  -5   19.86    0.53
   5  -3  -5    0.04    0.09
   5  -3  -5   -0.05    0.07
  -5  -3   5    0.17    0.08
   5  -3  -5    0.11    0.08
   5   3  -5    0.07    0.07
   5   3  -5    0.07    0.07
   5   3  -5    0.03    0.06
  -5   3   5    0.21    0.08
   5   3  -5    0.13    0.07
   5   3  -5    0.11    0.06
   5   3  -5    0.14    0.10
  -5   3   5   -0.03    0.05
   5   3  -5   -0.05    0.05
   5   3  -5    0.15    0.07
   5   3  -5    0.15    0.10
   4  -3  -5    0.79    0.15
   4  -3  -5    0.67    0.14
   4  -3  -5    0.44    0.11
   4   3  -5    0.67    0.12
   4   3  -5    0.71    0.12
   4   3  -5    0.72    0.12
  -4   3   5    0.60    0.16
   4   3  -5    0.71    0.12
   4   3  -5    0.92    0.14
   4   3  -5    0.62    0.12
   4   3  -5    0.89    0.16
   4   3  -5    0.62    0.13
  -4   3   5    0.89    0.13
   4   3  -5    0.76    0.13
  -4   3   5    0.75    0.13
  -4   3   5    0.66    0.13
   4   3  -5    0.55    0.11
   3  -3  -5    1.89    0.44
   3  -3  -5    1.70    0.17
   3  -3  -5    1.56    0.19
  -3  -3   5    1.86    0.36
   3  -3  -5    1.52    0.17
   3   3  -5    1.26    0.15
  -3   3   5    1.69    0.18
  -3   3   5    1.29    0.16
   3   3  -5    1.41    0.17
  -3   3   5    1.17    0.39
  -3   3   5    1.77    0.17
   3   3  -5    1.46    0.16
   3   3  -5    1.39    0.17
   3   3  -5    1.57    0.16
   3   3  -5    1.69    0.17
   3   3  -5    1.47    0.17
   3   3  -5    1.65    0.15
   3   3  -5    1.33    0.15
  -2  -3   5   39.49    1.10
   2  -3  -5   38.44    1.19
   2  -3  -5   39.18    1.25
   2  -3  -5   37.67    1.21
  -2  -3   5   39.51    1.17
  -2  -3   5   35.99    1.16
   2   3  -5   37.75    1.05
  -2   3   5   37.04    1.08
   2   3  -5   36.06    1.07
   2   3  -5   38.49    1.31
   2   3  -5   38.53    1.19
  -2   3   5   38.34    1.21
  -2   3   5   37.80    1.03
   1  -3  -5   34.13    0.90
  -1  -3   5   33.62    0.99
  -1  -3   5   33.82    1.05
   1  -3  -5   34.99    0.85
  -1  -3   5   34.08    0.80
   1  -3  -5   35.78    1.01
   1  -3  -5   34.95    1.05
   1  -3  -5   34.88    0.97
   1   3  -5   33.56    0.96
  -1   3   5   35.03    1.03
  -1   3   5   34.78    0.96
   1   3  -5   34.33    0.94
  -1   3   5   34.88    0.91
  -1   3   5   33.85    0.93
   1   3  -5   34.22    0.93
   1   3  -5   34.83    1.05
   1   3  -5   33.41    0.85
   0  -3   5   88.68    1.47
   0  -3  -5   87.27    1.80
   0  -3  -5   84.98    1.57
   0  -3   5   88.28    1.51
   0  -3   5   87.33    1.50
   0  -3   5   87.54    1.82
   0  -3  -5   86.42    1.68
   0  -3   5   87.19    1.65
   0  -3  -5   90.32    1.73
   0  -3   5   87.97    1.72
   0  -3  -5   89.05    1.58
   0   3  -5   88.34    1.87
   0   3  -5   86.56    1.62
   0   3  -5   86.06    1.57
   0   3  -5   85.76    1.50
   0   3   5   88.23    1.75
   0   3   5   89.88    1.67
   0   3   5   89.48    1.75
   0   3  -5   86.15    1.89
   0   3   5   88.92    1.70
   0   3   5   88.74    1.68
   0   3  -5   86.15    1.51
   0   3  -5   89.21    1.78
  -1  -3  -5   75.83    1.65
   1  -3   5   80.24    1.74
   1  -3   5   80.22    1.81
   1  -3   5   79.17    1.53
  -1  -3  -5   81.10    1.54
  -1  -3  -5   79.05    1.67
   1  -3   5   80.71    1.86
  -1  -3  -5   77.86    1.72
   1   3   5   79.56    1.64
  -1   3  -5   78.95    1.58
  -1   3  -5   79.09    1.70
  -1   3  -5   81.52    1.95
  -1   3  -5   80.46    1.88
   1   3   5   80.84    1.84
   1   3   5   78.51    1.77
   1   3   5   75.69    1.57
   2  -3   5    3.36    0.50
   2  -3   5    2.37    0.37
  -2  -3  -5    3.36    0.35
  -2  -3  -5    2.87    0.43
   2  -3   5    3.17    0.41
  -2  -3  -5    3.44    0.36
   2   3   5    2.94    0.36
   2   3   5    3.33    0.45
  -2   3  -5    3.33    0.42
  -2   3  -5    3.60    0.47
   2   3   5    3.32    0.48
  -2   3  -5    3.59    0.52
  -2   3  -5    3.79    0.42
  -3  -3  -5   11.41    0.39
  -3  -3  -5   10.60    0.39
  -3   3  -5   11.35    0.40
   3   3   5   10.86    0.39
   3   3   5   10.88    0.41
   3   3   5   11.32    0.37
   3   3   5   10.82    0.32
  -3   3  -5   10.80    0.37
  -3   3  -5   10.67    0.41
  -3   3  -5   10.79    0.40
  -3   3  -5   11.17    0.37
  -3   3  -5   11.37    0.41
  -3   3  -5   11.51    0.45
  -3   3  -5   10.91    0.43
  -3   3  -5   10.64    0.42
   3   3   5   10.77    0.39
  -3   3  -5   10.87    0.40
  -3   3  -5   11.14    0.40
  -4  -3  -5    1.45    0.16
  -4  -3  -5    1.37    0.15
   4  -3   5    1.49    0.19
  -4  -3  -5    1.43    0.18
   4  -3   5    1.35    0.19
   4   3   5    1.17    0.16
  -4   3  -5    1.59    0.20
  -4   3  -5    1.41    0.19
   4   3   5    1.57    0.21
   4   3   5    1.69    0.19
  -4   3  -5    1.51    0.20
  -4   3  -5    1.49    0.18
   4   3   5    1.58    0.20
  -4   3  -5    1.31    0.17
  -4   3  -5    1.57    0.18
  -5  -3  -5    2.55    0.18
  -5  -3  -5    2.29    0.18
  -5  -3  -5    2.56    0.17
   5  -3   5    2.23    0.19
   5  -3   5    2.41    0.18
   5  -3   5    2.48    0.21
   5   3   5    2.56    0.21
   5   3   5    2.82    0.20
  -5   3  -5    2.24    0.19
  -5   3  -5    2.66    0.19
  -5   3  -5    2.24    0.19
   5   3   5    2.91    0.21
   5  -4  -5    0.01    0.06
   5  -4  -5    0.05    0.07
  -5  -4   5    0.04    0.06
   5   4  -5    0.09    0.06
  -5   4   5   -0.01    0.06
  -5   4   5    0.14    0.06
   5   4  -5    0.11    0.06
   5   4  -5    0.06    0.06
   5   4  -5    0.06    0.05
   5   4  -5    0.07    0.06
   5   4  -5    0.03    0.05
   5   4  -5    0.15    0.07
   5   4  -5    0.11    0.06
   4  -4  -5   27.65    0.65
   4  -4  -5   27.18    0.71
   4  -4  -5   27.06    0.66
  -4   4   5   27.43    0.64
   4   4  -5   26.79    0.60
   4   4  -5   26.97    0.61
   4   4  -5   26.93    0.62
  -4   4   5   26.69    0.60
   4   4  -5   27.82    0.60
   4   4  -5   26.61    0.65
  -4   4   5   26.50    0.63
   4   4  -5   26.56    0.62
   4   4  -5   25.97    0.62
   4   4  -5   27.47    0.65
   4   4  -5   27.36    0.62
   3  -4  -5    8.94    0.36
   3  -4  -5    9.58    0.42
   3   4  -5    9.22    0.36
   3   4  -5    9.19    0.34
  -3   4   5    9.19    0.34
   3   4  -5    9.52    0.34
  -3   4   5    9.10    0.35
   3   4  -5    9.36    0.35
   3   4  -5    9.28    0.35
   3   4  -5    8.96    0.36
   3   4  -5    9.03    0.32
  -3   4   5    9.20    0.36
   3   4  -5    9.31    0.35
   3   4  -5    8.99    0.35
   3   4  -5    9.13    0.29
   2  -4  -5    4.75    0.62
   2  -4  -5    5.01    0.55
  -2  -4   5    5.12    0.57
  -2  -4   5    5.76    0.57
  -2  -4   5    5.89    0.62
   2   4  -5    6.97    0.72
  -2   4   5    7.12    0.72
  -2   4   5    6.00    0.50
   2   4  -5    5.92    0.61
  -2   4   5    5.65    0.51
   2   4  -5    5.41    0.53
   1  -4  -5    4.30    0.44
  -1  -4   5    4.31    0.49
   1  -4  -5    4.01    0.38
   1  -4  -5    3.87    0.47
  -1  -4   5    4.39    0.54
  -1   4   5    3.95    0.47
  -1   4   5    4.00    0.44
   1   4  -5    3.85    0.38
   1   4  -5    4.00    0.43
  -1   4   5    3.60    0.40
   1   4  -5    5.69    0.58
   1   4  -5    3.68    0.41
   0  -4  -5   14.12    0.64
   0  -4  -5   13.67    0.60
   0  -4   5   12.88    0.59
   0  -4   5   14.48    0.74
   0  -4  -5   14.39    0.73
   0  -4  -5   13.26    0.71
   0   4   5   13.51    0.68
   0   4  -5   13.79    0.81
   0   4   5   12.99    0.63
   0   4   5   13.12    0.66
   0   4  -5   13.64    0.58
   0   4   5   13.74    0.69
   0   4  -5   13.41    0.69
   0   4  -5   13.68    0.80
   1  -4   5   45.54    1.35
  -1  -4  -5   45.83    1.34
  -1  -4  -5   44.41    1.38
   1  -4   5   45.91    1.51
  -1  -4  -5   43.71    1.47
  -1  -4  -5   47.66    1.19
  -1   4  -5   45.43    1.41
   1   4   5   46.84    1.32
  -1   4  -5   44.96    1.55
   1   4   5   45.59    1.25
  -1   4  -5   46.19    1.52
   1   4   5   45.30    1.45
  -2  -4  -5   24.05    0.96
   2  -4   5   24.86    1.17
  -2  -4  -5   23.92    1.28
  -2  -4  -5   23.22    0.85
   2  -4   5   24.21    1.13
   2  -4   5   25.31    1.91
   2   4   5   22.40    1.33
   2   4   5   22.16    0.51
  -2   4  -5   22.72    0.60
  -2   4  -5   21.82    0.61
   2   4   5   22.67    0.96
   2   4   5   21.47    0.57
  -2   4  -5   22.49    0.63
   2   4   5   22.68    0.59
  -2   4  -5   21.69    0.56
  -2   4  -5   21.44    0.96
  -2   4  -5   20.81    0.63
   2   4   5   21.61    0.53
  -2   4  -5   23.27    1.38
  -2   4  -5   21.83    0.59
  -2   4  -5   22.36    0.61
  -2   4  -5   21.91    0.63
  -2   4  -5   22.10    0.56
  -2   4  -5   22.72    1.27
  -3  -4  -5    1.05    0.15
  -3  -4  -5    1.11    0.16
  -3   4  -5    0.87    0.17
  -3   4  -5    1.30    0.19
   3   4   5    1.20    0.16
  -3   4  -5    1.24    0.18
  -3   4  -5    0.87    0.16
  -3   4  -5    1.06    0.16
  -3   4  -5    0.89    0.15
   3   4   5    1.31    0.19
   3   4   5    1.28    0.18
  -3   4  -5    0.99    0.17
   3   4   5    1.00    0.15
   3   4   5    0.90    0.12
  -3   4  -5    1.34    0.18
  -3   4  -5    1.00    0.16
  -3   4  -5    1.00    0.16
   3   4   5    1.23    0.13
  -4  -4  -5    1.20    0.14
  -4  -4  -5    1.45    0.15
   4  -4   5    0.81    0.14
  -4  -4  -5    1.02    0.15
  -4   4  -5    1.30    0.15
  -4   4  -5    1.14    0.16
  -4   4  -5    1.42    0.17
   4   4   5    1.24    0.17
  -4   4  -5    1.10    0.17
   4   4   5    0.97    0.14
   4   4   5    0.96    0.15
  -4   4  -5    1.14    0.17
  -4   4  -5    1.33    0.17
  -4   4  -5    1.17    0.18
  -5  -4  -5    0.54    0.09
  -5  -4  -5    0.35    0.07
   5  -4   5    0.37    0.09
   5  -4   5    0.42    0.08
  -5   4  -5    0.51    0.09
   5   4   5    0.44    0.08
   5   4   5    0.36    0.08
  -5   4  -5    0.66    0.10
  -5   4  -5    0.49    0.10
   4  -5  -5    0.10    0.08
   4  -5  -5    0.14    0.08
   4  -5  -5    0.05    0.07
   4   5  -5    0.15    0.07
   4   5  -5    0.10    0.07
  -4   5   5   -0.01    0.06
  -4   5   5    0.01    0.04
   4   5  -5    0.12    0.06
   4   5  -5    0.09    0.07
   4   5  -5    0.12    0.07
  -4   5   5    0.15    0.07
   4   5  -5    0.12    0.07
   4   5  -5    0.00    0.07
   4   5  -5    0.07    0.07
   4   5  -5    0.06    0.07
   3  -5  -5    1.15    0.15
   3  -5  -5    1.61    0.19
   3  -5  -5    1.26    0.19
  -3   5   5    1.77    0.20
  -3   5   5    1.41    0.16
   3   5  -5    1.76    0.18
  -3   5   5    1.52    0.17
   3   5  -5    1.43    0.15
   3   5  -5    1.68    0.15
   3   5  -5    1.48    0.17
   3   5  -5    1.83    0.20
   3   5  -5    1.67    0.17
   3   5  -5    1.49    0.17
   3   5  -5    1.55    0.19
   3   5  -5    1.78    0.19
   2  -5  -5   10.96    0.45
  -2   5   5   10.76    0.39
   2   5  -5   10.66    0.36
   2   5  -5   10.18    0.37
   2   5  -5    9.95    0.33
  -2   5   5   10.32    0.37
  -2   5   5   10.69    0.37
  -2   5   5   10.10    0.39
   2   5  -5   10.15    0.35
   2   5  -5   10.69    0.37
   2   5  -5   10.44    0.39
  -2   5   5   10.11    0.38
   2   5  -5   10.87    0.39
   2   5  -5   10.25    0.37
   1  -5  -5   33.18    0.75
   1  -5  -5   33.17    0.76
   1   5  -5   33.48    0.68
   1   5  -5   32.35    0.68
   1   5  -5   32.67    0.73
  -1   5   5   33.01    0.76
  -1   5   5   33.17    0.70
  -1   5   5   32.44    0.71
  -1   5   5   32.26    0.69
   1   5  -5   32.19    0.73
   1   5  -5   32.84    0.68
   1   5  -5   32.05    0.72
  -1   5   5   33.22    0.73
   1   5  -5   33.49    0.73
   1   5  -5   31.54    0.68
   0  -5  -5    4.23    0.53
   0  -5  -5    3.88    0.51
   0  -5   5    4.55    0.49
   0   5   5    4.26    0.24
   0   5  -5    4.49    0.27
   0   5   5    4.05    0.22
   0   5   5    4.23    0.22
   0   5  -5    5.14    0.58
   0   5  -5    4.36    0.27
   0   5   5    4.67    0.30
   0   5   5    3.60    0.28
   0   5  -5    4.41    0.26
   0   5  -5    4.60    0.29
   0   5  -5    4.85    0.31
   0   5  -5    5.01    0.62
   0   5   5    4.90    0.32
   0   5  -5    4.30    0.30
   0   5   5    4.55    0.29
  -1  -5  -5    0.27    0.11
  -1   5  -5    0.16    0.09
  -1   5  -5    0.15    0.10
  -1   5  -5    0.05    0.08
   1   5   5    0.24    0.09
  -1   5  -5    0.19    0.10
  -1   5  -5    0.19    0.09
  -1   5  -5    0.14    0.09
   1   5   5    0.20    0.10
  -1   5  -5    0.20    0.08
   1   5   5    0.02    0.08
   1   5   5    0.25    0.09
   1   5   5    0.36    0.10
   1   5   5    0.08    0.06
  -1   5  -5    0.25    0.10
   1   5   5    0.18    0.08
   1   5   5    0.07    0.10
  -1   5  -5    0.15    0.08
   1   5   5    0.08    0.07
  -2  -5  -5    3.83    0.27
   2   5   5    3.68    0.28
   2   5   5    4.31    0.20
  -2   5  -5    3.72    0.29
  -2   5  -5    3.96    0.28
   2   5   5    3.98    0.23
  -2   5  -5    4.04    0.32
   2   5   5    4.30    0.22
   2   5   5    3.95    0.31
  -2   5  -5    4.37    0.35
   2   5   5    3.57    0.25
  -2   5  -5    4.10    0.31
  -2   5  -5    4.01    0.30
  -2   5  -5    4.35    0.33
  -2   5  -5    3.87    0.31
  -2   5  -5    4.16    0.28
   2   5   5    4.46    0.33
   2   5   5    3.65    0.27
   3  -5   5    5.63    0.29
  -3  -5  -5    5.99    0.29
  -3  -5  -5    6.11    0.30
  -3   5  -5    5.53    0.30
   3   5   5    6.26    0.31
   3   5   5    5.99    0.36
  -3   5  -5    6.14    0.27
   3   5   5    5.52    0.23
  -3   5  -5    5.66    0.31
   3   5   5    6.21    0.26
  -3   5  -5    5.82    0.32
  -3   5  -5    6.54    0.30
  -3   5  -5    6.07    0.34
  -3   5  -5    5.72    0.31
   3   5   5    5.70    0.29
  -3   5  -5    6.34    0.34
  -3   5  -5    5.69    0.29
   3   5   5    6.53    0.30
  -3   5  -5    5.98    0.30
   4  -5   5    0.38    0.10
  -4  -5  -5    0.40    0.08
  -4  -5  -5    0.32    0.08
  -4  -5  -5    0.44    0.10
   4  -5   5    0.35    0.10
   4   5   5    0.35    0.09
  -4   5  -5    0.59    0.11
  -4   5  -5    0.57    0.11
  -4   5  -5    0.30    0.10
  -4   5  -5    0.39    0.09
  -4   5  -5    0.54    0.10
   4   5   5    0.38    0.09
  -4   5  -5    0.57    0.11
   4   5   5    0.40    0.09
   4  -6  -5    0.37    0.08
   4  -6  -5    0.33    0.07
   4  -6  -5    0.59    0.11
   4   6  -5    0.54    0.08
  -4   6   5    0.32    0.07
   4   6  -5    0.42    0.07
   4   6  -5    0.41    0.07
   4   6  -5    0.34    0.08
   4   6  -5    0.29    0.07
   4   6  -5    0.47    0.08
   4   6  -5    0.32    0.07
  -4   6   5    0.36    0.07
   4   6  -5    0.36    0.05
   3  -6  -5    0.02    0.06
   3  -6  -5    0.01    0.08
   3  -6  -5   -0.05    0.08
   3  -6  -5    0.11    0.08
   3   6  -5    0.08    0.07
   3   6  -5    0.01    0.07
   3   6  -5    0.14    0.07
  -3   6   5    0.05    0.06
   3   6  -5    0.04    0.05
   3   6  -5    0.02    0.07
  -3   6   5    0.01    0.06
  -3   6   5    0.16    0.09
   3   6  -5    0.05    0.06
   3   6  -5    0.07    0.06
   2  -6  -5    0.03    0.09
   2  -6  -5   -0.03    0.08
   2   6  -5   -0.04    0.05
  -2   6   5    0.02    0.07
  -2   6   5    0.03    0.07
   2   6  -5   -0.08    0.05
   2   6  -5    0.01    0.06
   2   6  -5   -0.05    0.06
   2   6  -5   -0.04    0.06
  -2   6   5    0.29    0.09
  -2   6   5    0.05    0.06
  -2   6   5    0.15    0.09
   2   6  -5    0.04    0.07
   2   6  -5    0.13    0.09
  -2   6   5    0.01    0.06
   2   6  -5    0.04    0.07
   1  -6  -5    0.41    0.12
   1   6  -5    0.44    0.11
  -1   6   5    0.33    0.09
  -1   6   5    0.52    0.11
   1   6  -5    0.59    0.11
  -1   6   5    0.36    0.10
   1   6  -5    0.43    0.12
  -1   6   5    0.44    0.12
  -1   6   5    0.54    0.11
  -1   6   5    0.35    0.11
   1   6  -5    0.48    0.10
   1   6  -5    0.37    0.11
  -1   6   5    0.32    0.10
   1   6  -5    0.20    0.09
   1   6  -5    0.44    0.11
   1   6  -5    0.26    0.09
   0  -6  -5   23.75    0.67
   0   6  -5   23.51    0.63
   0   6  -5   23.41    0.63
   0   6   5   23.09    0.61
   0   6  -5   24.01    0.60
   0   6   5   24.09    0.61
   0   6   5   23.55    0.56
   0   6   5   23.56    0.66
   0   6   5   23.89    0.60
   0   6   5   22.56    0.57
   0   6  -5   22.81    0.61
   0   6   5   23.76    0.58
   0   6  -5   23.63    0.58
   0   6  -5   24.29    0.58
   0   6   5   23.24    0.56
   0   6  -5   22.75    0.59
   0   6  -5   23.02    0.63
  -1  -6  -5    0.12    0.09
   1   6   5    0.06    0.08
  -1   6  -5    0.19    0.10
   1   6   5    0.04    0.07
   1   6   5    0.04    0.06
   1   6   5    0.10    0.07
   1   6   5    0.17    0.07
  -1   6  -5    0.08    0.08
  -1   6  -5    0.08    0.07
   1   6   5    0.01    0.08
  -1   6  -5    0.08    0.08
  -1   6  -5    0.06    0.07
  -1   6  -5    0.00    0.07
   1   6   5    0.26    0.11
   1   6   5    0.27    0.10
  -1   6  -5    0.21    0.09
  -1   6  -5    0.16    0.08
  -2  -6  -5    0.43    0.11
  -2   6  -5    0.35    0.11
  -2   6  -5    0.50    0.13
  -2   6  -5    0.42    0.12
   2   6   5    0.44    0.12
  -2   6  -5    0.46    0.11
   2   6   5    0.37    0.11
   2   6   5    0.44    0.09
   2   6   5    0.43    0.11
  -2   6  -5    0.48    0.11
  -2   6  -5    0.41    0.11
  -2   6  -5    0.46    0.14
  -2   6  -5    0.51    0.12
  -2   6  -5    0.62    0.14
   2   6   5    0.51    0.10
   3  -6   5    6.74    0.27
  -3  -6  -5    6.89    0.28
  -3  -6  -5    6.91    0.30
   3   6   5    7.05    0.23
   3   6   5    6.73    0.28
  -3   6  -5    6.71    0.25
  -3   6  -5    7.02    0.30
  -3   6  -5    6.94    0.29
   3   6   5    6.83    0.25
  -3   6  -5    7.01    0.28
  -3   6  -5    6.31    0.30
  -3   6  -5    7.24    0.31
  -3   6  -5    6.89    0.31
  -3   6  -5    6.77    0.30
   3   6   5    6.97    0.28
  -3   6  -5    7.33    0.28
   3   6   5    7.26    0.29
  -4  -6  -5    6.49    0.22
   4  -6   5    6.55    0.25
  -4  -6  -5    6.29    0.18
   4  -6   5    6.63    0.21
  -4   6  -5    6.52    0.22
   4   6   5    6.61    0.21
  -4   6  -5    6.65    0.20
   3  -7  -5    0.32    0.09
   3  -7  -5    0.22    0.08
   3  -7  -5    0.39    0.07
  -3   7   5    0.22    0.06
  -3   7   5    0.31    0.08
   3   7  -5    0.34    0.08
   3   7  -5    0.26    0.05
   3   7  -5    0.37    0.08
   3   7  -5    0.38    0.07
  -3   7   5    0.27    0.06
   3   7  -5    0.48    0.07
   3   7  -5    0.25    0.07
   3   7  -5    0.18    0.06
   2  -7  -5    0.05    0.08
   2  -7  -5   -0.04    0.07
   2  -7  -5   -0.05    0.07
  -2   7   5    0.02    0.07
   2   7  -5   -0.02    0.05
   2   7  -5    0.02    0.05
   2   7  -5   -0.02    0.06
  -2   7   5    0.07    0.06
   2   7  -5   -0.02    0.05
   2   7  -5    0.03    0.06
  -2   7   5    0.06    0.07
   2   7  -5    0.06    0.06
  -2   7   5    0.02    0.05
   2   7  -5    0.04    0.06
   1  -7  -5    0.36    0.11
   1  -7  -5    0.38    0.11
   1   7  -5    0.26    0.08
  -1   7   5    0.24    0.08
  -1   7   5    0.48    0.11
  -1   7   5    0.33    0.10
   1   7  -5    0.23    0.08
   1   7  -5    0.28    0.09
   1   7  -5    0.24    0.09
  -1   7   5    0.25    0.09
   1   7  -5    0.32    0.09
  -1   7   5    0.51    0.10
  -1   7   5    0.37    0.09
   1   7  -5    0.40    0.11
   1   7  -5    0.33    0.09
   0  -7  -5    2.80    0.25
   0   7  -5    3.49    0.24
   0   7   5    3.34    0.22
   0   7  -5    3.21    0.24
   0   7   5    3.38    0.20
   0   7   5    3.14    0.20
   0   7   5    2.96    0.20
   0   7   5    3.39    0.27
   0   7  -5    2.74    0.21
   0   7  -5    3.25    0.25
   0   7   5    3.06    0.23
   0   7   5    3.47    0.24
   0   7  -5    3.50    0.23
   0   7  -5    3.03    0.22
   0   7  -5    3.28    0.24
  -1  -7  -5    4.44    0.24
   1   7   5    4.20    0.29
  -1   7  -5    4.48    0.24
  -1   7  -5    4.46    0.23
   1   7   5    4.94    0.24
  -1   7  -5    4.11    0.26
  -1   7  -5    4.63    0.25
   1   7   5    4.05    0.26
   1   7   5    4.33    0.18
   1   7   5    4.12    0.22
   1   7   5    4.86    0.22
   1   7   5    4.49    0.22
  -1   7  -5    4.31    0.29
  -1   7  -5    4.88    0.26
  -1   7  -5    4.56    0.23
  -1   7  -5    4.42    0.23
  -2  -7  -5    0.27    0.09
  -2  -7  -5    0.28    0.08
   2   7   5    0.21    0.08
   2   7   5    0.45    0.10
  -2   7  -5    0.41    0.09
   2   7   5    0.31    0.08
   2   7   5    0.31    0.07
  -2   7  -5    0.27    0.09
  -2   7  -5    0.24    0.09
  -2   7  -5    0.48    0.12
   2   7   5    0.23    0.07
  -2   7  -5    0.49    0.09
  -2   7  -5    0.41    0.08
  -2   7  -5    0.36    0.09
  -2   7  -5    0.33    0.10
  -2   7  -5    0.23    0.08
   2   7   5    0.26    0.06
  -3  -7  -5    2.31    0.16
   3  -7   5    2.59    0.16
  -3  -7  -5    2.43    0.13
  -3  -7  -5    2.32    0.15
   3   7   5    2.23    0.17
  -3   7  -5    2.38    0.13
  -3   7  -5    2.72    0.15
   3   7   5    2.40    0.15
  -3   7  -5    2.62    0.15
  -3   7  -5    2.40    0.13
  -3   7  -5    2.53    0.14
  -3   7  -5    2.64    0.15
  -3   7  -5    2.75    0.17
   3   7   5    2.71    0.14
   1  -8  -5    0.39    0.08
   1  -8  -5    0.23    0.07
   1   8  -5    0.34    0.07
  -1   8   5    0.41    0.07
   1   8  -5    0.52    0.07
   1   8  -5    0.30    0.06
   1   8  -5    0.45    0.07
   1   8  -5    0.44    0.07
   1   8  -5    0.40    0.09
  -1   8   5    0.33    0.08
   1   8  -5    0.54    0.08
   0  -8  -5    0.61    0.10
   0  -8  -5    0.50    0.09
   0   8  -5    0.67    0.09
   0   8  -5    0.48    0.09
   0   8   5    0.51    0.09
   0   8   5    0.63    0.09
   0   8  -5    0.72    0.08
   0   8  -5    0.65    0.09
   0   8  -5    0.55    0.09
   0   8  -5    0.49    0.08
   0   8   5    0.61    0.09
   0   8  -5    0.53    0.07
  -1  -8  -5    1.34    0.12
  -1  -8  -5    1.37    0.11
  -1   8  -5    1.41    0.11
  -1   8  -5    1.25    0.11
   1   8   5    1.24    0.11
   1   8   5    1.23    0.12
  -1   8  -5    1.29    0.12
  -1   8  -5    1.37    0.12
  -1   8  -5    1.31    0.11
  -1   8  -5    1.32    0.12
   1   8   5    1.47    0.10
  -1   8  -5    1.24    0.11
  -6   0   6    0.06    0.05
   6   0  -6    0.22    0.06
  -6   0   6    0.04    0.05
   6   0  -6    0.08    0.05
   5   0  -6    9.88    0.35
   5   0  -6    9.42    0.32
   5   0  -6   10.56    0.39
   5   0  -6    9.30    0.39
  -5   0   6    9.52    0.35
  -5   0   6    9.52    0.35
   5   0  -6    9.73    0.37
  -5   0   6    9.70    0.34
   4   0  -6    2.55    0.20
   4   0  -6    2.36    0.21
   4   0  -6    2.53    0.26
  -4   0   6    2.87    0.22
   4   0  -6    2.44    0.23
   4   0  -6    2.46    0.23
   4   0  -6    2.62    0.22
   4   0  -6    2.76    0.22
   3   0  -6   32.75    1.26
   3   0  -6   33.05    1.21
  -3   0   6   34.05    1.08
  -3   0   6   32.82    0.92
   3   0  -6   35.14    1.18
  -3   0   6   31.66    0.98
  -3   0   6   32.00    0.95
  -2   0   6   40.80    1.03
   2   0  -6   42.45    1.02
   2   0  -6   42.06    1.12
   2   0  -6   41.01    1.18
  -2   0   6   43.01    0.98
  -2   0   6   41.52    0.95
   2   0  -6   41.40    1.21
  -2   0   6   39.38    0.97
   1   0  -6  240.43    3.42
  -1   0   6  241.44    3.39
   1   0  -6  241.82    3.56
   1   0  -6  239.89    3.38
  -1   0   6  235.08    3.22
  -1   0   6  240.36    3.25
   1   0  -6  242.51    3.57
  -1   0   6  240.78    3.18
   1   0  -6  246.34    3.48
   0   0   6  435.38    5.47
   0   0  -6  441.34    5.81
   0   0  -6  439.66    5.78
   0   0   6  443.21    5.65
   0   0  -6  445.94    5.69
   0   0   6  433.94    5.78
   0   0  -6  442.45    5.56
   0   0  -6  437.21    5.66
   0   0  -6  443.79    5.56
   1   0   6  375.30    4.87
  -1   0  -6  372.66    5.09
   1   0   6  374.25    4.94
   1   0   6  380.23    5.20
  -1   0  -6  372.83    5.16
  -1   0  -6  379.82    4.94
  -1   0  -6  366.46    4.97
  -1   0  -6  374.93    4.96
   1   0   6  383.54    5.22
   1   0   6  367.80    4.93
   1   0   6  377.89    5.04
   2   0   6   22.85    0.73
  -2   0  -6   24.55    0.87
  -2   0  -6   23.51    0.83
   2   0   6   23.35    0.92
   2   0   6   22.84    0.89
  -2   0  -6   22.88    0.81
   2   0   6   22.15    0.73
  -2   0  -6   25.29    0.75
  -3   0  -6   68.37    1.53
   3   0   6   66.16    1.88
  -3   0  -6   69.26    1.84
   3   0   6   68.94    1.99
  -3   0  -6   67.37    1.85
   3   0   6   66.69    1.77
   4   0   6    5.76    0.41
   4   0   6    5.93    0.36
  -4   0  -6    5.28    0.27
   4   0   6    4.80    0.32
  -4   0  -6    4.78    0.27
  -4   0  -6    4.96    0.26
  -4   0  -6    5.15    0.29
  -5   0  -6   -0.12    0.08
  -5   0  -6    0.00    0.09
  -5   0  -6   -0.05    0.08
   5   0   6    0.01    0.09
   5   0   6   -0.08    0.08
   5   0   6    0.06    0.08
   6  -1  -6    0.14    0.06
   6   1  -6    0.26    0.07
   5  -1  -6   -0.02    0.08
   5  -1  -6   -0.03    0.08
  -5  -1   6    0.05    0.08
  -5  -1   6   -0.03    0.06
   5  -1  -6   -0.02    0.09
   5   1  -6    0.04    0.07
   5   1  -6    0.05    0.07
   5   1  -6   -0.09    0.06
  -5   1   6    0.04    0.05
   5   1  -6    0.14    0.08
  -5   1   6    0.05    0.06
  -5   1   6   -0.02    0.07
   5   1  -6    0.02    0.08
   5   1  -6   -0.04    0.07
   4  -1  -6   15.12    0.50
   4  -1  -6   15.36    0.44
   4  -1  -6   15.63    0.45
   4  -1  -6   15.62    0.49
  -4  -1   6   14.80    0.43
   4  -1  -6   15.79    0.51
   4   1  -6   16.17    0.47
   4   1  -6   16.04    0.45
  -4   1   6   15.49    0.44
  -4   1   6   15.93    0.46
   4   1  -6   15.26    0.43
   4   1  -6   15.01    0.43
   4   1  -6   15.50    0.48
   4   1  -6   16.52    0.50
   4   1  -6   15.24    0.49
   4   1  -6   15.61    0.44
   4   1  -6   15.56    0.53
   4   1  -6   15.50    0.43
   4   1  -6   15.54    0.43
   3  -1  -6    1.33    0.27
  -3  -1   6    1.50    0.23
  -3  -1   6    1.41    0.26
   3  -1  -6    1.61    0.33
   3  -1  -6    1.55    0.26
  -3  -1   6    1.65    0.30
   3   1  -6    1.72    0.29
  -3   1   6    1.36    0.27
  -3   1   6    1.63    0.24
  -3   1   6    1.72    0.28
   3   1  -6    2.12    0.40
   3   1  -6    1.32    0.32
   3   1  -6    1.30    0.37
   2  -1  -6  110.40    2.06
   2  -1  -6  109.33    2.04
   2  -1  -6  109.99    2.22
   2  -1  -6  109.49    2.08
  -2  -1   6  108.81    1.95
  -2  -1   6  110.69    1.90
  -2  -1   6  110.17    1.90
   2  -1  -6  108.50    1.94
   2   1  -6  110.58    2.27
   2   1  -6  110.08    2.17
  -2   1   6  111.82    1.87
   2   1  -6  113.72    2.06
  -2   1   6  112.10    1.92
   2   1  -6  110.44    2.12
   2   1  -6  106.85    1.84
  -2   1   6  106.92    1.97
  -2   1   6  111.87    1.91
  -1  -1   6   83.70    1.39
   1  -1  -6   83.96    1.27
  -1  -1   6   84.95    1.39
   1  -1  -6   83.52    1.48
   1  -1  -6   84.82    1.64
   1  -1  -6   83.85    1.54
  -1  -1   6   84.87    1.40
  -1  -1   6   80.34    1.31
   1  -1  -6   82.81    1.56
   1   1  -6   82.45    1.45
   1   1  -6   83.46    1.52
  -1   1   6   84.78    1.41
  -1   1   6   82.99    1.46
  -1   1   6   83.20    1.55
   1   1  -6   84.03    1.56
   1   1  -6   81.34    1.22
  -1   1   6   82.70    1.37
   1   1  -6   83.15    1.61
  -1   1   6   82.35    1.41
   1   1  -6   83.44    1.66
   1   1  -6   82.00    1.44
   0  -1   6  106.74    1.66
   0  -1  -6  105.41    1.84
   0  -1  -6  106.44    1.63
   0  -1  -6  102.12    1.75
   0  -1  -6  105.34    1.61
   0  -1   6  105.84    1.51
   0  -1   6  103.73    1.46
   0  -1  -6  104.18    1.75
   0  -1   6  105.32    1.81
   0   1   6  105.83    1.81
   0   1   6  107.64    1.74
   0   1  -6  103.25    1.64
   0   1  -6  102.67    1.71
   0   1  -6  105.70    1.83
   0   1   6  102.74    1.63
   0   1  -6  106.63    1.72
   0   1   6  103.60    1.64
   0   1   6  105.81    1.55
   0   1  -6  104.82    1.82
   0   1  -6  106.55    1.63
   0   1  -6  103.72    1.71
  -1  -1  -6   41.26    0.88
  -1  -1  -6   40.31    0.88
  -1  -1  -6   42.29    0.92
   1  -1   6   41.03    0.93
  -1  -1  -6   41.09    0.99
  -1  -1  -6   41.70    1.03
   1  -1   6   40.83    0.80
   1  -1   6   40.37    1.02
   1  -1   6   41.80    0.98
   1  -1   6   41.77    1.10
   1  -1   6   42.46    0.90
   1   1   6   41.40    1.10
  -1   1  -6   41.13    0.92
   1   1   6   41.21    0.85
   1   1   6   41.98    1.00
  -1   1  -6   41.39    0.97
  -1   1  -6   41.53    1.07
  -1   1  -6   39.55    1.00
   1   1   6   40.27    0.95
   1   1   6   41.04    0.84
   1   1   6   40.94    0.81
  -1   1  -6   40.30    1.05
   1   1   6   41.11    0.98
   2  -1   6    1.22    0.25
   2  -1   6    1.09    0.33
   2  -1   6    1.03    0.23
  -2  -1  -6    1.20    0.23
  -2  -1  -6    0.69    0.17
  -2  -1  -6    1.17    0.27
   2  -1   6    0.61    0.19
  -2  -1  -6    0.98    0.19
   2   1   6    1.09    0.22
   2   1   6    1.25    0.27
  -2   1  -6    1.15    0.19
  -2   1  -6    0.98    0.20
   2   1   6    1.32    0.23
   2   1   6    1.74    0.31
  -2   1  -6    1.14    0.27
  -2   1  -6    0.96    0.23
   3  -1   6   31.39    1.17
  -3  -1  -6   31.62    1.20
   3  -1   6   30.18    1.34
   3  -1   6   30.25    1.02
  -3  -1  -6   29.77    0.95
  -3  -1  -6   29.88    1.14
   3   1   6   29.91    1.16
  -3   1  -6   30.38    1.23
  -3   1  -6   31.89    1.00
   3   1   6   29.68    1.31
  -3   1  -6   30.77    1.28
  -4  -1  -6    9.65    0.37
  -4  -1  -6    9.43    0.34
   4  -1   6    9.95    0.43
   4  -1   6    9.23    0.38
  -4  -1  -6    9.31    0.40
  -4  -1  -6    9.78    0.35
  -4   1  -6   10.11    0.39
   4   1   6    9.57    0.43
  -4   1  -6    9.84    0.38
  -4   1  -6    9.80    0.39
   4   1   6    9.86    0.37
  -4   1  -6    9.70    0.36
  -4   1  -6    8.59    0.39
   4   1   6    9.95    0.40
   4   1   6    9.24    0.35
  -5  -1  -6    6.01    0.26
   5  -1   6    5.77    0.29
   5  -1   6    5.83    0.30
  -5  -1  -6    6.00    0.29
  -5  -1  -6    5.97    0.27
   5  -1   6    5.69    0.28
   5   1   6    6.14    0.29
  -5   1  -6    5.75    0.29
  -5   1  -6    5.91    0.27
   5   1   6    5.93    0.31
  -5   1  -6    6.08    0.27
   5   1   6    5.94    0.27
  -5  -2   6    0.81    0.11
   5  -2  -6    0.85    0.15
   5  -2  -6    0.61    0.13
   5  -2  -6    0.83    0.12
  -5  -2   6    0.81    0.12
   5   2  -6    0.91    0.13
   5   2  -6    0.58    0.11
   5   2  -6    0.77    0.11
  -5   2   6    0.60    0.11
   5   2  -6    0.60    0.10
   5   2  -6    0.68    0.13
   5   2  -6    0.79    0.14
   5   2  -6    0.68    0.11
   5   2  -6    0.68    0.11
  -5   2   6    0.64    0.09
  -5   2   6    0.74    0.13
   4  -2  -6   29.90    0.71
   4  -2  -6   29.47    0.74
   4  -2  -6   29.36    0.69
   4   2  -6   29.86    0.65
   4   2  -6   29.81    0.64
   4   2  -6   28.91    0.69
   4   2  -6   30.00    0.66
   4   2  -6   29.51    0.65
   4   2  -6   29.82    0.66
   4   2  -6   29.71    0.68
   4   2  -6   28.68    0.63
  -4   2   6   30.19    0.66
  -4   2   6   28.77    0.65
   4   2  -6   29.53    0.72
   4   2  -6   29.31    0.76
   4   2  -6   29.15    0.65
  -4   2   6   29.62    0.68
  -3  -2   6    5.05    0.47
   3  -2  -6    5.65    0.67
  -3  -2   6    4.86    0.49
   3  -2  -6    5.40    0.59
  -3  -2   6    4.87    0.51
  -3   2   6    5.52    0.61
  -3   2   6    4.89    0.43
   3   2  -6    5.06    0.58
   3   2  -6    5.19    0.57
   3   2  -6    4.87    0.55
  -3   2   6    4.52    0.48
  -2  -2   6    0.02    0.08
   2  -2  -6    0.05    0.14
   2  -2  -6   -0.04    0.14
  -2  -2   6    0.02    0.08
  -2  -2   6   -0.01    0.08
  -2  -2   6    0.00    0.08
   2  -2  -6    0.06    0.06
   2  -2  -6    0.09    0.12
   2   2  -6    0.16    0.16
   2   2  -6   -0.04    0.05
  -2   2   6    0.04    0.03
  -2   2   6    0.00    0.09
   2   2  -6    0.00    0.14
  -2   2   6   -0.04    0.08
  -2   2   6   -0.03    0.13
  -1  -2   6  380.39    5.17
   1  -2  -6  390.95    5.04
  -1  -2   6  388.04    5.28
   1  -2  -6  399.89    5.36
   1  -2  -6  390.93    5.43
   1  -2  -6  399.78    5.10
  -1  -2   6  395.54    5.27
   1  -2  -6  391.78    5.47
  -1  -2   6  386.99    5.18
  -1   2   6  396.42    5.25
   1   2  -6  393.23    5.53
  -1   2   6  382.00    5.20
  -1   2   6  401.91    5.25
   1   2  -6  386.77    5.13
   1   2  -6  385.73    5.33
  -1   2   6  378.95    5.21
   1   2  -6  390.95    5.29
   1   2  -6  383.64    4.98
   1   2  -6  393.88    5.22
   1   2  -6  389.16    5.33
   1   2  -6  389.14    5.21
  -1   2   6  390.03    5.23
   0  -2  -6  124.94    2.31
   0  -2  -6  126.48    1.99
   0  -2   6  123.03    2.08
   0  -2   6  124.44    1.89
   0  -2  -6  123.14    1.94
   0  -2  -6  126.47    1.97
   0  -2   6  127.97    1.82
   0  -2  -6  125.30    2.19
   0  -2  -6  122.76    2.04
   0   2  -6  124.45    2.13
   0   2  -6  122.81    2.14
   0   2  -6  124.05    2.18
   0   2  -6  121.84    2.04
   0   2   6  125.73    2.01
   0   2   6  123.74    2.12
   0   2   6  122.26    1.96
   0   2  -6  123.47    1.96
   0   2  -6  124.78    2.15
   0   2  -6  123.20    1.98
   0   2   6  124.02    1.87
   0   2  -6  121.26    1.85
   0   2   6  124.81    2.11
   0   2   6  121.36    1.87
   1  -2   6   11.79    0.50
  -1  -2  -6   11.78    0.48
   1  -2   6   12.20    0.51
   1  -2   6   11.60    0.54
  -1  -2  -6   12.11    0.42
   1  -2   6   11.64    0.60
   1  -2   6   11.59    0.47
  -1  -2  -6   10.81    0.53
   1  -2   6   11.98    0.51
  -1  -2  -6   11.34    0.55
  -1  -2  -6   11.85    0.47
  -1   2  -6   10.89    0.45
   1   2   6   11.77    0.43
  -1   2  -6   11.80    0.59
   1   2   6   11.58    0.45
   1   2   6   12.40    0.57
   1   2   6   11.48    0.63
  -1   2  -6   11.28    0.58
  -1   2  -6   11.96    0.47
   1   2   6   11.59    0.49
  -1   2  -6   11.81    0.59
  -2  -2  -6  946.18   11.92
   2  -2   6  936.63   12.18
  -2  -2  -6  951.41   12.13
   2  -2   6  956.54   12.61
  -2  -2  -6  935.44   12.31
   2  -2   6  925.63   12.30
   2   2   6  930.29   12.71
  -2   2  -6  934.20   12.58
   2   2   6  931.93   12.09
  -2   2  -6  959.15   12.45
  -2   2  -6  942.05   12.54
   2   2   6  963.86   12.37
  -2   2  -6  955.12   12.03
   3  -2   6   42.39    1.43
   3  -2   6   40.90    1.40
   3  -2   6   43.45    2.33
  -3  -2  -6   42.17    0.88
   3  -2   6   44.09    1.42
  -3  -2  -6   43.17    0.86
  -3  -2  -6   44.00    1.78
  -3  -2  -6   42.43    1.45
  -3  -2  -6   41.84    0.83
   3   2   6   39.51    1.29
   3   2   6   40.82    0.84
  -3   2  -6   41.91    0.94
  -3   2  -6   43.23    0.86
   3   2   6   41.67    0.88
  -3   2  -6   44.06    1.24
   3   2   6   45.74    1.45
  -3   2  -6   41.58    1.62
  -3   2  -6   40.23    0.87
  -3   2  -6   41.74    0.88
  -3   2  -6   43.09    1.64
  -3   2  -6   42.24    0.82
   3   2   6   44.39    2.18
  -3   2  -6   41.58    0.90
   4  -2   6    0.72    0.15
  -4  -2  -6    0.87    0.15
  -4  -2  -6    0.62    0.11
  -4  -2  -6    0.74    0.14
   4  -2   6    0.67    0.15
  -4  -2  -6    0.59    0.12
  -4   2  -6    0.99    0.15
  -4   2  -6    0.88    0.15
  -4   2  -6    0.79    0.15
  -4   2  -6    0.84    0.15
   4   2   6    0.54    0.13
   4   2   6    0.70    0.15
   4   2   6    0.85    0.15
  -4   2  -6    0.70    0.13
  -4   2  -6    0.82    0.16
  -5  -2  -6    6.49    0.25
   5  -2   6    6.69    0.30
  -5  -2  -6    6.58    0.26
   5  -2   6    6.80    0.30
   5  -2   6    6.95    0.30
  -5  -2  -6    6.97    0.30
   5   2   6    7.08    0.30
  -5   2  -6    6.97    0.28
   5   2   6    6.39    0.31
   5   2   6    6.23    0.24
  -5   2  -6    6.30    0.29
  -5   2  -6    7.12    0.28
   5  -3  -6    3.75    0.23
   5  -3  -6    3.77    0.22
  -5  -3   6    3.93    0.20
   5  -3  -6    4.72    0.24
   5   3  -6    4.21    0.19
   5   3  -6    4.06    0.26
   5   3  -6    4.06    0.19
   5   3  -6    4.15    0.20
   5   3  -6    4.33    0.20
   5   3  -6    4.58    0.24
   5   3  -6    4.25    0.20
  -5   3   6    4.17    0.21
   5   3  -6    4.05    0.19
   5   3  -6    4.09    0.20
  -5   3   6    3.97    0.21
   4  -3  -6    3.29    0.28
   4  -3  -6    3.65    0.26
   4  -3  -6    3.29    0.27
  -4   3   6    3.85    0.28
   4   3  -6    3.55    0.28
  -4   3   6    3.44    0.24
   4   3  -6    2.68    0.20
   4   3  -6    3.53    0.26
   4   3  -6    3.87    0.27
   4   3  -6    3.17    0.26
   4   3  -6    3.50    0.24
   4   3  -6    3.59    0.30
   4   3  -6    3.93    0.26
   4   3  -6    3.58    0.26
  -4   3   6    4.20    0.29
   3  -3  -6    8.33    0.38
   3  -3  -6    8.24    0.34
   3  -3  -6    7.82    0.32
   3   3  -6    7.86    0.31
   3   3  -6    8.09    0.32
   3   3  -6    8.31    0.32
   3   3  -6    7.31    0.29
  -3   3   6    7.92    0.30
  -3   3   6    7.68    0.32
   3   3  -6    8.09    0.33
   3   3  -6    7.67    0.31
   3   3  -6    7.67    0.29
   3   3  -6    7.84    0.31
  -3   3   6    7.87    0.30
  -3   3   6    7.21    0.31
   3   3  -6    8.25    0.29
   3   3  -6    7.89    0.35
  -2  -3   6    2.43    0.36
   2  -3  -6    1.76    0.33
  -2  -3   6    2.07    0.32
   2  -3  -6    1.75    0.32
   2  -3  -6    2.25    0.38
  -2  -3   6    1.94    0.29
  -2   3   6    2.04    0.30
   2   3  -6    2.11    0.32
   2   3  -6    2.03    0.29
  -2   3   6    2.39    0.36
  -2   3   6    2.39    0.30
   2   3  -6    2.49    0.43
   2   3  -6    1.71    0.32
   1  -3  -6   57.46    1.49
  -1  -3   6   54.59    1.39
  -1  -3   6   55.97    1.38
   1  -3  -6   56.50    1.35
   1  -3  -6   56.12    1.18
  -1  -3   6   53.22    1.33
  -1   3   6   53.90    1.35
   1   3  -6   56.20    1.32
   1   3  -6   54.05    1.19
  -1   3   6   56.20    1.28
   1   3  -6   55.45    1.24
   1   3  -6   57.29    1.27
  -1   3   6   56.14    1.31
   1   3  -6   56.75    1.41
  -1   3   6   57.18    1.31
   0  -3  -6   -0.12    0.09
   0  -3   6    0.00    0.07
   0  -3   6    0.07    0.10
   0  -3  -6    0.07    0.09
   0  -3   6    0.03    0.06
   0  -3  -6    0.07    0.15
   0  -3   6    0.11    0.07
   0  -3   6    0.05    0.08
   0  -3  -6    0.11    0.12
   0   3   6   -0.10    0.13
   0   3  -6    0.03    0.08
   0   3   6   -0.08    0.05
   0   3  -6    0.15    0.14
   0   3  -6    0.14    0.10
   0   3   6    0.05    0.09
   0   3   6    0.22    0.11
   0   3   6    0.12    0.10
   0   3  -6    0.04    0.08
   0   3  -6   -0.03    0.08
   1  -3   6   21.70    0.71
  -1  -3  -6   20.55    0.85
  -1  -3  -6   22.34    0.73
   1  -3   6   21.93    0.76
   1  -3   6   21.07    0.90
   1  -3   6   21.63    0.72
  -1  -3  -6   20.65    0.81
  -1  -3  -6   20.36    0.72
   1  -3   6   20.47    0.82
  -1   3  -6   23.15    0.80
   1   3   6   20.27    0.71
   1   3   6   21.20    0.88
  -1   3  -6   20.62    0.90
  -1   3  -6   21.65    0.77
   1   3   6   20.81    0.91
  -1   3  -6   21.05    0.94
   1   3   6   22.38    0.79
  -2  -3  -6    0.74    0.20
   2  -3   6    0.28    0.24
   2  -3   6    0.98    0.18
   2  -3   6    0.82    0.26
  -2  -3  -6    0.72    0.24
  -2  -3  -6    0.59    0.19
   2   3   6    0.80    0.32
  -2   3  -6    0.75    0.21
  -2   3  -6    0.78    0.34
  -2   3  -6    0.80    0.23
   2   3   6    0.61    0.22
   2   3   6    0.55    0.22
  -3  -3  -6    2.96    0.24
  -3  -3  -6    2.67    0.23
  -3   3  -6    3.05    0.28
   3   3   6    3.02    0.27
  -3   3  -6    2.82    0.24
  -3   3  -6    3.11    0.27
   3   3   6    2.93    0.25
  -3   3  -6    3.66    0.27
  -3   3  -6    3.03    0.26
  -3   3  -6    3.21    0.29
   3   3   6    2.76    0.19
  -3   3  -6    2.85    0.28
   3   3   6    2.68    0.23
  -3   3  -6    2.98    0.26
  -3   3  -6    2.86    0.26
  -3   3  -6    3.10    0.27
  -3   3  -6    3.14    0.24
  -4  -3  -6   -0.04    0.06
  -4  -3  -6    0.07    0.07
   4  -3   6    0.08    0.09
  -4  -3  -6    0.04    0.08
  -4  -3  -6   -0.06    0.08
   4   3   6    0.02    0.07
  -4   3  -6    0.07    0.09
  -4   3  -6    0.01    0.08
   4   3   6   -0.05    0.08
  -4   3  -6    0.02    0.08
  -4   3  -6   -0.04    0.08
   4   3   6    0.13    0.08
   4   3   6    0.02    0.07
  -4   3  -6    0.14    0.09
  -4   3  -6    0.00    0.08
  -5  -3  -6    4.36    0.19
  -5  -3  -6    4.95    0.23
   5  -3   6    4.38    0.22
   5  -3   6    4.73    0.20
   5  -3   6    4.74    0.24
  -5   3  -6    4.17    0.21
  -5   3  -6    4.77    0.21
   5   3   6    4.81    0.23
   5   3   6    4.79    0.20
  -5   3  -6    5.08    0.24
   5   3   6    4.28    0.20
  -5  -4   6    6.72    0.22
   5  -4  -6    6.41    0.24
   5  -4  -6    6.46    0.24
  -5   4   6    6.54    0.23
   5   4  -6    6.34    0.23
   5   4  -6    6.33    0.21
   5   4  -6    6.33    0.21
   5   4  -6    6.61    0.23
   5   4  -6    6.43    0.21
   5   4  -6    6.62    0.22
   5   4  -6    6.60    0.22
  -5   4   6    6.39    0.23
   5   4  -6    6.49    0.22
   4  -4  -6    0.72    0.13
   4  -4  -6    0.81    0.15
   4  -4  -6    0.54    0.13
   4   4  -6    0.68    0.12
   4   4  -6    0.66    0.13
   4   4  -6    1.13    0.15
  -4   4   6    0.95    0.14
  -4   4   6    0.56    0.11
   4   4  -6    0.65    0.11
   4   4  -6    0.70    0.12
   4   4  -6    0.71    0.12
  -4   4   6    0.60    0.12
   4   4  -6    0.61    0.12
   4   4  -6    0.80    0.13
   4   4  -6    0.76    0.13
   3  -4  -6    9.19    0.38
   3  -4  -6    8.99    0.41
   3  -4  -6    8.47    0.35
   3   4  -6    8.43    0.34
   3   4  -6    8.89    0.32
   3   4  -6    8.89    0.36
   3   4  -6    8.84    0.34
   3   4  -6    8.98    0.35
   3   4  -6    8.67    0.33
  -3   4   6    8.23    0.32
   3   4  -6    9.16    0.35
   3   4  -6    8.54    0.32
  -3   4   6    8.51    0.35
   3   4  -6    8.65    0.33
  -3   4   6    8.63    0.33
  -2  -4   6   21.02    0.91
   2  -4  -6   21.43    1.10
  -2  -4   6   20.86    0.93
  -2  -4   6   22.54    0.99
   2  -4  -6   20.12    0.60
   2  -4  -6   20.66    0.56
   2  -4  -6   20.49    0.99
  -2   4   6   20.11    0.52
   2   4  -6   21.23    0.51
  -2   4   6   23.64    1.06
  -2   4   6   20.72    0.82
   2   4  -6   20.48    0.93
   2   4  -6   20.83    0.52
  -2   4   6   20.06    0.52
   2   4  -6   20.92    0.56
   2   4  -6   20.76    0.52
   2   4  -6   21.11    0.53
   2   4  -6   22.69    1.01
   1  -4  -6    4.84    0.55
   1  -4  -6    4.93    0.48
  -1  -4   6    5.08    0.52
  -1  -4   6    5.99    0.59
   1  -4  -6    5.98    0.49
  -1  -4   6    5.78    0.61
   1   4  -6    5.51    0.52
   1   4  -6    6.04    0.49
  -1   4   6    6.16    0.55
  -1   4   6    6.04    0.58
  -1   4   6    5.29    0.55
   1   4  -6    4.79    0.55
   0  -4  -6   15.68    0.72
   0  -4   6   15.23    0.66
   0  -4  -6   14.90    0.76
   0  -4   6   15.32    0.80
   0  -4  -6   14.92    0.66
   0   4   6   14.45    0.72
   0   4   6   14.48    0.68
   0   4   6   14.91    0.66
   0   4  -6   13.81    0.79
   0   4  -6   14.80    0.80
   0   4  -6   15.26    0.85
   0   4  -6   15.52    0.75
   1  -4   6    6.52    0.62
   1  -4   6    5.48    0.63
  -1  -4  -6    6.30    0.50
  -1  -4  -6    4.79    0.51
  -1  -4  -6    5.93    0.57
  -1   4  -6    5.57    0.54
  -1   4  -6    5.42    0.51
  -1   4  -6    6.10    0.65
   1   4   6    5.65    0.49
  -1   4  -6    6.10    0.69
   1   4   6    5.37    0.66
   1   4   6    5.16    0.51
  -2  -4  -6    4.77    0.24
  -2  -4  -6    4.30    0.25
   2   4   6    4.21    0.23
  -2   4  -6    5.05    0.32
   2   4   6    4.37    0.30
  -2   4  -6    4.84    0.29
  -2   4  -6    4.81    0.35
  -2   4  -6    4.57    0.32
   2   4   6    4.94    0.30
   2   4   6    4.36    0.25
  -2   4  -6    4.99    0.33
  -2   4  -6    4.78    0.35
  -2   4  -6    5.25    0.32
   2   4   6    4.84    0.30
  -2   4  -6    4.82    0.32
   2   4   6    4.29    0.20
  -2   4  -6    4.52    0.32
  -2   4  -6    5.31    0.36
  -3  -4  -6    4.82    0.27
  -3  -4  -6    4.66    0.27
  -3   4  -6    5.02    0.32
  -3   4  -6    5.02    0.29
   3   4   6    4.66    0.33
   3   4   6    4.40    0.31
  -3   4  -6    4.37    0.33
  -3   4  -6    4.74    0.33
   3   4   6    4.91    0.32
  -3   4  -6    4.98    0.38
  -3   4  -6    4.71    0.35
   3   4   6    5.02    0.32
  -3   4  -6    5.22    0.34
   3   4   6    4.73    0.21
  -3   4  -6    4.64    0.31
  -3   4  -6    4.76    0.34
  -3   4  -6    4.51    0.31
  -4  -4  -6    3.33    0.21
  -4  -4  -6    3.18    0.22
  -4  -4  -6    3.01    0.24
   4  -4   6    3.87    0.37
   4  -4   6    3.34    0.26
  -4   4  -6    3.59    0.25
  -4   4  -6    3.05    0.26
  -4   4  -6    3.33    0.26
   4   4   6    3.00    0.24
  -4   4  -6    3.48    0.28
  -4   4  -6    3.33    0.24
   4   4   6    3.35    0.24
  -4   4  -6    3.46    0.25
   4   4   6    3.19    0.26
  -4   4  -6    3.13    0.24
  -5  -4  -6    0.00    0.05
   5  -4   6    0.04    0.05
   5  -4   6   -0.03    0.05
  -5  -4  -6    0.04    0.06
   5   4   6   -0.02    0.05
  -5   4  -6   -0.01    0.04
   5   4   6    0.03    0.05
  -5   4  -6    0.00    0.07
   4  -5  -6    0.46    0.11
   4  -5  -6    0.36    0.12
   4  -5  -6    0.43    0.10
   4   5  -6    0.30    0.09
  -4   5   6    0.41    0.10
  -4   5   6    0.47    0.10
   4   5  -6    0.53    0.10
   4   5  -6    0.51    0.09
   4   5  -6    0.52    0.10
   4   5  -6    0.40    0.09
   4   5  -6    0.40    0.08
  -4   5   6    0.34    0.10
   4   5  -6    0.55    0.10
   4   5  -6    0.56    0.10
   4   5  -6    0.32    0.09
   3  -5  -6   -0.09    0.08
   3  -5  -6    0.08    0.09
   3  -5  -6    0.02    0.08
   3   5  -6    0.01    0.06
   3   5  -6    0.15    0.08
   3   5  -6    0.04    0.07
   3   5  -6   -0.01    0.06
   3   5  -6   -0.01    0.06
   3   5  -6    0.05    0.06
   3   5  -6    0.05    0.06
   3   5  -6   -0.06    0.05
   3   5  -6   -0.05    0.06
  -3   5   6   -0.01    0.07
  -3   5   6   -0.03    0.06
  -3   5   6    0.04    0.06
   2  -5  -6    0.90    0.16
   2  -5  -6    0.94    0.17
   2   5  -6    0.96    0.15
  -2   5   6    0.95    0.15
   2   5  -6    1.04    0.14
  -2   5   6    1.15    0.16
   2   5  -6    0.98    0.13
   2   5  -6    0.91    0.14
  -2   5   6    1.05    0.15
  -2   5   6    1.05    0.15
   2   5  -6    0.84    0.13
   2   5  -6    0.99    0.14
   2   5  -6    1.14    0.17
   2   5  -6    0.94    0.12
  -2   5   6    1.41    0.18
   1  -5  -6    6.66    0.33
   1  -5  -6    6.46    0.32
   1   5  -6    6.49    0.30
  -1   5   6    6.65    0.31
  -1   5   6    6.65    0.29
  -1   5   6    6.36    0.29
   1   5  -6    6.43    0.30
  -1   5   6    6.85    0.28
  -1   5   6    6.69    0.32
   1   5  -6    7.09    0.30
   1   5  -6    6.34    0.26
   1   5  -6    6.56    0.28
   1   5  -6    6.68    0.27
   1   5  -6    7.36    0.35
   0  -5  -6   33.06    0.78
   0  -5  -6   33.43    0.74
   0   5   6   33.13    0.74
   0   5   6   32.57    0.70
   0   5   6   32.75    0.69
   0   5   6   33.36    0.78
   0   5  -6   32.42    0.69
   0   5  -6   32.46    0.72
   0   5  -6   33.07    0.74
   0   5  -6   33.33    0.76
   0   5  -6   32.15    0.79
   0   5  -6   33.20    0.69
   0   5   6   33.40    0.67
   0   5  -6   33.00    0.77
   0   5   6   32.36    0.71
  -1  -5  -6   41.41    0.89
  -1   5  -6   40.34    0.91
  -1   5  -6   41.18    0.87
  -1   5  -6   40.70    0.90
  -1   5  -6   42.36    0.92
  -1   5  -6   41.34    0.82
  -1   5  -6   41.09    0.81
  -1   5  -6   40.81    0.89
   1   5   6   41.08    0.85
   1   5   6   41.03    0.88
   1   5   6   40.87    0.81
  -1   5  -6   40.45    0.94
  -1   5  -6   40.81    0.87
   1   5   6   41.19    0.90
   1   5   6   41.26    0.78
  -2  -5  -6    0.48    0.11
  -2  -5  -6    0.41    0.11
   2   5   6    0.23    0.11
  -2   5  -6    0.41    0.12
  -2   5  -6    0.29    0.11
  -2   5  -6    0.46    0.13
  -2   5  -6    0.42    0.14
   2   5   6    0.55    0.14
   2   5   6    0.46    0.09
  -2   5  -6    0.39    0.11
  -2   5  -6    0.47    0.14
  -2   5  -6    0.64    0.15
   2   5   6    0.46    0.11
   2   5   6    0.49    0.12
  -2   5  -6    0.51    0.13
  -2   5  -6    0.54    0.11
   2   5   6    0.43    0.12
  -3  -5  -6   11.12    0.41
  -3  -5  -6   11.06    0.39
  -3   5  -6   11.12    0.42
   3   5   6   10.97    0.40
  -3   5  -6   11.75    0.44
  -3   5  -6   12.16    0.41
  -3   5  -6   11.29    0.46
  -3   5  -6   11.88    0.47
  -3   5  -6   10.81    0.41
   3   5   6   11.49    0.33
  -3   5  -6   11.60    0.43
  -3   5  -6   11.77    0.40
  -3   5  -6   12.17    0.46
   3   5   6   11.51    0.39
   3   5   6   11.26    0.41
  -4  -5  -6    0.95    0.11
   4  -5   6    1.28    0.14
  -4  -5  -6    1.01    0.13
   4  -5   6    1.23    0.14
  -4  -5  -6    1.06    0.11
  -4   5  -6    1.07    0.14
  -4   5  -6    1.30    0.14
  -4   5  -6    1.30    0.13
  -4   5  -6    1.26    0.15
   4   5   6    1.27    0.14
   4   5   6    1.29    0.14
  -4   5  -6    0.91    0.13
  -4   5  -6    0.95    0.12
   4  -6  -6    1.18    0.14
   4  -6  -6    1.18    0.10
   4   6  -6    1.24    0.10
   4   6  -6    1.37    0.12
   4   6  -6    1.21    0.10
  -4   6   6    0.98    0.11
   4   6  -6    1.09    0.09
   4   6  -6    1.17    0.11
   4   6  -6    1.19    0.11
  -4   6   6    1.17    0.10
   4   6  -6    1.24    0.11
   3  -6  -6    1.83    0.17
   3  -6  -6    1.90    0.19
   3  -6  -6    1.92    0.20
   3   6  -6    1.97    0.17
   3   6  -6    2.32    0.20
  -3   6   6    1.91    0.18
  -3   6   6    1.91    0.17
  -3   6   6    2.05    0.17
   3   6  -6    2.25    0.18
   3   6  -6    1.94    0.13
   3   6  -6    2.00    0.16
   3   6  -6    1.85    0.17
   3   6  -6    1.99    0.17
   3   6  -6    2.27    0.17
   2  -6  -6    0.46    0.12
   2  -6  -6    0.31    0.11
   2   6  -6    0.37    0.10
   2   6  -6    0.55    0.11
  -2   6   6    0.37    0.11
  -2   6   6    0.41    0.11
   2   6  -6    0.44    0.11
  -2   6   6    0.61    0.12
   2   6  -6    0.36    0.09
   2   6  -6    0.47    0.09
   2   6  -6    0.70    0.12
   2   6  -6    0.61    0.12
  -2   6   6    0.54    0.12
  -2   6   6    0.64    0.12
   1  -6  -6    0.63    0.14
   1   6  -6    0.64    0.12
  -1   6   6    0.41    0.10
   1   6  -6    0.65    0.11
  -1   6   6    0.65    0.13
  -1   6   6    0.75    0.12
   1   6  -6    0.66    0.13
   1   6  -6    0.74    0.13
   1   6  -6    0.83    0.13
   1   6  -6    0.62    0.11
  -1   6   6    0.51    0.13
  -1   6   6    0.75    0.13
   1   6  -6    0.77    0.14
   0  -6  -6    0.69    0.14
   0  -6  -6    0.42    0.13
   0   6   6    0.52    0.13
   0   6  -6    0.44    0.11
   0   6  -6    0.37    0.10
   0   6  -6    0.44    0.12
   0   6   6    0.37    0.13
   0   6  -6    0.49    0.12
   0   6  -6    0.55    0.12
   0   6   6    0.50    0.11
   0   6   6    0.55    0.12
   0   6  -6    0.51    0.12
   0   6   6    0.51    0.11
   0   6  -6    0.64    0.12
   0   6  -6    0.38    0.10
   0   6   6    0.58    0.12
  -1  -6  -6    0.10    0.09
  -1  -6  -6    0.11    0.09
   1   6   6    0.09    0.09
  -1   6  -6    0.03    0.08
  -1   6  -6    0.04    0.08
   1   6   6    0.07    0.07
  -1   6  -6    0.06    0.08
  -1   6  -6    0.10    0.08
   1   6   6    0.13    0.07
   1   6   6    0.01    0.08
  -1   6  -6    0.00    0.07
   1   6   6    0.12    0.07
  -1   6  -6    0.05    0.07
  -1   6  -6    0.05    0.08
   1   6   6    0.16    0.08
  -1   6  -6    0.04    0.09
  -2  -6  -6    0.52    0.11
  -2  -6  -6    0.54    0.12
  -2   6  -6    0.40    0.12
  -2   6  -6    0.44    0.12
  -2   6  -6    0.77    0.13
  -2   6  -6    0.59    0.14
   2   6   6    0.60    0.12
   2   6   6    0.58    0.13
  -2   6  -6    0.47    0.10
  -2   6  -6    0.56    0.12
   2   6   6    0.38    0.08
   2   6   6    0.64    0.11
  -2   6  -6    0.43    0.12
  -2   6  -6    0.60    0.13
   2   6   6    0.54    0.10
   2   6   6    0.38    0.10
  -2   6  -6    0.40    0.12
  -3  -6  -6    0.88    0.13
  -3  -6  -6    0.62    0.11
  -3   6  -6    0.81    0.13
  -3   6  -6    0.69    0.13
  -3   6  -6    1.17    0.15
  -3   6  -6    0.63    0.12
  -3   6  -6    0.95    0.13
  -3   6  -6    0.62    0.12
   3   6   6    0.77    0.12
  -3   6  -6    0.77    0.13
   3   6   6    0.70    0.11
   3   6   6    0.61    0.09
  -3   6  -6    0.66    0.11
   3   6   6    0.74    0.12
   3  -7  -6    0.42    0.09
   3  -7  -6    0.56    0.09
  -3   7   6    0.44    0.07
   3   7  -6    0.38    0.06
   3   7  -6    0.61    0.07
   3   7  -6    0.62    0.07
   3   7  -6    0.41    0.08
   3   7  -6    0.54    0.08
   3   7  -6    0.58    0.07
  -3   7   6    0.46    0.07
   2  -7  -6    2.96    0.29
   2  -7  -6    2.54    0.21
   2  -7  -6    2.98    0.23
   2   7  -6    2.62    0.15
  -2   7   6    2.38    0.18
   2   7  -6    2.78    0.18
   2   7  -6    2.46    0.18
  -2   7   6    2.63    0.17
   2   7  -6    2.72    0.18
   2   7  -6    2.73    0.18
   2   7  -6    2.91    0.20
  -2   7   6    2.70    0.20
   1  -7  -6   -0.02    0.07
   1  -7  -6    0.03    0.09
   1   7  -6    0.05    0.07
   1   7  -6    0.01    0.06
   1   7  -6   -0.01    0.04
   1   7  -6   -0.04    0.07
   1   7  -6   -0.01    0.05
  -1   7   6    0.12    0.07
  -1   7   6   -0.01    0.07
  -1   7   6    0.01    0.09
   1   7  -6    0.11    0.07
  -1   7   6    0.05    0.07
   1   7  -6   -0.04    0.05
  -1   7   6   -0.02    0.05
   0  -7  -6    1.38    0.16
   0  -7  -6    1.43    0.18
   0   7  -6    1.50    0.15
   0   7   6    1.56    0.17
   0   7  -6    1.42    0.17
   0   7   6    1.15    0.16
   0   7  -6    1.28    0.16
   0   7   6    1.51    0.16
   0   7  -6    1.41    0.16
   0   7   6    1.41    0.14
   0   7   6    1.13    0.12
   0   7  -6    1.51    0.16
   0   7  -6    1.16    0.13
   0   7  -6    1.28    0.14
  -1  -7  -6    1.27    0.16
  -1  -7  -6    1.04    0.16
  -1   7  -6    1.29    0.14
   1   7   6    1.22    0.13
  -1   7  -6    1.21    0.14
   1   7   6    1.10    0.14
  -1   7  -6    1.20    0.14
   1   7   6    1.06    0.15
  -1   7  -6    1.09    0.14
   1   7   6    1.19    0.14
  -1   7  -6    1.16    0.15
  -1   7  -6    1.49    0.18
  -1   7  -6    1.16    0.14
  -1   7  -6    1.23    0.16
  -2  -7  -6    0.79    0.11
  -2  -7  -6    0.78    0.11
  -2   7  -6    0.93    0.11
   2   7   6    0.95    0.11
   2   7   6    0.78    0.10
  -2   7  -6    0.77    0.11
  -2   7  -6    0.90    0.12
  -2   7  -6    0.91    0.14
  -2   7  -6    0.87    0.13
   2   7   6    1.06    0.13
   2   7   6    0.90    0.12
  -2   7  -6    0.94    0.13
  -2   7  -6    0.91    0.10
  -2   7  -6    0.89    0.12
  -2   7  -6    0.89    0.13
   1  -8  -6    0.04    0.06
   1  -8  -6    0.09    0.06
  -1   8   6   -0.06    0.04
  -1   8   6    0.02    0.05
   1   8  -6    0.04    0.05
   1   8  -6   -0.04    0.04
   1   8  -6    0.03    0.05
   0  -8  -6    4.36    0.17
   0  -8  -6    4.56    0.20
   0  -8  -6    4.62    0.20
   0   8  -6    4.33    0.18
   0   8  -6    4.48    0.17
   0   8  -6    4.42    0.16
   0   8  -6    4.44    0.16
   0   8  -6    4.42    0.18
   0   8   6    4.70    0.19
  -1  -8  -6    0.28    0.07
  -1  -8  -6    0.27    0.06
   1   8   6    0.25    0.07
  -1   8  -6    0.22    0.05
  -1   8  -6    0.20    0.06
   1   8   6    0.35    0.07
  -1   8  -6    0.35    0.07
  -1   8  -6    0.25    0.05
  -1   8  -6    0.20    0.06
   5   0  -7   -0.28    0.07
   5   0  -7   -0.01    0.07
  -5   0   7    0.00    0.07
   5   0  -7   -0.07    0.07
   5   0  -7   -0.06    0.06
  -5   0   7   -0.07    0.06
   5   0  -7   -0.05    0.08
   4   0  -7   -0.02    0.08
   4   0  -7    0.01    0.06
   4   0  -7    0.01    0.07
   4   0  -7   -0.08    0.08
  -4   0   7    0.00    0.05
   4   0  -7   -0.05    0.06
   4   0  -7   -0.04    0.06
   4   0  -7    0.07    0.08
  -3   0   7   -0.01    0.09
   3   0  -7   -0.14    0.13
  -3   0   7    0.04    0.09
   3   0  -7   -0.12    0.13
  -3   0   7   -0.03    0.18
  -3   0   7    0.03    0.14
   3   0  -7    0.49    0.27
  -2   0   7   -0.01    0.06
  -2   0   7    0.05    0.10
   2   0  -7    0.05    0.17
  -2   0   7   -0.04    0.06
   2   0  -7    0.32    0.15
   2   0  -7    0.07    0.11
   2   0  -7    0.11    0.15
  -2   0   7    0.01    0.04
   1   0  -7    0.00    0.09
   1   0  -7    0.06    0.11
   1   0  -7   -0.03    0.12
  -1   0   7    0.04    0.06
  -1   0   7   -0.05    0.04
   1   0  -7    0.07    0.05
   1   0  -7    0.07    0.10
   1   0  -7   -0.02    0.08
  -1   0   7    0.01    0.06
  -1   0   7    0.08    0.05
   0   0  -7   -0.04    0.07
   0   0  -7   -0.03    0.07
   0   0   7   -0.01    0.06
   0   0   7    0.33    0.08
   0   0  -7   -0.05    0.07
   0   0  -7   -0.06    0.09
   0   0  -7   -0.06    0.08
   0   0  -7    0.02    0.08
   0   0   7    0.01    0.07
   1   0   7    0.00    0.07
  -1   0  -7   -0.04    0.09
   1   0   7    0.00    0.13
  -1   0  -7    0.07    0.09
  -1   0  -7    0.10    0.15
   1   0   7    0.04    0.09
   1   0   7    0.13    0.10
  -1   0  -7    0.01    0.10
  -1   0  -7    0.08    0.06
   1   0   7   -0.18    0.08
   1   0   7    0.14    0.11
  -3   0  -7   -0.24    0.15
   3   0   7    0.10    0.19
  -3   0  -7    0.02    0.15
   3   0   7   -0.04    0.16
  -3   0  -7   -0.12    0.21
  -4   0  -7   -0.11    0.06
   4   0   7   -0.02    0.07
   4   0   7    0.09    0.09
  -4   0  -7    0.05    0.08
  -4   0  -7    0.01    0.08
   4   0   7    0.05    0.08
  -5   0  -7    0.05    0.09
   5   0   7    0.01    0.08
  -5   0  -7    0.04    0.07
  -5   0  -7    0.01    0.06
   5   0   7   -0.02    0.08
   5   0   7    0.11    0.10
   5  -1  -7    3.15    0.24
   5  -1  -7    2.85    0.23
  -5  -1   7    3.27    0.22
   5  -1  -7    3.19    0.25
   5   1  -7    3.17    0.23
   5   1  -7    3.52    0.27
   5   1  -7    3.29    0.22
  -5   1   7    3.23    0.23
  -5   1   7    2.97    0.21
  -5   1   7    3.32    0.24
   5   1  -7    3.36    0.25
   5   1  -7    3.04    0.21
   5   1  -7    3.06    0.23
   5   1  -7    2.95    0.19
   4  -1  -7    0.67    0.14
   4  -1  -7    0.70    0.13
   4  -1  -7    0.76    0.13
   4  -1  -7    0.70    0.15
   4  -1  -7    1.15    0.16
   4  -1  -7    0.68    0.12
   4   1  -7    0.79    0.11
   4   1  -7    0.84    0.15
   4   1  -7    0.57    0.12
   4   1  -7    0.81    0.14
  -4   1   7    0.98    0.15
   4   1  -7    0.61    0.12
   4   1  -7    0.71    0.12
   4   1  -7    0.68    0.15
   4   1  -7    0.73    0.12
  -4   1   7    0.73    0.12
   4   1  -7    0.87    0.14
   4   1  -7    0.60    0.11
   4   1  -7    0.93    0.14
   3  -1  -7   24.63    0.96
   3  -1  -7   26.30    1.14
  -3  -1   7   24.66    0.87
   3  -1  -7   26.40    1.02
  -3  -1   7   24.54    0.93
  -3  -1   7   24.78    0.86
   3   1  -7   24.90    0.99
  -3   1   7   26.48    0.99
   3   1  -7   24.70    1.13
  -3   1   7   24.39    0.82
  -3   1   7   24.83    0.89
   2  -1  -7    1.69    0.27
   2  -1  -7    1.75    0.27
   2  -1  -7    1.86    0.31
  -2  -1   7    1.96    0.25
   2  -1  -7    2.00    0.27
   2  -1  -7    1.71    0.31
  -2  -1   7    2.03    0.25
  -2  -1   7    2.27    0.28
   2   1  -7    2.05    0.30
  -2   1   7    2.13    0.26
  -2   1   7    1.79    0.25
   2   1  -7    2.07    0.33
  -2   1   7    1.83    0.24
  -2   1   7    1.93    0.27
   2   1  -7    2.12    0.30
   2   1  -7    2.37    0.28
   2   1  -7    1.96    0.34
  -1  -1   7    7.60    0.32
   1  -1  -7    7.79    0.39
   1  -1  -7    8.17    0.31
   1  -1  -7    8.41    0.47
  -1  -1   7    7.49    0.32
  -1  -1   7    7.51    0.34
  -1  -1   7    8.10    0.41
   1  -1  -7    7.77    0.46
   1  -1  -7    8.16    0.41
  -1   1   7    7.52    0.43
   1   1  -7    7.62    0.43
   1   1  -7    6.98    0.43
   1   1  -7    8.08    0.40
  -1   1   7    7.66    0.33
   1   1  -7    8.28    0.46
  -1   1   7    7.42    0.35
   1   1  -7    7.37    0.38
  -1   1   7    7.76    0.36
  -1   1   7    7.40    0.39
   1   1  -7    7.04    0.31
   0  -1  -7  224.61    3.42
   0  -1   7  229.13    3.39
   0  -1  -7  225.93    3.14
   0  -1   7  223.40    3.17
   0  -1   7  226.37    2.97
   0  -1  -7  222.50    3.12
   0  -1  -7  234.31    3.30
   0  -1  -7  224.09    3.32
   0   1  -7  222.13    3.22
   0   1  -7  225.97    3.41
   0   1   7  227.32    3.02
   0   1   7  223.64    3.13
   0   1   7  222.01    3.19
   0   1  -7  227.34    3.28
   0   1  -7  226.52    3.38
   0   1   7  229.46    3.28
   0   1  -7  227.30    3.27
   0   1   7  224.60    3.39
   0   1  -7  219.71    3.13
   1  -1   7    2.55    0.23
   1  -1   7    2.46    0.29
   1  -1   7    2.27    0.29
  -1  -1  -7    2.14    0.22
  -1  -1  -7    2.29    0.29
   1  -1   7    2.33    0.23
  -1  -1  -7    2.54    0.30
   1  -1   7    2.58    0.31
  -1  -1  -7    2.45    0.24
  -1  -1  -7    2.26    0.24
   1  -1   7    2.13    0.25
   1   1   7    2.65    0.24
   1   1   7    2.13    0.27
  -1   1  -7    2.49    0.29
   1   1   7    3.10    0.34
   1   1   7    2.31    0.24
  -1   1  -7    2.87    0.34
   1   1   7    2.41    0.23
   1   1   7    2.21    0.28
  -1   1  -7    2.63    0.26
   1   1   7    1.97    0.28
  -1   1  -7    2.17    0.31
  -1   1  -7    2.21    0.27
   2  -1   7   25.26    1.07
  -2  -1  -7   25.65    0.99
  -2  -1  -7   26.04    0.83
   2  -1   7   25.99    0.93
   2  -1   7   26.28    0.91
  -2  -1  -7   25.49    0.86
  -2  -1  -7   25.15    0.89
   2  -1   7   24.77    0.96
   2   1   7   25.02    0.89
  -2   1  -7   25.72    1.00
  -2   1  -7   26.61    0.85
  -2   1  -7   26.29    1.01
   2   1   7   26.12    0.91
   2   1   7   24.81    0.91
   2   1   7   26.94    1.10
  -2   1  -7   25.82    0.98
  -3  -1  -7    1.28    0.35
  -3  -1  -7    1.76    0.29
   3  -1   7    1.65    0.45
   3  -1   7    1.79    0.38
  -3  -1  -7    1.59    0.19
  -3  -1  -7    1.48    0.24
   3   1   7    1.77    0.23
  -3   1  -7    1.77    0.21
   3   1   7    1.34    0.38
  -3   1  -7    1.77    0.32
  -3   1  -7    1.89    0.43
   3   1   7    1.39    0.33
  -3   1  -7    1.90    0.20
  -3   1  -7    2.09    0.42
  -4  -1  -7    0.31    0.11
  -4  -1  -7    0.14    0.09
   4  -1   7    0.17    0.12
   4  -1   7    0.33    0.10
  -4  -1  -7    0.38    0.10
  -4   1  -7    0.45    0.11
   4   1   7    0.45    0.14
  -4   1  -7    0.45    0.13
  -4   1  -7    0.38    0.11
   4   1   7    0.25    0.10
  -4   1  -7    0.57    0.12
   4   1   7    0.35    0.11
  -4   1  -7    0.46    0.11
   4   1   7    0.44    0.12
   5  -1   7   11.59    0.41
   5  -1   7   11.51    0.37
   5  -1   7   11.25    0.38
  -5  -1  -7   11.53    0.39
  -5  -1  -7   11.35    0.34
   5   1   7   12.02    0.42
  -5   1  -7   11.11    0.34
   5   1   7   11.35    0.35
  -5   1  -7   11.63    0.35
   5   1   7   10.90    0.37
  -5   1  -7   11.65    0.39
   5  -2  -7    2.17    0.18
   5  -2  -7    2.09    0.22
   5  -2  -7    1.70    0.17
  -5  -2   7    2.13    0.17
   5   2  -7    1.86    0.16
   5   2  -7    2.04    0.18
   5   2  -7    2.26    0.19
  -5   2   7    2.31    0.19
   5   2  -7    2.03    0.21
   5   2  -7    2.24    0.19
   5   2  -7    2.22    0.20
   5   2  -7    2.06    0.17
   5   2  -7    1.88    0.16
   5   2  -7    1.93    0.16
  -5   2   7    2.15    0.20
  -5   2   7    2.12    0.17
   4  -2  -7    0.95    0.16
   4  -2  -7    0.75    0.14
   4  -2  -7    0.93    0.16
   4   2  -7    0.62    0.12
   4   2  -7    0.62    0.12
  -4   2   7    0.73    0.13
   4   2  -7    0.82    0.15
   4   2  -7    0.78    0.13
   4   2  -7    0.59    0.10
  -4   2   7    0.84    0.15
   4   2  -7    0.87    0.13
  -4   2   7    0.76    0.12
   4   2  -7    0.85    0.14
   4   2  -7    0.52    0.14
   4   2  -7    0.68    0.13
   4   2  -7    0.67    0.14
   3  -2  -7    7.82    0.73
   3  -2  -7    8.28    0.77
  -3  -2   7    8.71    0.70
  -3  -2   7    6.97    0.60
  -3  -2   7    7.57    0.62
  -3   2   7    7.58    0.69
  -3   2   7    6.40    0.53
   3   2  -7    6.89    0.68
  -3   2   7    7.57    0.54
   3   2  -7    8.09    0.71
   3   2  -7    7.08    0.68
   2  -2  -7   51.52    1.37
  -2  -2   7   51.54    1.28
   2  -2  -7   50.35    1.35
   2  -2  -7   46.33    1.22
  -2  -2   7   52.02    1.23
  -2  -2   7   51.63    1.22
   2  -2  -7   50.27    1.47
   2   2  -7   50.83    1.37
  -2   2   7   50.90    1.20
   2   2  -7   50.34    1.34
   2   2  -7   51.21    1.36
  -2   2   7   52.19    1.27
  -2   2   7   48.30    1.29
  -2   2   7   51.22    1.24
   1  -2  -7   59.01    1.15
  -1  -2   7   57.40    1.17
   1  -2  -7   55.69    1.09
  -1  -2   7   57.31    1.18
   1  -2  -7   56.56    1.36
   1  -2  -7   57.99    1.32
   1  -2  -7   57.28    1.39
  -1  -2   7   57.65    1.21
   1   2  -7   56.13    1.27
   1   2  -7   56.02    1.19
  -1   2   7   55.98    1.21
   1   2  -7   56.12    1.32
  -1   2   7   57.61    1.23
   1   2  -7   57.02    1.44
   1   2  -7   56.69    1.28
   1   2  -7   55.45    1.22
  -1   2   7   56.43    1.24
  -1   2   7   54.34    1.22
   0  -2   7  280.70    3.95
   0  -2  -7  280.31    3.90
   0  -2   7  278.99    3.68
   0  -2  -7  286.50    4.22
   0  -2  -7  276.91    3.88
   0  -2  -7  287.28    3.93
   0  -2   7  277.26    4.06
   0  -2  -7  280.92    4.01
   0  -2   7  283.60    3.83
   0   2  -7  274.00    4.04
   0   2   7  288.75    3.88
   0   2  -7  281.46    4.20
   0   2  -7  266.69    3.82
   0   2   7  280.81    3.95
   0   2   7  279.67    3.82
   0   2   7  275.78    4.13
   0   2  -7  277.64    3.88
   0   2   7  280.03    4.09
   0   2  -7  281.28    4.16
   0   2  -7  275.02    4.09
   0   2  -7  280.38    4.02
  -1  -2  -7   54.45    1.19
   1  -2   7   53.50    1.23
   1  -2   7   51.28    1.23
  -1  -2  -7   53.11    1.33
  -1  -2  -7   52.50    1.09
   1  -2   7   54.07    1.44
   1  -2   7   53.68    1.17
   1  -2   7   54.40    1.28
  -1  -2  -7   53.01    1.30
  -1   2  -7   54.52    1.40
   1   2   7   52.87    1.46
  -1   2  -7   52.80    1.44
  -1   2  -7   51.24    1.21
   1   2   7   52.84    1.19
   1   2   7   53.35    1.18
  -1   2  -7   53.70    1.41
   1   2   7   54.56    1.36
  -2  -2  -7  816.85   10.43
  -2  -2  -7  796.54   10.56
   2  -2   7  809.00   10.81
   2  -2   7  817.47   10.73
  -2  -2  -7  792.68   10.78
   2  -2   7  823.79   11.19
  -2   2  -7  800.69   11.05
  -2   2  -7  821.37   10.54
   2   2   7  802.34   11.28
   2   2   7  814.15   10.86
  -2   2  -7  812.95   11.04
   2   2   7  805.92   10.61
  -2   2  -7  813.21   10.95
  -3  -2  -7  112.70    1.80
  -3  -2  -7  112.94    1.74
  -3  -2  -7  112.71    1.64
  -3  -2  -7  114.96    1.76
  -3   2  -7  115.10    1.74
   3   2   7  112.60    1.82
   3   2   7  114.88    1.75
   3   2   7  114.48    1.74
  -3   2  -7  112.05    1.83
  -3   2  -7  112.14    1.79
  -3   2  -7  115.08    1.72
   3   2   7  114.24    1.80
  -3   2  -7  115.17    1.78
  -3   2  -7  113.56    1.80
  -3   2  -7  113.41    1.85
  -3   2  -7  114.74    1.79
  -3   2  -7  111.60    1.85
  -3   2  -7  114.07    1.75
   4  -2   7    0.61    0.15
  -4  -2  -7    0.60    0.11
   4  -2   7    0.30    0.11
  -4  -2  -7    0.17    0.09
  -4  -2  -7    0.27    0.10
  -4   2  -7    0.57    0.12
  -4   2  -7    0.57    0.13
   4   2   7    0.43    0.11
  -4   2  -7    0.51    0.12
   4   2   7    0.36    0.11
  -4   2  -7    0.57    0.12
  -4   2  -7    0.32    0.11
  -4   2  -7    0.47    0.12
   4   2   7    0.31    0.11
   5  -2   7    1.88    0.18
  -5  -2  -7    2.12    0.16
   5  -2   7    1.84    0.18
   5  -2   7    2.22    0.20
  -5  -2  -7    2.27    0.19
   5   2   7    2.01    0.18
   5   2   7    2.12    0.21
  -5   2  -7    2.23    0.18
   5   2   7    2.12    0.16
  -5   2  -7    2.37    0.20
  -5   2  -7    2.06    0.16
   5  -3  -7   -0.01    0.07
   5  -3  -7    0.01    0.07
   5   3  -7    0.00    0.06
   5   3  -7    0.00    0.05
   5   3  -7    0.05    0.06
   5   3  -7    0.03    0.06
  -5   3   7   -0.06    0.06
   5   3  -7    0.27    0.07
  -5   3   7   -0.02    0.05
  -5   3   7    0.11    0.05
   5   3  -7    0.04    0.06
   5   3  -7   -0.09    0.06
   5   3  -7    0.00    0.08
   4  -3  -7    6.55    0.33
   4  -3  -7    6.24    0.30
   4  -3  -7    6.37    0.33
   4   3  -7    6.39    0.27
   4   3  -7    6.82    0.31
  -4   3   7    6.58    0.29
   4   3  -7    6.56    0.29
   4   3  -7    6.63    0.33
   4   3  -7    6.17    0.26
   4   3  -7    6.30    0.26
   4   3  -7    6.63    0.32
   4   3  -7    6.41    0.28
   4   3  -7    6.23    0.28
   4   3  -7    6.93    0.29
  -4   3   7    6.45    0.28
  -4   3   7    6.10    0.29
   3  -3  -7   26.54    0.65
   3  -3  -7   26.23    0.70
   3  -3  -7   26.12    0.64
   3   3  -7   26.49    0.62
   3   3  -7   26.17    0.64
   3   3  -7   26.10    0.66
   3   3  -7   26.24    0.57
  -3   3   7   26.15    0.59
  -3   3   7   26.35    0.63
   3   3  -7   26.57    0.60
   3   3  -7   26.62    0.64
   3   3  -7   26.77    0.62
   3   3  -7   26.30    0.61
   3   3  -7   26.23    0.60
  -3   3   7   27.23    0.61
  -3   3   7   25.97    0.63
   2  -3  -7    1.25    0.33
  -2  -3   7    1.06    0.24
   2  -3  -7    1.01    0.25
  -2  -3   7    1.40    0.26
   2  -3  -7    1.00    0.28
  -2   3   7    1.07    0.23
   2   3  -7    0.97    0.29
   2   3  -7    1.20    0.26
   2   3  -7    1.08    0.30
  -2   3   7    1.60    0.31
  -2   3   7    1.17    0.26
   1  -3  -7    0.86    0.25
  -1  -3   7    0.88    0.21
   1  -3  -7    0.99    0.15
  -1  -3   7    1.06    0.20
  -1  -3   7    0.82    0.20
   1  -3  -7    0.72    0.21
  -1   3   7    1.12    0.24
   1   3  -7    1.22    0.19
  -1   3   7    0.70    0.19
   1   3  -7    1.00    0.22
   1   3  -7    0.76    0.22
  -1   3   7    1.03    0.21
   1   3  -7    1.03    0.22
   1   3  -7    0.97    0.18
   0  -3   7   51.94    1.29
   0  -3  -7   52.67    1.23
   0  -3  -7   52.34    1.20
   0  -3   7   51.47    1.37
   0  -3  -7   54.15    1.43
   0  -3  -7   51.38    1.24
   0  -3   7   51.40    1.17
   0  -3   7   52.42    1.14
   0  -3   7   51.80    1.18
   0   3   7   49.37    1.20
   0   3   7   51.74    1.38
   0   3   7   54.29    1.58
   0   3  -7   50.63    1.24
   0   3   7   52.74    1.26
   0   3  -7   51.65    1.19
   0   3  -7   50.17    1.40
   0   3  -7   52.38    1.40
   0   3  -7   52.30    1.40
  -1  -3  -7   21.16    0.86
  -1  -3  -7   19.74    0.72
   1  -3   7   21.89    0.78
   1  -3   7   19.73    0.75
   1  -3   7   21.32    0.86
  -1  -3  -7   19.51    0.82
   1  -3   7   20.89    0.73
   1  -3   7   21.71    0.94
  -1   3  -7   22.53    0.99
  -1   3  -7   21.46    1.00
   1   3   7   20.74    0.79
  -1   3  -7   19.19    0.77
  -1   3  -7   20.23    0.92
   1   3   7   20.17    0.84
   1   3   7   21.41    0.93
  -2  -3  -7    0.56    0.20
   2  -3   7    0.66    0.36
  -2  -3  -7    0.65    0.19
   2  -3   7    0.54    0.09
   2  -3   7    0.38    0.22
   2   3   7    0.75    0.30
  -2   3  -7    0.19    0.26
  -2   3  -7    0.42    0.19
   2   3   7    0.47    0.23
  -2   3  -7    0.23    0.29
  -3  -3  -7   25.30    0.62
  -3  -3  -7   23.58    0.61
  -3  -3  -7   24.20    0.63
  -3  -3  -7   23.58    0.53
   3   3   7   24.04    0.63
  -3   3  -7   23.94    0.69
  -3   3  -7   23.51    0.62
  -3   3  -7   23.61    0.60
  -3   3  -7   23.89    0.64
  -3   3  -7   23.89    0.62
   3   3   7   23.68    0.64
  -3   3  -7   23.97    0.65
  -3   3  -7   24.06    0.65
  -3   3  -7   24.07    0.68
  -3   3  -7   25.02    0.65
  -3   3  -7   23.87    0.60
  -3   3  -7   23.90    0.69
   3   3   7   24.21    0.62
  -4  -3  -7   11.49    0.36
   4  -3   7   10.25    0.40
  -4  -3  -7   11.73    0.42
  -4  -3  -7   11.73    0.39
   4   3   7   11.26    0.37
  -4   3  -7   10.47    0.39
  -4   3  -7   10.78    0.41
  -4   3  -7   10.82    0.40
   4   3   7   10.77    0.42
  -4   3  -7   10.81    0.43
  -4   3  -7   10.96    0.38
   4   3   7   10.48    0.38
  -4   3  -7   11.84    0.44
  -4   3  -7   11.10    0.40
   4   3   7   10.36    0.40
   5  -3   7    0.57    0.10
   5  -3   7    0.56    0.11
   5  -3   7    0.72    0.09
  -5  -3  -7    0.53    0.10
  -5  -3  -7    0.54    0.09
   5   3   7    0.79    0.11
  -5   3  -7    0.62    0.10
  -5   3  -7    0.67    0.09
   5   3   7    0.76    0.10
  -5   3  -7    0.74    0.11
   5  -4  -7    1.03    0.11
   5  -4  -7    0.94    0.11
   5   4  -7    1.08    0.11
   5   4  -7    1.14    0.11
   5   4  -7    1.21    0.11
   5   4  -7    1.14    0.11
  -5   4   7    1.20    0.12
   5   4  -7    1.14    0.10
   5   4  -7    1.02    0.10
  -5   4   7    1.14    0.11
   5   4  -7    1.12    0.11
   4  -4  -7    1.22    0.18
   4  -4  -7    1.17    0.16
   4  -4  -7    1.07    0.15
   4   4  -7    1.30    0.16
  -4   4   7    1.25    0.15
   4   4  -7    1.23    0.14
   4   4  -7    1.32    0.14
   4   4  -7    1.08    0.15
   4   4  -7    1.21    0.14
   4   4  -7    1.17    0.16
   4   4  -7    1.24    0.15
  -4   4   7    1.23    0.14
   4   4  -7    1.31    0.15
  -4   4   7    1.45    0.17
   4   4  -7    1.37    0.16
   3  -4  -7   15.12    0.48
   3  -4  -7   16.01    0.54
   3  -4  -7   14.54    0.48
   3   4  -7   16.18    0.46
  -3   4   7   16.87    0.47
   3   4  -7   14.79    0.45
   3   4  -7   15.13    0.44
   3   4  -7   14.71    0.43
   3   4  -7   15.59    0.44
  -3   4   7   15.14    0.47
   3   4  -7   14.61    0.47
   3   4  -7   15.09    0.48
   3   4  -7   15.52    0.47
  -3   4   7   14.38    0.47
  -3   4   7   14.21    0.44
   3   4  -7   15.07    0.42
   2  -4  -7    0.61    0.13
   2  -4  -7    0.67    0.14
   2  -4  -7    0.64    0.12
   2   4  -7    0.55    0.10
  -2   4   7    0.55    0.12
  -2   4   7    0.75    0.13
  -2   4   7    0.59    0.12
   2   4  -7    0.63    0.11
   2   4  -7    0.60    0.11
   2   4  -7    0.62    0.11
   2   4  -7    0.50    0.11
  -2   4   7    0.49    0.12
   2   4  -7    0.67    0.11
   2   4  -7    0.58    0.10
   2   4  -7    0.42    0.10
  -1  -4   7    6.25    0.63
   1  -4  -7    5.69    0.54
   1  -4  -7    5.95    0.48
   1  -4  -7    5.06    0.55
  -1  -4   7    6.60    0.62
  -1   4   7    5.41    0.53
  -1   4   7    5.34    0.54
   1   4  -7    5.56    0.44
   0  -4  -7    7.74    0.69
   0  -4  -7    7.32    0.53
   0  -4   7    7.55    0.57
   0  -4   7    9.55    0.79
   0  -4  -7    7.24    0.45
   0   4  -7    8.02    0.48
   0   4   7    7.40    0.67
   0   4   7    8.86    0.70
   0   4  -7    9.03    0.77
   0   4   7    8.02    0.60
   0   4  -7    9.25    0.79
   1  -4   7   -0.26    0.15
  -1  -4  -7    0.25    0.22
  -1  -4  -7   -0.04    0.12
   1  -4   7   -0.06    0.18
  -1  -4  -7    0.13    0.20
  -1   4  -7   -0.08    0.33
   1   4   7    0.10    0.21
  -1   4  -7   -0.13    0.09
   1   4   7    0.00    0.12
  -1   4  -7   -0.11    0.24
  -2  -4  -7    0.19    0.11
  -2  -4  -7    0.22    0.09
  -2   4  -7    0.20    0.10
  -2   4  -7    0.71    0.13
  -2   4  -7    0.31    0.12
  -2   4  -7    0.20    0.11
   2   4   7    0.30    0.10
   2   4   7    0.29    0.10
  -2   4  -7    0.39    0.11
   2   4   7    0.31    0.09
  -2   4  -7    0.42    0.11
  -2   4  -7    0.32    0.12
  -2   4  -7    0.34    0.10
  -2   4  -7    0.39    0.12
  -2   4  -7    0.46    0.14
   2   4   7    0.27    0.11
  -3  -4  -7    1.97    0.21
  -3  -4  -7    2.20    0.21
  -3  -4  -7    1.86    0.19
  -3   4  -7    1.97    0.21
  -3   4  -7    1.62    0.21
  -3   4  -7    2.23    0.23
  -3   4  -7    1.67    0.20
   3   4   7    1.78    0.19
   3   4   7    1.56    0.19
  -3   4  -7    1.90    0.21
  -3   4  -7    1.96    0.21
   3   4   7    1.80    0.20
  -3   4  -7    1.76    0.19
  -3   4  -7    1.87    0.23
   3   4   7    2.26    0.23
  -3   4  -7    2.26    0.26
  -3   4  -7    1.68    0.21
  -4  -4  -7    0.72    0.14
   4  -4   7    0.69    0.12
  -4  -4  -7    0.53    0.11
  -4  -4  -7    0.59    0.11
   4  -4   7    0.62    0.13
   4   4   7    0.70    0.13
   4   4   7    0.56    0.11
  -4   4  -7    0.65    0.12
  -4   4  -7    0.44    0.11
  -4   4  -7    0.66    0.13
  -4   4  -7    0.74    0.13
  -4   4  -7    0.46    0.15
  -4   4  -7    0.58    0.11
  -4   4  -7    0.60    0.11
  -4   4  -7    0.63    0.14
   4   4   7    0.55    0.12
   4  -5  -7    6.53    0.27
   4  -5  -7    6.73    0.31
   4   5  -7    6.20    0.23
   4   5  -7    6.49    0.23
   4   5  -7    6.35    0.22
  -4   5   7    6.06    0.24
   4   5  -7    6.36    0.25
   4   5  -7    6.29    0.24
   4   5  -7    6.33    0.23
   4   5  -7    6.44    0.26
   4   5  -7    6.51    0.24
  -4   5   7    6.52    0.24
   4   5  -7    6.49    0.24
  -4   5   7    6.71    0.26
   3  -5  -7    5.70    0.30
   3  -5  -7    5.92    0.27
   3  -5  -7    5.52    0.32
   3   5  -7    5.59    0.27
  -3   5   7    5.36    0.27
   3   5  -7    5.36    0.24
   3   5  -7    6.09    0.25
  -3   5   7    5.96    0.26
   3   5  -7    5.69    0.26
   3   5  -7    5.68    0.27
  -3   5   7    5.54    0.27
   3   5  -7    5.41    0.28
   3   5  -7    5.80    0.26
   3   5  -7    5.20    0.25
   2  -5  -7    3.08    0.28
   2  -5  -7    3.53    0.28
   2   5  -7    3.68    0.26
   2   5  -7    3.03    0.22
   2   5  -7    3.15    0.23
   2   5  -7    3.50    0.27
  -2   5   7    3.59    0.28
  -2   5   7    3.41    0.26
   2   5  -7    3.02    0.23
   2   5  -7    3.32    0.24
  -2   5   7    3.55    0.26
   2   5  -7    3.15    0.24
   1  -5  -7    9.12    0.38
   1  -5  -7    8.19    0.36
   1   5  -7    7.99    0.30
   1   5  -7    8.79    0.33
   1   5  -7    8.37    0.31
  -1   5   7    8.02    0.36
  -1   5   7    8.37    0.33
   1   5  -7    8.42    0.30
  -1   5   7    8.83    0.34
   1   5  -7    7.98    0.33
  -1   5   7    8.74    0.34
  -1   5   7    8.25    0.31
   0  -5  -7    9.99    0.42
   0  -5  -7    9.44    0.39
   0   5   7    9.61    0.38
   0   5   7    9.89    0.34
   0   5  -7    9.93    0.37
   0   5  -7    9.69    0.37
   0   5   7    9.73    0.36
   0   5  -7    9.76    0.39
   0   5  -7   10.41    0.35
   0   5  -7    9.42    0.34
   0   5   7    9.73    0.32
   0   5   7    9.55    0.40
   0   5  -7    9.45    0.40
   0   5  -7    9.79    0.38
  -1  -5  -7    0.50    0.12
  -1  -5  -7    0.86    0.15
  -1   5  -7    0.65    0.13
   1   5   7    0.51    0.12
   1   5   7    0.62    0.13
  -1   5  -7    0.76    0.15
  -1   5  -7    0.72    0.14
  -1   5  -7    0.78    0.16
  -1   5  -7    0.55    0.13
   1   5   7    0.67    0.13
   1   5   7    0.63    0.14
  -1   5  -7    0.62    0.12
   1   5   7    0.56    0.10
  -1   5  -7    0.76    0.14
   1   5   7    0.61    0.10
  -2  -5  -7   11.38    0.40
  -2  -5  -7   10.07    0.40
   2   5   7   11.49    0.42
   2   5   7   11.59    0.43
   2   5   7   11.44    0.38
   2   5   7   11.29    0.43
  -2   5  -7   11.30    0.46
  -2   5  -7   10.84    0.47
  -2   5  -7   10.91    0.43
  -2   5  -7   11.33    0.40
  -2   5  -7   10.88    0.43
   2   5   7   11.00    0.39
  -2   5  -7   11.85    0.45
  -2   5  -7   11.33    0.40
  -2   5  -7   11.13    0.42
  -2   5  -7   12.32    0.50
  -3  -5  -7    2.20    0.19
  -3  -5  -7    2.54    0.22
  -3   5  -7    2.34    0.21
  -3   5  -7    2.61    0.22
  -3   5  -7    1.97    0.21
   3   5   7    2.20    0.20
   3   5   7    2.34    0.23
  -3   5  -7    2.61    0.24
  -3   5  -7    2.51    0.26
  -3   5  -7    2.72    0.24
  -3   5  -7    2.70    0.25
   3   5   7    2.20    0.21
  -3   5  -7    2.67    0.23
  -3   5  -7    2.15    0.24
  -4  -5  -7    0.16    0.08
   4  -5   7    0.15    0.07
  -4  -5  -7    0.10    0.06
  -4  -5  -7    0.12    0.07
   4  -5   7    0.12    0.07
  -4   5  -7    0.07    0.07
   4   5   7    0.07    0.06
  -4   5  -7    0.04    0.06
  -4   5  -7    0.21    0.07
   4   5   7    0.04    0.07
  -4   5  -7    0.11    0.08
  -4   5  -7    0.06    0.06
   4  -6  -7    0.78    0.11
   4   6  -7    0.87    0.08
   4   6  -7    0.95    0.10
  -4   6   7    0.85    0.09
   4   6  -7    0.75    0.08
   4   6  -7    0.82    0.08
   4   6  -7    0.75    0.08
   4   6  -7    0.84    0.09
   3  -6  -7    0.67    0.13
   3  -6  -7    0.67    0.14
  -3   6   7    0.59    0.10
   3   6  -7    0.87    0.11
   3   6  -7    0.75    0.10
   3   6  -7    0.71    0.10
   3   6  -7    0.73    0.11
   3   6  -7    0.56    0.10
  -3   6   7    0.82    0.13
   3   6  -7    0.72    0.10
   3   6  -7    0.79    0.12
  -3   6   7    0.60    0.10
   2  -6  -7    1.28    0.17
   2  -6  -7    1.31    0.18
   2  -6  -7    1.04    0.16
   2   6  -7    1.19    0.12
   2   6  -7    1.64    0.16
   2   6  -7    1.67    0.18
   2   6  -7    1.42    0.15
  -2   6   7    1.16    0.15
  -2   6   7    1.27    0.16
  -2   6   7    1.21    0.16
   2   6  -7    1.40    0.15
   2   6  -7    1.38    0.16
   2   6  -7    1.23    0.14
   1  -6  -7   18.30    0.56
   1  -6  -7   18.25    0.58
   1   6  -7   18.03    0.50
   1   6  -7   17.96    0.50
  -1   6   7   18.77    0.56
   1   6  -7   18.26    0.50
  -1   6   7   17.89    0.48
  -1   6   7   17.76    0.51
   1   6  -7   17.84    0.46
   1   6  -7   18.38    0.46
  -1   6   7   17.77    0.51
   1   6  -7   17.87    0.47
   0  -6  -7    8.68    0.35
   0  -6  -7    8.14    0.39
   0   6  -7    7.97    0.34
   0   6   7    8.73    0.36
   0   6   7    8.14    0.37
   0   6   7    8.37    0.33
   0   6  -7    8.41    0.35
   0   6  -7    8.10    0.38
   0   6  -7    8.20    0.34
   0   6   7    7.63    0.29
   0   6  -7    8.11    0.31
   0   6  -7    8.06    0.31
   0   6  -7    7.76    0.33
   0   6   7    7.59    0.33
  -1  -6  -7    5.13    0.28
  -1  -6  -7    5.44    0.30
  -1   6  -7    5.54    0.25
  -1   6  -7    5.26    0.26
   1   6   7    5.87    0.26
  -1   6  -7    5.64    0.30
   1   6   7    5.48    0.27
  -1   6  -7    5.35    0.30
  -1   6  -7    5.53    0.29
  -1   6  -7    5.01    0.30
   1   6   7    5.80    0.30
  -1   6  -7    4.93    0.31
   1   6   7    5.65    0.25
   1   6   7    5.60    0.31
  -1   6  -7    5.07    0.28
   1   6   7    5.52    0.25
  -2  -6  -7    0.18    0.09
  -2  -6  -7    0.16    0.08
  -2   6  -7    0.20    0.09
  -2   6  -7    0.22    0.10
   2   6   7    0.16    0.07
  -2   6  -7    0.18    0.11
  -2   6  -7    0.22    0.10
   2   6   7    0.08    0.08
  -2   6  -7    0.04    0.09
  -2   6  -7    0.23    0.10
   2   6   7    0.30    0.10
  -2   6  -7    0.27    0.09
  -2   6  -7    0.12    0.08
   2   6   7    0.04    0.07
  -3  -6  -7    0.06    0.05
  -3  -6  -7   -0.09    0.06
  -3  -6  -7    0.01    0.06
  -3   6  -7   -0.01    0.07
   3   6   7    0.04    0.06
   3   6   7    0.08    0.05
  -3   6  -7   -0.05    0.07
  -3   6  -7    0.00    0.07
  -3   6  -7   -0.02    0.06
  -3   6  -7   -0.05    0.06
  -3   6  -7   -0.06    0.06
   3   6   7    0.03    0.06
  -3   6  -7    0.03    0.06
  -3   6  -7    0.02    0.06
   2  -7  -7    0.53    0.10
   2  -7  -7    0.65    0.12
   2   7  -7    0.60    0.07
   2   7  -7    0.80    0.10
   2   7  -7    0.76    0.09
   2   7  -7    0.70    0.10
  -2   7   7    0.70    0.11
  -2   7   7    0.67    0.10
  -2   7   7    0.75    0.10
   2   7  -7    0.68    0.10
   1  -7  -7    0.11    0.08
   1  -7  -7    0.17    0.09
   1  -7  -7    0.20    0.09
  -1   7   7    0.01    0.08
   1   7  -7    0.00    0.07
  -1   7   7    0.07    0.07
   1   7  -7    0.03    0.06
   1   7  -7    0.03    0.06
   1   7  -7    0.04    0.06
  -1   7   7    0.06    0.07
   1   7  -7    0.05    0.06
   0  -7  -7    2.38    0.19
   0  -7  -7    2.36    0.22
   0   7  -7    2.67    0.19
   0   7  -7    2.92    0.21
   0   7   7    2.38    0.22
   0   7  -7    2.30    0.17
   0   7  -7    2.62    0.21
   0   7  -7    1.98    0.16
   0   7   7    2.23    0.16
   0   7   7    2.59    0.20
   0   7   7    1.83    0.17
   0   7   7    2.25    0.19
   0   7  -7    2.47    0.21
  -1  -7  -7    0.14    0.09
  -1  -7  -7    0.18    0.08
  -1  -7  -7    0.11    0.09
  -1   7  -7    0.13    0.07
  -1   7  -7    0.18    0.08
  -1   7  -7    0.23    0.09
   1   7   7    0.12    0.07
   1   7   7    0.10    0.08
  -1   7  -7    0.16    0.06
   1   7   7    0.13    0.06
  -1   7  -7    0.23    0.09
  -1   7  -7    0.21    0.08
   1   7   7    0.22    0.09
  -1   7  -7    0.14    0.08
  -1   7  -7    0.16    0.09
  -2  -7  -7    0.16    0.07
  -2  -7  -7    0.10    0.06
  -2  -7  -7    0.14    0.08
  -2   7  -7    0.09    0.06
  -2   7  -7    0.26    0.08
  -2   7  -7    0.16    0.08
   2   7   7    0.17    0.07
   2   7   7    0.10    0.07
  -2   7  -7    0.22    0.06
  -2   7  -7    0.35    0.09
  -2   7  -7    0.07    0.06
  -2   7  -7    0.14    0.08
   2   7   7    0.21    0.07
  -2   7  -7    0.08    0.08
   0  -8  -7    0.02    0.06
   0   8  -7    0.07    0.06
   0   8  -7    0.03    0.05
   0   8   7    0.04    0.04
   0   8   7    0.01    0.05
   5   0  -8    8.48    0.33
   5   0  -8    8.02    0.34
   5   0  -8    8.29    0.29
   5   0  -8    8.72    0.30
  -5   0   8    8.99    0.32
   5   0  -8    8.24    0.35
  -5   0   8    8.77    0.30
   4   0  -8    7.67    0.34
   4   0  -8    7.28    0.34
   4   0  -8    7.61    0.31
   4   0  -8    7.72    0.32
   4   0  -8    7.05    0.28
   4   0  -8    7.37    0.36
   4   0  -8    7.10    0.31
   4   0  -8    7.33    0.30
  -4   0   8    7.29    0.28
   3   0  -8    1.65    0.34
  -3   0   8    1.78    0.28
  -3   0   8    1.79    0.31
  -3   0   8    1.22    0.26
   3   0  -8    1.58    0.33
  -3   0   8    2.01    0.30
   3   0  -8    1.52    0.42
  -2   0   8   52.15    1.28
  -2   0   8   53.95    1.17
   2   0  -8   54.55    1.39
  -2   0   8   53.84    1.19
   2   0  -8   53.39    1.33
   2   0  -8   51.39    1.47
   2   0  -8   51.80    1.46
  -2   0   8   50.47    1.17
   1   0  -8   30.20    0.89
  -1   0   8   31.30    0.73
  -1   0   8   31.73    0.87
   1   0  -8   31.14    0.89
   1   0  -8   30.96    0.91
   1   0  -8   32.41    1.00
  -1   0   8   31.27    0.77
   0   0   8    1.42    0.25
   0   0   8    0.84    0.13
   0   0  -8    0.90    0.15
   0   0  -8    0.99    0.20
   0   0  -8    1.00    0.21
   0   0  -8    0.87    0.15
   0   0   8    1.10    0.18
   0   0  -8    0.90    0.19
   0   0   8    0.78    0.17
   1   0   8   23.58    0.73
   1   0   8   23.55    0.79
  -1   0  -8   25.94    0.79
   1   0   8   22.78    0.73
  -1   0  -8   23.73    0.74
  -1   0  -8   25.76    0.89
   1   0   8   23.87    0.88
  -1   0  -8   23.90    0.81
   1   0   8   23.05    0.69
   1   0   8   23.27    0.88
  -2   0  -8   75.54    1.60
  -2   0  -8   71.89    1.76
  -2   0  -8   72.61    1.82
   2   0   8   75.90    1.95
  -2   0  -8   73.17    1.70
   2   0   8   74.96    1.89
   2   0   8   76.97    1.64
   2   0   8   74.18    1.55
   2   0   8   73.98    1.77
  -3   0  -8    5.32    0.30
  -3   0  -8    6.34    0.40
  -3   0  -8    5.63    0.55
  -3   0  -8    4.97    0.24
  -3   0  -8    4.51    0.26
  -3   0  -8    5.36    0.32
  -3   0  -8    5.46    0.29
  -3   0  -8    6.17    0.79
   3   0   8    5.89    0.61
  -3   0  -8    5.06    0.27
   3   0   8    4.83    0.32
   4   0   8   10.57    0.45
  -4   0  -8    9.67    0.41
  -4   0  -8    9.64    0.38
   4   0   8   10.16    0.39
   4   0   8    9.54    0.39
  -4   0  -8   10.25    0.36
   5   0   8    2.99    0.21
   5   0   8    2.74    0.21
  -5   0  -8    2.79    0.19
  -5   0  -8    3.08    0.23
   5   0   8    2.86    0.24
   5  -1  -8    2.13    0.20
  -5  -1   8    1.60    0.15
   5  -1  -8    1.79    0.19
   5  -1  -8    1.89    0.19
   5   1  -8    1.76    0.15
   5   1  -8    1.71    0.17
   5   1  -8    1.76    0.18
   5   1  -8    1.85    0.17
   5   1  -8    1.87    0.18
   5   1  -8    2.15    0.22
  -5   1   8    1.97    0.17
  -5   1   8    2.30    0.20
   4  -1  -8   10.91    0.42
   4  -1  -8   11.03    0.38
   4  -1  -8   10.87    0.39
   4  -1  -8   10.87    0.41
   4  -1  -8   11.02    0.39
   4  -1  -8   10.66    0.42
   4   1  -8   10.37    0.36
   4   1  -8   10.99    0.37
   4   1  -8   11.02    0.36
   4   1  -8   10.57    0.44
   4   1  -8   10.19    0.34
  -4   1   8   11.01    0.36
  -4   1   8   11.97    0.40
   4   1  -8   10.81    0.36
   4   1  -8   10.83    0.36
   4   1  -8   10.52    0.40
   4   1  -8   10.75    0.40
   4   1  -8   11.37    0.42
   4   1  -8   11.08    0.40
  -3  -1   8    0.05    0.23
   3  -1  -8   -0.01    0.14
   3  -1  -8    0.20    0.22
   3  -1  -8    0.03    0.17
  -3  -1   8    0.00    0.11
  -3  -1   8    0.03    0.11
  -3  -1   8    0.18    0.16
  -3   1   8    0.05    0.14
   3   1  -8    0.21    0.05
   3   1  -8    0.32    0.32
  -3   1   8   -0.04    0.10
   3   1  -8    0.12    0.17
  -3   1   8    0.18    0.15
  -2  -1   8    0.80    0.18
  -2  -1   8    0.79    0.18
  -2  -1   8    0.56    0.14
   2  -1  -8    0.82    0.14
   2  -1  -8    0.72    0.22
   2  -1  -8    0.91    0.26
   2  -1  -8    0.76    0.21
  -2  -1   8    0.87    0.19
   2  -1  -8    0.31    0.15
   2   1  -8    0.47    0.08
   2   1  -8    0.49    0.26
  -2   1   8    0.58    0.17
  -2   1   8    0.76    0.17
   2   1  -8    0.88    0.18
   2   1  -8    0.83    0.24
  -2   1   8    0.65    0.19
  -1  -1   8  233.03    3.47
   1  -1  -8  235.21    3.58
  -1  -1   8  232.76    3.29
   1  -1  -8  231.83    3.18
   1  -1  -8  233.53    3.63
   1  -1  -8  233.21    3.46
   1  -1  -8  237.03    3.68
  -1  -1   8  233.68    3.23
  -1   1   8  233.64    3.34
   1   1  -8  228.81    3.44
  -1   1   8  231.87    3.47
   1   1  -8  232.49    3.74
  -1   1   8  228.71    3.31
   1   1  -8  228.13    3.51
  -1   1   8  226.70    3.59
   1   1  -8  227.04    3.48
   1   1  -8  229.24    3.66
   0  -1   8   93.60    1.43
   0  -1  -8   91.89    1.75
   0  -1  -8   90.68    1.82
   0  -1   8   90.83    1.60
   0  -1   8   92.44    1.68
   0  -1  -8   89.60    1.59
   0  -1   8   93.45    1.81
   0  -1  -8   90.47    1.69
   0  -1  -8   90.99    1.57
   0   1   8   91.08    1.81
   0   1   8   92.01    1.70
   0   1  -8   90.18    1.57
   0   1  -8   90.65    1.70
   0   1  -8   88.06    1.65
   0   1  -8   89.20    1.82
   0   1  -8   89.47    1.81
   0   1   8   89.23    1.57
   0   1   8   89.57    1.63
  -1  -1  -8    5.27    0.47
   1  -1   8    5.41    0.40
   1  -1   8    5.29    0.49
   1  -1   8    5.29    0.30
   1  -1   8    6.19    0.54
  -1  -1  -8    4.90    0.41
   1  -1   8    5.27    0.44
  -1  -1  -8    5.61    0.40
  -1  -1  -8    5.45    0.40
   1  -1   8    5.22    0.37
   1   1   8    4.98    0.43
  -1   1  -8    5.54    0.46
   1   1   8    6.44    0.54
   1   1   8    5.07    0.48
  -1   1  -8    4.80    0.33
  -1   1  -8    5.31    0.48
   1   1   8    5.64    0.38
  -1   1  -8    5.64    0.43
   1   1   8    6.42    0.49
   1   1   8    5.23    0.35
  -1   1  -8    5.06    0.45
   1   1   8    6.72    0.44
  -2  -1  -8    0.61    0.23
   2  -1   8    0.59    0.24
   2  -1   8    1.72    0.33
   2  -1   8    0.74    0.23
   2  -1   8    0.67    0.22
  -2  -1  -8    0.85    0.21
  -2  -1  -8    0.63    0.25
   2  -1   8    4.64    0.60
   2   1   8    0.93    0.29
  -2   1  -8    0.58    0.21
   2   1   8    0.71    0.23
  -2   1  -8    0.72    0.21
  -2   1  -8    1.02    0.23
  -2   1  -8    0.45    0.22
   2   1   8    0.64    0.20
   2   1   8    0.36    0.16
  -3  -1  -8   30.15    0.68
  -3  -1  -8   30.17    0.69
   3  -1   8   30.16    0.70
  -3  -1  -8   30.76    0.72
  -3  -1  -8   31.23    0.71
  -3  -1  -8   30.56    0.63
  -3   1  -8   32.04    0.74
  -3   1  -8   31.21    0.66
  -3   1  -8   31.06    0.74
   3   1   8   30.90    0.73
  -3   1  -8   31.42    0.68
   3   1   8   30.48    0.68
  -3   1  -8   31.20    0.71
  -3   1  -8   31.54    0.76
  -3   1  -8   31.43    0.72
  -3   1  -8   31.32    0.71
  -4  -1  -8    6.68    0.31
  -4  -1  -8    7.05    0.29
   4  -1   8    6.62    0.36
  -4  -1  -8    7.44    0.35
   4  -1   8    6.86    0.33
  -4   1  -8    7.20    0.33
   4   1   8    7.12    0.30
  -4   1  -8    6.59    0.35
  -4   1  -8    6.27    0.32
   4   1   8    6.96    0.34
   4   1   8    7.08    0.37
  -4   1  -8    6.78    0.31
   4   1   8    7.13    0.32
  -5  -1  -8    0.46    0.09
   5  -1   8    0.26    0.09
   5  -1   8    0.29    0.10
   5  -1   8    0.47    0.09
  -5  -1  -8    0.31    0.10
   5   1   8    0.47    0.11
  -5   1  -8    0.26    0.09
   5   1   8    0.43    0.10
  -5   1  -8    0.28    0.09
   5   1   8    0.29    0.08
   5  -2  -8    3.58    0.22
   5  -2  -8    3.66    0.26
  -5  -2   8    3.79    0.18
   5  -2  -8    3.56    0.23
   5   2  -8    3.73    0.20
  -5   2   8    3.81    0.20
   5   2  -8    4.04    0.20
   5   2  -8    3.70    0.19
   5   2  -8    3.73    0.18
   5   2  -8    3.59    0.24
   5   2  -8    3.46    0.20
  -5   2   8    3.64    0.19
  -5   2   8    3.87    0.21
   5   2  -8    3.66    0.21
   5   2  -8    3.69    0.26
   5   2  -8    4.06    0.21
   4  -2  -8    6.95    0.34
   4  -2  -8    7.06    0.32
   4  -2  -8    7.58    0.33
   4  -2  -8    7.81    0.34
   4   2  -8    6.95    0.29
   4   2  -8    7.55    0.33
   4   2  -8    7.57    0.34
   4   2  -8    7.75    0.33
  -4   2   8    7.15    0.31
   4   2  -8    7.21    0.29
  -4   2   8    7.18    0.32
   4   2  -8    7.50    0.31
  -4   2   8    7.43    0.30
   4   2  -8    7.18    0.31
   4   2  -8    7.23    0.36
   4   2  -8    6.93    0.28
   4   2  -8    7.93    0.31
  -3  -2   8    9.28    0.75
   3  -2  -8    9.41    0.35
   3  -2  -8    9.72    0.36
   3  -2  -8    9.36    0.35
   3  -2  -8    9.95    0.40
   3  -2  -8    9.66    0.38
   3   2  -8    9.44    0.38
  -3   2   8    9.60    0.34
   3   2  -8    9.10    0.35
   3   2  -8    9.49    0.36
   3   2  -8    9.47    0.35
   3   2  -8    9.42    0.32
   3   2  -8    9.30    0.32
   3   2  -8    9.28    0.33
   3   2  -8    9.58    0.34
   3   2  -8    9.36    0.33
   3   2  -8    8.76    0.29
   2  -2  -8    3.04    0.33
  -2  -2   8    2.70    0.33
  -2  -2   8    2.66    0.32
   2  -2  -8    2.75    0.42
  -2  -2   8    3.18    0.35
   2  -2  -8    3.04    0.43
   2   2  -8    3.28    0.47
   2   2  -8    3.04    0.42
  -2   2   8    3.21    0.35
   2   2  -8    3.00    0.43
   2   2  -8    2.74    0.38
  -2   2   8    3.54    0.35
  -2   2   8    3.36    0.37
  -1  -2   8   51.22    1.22
   1  -2  -8   49.86    1.03
   1  -2  -8   49.29    1.38
   1  -2  -8   49.32    1.09
   1  -2  -8   50.47    1.31
  -1  -2   8   49.20    1.09
   1  -2  -8   52.03    1.29
  -1  -2   8   48.99    1.09
   1   2  -8   49.59    1.24
  -1   2   8   48.57    1.15
  -1   2   8   48.89    1.20
   1   2  -8   48.05    1.29
  -1   2   8   48.54    1.22
   1   2  -8   48.59    1.19
  -1   2   8   53.13    1.20
   1   2  -8   49.74    1.17
   1   2  -8   49.97    1.40
   0  -2   8    6.99    0.48
   0  -2  -8    5.92    0.33
   0  -2   8    5.77    0.47
   0  -2   8    7.18    0.36
   0  -2  -8    6.84    0.40
   0  -2  -8    6.91    0.50
   0  -2  -8    6.66    0.54
   0  -2  -8    6.69    0.45
   0   2   8    6.34    0.52
   0   2   8    6.33    0.49
   0   2   8    6.01    0.31
   0   2  -8    6.41    0.42
   0   2  -8    5.89    0.46
   0   2  -8    6.43    0.38
   0   2   8    6.63    0.35
   0   2   8    7.12    0.40
   0   2  -8    6.18    0.51
   1  -2   8  174.33    2.89
  -1  -2  -8  177.23    2.83
  -1  -2  -8  173.64    2.98
  -1  -2  -8  179.00    3.10
   1  -2   8  177.01    3.22
   1  -2   8  176.75    2.80
   1  -2   8  171.34    2.97
   1  -2   8  181.23    2.96
  -1  -2  -8  177.87    3.01
  -1   2  -8  178.24    3.15
   1   2   8  175.09    3.07
   1   2   8  174.46    2.81
  -1   2  -8  174.18    3.05
  -1   2  -8  177.82    3.20
  -1   2  -8  178.50    2.89
   1   2   8  171.03    3.24
   1   2   8  172.75    2.83
  -1   2  -8  177.74    3.02
  -2  -2  -8   30.47    1.16
   2  -2   8   32.76    1.33
  -2  -2  -8   30.99    1.02
   2  -2   8   31.96    1.14
   2  -2   8   32.08    1.12
  -2   2  -8   32.71    1.24
  -2   2  -8   32.15    1.21
  -2   2  -8   32.52    1.05
   2   2   8   31.95    1.02
  -2   2  -8   30.97    1.24
   2   2   8   32.16    1.18
   2   2   8   33.92    1.39
  -3  -2  -8   46.08    0.93
  -3  -2  -8   48.20    0.96
  -3  -2  -8   47.67    0.84
  -3  -2  -8   47.31    0.93
   3   2   8   47.73    0.98
  -3   2  -8   48.42    1.01
   3   2   8   47.45    1.00
  -3   2  -8   48.11    1.02
  -3   2  -8   47.53    0.91
  -3   2  -8   46.50    0.97
  -3   2  -8   47.99    1.03
  -3   2  -8   48.38    0.96
   3   2   8   46.37    0.93
   3   2   8   47.93    0.94
  -3   2  -8   49.35    0.99
  -3   2  -8   48.26    0.94
  -3   2  -8   47.75    0.94
  -3   2  -8   47.40    0.98
   4  -2   8   10.29    0.41
   4  -2   8   10.48    0.40
  -4  -2  -8   10.60    0.39
  -4  -2  -8   10.95    0.35
  -4  -2  -8   11.03    0.42
   4   2   8    9.75    0.42
   4   2   8   10.87    0.39
   4   2   8    9.78    0.40
  -4   2  -8   10.57    0.38
  -4   2  -8   10.67    0.37
  -4   2  -8   10.27    0.40
  -4   2  -8   10.99    0.43
  -4   2  -8   10.62    0.40
   5  -2   8    1.49    0.15
  -5  -2  -8    1.66    0.16
  -5  -2  -8    1.47    0.13
   5  -2   8    1.58    0.16
   5  -2   8    1.57    0.16
  -5   2  -8    1.49    0.16
   5   2   8    1.48    0.17
  -5   2  -8    1.75    0.15
   5   2   8    1.69    0.17
   5  -3  -8    0.80    0.12
  -5  -3   8    0.69    0.09
   5  -3  -8    0.55    0.09
  -5   3   8    0.65    0.10
  -5   3   8    0.79    0.10
   5   3  -8    0.69    0.10
   5   3  -8    0.57    0.10
   5   3  -8    0.60    0.09
   5   3  -8    0.69    0.09
   5   3  -8    0.61    0.10
   5   3  -8    0.55    0.11
  -5   3   8    0.78    0.10
   5   3  -8    0.61    0.09
   4  -3  -8    9.34    0.39
   4  -3  -8    9.63    0.37
   4  -3  -8    9.15    0.40
   4   3  -8    9.53    0.34
   4   3  -8    9.93    0.35
   4   3  -8    9.30    0.34
  -4   3   8    9.13    0.34
   4   3  -8    9.42    0.31
   4   3  -8    9.35    0.33
   4   3  -8    9.95    0.39
   4   3  -8    9.64    0.35
  -4   3   8    9.49    0.36
  -4   3   8    9.24    0.33
   4   3  -8    9.61    0.37
   4   3  -8    9.41    0.39
   3  -3  -8    0.00    0.08
   3  -3  -8   -0.02    0.08
   3  -3  -8    0.02    0.08
   3   3  -8    0.07    0.07
   3   3  -8    0.21    0.06
   3   3  -8    0.01    0.06
   3   3  -8    0.01    0.07
   3   3  -8   -0.05    0.07
   3   3  -8    0.06    0.06
   3   3  -8    0.03    0.06
  -3   3   8   -0.11    0.05
  -3   3   8   -0.01    0.07
   3   3  -8    0.05    0.07
  -3   3   8    0.08    0.07
   3   3  -8    0.05    0.07
   2  -3  -8    2.47    0.42
  -2  -3   8    2.08    0.36
   2  -3  -8    1.85    0.38
   2  -3  -8    1.89    0.40
  -2  -3   8    2.31    0.33
  -2  -3   8    1.78    0.30
   2   3  -8    1.83    0.34
  -2   3   8    2.30    0.35
   2   3  -8    2.23    0.34
   2   3  -8    1.73    0.39
  -2   3   8    2.14    0.36
   1  -3  -8   -0.15    0.16
   1  -3  -8   -0.03    0.13
  -1  -3   8    0.01    0.10
   1  -3  -8    0.22    0.14
  -1  -3   8    0.03    0.08
   1   3  -8    0.27    0.08
  -1   3   8    0.00    0.15
  -1   3   8   -0.05    0.09
   1   3  -8   -0.06    0.08
   1   3  -8   -0.11    0.13
  -1   3   8   -0.01    0.05
   0  -3  -8   37.54    1.23
   0  -3   8   36.15    0.95
   0  -3  -8   35.67    1.06
   0  -3   8   35.15    1.17
   0  -3  -8   37.77    1.03
   0  -3   8   35.85    0.99
   0  -3   8   36.21    1.00
   0   3  -8   35.51    1.00
   0   3   8   36.92    1.05
   0   3   8   35.37    1.01
   0   3  -8   35.75    1.12
   0   3  -8   34.63    1.38
   0   3  -8   36.16    1.19
   0   3   8   35.71    1.18
   1  -3   8   28.33    0.95
   1  -3   8   28.90    1.14
   1  -3   8   26.89    0.94
  -1  -3  -8   28.35    1.02
  -1  -3  -8   28.47    1.06
   1  -3   8   29.08    1.06
  -1  -3  -8   28.29    0.90
   1  -3   8   28.93    0.91
  -1   3  -8   27.95    1.17
   1   3   8   29.41    0.98
  -1   3  -8   28.99    0.95
   1   3   8   28.61    1.06
  -1   3  -8   28.00    1.13
   1   3   8   29.58    1.17
  -2  -3  -8   18.27    0.50
   2  -3   8   19.61    1.59
  -2  -3  -8   19.06    0.82
   2  -3   8   20.78    1.09
  -2  -3  -8   18.98    1.00
   2  -3   8   19.50    1.43
  -2  -3  -8   18.26    0.52
  -2   3  -8   18.52    0.57
   2   3   8   18.01    0.50
  -2   3  -8   17.96    0.59
  -2   3  -8   18.17    0.53
  -2   3  -8   18.25    0.54
  -2   3  -8   18.48    0.51
   2   3   8   18.00    0.51
  -2   3  -8   18.53    0.55
  -2   3  -8   14.49    1.34
  -2   3  -8   18.36    0.56
  -2   3  -8   19.32    1.00
   2   3   8   18.76    1.05
  -2   3  -8   17.12    1.34
   2   3   8   17.36    1.01
  -2   3  -8   18.38    0.53
  -3  -3  -8   31.89    0.75
  -3  -3  -8   33.06    0.77
  -3  -3  -8   32.66    0.75
  -3  -3  -8   31.85    0.65
   3   3   8   31.89    0.75
  -3   3  -8   32.10    0.77
  -3   3  -8   33.52    0.81
  -3   3  -8   32.02    0.83
  -3   3  -8   32.96    0.79
  -3   3  -8   32.38    0.79
  -3   3  -8   33.34    0.75
   3   3   8   31.77    0.77
  -3   3  -8   32.09    0.79
   3   3   8   32.17    0.75
  -3   3  -8   33.09    0.76
  -3   3  -8   32.15    0.72
  -3   3  -8   33.63    0.84
  -4  -3  -8    5.38    0.25
  -4  -3  -8    5.93    0.30
  -4  -3  -8    5.30    0.27
   4  -3   8    5.26    0.31
  -4   3  -8    5.88    0.32
   4   3   8    5.35    0.25
   4   3   8    5.27    0.26
  -4   3  -8    5.27    0.28
  -4   3  -8    5.49    0.27
  -4   3  -8    5.47    0.27
   4   3   8    5.35    0.34
  -4   3  -8    5.15    0.28
  -4   3  -8    5.29    0.26
  -4   3  -8    5.48    0.31
  -4   3  -8    5.61    0.28
  -5  -3  -8    2.88    0.17
  -5  -3  -8    2.50    0.14
   5  -3   8    2.38    0.17
   5  -3   8    2.53    0.16
  -5   3  -8    2.66    0.15
  -5   3  -8    2.56    0.17
   5   3   8    2.67    0.18
   5   3   8    2.56    0.15
  -5  -4   8    0.02    0.04
   5  -4  -8    0.04    0.05
   5  -4  -8   -0.04    0.06
   5   4  -8    0.01    0.04
   5   4  -8    0.04    0.04
   5   4  -8    0.07    0.05
   5   4  -8    0.00    0.05
   5   4  -8    0.00    0.05
   5   4  -8    0.02    0.05
   5   4  -8    0.10    0.05
  -5   4   8    0.02    0.05
   4  -4  -8    7.77    0.32
   4  -4  -8    7.81    0.37
   4  -4  -8    8.63    0.33
   4   4  -8    8.24    0.30
  -4   4   8    7.33    0.28
  -4   4   8    7.90    0.31
   4   4  -8    7.99    0.31
   4   4  -8    8.32    0.32
   4   4  -8    8.22    0.30
   4   4  -8    7.74    0.29
  -4   4   8    8.25    0.32
   4   4  -8    8.39    0.32
   4   4  -8    7.93    0.29
   4   4  -8    7.74    0.27
   3  -4  -8   -0.07    0.07
   3  -4  -8    0.00    0.09
   3  -4  -8    0.06    0.09
   3   4  -8    0.22    0.08
  -3   4   8   -0.04    0.07
   3   4  -8    0.17    0.09
   3   4  -8    0.12    0.08
   3   4  -8    0.11    0.08
  -3   4   8    0.04    0.07
   3   4  -8    0.07    0.08
   3   4  -8    0.04    0.07
  -3   4   8    0.11    0.08
   3   4  -8    0.11    0.07
   3   4  -8    0.07    0.08
   2  -4  -8   12.10    0.43
   2  -4  -8   12.60    0.47
   2  -4  -8   12.13    0.39
   2  -4  -8   12.44    0.44
  -2   4   8   12.48    0.40
   2   4  -8   11.98    0.37
   2   4  -8   11.99    0.36
   2   4  -8   11.63    0.37
  -2   4   8   11.59    0.43
   2   4  -8   12.30    0.39
  -2   4   8   12.16    0.40
   2   4  -8   11.89    0.40
   2   4  -8   12.30    0.36
   2   4  -8   11.74    0.38
   1  -4  -8   10.22    0.60
   1  -4  -8   11.48    0.56
   1  -4  -8   10.22    0.76
   1  -4  -8    9.84    0.44
  -1   4   8   10.31    0.40
  -1   4   8   10.21    0.74
  -1   4   8    9.05    0.70
   0  -4   8   26.29    1.13
   0  -4   8   25.30    0.91
   0  -4  -8   25.12    0.96
   0  -4  -8   25.39    1.12
   0   4   8   24.65    1.06
   0   4   8   25.09    1.00
   0   4  -8   25.36    1.07
   0   4   8   25.75    0.93
  -1  -4  -8    0.67    0.15
  -1  -4  -8    1.05    0.35
   1  -4   8    0.91    0.35
  -1  -4  -8    0.89    0.14
  -1  -4  -8    1.33    0.20
   1   4   8    0.84    0.14
   1   4   8    0.82    0.14
  -1   4  -8    1.07    0.17
  -1   4  -8    0.95    0.17
  -1   4  -8    1.94    0.24
  -1   4  -8    1.08    0.17
  -1   4  -8    0.89    0.16
  -1   4  -8    1.34    0.17
   1   4   8    1.04    0.15
   1   4   8    0.85    0.11
  -1   4  -8    0.97    0.15
  -1   4  -8    0.85    0.14
  -2  -4  -8   11.64    0.43
  -2  -4  -8   11.69    0.41
  -2   4  -8   12.60    0.45
  -2   4  -8   12.74    0.48
  -2   4  -8   11.80    0.44
   2   4   8   12.70    0.44
  -2   4  -8   11.66    0.42
  -2   4  -8   12.20    0.47
  -2   4  -8   11.67    0.40
   2   4   8   12.39    0.43
  -2   4  -8   12.19    0.50
  -2   4  -8   12.01    0.43
  -2   4  -8   12.13    0.50
   2   4   8   11.69    0.40
  -3  -4  -8    1.11    0.17
  -3  -4  -8    0.99    0.15
  -3  -4  -8    1.33    0.14
  -3  -4  -8    1.40    0.18
   3   4   8    1.24    0.16
  -3   4  -8    1.18    0.19
  -3   4  -8    1.08    0.17
   3   4   8    1.03    0.16
  -3   4  -8    1.28    0.18
  -3   4  -8    1.20    0.18
  -3   4  -8    1.27    0.18
  -3   4  -8    1.38    0.21
   3   4   8    1.33    0.19
  -3   4  -8    1.01    0.18
  -3   4  -8    1.21    0.16
   3   4   8    1.14    0.18
  -3   4  -8    1.41    0.20
  -3   4  -8    1.02    0.16
   4  -4   8    2.20    0.18
   4  -4   8    2.49    0.22
  -4  -4  -8    2.32    0.16
  -4  -4  -8    2.26    0.20
  -4  -4  -8    2.19    0.18
  -4   4  -8    2.47    0.23
   4   4   8    2.47    0.20
   4   4   8    2.43    0.19
  -4   4  -8    2.55    0.23
  -4   4  -8    2.58    0.20
  -4   4  -8    2.52    0.19
  -4   4  -8    2.53    0.20
  -4   4  -8    2.58    0.20
   4   4   8    2.42    0.20
  -4   4  -8    2.38    0.20
  -4   4  -8    2.42    0.19
   4  -5  -8    1.01    0.15
   4  -5  -8    1.30    0.13
   4   5  -8    1.14    0.11
   4   5  -8    1.28    0.13
   4   5  -8    1.26    0.14
  -4   5   8    1.05    0.13
   4   5  -8    1.26    0.12
   4   5  -8    1.30    0.13
  -4   5   8    1.20    0.12
   4   5  -8    1.37    0.13
  -4   5   8    1.35    0.12
   4   5  -8    1.33    0.12
   3  -5  -8    1.70    0.17
   3  -5  -8    1.95    0.22
   3  -5  -8    1.73    0.20
   3   5  -8    1.63    0.17
   3   5  -8    1.97    0.17
   3   5  -8    1.93    0.19
  -3   5   8    1.55    0.17
   3   5  -8    1.94    0.18
   3   5  -8    1.98    0.20
   3   5  -8    2.25    0.18
   3   5  -8    1.79    0.16
  -3   5   8    1.87    0.19
   3   5  -8    1.65    0.17
  -3   5   8    2.20    0.21
   2  -5  -8    0.12    0.10
   2  -5  -8    0.17    0.11
   2  -5  -8    0.23    0.11
   2   5  -8    0.33    0.09
   2   5  -8    0.33    0.10
  -2   5   8    0.20    0.10
   2   5  -8    0.28    0.10
   2   5  -8    0.26    0.09
  -2   5   8    0.45    0.11
   2   5  -8    0.19    0.07
   2   5  -8    0.12    0.08
   2   5  -8    0.25    0.09
  -2   5   8    0.14    0.08
   1  -5  -8    0.61    0.14
   1  -5  -8    0.69    0.15
   1  -5  -8    0.72    0.14
  -1   5   8    0.55    0.11
  -1   5   8    0.43    0.10
  -1   5   8    0.51    0.12
  -1   5   8    0.55    0.12
  -1   5   8    0.44    0.10
   1   5  -8    0.47    0.10
   0  -5  -8   15.98    0.50
   0  -5  -8   16.91    0.55
   0   5  -8   15.69    0.47
   0   5  -8   15.69    0.44
   0   5   8   15.70    0.49
   0   5   8   16.10    0.42
   0   5  -8   16.67    0.64
   0   5  -8   16.11    0.50
   0   5  -8   15.28    0.52
   0   5   8   15.90    0.53
   0   5   8   16.14    0.46
   0   5  -8   15.74    0.49
  -1  -5  -8   26.30    0.66
  -1  -5  -8   26.36    0.72
  -1   5  -8   26.19    0.65
   1   5   8   25.65    0.58
  -1   5  -8   27.78    0.70
   1   5   8   26.54    0.68
   1   5   8   26.44    0.66
  -1   5  -8   26.60    0.71
  -1   5  -8   26.10    0.73
  -1   5  -8   25.86    0.67
  -1   5  -8   27.09    0.69
   1   5   8   26.13    0.69
  -1   5  -8   26.22    0.69
  -1   5  -8   26.43    0.62
  -2  -5  -8   26.21    0.64
  -2  -5  -8   25.51    0.65
  -2   5  -8   25.71    0.65
  -2   5  -8   25.65    0.67
  -2   5  -8   25.97    0.63
  -2   5  -8   25.83    0.68
   2   5   8   25.38    0.64
  -2   5  -8   26.08    0.70
  -2   5  -8   24.55    0.72
  -2   5  -8   24.97    0.69
   2   5   8   24.48    0.61
  -2   5  -8   24.80    0.72
   2   5   8   25.38    0.66
  -2   5  -8   24.96    0.63
  -3  -5  -8    2.07    0.15
  -3  -5  -8    2.32    0.20
  -3  -5  -8    2.43    0.20
  -3  -5  -8    2.20    0.20
  -3   5  -8    2.12    0.20
  -3   5  -8    2.29    0.22
  -3   5  -8    1.69    0.20
  -3   5  -8    2.12    0.19
   3   5   8    2.58    0.23
   3   5   8    2.10    0.19
   3   5   8    2.15    0.20
  -3   5  -8    2.41    0.25
  -3   5  -8    1.80    0.18
  -3   5  -8    2.03    0.19
  -3   5  -8    2.33    0.23
  -4  -5  -8    0.38    0.09
   4  -5   8    0.18    0.07
  -4  -5  -8    0.31    0.07
  -4  -5  -8    0.39    0.06
   4  -5   8    0.32    0.08
  -4   5  -8    0.37    0.08
  -4   5  -8    0.51    0.09
  -4   5  -8    0.45    0.08
  -4   5  -8    0.52    0.10
  -4   5  -8    0.33    0.07
  -4   5  -8    0.49    0.08
   4   5   8    0.42    0.08
   3  -6  -8   -0.01    0.08
   3  -6  -8    0.08    0.07
   3   6  -8    0.10    0.05
  -3   6   8    0.00    0.06
   3   6  -8    0.09    0.07
  -3   6   8    0.08    0.07
   3   6  -8    0.09    0.06
   3   6  -8   -0.04    0.04
   3   6  -8    0.05    0.05
   3   6  -8    0.02    0.06
   3   6  -8    0.06    0.07
   2  -6  -8    1.13    0.18
   2  -6  -8    1.27    0.18
   2  -6  -8    1.05    0.16
   2   6  -8    1.26    0.15
  -2   6   8    1.29    0.17
   2   6  -8    1.25    0.15
  -2   6   8    1.10    0.15
   2   6  -8    1.31    0.13
   2   6  -8    1.08    0.13
  -2   6   8    0.95    0.13
   2   6  -8    1.19    0.13
   1  -6  -8   12.17    0.45
   1  -6  -8   12.03    0.47
  -1   6   8   11.35    0.39
   1   6  -8   12.09    0.38
   1   6  -8   12.14    0.36
  -1   6   8   12.02    0.40
   1   6  -8   12.19    0.35
   1   6  -8   12.21    0.37
  -1   6   8   12.28    0.45
  -1   6   8   12.68    0.40
   0  -6  -8    0.09    0.09
   0  -6  -8    0.01    0.07
   0  -6  -8    0.11    0.09
   0   6  -8    0.06    0.07
   0   6  -8   -0.03    0.06
   0   6  -8    0.00    0.06
   0   6  -8   -0.01    0.07
   0   6   8    0.02    0.07
   0   6  -8   -0.01    0.07
   0   6   8    0.04    0.05
   0   6   8    0.00    0.07
   0   6   8   -0.06    0.06
  -1  -6  -8    1.08    0.16
  -1  -6  -8    1.20    0.15
  -1  -6  -8    1.29    0.16
  -1   6  -8    1.21    0.16
  -1   6  -8    1.15    0.14
   1   6   8    1.18    0.14
   1   6   8    1.23    0.17
  -1   6  -8    0.80    0.15
   1   6   8    1.18    0.18
  -1   6  -8    1.34    0.18
  -1   6  -8    1.03    0.17
   1   6   8    1.07    0.15
   1   6   8    1.12    0.14
  -1   6  -8    0.99    0.15
  -1   6  -8    0.87    0.16
  -2  -6  -8    1.29    0.16
  -2  -6  -8    1.56    0.17
  -2  -6  -8    1.75    0.17
  -2   6  -8    1.31    0.17
  -2   6  -8    1.48    0.19
  -2   6  -8    1.58    0.16
   2   6   8    1.30    0.16
  -2   6  -8    1.44    0.17
   2   6   8    1.24    0.15
  -2   6  -8    1.48    0.15
   2   6   8    1.48    0.17
  -2   6  -8    1.62    0.21
  -2   6  -8    1.57    0.18
  -2   6  -8    0.98    0.12
  -2   6  -8    1.42    0.17
  -3  -6  -8    0.18    0.07
  -3  -6  -8    0.40    0.08
  -3   6  -8    0.23    0.09
  -3   6  -8    0.24    0.08
  -3   6  -8    0.22    0.07
  -3   6  -8    0.25    0.08
  -3   6  -8    0.20    0.07
  -3   6  -8    0.28    0.09
   3   6   8    0.31    0.09
  -3   6  -8    0.18    0.08
  -3   6  -8    0.13    0.04
   3   6   8    0.26    0.06
   3   6   8    0.37    0.08
   2  -7  -8    0.84    0.12
   2  -7  -8    0.88    0.12
  -2   7   8    1.04    0.12
   2   7  -8    0.85    0.09
  -2   7   8    0.90    0.11
  -2   7   8    0.78    0.11
   2   7  -8    0.92    0.08
   2   7  -8    0.90    0.10
   2   7  -8    1.07    0.10
   1  -7  -8    0.26    0.10
   1  -7  -8    0.30    0.09
   1  -7  -8    0.30    0.11
  -1   7   8    0.25    0.08
  -1   7   8    0.04    0.08
   1   7  -8    0.29    0.06
   1   7  -8    0.19    0.08
  -1   7   8    0.26    0.08
   1   7  -8    0.27    0.06
   0  -7  -8    0.35    0.09
   0  -7  -8    0.16    0.08
   0  -7  -8    0.40    0.11
   0   7  -8    0.36    0.08
   0   7   8    0.25    0.08
   0   7  -8    0.25    0.07
   0   7  -8    0.25    0.08
   0   7  -8    0.32    0.09
   0   7   8    0.28    0.08
   0   7   8    0.27    0.10
   0   7  -8    0.30    0.08
  -1  -7  -8    1.52    0.17
  -1  -7  -8    1.78    0.16
  -1  -7  -8    1.47    0.15
   1   7   8    1.40    0.13
  -1   7  -8    1.58    0.15
  -1   7  -8    1.76    0.15
  -1   7  -8    1.48    0.15
  -1   7  -8    1.82    0.16
   1   7   8    1.66    0.17
  -1   7  -8    1.74    0.17
  -1   7  -8    1.59    0.16
   1   7   8    1.26    0.14
  -1   7  -8    1.46    0.14
  -2  -7  -8    1.58    0.13
  -2  -7  -8    1.49    0.13
  -2  -7  -8    1.30    0.13
  -2   7  -8    1.33    0.13
  -2   7  -8    1.56    0.12
  -2   7  -8    1.53    0.14
  -2   7  -8    1.15    0.12
   2   7   8    1.40    0.13
  -2   7  -8    1.28    0.11
  -2   7  -8    1.49    0.14
   2   7   8    1.24    0.13
  -2   7  -8    1.36    0.11
  -2   7  -8    1.25    0.13
   2   7   8    1.05    0.11
   5   0  -9    0.01    0.07
   5   0  -9   -0.02    0.06
   5   0  -9   -0.01    0.08
  -5   0   9   -0.09    0.05
   5   0  -9   -0.05    0.08
   5   0  -9   -0.05    0.06
  -5   0   9   -0.07    0.04
   5   0  -9   -0.02    0.08
   4   0  -9   -0.01    0.07
   4   0  -9   -0.05    0.06
   4   0  -9   -0.02    0.06
   4   0  -9    0.05    0.08
   4   0  -9   -0.07    0.06
   4   0  -9    0.10    0.08
   4   0  -9   -0.12    0.09
  -4   0   9   -0.04    0.05
   4   0  -9    0.06    0.09
   4   0  -9    0.08    0.08
   3   0  -9    0.05    0.06
   3   0  -9   -0.03    0.18
  -3   0   9    0.02    0.10
   3   0  -9   -0.20    0.09
   3   0  -9    0.17    0.18
   3   0  -9    0.02    0.06
  -3   0   9    0.24    0.11
   3   0  -9   -0.01    0.07
   3   0  -9    0.19    0.07
  -3   0   9   -0.17    0.22
   3   0  -9   -0.01    0.06
   3   0  -9   -0.03    0.07
  -2   0   9    0.03    0.08
   2   0  -9    0.04    0.17
   2   0  -9   -0.07    0.05
   2   0  -9    0.07    0.13
  -2   0   9    0.16    0.13
   2   0  -9   -0.12    0.12
  -2   0   9   -0.02    0.07
   1   0  -9   -0.02    0.12
   1   0  -9    0.05    0.09
  -1   0   9   -0.04    0.07
  -1   0   9   -0.15    0.07
   1   0  -9    0.07    0.11
  -1   0   9    0.00    0.08
   1   0  -9    0.01    0.11
  -1   0   9   -0.08    0.05
   0   0   9    0.03    0.06
   0   0  -9   -0.06    0.10
   0   0   9   -0.04    0.11
   0   0  -9    0.08    0.07
   0   0  -9    0.03    0.10
   0   0  -9   -0.05    0.16
   0   0   9   -0.08    0.08
   0   0   9    0.01    0.09
  -1   0  -9    0.20    0.15
  -1   0  -9   -0.01    0.14
   1   0   9   -0.05    0.10
   1   0   9    0.34    0.15
   1   0   9    0.06    0.18
   1   0   9   -0.07    0.15
   1   0   9   -0.01    0.11
  -1   0  -9   -0.01    0.12
  -1   0  -9   -0.09    0.10
  -2   0  -9    0.09    0.15
   2   0   9    0.60    0.21
  -2   0  -9    0.10    0.17
   2   0   9   -0.07    0.24
   2   0   9   -0.07    0.19
   2   0   9    0.22    0.16
   2   0   9   -0.14    0.11
  -2   0  -9    0.24    0.26
  -3   0  -9    0.12    0.10
  -3   0  -9   -0.08    0.06
  -3   0  -9   -0.12    0.07
  -3   0  -9    0.16    0.09
   3   0   9    0.01    0.08
  -3   0  -9   -0.02    0.08
  -3   0  -9    0.07    0.09
  -3   0  -9    0.13    0.09
   4   0   9   -0.02    0.07
   4   0   9   -0.06    0.08
  -4   0  -9    0.08    0.08
   4   0   9    0.03    0.08
  -4   0  -9    0.07    0.09
  -4   0  -9   -0.02    0.08
   5   0   9    0.03    0.06
   5   0   9   -0.06    0.08
  -5   0  -9    0.07    0.08
   5   0   9   -0.05    0.07
  -5   0  -9    0.06    0.07
  -5   0  -9    0.06    0.08
  -5  -1   9    0.20    0.07
  -5  -1   9    0.09    0.07
   5  -1  -9    0.15    0.08
   5  -1  -9    0.13    0.09
   5  -1  -9    0.10    0.08
  -5   1   9    0.07    0.06
   5   1  -9    0.21    0.10
  -5   1   9    0.12    0.07
   5   1  -9    0.24    0.08
   5   1  -9    0.06    0.07
   5   1  -9    0.18    0.08
   5   1  -9    0.12    0.07
   5   1  -9    0.12    0.07
  -5   1   9    0.19    0.09
   4  -1  -9    9.90    0.37
   4  -1  -9    9.77    0.40
   4  -1  -9    9.86    0.37
   4  -1  -9    9.39    0.35
   4  -1  -9    9.13    0.38
   4  -1  -9    9.77    0.39
   4   1  -9    9.08    0.40
   4   1  -9    9.38    0.38
   4   1  -9    9.42    0.38
   4   1  -9    9.69    0.33
   4   1  -9   10.12    0.35
   4   1  -9    9.60    0.34
  -4   1   9    8.90    0.34
   4   1  -9    9.86    0.37
   4   1  -9    9.33    0.37
  -4   1   9    8.98    0.32
   4   1  -9    9.22    0.34
   3  -1  -9    0.97    0.33
   3  -1  -9    0.94    0.32
   3  -1  -9    0.67    0.13
   3  -1  -9    0.67    0.12
   3  -1  -9    0.62    0.12
   3  -1  -9    0.91    0.15
   3  -1  -9    0.76    0.12
   3  -1  -9    0.77    0.14
   3  -1  -9    0.76    0.13
   3   1  -9    0.59    0.11
   3   1  -9    0.55    0.11
  -3   1   9    0.62    0.11
   3   1  -9    0.62    0.13
   3   1  -9    0.73    0.11
   3   1  -9    0.66    0.11
   3   1  -9    0.66    0.13
   3   1  -9    0.57    0.12
   3   1  -9    0.67    0.12
   3   1  -9    0.72    0.11
   3   1  -9    0.81    0.14
   2  -1  -9    5.14    0.56
   2  -1  -9    5.62    0.51
   2  -1  -9    4.86    0.53
   2  -1  -9    5.03    0.49
  -2  -1   9    6.34    0.47
  -2  -1   9    5.11    0.45
  -2  -1   9    5.24    0.45
  -2   1   9    5.04    0.44
   2   1  -9    4.97    0.57
  -2   1   9    5.49    0.54
   2   1  -9    4.82    0.54
  -2   1   9    4.42    0.37
   2   1  -9    5.01    0.49
   2   1  -9    4.86    0.45
  -2   1   9    5.32    0.46
  -1  -1   9    5.55    0.45
   1  -1  -9    5.14    0.41
   1  -1  -9    5.65    0.50
   1  -1  -9    5.38    0.48
  -1  -1   9    5.55    0.30
   1  -1  -9    5.49    0.52
  -1  -1   9    5.89    0.33
   1   1  -9    5.89    0.45
   1   1  -9    5.35    0.44
  -1   1   9    5.56    0.49
  -1   1   9    5.32    0.40
   1   1  -9    5.91    0.52
   1   1  -9    6.02    0.49
  -1   1   9    6.00    0.47
  -1   1   9    5.54    0.39
   0  -1  -9   64.85    1.31
   0  -1   9   64.56    1.35
   0  -1  -9   66.08    1.57
   0  -1   9   66.10    1.16
   0  -1  -9   66.31    1.49
   0  -1  -9   65.88    1.43
   0  -1   9   66.30    1.43
   0  -1   9   65.82    1.53
   0   1   9   66.47    1.43
   0   1  -9   63.57    1.43
   0   1  -9   64.76    1.30
   0   1  -9   64.34    1.55
   0   1   9   64.47    1.38
   0   1  -9   64.83    1.53
   0   1   9   64.87    1.29
   0   1   9   63.88    1.56
   1  -1   9   46.24    1.38
   1  -1   9   44.97    1.22
  -1  -1  -9   46.64    1.30
  -1  -1  -9   45.22    1.15
   1  -1   9   44.68    1.17
  -1  -1  -9   44.52    1.13
   1  -1   9   43.57    1.11
  -1  -1  -9   45.74    1.26
   1  -1   9   45.92    1.33
   1   1   9   45.86    1.26
  -1   1  -9   44.98    1.34
   1   1   9   46.38    1.04
  -1   1  -9   46.65    1.17
   1   1   9   45.70    1.08
  -1   1  -9   46.00    1.32
   1   1   9   43.74    1.19
   1   1   9   45.48    1.27
  -1   1  -9   47.02    1.23
   1   1   9   45.46    1.38
   2  -1   9    6.02    0.68
  -2  -1  -9    5.54    0.56
   2  -1   9    7.06    0.68
   2  -1   9    6.11    0.52
   2  -1   9    6.21    0.63
  -2  -1  -9    5.64    0.60
  -2  -1  -9    6.53    0.53
   2  -1   9    7.87    0.67
   2  -1   9    6.43    0.59
  -2   1  -9    6.13    0.62
  -2   1  -9    6.03    0.65
  -2   1  -9    7.35    0.59
   2   1   9    6.29    0.58
   2   1   9    4.86    0.59
   2   1   9    5.99    0.59
  -3  -1  -9    0.03    0.07
  -3  -1  -9    0.07    0.08
  -3  -1  -9    0.03    0.10
  -3  -1  -9    0.06    0.08
   3  -1   9   -0.04    0.08
  -3  -1  -9    0.03    0.06
  -3   1  -9    0.04    0.09
  -3   1  -9    0.06    0.09
  -3   1  -9   -0.13    0.09
  -3   1  -9    0.01    0.08
  -3   1  -9    0.07    0.08
  -3   1  -9    0.05    0.07
  -3   1  -9    0.14    0.11
   3   1   9    0.15    0.09
  -3   1  -9    0.00    0.08
  -3   1  -9    0.03    0.08
   3   1   9    0.00    0.06
  -4  -1  -9    7.52    0.34
   4  -1   9    7.64    0.34
   4  -1   9    7.01    0.37
  -4  -1  -9    8.46    0.37
  -4  -1  -9    8.32    0.31
   4   1   9    8.19    0.37
  -4   1  -9    7.68    0.34
  -4   1  -9    9.99    0.56
   4   1   9    7.51    0.37
  -4   1  -9    8.18    0.37
   4   1   9    8.25    0.32
  -4   1  -9    8.06    0.35
   4   1   9    8.03    0.33
  -4   1  -9    7.78    0.31
  -5  -1  -9    0.11    0.08
   5  -1   9    0.05    0.07
  -5  -1  -9    0.25    0.08
   5  -1   9    0.01    0.05
  -5  -1  -9    0.02    0.06
   5  -1   9   -0.01    0.05
   5   1   9    0.09    0.07
   5   1   9    0.04    0.06
  -5   1  -9    0.06    0.07
  -5   1  -9   -0.11    0.06
  -5   1  -9    0.04    0.07
   5  -2  -9    0.23    0.08
   5  -2  -9    0.15    0.08
  -5  -2   9    0.14    0.06
   5  -2  -9    0.25    0.09
   5   2  -9    0.16    0.07
   5   2  -9    0.21    0.08
  -5   2   9    0.26    0.08
   5   2  -9    0.20    0.09
   5   2  -9    0.17    0.06
  -5   2   9    0.20    0.07
   5   2  -9    0.35    0.08
  -5   2   9    0.27    0.08
   5   2  -9    0.21    0.08
   5   2  -9    0.23    0.07
   5   2  -9    0.14    0.07
   5   2  -9    0.15    0.07
   4  -2  -9    1.09    0.15
   4  -2  -9    0.80    0.14
   4  -2  -9    1.03    0.17
   4  -2  -9    0.93    0.15
   4   2  -9    1.00    0.14
  -4   2   9    1.19    0.14
   4   2  -9    0.95    0.13
   4   2  -9    0.55    0.13
   4   2  -9    0.76    0.14
  -4   2   9    1.24    0.16
   4   2  -9    0.98    0.16
   4   2  -9    1.00    0.17
  -4   2   9    0.96    0.14
   4   2  -9    0.74    0.11
   4   2  -9    0.76    0.13
   4   2  -9    0.86    0.12
   4   2  -9    1.07    0.14
   3  -2  -9    0.00    0.08
   3  -2  -9    0.04    0.07
   3  -2  -9   -0.07    0.08
   3  -2  -9    0.05    0.08
   3  -2  -9    0.01    0.09
   3  -2  -9   -0.01    0.10
   3   2  -9    0.11    0.07
   3   2  -9    0.02    0.06
   3   2  -9    0.05    0.06
   3   2  -9    0.15    0.09
   3   2  -9    0.07    0.08
   3   2  -9    0.03    0.07
  -3   2   9    0.01    0.06
  -3   2   9    0.07    0.06
   3   2  -9   -0.01    0.07
   3   2  -9    0.06    0.08
   3   2  -9    0.13    0.08
  -2  -2   9    8.02    0.46
   2  -2  -9    7.25    0.61
   2  -2  -9    8.61    0.73
  -2  -2   9    7.60    0.54
  -2  -2   9    7.67    0.61
   2  -2  -9    6.65    0.57
   2   2  -9    7.90    0.69
  -2   2   9    7.65    0.45
  -2   2   9    7.22    0.55
   2   2  -9    6.86    0.69
  -2   2   9    6.91    0.55
   2   2  -9    7.16    0.66
   1  -2  -9    4.17    0.44
   1  -2  -9    4.11    0.48
  -1  -2   9    4.68    0.43
   1  -2  -9    4.47    0.46
  -1  -2   9    4.48    0.36
   1  -2  -9    4.36    0.35
   1   2  -9    5.14    0.45
  -1   2   9    4.78    0.44
  -1   2   9    4.59    0.40
   1   2  -9    3.66    0.41
   1   2  -9    3.78    0.47
  -1   2   9    4.56    0.43
  -1   2   9    4.08    0.42
   1   2  -9    4.34    0.52
   1   2  -9    4.85    0.50
   0  -2  -9   11.00    0.55
   0  -2   9    9.92    0.45
   0  -2  -9    8.82    0.50
   0  -2  -9   10.97    0.63
   0  -2   9    9.61    0.51
   0  -2  -9    9.21    0.46
   0  -2   9    9.87    0.55
   0   2  -9   10.13    0.51
   0   2   9    9.81    0.57
   0   2  -9    9.33    0.48
   0   2   9    9.99    0.44
   0   2  -9    9.25    0.71
   0   2  -9   10.08    0.62
   0   2  -9   10.11    0.56
   0   2   9    9.73    0.49
   0   2   9   10.70    0.54
   1  -2   9    0.48    0.19
   1  -2   9    0.47    0.17
   1  -2   9    0.58    0.19
  -1  -2  -9    0.18    0.18
   1  -2   9    0.62    0.21
  -1  -2  -9    0.61    0.21
  -1  -2  -9    0.30    0.18
   1  -2   9    0.38    0.14
   1   2   9    0.67    0.18
  -1   2  -9    0.34    0.28
  -1   2  -9    0.35    0.21
   1   2   9    0.49    0.18
   1   2   9    0.63    0.31
  -2  -2  -9   10.82    0.71
   2  -2   9   13.08    0.90
   2  -2   9   12.14    1.02
   2  -2   9   10.49    0.85
  -2  -2  -9   10.36    0.79
   2   2   9    9.29    0.89
   2   2   9   11.29    0.85
  -2   2  -9   10.59    0.72
  -2   2  -9   10.64    0.90
  -2   2  -9   10.72    0.90
  -3  -2  -9   29.76    0.72
  -3  -2  -9   30.28    0.71
  -3  -2  -9   30.31    0.72
  -3  -2  -9   28.39    0.71
   3   2   9   29.84    0.72
  -3   2  -9   29.93    0.77
   3   2   9   29.99    0.76
  -3   2  -9   28.51    0.77
  -3   2  -9   29.95    0.76
   3   2   9   30.62    0.71
  -3   2  -9   30.66    0.71
  -3   2  -9   30.72    0.75
   3   2   9   29.51    0.74
  -3   2  -9   30.78    0.77
  -3   2  -9   29.27    0.66
  -3   2  -9   30.71    0.71
  -3   2  -9   29.58    0.74
  -3   2  -9   30.99    0.75
  -3   2  -9   30.21    0.73
  -4  -2  -9    1.26    0.15
   4  -2   9    1.25    0.18
   4  -2   9    1.33    0.18
  -4  -2  -9    1.25    0.18
  -4  -2  -9    1.03    0.15
  -4   2  -9    1.26    0.16
   4   2   9    1.32    0.17
   4   2   9    1.54    0.19
  -4   2  -9    1.15    0.17
  -4   2  -9    1.28    0.18
  -4   2  -9    1.51    0.17
  -4   2  -9    1.48    0.16
   4   2   9    1.55    0.20
  -4   2  -9    1.31    0.18
  -5  -2  -9    0.83    0.10
   5  -2   9    1.03    0.12
  -5  -2  -9    1.22    0.13
   5  -2   9    1.06    0.13
   5  -2   9    1.15    0.12
  -5   2  -9    1.12    0.13
   5   2   9    1.30    0.13
  -5   2  -9    1.26    0.12
   5   2   9    1.11    0.14
   5  -3  -9    0.47    0.09
  -5  -3   9    0.41    0.07
   5  -3  -9    0.62    0.10
   5   3  -9    0.45    0.08
   5   3  -9    0.56    0.09
   5   3  -9    0.44    0.08
   5   3  -9    0.55    0.09
   5   3  -9    0.51    0.09
  -5   3   9    0.47    0.09
  -5   3   9    0.59    0.09
  -5   3   9    0.45    0.07
   5   3  -9    0.53    0.08
   5   3  -9    0.59    0.11
   5   3  -9    0.64    0.10
   4  -3  -9    0.71    0.13
   4  -3  -9    0.78    0.15
   4  -3  -9    0.87    0.16
  -4   3   9    0.79    0.13
   4   3  -9    0.66    0.12
   4   3  -9    0.58    0.11
  -4   3   9    0.92    0.13
   4   3  -9    0.83    0.13
   4   3  -9    0.75    0.14
   4   3  -9    0.92    0.14
  -4   3   9    0.74    0.13
   4   3  -9    0.87    0.12
   4   3  -9    0.67    0.12
   4   3  -9    0.78    0.15
   4   3  -9    0.85    0.13
   3  -3  -9   95.08    1.93
   3  -3  -9   98.66    1.69
   3  -3  -9   97.45    1.59
   3  -3  -9   97.11    1.59
  -3   3   9   97.95    1.55
   3   3  -9   96.44    1.52
   3   3  -9   97.93    1.62
   3   3  -9   98.12    1.59
   3   3  -9   98.73    1.58
   3   3  -9   99.05    1.54
  -3   3   9   97.68    1.60
   3   3  -9   99.89    1.52
   3   3  -9   97.91    1.54
   3   3  -9   95.75    1.45
  -3   3   9   98.58    1.54
   3   3  -9   97.96    1.50
   2  -3  -9   40.71    0.81
   2  -3  -9   40.48    0.91
  -2  -3   9   42.43    1.20
  -2  -3   9   41.38    1.16
   2  -3  -9   41.04    0.88
   2  -3  -9   42.61    1.51
   2   3  -9   40.61    1.47
  -2   3   9   41.39    1.51
   2   3  -9   41.15    0.78
  -2   3   9   39.90    0.79
   2   3  -9   41.48    1.26
   2   3  -9   40.46    0.88
   2   3  -9   40.46    0.79
   2   3  -9   40.11    0.80
   2   3  -9   41.63    0.93
  -2   3   9   41.85    1.32
  -2   3   9   40.87    0.85
  -1  -3   9    2.53    0.33
   1  -3  -9    2.94    0.28
   1  -3  -9    2.30    0.48
  -1  -3   9    3.07    0.33
   1  -3  -9    2.98    0.42
  -1   3   9    2.03    0.38
  -1   3   9    2.12    0.31
   1   3  -9    2.47    0.33
   1   3  -9    2.57    0.33
  -1   3   9    3.10    0.38
   0  -3   9   11.06    0.68
   0  -3  -9   10.18    0.58
   0  -3  -9   10.78    0.83
   0  -3   9   10.78    0.57
   0  -3   9   10.26    0.51
   0  -3  -9   11.06    0.56
   0  -3   9   10.87    0.56
   0   3  -9   10.98    0.82
   0   3  -9   10.04    0.51
   0   3   9   10.45    0.80
   0   3  -9   10.64    0.94
   0   3   9   10.56    0.57
   1  -3   9   12.84    0.63
   1  -3   9   14.05    0.70
   1  -3   9   13.15    0.81
  -1  -3  -9   13.75    0.59
   1  -3   9   13.76    0.68
  -1  -3  -9   12.59    0.68
  -1  -3  -9   13.96    0.79
   1  -3   9   12.75    0.73
  -1   3  -9   14.69    1.04
   1   3   9   13.69    0.82
  -1   3  -9   14.35    1.04
   1   3   9   12.93    0.66
  -1   3  -9   13.64    0.83
   1   3   9   13.06    0.70
  -2  -3  -9   24.76    0.60
  -2  -3  -9   25.71    0.63
  -2  -3  -9   25.16    0.61
  -2  -3  -9   24.77    0.66
   2   3   9   24.58    0.62
  -2   3  -9   23.90    0.65
  -2   3  -9   24.11    0.69
  -2   3  -9   24.10    0.64
  -2   3  -9   25.01    0.68
  -2   3  -9   26.06    0.68
  -2   3  -9   24.35    0.64
   2   3   9   24.85    0.61
  -2   3  -9   24.55    0.62
   2   3   9   24.50    0.63
  -2   3  -9   24.60    0.71
   2   3   9   24.09    0.60
  -2   3  -9   24.40    0.61
  -2   3  -9   24.29    0.58
  -3  -3  -9  166.02    2.42
  -3  -3  -9  167.37    2.42
  -3  -3  -9  168.98    2.44
  -3   3  -9  163.58    2.49
  -3   3  -9  164.38    2.48
  -3   3  -9  161.44    2.45
  -3   3  -9  165.92    2.52
  -3   3  -9  169.94    2.57
  -3   3  -9  165.82    2.43
   3   3   9  166.88    2.47
  -3   3  -9  165.38    2.37
  -3   3  -9  164.47    2.57
  -3   3  -9  171.77    2.44
  -3   3  -9  165.04    2.50
   3   3   9  165.14    2.42
   3   3   9  165.65    2.43
  -4  -3  -9   23.38    0.59
   4  -3   9   22.38    0.56
  -4  -3  -9   22.94    0.56
  -4  -3  -9   23.07    0.50
   4   3   9   23.56    0.56
   4   3   9   23.16    0.60
  -4   3  -9   21.98    0.59
  -4   3  -9   21.79    0.53
  -4   3  -9   23.10    0.61
  -4   3  -9   22.42    0.58
  -4   3  -9   22.26    0.56
  -4   3  -9   23.26    0.56
  -4   3  -9   22.68    0.57
   4  -4  -9    0.31    0.10
   4  -4  -9    0.31    0.10
   4  -4  -9    0.22    0.11
  -4   4   9    0.24    0.09
   4   4  -9    0.33    0.07
   4   4  -9    0.20    0.07
   4   4  -9    0.46    0.10
   4   4  -9    0.43    0.10
   4   4  -9   -0.01    0.06
   4   4  -9    0.27    0.10
   4   4  -9    0.22    0.08
   4   4  -9    0.29    0.08
  -4   4   9    0.20    0.07
   4   4  -9    0.32    0.09
   3  -4  -9    0.11    0.09
   3  -4  -9    0.04    0.09
   3  -4  -9    0.09    0.09
   3   4  -9    0.07    0.08
   3   4  -9    0.00    0.06
   3   4  -9    0.09    0.07
   3   4  -9    0.08    0.07
  -3   4   9   -0.01    0.07
   3   4  -9    0.00    0.07
   3   4  -9    0.06    0.06
  -3   4   9   -0.08    0.06
   3   4  -9    0.10    0.07
  -3   4   9   -0.01    0.07
   3   4  -9    0.14    0.08
   2  -4  -9   -0.01    0.09
   2  -4  -9    0.01    0.10
   2  -4  -9    0.08    0.08
   2  -4  -9    0.15    0.09
  -2   4   9    0.01    0.06
   2   4  -9    0.05    0.07
   2   4  -9   -0.05    0.05
  -2   4   9    0.04    0.08
   2   4  -9    0.01    0.06
   2   4  -9    0.10    0.07
  -2   4   9    0.04    0.07
  -2   4   9   -0.03    0.07
   2   4  -9    0.11    0.08
   2   4  -9   -0.05    0.06
   1  -4  -9    4.43    0.32
   1  -4  -9    4.74    0.33
   1  -4  -9    3.63    0.28
  -1   4   9    4.84    0.31
  -1   4   9    4.39    0.30
  -1   4   9    4.55    0.24
   0  -4  -9   14.29    0.49
   0  -4  -9   14.81    0.44
   0  -4  -9   14.89    0.47
   0  -4   9   15.41    0.92
   0  -4   9   14.74    0.76
   0   4   9   14.24    0.44
   0   4   9   14.01    0.47
   0   4   9   14.88    0.47
  -1  -4  -9    0.12    0.09
  -1  -4  -9    0.02    0.07
  -1  -4  -9   -0.13    0.08
  -1   4  -9   -0.03    0.08
   1   4   9    0.05    0.07
  -1   4  -9   -0.11    0.09
  -1   4  -9    0.08    0.09
  -1   4  -9    0.07    0.07
  -1   4  -9   -0.01    0.07
   1   4   9    0.05    0.08
  -1   4  -9   -0.01    0.08
  -1   4  -9    0.02    0.07
  -1   4  -9    0.13    0.10
   1   4   9   -0.02    0.07
  -1   4  -9    0.04    0.08
   1   4   9    0.05    0.07
  -2  -4  -9    0.15    0.11
  -2  -4  -9    0.54    0.12
  -2  -4  -9   -0.02    0.08
  -2   4  -9    0.12    0.09
  -2   4  -9    0.12    0.10
  -2   4  -9    0.20    0.09
   2   4   9   -0.13    0.06
  -2   4  -9    0.12    0.11
  -2   4  -9    0.04    0.09
  -2   4  -9    0.07    0.09
   2   4   9    0.05    0.08
   2   4   9    0.03    0.07
  -2   4  -9    0.10    0.09
  -2   4  -9    0.00    0.08
  -2   4  -9    0.10    0.11
  -3  -4  -9    1.66    0.19
  -3  -4  -9    1.52    0.17
  -3  -4  -9    1.57    0.18
  -3   4  -9    1.52    0.20
  -3   4  -9    1.78    0.19
  -3   4  -9    1.82    0.24
  -3   4  -9    1.69    0.19
  -3   4  -9    1.58    0.20
   3   4   9    1.71    0.20
  -3   4  -9    1.39    0.18
  -3   4  -9    1.54    0.22
   3   4   9    1.46    0.19
   3   4   9    1.61    0.19
  -3   4  -9    1.49    0.21
  -3   4  -9    1.44    0.19
   4  -4   9    7.16    0.29
  -4  -4  -9    6.69    0.26
  -4  -4  -9    6.11    0.27
  -4  -4  -9    6.48    0.21
   4  -4   9    6.29    0.24
  -4   4  -9    6.90    0.26
  -4   4  -9    6.41    0.26
   4   4   9    6.66    0.26
  -4   4  -9    6.35    0.29
  -4   4  -9    6.53    0.25
  -4   4  -9    6.34    0.26
   4   4   9    6.40    0.24
   4   4   9    7.15    0.27
  -4   4  -9    7.02    0.29
  -4   4  -9    6.62    0.27
   4  -5  -9    2.29    0.18
   4  -5  -9    2.07    0.16
   4   5  -9    2.50    0.14
   4   5  -9    2.50    0.16
   4   5  -9    2.33    0.15
   4   5  -9    2.29    0.17
  -4   5   9    2.57    0.18
   4   5  -9    1.98    0.14
   4   5  -9    2.26    0.16
   4   5  -9    2.35    0.17
  -4   5   9    2.28    0.16
   3  -5  -9    0.20    0.12
   3  -5  -9    0.07    0.09
   3  -5  -9    0.20    0.08
  -3   5   9    0.07    0.08
   3   5  -9   -0.02    0.07
  -3   5   9    0.20    0.09
   3   5  -9    0.10    0.07
  -3   5   9    0.07    0.06
   3   5  -9    0.21    0.09
   3   5  -9    0.04    0.07
   3   5  -9    0.14    0.08
   3   5  -9    0.09    0.06
   3   5  -9    0.09    0.08
   2  -5  -9    3.74    0.28
   2  -5  -9    4.19    0.31
   2  -5  -9    3.98    0.32
  -2   5   9    4.87    0.30
   2   5  -9    4.26    0.20
  -2   5   9    4.66    0.25
   2   5  -9    4.43    0.23
   2   5  -9    4.56    0.23
   2   5  -9    4.49    0.25
   2   5  -9    4.60    0.23
  -2   5   9    4.42    0.32
   1  -5  -9   12.18    0.47
   1  -5  -9   11.32    0.46
   1  -5  -9   13.14    0.48
   1  -5  -9   11.60    0.39
  -1   5   9   12.65    0.46
  -1   5   9   12.69    0.43
  -1   5   9   12.33    0.41
   0  -5  -9    3.92    0.31
   0  -5  -9    3.50    0.26
   0   5  -9    3.78    0.28
   0   5  -9    3.82    0.26
   0   5   9    3.56    0.19
   0   5   9    3.57    0.25
   0   5   9    3.54    0.29
   0   5  -9    3.70    0.28
   0   5  -9    4.45    0.48
   0   5   9    3.75    0.26
   0   5   9    3.85    0.29
  -1  -5  -9    6.17    0.28
  -1  -5  -9    5.88    0.31
  -1  -5  -9    5.92    0.34
  -1   5  -9    5.71    0.32
   1   5   9    6.17    0.31
  -1   5  -9    5.52    0.33
   1   5   9    6.01    0.32
  -1   5  -9    6.08    0.30
   1   5   9    6.44    0.32
  -1   5  -9    5.71    0.27
  -1   5  -9    5.71    0.31
  -1   5  -9    5.98    0.34
  -1   5  -9    5.82    0.40
  -1   5  -9    6.04    0.32
  -2  -5  -9    2.76    0.24
  -2  -5  -9    2.49    0.21
  -2  -5  -9    3.20    0.25
  -2   5  -9    2.46    0.24
  -2   5  -9    2.83    0.26
  -2   5  -9    2.73    0.26
   2   5   9    2.85    0.25
   2   5   9    3.02    0.25
  -2   5  -9    2.93    0.28
   2   5   9    2.60    0.24
   2   5   9    2.78    0.24
  -2   5  -9    2.89    0.23
  -2   5  -9    2.79    0.28
  -2   5  -9    3.04    0.25
  -2   5  -9    2.77    0.25
  -3  -5  -9    0.40    0.11
  -3  -5  -9    0.31    0.09
  -3  -5  -9    0.25    0.09
  -3   5  -9    0.37    0.11
   3   5   9    0.40    0.10
   3   5   9    0.34    0.10
  -3   5  -9    0.40    0.11
  -3   5  -9    0.36    0.10
  -3   5  -9    0.31    0.09
  -3   5  -9    0.48    0.13
  -3   5  -9    0.50    0.11
  -3   5  -9    0.56    0.12
  -3   5  -9    0.40    0.13
  -3   5  -9    0.51    0.13
   3   5   9    0.51    0.11
   4  -5   9    0.16    0.09
   4  -5   9    0.05    0.05
  -4  -5  -9    0.14    0.05
  -4  -5  -9    0.07    0.06
  -4   5  -9    0.30    0.06
  -4   5  -9    0.24    0.07
   4   5   9    0.18    0.06
  -4   5  -9    0.12    0.06
   4   5   9    0.28    0.06
  -4   5  -9    0.13    0.06
   3  -6  -9    2.58    0.21
   3  -6  -9    2.09    0.18
  -3   6   9    2.39    0.17
   3   6  -9    2.04    0.15
   3   6  -9    2.35    0.17
   3   6  -9    2.31    0.14
   3   6  -9    2.09    0.15
  -3   6   9    2.49    0.17
   3   6  -9    2.33    0.16
   2  -6  -9    2.05    0.21
   2  -6  -9    1.92    0.20
   2  -6  -9    2.67    0.23
  -2   6   9    2.38    0.19
   2   6  -9    2.32    0.16
  -2   6   9    2.21    0.19
   2   6  -9    2.23    0.17
  -2   6   9    2.58    0.23
   2   6  -9    2.48    0.17
   2   6  -9    2.80    0.20
   1  -6  -9    0.09    0.08
   1  -6  -9    0.11    0.10
  -1   6   9    0.07    0.08
  -1   6   9    0.13    0.09
  -1   6   9    0.01    0.08
  -1   6   9    0.10    0.08
   0  -6  -9    2.96    0.23
   0  -6  -9    2.77    0.26
   0  -6  -9    3.60    0.26
   0   6   9    3.27    0.24
   0   6   9    2.98    0.25
   0   6  -9    3.06    0.21
   0   6  -9    3.34    0.24
   0   6   9    3.24    0.29
   0   6  -9    3.68    0.24
   0   6  -9    3.13    0.24
  -1  -6  -9    4.57    0.24
  -1  -6  -9    4.93    0.28
  -1  -6  -9    4.68    0.26
  -1   6  -9    4.03    0.28
   1   6   9    4.26    0.29
   1   6   9    4.62    0.31
  -1   6  -9    4.65    0.26
  -1   6  -9    4.04    0.24
  -1   6  -9    4.52    0.25
   1   6   9    4.09    0.27
  -1   6  -9    4.44    0.28
  -1   6  -9    4.68    0.26
  -2  -6  -9    2.54    0.20
  -2  -6  -9    2.97    0.22
  -2  -6  -9    2.46    0.19
  -2   6  -9    3.10    0.24
  -2   6  -9    3.08    0.20
  -2   6  -9    3.13    0.26
  -2   6  -9    2.76    0.24
   2   6   9    2.89    0.21
   2   6   9    2.89    0.21
   2   6   9    3.30    0.24
  -2   6  -9    3.03    0.21
  -2   6  -9    3.20    0.24
  -2   6  -9    2.94    0.23
  -2   6  -9    3.06    0.23
  -3  -6  -9    3.09    0.16
  -3  -6  -9    2.37    0.16
  -3   6  -9    3.02    0.16
  -3   6  -9    2.98    0.18
  -3   6  -9    2.97    0.17
   3   6   9    3.27    0.16
   3   6   9    2.87    0.18
  -3   6  -9    2.80    0.17
  -3   6  -9    2.91    0.15
  -3   6  -9    2.71    0.18
  -3   6  -9    3.06    0.20
   3   6   9    2.79    0.13
   2  -7  -9    0.03    0.06
   2  -7  -9    0.02    0.06
  -2   7   9   -0.04    0.04
  -2   7   9    0.01    0.05
  -2   7   9   -0.10    0.04
   1  -7  -9   -0.02    0.06
   1  -7  -9    0.04    0.08
   1  -7  -9   -0.05    0.08
  -1   7   9    0.09    0.06
  -1   7   9    0.08    0.06
   0  -7  -9    2.01    0.15
   0  -7  -9    2.35    0.18
   0  -7  -9    2.42    0.21
   0   7   9    2.31    0.19
   0   7   9    1.78    0.16
   0   7  -9    1.99    0.14
   0   7  -9    2.23    0.17
   0   7  -9    2.10    0.15
   0   7   9    1.82    0.15
  -1  -7  -9    0.54    0.10
  -1  -7  -9    0.57    0.10
  -1  -7  -9    0.26    0.09
  -1   7  -9    0.51    0.08
   1   7   9    0.39    0.09
   1   7   9    0.24    0.07
  -1   7  -9    0.42    0.09
  -1   7  -9    0.58    0.10
  -1   7  -9    0.43    0.10
  -1   7  -9    0.48    0.11
  -2  -7  -9    0.00    0.04
  -2  -7  -9   -0.09    0.05
  -2   7  -9    0.06    0.06
  -2   7  -9    0.00    0.05
  -2   7  -9   -0.10    0.05
   2   7   9    0.10    0.06
  -2   7  -9    0.12    0.06
  -2   7  -9   -0.04    0.06
  -2   7  -9    0.03    0.05
   5   0 -10    0.77    0.13
   5   0 -10    0.54    0.11
  -5   0  10    0.65    0.11
   5   0 -10    0.62    0.12
  -5   0  10    0.56    0.09
   5   0 -10    0.54    0.10
   4   0 -10   19.85    0.59
   4   0 -10   20.50    0.58
   4   0 -10   20.18    0.53
   4   0 -10   20.52    0.48
   4   0 -10   19.95    0.56
   4   0 -10   20.10    0.56
   4   0 -10   20.03    0.52
   4   0 -10   20.46    0.57
   4   0 -10   20.56    0.53
   4   0 -10   20.69    0.49
   3   0 -10   45.58    0.84
   3   0 -10   46.15    0.95
   3   0 -10   46.76    0.86
   3   0 -10   45.41    0.91
   3   0 -10   45.82    0.83
   3   0 -10   46.35    0.84
   3   0 -10   46.43    0.91
   3   0 -10   45.86    0.93
   3   0 -10   45.41    0.84
   3   0 -10   45.11    0.88
   3   0 -10   46.51    0.89
   2   0 -10   29.32    1.13
  -2   0  10   30.26    0.90
  -2   0  10   31.33    0.94
   2   0 -10   30.84    1.07
   2   0 -10   30.07    1.04
  -2   0  10   29.40    1.03
   1   0 -10   26.93    0.90
   1   0 -10   25.05    0.89
  -1   0  10   25.78    0.86
  -1   0  10   24.80    0.96
  -1   0  10   25.22    0.76
   1   0 -10   25.86    0.99
   1   0 -10   25.33    0.95
   0   0 -10   93.58    1.89
   0   0  10   95.92    1.89
   0   0  10   97.14    2.08
   0   0 -10   96.50    1.75
   0   0 -10   98.19    2.02
   0   0  10   96.56    1.87
   0   0  10   93.84    1.65
   0   0 -10   93.48    2.07
  -1   0 -10   58.91    1.43
   1   0  10   58.23    1.32
   1   0  10   56.89    1.46
   1   0  10   56.42    1.39
   1   0  10   56.35    1.60
  -1   0 -10   60.21    1.62
   1   0  10   59.97    1.66
  -1   0 -10   57.27    1.35
  -1   0 -10   57.68    1.44
   1   0  10   56.69    1.37
   2   0  10   29.35    1.07
  -2   0 -10   30.62    1.05
  -2   0 -10   30.26    1.19
   2   0  10   28.83    1.15
  -2   0 -10   30.06    1.17
   2   0  10   28.92    1.28
   2   0  10   30.63    1.02
   2   0  10   29.96    1.28
  -3   0 -10   17.63    0.53
  -3   0 -10   18.86    0.56
   3   0  10   19.24    0.56
  -3   0 -10   19.37    0.54
  -3   0 -10   19.49    0.61
  -3   0 -10   18.47    0.68
  -3   0 -10   18.83    0.55
  -3   0 -10   18.69    0.54
   4   0  10   36.22    0.87
  -4   0 -10   36.06    0.76
  -4   0 -10   35.19    0.78
   4   0  10   34.82    0.76
  -4   0 -10   35.13    0.81
   4   0  10   36.05    0.79
  -4   0 -10   35.32    0.72
   5   0  10    4.42    0.22
  -5   0 -10    4.52    0.22
   5   0  10    4.05    0.18
  -5   0 -10    4.45    0.19
   5   0  10    4.19    0.20
   5  -1 -10   -0.04    0.06
  -5  -1  10    0.02    0.06
   5  -1 -10    0.03    0.07
  -5  -1  10    0.00    0.05
   5  -1 -10    0.11    0.08
   5   1 -10    0.01    0.06
   5   1 -10    0.05    0.06
   5   1 -10    0.11    0.06
   5   1 -10    0.02    0.06
   5   1 -10   -0.05    0.05
   5   1 -10    0.01    0.06
  -5   1  10    0.06    0.06
  -5   1  10    0.00    0.05
   5   1 -10    0.00    0.07
   5   1 -10   -0.03    0.05
   4  -1 -10    1.31    0.15
   4  -1 -10    1.33    0.17
   4  -1 -10    1.14    0.17
   4  -1 -10    1.37    0.17
   4  -1 -10    1.69    0.18
   4  -1 -10    1.53    0.18
   4  -1 -10    1.48    0.19
   4   1 -10    1.35    0.16
   4   1 -10    1.62    0.20
   4   1 -10    1.24    0.17
   4   1 -10    1.23    0.14
   4   1 -10    1.31    0.15
  -4   1  10    1.47    0.17
   4   1 -10    1.36    0.19
   4   1 -10    1.51    0.18
   4   1 -10    1.36    0.16
   4   1 -10    1.51    0.18
   4   1 -10    1.38    0.15
   3  -1 -10   10.14    0.34
   3  -1 -10   11.16    0.36
   3  -1 -10   10.63    0.40
   3  -1 -10   10.77    0.39
   3  -1 -10   10.94    0.41
   3  -1 -10   10.92    0.39
   3  -1 -10   11.00    0.39
   3  -1 -10   10.69    0.42
   3  -1 -10   10.75    0.36
   3   1 -10   10.77    0.35
   3   1 -10   10.36    0.38
   3   1 -10   10.89    0.37
   3   1 -10   10.88    0.39
   3   1 -10   11.00    0.42
   3   1 -10   10.61    0.39
   3   1 -10   10.71    0.37
   3   1 -10   10.83    0.39
   3   1 -10   10.68    0.34
  -3   1  10    9.61    0.33
   3   1 -10   10.64    0.34
  -2  -1  10    9.24    0.50
  -2  -1  10    9.70    0.49
   2  -1 -10    8.90    0.78
   2  -1 -10    8.27    0.72
   2  -1 -10    9.66    0.68
  -2  -1  10    9.64    0.58
  -2   1  10    9.86    0.70
  -2   1  10    9.07    0.52
  -2   1  10    9.15    0.51
   2   1 -10    8.53    0.73
   2   1 -10   10.47    0.56
   2   1 -10    9.37    0.52
   2   1 -10    7.67    0.72
  -2   1  10    9.05    0.71
   1  -1 -10    1.15    0.27
   1  -1 -10    1.14    0.28
  -1  -1  10    1.41    0.20
  -1  -1  10    1.59    0.27
   1  -1 -10    1.29    0.27
   1  -1 -10    0.90    0.21
  -1  -1  10    1.46    0.31
   1   1 -10    1.73    0.30
   1   1 -10    1.46    0.30
  -1   1  10    1.93    0.28
  -1   1  10    1.39    0.27
   1   1 -10    1.68    0.26
  -1   1  10    0.88    0.24
   1   1 -10    1.15    0.22
  -1   1  10    1.45    0.22
   0  -1 -10  142.22    2.72
   0  -1  10  143.00    2.51
   0  -1 -10  140.49    2.59
   0  -1 -10  141.37    2.36
   0  -1  10  144.35    2.70
   0  -1 -10  144.16    2.51
   0  -1  10  140.24    2.43
   0   1 -10  134.09    2.64
   0   1 -10  138.88    2.33
   0   1  10  141.14    2.46
   0   1 -10  140.11    2.52
   0   1  10  137.76    2.33
   0   1  10  139.13    2.72
   0   1  10  145.67    2.54
   0   1 -10  139.34    2.67
   1  -1  10    9.29    0.58
  -1  -1 -10    8.19    0.60
   1  -1  10    9.35    0.64
   1  -1  10    9.24    0.65
  -1  -1 -10    9.04    0.70
   1  -1  10    9.04    0.76
   1  -1  10    9.99    0.63
  -1  -1 -10    9.80    0.54
  -1  -1 -10    8.74    0.54
  -1   1 -10    8.98    0.60
  -1   1 -10    9.50    0.66
   1   1  10    9.36    0.56
  -1   1 -10    8.65    0.71
   1   1  10    8.68    0.56
   1   1  10    9.66    0.46
  -1   1 -10    9.20    0.54
   1   1  10    8.76    0.53
   1   1  10    9.31    0.67
   1   1  10    8.66    0.66
   2  -1  10   73.33    1.83
   2  -1  10   73.57    1.75
  -2  -1 -10   76.65    1.98
  -2  -1 -10   77.50    1.75
  -2  -1 -10   77.48    1.94
   2  -1  10   72.51    1.86
   2  -1  10   76.21    1.96
   2  -1  10   76.32    2.08
   2  -1  10   76.87    2.19
   2   1  10   75.20    1.91
   2   1  10   75.93    2.22
  -2   1 -10   76.73    2.07
  -2   1 -10   74.64    1.77
   2   1  10   77.26    1.90
  -2   1 -10   79.86    2.09
  -3  -1 -10    0.05    0.09
  -3  -1 -10    0.17    0.10
  -3   1 -10    0.11    0.11
  -3   1 -10    0.04    0.09
  -3   1 -10    0.09    0.09
  -3   1 -10    0.05    0.09
   3   1  10    0.02    0.08
  -4  -1 -10    4.00    0.24
  -4  -1 -10    4.04    0.29
   4  -1  10    4.12    0.29
   4  -1  10    4.10    0.33
  -4  -1 -10    3.72    0.26
  -4   1 -10    3.91    0.27
  -4   1 -10    3.92    0.25
   4   1  10    4.06    0.29
  -4   1 -10    3.73    0.28
   4   1  10    4.01    0.33
  -4   1 -10    3.70    0.26
   4   1  10    3.66    0.29
  -4   1 -10    3.97    0.30
   4   1  10    3.71    0.26
  -5  -1 -10    0.52    0.08
   5  -1  10    0.79    0.11
   5  -1  10    0.62    0.10
  -5  -1 -10    0.64    0.11
  -5  -1 -10    0.69    0.09
   5   1  10    0.87    0.12
  -5   1 -10    0.78    0.11
  -5   1 -10    0.65    0.09
   5   1  10    0.45    0.09
  -5   1 -10    0.77    0.10
   5  -2 -10    2.01    0.17
  -5  -2  10    1.95    0.13
   5  -2 -10    2.05    0.15
   5  -2 -10    2.05    0.15
   5   2 -10    2.05    0.18
   5   2 -10    1.97    0.16
  -5   2  10    1.93    0.15
   5   2 -10    1.94    0.14
   5   2 -10    2.18    0.16
   5   2 -10    1.92    0.15
  -5   2  10    2.23    0.17
   5   2 -10    2.09    0.15
   5   2 -10    2.00    0.14
   5   2 -10    2.23    0.17
   4  -2 -10    1.01    0.16
   4  -2 -10    0.93    0.14
   4  -2 -10    1.11    0.15
  -4   2  10    1.04    0.15
   4   2 -10    0.83    0.13
   4   2 -10    1.31    0.15
   4   2 -10    1.24    0.15
   4   2 -10    1.21    0.16
   4   2 -10    0.93    0.12
   4   2 -10    1.23    0.17
   4   2 -10    1.09    0.17
   4   2 -10    0.97    0.13
  -4   2  10    1.44    0.17
   4   2 -10    0.97    0.14
   4   2 -10    1.25    0.16
   3  -2 -10   26.81    0.62
   3  -2 -10   25.77    0.63
   3  -2 -10   26.75    0.68
   3  -2 -10   26.86    0.67
   3  -2 -10   27.27    0.74
   3  -2 -10   26.66    0.65
   3   2 -10   26.64    0.59
   3   2 -10   26.66    0.69
   3   2 -10   26.28    0.65
   3   2 -10   27.09    0.62
  -3   2  10   26.71    0.61
   3   2 -10   26.68    0.63
  -3   2  10   27.39    0.63
   3   2 -10   26.57    0.64
   3   2 -10   26.48    0.60
   3   2 -10   26.68    0.69
   3   2 -10   25.75    0.58
   3   2 -10   25.95    0.64
  -2  -2  10    0.01    0.10
   2  -2 -10   -0.15    0.19
  -2  -2  10    0.09    0.16
   2  -2 -10    0.32    0.13
   2  -2 -10   -0.01    0.09
  -2  -2  10    0.01    0.12
  -2   2  10    0.02    0.13
   2   2 -10   -0.06    0.23
   2   2 -10    0.02    0.26
  -2   2  10    0.09    0.05
   2   2 -10   -0.14    0.17
  -2   2  10    0.12    0.13
  -1  -2  10    8.04    0.72
  -1  -2  10    7.25    0.48
  -1  -2  10    7.57    0.57
   1  -2 -10    6.76    0.59
   1  -2 -10    6.68    0.59
   1  -2 -10    6.92    0.63
   1   2 -10    6.73    0.56
  -1   2  10    7.30    0.60
  -1   2  10    6.76    0.55
  -1   2  10    6.33    0.49
   1   2 -10    6.82    0.56
   1   2 -10    6.41    0.57
  -1   2  10    7.19    0.60
   0  -2 -10   61.96    1.48
   0  -2  10   60.56    1.60
   0  -2  10   61.91    1.47
   0  -2 -10   61.88    1.68
   0  -2  10   60.39    1.57
   0  -2 -10   61.67    1.39
   0   2 -10   60.13    1.33
   0   2 -10   60.40    1.52
   0   2  10   63.67    1.58
   0   2  10   60.99    1.41
   0   2 -10   57.07    1.62
   0   2 -10   59.81    1.64
   0   2  10   57.51    1.60
   1  -2  10    1.72    0.39
  -1  -2 -10    1.41    0.23
   1  -2  10    1.95    0.35
   1  -2  10    1.69    0.31
  -1  -2 -10    2.10    0.37
   1  -2  10    1.48    0.29
  -1  -2 -10    1.71    0.35
   1  -2  10    1.32    0.25
  -1   2 -10    1.56    0.25
   1   2  10    1.36    0.38
  -1   2 -10    1.33    0.33
   1   2  10    1.58    0.32
  -1   2 -10    1.54    0.21
  -1   2 -10    1.37    0.24
  -2  -2 -10    7.19    0.31
  -2  -2 -10    7.80    0.35
  -2  -2 -10    7.56    0.32
  -2  -2 -10    7.21    0.33
  -2  -2 -10    7.57    0.34
  -2   2 -10    7.39    0.34
  -2   2 -10    7.57    0.32
  -2   2 -10    6.87    0.36
   2   2  10    7.28    0.30
  -2   2 -10    7.24    0.35
   2   2  10    7.26    0.31
  -2   2 -10    7.21    0.32
  -2   2 -10    6.93    0.33
  -2   2 -10    7.36    0.34
  -2   2 -10    7.04    0.33
  -2   2 -10    6.93    0.37
  -2   2 -10    7.29    0.35
  -3  -2 -10    4.96    0.28
  -3  -2 -10    5.01    0.28
  -3  -2 -10    5.07    0.29
  -3   2 -10    4.90    0.34
   3   2  10    4.37    0.30
  -3   2 -10    5.21    0.34
  -3   2 -10    4.49    0.31
  -3   2 -10    5.08    0.35
  -3   2 -10    4.39    0.28
   3   2  10    5.46    0.37
  -3   2 -10    4.71    0.31
  -3   2 -10    4.64    0.36
  -3   2 -10    4.97    0.36
  -3   2 -10    4.91    0.34
  -3   2 -10    4.95    0.33
  -3   2 -10    5.12    0.36
   3   2  10    3.92    0.32
   4  -2  10    0.89    0.16
  -4  -2 -10    1.03    0.12
  -4  -2 -10    0.67    0.13
  -4  -2 -10    0.75    0.14
   4  -2  10    0.93    0.15
   4   2  10    0.77    0.13
  -4   2 -10    1.04    0.14
  -4   2 -10    0.81    0.13
   4   2  10    0.61    0.14
  -4   2 -10    0.90    0.15
   4   2  10    0.95    0.16
  -4   2 -10    0.89    0.14
  -4   2 -10    0.97    0.15
  -4   2 -10    0.94    0.17
  -5  -2 -10    1.02    0.11
   5  -2  10    0.74    0.09
   5   2  10    0.84    0.10
  -5   2 -10    0.77    0.11
  -5   2 -10    0.94    0.11
   5  -3 -10    1.46    0.13
   5  -3 -10    1.46    0.12
  -5  -3  10    1.42    0.10
   5   3 -10    1.43    0.13
   5   3 -10    1.37    0.11
  -5   3  10    1.54    0.13
  -5   3  10    1.52    0.13
   5   3 -10    1.45    0.12
   5   3 -10    1.50    0.13
   5   3 -10    1.46    0.11
   5   3 -10    1.23    0.11
   5   3 -10    1.30    0.11
   5   3 -10    1.54    0.12
   4  -3 -10    6.03    0.29
   4  -3 -10    5.50    0.27
   4  -3 -10    5.29    0.29
  -4   3  10    5.24    0.25
   4   3 -10    5.76    0.28
  -4   3  10    5.41    0.27
  -4   3  10    5.78    0.26
   4   3 -10    5.85    0.27
   4   3 -10    5.64    0.25
   4   3 -10    5.34    0.26
   4   3 -10    5.53    0.29
   4   3 -10    5.29    0.21
   4   3 -10    6.10    0.28
   4   3 -10    5.59    0.24
   4   3 -10    5.49    0.24
   3  -3 -10    5.95    0.30
   3  -3 -10    5.14    0.34
   3  -3 -10    6.07    0.36
   3  -3 -10    5.72    0.30
   3   3 -10    5.87    0.25
   3   3 -10    6.06    0.28
   3   3 -10    5.88    0.27
   3   3 -10    5.77    0.29
   3   3 -10    6.13    0.26
   3   3 -10    5.59    0.27
   3   3 -10    5.63    0.28
  -3   3  10    6.19    0.31
   3   3 -10    6.03    0.29
   3   3 -10    6.02    0.31
  -3   3  10    5.59    0.27
  -3   3  10    6.39    0.29
   2  -3 -10    3.78    0.25
   2  -3 -10    3.81    0.30
   2  -3 -10    3.77    0.27
   2  -3 -10    3.73    0.26
   2   3 -10    3.75    0.28
   2   3 -10    3.89    0.25
   2   3 -10    4.09    0.28
   2   3 -10    4.37    0.28
   2   3 -10    4.00    0.20
  -2   3  10    4.65    0.31
   2   3 -10    4.28    0.26
   2   3 -10    4.11    0.27
  -2   3  10    4.25    0.27
   1  -3 -10    0.19    0.20
   1  -3 -10   -0.35    0.27
  -1  -3  10   -0.04    0.12
  -1  -3  10   -0.09    0.15
  -1   3  10    0.05    0.11
  -1   3  10   -0.04    0.10
  -1   3  10    0.21    0.19
   0  -3  10    6.68    0.51
   0  -3 -10    5.31    0.46
   0  -3  10    6.68    0.57
   0  -3 -10    5.69    0.56
   0  -3  10    6.01    0.55
   0  -3  10    5.97    0.64
   0  -3 -10    4.36    0.55
   0   3  10    5.19    0.60
   0   3 -10    5.74    0.62
   0   3  10    5.48    0.52
   0   3 -10    6.52    0.48
   1  -3  10    0.09    0.17
  -1  -3 -10    0.04    0.07
  -1  -3 -10   -0.05    0.08
   1  -3  10    0.08    0.20
   1  -3  10    0.09    0.19
   1  -3  10   -0.04    0.14
  -1  -3 -10    0.04    0.22
   1  -3  10    0.10    0.15
  -1  -3 -10   -0.06    0.18
   1   3  10   -0.20    0.09
   1   3  10    0.00    0.16
  -1   3 -10    0.33    0.12
  -1   3 -10   -0.04    0.08
  -1   3 -10    0.14    0.09
  -1   3 -10    0.42    0.26
  -1   3 -10    0.25    0.14
  -1   3 -10    0.15    0.09
   1   3  10    0.09    0.17
   1   3  10    0.03    0.06
  -1   3 -10   -0.08    0.06
  -1   3 -10   -0.04    0.13
  -1   3 -10    0.19    0.15
   1   3  10    0.06    0.08
  -2  -3 -10    2.83    0.24
  -2  -3 -10    2.63    0.23
  -2  -3 -10    2.40    0.21
  -2  -3 -10    2.74    0.26
  -2   3 -10    2.79    0.28
   2   3  10    2.89    0.25
  -2   3 -10    2.99    0.26
  -2   3 -10    2.69    0.26
  -2   3 -10    2.54    0.23
   2   3  10    2.80    0.24
   2   3  10    3.07    0.25
  -2   3 -10    3.06    0.26
  -2   3 -10    3.05    0.29
  -2   3 -10    2.44    0.23
  -2   3 -10    3.31    0.30
  -2   3 -10    2.82    0.26
   2   3  10    2.53    0.24
  -3  -3 -10  137.70    2.05
  -3  -3 -10  140.14    2.08
  -3  -3 -10  137.19    2.07
  -3   3 -10  135.19    2.19
  -3   3 -10  137.01    2.07
  -3   3 -10  137.43    2.10
  -3   3 -10  137.23    2.13
  -3   3 -10  136.25    2.20
   3   3  10  136.14    2.10
   3   3  10  140.32    2.07
  -3   3 -10  141.20    2.13
  -3   3 -10  134.98    2.13
   3   3  10  137.16    2.07
  -3   3 -10  120.92    2.03
  -3   3 -10  135.11    2.14
  -3   3 -10  137.53    2.00
  -4  -3 -10   17.06    0.46
  -4  -3 -10   17.59    0.49
   4  -3  10   17.98    0.47
  -4   3 -10   16.46    0.48
   4   3  10   17.02    0.45
  -4   3 -10   17.51    0.50
  -4   3 -10   17.14    0.44
   4   3  10   17.37    0.49
  -4   3 -10   16.81    0.46
  -4   3 -10   17.06    0.47
  -4   3 -10   16.87    0.45
  -4   3 -10   17.80    0.48
   4  -4 -10    0.99    0.13
   4  -4 -10    1.07    0.14
   4  -4 -10    1.03    0.16
   4   4 -10    1.13    0.12
  -4   4  10    1.09    0.14
   4   4 -10    1.03    0.13
   4   4 -10    1.08    0.14
   4   4 -10    1.05    0.11
   4   4 -10    1.11    0.14
   4   4 -10    1.16    0.15
  -4   4  10    0.91    0.12
  -4   4  10    1.15    0.14
   4   4 -10    1.17    0.12
   4   4 -10    1.13    0.12
   4   4 -10    1.13    0.14
   3  -4 -10    0.42    0.11
   3  -4 -10    0.16    0.12
   3  -4 -10    0.17    0.09
   3   4 -10    0.12    0.08
   3   4 -10    0.34    0.09
   3   4 -10    0.27    0.08
  -3   4  10    0.40    0.10
   3   4 -10    0.22    0.09
   3   4 -10    0.27    0.09
   3   4 -10    0.53    0.11
  -3   4  10    0.20    0.08
   3   4 -10    0.29    0.08
  -3   4  10    0.24    0.09
   2  -4 -10    0.10    0.09
   2  -4 -10    0.00    0.09
   2  -4 -10   -0.03    0.07
   2  -4 -10   -0.07    0.09
  -2   4  10    0.00    0.06
   2   4 -10    0.02    0.06
   2   4 -10    0.02    0.06
  -2   4  10   -0.04    0.06
   2   4 -10   -0.05    0.06
  -2   4  10   -0.15    0.06
   2   4 -10    0.00    0.06
   2   4 -10    0.07    0.07
  -2   4  10    0.00    0.08
   1  -4 -10    7.55    0.35
   1  -4 -10    8.34    0.38
   1  -4 -10    7.53    0.37
  -1   4  10    7.86    0.35
  -1   4  10    7.65    0.30
  -1   4  10    8.00    0.34
   0  -4 -10   19.53    0.54
   0  -4 -10   20.37    0.62
   0  -4 -10   19.55    0.57
   0   4  10   19.62    0.56
   0   4 -10   19.04    0.56
   0   4  10   19.31    0.57
   0   4 -10   19.27    0.60
   0   4  10   19.78    0.53
  -1  -4 -10   67.18    1.20
  -1  -4 -10   68.21    1.28
  -1  -4 -10   67.46    1.16
   1   4  10   66.66    1.21
  -1   4 -10   66.29    1.22
  -1   4 -10   66.18    1.19
  -1   4 -10   67.43    1.27
  -1   4 -10   66.86    1.33
   1   4  10   65.35    1.22
  -1   4 -10   65.25    1.29
  -1   4 -10   68.01    1.19
   1   4  10   67.47    1.21
  -1   4 -10   66.06    1.22
  -1   4 -10   67.12    1.20
   1   4  10   65.16    1.15
  -2  -4 -10    5.67    0.32
  -2  -4 -10    5.50    0.28
  -2  -4 -10    5.88    0.30
  -2  -4 -10    5.38    0.30
   2   4  10    5.25    0.34
  -2   4 -10    5.40    0.30
   2   4  10    5.29    0.28
  -2   4 -10    5.72    0.35
  -2   4 -10    5.09    0.35
   2   4  10    6.05    0.30
  -2   4 -10    5.34    0.26
  -2   4 -10    5.54    0.31
  -2   4 -10    5.21    0.34
  -2   4 -10    5.71    0.33
  -2   4 -10    5.50    0.34
  -2   4 -10    5.80    0.41
  -3  -4 -10    0.31    0.10
  -3  -4 -10    0.10    0.09
  -3  -4 -10    0.27    0.10
  -3   4 -10    0.24    0.11
   3   4  10    0.30    0.11
  -3   4 -10    0.17    0.09
   3   4  10    0.26    0.09
  -3   4 -10    0.23    0.11
  -3   4 -10    0.26    0.12
  -3   4 -10    0.38    0.11
   3   4  10    0.35    0.11
  -3   4 -10    0.23    0.10
  -3   4 -10    0.20    0.10
  -3   4 -10    0.23    0.12
  -3   4 -10    0.22    0.10
  -4  -4 -10    0.40    0.08
   4  -4  10    0.23    0.07
  -4  -4 -10    0.12    0.07
   4  -4  10    0.13    0.08
  -4   4 -10    0.34    0.08
  -4   4 -10    0.18    0.08
  -4   4 -10    0.33    0.10
  -4   4 -10    0.24    0.07
   4   4  10    0.28    0.08
   4   4  10    0.31    0.08
  -4   4 -10    0.28    0.09
   4   4  10    0.20    0.07
  -4   4 -10    0.22    0.08
  -4   4 -10    0.19    0.08
   4  -5 -10    4.27    0.18
   4  -5 -10    4.24    0.21
   4   5 -10    4.20    0.16
   4   5 -10    4.09    0.16
   4   5 -10    3.96    0.17
   4   5 -10    4.15    0.16
  -4   5  10    3.96    0.17
  -4   5  10    4.14    0.18
   4   5 -10    3.83    0.16
   4   5 -10    4.18    0.18
   3  -5 -10    5.06    0.30
   3  -5 -10    4.71    0.27
   3  -5 -10    3.85    0.24
   3   5 -10    4.58    0.22
   3   5 -10    4.58    0.20
  -3   5  10    4.58    0.25
   3   5 -10    4.15    0.21
  -3   5  10    4.31    0.23
   3   5 -10    4.37    0.22
  -3   5  10    4.29    0.22
   3   5 -10    4.27    0.20
   3   5 -10    4.41    0.21
   2  -5 -10    0.02    0.08
   2  -5 -10    0.05    0.10
   2  -5 -10    0.09    0.08
   2   5 -10    0.12    0.06
  -2   5  10    0.02    0.07
  -2   5  10    0.04    0.07
  -2   5  10    0.00    0.06
   2   5 -10   -0.04    0.05
  -2   5  10   -0.01    0.06
   2   5 -10   -0.11    0.05
   1  -5 -10    9.47    0.41
   1  -5 -10    9.97    0.41
   1  -5 -10    9.94    0.43
   1  -5 -10   10.11    0.37
  -1   5  10    9.66    0.38
  -1   5  10   10.00    0.41
  -1   5  10    9.67    0.35
   0  -5 -10    3.41    0.27
   0  -5 -10    3.15    0.25
   0  -5 -10    3.70    0.30
   0   5  10    3.11    0.27
   0   5  10    3.30    0.23
   0   5  10    3.93    0.27
   0   5  10    3.29    0.28
  -1  -5 -10    9.22    0.35
  -1  -5 -10    9.67    0.42
  -1  -5 -10    9.85    0.39
   1   5  10    9.17    0.38
  -1   5 -10    9.27    0.40
  -1   5 -10    8.96    0.41
  -1   5 -10    9.44    0.42
   1   5  10    9.55    0.38
  -1   5 -10    9.36    0.37
  -1   5 -10    9.05    0.32
  -1   5 -10    9.05    0.38
  -1   5 -10    8.97    0.34
  -1   5 -10    9.17    0.38
   1   5  10   10.21    0.40
  -2  -5 -10    0.24    0.10
  -2  -5 -10    0.28    0.10
  -2  -5 -10    0.27    0.11
   2   5  10    0.31    0.11
  -2   5 -10    0.22    0.09
   2   5  10    0.20    0.10
  -2   5 -10    0.35    0.11
  -2   5 -10    0.26    0.10
  -2   5 -10    0.38    0.12
  -2   5 -10    0.42    0.12
  -2   5 -10    0.25    0.12
  -2   5 -10    0.25    0.10
   2   5  10    0.35    0.10
  -2   5 -10    0.28    0.09
  -2   5 -10    0.22    0.10
  -3  -5 -10    0.20    0.10
  -3  -5 -10    0.33    0.09
  -3  -5 -10    0.21    0.08
  -3   5 -10    0.33    0.11
   3   5  10    0.28    0.09
  -3   5 -10    0.36    0.11
  -3   5 -10    0.22    0.08
  -3   5 -10    0.18    0.08
  -3   5 -10    0.13    0.08
  -3   5 -10    0.16    0.07
   3   5  10    0.28    0.08
  -3   5 -10    0.22    0.08
  -3   5 -10    0.27    0.09
   3   5  10    0.22    0.08
  -3   5 -10    0.16    0.08
   3  -6 -10    1.66    0.15
   3  -6 -10    1.10    0.13
   3   6 -10    1.62    0.13
  -3   6  10    1.55    0.13
  -3   6  10    1.65    0.14
   3   6 -10    1.67    0.12
   3   6 -10    1.47    0.11
  -3   6  10    1.47    0.12
   3   6 -10    1.54    0.11
   2  -6 -10    1.83    0.19
   2  -6 -10    2.08    0.19
   2  -6 -10    1.98    0.19
  -2   6  10    2.22    0.18
  -2   6  10    2.13    0.20
  -2   6  10    1.71    0.16
   1  -6 -10    0.05    0.10
   1  -6 -10    0.06    0.07
   1  -6 -10    0.02    0.09
  -1   6  10    0.09    0.09
  -1   6  10    0.11    0.07
  -1   6  10   -0.08    0.06
   0  -6 -10    1.88    0.19
   0  -6 -10    1.71    0.19
   0  -6 -10    1.81    0.21
   0   6  10    1.72    0.19
   0   6  10    1.71    0.17
   0   6 -10    0.97    0.12
   0   6  10    1.67    0.20
  -1  -6 -10    0.26    0.11
  -1  -6 -10    0.48    0.12
  -1  -6 -10    0.49    0.12
   1   6  10    0.31    0.10
   1   6  10    0.25    0.11
  -1   6 -10    0.59    0.09
  -1   6 -10    0.01    0.06
  -1   6 -10    0.46    0.11
   1   6  10    0.34    0.11
  -1   6 -10    0.37    0.12
  -1   6 -10    0.58    0.15
  -1   6 -10    0.30    0.10
  -1   6 -10    0.55    0.12
  -2  -6 -10    4.34    0.20
  -2  -6 -10    4.48    0.22
  -2  -6 -10    4.83    0.24
   2   6  10    4.70    0.22
  -2   6 -10    4.35    0.23
  -2   6 -10    4.43    0.26
  -2   6 -10    4.21    0.19
   2   6  10    4.78    0.22
  -2   6 -10    4.26    0.19
  -2   6 -10    4.50    0.24
  -2   6 -10    4.53    0.26
  -2   6 -10    4.46    0.24
  -2   6 -10    4.34    0.22
  -3  -6 -10    1.15    0.10
  -3   6 -10    1.22    0.12
  -3   6 -10    1.18    0.11
  -3   6 -10    1.08    0.11
  -3   6 -10    1.49    0.12
  -3   6 -10    0.98    0.10
   3   6  10    1.09    0.11
  -3   6 -10    1.00    0.10
   2  -7 -10    0.82    0.10
   2  -7 -10    0.72    0.10
  -2   7  10    0.77    0.09
  -2   7  10    0.71    0.10
   1  -7 -10    0.05    0.06
   1  -7 -10   -0.03    0.06
   1  -7 -10    0.11    0.08
  -1   7  10    0.07    0.06
  -1   7  10    0.08    0.06
   0  -7 -10    4.67    0.21
   0  -7 -10    4.44    0.24
   0   7  10    4.78    0.22
   0   7  10    4.22    0.21
   0   7  10    4.31    0.18
  -1  -7 -10    0.03    0.07
  -1  -7 -10    0.10    0.07
  -1  -7 -10    0.00    0.06
   1   7  10   -0.02    0.05
  -1   7 -10    0.09    0.06
  -1   7 -10    0.02    0.06
  -1   7 -10   -0.02    0.06
  -1   7 -10    0.05    0.06
   1   7  10    0.07    0.06
  -1   7 -10    0.08    0.04
  -5   0  11   -0.01    0.05
   5   0 -11    0.01    0.07
   5   0 -11    0.01    0.07
   5   0 -11    0.15    0.07
  -5   0  11    0.02    0.05
   5   0 -11   -0.10    0.07
   4   0 -11    0.08    0.07
   4   0 -11   -0.03    0.07
   4   0 -11    0.02    0.08
   4   0 -11    0.02    0.07
   4   0 -11    0.02    0.08
   4   0 -11    0.11    0.08
   4   0 -11    0.04    0.07
   4   0 -11    0.04    0.08
   4   0 -11    0.08    0.07
   4   0 -11    0.04    0.07
  -4   0  11    0.12    0.08
   3   0 -11    0.02    0.08
   3   0 -11    0.22    0.10
   3   0 -11    0.02    0.07
   3   0 -11    0.01    0.08
   3   0 -11    0.08    0.08
   3   0 -11    0.05    0.08
   3   0 -11    0.07    0.07
   3   0 -11    0.02    0.08
   3   0 -11    0.11    0.08
   3   0 -11    0.00    0.08
   3   0 -11   -0.13    0.08
  -2   0  11    0.05    0.22
  -2   0  11    0.02    0.11
  -2   0  11   -0.06    0.10
   2   0 -11    0.10    0.16
  -2   0  11    0.07    0.26
   2   0 -11   -0.06    0.11
   2   0 -11   -0.18    0.08
   1   0 -11   -0.11    0.16
  -1   0  11    0.06    0.12
  -1   0  11    0.19    0.10
   1   0 -11    0.09    0.16
   1   0 -11   -0.12    0.19
   1   0 -11    0.20    0.16
  -1   0  11    0.01    0.13
   0   0 -11   -0.09    0.12
   0   0  11   -0.02    0.10
   0   0 -11   -0.01    0.12
   0   0  11    0.00    0.12
   0   0 -11    0.07    0.13
   0   0  11    0.04    0.10
   0   0 -11   -0.13    0.12
   1   0  11    0.06    0.11
  -1   0 -11    1.09    0.30
  -1   0 -11    0.04    0.17
   1   0  11    0.02    0.16
   1   0  11   -0.06    0.09
  -1   0 -11    0.06    0.15
   1   0  11   -0.15    0.09
   1   0  11   -0.05    0.14
   1   0  11    0.17    0.16
  -2   0 -11    0.01    0.09
  -2   0 -11   -0.01    0.07
  -2   0 -11    0.08    0.11
  -2   0 -11   -0.01    0.32
   2   0  11   -0.53    0.15
  -2   0 -11   -0.09    0.09
  -2   0 -11    0.08    0.09
  -2   0 -11   -0.01    0.08
  -2   0 -11    0.05    0.10
   2   0  11    0.04    0.07
  -2   0 -11   -0.04    0.09
   2   0  11   -0.24    0.14
   2   0  11   -0.79    0.16
  -2   0 -11    0.07    0.08
  -3   0 -11    0.07    0.10
  -3   0 -11   -0.13    0.07
  -3   0 -11    0.01    0.07
   3   0  11   -0.06    0.07
  -3   0 -11   -0.01    0.09
  -3   0 -11    0.02    0.09
  -3   0 -11   -0.11    0.07
  -3   0 -11   -0.10    0.08
   4   0  11   -0.04    0.08
  -4   0 -11    0.07    0.06
  -4   0 -11    0.03    0.08
  -4   0 -11   -0.01    0.07
   4   0  11    0.16    0.09
   4   0  11   -0.01    0.08
  -4   0 -11    0.08    0.09
  -5   0 -11    0.12    0.07
   5   0  11    0.02    0.06
   5  -1 -11   -0.01    0.06
   5  -1 -11   -0.09    0.05
  -5  -1  11    0.06    0.06
  -5   1  11   -0.12    0.04
   5   1 -11   -0.11    0.05
   5   1 -11    0.03    0.05
   5   1 -11    0.01    0.05
   5   1 -11    0.06    0.06
   5   1 -11    0.10    0.05
  -5   1  11    0.05    0.06
   5   1 -11    0.02    0.05
  -5   1  11   -0.01    0.05
   5   1 -11    0.04    0.07
   5   1 -11    0.01    0.06
   4  -1 -11   -0.05    0.07
   4  -1 -11    0.05    0.08
   4  -1 -11   -0.04    0.08
   4  -1 -11   -0.05    0.07
   4  -1 -11    0.06    0.07
   4  -1 -11    0.07    0.08
   4   1 -11    0.10    0.07
   4   1 -11   -0.01    0.08
   4   1 -11    0.19    0.09
   4   1 -11    0.01    0.07
   4   1 -11    0.18    0.08
   4   1 -11    0.01    0.07
   4   1 -11    0.08    0.08
   4   1 -11    0.17    0.10
   4   1 -11   -0.02    0.07
  -4   1  11    0.03    0.08
   4   1 -11    0.14    0.08
   3  -1 -11    3.01    0.25
   3  -1 -11    2.35    0.23
   3  -1 -11    2.69    0.24
   3  -1 -11    2.31    0.19
   3  -1 -11    2.47    0.23
   3  -1 -11    2.83    0.23
   3  -1 -11    2.82    0.22
   3  -1 -11    3.03    0.26
   3  -1 -11    3.05    0.25
   3   1 -11    3.02    0.23
   3   1 -11    2.70    0.20
   3   1 -11    2.75    0.21
   3   1 -11    2.89    0.22
   3   1 -11    2.84    0.24
   3   1 -11    2.80    0.23
   3   1 -11    2.84    0.22
  -3   1  11    3.38    0.23
   3   1 -11    2.71    0.24
   3   1 -11    2.99    0.26
   3   1 -11    2.90    0.25
   2  -1 -11    1.61    0.36
   2  -1 -11    1.61    0.31
  -2  -1  11    1.66    0.29
  -2  -1  11    1.50    0.32
   2  -1 -11    1.32    0.36
   2   1 -11    1.27    0.18
  -2   1  11    1.80    0.31
  -2   1  11    1.99    0.35
  -2   1  11    1.56    0.34
  -2   1  11    1.94    0.31
   2   1 -11    1.47    0.20
   2   1 -11    1.51    0.36
   1  -1 -11   57.14    1.65
   1  -1 -11   59.62    1.46
  -1  -1  11   59.53    1.29
  -1  -1  11   59.99    1.68
  -1  -1  11   60.38    1.47
   1  -1 -11   58.63    1.52
   1  -1 -11   57.66    1.62
  -1   1  11   57.37    1.47
  -1   1  11   59.10    1.61
   1   1 -11   57.42    1.48
   1   1 -11   56.78    1.50
   1   1 -11   57.73    1.46
   1   1 -11   58.86    1.67
  -1   1  11   60.54    1.40
   0  -1  11    0.11    0.10
   0  -1 -11   -0.05    0.16
   0  -1  11    0.10    0.12
   0  -1  11    0.09    0.13
   0  -1 -11    0.08    0.15
   0  -1 -11    0.47    0.21
   0  -1 -11    0.13    0.10
   0   1 -11    0.08    0.10
   0   1  11    0.20    0.12
   0   1 -11    0.15    0.16
   0   1 -11    0.18    0.27
   0   1 -11    0.14    0.10
   0   1  11    0.25    0.10
   0   1  11    0.33    0.16
   0   1  11    0.32    0.17
   1  -1  11   49.30    1.29
   1  -1  11   48.93    1.42
   1  -1  11   48.95    1.36
  -1  -1 -11   52.24    1.54
  -1  -1 -11   51.97    1.35
  -1  -1 -11   48.08    1.34
   1  -1  11   50.97    1.56
   1  -1  11   49.56    1.62
   1   1  11   49.67    1.59
  -1   1 -11   50.26    1.40
  -1   1 -11   48.79    1.34
  -1   1 -11   49.12    1.57
   1   1  11   50.64    1.45
  -1   1 -11   45.27    1.87
   1   1  11   49.85    1.46
   1   1  11   49.90    1.25
   1   1  11   49.78    1.20
   1   1  11   50.14    1.40
  -2  -1 -11   13.55    0.46
  -2  -1 -11   13.90    0.56
  -2  -1 -11   13.73    0.42
  -2  -1 -11   13.92    0.48
  -2  -1 -11   13.48    0.49
  -2  -1 -11   14.29    0.45
  -2  -1 -11   13.45    0.45
  -2   1 -11   13.83    0.44
  -2   1 -11   13.38    0.48
  -2   1 -11   13.62    0.46
  -2   1 -11   13.57    0.50
   2   1  11   13.45    0.42
  -2   1 -11   14.52    0.48
  -2   1 -11   13.39    0.42
  -2   1 -11   13.14    0.46
  -2   1 -11   14.02    0.47
  -2   1 -11   13.23    0.48
  -2   1 -11   13.95    0.45
  -2   1 -11   13.66    0.44
  -3  -1 -11   19.81    0.56
  -3  -1 -11   19.68    0.57
   3  -1  11   18.83    0.55
  -3  -1 -11   19.83    0.55
  -3  -1 -11   19.68    0.58
  -3   1 -11   19.90    0.57
  -3   1 -11   18.75    0.60
  -3   1 -11   18.54    0.61
  -3   1 -11   19.36    0.57
  -3   1 -11   20.34    0.60
   3   1  11   19.66    0.53
   3   1  11   19.79    0.59
  -3   1 -11   18.79    0.57
  -3   1 -11   19.29    0.58
  -3   1 -11   19.56    0.58
  -3   1 -11   19.54    0.53
  -4  -1 -11    0.27    0.10
  -4  -1 -11    0.40    0.10
   4  -1  11    0.30    0.12
   4  -1  11    0.31    0.10
  -4  -1 -11    0.22    0.10
  -4   1 -11    0.25    0.07
  -4   1 -11    0.39    0.11
   4   1  11    0.41    0.09
  -4   1 -11    0.49    0.11
  -4   1 -11    0.30    0.10
   4   1  11    0.32    0.10
  -4   1 -11    0.10    0.09
   4   1  11    0.41    0.11
   5  -2 -11    2.01    0.14
   5  -2 -11    2.01    0.16
   5  -2 -11    1.96    0.14
  -5  -2  11    1.91    0.14
  -5   2  11    1.96    0.15
   5   2 -11    1.98    0.15
  -5   2  11    2.05    0.15
   5   2 -11    2.06    0.14
   5   2 -11    1.70    0.12
   5   2 -11    2.07    0.15
   5   2 -11    1.85    0.14
   5   2 -11    2.06    0.17
   5   2 -11    2.04    0.13
   4  -2 -11    1.25    0.17
   4  -2 -11    0.58    0.11
   4  -2 -11    1.01    0.15
   4  -2 -11    1.00    0.14
  -4   2  11    1.27    0.15
   4   2 -11    0.80    0.12
   4   2 -11    1.19    0.15
  -4   2  11    0.95    0.14
   4   2 -11    1.33    0.14
   4   2 -11    1.16    0.14
   4   2 -11    1.03    0.16
  -4   2  11    1.26    0.15
   4   2 -11    1.19    0.14
   4   2 -11    1.06    0.14
   4   2 -11    1.34    0.17
   3  -2 -11    0.06    0.08
   3  -2 -11    0.04    0.07
   3  -2 -11   -0.06    0.08
   3  -2 -11   -0.01    0.07
   3  -2 -11    0.08    0.09
   3  -2 -11    0.06    0.10
   3   2 -11    0.04    0.07
  -3   2  11    0.01    0.06
   3   2 -11   -0.05    0.05
   3   2 -11    0.01    0.07
   3   2 -11    0.03    0.06
   3   2 -11    0.13    0.08
   3   2 -11    0.04    0.08
   3   2 -11    0.01    0.07
   3   2 -11    0.06    0.07
   3   2 -11    0.00    0.06
   3   2 -11    0.00    0.06
  -3   2  11    0.01    0.07
   2  -2 -11   46.46    0.93
   2  -2 -11   45.63    0.87
   2  -2 -11   46.77    1.00
   2  -2 -11   45.07    0.90
   2  -2 -11   46.52    0.91
   2  -2 -11   45.26    0.83
   2  -2 -11   47.16    2.04
   2   2 -11   44.75    0.84
   2   2 -11   45.66    0.87
   2   2 -11   45.88    0.86
  -2   2  11   44.78    0.84
   2   2 -11   44.89    0.92
   2   2 -11   45.22    0.88
   2   2 -11   45.58    0.87
   2   2 -11   45.57    0.89
   1  -2 -11   19.56    1.03
   1  -2 -11   20.34    0.92
  -1  -2  11   19.95    0.82
  -1  -2  11   20.93    0.96
   1  -2 -11   21.13    0.92
  -1   2  11   19.46    0.87
   1   2 -11   19.75    0.84
  -1   2  11   20.03    0.85
  -1   2  11   20.85    0.83
   1   2 -11   19.51    0.91
   1   2 -11   18.41    0.89
   0  -2  11    5.87    0.59
   0  -2 -11    4.68    0.55
   0  -2 -11    4.53    0.46
   0  -2  11    4.87    0.52
   0  -2 -11    5.99    0.53
   0   2 -11    5.06    0.55
   0   2  11    5.10    0.49
   0   2 -11    5.08    0.41
   0   2 -11    4.74    0.54
   0   2  11    4.36    0.59
   0   2  11    5.06    0.53
   1  -2  11   22.82    0.96
  -1  -2 -11   23.95    0.88
   1  -2  11   22.41    0.90
   1  -2  11   21.06    0.83
  -1  -2 -11   21.84    1.03
   1  -2  11   20.86    1.05
  -1   2 -11   21.26    0.90
  -1   2 -11   20.60    0.88
  -1   2 -11   21.44    1.12
   1   2  11   22.43    1.16
   1   2  11   23.71    1.02
  -2  -2 -11   -0.04    0.10
  -2  -2 -11    0.00    0.08
  -2  -2 -11    0.08    0.08
  -2  -2 -11    0.12    0.08
  -2   2 -11   -0.01    0.08
  -2   2 -11    0.02    0.09
  -2   2 -11    0.10    0.08
  -2   2 -11    0.04    0.09
  -2   2 -11    0.04    0.09
  -2   2 -11   -0.03    0.08
  -2   2 -11    0.00    0.08
  -2   2 -11   -0.02    0.09
   2   2  11    0.18    0.08
  -2   2 -11   -0.09    0.07
  -2   2 -11   -0.03    0.09
   2   2  11    0.01    0.06
  -3  -2 -11   -0.05    0.08
  -3  -2 -11   -0.06    0.08
  -3  -2 -11   -0.10    0.08
  -3   2 -11    0.03    0.09
  -3   2 -11    0.02    0.09
  -3   2 -11   -0.03    0.08
  -3   2 -11    0.15    0.11
  -3   2 -11    0.05    0.08
   3   2  11    0.02    0.08
  -3   2 -11    0.07    0.09
   3   2  11    0.00    0.08
  -3   2 -11    0.06    0.08
  -3   2 -11    0.01    0.08
  -3   2 -11   -0.01    0.08
   3   2  11   -0.02    0.08
  -3   2 -11   -0.07    0.08
  -4  -2 -11    7.20    0.30
   4  -2  11    7.58    0.30
  -4  -2 -11    6.91    0.31
   4  -2  11    6.78    0.30
  -4   2 -11    7.68    0.31
   4   2  11    7.67    0.33
   4   2  11    7.24    0.32
  -4   2 -11    6.96    0.30
  -4   2 -11    7.04    0.26
  -4   2 -11    7.27    0.31
  -4   2 -11    6.74    0.27
  -4   2 -11    6.50    0.30
   4   2  11    6.65    0.28
   5  -3 -11    1.43    0.11
   5  -3 -11    1.43    0.11
  -5  -3  11    1.60    0.11
  -5   3  11    1.56    0.12
   5   3 -11    1.41    0.10
   5   3 -11    1.34    0.11
   5   3 -11    1.61    0.11
   5   3 -11    1.45    0.13
   5   3 -11    1.49    0.11
   5   3 -11    1.60    0.11
  -5   3  11    1.41    0.11
   5   3 -11    1.48    0.12
   4  -3 -11    0.86    0.13
   4  -3 -11    0.78    0.14
   4  -3 -11    0.46    0.12
   4   3 -11    0.86    0.14
  -4   3  11    0.74    0.12
  -4   3  11    0.64    0.11
   4   3 -11    0.74    0.11
  -4   3  11    0.75    0.13
   4   3 -11    0.53    0.12
   4   3 -11    0.71    0.11
   4   3 -11    0.84    0.13
   4   3 -11    0.71    0.11
   4   3 -11    0.92    0.13
   4   3 -11    0.74    0.11
   3  -3 -11   12.26    0.42
   3  -3 -11   12.26    0.43
   3  -3 -11   12.05    0.49
   3  -3 -11    9.82    0.42
  -3   3  11   12.05    0.39
   3   3 -11   11.84    0.42
   3   3 -11   11.85    0.36
   3   3 -11   12.03    0.41
   3   3 -11   12.07    0.44
   3   3 -11   12.41    0.37
   3   3 -11   12.19    0.40
  -3   3  11   12.71    0.44
   3   3 -11   11.81    0.39
   3   3 -11   11.82    0.39
   3   3 -11   12.28    0.40
  -3   3  11   12.18    0.40
   2  -3 -11   24.55    0.62
   2  -3 -11   24.48    0.65
   2  -3 -11   24.17    0.61
   2  -3 -11   24.56    0.71
   2   3 -11   24.75    0.58
   2   3 -11   24.91    0.60
  -2   3  11   24.34    0.64
   2   3 -11   23.82    0.58
  -2   3  11   24.30    0.59
   2   3 -11   24.07    0.62
   2   3 -11   24.80    0.57
   2   3 -11   23.42    0.57
   2   3 -11   24.54    0.58
   1  -3 -11    9.25    0.35
   1  -3 -11    9.19    0.38
   1  -3 -11    9.02    0.39
   1  -3 -11    9.09    0.33
   1  -3 -11    9.53    0.41
   1   3 -11    8.88    0.32
   1   3 -11    9.29    0.32
  -1   3  11    9.05    0.36
  -1   3  11    9.12    0.35
   1   3 -11    8.46    0.29
   1   3 -11    9.66    0.34
   1   3 -11    9.46    0.35
   0  -3  11    4.52    0.47
   0  -3 -11    3.86    0.51
   0  -3 -11    3.00    0.23
   0  -3  11    5.03    0.53
   0  -3 -11    3.80    0.26
   0  -3 -11    3.23    0.28
   0  -3  11    4.55    0.59
   0  -3  11    3.68    0.40
   0  -3 -11    3.63    0.28
   0   3 -11    4.05    0.30
   0   3  11    3.94    0.28
   0   3 -11    4.44    0.47
   0   3  11    4.12    0.31
   0   3 -11    4.11    0.30
   0   3 -11    3.52    0.25
   0   3 -11    3.52    0.24
   0   3 -11    3.74    0.25
   0   3  11    4.06    0.28
  -1  -3 -11    4.74    0.26
  -1  -3 -11    4.26    0.32
  -1  -3 -11    4.20    0.29
  -1  -3 -11    4.56    0.30
  -1   3 -11    5.10    0.33
   1   3  11    4.80    0.30
  -1   3 -11    5.30    0.36
  -1   3 -11    5.36    0.38
  -1   3 -11    4.80    0.29
  -1   3 -11    4.86    0.27
   1   3  11    4.68    0.31
   1   3  11    5.08    0.30
  -1   3 -11    4.29    0.30
  -1   3 -11    5.07    0.31
  -1   3 -11    5.18    0.35
  -2  -3 -11    3.86    0.31
  -2  -3 -11    4.27    0.29
  -2  -3 -11    3.64    0.38
  -2  -3 -11    3.46    0.27
  -2   3 -11    4.44    0.32
  -2   3 -11    4.23    0.34
  -2   3 -11    3.97    0.29
   2   3  11    4.00    0.28
  -2   3 -11    4.55    0.36
   2   3  11    4.25    0.30
  -2   3 -11    4.28    0.29
   2   3  11    4.86    0.34
  -2   3 -11    4.29    0.31
  -2   3 -11    4.43    0.32
  -2   3 -11    4.43    0.35
  -2   3 -11    4.13    0.30
  -3  -3 -11   34.06    0.76
  -3  -3 -11   34.22    0.78
  -3  -3 -11   33.96    0.75
  -3   3 -11   33.84    0.79
  -3   3 -11   34.37    0.76
   3   3  11   34.40    0.79
   3   3  11   33.56    0.75
  -3   3 -11   33.61    0.81
  -3   3 -11   34.59    0.80
  -3   3 -11   33.50    0.77
  -3   3 -11   33.88    0.85
  -3   3 -11   33.67    0.70
  -3   3 -11   33.30    0.84
  -3   3 -11   33.38    0.80
   3   3  11   34.95    0.77
  -4  -3 -11   38.42    0.75
   4  -3  11   38.40    0.73
  -4  -3 -11   38.96    0.74
   4   3  11   38.65    0.76
  -4   3 -11   38.70    0.75
  -4   3 -11   38.73    0.68
  -4   3 -11   37.50    0.73
  -4   3 -11   39.24    0.74
   4   3  11   38.67    0.72
  -4   3 -11   38.92    0.71
  -4   3 -11   38.45    0.77
  -4   3 -11   38.33    0.73
   4  -4 -11   -0.01    0.08
   4  -4 -11   -0.07    0.06
  -4   4  11    0.05    0.06
   4   4 -11    0.05    0.06
   4   4 -11    0.02    0.05
   4   4 -11    0.12    0.07
   4   4 -11   -0.02    0.06
   4   4 -11   -0.01    0.05
   4   4 -11    0.03    0.05
   4   4 -11    0.08    0.07
  -4   4  11    0.07    0.06
  -4   4  11   -0.08    0.05
   4   4 -11    0.08    0.06
   3  -4 -11    5.67    0.29
   3  -4 -11    6.02    0.30
   3  -4 -11    5.50    0.33
   3   4 -11    5.75    0.27
   3   4 -11    5.78    0.26
   3   4 -11    5.73    0.25
   3   4 -11    5.66    0.23
  -3   4  11    5.69    0.29
  -3   4  11    5.55    0.27
   3   4 -11    5.62    0.26
   3   4 -11    5.38    0.24
   3   4 -11    5.69    0.27
  -3   4  11    5.85    0.26
   2  -4 -11   17.25    0.54
   2  -4 -11   17.06    0.55
   2  -4 -11   17.06    0.59
   2  -4 -11   17.14    0.50
  -2   4  11   17.39    0.50
   2   4 -11   17.04    0.46
   2   4 -11   16.97    0.48
   2   4 -11   17.03    0.44
  -2   4  11   17.28    0.54
  -2   4  11   17.68    0.51
   2   4 -11   17.17    0.46
   2   4 -11   16.98    0.46
   1  -4 -11    2.69    0.26
   1  -4 -11    3.12    0.27
   1  -4 -11    3.33    0.27
  -1   4  11    3.28    0.27
  -1   4  11    3.34    0.24
  -1   4  11    3.26    0.27
  -1   4  11    3.43    0.25
   0  -4 -11    0.08    0.09
   0  -4 -11    0.02    0.10
   0  -4 -11    0.04    0.09
   0   4 -11    0.13    0.11
   0   4 -11    0.03    0.09
   0   4  11    0.01    0.07
   0   4 -11    0.04    0.10
   0   4  11    0.13    0.08
   0   4  11    0.11    0.08
   0   4 -11    0.05    0.08
  -1  -4 -11    0.37    0.12
  -1  -4 -11    0.09    0.11
  -1  -4 -11    0.40    0.11
  -1   4 -11    0.39    0.11
  -1   4 -11    0.41    0.13
  -1   4 -11    0.50    0.14
   1   4  11    0.35    0.11
   1   4  11    0.46    0.11
  -1   4 -11    0.46    0.14
  -1   4 -11    0.35    0.11
  -1   4 -11    0.40    0.12
  -1   4 -11    0.32    0.12
  -1   4 -11    0.42    0.12
   1   4  11    0.29    0.11
  -2  -4 -11   21.86    0.58
  -2  -4 -11   21.35    0.60
  -2  -4 -11   22.87    0.75
  -2  -4 -11   22.10    0.64
   2   4  11   21.69    0.58
  -2   4 -11   21.46    0.61
  -2   4 -11   21.01    0.55
  -2   4 -11   21.43    0.67
   2   4  11   21.08    0.57
   2   4  11   21.23    0.60
  -2   4 -11   21.70    0.68
  -2   4 -11   22.15    0.62
  -2   4 -11   21.81    0.60
  -2   4 -11   20.93    0.58
  -2   4 -11   21.76    0.64
  -2   4 -11   21.08    0.61
  -3  -4 -11    6.68    0.29
  -3  -4 -11    7.12    0.31
  -3  -4 -11    6.98    0.31
  -3   4 -11    6.99    0.33
  -3   4 -11    6.84    0.35
   3   4  11    8.03    0.32
   3   4  11    7.53    0.31
  -3   4 -11    7.30    0.33
  -3   4 -11    7.47    0.32
  -3   4 -11    7.06    0.32
  -3   4 -11    6.92    0.27
   3   4  11    6.79    0.28
  -3   4 -11    6.86    0.30
  -3   4 -11    7.00    0.32
  -3   4 -11    7.18    0.35
   4  -4  11   12.50    0.33
  -4  -4 -11   11.88    0.32
  -4  -4 -11   12.03    0.31
  -4   4 -11   12.48    0.33
  -4   4 -11   11.93    0.34
  -4   4 -11   12.52    0.31
  -4   4 -11   12.54    0.32
   4   4  11   11.77    0.30
  -4   4 -11   11.43    0.28
   4   4  11   12.11    0.31
  -4   4 -11   12.31    0.31
   4  -5 -11    0.00    0.05
   4  -5 -11    0.05    0.06
   4   5 -11    0.11    0.05
  -4   5  11    0.00    0.04
   4   5 -11    0.06    0.04
   4   5 -11    0.04    0.04
   4   5 -11   -0.01    0.04
   3  -5 -11    0.99    0.12
   3  -5 -11    1.16    0.16
   3  -5 -11    0.91    0.15
   3   5 -11    1.04    0.11
   3   5 -11    1.05    0.13
   3   5 -11    1.04    0.12
  -3   5  11    1.16    0.13
  -3   5  11    0.90    0.12
   3   5 -11    1.10    0.12
  -3   5  11    1.14    0.15
   3   5 -11    0.91    0.10
   3   5 -11    1.01    0.11
   2  -5 -11    1.02    0.15
   2  -5 -11    0.97    0.16
   2  -5 -11    0.95    0.18
  -2   5  11    1.02    0.15
  -2   5  11    0.87    0.15
  -2   5  11    1.29    0.16
   1  -5 -11    1.15    0.17
   1  -5 -11    1.15    0.19
   1  -5 -11    1.16    0.15
   1  -5 -11    0.98    0.17
  -1   5  11    1.36    0.18
  -1   5  11    0.85    0.13
  -1   5  11    1.06    0.16
   0  -5 -11    1.33    0.19
   0  -5 -11    1.07    0.16
   0  -5 -11    1.03    0.15
   0   5  11    1.24    0.18
   0   5  11    1.12    0.15
   0   5  11    0.96    0.15
  -1  -5 -11    0.73    0.12
  -1  -5 -11    0.61    0.12
  -1  -5 -11    0.71    0.15
  -1   5 -11    0.65    0.14
  -1   5 -11    0.63    0.14
  -1   5 -11    0.68    0.12
   1   5  11    0.81    0.14
  -1   5 -11    0.80    0.16
  -1   5 -11    0.76    0.14
  -1   5 -11    0.62    0.14
   1   5  11    0.66    0.13
   1   5  11    0.58    0.13
  -1   5 -11    0.67    0.13
  -2  -5 -11    3.07    0.24
  -2  -5 -11    3.02    0.26
  -2  -5 -11    2.91    0.22
  -2   5 -11    3.01    0.24
  -2   5 -11    3.38    0.29
   2   5  11    2.94    0.24
   2   5  11    3.00    0.25
  -2   5 -11    3.08    0.26
  -2   5 -11    3.41    0.26
  -2   5 -11    3.20    0.24
  -2   5 -11    3.32    0.22
  -2   5 -11    3.31    0.28
  -2   5 -11    3.01    0.22
   2   5  11    3.06    0.22
  -2   5 -11    3.19    0.26
  -3  -5 -11    0.05    0.07
  -3  -5 -11   -0.17    0.05
  -3  -5 -11    0.06    0.07
  -3   5 -11    0.07    0.07
  -3   5 -11    0.06    0.07
  -3   5 -11    0.05    0.06
  -3   5 -11    0.09    0.06
  -3   5 -11   -0.02    0.06
   3   5  11    0.04    0.05
  -3   5 -11   -0.01    0.08
  -3   5 -11    0.01    0.07
  -3   5 -11    0.07    0.08
   3   5  11    0.03    0.05
   3  -6 -11    4.59    0.21
   3  -6 -11    4.36    0.20
  -3   6  11    3.53    0.25
  -3   6  11    4.46    0.17
   2  -6 -11    0.04    0.09
   2  -6 -11    0.10    0.08
   2  -6 -11    0.07    0.08
  -2   6  11    0.07    0.06
  -2   6  11    0.29    0.08
   1  -6 -11    0.92    0.15
   1  -6 -11    0.76    0.15
   1  -6 -11    0.96    0.12
  -1   6  11    0.87    0.13
  -1   6  11    0.74    0.14
  -1   6  11    0.87    0.12
   0  -6 -11    0.01    0.08
   0  -6 -11    0.12    0.09
   0  -6 -11    0.06    0.09
   0   6  11    0.12    0.07
   0   6  11   -0.06    0.06
   0   6  11   -0.01    0.07
  -1  -6 -11    0.73    0.12
  -1  -6 -11    0.57    0.13
  -1  -6 -11    0.56    0.10
   1   6  11    0.49    0.11
  -1   6 -11    0.55    0.10
  -1   6 -11    0.79    0.14
  -1   6 -11    0.85    0.12
   1   6  11    0.60    0.11
  -1   6 -11    0.63    0.13
   1   6  11    0.52    0.11
  -1   6 -11    0.75    0.13
  -2  -6 -11    6.33    0.24
  -2  -6 -11    6.07    0.25
  -2   6 -11    5.89    0.24
   2   6  11    5.96    0.24
  -2   6 -11    5.88    0.24
  -2   6 -11    5.76    0.26
  -2   6 -11    5.70    0.24
  -2   6 -11    5.25    0.20
  -2   6 -11    5.77    0.25
  -2   6 -11    5.89    0.27
  -2   6 -11    5.77    0.23
   2   6  11    5.82    0.23
   1  -7 -11    1.54    0.13
   1  -7 -11    1.38    0.14
  -1   7  11    1.47    0.13
  -1   7  11    1.59    0.11
   0  -7 -11    1.69    0.14
   0  -7 -11    1.77    0.16
   0   7  11    2.04    0.15
   0   7  11    1.93    0.15
  -1  -7 -11    2.27    0.15
   1   7  11    2.69    0.14
   1   7  11    2.71    0.14
   5   0 -12   12.29    0.33
   5   0 -12   12.00    0.33
   5   0 -12   12.70    0.34
  -5   0  12   12.44    0.32
  -5   0  12   12.44    0.31
   5   0 -12   11.93    0.33
   4   0 -12    0.20    0.08
   4   0 -12    0.06    0.07
   4   0 -12    0.12    0.08
   4   0 -12    0.12    0.09
   4   0 -12    0.12    0.07
   4   0 -12    0.03    0.07
  -4   0  12    0.10    0.07
   4   0 -12    0.17    0.09
   4   0 -12    0.17    0.09
   4   0 -12    0.18    0.10
   4   0 -12    0.04    0.07
   3   0 -12    0.97    0.15
   3   0 -12    0.85    0.14
   3   0 -12    0.94    0.14
   3   0 -12    0.75    0.14
   3   0 -12    0.89    0.13
   3   0 -12    0.96    0.16
   3   0 -12    0.62    0.14
   3   0 -12    0.93    0.14
   3   0 -12    0.78    0.15
   3   0 -12    0.85    0.17
   2   0 -12    0.25    0.11
   2   0 -12    0.12    0.08
   2   0 -12    0.10    0.08
   2   0 -12    0.18    0.09
   2   0 -12    0.06    0.08
   2   0 -12    0.09    0.09
   2   0 -12    0.24    0.09
   2   0 -12    0.09    0.08
   2   0 -12    0.14    0.08
   2   0 -12    0.09    0.09
   1   0 -12    5.30    0.56
   1   0 -12    4.70    0.54
  -1   0  12    5.19    0.64
  -1   0  12    5.88    0.56
   1   0 -12    4.65    0.52
   1   0 -12    5.09    0.51
  -1   0  12    5.60    0.47
   0   0  12   39.63    1.37
   0   0  12   37.83    1.16
   0   0  12   37.81    1.22
   0   0 -12   41.33    1.23
   0   0 -12   37.12    1.32
   0   0 -12   38.48    1.32
   0   0 -12   38.04    1.05
  -1   0 -12  110.71    2.33
  -1   0 -12  110.64    2.54
   1   0  12  109.33    2.12
   1   0  12  107.16    2.54
  -1   0 -12  106.85    2.24
   1   0  12  109.82    2.64
   1   0  12  108.45    2.29
   1   0  12  107.56    2.38
   1   0  12  109.55    2.23
   2   0  12   13.68    0.42
  -2   0 -12   13.46    0.42
  -2   0 -12   13.96    0.46
  -2   0 -12   13.18    0.45
  -2   0 -12   13.56    0.46
  -2   0 -12   13.84    0.45
  -2   0 -12   13.70    0.44
  -2   0 -12   12.60    0.47
  -2   0 -12   13.53    0.49
  -2   0 -12   14.28    0.52
  -2   0 -12   13.21    0.47
  -3   0 -12   20.12    0.55
  -3   0 -12   19.99    0.59
  -3   0 -12   20.19    0.62
  -3   0 -12   20.86    0.58
  -3   0 -12   20.37    0.63
  -3   0 -12   19.72    0.55
  -3   0 -12   20.81    0.58
   3   0  12   20.47    0.59
  -4   0 -12    1.77    0.17
   4   0  12    1.52    0.20
  -4   0 -12    1.82    0.18
   4   0  12    1.83    0.19
   4   0  12    1.80    0.19
  -4   0 -12    2.15    0.20
   5  -1 -12    3.58    0.18
  -5  -1  12    3.43    0.16
   5  -1 -12    3.53    0.17
   5   1 -12    3.64    0.18
   5   1 -12    3.53    0.18
  -5   1  12    3.47    0.16
  -5   1  12    3.54    0.17
  -5   1  12    3.34    0.16
   5   1 -12    3.74    0.16
   5   1 -12    3.41    0.17
   5   1 -12    3.72    0.19
   4  -1 -12    3.55    0.25
   4  -1 -12    3.73    0.24
   4  -1 -12    3.66    0.27
   4  -1 -12    3.68    0.26
   4  -1 -12    4.04    0.25
   4  -1 -12    3.99    0.27
   4   1 -12    3.84    0.26
   4   1 -12    3.85    0.24
  -4   1  12    3.97    0.26
   4   1 -12    3.40    0.23
  -4   1  12    3.85    0.21
   4   1 -12    3.67    0.25
   4   1 -12    3.58    0.28
   4   1 -12    4.20    0.28
   4   1 -12    3.39    0.25
   4   1 -12    3.43    0.23
   4   1 -12    3.64    0.27
   3  -1 -12    2.25    0.21
   3  -1 -12    2.34    0.22
   3  -1 -12    2.24    0.22
   3  -1 -12    2.66    0.25
   3  -1 -12    2.53    0.22
   3  -1 -12    2.14    0.22
   3  -1 -12    2.42    0.20
   3  -1 -12    2.73    0.20
   3  -1 -12    3.10    0.26
   3   1 -12    2.80    0.21
   3   1 -12    1.99    0.20
   3   1 -12    1.72    0.18
   3   1 -12    2.07    0.19
   3   1 -12    2.19    0.22
   3   1 -12    1.96    0.22
   3   1 -12    2.01    0.19
   3   1 -12    1.97    0.20
   3   1 -12    2.42    0.20
   3   1 -12    2.05    0.21
   2  -1 -12    9.32    0.40
   2  -1 -12    9.28    0.34
   2  -1 -12    9.06    0.35
   2  -1 -12    9.04    0.36
   2  -1 -12    9.01    0.34
   2  -1 -12    8.76    0.33
   2  -1 -12    8.95    0.31
   2  -1 -12    9.26    0.32
   2  -1 -12    8.98    0.34
   2  -1 -12    8.91    0.36
   2   1 -12    9.05    0.32
   2   1 -12    9.23    0.33
   2   1 -12    8.86    0.33
   2   1 -12    8.63    0.36
   2   1 -12    9.00    0.34
   2   1 -12    9.16    0.36
   2   1 -12    9.23    0.32
   2   1 -12    9.50    0.34
   2   1 -12    8.86    0.34
   1  -1 -12    2.37    0.37
  -1  -1  12    2.31    0.39
  -1  -1  12    2.16    0.29
  -1  -1  12    2.40    0.37
   1  -1 -12    2.53    0.42
   1  -1 -12    2.05    0.35
  -1   1  12    2.62    0.34
   1   1 -12    2.28    0.28
   1   1 -12    1.80    0.40
   1   1 -12    2.09    0.38
   1   1 -12    2.51    0.33
  -1   1  12    1.86    0.28
  -1   1  12    1.72    0.37
   0  -1 -12   38.05    1.37
   0  -1  12   39.35    1.34
   0  -1  12   38.33    1.13
   0  -1  12   38.12    1.23
   0  -1 -12   39.00    1.29
   0  -1 -12   40.18    1.22
   0  -1 -12   37.61    1.08
   0   1 -12   39.18    1.35
   0   1  12   36.09    1.38
   0   1 -12   36.07    1.09
   0   1  12   38.59    1.21
   0   1 -12   36.81    1.35
   0   1  12   37.85    1.20
   0   1 -12   37.26    1.18
   1  -1  12   -0.07    0.15
   1  -1  12   -0.01    0.23
  -1  -1 -12    0.35    0.11
   1  -1  12    0.12    0.22
   1  -1  12   -0.03    0.16
  -1  -1 -12    0.15    0.21
  -1  -1 -12    0.18    0.14
  -1  -1 -12   -0.08    0.28
  -1  -1 -12    0.27    0.21
   1  -1  12    0.39    0.32
  -1  -1 -12    0.07    0.10
  -1   1 -12    0.44    0.23
  -1   1 -12    0.05    0.10
   1   1  12    0.06    0.16
  -1   1 -12    0.14    0.13
  -1   1 -12   -0.04    0.10
  -1   1 -12    0.08    0.11
  -1   1 -12   -0.01    0.07
   1   1  12    0.72    0.25
  -1   1 -12    0.08    0.08
  -1   1 -12   -0.06    0.18
   1   1  12    0.11    0.06
  -1   1 -12   -0.01    0.09
  -2  -1 -12    2.65    0.24
  -2  -1 -12    2.61    0.22
  -2  -1 -12    2.76    0.24
  -2  -1 -12    2.29    0.23
  -2  -1 -12    3.31    0.30
  -2  -1 -12    2.70    0.27
  -2  -1 -12    2.70    0.22
  -2   1 -12    2.50    0.23
  -2   1 -12    2.43    0.23
  -2   1 -12    2.51    0.25
  -2   1 -12    2.46    0.25
  -2   1 -12    2.79    0.26
  -2   1 -12    2.66    0.27
  -2   1 -12    2.66    0.23
  -2   1 -12    2.83    0.26
  -2   1 -12    2.71    0.24
  -2   1 -12    2.94    0.24
   2   1  12    2.46    0.22
  -3  -1 -12    0.71    0.14
  -3  -1 -12    0.49    0.14
   3  -1  12    0.82    0.15
  -3  -1 -12    0.72    0.14
  -3  -1 -12    0.77    0.16
  -3  -1 -12    0.56    0.13
  -3   1 -12    0.77    0.14
  -3   1 -12    0.78    0.15
  -3   1 -12    0.79    0.15
  -3   1 -12    0.79    0.15
  -3   1 -12    0.52    0.13
  -3   1 -12    0.74    0.15
  -3   1 -12    0.89    0.16
  -3   1 -12    0.66    0.16
   3   1  12    0.77    0.16
  -3   1 -12    0.86    0.15
   3   1  12    0.69    0.13
  -4  -1 -12    0.53    0.11
   4  -1  12    1.10    0.16
  -4  -1 -12    0.73    0.12
   4  -1  12    1.10    0.14
  -4  -1 -12    0.50    0.13
  -4   1 -12    1.00    0.14
   4   1  12    1.06    0.15
   4   1  12    1.08    0.16
  -4   1 -12    1.01    0.14
  -4   1 -12    0.64    0.12
  -5  -2  12    3.72    0.15
   5  -2 -12    3.69    0.15
   5  -2 -12    4.04    0.18
  -5   2  12    3.83    0.15
   5   2 -12    3.63    0.18
   5   2 -12    3.90    0.16
   5   2 -12    3.87    0.14
   5   2 -12    3.92    0.17
   5   2 -12    3.84    0.16
  -5   2  12    3.73    0.15
   5   2 -12    3.67    0.16
   5   2 -12    3.76    0.15
   5   2 -12    3.75    0.14
   4  -2 -12    0.16    0.08
   4  -2 -12    0.23    0.09
   4  -2 -12    0.17    0.07
   4  -2 -12    0.35    0.10
   4   2 -12    0.30    0.09
   4   2 -12    0.37    0.11
   4   2 -12    0.30    0.08
  -4   2  12    0.23    0.08
   4   2 -12    0.19    0.09
   4   2 -12    0.30    0.09
  -4   2  12    0.12    0.08
   4   2 -12    0.23    0.08
   4   2 -12    0.32    0.10
   4   2 -12    0.23    0.08
   4   2 -12    0.24    0.09
  -4   2  12    0.31    0.09
   3  -2 -12   14.68    0.52
   3  -2 -12   15.18    0.46
   3  -2 -12   15.62    0.49
   3  -2 -12   15.65    0.50
   3  -2 -12   15.33    0.46
   3  -2 -12   15.62    0.50
   3   2 -12   15.14    0.48
   3   2 -12   15.25    0.48
  -3   2  12   15.54    0.45
   3   2 -12   15.30    0.44
   3   2 -12   15.41    0.47
   3   2 -12   15.26    0.44
   3   2 -12   15.25    0.42
   3   2 -12   15.85    0.52
   3   2 -12   16.13    0.48
   3   2 -12   15.24    0.45
   2  -2 -12   24.73    0.62
   2  -2 -12   24.87    0.63
   2  -2 -12   25.12    0.66
   2  -2 -12   24.77    0.61
   2  -2 -12   23.99    0.61
   2  -2 -12   25.29    0.70
   2  -2 -12   24.55    0.58
   2   2 -12   24.59    0.60
   2   2 -12   25.58    0.57
   2   2 -12   24.74    0.64
   2   2 -12   24.74    0.61
   2   2 -12   24.72    0.60
   2   2 -12   25.37    0.60
   2   2 -12   24.83    0.57
   2   2 -12   24.43    0.58
  -2   2  12   23.99    0.57
   1  -2 -12    8.65    0.32
  -1  -2  12    8.71    0.65
   1  -2 -12    9.10    0.38
   1  -2 -12    8.53    0.33
   1  -2 -12    7.45    0.85
   1  -2 -12    8.34    0.38
   1  -2 -12    9.22    0.37
   1  -2 -12    8.17    0.32
   1   2 -12    8.37    0.30
   1   2 -12    8.68    0.35
   1   2 -12    8.84    0.32
  -1   2  12    8.84    0.34
   1   2 -12    8.23    0.32
   1   2 -12    8.76    0.70
   1   2 -12    8.72    0.33
   1   2 -12    8.96    0.37
  -1   2  12    9.62    0.58
   1   2 -12    8.66    0.32
   0  -2 -12   11.13    0.77
   0  -2  12   10.90    0.79
   0  -2  12   10.49    0.90
   0  -2  12   11.71    0.80
   0  -2 -12   10.59    0.38
   0  -2  12   10.77    0.68
   0  -2  12   11.46    0.69
   0  -2 -12   10.94    0.50
   0  -2 -12   10.91    0.56
   0  -2 -12    9.61    0.83
   0  -2 -12    9.86    0.40
   0   2  12   11.07    0.93
   0   2 -12   10.63    0.42
   0   2  12   10.50    0.70
   0   2 -12   11.19    0.44
   0   2 -12    9.70    0.78
   0   2 -12   10.61    0.40
   0   2  12   10.29    0.79
   0   2 -12   10.88    0.94
  -1  -2 -12   10.56    0.45
  -1  -2 -12   11.72    0.41
  -1  -2 -12   11.12    0.41
  -1  -2 -12   10.72    0.39
  -1  -2 -12   10.58    0.36
  -1  -2 -12   10.88    0.38
  -1   2 -12   11.07    0.41
   1   2  12   11.39    0.50
   1   2  12   10.20    0.38
  -1   2 -12   11.07    0.41
  -1   2 -12   10.54    0.43
  -1   2 -12   10.94    0.45
  -1   2 -12   10.82    0.37
  -1   2 -12   10.50    0.37
  -1   2 -12   10.53    0.39
  -1   2 -12   10.59    0.36
  -1   2 -12   11.00    0.46
  -1   2 -12   10.53    0.37
  -2  -2 -12    7.08    0.34
  -2  -2 -12    6.82    0.34
  -2  -2 -12    7.47    0.33
  -2  -2 -12    7.40    0.37
  -2   2 -12    6.98    0.33
   2   2  12    6.46    0.31
  -2   2 -12    7.36    0.36
  -2   2 -12    6.59    0.34
  -2   2 -12    6.78    0.37
  -2   2 -12    7.12    0.34
  -2   2 -12    6.68    0.36
   2   2  12    6.84    0.31
  -2   2 -12    6.70    0.33
  -2   2 -12    7.23    0.35
  -2   2 -12    7.92    0.36
  -2   2 -12    7.46    0.34
  -3  -2 -12    0.04    0.08
  -3  -2 -12   -0.03    0.07
  -3  -2 -12   -0.11    0.08
  -3   2 -12   -0.04    0.09
  -3   2 -12   -0.14    0.07
  -3   2 -12    0.13    0.10
   3   2  12    0.06    0.09
  -3   2 -12    0.02    0.08
  -3   2 -12    0.13    0.10
  -3   2 -12   -0.13    0.08
  -3   2 -12   -0.05    0.07
   3   2  12    0.02    0.08
   3   2  12    0.10    0.09
  -3   2 -12    0.05    0.09
  -3   2 -12    0.09    0.09
  -4  -2 -12    0.10    0.08
  -4  -2 -12    0.35    0.11
   4  -2  12    0.14    0.09
   4  -2  12    0.01    0.07
  -4  -2 -12   -0.03    0.07
   4   2  12    0.04    0.08
  -4   2 -12    0.05    0.08
   4   2  12    0.09    0.08
  -4   2 -12    0.12    0.07
  -4   2 -12    0.06    0.07
  -4   2 -12    0.27    0.09
  -4   2 -12   -0.01    0.06
   4  -3 -12    0.33    0.10
   4  -3 -12    0.39    0.09
   4  -3 -12    0.14    0.08
   4   3 -12    0.47    0.09
   4   3 -12    0.42    0.10
   4   3 -12    0.22    0.08
   4   3 -12    0.28    0.08
   4   3 -12    0.27    0.08
  -4   3  12    0.24    0.09
  -4   3  12    0.32    0.08
   4   3 -12    0.26    0.08
   4   3 -12    0.14    0.07
  -4   3  12    0.27    0.08
   4   3 -12    0.36    0.10
   4   3 -12    0.46    0.10
   3  -3 -12    2.65    0.26
   3  -3 -12    2.60    0.22
   3  -3 -12    2.42    0.22
   3  -3 -12    1.91    0.21
   3   3 -12    2.52    0.22
   3   3 -12    2.73    0.22
  -3   3  12    3.02    0.26
   3   3 -12    2.42    0.23
   3   3 -12    2.65    0.23
  -3   3  12    2.89    0.23
   3   3 -12    2.49    0.21
   3   3 -12    2.74    0.20
   3   3 -12    2.82    0.22
  -3   3  12    2.85    0.23
   3   3 -12    2.99    0.22
   2  -3 -12   10.87    0.43
   2  -3 -12   10.28    0.39
   2  -3 -12   10.61    0.46
   2  -3 -12   10.21    0.36
   2   3 -12   10.32    0.35
   2   3 -12   10.61    0.37
   2   3 -12   10.18    0.39
   2   3 -12   10.57    0.36
  -2   3  12   10.50    0.41
   2   3 -12   10.75    0.35
   2   3 -12   10.02    0.36
   2   3 -12   10.75    0.35
  -2   3  12   10.38    0.36
   1  -3 -12    0.11    0.10
   1  -3 -12    0.04    0.07
   1  -3 -12    0.00    0.08
   1  -3 -12    0.01    0.10
   1  -3 -12   -0.11    0.07
  -1   3  12    0.00    0.08
  -1   3  12    0.01    0.07
   1   3 -12    0.07    0.08
   1   3 -12    0.11    0.07
   1   3 -12   -0.06    0.08
   1   3 -12    0.11    0.08
   1   3 -12    0.03    0.06
   0  -3 -12    2.55    0.26
   0  -3 -12    2.90    0.24
   0  -3 -12    2.69    0.25
   0  -3 -12    2.46    0.24
   0  -3 -12    2.99    0.23
   0   3 -12    3.06    0.27
   0   3 -12    3.30    0.24
   0   3  12    2.43    0.22
   0   3 -12    2.93    0.25
   0   3  12    2.91    0.24
   0   3 -12    3.04    0.25
   0   3 -12    2.80    0.25
   0   3 -12    2.89    0.22
   0   3  12    3.06    0.25
   0   3 -12    2.66    0.26
  -1  -3 -12   69.81    1.33
  -1  -3 -12   69.29    1.24
  -1  -3 -12   64.19    1.59
  -1  -3 -12   68.09    1.17
  -1  -3 -12   68.69    1.24
   1   3  12   67.73    1.18
  -1   3 -12   68.16    1.19
   1   3  12   67.83    1.23
  -1   3 -12   67.55    1.22
  -1   3 -12   68.57    1.20
  -1   3 -12   69.27    1.25
  -1   3 -12   66.85    1.20
   1   3  12   67.03    1.20
  -1   3 -12   68.38    1.24
  -1   3 -12   67.85    1.31
  -1   3 -12   67.88    1.33
  -1   3 -12   68.07    1.29
  -2  -3 -12    0.40    0.11
  -2  -3 -12    0.44    0.13
  -2  -3 -12    0.52    0.13
  -2   3 -12    0.42    0.14
  -2   3 -12    0.44    0.12
  -2   3 -12    0.53    0.14
   2   3  12    0.35    0.11
  -2   3 -12    0.56    0.14
  -2   3 -12    0.51    0.12
  -2   3 -12    0.44    0.12
   2   3  12    0.62    0.13
   2   3  12    0.54    0.14
  -2   3 -12    0.37    0.13
  -2   3 -12    0.48    0.13
  -2   3 -12    0.41    0.14
  -2   3 -12    0.40    0.12
  -3  -3 -12    1.87    0.19
  -3  -3 -12    1.68    0.19
  -3  -3 -12    1.52    0.18
  -3   3 -12    1.91    0.19
  -3   3 -12    1.90    0.21
  -3   3 -12    1.78    0.21
   3   3  12    1.88    0.21
  -3   3 -12    2.01    0.21
   3   3  12    2.02    0.20
  -3   3 -12    1.76    0.21
   3   3  12    1.58    0.18
  -3   3 -12    2.12    0.24
  -3   3 -12    1.81    0.21
  -3   3 -12    1.96    0.21
  -4  -3 -12   11.17    0.32
  -4  -3 -12   10.70    0.32
   4  -3  12   11.41    0.32
  -4   3 -12   10.49    0.30
  -4   3 -12   10.94    0.34
   4   3  12   10.94    0.31
  -4   3 -12   10.64    0.31
  -4   3 -12   10.99    0.32
   4   3  12   10.70    0.33
   4  -4 -12    0.16    0.07
   4  -4 -12    0.12    0.08
   4   4 -12    0.11    0.05
   4   4 -12    0.10    0.05
   4   4 -12    0.23    0.08
   4   4 -12    0.08    0.04
   4   4 -12    0.10    0.05
   4   4 -12    0.09    0.06
  -4   4  12    0.13    0.05
   4   4 -12    0.18    0.06
  -4   4  12    0.16    0.06
  -4   4  12    0.16    0.06
   3  -4 -12    2.14    0.20
   3  -4 -12    3.18    0.23
   3  -4 -12    2.84    0.26
   3   4 -12    2.91    0.19
   3   4 -12    3.22    0.22
  -3   4  12    3.05    0.24
   3   4 -12    2.46    0.19
   3   4 -12    2.78    0.22
   3   4 -12    2.49    0.21
   3   4 -12    2.56    0.19
  -3   4  12    3.31    0.27
  -3   4  12    3.16    0.23
   3   4 -12    3.06    0.22
   2  -4 -12   42.32    0.82
   2  -4 -12   40.30    0.90
   2  -4 -12   42.09    0.93
   2  -4 -12   41.12    0.96
  -2   4  12   41.74    0.90
   2   4 -12   42.21    0.80
   2   4 -12   41.45    0.79
   2   4 -12   42.71    0.78
  -2   4  12   41.04    0.84
  -2   4  12   41.14    0.86
   2   4 -12   41.58    0.77
   1  -4 -12    1.46    0.19
   1  -4 -12    1.30    0.19
   1  -4 -12    1.20    0.18
  -1   4  12    1.75    0.22
  -1   4  12    1.42    0.16
  -1   4  12    1.47    0.17
  -1   4  12    1.28    0.17
   0  -4 -12    6.20    0.30
   0  -4 -12    5.96    0.34
   0  -4 -12    6.68    0.34
   0   4 -12    5.56    0.30
   0   4 -12    5.79    0.27
   0   4 -12    5.99    0.33
   0   4  12    5.94    0.31
   0   4  12    6.24    0.30
   0   4  12    5.82    0.30
  -1  -4 -12    1.67    0.18
  -1  -4 -12    1.77    0.19
  -1  -4 -12    1.63    0.19
  -1  -4 -12    1.82    0.22
   1   4  12    1.94    0.21
  -1   4 -12    2.16    0.25
  -1   4 -12    1.77    0.20
  -1   4 -12    2.60    0.24
  -1   4 -12    1.75    0.23
  -1   4 -12    1.91    0.20
  -1   4 -12    1.75    0.19
   1   4  12    2.01    0.20
  -1   4 -12    1.91    0.23
   1   4  12    1.83    0.21
  -2  -4 -12    1.99    0.20
  -2  -4 -12    2.19    0.21
  -2  -4 -12    2.44    0.23
   2   4  12    2.24    0.22
   2   4  12    2.17    0.21
  -2   4 -12    1.80    0.21
  -2   4 -12    2.64    0.24
  -2   4 -12    2.17    0.25
  -2   4 -12    2.30    0.21
  -2   4 -12    2.30    0.22
  -2   4 -12    2.38    0.22
  -2   4 -12    2.76    0.28
   2   4  12    2.26    0.21
  -2   4 -12    2.04    0.19
  -2   4 -12    2.52    0.25
  -3  -4 -12    1.72    0.16
  -3  -4 -12    1.92    0.17
  -3  -4 -12    1.82    0.18
  -3   4 -12    1.73    0.20
   3   4  12    1.78    0.16
  -3   4 -12    1.99    0.20
  -3   4 -12    1.74    0.18
  -3   4 -12    1.93    0.19
  -3   4 -12    1.78    0.17
  -3   4 -12    1.88    0.19
   3   4  12    1.83    0.18
  -3   4 -12    2.00    0.19
  -3   4 -12    2.06    0.19
   3   4  12    1.51    0.16
   3  -5 -12    1.12    0.15
   3  -5 -12    1.13    0.12
   3  -5 -12    1.24    0.15
   3   5 -12    1.16    0.11
   3   5 -12    1.08    0.10
  -3   5  12    0.97    0.12
   3   5 -12    1.31    0.12
   3   5 -12    1.62    0.12
   3   5 -12    0.93    0.12
  -3   5  12    1.14    0.14
   2  -5 -12   -0.05    0.08
   2  -5 -12    0.18    0.09
   2  -5 -12    0.15    0.10
  -2   5  12    0.07    0.08
  -2   5  12    0.12    0.08
  -2   5  12    0.24    0.08
   1  -5 -12    0.92    0.17
   1  -5 -12    0.89    0.15
   1  -5 -12    1.12    0.18
  -1   5  12    0.88    0.15
  -1   5  12    1.13    0.14
  -1   5  12    1.03    0.15
   0  -5 -12   20.49    0.63
   0  -5 -12   20.84    0.59
   0  -5 -12   20.97    0.56
   0   5  12   21.17    0.58
   0   5  12   20.87    0.59
   0   5  12   20.40    0.54
  -1  -5 -12    1.33    0.18
  -1  -5 -12    1.60    0.16
  -1  -5 -12    1.16    0.15
  -1   5 -12    1.45    0.17
   1   5  12    1.47    0.18
  -1   5 -12    1.34    0.18
  -1   5 -12    1.28    0.18
   1   5  12    1.79    0.20
  -1   5 -12    1.65    0.20
  -1   5 -12    2.02    0.19
  -1   5 -12    1.13    0.13
   1   5  12    1.39    0.17
  -2  -5 -12    0.72    0.12
  -2  -5 -12    0.78    0.13
  -2  -5 -12    0.76    0.12
  -2   5 -12    0.95    0.16
  -2   5 -12    0.84    0.13
   2   5  12    0.68    0.12
  -2   5 -12    0.79    0.13
  -2   5 -12    0.89    0.13
   2   5  12    1.05    0.14
  -2   5 -12    0.81    0.13
  -2   5 -12    0.75    0.14
   2   5  12    0.71    0.14
  -2   5 -12    0.85    0.12
  -2   5 -12    0.84    0.15
  -3  -5 -12    1.28    0.12
  -3  -5 -12    0.94    0.11
  -3   5 -12    1.58    0.15
  -3   5 -12    1.22    0.12
  -3   5 -12    1.28    0.13
  -3   5 -12    1.17    0.14
   3   5  12    1.29    0.12
   3   5  12    1.19    0.11
  -3   5 -12    1.18    0.12
  -3   5 -12    1.30    0.13
  -3   5 -12    1.49    0.14
   2  -6 -12    1.38    0.13
   2  -6 -12    1.67    0.15
   2  -6 -12    1.74    0.17
  -2   6  12    1.94    0.14
  -2   6  12    1.80    0.16
   1  -6 -12    0.19    0.09
   1  -6 -12    0.22    0.10
  -1   6  12    0.07    0.07
  -1   6  12    0.11    0.08
  -1   6  12    0.36    0.09
   0  -6 -12    7.27    0.33
   0  -6 -12    6.73    0.28
   0  -6 -12    6.58    0.28
   0   6  12    7.03    0.30
   0   6  12    6.39    0.28
  -1  -6 -12    0.15    0.09
  -1  -6 -12    0.10    0.06
  -1  -6 -12    0.15    0.09
  -1   6 -12    0.15    0.07
   1   6  12    0.16    0.09
   1   6  12    0.18    0.08
   1   6  12    0.23    0.09
  -1   6 -12   -0.03    0.07
  -1   6 -12    0.16    0.07
  -1   6 -12    0.11    0.07
  -2  -6 -12    0.23    0.08
  -2  -6 -12    0.45    0.08
  -2   6 -12    0.37    0.08
  -2   6 -12    0.44    0.09
  -2   6 -12    0.37    0.08
   2   6  12    0.32    0.08
  -2   6 -12    0.36    0.08
  -2   6 -12    0.32    0.08
  -2   6 -12    0.36    0.10
   2   6  12    0.30    0.07
  -5   0  13    0.00    0.05
   5   0 -13   -0.16    0.05
   5   0 -13   -0.08    0.05
   5   0 -13   -0.01    0.05
  -5   0  13    0.06    0.05
  -4   0  13    0.01    0.07
   4   0 -13   -0.03    0.07
   4   0 -13   -0.05    0.05
   4   0 -13   -0.04    0.07
   4   0 -13    0.08    0.08
   4   0 -13    0.00    0.07
   4   0 -13   -0.04    0.07
   4   0 -13   -0.11    0.07
   4   0 -13    0.06    0.07
   4   0 -13   -0.15    0.05
   3   0 -13   -0.06    0.08
   3   0 -13    0.10    0.09
   3   0 -13    0.08    0.07
   3   0 -13   -0.04    0.07
   3   0 -13   -0.02    0.07
   3   0 -13    0.00    0.07
   3   0 -13   -0.08    0.06
   3   0 -13   -0.04    0.08
   3   0 -13   -0.04    0.07
   3   0 -13    0.02    0.10
   2   0 -13   -0.02    0.07
   2   0 -13   -0.05    0.08
   2   0 -13    0.04    0.09
   2   0 -13    0.21    0.11
   2   0 -13    0.05    0.08
   2   0 -13    0.16    0.09
   2   0 -13   -0.04    0.08
   2   0 -13    0.02    0.07
   2   0 -13    0.08    0.08
   2   0 -13   -0.01    0.08
   1   0 -13   -0.09    0.06
   1   0 -13    0.00    0.08
   1   0 -13    0.16    0.09
   1   0 -13    0.10    0.07
   1   0 -13   -0.02    0.07
   1   0 -13   -0.03    0.06
  -1   0  13   -0.02    0.13
   1   0 -13    0.00    0.07
   1   0 -13    0.18    0.10
   1   0 -13    0.01    0.05
   1   0 -13    0.19    0.18
   1   0 -13    0.02    0.07
   0   0 -13    0.10    0.10
   0   0  13   -0.01    0.15
   0   0 -13    0.36    0.22
   0   0 -13    0.03    0.07
   0   0 -13    0.01    0.07
   0   0  13   -0.05    0.12
   0   0  13   -0.06    0.21
   0   0 -13   -0.07    0.06
   0   0 -13    0.07    0.07
   0   0 -13    0.00    0.09
   0   0 -13    0.00    0.31
   0   0 -13    0.08    0.09
   0   0 -13    0.00    0.07
   0   0 -13   -0.09    0.16
  -1   0 -13    0.11    0.11
  -1   0 -13   -0.06    0.08
  -1   0 -13    0.03    0.09
  -1   0 -13   -0.09    0.07
  -1   0 -13    0.53    0.12
  -1   0 -13    0.14    0.10
  -1   0 -13    0.01    0.08
  -1   0 -13   -0.01    0.10
  -1   0 -13    0.03    0.09
  -2   0 -13    0.05    0.09
  -2   0 -13    0.05    0.09
   2   0  13    0.03    0.07
  -2   0 -13    0.31    0.12
  -2   0 -13    0.09    0.10
  -2   0 -13    0.06    0.09
  -2   0 -13    0.32    0.11
  -2   0 -13    0.05    0.09
  -2   0 -13   -0.01    0.09
  -2   0 -13    0.11    0.08
  -2   0 -13    0.29    0.10
  -3   0 -13    0.02    0.10
  -3   0 -13    0.17    0.11
  -3   0 -13    0.07    0.10
  -3   0 -13    0.08    0.09
  -3   0 -13   -0.01    0.09
  -3   0 -13   -0.01    0.09
  -3   0 -13   -0.11    0.08
   3   0  13    0.00    0.08
   4   0  13   -0.04    0.08
   4   0  13    0.01    0.09
  -4   0 -13    0.04    0.07
  -4   0 -13   -0.02    0.07
  -4   0 -13    0.03    0.07
   4   0  13    0.11    0.08
  -5  -1  13    0.15    0.05
   5  -1 -13    0.22    0.06
   5  -1 -13    0.04    0.05
   5   1 -13    0.10    0.06
   5   1 -13    0.13    0.06
  -5   1  13    0.14    0.05
  -5   1  13    0.18    0.07
   5   1 -13    0.19    0.06
   5   1 -13    0.11    0.06
  -4  -1  13    0.03    0.06
   4  -1 -13   -0.01    0.07
   4  -1 -13    0.00    0.06
   4  -1 -13    0.01    0.08
   4  -1 -13   -0.02    0.07
   4  -1 -13    0.00    0.08
   4  -1 -13   -0.04    0.07
   4   1 -13    0.03    0.08
  -4   1  13   -0.05    0.06
   4   1 -13   -0.04    0.06
  -4   1  13    0.01    0.05
   4   1 -13    0.02    0.07
   4   1 -13    0.03    0.07
   4   1 -13    0.01    0.09
   4   1 -13   -0.02    0.07
   4   1 -13   -0.06    0.07
   4   1 -13   -0.04    0.06
   4   1 -13   -0.01    0.07
   3  -1 -13   11.62    0.37
   3  -1 -13   11.33    0.41
   3  -1 -13   10.89    0.40
   3  -1 -13   11.32    0.42
   3  -1 -13   11.10    0.45
   3  -1 -13   11.08    0.43
   3  -1 -13   11.10    0.35
   3  -1 -13   10.94    0.39
   3  -1 -13   10.96    0.38
   3  -1 -13   11.07    0.42
   3   1 -13   11.10    0.40
   3   1 -13   11.75    0.37
   3   1 -13   11.01    0.40
   3   1 -13   11.76    0.42
   3   1 -13   11.53    0.38
   3   1 -13   11.36    0.38
  -3   1  13   10.75    0.36
   3   1 -13   11.08    0.43
   3   1 -13   11.63    0.40
   3   1 -13   11.33    0.39
   3   1 -13   10.90    0.38
   2  -1 -13    0.17    0.09
   2  -1 -13    0.32    0.10
   2  -1 -13    0.06    0.09
   2  -1 -13    0.16    0.09
   2  -1 -13    0.16    0.09
   2  -1 -13    0.07    0.08
   2  -1 -13    0.34    0.12
   2  -1 -13    0.32    0.12
   2  -1 -13    0.33    0.09
   2  -1 -13    0.18    0.11
   2   1 -13    0.16    0.09
   2   1 -13    0.02    0.08
   2   1 -13    0.21    0.09
   2   1 -13    0.19    0.08
   2   1 -13    0.06    0.09
   2   1 -13    0.16    0.09
   2   1 -13    0.17    0.08
   2   1 -13    0.16    0.08
   2   1 -13    0.31    0.10
   1  -1 -13    1.93    0.21
   1  -1 -13    1.61    0.17
   1  -1 -13    1.95    0.19
   1  -1 -13    1.66    0.18
   1  -1 -13    2.12    0.20
   1  -1 -13    1.89    0.18
   1  -1 -13    1.52    0.17
   1  -1 -13    1.72    0.17
   1  -1 -13    1.79    0.17
   1  -1 -13    1.60    0.17
   1  -1 -13    1.43    0.18
   1   1 -13    2.53    0.24
   1   1 -13    1.70    0.17
   1   1 -13    2.08    0.22
   1   1 -13    1.68    0.19
   1   1 -13    2.07    0.19
   1   1 -13    2.09    0.18
   1   1 -13    1.80    0.18
   1   1 -13    1.46    0.17
   1   1 -13    1.49    0.16
   0  -1 -13    5.31    0.29
   0  -1 -13    5.48    0.32
   0  -1 -13    5.16    0.27
   0  -1 -13    5.34    0.26
   0  -1 -13    5.67    0.31
   0  -1 -13    5.15    0.25
   0  -1  13    5.57    0.52
   0  -1 -13    5.27    0.60
   0  -1 -13    4.96    0.27
   0  -1 -13    5.54    0.35
   0  -1 -13    5.05    0.25
   0  -1 -13    5.02    0.26
   0  -1 -13    5.28    0.36
   0   1 -13    4.76    0.26
   0   1 -13    5.35    0.27
   0   1 -13    4.79    0.30
   0   1 -13    5.12    0.30
   0   1 -13    5.26    0.26
   0   1 -13    5.56    0.26
   0   1 -13    5.07    0.29
   0   1 -13    5.18    0.24
   0   1  13    5.53    0.56
   0   1 -13    5.35    0.25
  -1  -1 -13    1.26    0.16
  -1  -1 -13    0.76    0.15
  -1  -1 -13    1.09    0.18
  -1  -1 -13    1.05    0.15
  -1  -1 -13    0.95    0.16
  -1  -1 -13    1.31    0.18
  -1  -1 -13    0.84    0.16
  -1  -1 -13    0.92    0.15
  -1   1 -13    1.17    0.15
  -1   1 -13    1.05    0.17
  -1   1 -13    1.10    0.18
   1   1  13    1.19    0.15
  -1   1 -13    0.90    0.15
  -1   1 -13    0.85    0.15
  -1   1 -13    1.08    0.15
  -1   1 -13    0.78    0.12
  -1   1 -13    1.09    0.18
  -1   1 -13    0.78    0.14
  -1   1 -13    1.11    0.16
  -2  -1 -13    1.22    0.17
  -2  -1 -13    1.19    0.18
  -2  -1 -13    1.24    0.17
  -2  -1 -13    1.30    0.20
  -2  -1 -13    1.19    0.16
  -2  -1 -13    1.13    0.16
  -2  -1 -13    1.40    0.21
   2   1  13    1.82    0.19
  -2   1 -13    1.34    0.18
  -2   1 -13    1.41    0.18
  -2   1 -13    1.06    0.16
  -2   1 -13    1.21    0.20
  -2   1 -13    1.28    0.20
  -2   1 -13    1.51    0.20
  -2   1 -13    1.24    0.17
  -2   1 -13    1.17    0.17
  -3  -1 -13    2.60    0.22
  -3  -1 -13    2.69    0.24
   3  -1  13    3.17    0.26
  -3  -1 -13    2.99    0.26
  -3  -1 -13    2.81    0.23
  -3  -1 -13    3.26    0.24
  -3   1 -13    2.63    0.26
   3   1  13    3.19    0.24
  -3   1 -13    2.59    0.26
  -3   1 -13    3.25    0.27
  -3   1 -13    2.53    0.23
  -3   1 -13    3.01    0.25
   3   1  13    3.25    0.27
  -3   1 -13    2.44    0.23
   3   1  13    2.91    0.27
  -3   1 -13    2.88    0.25
  -3   1 -13    3.13    0.23
  -3   1 -13    2.62    0.23
   4  -1  13    1.41    0.15
  -4  -1 -13    1.37    0.14
   4  -1  13    1.55    0.17
  -4  -1 -13    1.35    0.14
  -4  -1 -13    1.67    0.17
  -4   1 -13    1.73    0.17
   4   1  13    1.29    0.16
  -4   1 -13    1.49    0.14
   4   1  13    1.62    0.17
  -4   1 -13    1.42    0.15
  -4   1 -13    1.39    0.15
   4  -2 -13   -0.01    0.07
   4  -2 -13    0.04    0.06
   4  -2 -13   -0.04    0.07
   4  -2 -13   -0.07    0.06
   4  -2 -13   -0.05    0.06
   4   2 -13    0.04    0.07
   4   2 -13    0.10    0.07
  -4   2  13    0.04    0.06
   4   2 -13   -0.02    0.07
   4   2 -13    0.02    0.06
   4   2 -13    0.08    0.07
   4   2 -13   -0.01    0.07
  -4   2  13    0.04    0.06
   4   2 -13    0.03    0.06
   4   2 -13    0.02    0.06
  -4   2  13    0.01    0.06
   3  -2 -13    0.95    0.15
   3  -2 -13    1.18    0.16
   3  -2 -13    1.25    0.15
   3  -2 -13    1.21    0.14
   3  -2 -13    1.08    0.17
   3  -2 -13    1.09    0.16
   3   2 -13    1.09    0.13
   3   2 -13    1.27    0.15
   3   2 -13    1.08    0.16
  -3   2  13    0.82    0.12
   3   2 -13    1.26    0.16
   3   2 -13    1.21    0.15
   3   2 -13    0.98    0.16
  -3   2  13    0.96    0.15
   3   2 -13    1.09    0.15
   3   2 -13    1.34    0.17
   3   2 -13    0.97    0.14
   2  -2 -13    3.33    0.25
   2  -2 -13    3.16    0.26
   2  -2 -13    3.06    0.23
   2  -2 -13    2.80    0.25
   2  -2 -13    3.19    0.24
   2  -2 -13    3.00    0.27
   2   2 -13    3.47    0.23
  -2   2  13    3.14    0.23
   2   2 -13    2.77    0.21
   2   2 -13    3.08    0.26
   2   2 -13    3.19    0.24
   2   2 -13    3.38    0.24
   2   2 -13    3.32    0.24
   2   2 -13    3.46    0.26
   2   2 -13    3.08    0.22
   2   2 -13    3.39    0.25
  -2   2  13    3.56    0.27
   1  -2 -13   48.65    1.03
   1  -2 -13   47.97    1.01
   1  -2 -13   47.66    0.91
   1  -2 -13   45.96    0.99
   1  -2 -13   48.31    0.94
   1  -2 -13   47.67    0.90
   1  -2 -13   46.81    0.87
   1   2 -13   48.42    0.87
   1   2 -13   47.28    0.95
   1   2 -13   47.98    0.90
  -1   2  13   47.55    0.94
   1   2 -13   48.31    0.91
   1   2 -13   47.09    0.99
   1   2 -13   47.66    0.90
   1   2 -13   47.00    0.92
   1   2 -13   47.49    0.86
   0  -2 -13    0.19    0.11
   0  -2 -13    0.27    0.11
   0  -2 -13    0.31    0.11
   0  -2 -13    0.12    0.09
   0  -2 -13    0.20    0.09
   0  -2 -13    0.16    0.09
   0  -2 -13    0.31    0.11
   0   2 -13    0.22    0.08
   0   2 -13    0.36    0.10
   0   2  13    0.17    0.09
   0   2 -13    0.24    0.09
   0   2 -13    0.20    0.11
   0   2 -13    0.22    0.09
   0   2 -13    0.20    0.10
   0   2 -13    0.19    0.11
   0   2 -13    0.19    0.10
   0   2 -13    0.11    0.08
  -1  -2 -13    2.91    0.25
  -1  -2 -13    3.14    0.26
  -1  -2 -13    2.63    0.24
  -1  -2 -13    2.89    0.24
  -1  -2 -13    2.62    0.27
  -1   2 -13    3.95    0.28
  -1   2 -13    3.20    0.24
  -1   2 -13    3.07    0.27
  -1   2 -13    3.24    0.31
  -1   2 -13    3.17    0.26
  -1   2 -13    2.90    0.27
  -1   2 -13    2.99    0.28
   1   2  13    3.05    0.24
  -1   2 -13    3.22    0.25
  -1   2 -13    2.64    0.22
  -2  -2 -13    0.02    0.09
  -2  -2 -13   -0.09    0.07
  -2  -2 -13    0.07    0.11
  -2  -2 -13    0.10    0.10
   2   2  13    0.06    0.08
   2   2  13    1.16    0.16
  -2   2 -13   -0.02    0.09
  -2   2 -13    0.01    0.09
  -2   2 -13    0.04    0.09
  -2   2 -13   -0.12    0.07
  -2   2 -13    0.11    0.11
  -2   2 -13   -0.02    0.09
  -2   2 -13    1.00    0.16
  -2   2 -13    0.02    0.08
  -2   2 -13   -0.04    0.09
  -3  -2 -13    0.42    0.11
  -3  -2 -13    0.75    0.12
  -3  -2 -13    0.50    0.13
  -3   2 -13    0.66    0.15
  -3   2 -13    0.47    0.12
  -3   2 -13    0.52    0.12
   3   2  13    0.40    0.11
  -3   2 -13    0.57    0.15
   3   2  13    0.35    0.11
  -3   2 -13    0.48    0.12
  -3   2 -13    0.65    0.15
   3   2  13    0.52    0.13
  -3   2 -13    0.38    0.11
  -3   2 -13    0.43    0.12
  -3   2 -13    0.44    0.12
   4  -2  13    0.33    0.09
  -4  -2 -13    0.03    0.09
   4  -2  13    0.08    0.07
  -4  -2 -13    0.18    0.08
  -4  -2 -13    0.07    0.08
  -4   2 -13    0.32    0.09
  -4   2 -13    0.42    0.09
  -4   2 -13    0.25    0.08
   4   2  13    0.36    0.09
   4   2  13    0.14    0.06
  -4   2 -13    0.28    0.09
   4   2  13    0.17    0.09
   4  -3 -13    7.07    0.27
   4  -3 -13    7.49    0.29
   4  -3 -13    7.49    0.28
  -4   3  13    7.45    0.26
   4   3 -13    7.56    0.26
   4   3 -13    7.51    0.26
   4   3 -13    7.24    0.26
   4   3 -13    7.35    0.26
   4   3 -13    7.67    0.28
   4   3 -13    7.36    0.24
   4   3 -13    7.60    0.23
  -4   3  13    7.65    0.25
   4   3 -13    7.47    0.26
  -4   3  13    7.46    0.29
   3  -3 -13   -0.07    0.08
   3  -3 -13    0.09    0.09
   3  -3 -13   -0.07    0.07
   3   3 -13    0.08    0.07
   3   3 -13   -0.09    0.05
   3   3 -13    0.04    0.06
  -3   3  13   -0.04    0.06
   3   3 -13    0.07    0.07
   3   3 -13   -0.03    0.06
   3   3 -13   -0.03    0.06
  -3   3  13   -0.01    0.06
   3   3 -13   -0.05    0.07
  -3   3  13    0.01    0.06
   3   3 -13   -0.12    0.06
   2  -3 -13    1.05    0.17
   2  -3 -13    1.36    0.17
   2  -3 -13    0.85    0.15
   2  -3 -13    1.24    0.16
   2   3 -13    1.33    0.18
   2   3 -13    1.00    0.15
  -2   3  13    1.13    0.17
   2   3 -13    1.04    0.14
   2   3 -13    1.29    0.17
  -2   3  13    1.23    0.15
   2   3 -13    1.11    0.17
   2   3 -13    1.15    0.14
  -2   3  13    1.43    0.18
   2   3 -13    1.17    0.15
   2   3 -13    1.01    0.14
   1  -3 -13    4.34    0.32
   1  -3 -13    5.05    0.31
   1  -3 -13    5.11    0.25
   1  -3 -13    4.91    0.31
   1  -3 -13    3.89    0.30
   1   3 -13    4.84    0.26
   1   3 -13    4.95    0.23
  -1   3  13    5.05    0.29
   1   3 -13    4.48    0.24
  -1   3  13    5.22    0.28
   1   3 -13    4.92    0.25
   1   3 -13    4.87    0.27
   1   3 -13    4.97    0.24
   0  -3 -13   21.70    0.62
   0  -3 -13   22.45    0.66
   0  -3 -13   22.81    0.63
   0  -3 -13   20.72    0.57
   0  -3 -13   21.33    0.55
   0   3 -13   21.38    0.54
   0   3 -13   20.55    0.61
   0   3 -13   21.53    0.55
   0   3  13   19.96    0.59
   0   3  13   22.40    0.59
   0   3  13   21.86    0.59
   0   3 -13   21.05    0.61
   0   3 -13   21.75    0.64
   0   3 -13   21.69    0.58
   0   3 -13   21.18    0.58
  -1  -3 -13    1.09    0.16
  -1  -3 -13    1.24    0.16
  -1  -3 -13    0.93    0.18
  -1  -3 -13    1.04    0.16
  -1  -3 -13    1.21    0.17
   1   3  13    1.04    0.15
  -1   3 -13    1.07    0.17
  -1   3 -13    1.27    0.19
  -1   3 -13    0.84    0.14
  -1   3 -13    1.29    0.20
  -1   3 -13    1.12    0.19
   1   3  13    1.24    0.16
  -1   3 -13    0.92    0.14
  -1   3 -13    1.08    0.17
  -1   3 -13    1.00    0.16
  -1   3 -13    1.18    0.18
   1   3  13    1.16    0.18
  -2  -3 -13    8.17    0.36
  -2  -3 -13    7.45    0.37
  -2  -3 -13    7.31    0.32
  -2   3 -13    7.27    0.34
  -2   3 -13    7.74    0.34
  -2   3 -13    8.00    0.35
  -2   3 -13    7.59    0.39
   2   3  13    7.53    0.34
  -2   3 -13    7.41    0.34
  -2   3 -13    7.67    0.39
   2   3  13    7.72    0.34
  -2   3 -13    7.43    0.36
  -2   3 -13    8.00    0.33
  -2   3 -13    7.27    0.37
   2   3  13    7.54    0.34
  -2   3 -13    7.35    0.36
  -3  -3 -13   18.93    0.49
  -3  -3 -13   21.04    0.54
  -3  -3 -13   20.20    0.52
  -3   3 -13   20.80    0.52
  -3   3 -13   20.06    0.55
  -3   3 -13   20.24    0.51
  -3   3 -13   19.87    0.54
  -3   3 -13   20.30    0.55
  -3   3 -13   20.36    0.54
   3   3  13   20.48    0.54
   3   3  13   20.49    0.52
  -3   3 -13   20.74    0.54
  -3   3 -13   19.69    0.58
   3   3  13   20.03    0.50
  -3   3 -13   20.51    0.57
   4  -3  13    3.35    0.16
  -4  -3 -13    3.46    0.17
   4  -3  13    3.47    0.17
  -4   3 -13    3.63    0.17
   4   3  13    3.47    0.17
   4   3  13    3.28    0.15
  -4   3 -13    3.14    0.16
  -4   3 -13    3.27    0.16
  -4   3 -13    3.07    0.17
   4  -4 -13    0.82    0.10
   4  -4 -13    0.75    0.09
   4   4 -13    1.05    0.11
   4   4 -13    0.92    0.09
   4   4 -13    0.95    0.09
   4   4 -13    1.00    0.10
  -4   4  13    0.99    0.10
   4   4 -13    1.12    0.10
  -4   4  13    1.09    0.10
   4   4 -13    0.90    0.09
   3  -4 -13    0.32    0.09
   3  -4 -13    0.20    0.08
   3  -4 -13    0.37    0.12
  -3   4  13    0.17    0.08
   3   4 -13    0.22    0.07
   3   4 -13    0.37    0.09
   3   4 -13    0.33    0.07
   3   4 -13    0.26    0.08
  -3   4  13    0.22    0.08
   3   4 -13    0.40    0.08
   3   4 -13    0.37    0.09
  -3   4  13    0.36    0.08
   3   4 -13    0.33    0.09
   2  -4 -13    0.79    0.15
   2  -4 -13    0.73    0.14
   2  -4 -13    0.77    0.13
  -2   4  13    0.76    0.14
   2   4 -13    0.80    0.12
  -2   4  13    0.57    0.12
   2   4 -13    0.60    0.10
   2   4 -13    0.91    0.13
  -2   4  13    0.72    0.11
   2   4 -13    0.93    0.13
   1  -4 -13   12.79    0.48
   1  -4 -13   12.79    0.47
   1  -4 -13   12.67    0.49
  -1   4  13   12.52    0.46
  -1   4  13   12.33    0.40
  -1   4  13   12.72    0.44
   0  -4 -13    0.45    0.11
   0  -4 -13    0.35    0.13
   0  -4 -13    0.54    0.14
   0   4  13    0.47    0.11
   0   4 -13    0.62    0.14
   0   4 -13    0.34    0.12
   0   4  13    0.42    0.12
   0   4 -13    0.32    0.10
   0   4  13    0.39    0.11
   0   4 -13    0.43    0.10
  -1  -4 -13    3.75    0.26
  -1  -4 -13    3.42    0.23
  -1  -4 -13    4.08    0.29
  -1  -4 -13    3.83    0.30
  -1   4 -13    3.79    0.26
  -1   4 -13    4.09    0.29
  -1   4 -13    4.31    0.33
  -1   4 -13    4.44    0.34
   1   4  13    3.97    0.27
   1   4  13    4.02    0.28
  -1   4 -13    4.09    0.28
   1   4  13    3.93    0.29
  -1   4 -13    4.33    0.32
  -1   4 -13    4.03    0.25
  -1   4 -13    3.70    0.26
  -2  -4 -13    1.84    0.19
  -2  -4 -13    1.53    0.18
  -2  -4 -13    1.38    0.15
  -2   4 -13    1.42    0.21
  -2   4 -13    1.59    0.17
  -2   4 -13    1.39    0.17
   2   4  13    1.50    0.16
  -2   4 -13    1.84    0.22
   2   4  13    1.60    0.18
  -2   4 -13    1.61    0.19
  -2   4 -13    1.75    0.19
   2   4  13    1.58    0.17
  -2   4 -13    1.77    0.18
  -2   4 -13    1.50    0.15
  -2   4 -13    2.00    0.24
  -3  -4 -13    3.81    0.19
  -3  -4 -13    3.95    0.21
   3  -4  13    3.94    0.19
  -3   4 -13    3.87    0.20
   3   4  13    3.88    0.19
  -3   4 -13    3.97    0.22
   3   4  13    3.32    0.22
  -3   4 -13    3.90    0.22
  -3   4 -13    3.62    0.20
  -3   4 -13    4.06    0.24
  -3   4 -13    3.72    0.22
  -3   4 -13    3.84    0.24
  -3   4 -13    3.99    0.23
   3   4  13    3.52    0.18
   3  -5 -13    1.15    0.10
   3  -5 -13    1.05    0.14
   3  -5 -13    0.97    0.12
   3   5 -13    1.19    0.11
  -3   5  13    1.01    0.12
   3   5 -13    1.07    0.09
   3   5 -13    1.26    0.10
  -3   5  13    1.19    0.11
   2  -5 -13    0.62    0.13
   2  -5 -13    0.55    0.10
   2  -5 -13    0.52    0.12
  -2   5  13    0.72    0.13
  -2   5  13    0.75    0.11
  -2   5  13    0.76    0.11
   1  -5 -13    0.43    0.13
   1  -5 -13    0.35    0.11
   1  -5 -13    0.29    0.11
  -1   5  13    0.63    0.11
  -1   5  13    0.35    0.10
  -1   5  13    0.13    0.08
   0  -5 -13    0.88    0.15
   0  -5 -13    0.78    0.14
   0  -5 -13    0.37    0.11
   0   5  13    0.76    0.15
   0   5  13    0.70    0.12
   0   5  13    0.64    0.13
  -1  -5 -13    0.69    0.12
  -1  -5 -13    0.75    0.15
  -1  -5 -13    1.13    0.13
   1   5  13    0.57    0.11
  -1   5 -13    0.90    0.14
  -1   5 -13    0.74    0.15
  -1   5 -13    1.02    0.12
  -1   5 -13    0.76    0.11
   1   5  13    1.06    0.15
  -1   5 -13    1.05    0.16
  -1   5 -13    0.73    0.14
  -2  -5 -13    4.58    0.23
  -2  -5 -13    5.10    0.25
  -2  -5 -13    4.61    0.23
  -2   5 -13    4.67    0.26
  -2   5 -13    4.98    0.24
  -2   5 -13    4.88    0.23
  -2   5 -13    5.05    0.20
  -2   5 -13    4.66    0.21
  -2   5 -13    4.88    0.26
   2   5  13    5.00    0.24
   2   5  13    4.79    0.21
   2   5  13    5.14    0.22
  -2   5 -13    4.72    0.24
  -2   5 -13    4.78    0.22
   2  -6 -13    0.30    0.09
   2  -6 -13    0.34    0.08
   2  -6 -13    0.24    0.07
  -2   6  13    0.27    0.06
  -2   6  13    0.21    0.07
   1  -6 -13    2.13    0.17
   1  -6 -13    2.08    0.18
  -1   6  13    2.19    0.17
  -1   6  13    2.61    0.20
   0  -6 -13    5.68    0.27
   0  -6 -13    5.43    0.23
   0  -6 -13    5.47    0.24
   0   6  13    5.38    0.24
   0   6  13    4.92    0.24
  -1  -6 -13    0.07    0.06
  -1  -6 -13    0.02    0.08
   1   6  13    0.08    0.07
   1   6  13    0.03    0.06
  -1   6 -13   -0.07    0.06
  -1   6 -13    0.03    0.05
  -1   6 -13    0.04    0.05
   4   0 -14    1.19    0.12
   4   0 -14    1.38    0.16
   4   0 -14    1.13    0.12
  -4   0  14    1.50    0.14
   4   0 -14    1.38    0.13
   4   0 -14    1.10    0.13
   4   0 -14    1.46    0.16
   4   0 -14    1.22    0.15
   4   0 -14    1.22    0.15
   4   0 -14    1.31    0.14
   3   0 -14    1.85    0.20
   3   0 -14    1.99    0.18
   3   0 -14    1.83    0.18
   3   0 -14    2.03    0.19
   3   0 -14    1.71    0.17
   3   0 -14    2.02    0.19
   3   0 -14    2.06    0.20
   3   0 -14    1.99    0.21
   3   0 -14    1.74    0.18
   3   0 -14    2.01    0.21
   2   0 -14   14.13    0.47
   2   0 -14   13.76    0.42
   2   0 -14   13.82    0.45
   2   0 -14   13.16    0.43
   2   0 -14   13.88    0.47
   2   0 -14   12.83    0.44
   2   0 -14   13.59    0.44
   2   0 -14   14.50    0.52
   2   0 -14   14.12    0.44
   2   0 -14   14.09    0.41
   1   0 -14    3.33    0.25
   1   0 -14    3.58    0.29
   1   0 -14    3.62    0.25
   1   0 -14    3.72    0.25
   1   0 -14    3.49    0.24
   1   0 -14    3.62    0.25
   1   0 -14    3.26    0.26
   1   0 -14    3.49    0.23
   1   0 -14    3.27    0.25
   1   0 -14    3.22    0.26
   0   0 -14   12.79    0.42
   0   0 -14   12.73    0.40
   0   0 -14   13.50    0.51
   0   0 -14   13.13    0.44
   0   0 -14   13.57    0.42
   0   0 -14   13.10    0.40
   0   0 -14   12.89    0.47
   0   0 -14   13.36    0.48
   0   0 -14   13.13    0.45
   0   0 -14   13.57    0.41
  -1   0 -14   23.40    0.63
  -1   0 -14   22.52    0.65
  -1   0 -14   22.53    0.61
  -1   0 -14   23.14    0.61
  -1   0 -14   22.92    0.64
  -1   0 -14   23.08    0.67
  -1   0 -14   22.84    0.57
  -1   0 -14   23.16    0.58
  -1   0 -14   22.05    0.58
  -1   0 -14   23.05    0.69
  -2   0 -14   34.55    0.78
  -2   0 -14   34.00    0.88
  -2   0 -14   34.47    0.77
  -2   0 -14   34.34    0.73
  -2   0 -14   35.88    0.80
  -2   0 -14   35.22    0.84
  -2   0 -14   34.91    0.81
   2   0  14   34.20    0.72
  -2   0 -14   34.47    0.82
  -2   0 -14   34.46    0.77
  -2   0 -14   34.57    0.82
   3   0  14   37.68    0.80
  -3   0 -14   36.82    0.84
  -3   0 -14   35.16    0.76
  -3   0 -14   36.47    0.81
  -3   0 -14   37.37    0.79
  -3   0 -14   37.13    0.77
  -4   0 -14    9.73    0.29
   4   0  14    9.27    0.29
  -4   0 -14    9.26    0.30
  -4   0 -14   10.60    0.31
   4   0  14    9.71    0.33
   4   0  14    9.47    0.28
   4  -1 -14    6.53    0.29
   4  -1 -14    6.54    0.26
   4  -1 -14    6.22    0.24
   4  -1 -14    6.63    0.26
   4  -1 -14    6.44    0.26
   4   1 -14    6.74    0.28
   4   1 -14    6.59    0.26
   4   1 -14    6.18    0.27
   4   1 -14    6.47    0.27
   4   1 -14    6.37    0.24
   4   1 -14    6.17    0.24
   4   1 -14    6.64    0.26
  -4   1  14    6.43    0.25
   4   1 -14    6.35    0.25
   4   1 -14    6.64    0.29
   3  -1 -14    3.65    0.28
   3  -1 -14    3.63    0.25
   3  -1 -14    3.63    0.27
   3  -1 -14    3.55    0.26
   3  -1 -14    3.84    0.29
   3  -1 -14    4.01    0.24
   3  -1 -14    3.79    0.28
   3  -1 -14    3.56    0.24
   3  -1 -14    3.55    0.25
   3  -1 -14    3.77    0.23
   3   1 -14    3.60    0.23
   3   1 -14    3.71    0.23
   3   1 -14    3.30    0.24
   3   1 -14    3.53    0.27
   3   1 -14    3.70    0.28
   3   1 -14    3.86    0.26
   3   1 -14    3.38    0.25
   3   1 -14    3.54    0.25
  -3   1  14    4.28    0.27
   3   1 -14    3.79    0.28
   3   1 -14    3.52    0.24
   2  -1 -14   26.21    0.69
   2  -1 -14   26.98    0.64
   2  -1 -14   27.78    0.73
   2  -1 -14   26.91    0.66
   2  -1 -14   27.22    0.68
   2  -1 -14   28.32    0.61
   2  -1 -14   27.06    0.66
   2  -1 -14   27.04    0.67
   2  -1 -14   26.83    0.62
   2  -1 -14   26.46    0.65
   2  -1 -14   27.78    0.64
   2   1 -14   27.32    0.66
   2   1 -14   27.65    0.63
   2   1 -14   27.04    0.66
   2   1 -14   27.06    0.63
   2   1 -14   27.08    0.64
   2   1 -14   27.62    0.64
   2   1 -14   26.68    0.69
   2   1 -14   27.31    0.70
   2   1 -14   27.29    0.67
   2   1 -14   26.70    0.61
   1  -1 -14   30.19    0.67
   1  -1 -14   30.17    0.66
   1  -1 -14   30.84    0.66
   1  -1 -14   30.89    0.68
   1  -1 -14   31.02    0.68
   1  -1 -14   31.13    0.79
   1  -1 -14   30.97    0.69
   1  -1 -14   30.91    0.70
   1  -1 -14   30.99    0.76
   1  -1 -14   30.25    0.71
   1   1 -14   29.93    0.73
   1   1 -14   30.86    0.77
   1   1 -14   30.04    0.71
   1   1 -14   31.22    0.69
   1   1 -14   29.47    0.72
   1   1 -14   30.17    0.68
   1   1 -14   30.51    0.67
   1   1 -14   30.91    0.66
   1   1 -14   31.25    0.66
   1   1 -14   30.47    0.66
   0  -1 -14    5.92    0.30
   0  -1 -14    5.78    0.29
   0  -1 -14    6.36    0.29
   0  -1 -14    5.66    0.27
   0  -1 -14    5.67    0.28
   0  -1 -14    6.35    0.33
   0  -1 -14    6.06    0.28
   0  -1 -14    5.80    0.26
   0  -1 -14    5.91    0.33
   0  -1 -14    6.08    0.33
   0   1 -14    5.98    0.25
   0   1 -14    5.83    0.28
   0   1  14    5.65    0.27
   0   1 -14    6.08    0.28
   0   1 -14    5.91    0.33
   0   1 -14    5.99    0.30
   0   1 -14    5.82    0.31
   0   1 -14    5.73    0.26
   0   1 -14    6.12    0.28
   0   1 -14    6.05    0.31
   0   1 -14    6.12    0.34
  -1  -1 -14   30.02    0.79
  -1  -1 -14   29.84    0.73
  -1  -1 -14   29.16    0.66
  -1  -1 -14   29.73    0.71
  -1  -1 -14   29.46    0.74
  -1  -1 -14   29.60    0.67
  -1  -1 -14   28.85    0.66
  -1  -1 -14   29.00    0.74
  -1  -1 -14   29.96    0.73
  -1   1 -14   30.16    0.72
   1   1  14   28.19    0.67
  -1   1 -14   29.60    0.75
  -1   1 -14   30.04    0.79
  -1   1 -14   29.25    0.70
  -1   1 -14   29.07    0.72
  -1   1 -14   29.09    0.64
  -1   1 -14   29.00    0.78
  -1   1 -14   29.30    0.75
  -1   1 -14   29.48    0.69
  -1   1 -14   29.83    0.69
  -2  -1 -14    0.59    0.13
  -2  -1 -14    0.21    0.13
  -2  -1 -14    0.31    0.12
  -2  -1 -14    0.20    0.11
  -2  -1 -14    0.51    0.15
  -2  -1 -14    0.25    0.10
  -2  -1 -14    0.44    0.13
  -2   1 -14    0.63    0.13
  -2   1 -14    0.54    0.14
  -2   1 -14    0.26    0.12
   2   1  14    0.22    0.10
  -2   1 -14    0.33    0.12
  -2   1 -14    0.30    0.13
  -2   1 -14    0.25    0.11
  -2   1 -14    0.36    0.11
  -2   1 -14    0.30    0.12
  -2   1 -14    0.22    0.12
  -2   1 -14    0.60    0.15
  -3  -1 -14    1.35    0.18
  -3  -1 -14    1.46    0.17
   3  -1  14    1.21    0.15
  -3  -1 -14    1.25    0.17
  -3   1 -14    1.36    0.17
  -3   1 -14    1.50    0.17
  -3   1 -14    1.35    0.18
  -3   1 -14    1.42    0.17
   3   1  14    1.11    0.15
  -3   1 -14    1.31    0.15
   3   1  14    1.10    0.17
  -3   1 -14    1.29    0.18
  -3   1 -14    1.44    0.18
  -3   1 -14    1.29    0.17
   3   1  14    1.16    0.18
   4  -1  14    0.18    0.07
  -4  -1 -14    0.11    0.07
  -4  -1 -14    0.11    0.07
  -4  -1 -14    0.23    0.08
   4  -1  14    0.18    0.06
   4  -1  14    0.09    0.07
   4   1  14    0.08    0.08
   4   1  14    0.15    0.08
  -4   1 -14    0.19    0.08
  -4   1 -14    0.16    0.07
  -4   1 -14    0.21    0.08
   4  -2 -14   -0.01    0.06
   4  -2 -14    0.03    0.07
   4  -2 -14    0.05    0.07
   4   2 -14    0.17    0.09
  -4   2  14    0.05    0.05
   4   2 -14    0.04    0.07
   4   2 -14    0.14    0.07
   4   2 -14    0.03    0.07
   4   2 -14    0.03    0.06
   4   2 -14    0.05    0.06
  -4   2  14    0.06    0.06
  -4   2  14    0.00    0.05
   4   2 -14    0.03    0.06
   4   2 -14    0.03    0.06
   3  -2 -14    2.21    0.21
   3  -2 -14    2.42    0.19
   3  -2 -14    2.46    0.21
   3  -2 -14    2.46    0.24
   3  -2 -14    2.11    0.20
   3  -2 -14    2.12    0.18
   3   2 -14    2.76    0.22
   3   2 -14    2.24    0.20
   3   2 -14    2.64    0.24
  -3   2  14    2.56    0.21
   3   2 -14    2.44    0.20
   3   2 -14    2.47    0.20
   3   2 -14    2.55    0.22
   3   2 -14    2.21    0.19
   3   2 -14    2.64    0.21
   3   2 -14    2.18    0.17
  -3   2  14    2.64    0.24
   2  -2 -14   15.80    0.48
   2  -2 -14   15.70    0.51
   2  -2 -14   14.79    0.54
   2  -2 -14   15.84    0.43
   2  -2 -14   15.90    0.48
   2  -2 -14   15.44    0.47
   2  -2 -14   15.76    0.46
  -2   2  14   15.43    0.49
   2   2 -14   15.50    0.45
   2   2 -14   15.58    0.47
   2   2 -14   15.63    0.44
   2   2 -14   15.37    0.45
   2   2 -14   15.69    0.50
   2   2 -14   16.07    0.48
   2   2 -14   15.65    0.45
   2   2 -14   15.66    0.45
   2   2 -14   14.96    0.47
   1  -2 -14    0.47    0.13
   1  -2 -14    0.43    0.12
   1  -2 -14    0.36    0.13
   1  -2 -14    0.41    0.11
   1  -2 -14    0.49    0.12
   1  -2 -14    0.30    0.12
   1  -2 -14    0.43    0.12
   1   2 -14    0.41    0.13
   1   2 -14    0.50    0.13
   1   2 -14    0.59    0.12
   1   2 -14    0.39    0.09
   1   2 -14    0.34    0.10
  -1   2  14    0.55    0.13
   1   2 -14    0.18    0.09
   1   2 -14    0.39    0.10
   1   2 -14    0.29    0.10
   0  -2 -14    0.92    0.14
   0  -2 -14    1.18    0.17
   0  -2 -14    0.95    0.13
   0  -2 -14    0.76    0.16
   0  -2 -14    1.10    0.16
   0  -2 -14    0.86    0.16
   0  -2 -14    0.87    0.15
   0  -2 -14    1.02    0.15
   0   2 -14    1.10    0.17
   0   2 -14    0.98    0.16
   0   2 -14    0.88    0.16
   0   2 -14    0.70    0.12
   0   2 -14    1.24    0.19
   0   2 -14    0.77    0.12
   0   2 -14    1.16    0.16
   0   2 -14    0.93    0.18
   0   2 -14    0.94    0.14
   0   2  14    0.89    0.14
  -1  -2 -14    0.61    0.13
  -1  -2 -14    0.65    0.14
  -1  -2 -14    0.33    0.12
  -1  -2 -14    0.52    0.14
  -1  -2 -14    0.33    0.10
  -1   2 -14    0.71    0.14
  -1   2 -14    0.67    0.17
  -1   2 -14    0.65    0.13
  -1   2 -14    0.49    0.13
  -1   2 -14    0.44    0.13
  -1   2 -14    0.76    0.14
  -1   2 -14    0.74    0.16
  -1   2 -14    0.62    0.15
  -1   2 -14    0.71    0.13
   1   2  14    0.59    0.13
  -2  -2 -14    3.07    0.31
  -2  -2 -14    2.85    0.28
  -2  -2 -14    2.87    0.23
  -2  -2 -14    3.75    0.30
  -2  -2 -14    3.20    0.27
  -2   2 -14    2.94    0.27
  -2   2 -14    3.15    0.29
  -2   2 -14    3.25    0.30
   2   2  14    3.13    0.26
  -2   2 -14    3.08    0.28
   2   2  14    3.11    0.25
   2   2  14    3.40    0.25
  -2   2 -14    3.64    0.27
  -2   2 -14    3.37    0.28
  -2   2 -14    3.23    0.26
  -2   2 -14    3.38    0.25
  -2   2 -14    3.43    0.27
  -2   2 -14    3.21    0.27
  -3  -2 -14    0.38    0.12
  -3  -2 -14    0.60    0.12
  -3  -2 -14    0.35    0.10
   3  -2  14    0.35    0.11
   3   2  14    0.45    0.11
  -3   2 -14    0.44    0.12
   3   2  14    0.49    0.12
  -3   2 -14    0.43    0.11
  -3   2 -14    0.50    0.14
  -3   2 -14    0.37    0.10
   3   2  14    0.38    0.11
  -3   2 -14    0.32    0.11
  -3   2 -14    0.40    0.11
  -3   2 -14    0.50    0.12
  -3   2 -14    0.48    0.13
  -3   2 -14    0.37    0.11
   4  -2  14    0.89    0.11
   4  -2  14    0.95    0.10
  -4  -2 -14    1.00    0.11
  -4   2 -14    1.07    0.11
  -4   2 -14    0.95    0.12
  -4   2 -14    0.85    0.10
   4   2  14    1.06    0.12
   4  -3 -14    0.50    0.08
   4  -3 -14    0.55    0.09
   4  -3 -14    0.56    0.10
   4   3 -14    0.58    0.08
   4   3 -14    0.75    0.10
  -4   3  14    0.63    0.10
  -4   3  14    0.77    0.10
   4   3 -14    0.58    0.09
   4   3 -14    0.48    0.09
   4   3 -14    0.68    0.09
   4   3 -14    0.59    0.09
   4   3 -14    0.56    0.09
   3  -3 -14    0.30    0.10
   3  -3 -14    0.06    0.08
   3  -3 -14    0.11    0.08
  -3   3  14    0.15    0.08
   3   3 -14    0.07    0.06
   3   3 -14    0.15    0.08
  -3   3  14    0.10    0.09
   3   3 -14    0.19    0.08
   3   3 -14    0.15    0.08
   3   3 -14    0.12    0.08
   3   3 -14    0.16    0.08
   3   3 -14    0.08    0.07
  -3   3  14    0.10    0.07
   2  -3 -14    0.15    0.09
   2  -3 -14    0.22    0.11
   2  -3 -14    0.19    0.09
   2  -3 -14    0.25    0.09
   2   3 -14    0.29    0.10
  -2   3  14    0.16    0.07
   2   3 -14    0.15    0.08
  -2   3  14    0.24    0.10
  -2   3  14    0.11    0.08
   2   3 -14    0.17    0.08
   2   3 -14    0.20    0.08
   2   3 -14    0.07    0.07
   2   3 -14    0.16    0.08
   2   3 -14    0.20    0.08
   1  -3 -14    0.45    0.13
   1  -3 -14    0.57    0.15
   1  -3 -14    0.50    0.14
   1  -3 -14    0.68    0.13
   1  -3 -14    0.85    0.13
   1   3 -14    0.86    0.13
  -1   3  14    0.94    0.15
  -1   3  14    0.73    0.14
   1   3 -14    0.85    0.13
   1   3 -14    0.60    0.12
   1   3 -14    0.57    0.13
   1   3 -14    0.48    0.10
   1   3 -14    0.72    0.12
   0  -3 -14   -0.07    0.07
   0  -3 -14   -0.08    0.07
   0  -3 -14   -0.03    0.09
   0  -3 -14    0.15    0.10
   0  -3 -14    0.18    0.10
   0   3 -14   -0.07    0.06
   0   3 -14   -0.13    0.06
   0   3 -14   -0.09    0.07
   0   3 -14    0.06    0.10
   0   3 -14   -0.04    0.07
   0   3 -14   -0.02    0.06
   0   3  14    0.13    0.09
   0   3 -14    0.06    0.07
   0   3 -14   -0.07    0.08
   0   3  14   -0.05    0.06
  -1  -3 -14    4.35    0.30
  -1  -3 -14    5.15    0.30
  -1  -3 -14    5.47    0.34
  -1   3 -14    5.38    0.35
  -1   3 -14    5.65    0.34
   1   3  14    5.11    0.32
  -1   3 -14    5.34    0.33
  -1   3 -14    4.81    0.30
   1   3  14    5.15    0.32
   1   3  14    4.90    0.26
  -1   3 -14    5.10    0.36
  -1   3 -14    5.38    0.38
  -1   3 -14    5.20    0.29
  -1   3 -14    5.22    0.31
  -2  -3 -14   37.87    0.87
  -2  -3 -14   38.57    0.84
  -2  -3 -14   38.42    0.79
  -2   3 -14   38.33    0.81
   2   3  14   37.75    0.82
  -2   3 -14   38.53    0.82
   2   3  14   37.25    0.80
   2   3  14   37.81    0.79
  -2   3 -14   37.75    0.84
  -2   3 -14   38.56    0.91
  -2   3 -14   37.59    0.85
  -2   3 -14   38.13    0.88
  -2   3 -14   38.65    0.87
  -2   3 -14   36.74    0.78
  -2   3 -14   38.08    0.81
  -3  -3 -14    0.84    0.13
  -3  -3 -14    0.76    0.12
  -3   3 -14    1.13    0.16
  -3   3 -14    0.84    0.13
  -3   3 -14    0.79    0.12
  -3   3 -14    0.91    0.14
  -3   3 -14    1.08    0.13
  -3   3 -14    0.77    0.13
   3   3  14    0.93    0.13
  -3   3 -14    0.87    0.15
   3   3  14    0.90    0.12
  -3   3 -14    0.74    0.12
  -3   3 -14    0.81    0.12
   3   3  14    0.95    0.13
   3  -4 -14    4.91    0.26
   3  -4 -14    4.52    0.21
   3  -4 -14    4.83    0.21
   3   4 -14    4.70    0.20
   3   4 -14    4.73    0.20
   3   4 -14    4.67    0.20
  -3   4  14    4.87    0.20
   3   4 -14    4.55    0.20
  -3   4  14    4.32    0.22
  -3   4  14    4.55    0.20
   3   4 -14    5.08    0.20
   3   4 -14    5.12    0.21
   2  -4 -14    0.11    0.10
   2  -4 -14    0.08    0.07
   2  -4 -14    0.00    0.09
   2   4 -14    0.11    0.06
   2   4 -14    0.17    0.09
  -2   4  14   -0.05    0.07
   2   4 -14   -0.07    0.04
  -2   4  14   -0.05    0.06
  -2   4  14    0.08    0.07
   2   4 -14    0.11    0.06
   1  -4 -14    3.60    0.28
   1  -4 -14    3.54    0.28
   1  -4 -14    3.03    0.26
  -1   4  14    3.64    0.27
  -1   4  14    3.93    0.29
  -1   4  14    4.10    0.27
   0  -4 -14    0.53    0.14
   0  -4 -14    0.74    0.13
   0  -4 -14    0.84    0.16
   0   4  14    0.53    0.11
   0   4 -14    0.72    0.15
   0   4  14    0.66    0.13
   0   4 -14    0.50    0.13
   0   4  14    0.73    0.14
   0   4 -14    0.52    0.12
   0   4 -14    0.75    0.12
   0   4  14    0.66    0.13
   0   4 -14    0.63    0.13
  -1  -4 -14    2.95    0.27
  -1  -4 -14    3.03    0.24
  -1  -4 -14    2.96    0.23
   1   4  14    3.31    0.24
  -1   4 -14    3.18    0.25
  -1   4 -14    3.21    0.27
  -1   4 -14    3.25    0.28
  -1   4 -14    2.98    0.23
  -1   4 -14    3.25    0.28
   1   4  14    2.93    0.24
   1   4  14    3.27    0.26
  -1   4 -14    3.30    0.23
  -1   4 -14    3.04    0.24
  -2  -4 -14    5.14    0.25
  -2  -4 -14    6.03    0.28
  -2  -4 -14    5.66    0.29
  -2   4 -14    5.64    0.26
  -2   4 -14    6.08    0.30
  -2   4 -14    5.43    0.27
  -2   4 -14    5.35    0.23
  -2   4 -14    5.67    0.27
   2   4  14    5.58    0.26
   2   4  14    5.63    0.27
  -2   4 -14    5.24    0.31
  -2   4 -14    6.00    0.32
  -2   4 -14    5.80    0.28
  -3  -4 -14    0.15    0.07
   3  -4  14    0.16    0.06
  -3  -4 -14    0.22    0.08
  -3   4 -14    0.20    0.08
   3   4  14    0.16    0.07
  -3   4 -14    0.17    0.07
  -3   4 -14    0.30    0.08
   3   4  14    0.10    0.06
  -3   4 -14    0.07    0.06
  -3   4 -14    0.15    0.07
  -3   4 -14    0.38    0.07
  -3   4 -14    0.16    0.08
  -3   4 -14    0.17    0.07
   3  -5 -14    0.45    0.09
  -3   5  14    0.42    0.08
  -3   5  14    0.52    0.07
   2  -5 -14    0.27    0.10
   2  -5 -14    0.12    0.08
  -2   5  14    0.14    0.07
  -2   5  14    0.21    0.07
  -2   5  14    0.22    0.08
   1  -5 -14    7.31    0.31
   1  -5 -14    7.97    0.35
   1  -5 -14    8.47    0.34
  -1   5  14    8.26    0.33
  -1   5  14    8.11    0.31
   0  -5 -14    0.93    0.12
   0  -5 -14    0.80    0.15
   0  -5 -14    0.43    0.11
   0   5  14    0.54    0.12
   0   5  14    0.51    0.10
   0   5  14    0.88    0.14
  -1  -5 -14   -0.03    0.06
  -1  -5 -14   -0.05    0.08
  -1   5 -14    0.01    0.08
  -1   5 -14    0.04    0.07
  -1   5 -14    0.00    0.06
  -1   5 -14    0.00    0.08
   1   5  14    0.01    0.06
   1   5  14    0.09    0.08
  -1   5 -14   -0.03    0.06
  -2  -5 -14    2.39    0.18
  -2  -5 -14    2.39    0.15
  -2  -5 -14    2.07    0.16
   2   5  14    2.30    0.15
  -2   5 -14    2.60    0.16
  -2   5 -14    2.49    0.16
  -2   5 -14    2.44    0.19
   2   5  14    2.62    0.18
   2   5  14    2.23    0.15
  -2   5 -14    2.62    0.18
  -2   5 -14    2.32    0.18
  -2   5 -14    2.85    0.21
  -2   5 -14    2.35    0.16
   1  -6 -14    0.45    0.09
   1  -6 -14    0.46    0.09
  -1   6  14    0.44    0.08
  -1   6  14    0.49    0.09
   0  -6 -14    0.21    0.07
   0  -6 -14    0.19    0.07
   0  -6 -14    0.16    0.08
   0   6  14    0.11    0.07
   0   6  14    0.21    0.07
  -1  -6 -14    1.06    0.10
  -1  -6 -14    1.03    0.11
   1   6  14    1.24    0.12
   1   6  14    1.12    0.11
   4   0 -15   -0.15    0.06
   4   0 -15   -0.04    0.06
   4   0 -15   -0.01    0.07
  -4   0  15    0.00    0.05
   4   0 -15   -0.02    0.06
   4   0 -15   -0.02    0.07
   4   0 -15   -0.01    0.05
   4   0 -15    0.15    0.05
   4   0 -15    0.06    0.05
   4   0 -15    0.00    0.06
   3   0 -15    0.02    0.07
   3   0 -15    0.09    0.08
   3   0 -15    0.02    0.08
   3   0 -15   -0.13    0.06
   3   0 -15   -0.05    0.06
   3   0 -15    0.12    0.08
   3   0 -15   -0.02    0.06
   3   0 -15   -0.05    0.07
  -3   0  15    0.07    0.06
   3   0 -15    0.01    0.07
   2   0 -15   -0.10    0.07
   2   0 -15   -0.02    0.07
   2   0 -15   -0.03    0.09
   2   0 -15   -0.02    0.07
   2   0 -15    0.02    0.08
   2   0 -15    0.07    0.08
   2   0 -15   -0.03    0.09
   2   0 -15    0.08    0.08
   2   0 -15   -0.06    0.07
   2   0 -15   -0.06    0.07
   1   0 -15    0.00    0.07
   1   0 -15   -0.16    0.07
   1   0 -15    0.05    0.09
   1   0 -15   -0.03    0.07
   1   0 -15   -0.09    0.07
   1   0 -15   -0.03    0.09
   1   0 -15   -0.03    0.06
   1   0 -15   -0.06    0.07
   1   0 -15   -0.05    0.08
   1   0 -15   -0.02    0.07
   0   0 -15   -0.03    0.07
   0   0 -15    0.00    0.08
   0   0 -15    0.01    0.08
   0   0 -15   -0.10    0.08
   0   0 -15   -0.06    0.07
   0   0 -15   -0.04    0.10
   0   0 -15    0.00    0.06
   0   0 -15    0.10    0.09
   0   0 -15   -0.05    0.07
   0   0 -15   -0.02    0.07
  -1   0 -15    0.06    0.07
  -1   0 -15    0.03    0.09
  -1   0 -15   -0.03    0.08
  -1   0 -15   -0.05    0.08
  -1   0 -15   -0.14    0.08
  -1   0 -15    0.00    0.08
  -1   0 -15    0.02    0.08
  -1   0 -15    0.10    0.11
  -1   0 -15   -0.12    0.08
  -1   0 -15    0.07    0.10
  -2   0 -15   -0.01    0.08
  -2   0 -15    0.14    0.11
  -2   0 -15   -0.04    0.09
  -2   0 -15   -0.09    0.09
  -2   0 -15    0.07    0.11
  -2   0 -15    0.01    0.11
  -2   0 -15    0.10    0.08
   2   0  15   -0.10    0.06
  -2   0 -15    0.07    0.09
  -2   0 -15    0.04    0.09
  -2   0 -15   -0.01    0.09
  -3   0 -15    0.23    0.10
   3   0  15   -0.10    0.07
  -3   0 -15    0.11    0.09
   3   0  15    0.03    0.09
  -3   0 -15    0.21    0.10
  -3   0 -15    0.08    0.08
   4  -1 -15    1.61    0.14
   4  -1 -15    1.82    0.15
   4  -1 -15    1.91    0.16
  -4  -1  15    2.12    0.15
   4  -1 -15    1.97    0.15
  -4   1  15    1.60    0.14
   4   1 -15    1.95    0.15
   4   1 -15    1.91    0.15
   4   1 -15    2.10    0.18
   4   1 -15    1.82    0.14
  -4   1  15    2.02    0.17
   4   1 -15    1.78    0.16
   4   1 -15    1.90    0.16
   4   1 -15    1.64    0.14
   4   1 -15    1.89    0.16
   3  -1 -15   -0.02    0.08
   3  -1 -15    0.11    0.08
   3  -1 -15    0.13    0.08
   3  -1 -15    0.10    0.08
   3  -1 -15    0.00    0.08
   3  -1 -15    0.12    0.10
   3  -1 -15   -0.04    0.07
   3  -1 -15    0.15    0.07
   3  -1 -15    0.12    0.08
   3  -1 -15    0.13    0.09
   3   1 -15    0.13    0.08
   3   1 -15    0.05    0.07
   3   1 -15    0.02    0.07
   3   1 -15    0.11    0.07
   3   1 -15    0.02    0.08
   3   1 -15    0.06    0.06
   3   1 -15    0.14    0.07
   3   1 -15    0.06    0.09
   3   1 -15    0.03    0.07
   3   1 -15    0.32    0.10
  -3   1  15    0.05    0.06
   2  -1 -15    2.72    0.23
   2  -1 -15    2.82    0.23
   2  -1 -15    2.91    0.24
   2  -1 -15    3.18    0.25
   2  -1 -15    2.97    0.23
   2  -1 -15    3.03    0.23
   2  -1 -15    2.94    0.21
   2  -1 -15    3.38    0.27
   2  -1 -15    3.00    0.25
   2  -1 -15    2.94    0.27
   2   1 -15    3.04    0.22
   2   1 -15    2.81    0.23
   2   1 -15    3.20    0.25
   2   1 -15    3.35    0.26
   2   1 -15    3.28    0.28
   2   1 -15    2.76    0.22
   2   1 -15    2.84    0.25
   2   1 -15    3.04    0.23
   2   1 -15    3.27    0.24
   2   1 -15    2.65    0.22
   1  -1 -15   22.24    0.63
   1  -1 -15   23.67    0.60
   1  -1 -15   21.49    0.66
   1  -1 -15   23.06    0.57
   1  -1 -15   21.63    0.57
   1  -1 -15   23.19    0.58
   1  -1 -15   22.25    0.58
   1  -1 -15   21.54    0.55
   1  -1 -15   23.56    0.55
   1  -1 -15   22.52    0.58
   1   1 -15   22.81    0.58
   1   1 -15   21.28    0.56
   1   1 -15   22.62    0.63
   1   1 -15   22.74    0.65
   1   1 -15   23.29    0.61
   1   1 -15   21.26    0.54
   1   1 -15   22.35    0.55
   1   1 -15   21.92    0.58
   1   1 -15   23.22    0.54
   1   1 -15   21.44    0.59
   0  -1 -15   10.35    0.44
   0  -1 -15    9.76    0.36
   0  -1 -15   10.27    0.38
   0  -1 -15    9.52    0.36
   0  -1 -15    9.59    0.42
   0  -1 -15    9.30    0.36
   0  -1 -15    9.62    0.39
   0  -1 -15   10.08    0.43
   0  -1 -15    9.13    0.37
   0  -1 -15    9.55    0.35
   0   1 -15    9.78    0.44
   0   1  15    9.79    0.36
   0   1 -15    9.93    0.34
   0   1 -15   10.15    0.43
   0   1 -15    9.99    0.38
   0   1 -15   10.45    0.42
   0   1 -15   10.36    0.35
   0   1 -15    9.93    0.37
   0   1 -15    9.92    0.40
   0   1 -15    9.97    0.39
   0   1 -15   10.23    0.38
  -1  -1 -15    5.24    0.27
  -1  -1 -15    5.30    0.33
  -1  -1 -15    5.62    0.37
  -1  -1 -15    5.17    0.30
  -1  -1 -15    5.00    0.37
  -1  -1 -15    4.71    0.30
  -1  -1 -15    4.42    0.30
  -1  -1 -15    4.70    0.28
  -1  -1 -15    5.22    0.31
  -1   1 -15    4.94    0.35
   1   1  15    5.01    0.31
  -1   1 -15    5.35    0.29
  -1   1 -15    4.32    0.30
  -1   1 -15    5.00    0.30
  -1   1 -15    5.35    0.32
  -1   1 -15    4.65    0.35
  -1   1 -15    4.91    0.35
  -1   1 -15    4.83    0.32
  -1   1 -15    4.70    0.31
  -1   1 -15    4.90    0.34
  -2  -1 -15    2.12    0.22
  -2  -1 -15    2.39    0.21
  -2  -1 -15    2.03    0.22
  -2  -1 -15    1.95    0.21
  -2  -1 -15    2.17    0.20
  -2  -1 -15    1.92    0.22
  -2  -1 -15    1.64    0.21
  -2   1 -15    1.72    0.18
  -2   1 -15    1.92    0.20
  -2   1 -15    2.60    0.27
  -2   1 -15    1.99    0.23
  -2   1 -15    1.96    0.21
  -2   1 -15    1.91    0.21
  -2   1 -15    1.75    0.20
  -2   1 -15    1.88    0.22
  -2   1 -15    1.93    0.20
  -2   1 -15    1.94    0.21
   2   1  15    1.87    0.19
  -3  -1 -15    4.04    0.26
   3  -1  15    4.25    0.22
  -3  -1 -15    4.10    0.25
   3  -1  15    4.41    0.29
  -3  -1 -15    4.23    0.23
  -3   1 -15    4.24    0.26
  -3   1 -15    4.22    0.24
   3   1  15    4.51    0.29
  -3   1 -15    4.48    0.27
  -3   1 -15    3.92    0.26
   3   1  15    4.43    0.30
  -3   1 -15    4.09    0.23
   3   1  15    4.21    0.21
  -3   1 -15    4.31    0.24
  -3   1 -15    3.93    0.21
   4  -2 -15    2.49    0.17
   4  -2 -15    3.21    0.16
  -4   2  15    2.13    0.14
   4   2 -15    2.47    0.16
  -4   2  15    2.13    0.15
  -4   2  15    2.29    0.17
   4   2 -15    2.34    0.15
   4   2 -15    1.98    0.16
   4   2 -15    1.96    0.15
   4   2 -15    2.40    0.16
   4   2 -15    2.25    0.15
   4   2 -15    1.85    0.14
   3  -2 -15    0.04    0.09
   3  -2 -15    0.03    0.07
   3  -2 -15    0.19    0.08
   3  -2 -15    0.17    0.09
   3  -2 -15    0.13    0.08
  -3   2  15    0.09    0.08
   3   2 -15    0.15    0.09
   3   2 -15    0.25    0.09
  -3   2  15    0.18    0.07
   3   2 -15    0.14    0.08
   3   2 -15    0.15    0.08
   3   2 -15    0.16    0.09
   3   2 -15    0.10    0.09
   3   2 -15    0.20    0.08
   3   2 -15    0.14    0.09
   2  -2 -15   15.24    0.49
   2  -2 -15   15.16    0.42
   2  -2 -15   15.14    0.45
   2  -2 -15   15.52    0.46
   2  -2 -15   15.30    0.46
   2  -2 -15   15.63    0.48
   2  -2 -15   15.26    0.53
   2   2 -15   15.82    0.44
   2   2 -15   15.44    0.45
   2   2 -15   15.22    0.49
   2   2 -15   14.82    0.46
   2   2 -15   15.11    0.44
   2   2 -15   15.07    0.43
   2   2 -15   15.21    0.43
  -2   2  15   14.19    0.48
   2   2 -15   16.71    0.49
   1  -2 -15    2.06    0.22
   1  -2 -15    1.82    0.21
   1  -2 -15    2.08    0.19
   1  -2 -15    1.94    0.20
   1  -2 -15    1.77    0.21
   1  -2 -15    2.02    0.19
   1  -2 -15    1.68    0.19
   1  -2 -15    1.62    0.20
   1   2 -15    1.76    0.17
   1   2 -15    1.95    0.19
   1   2 -15    1.76    0.17
   1   2 -15    1.97    0.21
  -1   2  15    1.68    0.19
   1   2 -15    1.53    0.17
   1   2 -15    2.05    0.18
   1   2 -15    1.79    0.21
   1   2 -15    1.92    0.21
  -1   2  15    2.08    0.21
   0  -2 -15    7.27    0.30
   0  -2 -15    7.30    0.32
   0  -2 -15    8.01    0.40
   0  -2 -15    8.06    0.38
   0  -2 -15    7.47    0.33
   0  -2 -15    8.15    0.37
   0   2 -15    7.40    0.29
   0   2 -15    7.75    0.36
   0   2 -15    7.81    0.38
   0   2 -15    7.55    0.35
   0   2 -15    7.53    0.33
   0   2 -15    7.74    0.33
   0   2 -15    7.73    0.39
   0   2  15    7.43    0.32
   0   2 -15    7.46    0.33
   0   2 -15    7.51    0.37
  -1  -2 -15    3.41    0.27
  -1  -2 -15    2.90    0.26
  -1  -2 -15    3.20    0.26
  -1  -2 -15    3.10    0.25
  -1  -2 -15    2.97    0.28
  -1   2 -15    3.33    0.26
  -1   2 -15    3.32    0.25
  -1   2 -15    2.84    0.23
  -1   2 -15    3.67    0.30
  -1   2 -15    3.32    0.25
   1   2  15    3.23    0.26
  -1   2 -15    3.07    0.27
  -1   2 -15    3.19    0.26
  -1   2 -15    2.74    0.26
  -1   2 -15    3.31    0.29
  -2  -2 -15    1.65    0.18
  -2  -2 -15    1.39    0.17
  -2  -2 -15    1.35    0.20
  -2  -2 -15    1.68    0.18
  -2  -2 -15    1.53    0.19
  -2   2 -15    1.34    0.16
  -2   2 -15    1.19    0.17
  -2   2 -15    1.74    0.22
  -2   2 -15    1.19    0.18
   2   2  15    1.49    0.17
   2   2  15    1.80    0.20
   2   2  15    1.52    0.19
  -2   2 -15    1.18    0.18
  -2   2 -15    1.41    0.19
  -2   2 -15    1.66    0.20
  -2   2 -15    1.57    0.18
  -2   2 -15    1.33    0.17
  -2   2 -15    1.61    0.18
  -3  -2 -15    0.81    0.13
  -3  -2 -15    0.83    0.12
   3  -2  15    1.03    0.14
  -3  -2 -15    0.91    0.13
   3   2  15    1.13    0.14
  -3   2 -15    1.12    0.14
  -3   2 -15    1.13    0.14
  -3   2 -15    0.98    0.14
   3   2  15    0.99    0.13
  -3   2 -15    0.93    0.13
  -3   2 -15    0.82    0.13
   3   2  15    0.73    0.12
  -3   2 -15    1.00    0.13
  -3   2 -15    0.97    0.13
  -3   2 -15    0.80    0.14
   4  -3 -15    2.04    0.13
   4   3 -15    2.23    0.12
   4   3 -15    2.29    0.12
   4   3 -15    1.94    0.12
  -4   3  15    2.05    0.14
   4   3 -15    2.00    0.12
   4   3 -15    2.00    0.14
   4   3 -15    2.21    0.14
  -4   3  15    2.28    0.12
   3  -3 -15    0.66    0.12
   3  -3 -15    0.83    0.12
   3  -3 -15    0.79    0.11
  -3   3  15    0.63    0.10
   3   3 -15    0.76    0.10
   3   3 -15    1.00    0.13
  -3   3  15    0.98    0.14
   3   3 -15    0.88    0.13
   3   3 -15    0.62    0.10
   3   3 -15    0.97    0.12
  -3   3  15    0.72    0.12
   3   3 -15    0.60    0.09
   3   3 -15    0.68    0.11
   2  -3 -15    7.74    0.34
   2  -3 -15    7.58    0.31
   2  -3 -15    7.90    0.38
  -2   3  15    8.38    0.33
   2   3 -15    8.00    0.30
   2   3 -15    7.93    0.33
   2   3 -15    8.02    0.30
   2   3 -15    8.08    0.30
   2   3 -15    7.68    0.27
  -2   3  15    7.98    0.34
   2   3 -15    7.81    0.28
   2   3 -15    8.08    0.29
   1  -3 -15    1.73    0.16
   1  -3 -15    1.71    0.20
   1  -3 -15    1.32    0.18
   1  -3 -15    1.44    0.19
   1  -3 -15    1.78    0.17
   1   3 -15    1.44    0.16
  -1   3  15    1.63    0.19
   1   3 -15    1.38    0.16
  -1   3  15    1.79    0.18
   1   3 -15    1.44    0.16
   1   3 -15    1.56    0.19
  -1   3  15    1.69    0.19
   1   3 -15    1.45    0.18
   1   3 -15    1.69    0.16
   0  -3 -15    2.71    0.26
   0  -3 -15    2.89    0.22
   0  -3 -15    2.79    0.24
   0  -3 -15    3.08    0.27
   0   3  15    3.19    0.26
   0   3 -15    2.83    0.25
   0   3 -15    3.08    0.22
   0   3 -15    3.33    0.28
   0   3 -15    2.84    0.26
   0   3 -15    3.22    0.30
   0   3 -15    3.18    0.23
   0   3 -15    2.77    0.22
   0   3  15    2.79    0.24
   0   3 -15    2.85    0.24
  -1  -3 -15   12.16    0.48
  -1  -3 -15   11.45    0.42
  -1  -3 -15   12.32    0.43
   1   3  15   12.24    0.40
  -1   3 -15   12.14    0.42
  -1   3 -15   11.76    0.42
   1   3  15   11.15    0.39
   1   3  15   12.64    0.40
  -1   3 -15   12.30    0.43
  -1   3 -15   12.29    0.41
  -1   3 -15   11.52    0.47
  -1   3 -15   12.00    0.43
  -1   3 -15   12.00    0.48
   1   3  15   12.19    0.42
  -1   3 -15   12.32    0.46
  -2  -3 -15    2.51    0.22
  -2  -3 -15    2.55    0.23
  -2  -3 -15    2.42    0.19
  -2   3 -15    3.09    0.23
  -2   3 -15    2.46    0.21
   2   3  15    2.54    0.21
  -2   3 -15    2.45    0.22
   2   3  15    2.76    0.22
  -2   3 -15    2.59    0.23
  -2   3 -15    2.45    0.25
  -2   3 -15    2.72    0.21
  -2   3 -15    3.16    0.28
  -2   3 -15    2.79    0.23
  -2   3 -15    2.69    0.23
   2   3  15    2.57    0.21
  -3  -3 -15    3.74    0.19
  -3  -3 -15    3.12    0.18
  -3   3 -15    3.27    0.20
   3   3  15    3.42    0.20
  -3   3 -15    3.51    0.19
  -3   3 -15    3.16    0.19
   3   3  15    3.09    0.20
  -3   3 -15    3.59    0.21
  -3   3 -15    3.27    0.20
  -3   3 -15    3.11    0.20
  -3   3 -15    3.34    0.18
   3  -4 -15    0.00    0.06
   3  -4 -15   -0.04    0.06
   3  -4 -15   -0.19    0.07
   3   4 -15   -0.03    0.05
  -3   4  15   -0.10    0.06
   3   4 -15    0.11    0.06
  -3   4  15    0.01    0.04
   3   4 -15    0.01    0.05
  -3   4  15    0.04    0.05
   3   4 -15    0.10    0.06
   2  -4 -15    1.34    0.16
   2  -4 -15    1.56    0.18
   2  -4 -15    1.27    0.13
   2   4 -15    0.78    0.13
   2   4 -15    1.36    0.12
   2   4 -15    1.53    0.13
  -2   4  15    1.75    0.19
  -2   4  15    1.65    0.17
   1  -4 -15    5.42    0.29
   1  -4 -15    5.67    0.31
  -1   4  15    5.44    0.27
  -1   4  15    5.08    0.27
  -1   4  15    5.69    0.26
   0  -4 -15    0.53    0.13
   0  -4 -15    0.54    0.14
   0   4 -15    0.62    0.13
   0   4  15    0.33    0.10
   0   4 -15    0.61    0.12
   0   4  15    0.59    0.12
   0   4 -15    0.22    0.08
   0   4  15    0.47    0.10
   0   4 -15    0.30    0.10
   0   4 -15    0.55    0.12
  -1  -4 -15   14.92    0.49
  -1  -4 -15   15.02    0.44
  -1  -4 -15   13.67    0.42
  -1   4 -15   14.43    0.43
  -1   4 -15   14.01    0.43
   1   4  15   13.84    0.42
   1   4  15   14.52    0.41
  -1   4 -15   14.27    0.49
   1   4  15   14.68    0.44
  -1   4 -15   14.38    0.46
  -1   4 -15   14.02    0.42
  -1   4 -15   13.65    0.47
  -1   4 -15   14.11    0.39
  -2  -4 -15    2.43    0.20
  -2  -4 -15    2.28    0.19
  -2  -4 -15    3.31    0.18
   2   4  15    2.94    0.21
  -2   4 -15    2.60    0.20
   2   4  15    2.70    0.19
  -2   4 -15    3.30    0.25
  -2   4 -15    2.88    0.18
  -2   4 -15    2.46    0.18
  -2   4 -15    2.74    0.19
  -2   4 -15    2.73    0.23
  -2   4 -15    2.85    0.21
  -2   4 -15    2.82    0.20
   2  -5 -15    3.49    0.19
   2  -5 -15    3.48    0.19
  -2   5  15    3.22    0.17
  -2   5  15    3.31    0.18
   1  -5 -15    6.40    0.29
   1  -5 -15    5.95    0.26
   1  -5 -15    6.37    0.28
  -1   5  15    6.08    0.26
  -1   5  15    6.15    0.25
   0  -5 -15    4.07    0.22
   0  -5 -15    4.21    0.26
   0  -5 -15    3.68    0.20
   0   5  15    4.28    0.26
   0   5  15    4.29    0.21
   0   5  15    4.60    0.23
  -1  -5 -15    1.55    0.14
  -1   5 -15    1.80    0.17
  -1   5 -15    1.60    0.12
  -1   5 -15    1.72    0.16
  -1   5 -15    1.71    0.15
  -1   5 -15    1.74    0.18
   1   5  15    1.66    0.15
   1   5  15    1.91    0.16
   4   0 -16    1.32    0.12
   4   0 -16    1.29    0.12
   4   0 -16    1.22    0.11
  -4   0  16    1.39    0.13
   4   0 -16    1.22    0.10
   4   0 -16    1.19    0.12
  -4   0  16    1.33    0.11
   4   0 -16    1.27    0.09
   4   0 -16    1.35    0.13
   4   0 -16    1.08    0.10
   3   0 -16    0.01    0.07
   3   0 -16    0.00    0.06
   3   0 -16   -0.07    0.07
   3   0 -16   -0.12    0.07
   3   0 -16    0.01    0.08
   3   0 -16    0.00    0.09
   3   0 -16   -0.04    0.06
   3   0 -16    0.02    0.06
   3   0 -16    0.08    0.08
   2   0 -16    7.40    0.36
   2   0 -16    7.91    0.32
   2   0 -16    7.85    0.35
   2   0 -16    7.85    0.33
   2   0 -16    7.26    0.33
   2   0 -16    7.69    0.32
   2   0 -16    7.58    0.31
   2   0 -16    8.18    0.32
   2   0 -16    7.94    0.31
   2   0 -16    8.11    0.32
   1   0 -16   14.88    0.53
   1   0 -16   14.97    0.45
   1   0 -16   15.07    0.48
   1   0 -16   15.12    0.45
   1   0 -16   15.20    0.51
   1   0 -16   14.03    0.47
   1   0 -16   14.82    0.44
   1   0 -16   15.33    0.45
   1   0 -16   15.09    0.44
   1   0 -16   14.65    0.46
   0   0 -16   11.10    0.39
   0   0 -16   11.51    0.39
   0   0 -16   10.69    0.37
   0   0 -16   11.44    0.46
   0   0 -16   10.90    0.43
   0   0 -16   10.42    0.40
   0   0 -16   10.39    0.45
   0   0 -16   10.59    0.40
   0   0 -16   10.28    0.38
   0   0 -16   11.10    0.45
  -1   0 -16    5.71    0.33
  -1   0 -16    5.83    0.30
  -1   0 -16    6.81    0.37
  -1   0 -16    6.32    0.29
  -1   0 -16    6.79    0.31
  -1   0 -16    5.76    0.28
  -1   0 -16    6.17    0.35
  -1   0 -16    5.93    0.32
  -1   0 -16    6.21    0.31
  -1   0 -16    6.32    0.34
  -2   0 -16    2.47    0.22
  -2   0 -16    2.40    0.22
  -2   0 -16    2.38    0.19
  -2   0 -16    2.52    0.22
   2   0  16    2.41    0.19
  -2   0 -16    2.34    0.20
  -2   0 -16    2.25    0.22
  -2   0 -16    2.49    0.23
  -2   0 -16    2.55    0.21
  -2   0 -16    2.14    0.23
  -2   0 -16    2.33    0.24
  -3   0 -16    2.85    0.18
   3   0  16    2.57    0.21
  -3   0 -16    2.61    0.20
   3   0  16    2.61    0.20
  -3   0 -16    2.28    0.18
  -3   0 -16    2.53    0.20
  -4  -1  16    6.41    0.19
   4  -1 -16    6.35    0.21
   4  -1 -16    6.25    0.22
   4  -1 -16    6.05    0.21
   4   1 -16    6.03    0.22
  -4   1  16    6.27    0.20
   4   1 -16    6.43    0.22
  -4   1  16    6.55    0.23
   4   1 -16    6.55    0.21
   4   1 -16    6.16    0.22
   4   1 -16    6.28    0.20
   4   1 -16    6.67    0.23
   4   1 -16    6.07    0.22
   4   1 -16    6.62    0.21
   3  -1 -16   -0.16    0.05
   3  -1 -16   -0.06    0.07
   3  -1 -16    0.07    0.08
   3  -1 -16    0.04    0.06
   3  -1 -16    0.04    0.07
   3  -1 -16   -0.14    0.07
   3  -1 -16    0.01    0.08
   3  -1 -16    0.04    0.08
   3   1 -16   -0.02    0.06
   3   1 -16   -0.06    0.06
  -3   1  16   -0.02    0.06
   3   1 -16   -0.03    0.05
   3   1 -16   -0.10    0.07
   3   1 -16   -0.01    0.07
   3   1 -16   -0.03    0.07
   3   1 -16    0.01    0.07
   3   1 -16   -0.32    0.06
   3   1 -16    0.05    0.08
   2  -1 -16    0.01    0.09
   2  -1 -16    0.12    0.09
   2  -1 -16    0.11    0.08
   2  -1 -16    0.07    0.10
   2  -1 -16    0.23    0.09
   2  -1 -16    0.22    0.09
   2  -1 -16    0.18    0.09
   2  -1 -16    0.17    0.08
   2  -1 -16    0.18    0.10
   2  -1 -16    0.06    0.08
   2   1 -16    0.13    0.08
   2   1 -16    0.11    0.08
   2   1 -16    0.06    0.07
   2   1 -16    0.15    0.08
   2   1 -16    0.15    0.09
  -2   1  16    0.19    0.10
   2   1 -16    0.05    0.08
   2   1 -16    0.08    0.09
   2   1 -16    0.18    0.10
   2   1 -16    0.26    0.10
   1  -1 -16    1.26    0.15
   1  -1 -16    1.55    0.20
   1  -1 -16    1.42    0.17
   1  -1 -16    1.30    0.18
   1  -1 -16    1.35    0.19
   1  -1 -16    1.32    0.18
   1  -1 -16    1.37    0.17
   1  -1 -16    1.35    0.15
   1  -1 -16    1.73    0.19
   1  -1 -16    1.43    0.17
   1   1 -16    1.15    0.17
   1   1 -16    1.45    0.20
   1   1 -16    1.20    0.16
   1   1 -16    1.86    0.21
   1   1 -16    1.50    0.19
   1   1 -16    1.34    0.17
   1   1 -16    1.37    0.16
   1   1 -16    1.47    0.17
   1   1 -16    1.38    0.16
   0  -1 -16   19.93    0.55
   0  -1 -16   19.73    0.62
   0  -1 -16   20.35    0.52
   0  -1 -16   20.11    0.53
   0  -1 -16   20.14    0.64
   0  -1 -16   20.39    0.54
   0  -1 -16   19.91    0.58
   0  -1 -16   21.10    0.62
   0  -1 -16   20.60    0.57
   0  -1 -16   20.56    0.55
   0   1 -16   20.43    0.52
   0   1 -16   20.62    0.60
   0   1 -16   20.09    0.51
   0   1 -16   20.11    0.56
   0   1 -16   19.70    0.60
   0   1 -16   20.02    0.63
   0   1 -16   20.92    0.56
   0   1 -16   20.71    0.59
   0   1 -16   20.05    0.55
   0   1 -16   20.49    0.63
  -1  -1 -16    0.27    0.13
  -1  -1 -16    0.08    0.10
  -1  -1 -16    0.42    0.13
  -1  -1 -16    0.19    0.12
  -1  -1 -16    0.09    0.09
  -1  -1 -16    0.34    0.12
  -1  -1 -16    0.31    0.11
  -1  -1 -16    0.29    0.11
  -1  -1 -16    0.15    0.09
  -1   1 -16    0.18    0.10
  -1   1 -16    0.19    0.10
  -1   1 -16    0.28    0.11
  -1   1 -16    0.29    0.13
   1   1  16    0.19    0.09
  -1   1 -16    0.26    0.09
  -1   1 -16    0.29    0.13
  -1   1 -16    0.32    0.09
  -1   1 -16    0.15    0.09
  -1   1 -16    0.31    0.13
  -1   1 -16    0.01    0.08
  -2  -1 -16   11.89    0.41
  -2  -1 -16   11.73    0.38
  -2  -1 -16   11.83    0.46
  -2  -1 -16   11.08    0.43
  -2  -1 -16   11.70    0.41
  -2   1 -16   11.46    0.38
  -2   1 -16   11.35    0.39
  -2   1 -16   10.96    0.41
  -2   1 -16   12.12    0.45
   2   1  16   12.43    0.43
  -2   1 -16   11.46    0.43
  -2   1 -16   12.16    0.46
  -2   1 -16   11.84    0.42
  -2   1 -16   11.97    0.40
  -2   1 -16   12.26    0.41
   2   1  16   11.71    0.38
  -2   1 -16   11.78    0.44
  -3  -1 -16    1.04    0.13
  -3  -1 -16    0.81    0.12
   3  -1  16    0.79    0.11
  -3  -1 -16    0.94    0.12
   3  -1  16    0.89    0.14
  -3   1 -16    1.11    0.12
  -3   1 -16    0.83    0.12
  -3   1 -16    0.95    0.13
   3   1  16    0.67    0.13
  -3   1 -16    0.97    0.14
  -3   1 -16    0.95    0.12
   3   1  16    1.13    0.14
  -3   1 -16    1.17    0.13
   3   1  16    0.85    0.11
   4  -2 -16    0.12    0.05
   4  -2 -16    0.19    0.06
   4   2 -16    0.26    0.06
   4   2 -16    0.19    0.06
  -4   2  16    0.22    0.06
   4   2 -16    0.25    0.06
   4   2 -16    0.16    0.06
   4   2 -16    0.17    0.07
   4   2 -16    0.18    0.06
   4   2 -16    0.24    0.06
   3  -2 -16    0.86    0.14
   3  -2 -16    1.01    0.13
   3  -2 -16    1.09    0.13
   3  -2 -16    1.20    0.13
  -3   2  16    1.39    0.16
  -3   2  16    1.27    0.13
   3   2 -16    1.18    0.14
   3   2 -16    0.97    0.12
   3   2 -16    0.84    0.12
   3   2 -16    1.20    0.14
   3   2 -16    1.05    0.12
  -3   2  16    1.11    0.13
   3   2 -16    1.05    0.13
   3   2 -16    1.06    0.14
   3   2 -16    1.16    0.14
   2  -2 -16    3.90    0.23
   2  -2 -16    3.22    0.27
   2  -2 -16    3.52    0.25
   2  -2 -16    3.83    0.25
   2  -2 -16    3.23    0.24
   2  -2 -16    4.00    0.26
   2   2 -16    3.56    0.23
   2   2 -16    4.09    0.29
   2   2 -16    3.90    0.25
   2   2 -16    3.33    0.22
   2   2 -16    3.83    0.25
   2   2 -16    3.81    0.24
  -2   2  16    3.54    0.26
   2   2 -16    3.43    0.25
   2   2 -16    3.56    0.23
   1  -2 -16    5.21    0.26
   1  -2 -16    5.59    0.27
   1  -2 -16    5.44    0.30
   1  -2 -16    5.46    0.31
   1  -2 -16    6.15    0.35
   1  -2 -16    5.43    0.27
   1  -2 -16    5.74    0.29
   1   2 -16    5.48    0.27
   1   2 -16    5.30    0.25
   1   2 -16    5.68    0.29
   1   2 -16    5.49    0.32
  -1   2  16    5.51    0.29
   1   2 -16    5.46    0.30
   1   2 -16    5.98    0.28
   1   2 -16    5.47    0.28
   1   2 -16    5.27    0.24
   0  -2 -16    7.52    0.36
   0  -2 -16    6.90    0.31
   0  -2 -16    7.32    0.29
   0  -2 -16    6.70    0.35
   0  -2 -16    7.03    0.30
   0  -2 -16    7.11    0.37
   0   2 -16    7.17    0.28
   0   2  16    7.20    0.32
   0   2 -16    7.13    0.35
   0   2 -16    6.94    0.32
   0   2 -16    7.05    0.37
   0   2 -16    7.16    0.35
   0   2 -16    7.35    0.35
   0   2 -16    7.21    0.31
   0   2  16    6.96    0.30
   0   2 -16    7.66    0.35
   0   2 -16    7.03    0.31
  -1  -2 -16   -0.03    0.10
  -1  -2 -16    0.13    0.09
  -1  -2 -16    0.00    0.08
  -1  -2 -16    0.04    0.09
  -1  -2 -16    0.07    0.11
  -1   2 -16   -0.04    0.08
  -1   2 -16    0.01    0.09
  -1   2 -16    0.22    0.10
  -1   2 -16    0.07    0.10
  -1   2 -16    0.08    0.09
   1   2  16    0.05    0.08
  -1   2 -16    0.10    0.11
  -1   2 -16    0.18    0.11
   1   2  16    0.16    0.09
  -1   2 -16    0.04    0.07
  -1   2 -16    0.03    0.09
  -2  -2 -16   12.49    0.38
  -2  -2 -16   12.08    0.40
  -2  -2 -16   12.86    0.43
  -2  -2 -16   12.91    0.46
  -2   2 -16   12.99    0.41
   2   2  16   12.67    0.41
   2   2  16   12.03    0.38
   2   2  16   12.34    0.39
  -2   2 -16   12.78    0.44
  -2   2 -16   12.89    0.43
  -2   2 -16   12.92    0.45
  -2   2 -16   12.61    0.40
  -2   2 -16   13.06    0.39
  -2   2 -16   12.98    0.45
  -2   2 -16   12.58    0.42
  -2   2 -16   13.88    0.48
  -3  -2 -16    6.91    0.33
   3  -2  16    6.90    0.26
  -3  -2 -16    6.76    0.24
  -3  -2 -16    7.33    0.26
  -3   2 -16    7.01    0.25
  -3   2 -16    6.73    0.23
   3   2  16    7.07    0.26
  -3   2 -16    6.75    0.25
  -3   2 -16    6.50    0.25
  -3   2 -16    6.88    0.28
  -3   2 -16    7.00    0.27
  -3   2 -16    6.74    0.25
  -3   2 -16    6.94    0.26
   3   2  16    6.99    0.24
   3  -3 -16    0.02    0.06
   3  -3 -16    0.20    0.08
   3   3 -16    0.10    0.06
  -3   3  16    0.08    0.06
   3   3 -16    0.03    0.06
   3   3 -16   -0.02    0.05
   3   3 -16    0.10    0.06
  -3   3  16    0.11    0.07
  -3   3  16    0.03    0.05
   3   3 -16    0.03    0.07
   3   3 -16   -0.02    0.05
   3   3 -16    0.06    0.05
   2  -3 -16    8.79    0.36
   2  -3 -16    9.25    0.38
   2  -3 -16    8.87    0.31
  -2   3  16    8.89    0.33
   2   3 -16    9.38    0.31
   2   3 -16    8.87    0.31
   2   3 -16    9.05    0.31
   2   3 -16    8.99    0.33
   2   3 -16    8.90    0.29
  -2   3  16    8.90    0.33
  -2   3  16    8.64    0.30
   2   3 -16    9.02    0.30
   1  -3 -16    3.66    0.27
   1  -3 -16    3.12    0.25
   1  -3 -16    4.04    0.21
   1  -3 -16    3.62    0.23
   1  -3 -16    3.43    0.27
   1   3 -16    3.88    0.27
  -1   3  16    3.60    0.26
   1   3 -16    3.41    0.23
   1   3 -16    3.74    0.27
   1   3 -16    3.89    0.24
   1   3 -16    3.86    0.19
  -1   3  16    4.32    0.25
   1   3 -16    3.18    0.22
  -1   3  16    3.96    0.26
   0  -3 -16    0.82    0.14
   0  -3 -16    0.81    0.15
   0  -3 -16    0.81    0.15
   0   3 -16    0.61    0.10
   0   3 -16    0.85    0.14
   0   3 -16    1.19    0.17
   0   3 -16    0.89    0.15
   0   3 -16    0.77    0.15
   0   3 -16    0.88    0.13
   0   3  16    0.96    0.14
   0   3  16    0.90    0.14
   0   3  16    0.99    0.15
   0   3 -16    0.91    0.14
  -1  -3 -16    0.14    0.09
  -1  -3 -16    0.02    0.08
  -1  -3 -16    0.00    0.08
  -1   3 -16    0.08    0.07
  -1   3 -16    0.10    0.09
   1   3  16   -0.10    0.06
   1   3  16    0.04    0.06
  -1   3 -16   -0.01    0.07
  -1   3 -16    0.01    0.09
  -1   3 -16    0.11    0.09
   1   3  16   -0.07    0.06
   1   3  16    0.08    0.06
  -1   3 -16    0.00    0.07
  -1   3 -16    0.01    0.08
  -1   3 -16    0.01    0.07
  -2  -3 -16   -0.03    0.07
  -2  -3 -16    0.22    0.06
  -2  -3 -16    0.06    0.09
  -2   3 -16   -0.01    0.07
  -2   3 -16    0.10    0.11
  -2   3 -16    0.09    0.08
  -2   3 -16    0.03    0.08
  -2   3 -16    0.17    0.09
   2   3  16    0.15    0.06
  -2   3 -16    0.22    0.10
  -2   3 -16    0.07    0.06
   2   3  16    0.10    0.07
  -2   3 -16   -0.03    0.08
  -2   3 -16   -0.01    0.07
   2   3  16    0.07    0.07
   3  -4 -16    2.20    0.16
  -3   4  16    2.49    0.14
   2  -4 -16    0.66    0.11
   2  -4 -16    0.96    0.14
  -2   4  16    0.68    0.11
  -2   4  16    0.60    0.10
   2   4 -16    0.80    0.09
   1  -4 -16    1.75    0.19
   1  -4 -16    1.50    0.18
   1  -4 -16    1.64    0.17
  -1   4  16    1.61    0.16
  -1   4  16    2.08    0.18
  -1   4  16    1.79    0.18
   0  -4 -16    1.10    0.13
   0  -4 -16    1.08    0.15
   0  -4 -16    1.29    0.16
   0   4 -16    1.63    0.16
   0   4 -16    1.63    0.17
   0   4  16    1.51    0.16
   0   4  16    1.44    0.16
   0   4 -16    1.46    0.14
   0   4 -16    1.57    0.17
   0   4  16    1.52    0.14
  -1  -4 -16    0.20    0.10
  -1  -4 -16    0.25    0.09
  -1  -4 -16    0.15    0.08
  -1   4 -16    0.18    0.08
   1   4  16    0.24    0.09
  -1   4 -16    0.25    0.11
  -1   4 -16    0.15    0.06
  -1   4 -16    0.12    0.06
  -1   4 -16    0.17    0.09
   1   4  16    0.27    0.09
  -1   4 -16    0.33    0.09
   1   4  16    0.04    0.07
  -1   4 -16    0.18    0.10
  -2  -4 -16    2.84    0.18
  -2  -4 -16    3.51    0.19
  -2   4 -16    3.32    0.20
  -2   4 -16    3.54    0.18
  -2   4 -16    3.84    0.20
  -2   4 -16    3.62    0.17
  -2   4 -16    3.70    0.18
   2   4  16    3.48    0.18
   2   4  16    3.50    0.17
  -2   4 -16    3.35    0.19
  -2   4 -16    3.66    0.15
   1  -5 -16   11.66    0.34
   1  -5 -16   11.09    0.34
  -1   5  16   11.16    0.31
  -1   5  16   11.87    0.32
   0  -5 -16    1.57    0.14
   0  -5 -16    1.52    0.16
   0   5  16    1.74    0.15
   0   5  16    1.54    0.14
  -1  -5 -16    0.01    0.06
  -1  -5 -16    0.06    0.06
   1   5  16    0.14    0.06
   1   5  16    0.03    0.06
   3   0 -17   -0.03    0.07
   3   0 -17    0.03    0.06
  -3   0  17    0.01    0.06
   3   0 -17   -0.04    0.06
   3   0 -17   -0.02    0.06
   3   0 -17   -0.06    0.07
   3   0 -17   -0.06    0.06
   3   0 -17    0.03    0.06
   3   0 -17    0.06    0.06
   2   0 -17   -0.03    0.06
   2   0 -17   -0.03    0.07
   2   0 -17   -0.09    0.06
   2   0 -17   -0.08    0.06
   2   0 -17   -0.03    0.06
   2   0 -17   -0.05    0.07
   2   0 -17   -0.03    0.06
   2   0 -17    0.10    0.09
   2   0 -17    0.04    0.10
   1   0 -17   -0.11    0.07
   1   0 -17   -0.07    0.07
   1   0 -17    0.05    0.08
   1   0 -17    0.01    0.10
   1   0 -17   -0.05    0.07
   1   0 -17   -0.05    0.07
   1   0 -17   -0.09    0.06
   1   0 -17   -0.02    0.07
   1   0 -17   -0.10    0.08
   1   0 -17   -0.04    0.09
   0   0 -17    0.03    0.08
   0   0 -17   -0.04    0.09
   0   0 -17    0.13    0.09
   0   0 -17   -0.02    0.10
   0   0 -17    0.07    0.10
   0   0 -17    0.01    0.08
   0   0 -17   -0.04    0.07
   0   0 -17   -0.05    0.09
   0   0 -17   -0.13    0.07
   0   0 -17   -0.07    0.07
  -1   0 -17   -0.11    0.08
  -1   0 -17   -0.08    0.09
  -1   0 -17    0.07    0.10
  -1   0 -17   -0.01    0.08
  -1   0 -17    0.01    0.08
  -1   0 -17    0.03    0.09
  -1   0 -17    0.08    0.08
  -1   0 -17   -0.04    0.07
  -1   0 -17   -0.15    0.07
  -1   0 -17    0.00    0.08
  -2   0 -17   -0.10    0.08
  -2   0 -17    0.05    0.09
  -2   0 -17   -0.02    0.08
  -2   0 -17   -0.07    0.06
  -2   0 -17    0.04    0.07
  -2   0 -17    0.01    0.09
   2   0  17   -0.01    0.07
  -2   0 -17   -0.06    0.08
  -2   0 -17    0.02    0.10
   2   0  17    0.07    0.07
   3   0  17    0.03    0.06
  -3   0 -17    0.06    0.06
  -3   0 -17   -0.01    0.06
  -3   0 -17   -0.02    0.07
   3   0  17   -0.03    0.06
   3  -1 -17    0.25    0.08
   3  -1 -17    0.38    0.09
   3  -1 -17   -0.01    0.08
   3  -1 -17    0.34    0.08
   3  -1 -17    0.21    0.07
   3  -1 -17    0.24    0.08
   3  -1 -17    0.45    0.09
   3  -1 -17    0.15    0.09
  -3   1  17    0.38    0.10
   3   1 -17    0.37    0.08
   3   1 -17    0.32    0.09
   3   1 -17    0.33    0.09
   3   1 -17    0.45    0.08
   3   1 -17    0.45    0.10
   3   1 -17    0.35    0.08
   3   1 -17    0.20    0.07
   3   1 -17    0.31    0.09
   3   1 -17    0.26    0.08
   2  -1 -17    0.07    0.10
   2  -1 -17   -0.01    0.08
   2  -1 -17    0.11    0.08
   2  -1 -17   -0.01    0.06
   2  -1 -17    0.13    0.08
   2  -1 -17   -0.04    0.06
   2  -1 -17   -0.09    0.06
   2  -1 -17    0.15    0.08
   2  -1 -17    0.00    0.08
   2  -1 -17    0.00    0.07
   2   1 -17    0.00    0.08
   2   1 -17    0.06    0.07
   2   1 -17    0.05    0.07
  -2   1  17    0.12    0.08
   2   1 -17    0.12    0.08
   2   1 -17    0.09    0.08
   2   1 -17    0.13    0.08
   2   1 -17    0.09    0.08
   2   1 -17   -0.01    0.07
   2   1 -17    0.07    0.07
   1  -1 -17    1.34    0.15
   1  -1 -17    1.41    0.17
   1  -1 -17    1.66    0.18
   1  -1 -17    1.57    0.18
   1  -1 -17    1.56    0.20
   1  -1 -17    1.53    0.18
   1  -1 -17    1.47    0.19
   1  -1 -17    1.30    0.15
   1  -1 -17    1.70    0.18
   1   1 -17    1.56    0.19
   1   1 -17    1.56    0.19
   1   1 -17    1.17    0.15
   1   1 -17    1.16    0.15
  -1   1  17    1.70    0.18
   1   1 -17    1.73    0.18
   1   1 -17    1.90    0.20
   1   1 -17    1.38    0.19
   1   1 -17    1.53    0.16
   1   1 -17    1.26    0.16
   0  -1 -17    7.63    0.30
   0  -1 -17    7.47    0.32
   0  -1 -17    7.81    0.33
   0  -1 -17    7.13    0.36
   0  -1 -17    7.53    0.30
   0  -1 -17    7.19    0.35
   0  -1 -17    7.23    0.37
   0  -1 -17    7.61    0.35
   0  -1 -17    7.50    0.33
   0   1 -17    8.07    0.37
   0   1 -17    7.39    0.32
   0   1 -17    7.72    0.33
   0   1 -17    7.48    0.37
   0   1 -17    7.29    0.29
   0   1 -17    7.02    0.36
   0   1 -17    7.26    0.34
   0   1 -17    7.02    0.32
   0   1 -17    7.08    0.37
  -1  -1 -17    1.19    0.14
  -1  -1 -17    0.91    0.14
  -1  -1 -17    1.09    0.15
  -1  -1 -17    1.37    0.16
  -1  -1 -17    1.16    0.17
  -1  -1 -17    1.15    0.17
  -1  -1 -17    1.05    0.17
  -1  -1 -17    1.17    0.16
   1   1  17    1.27    0.15
  -1   1 -17    1.20    0.19
  -1   1 -17    0.84    0.13
  -1   1 -17    0.98    0.14
  -1   1 -17    1.27    0.18
  -1   1 -17    1.18    0.16
  -1   1 -17    1.22    0.18
  -1   1 -17    1.05    0.16
  -1   1 -17    1.06    0.15
  -1   1 -17    1.20    0.19
  -1   1 -17    1.37    0.19
  -2  -1 -17    7.22    0.34
  -2  -1 -17    6.82    0.31
  -2  -1 -17    7.24    0.31
  -2  -1 -17    6.52    0.30
   2  -1  17    7.07    0.29
  -2   1 -17    6.87    0.28
  -2   1 -17    7.27    0.29
  -2   1 -17    6.97    0.30
  -2   1 -17    6.93    0.33
  -2   1 -17    6.72    0.31
   2   1  17    7.08    0.27
   2   1  17    7.05    0.30
  -2   1 -17    6.71    0.30
  -2   1 -17    7.19    0.34
  -2   1 -17    7.05    0.32
   3  -1  17    5.81    0.23
  -3  -1 -17    5.06    0.21
  -3  -1 -17    5.04    0.21
  -3  -1 -17    4.93    0.20
  -3   1 -17    5.45    0.20
   3   1  17    5.24    0.22
  -3   1 -17    5.68    0.23
  -3   1 -17    5.25    0.23
  -3   1 -17    5.29    0.20
   3   1  17    5.33    0.21
   3  -2 -17    5.77    0.22
   3  -2 -17    5.31    0.25
   3  -2 -17    5.27    0.21
   3  -2 -17    5.98    0.22
   3   2 -17    5.48    0.21
   3   2 -17    5.54    0.23
   3   2 -17    5.62    0.25
   3   2 -17    5.27    0.21
  -3   2  17    5.81    0.24
   3   2 -17    5.68    0.21
   3   2 -17    5.44    0.21
   3   2 -17    5.24    0.20
  -3   2  17    5.38    0.22
   3   2 -17    5.78    0.23
   2  -2 -17    0.94    0.13
   2  -2 -17    0.74    0.11
   2  -2 -17    0.65    0.10
   2  -2 -17    0.51    0.13
   2  -2 -17    0.50    0.11
   2  -2 -17    0.88    0.14
   2   2 -17    0.56    0.10
   2   2 -17    0.67    0.12
   2   2 -17    0.74    0.11
   2   2 -17    0.75    0.10
  -2   2  17    0.67    0.12
   2   2 -17    0.68    0.13
   2   2 -17    0.64    0.12
  -2   2  17    0.64    0.12
   2   2 -17    0.54    0.10
   2   2 -17    0.74    0.13
   1  -2 -17    1.39    0.18
   1  -2 -17    1.29    0.16
   1  -2 -17    1.90    0.19
   1  -2 -17    1.46    0.15
   1  -2 -17    1.62    0.20
   1  -2 -17    1.69    0.17
   1  -2 -17    1.30    0.15
   1   2 -17    1.77    0.18
   1   2 -17    1.74    0.19
  -1   2  17    1.94    0.19
   1   2 -17    1.68    0.17
   1   2 -17    1.38    0.16
   1   2 -17    1.90    0.18
   1   2 -17    1.71    0.19
   1   2 -17    1.59    0.14
   1   2 -17    1.56    0.19
   0  -2 -17    5.09    0.29
   0  -2 -17    4.89    0.24
   0  -2 -17    5.55    0.32
   0  -2 -17    5.28    0.26
   0  -2 -17    5.20    0.30
   0  -2 -17    5.64    0.27
   0   2 -17    4.86    0.27
   0   2  17    5.14    0.27
   0   2 -17    5.10    0.26
   0   2 -17    4.99    0.27
   0   2 -17    5.49    0.30
   0   2 -17    5.23    0.31
   0   2  17    5.08    0.25
   0   2 -17    5.23    0.26
   0   2 -17    5.28    0.30
   0   2 -17    5.28    0.22
   0   2 -17    5.12    0.26
  -1  -2 -17    9.65    0.36
  -1  -2 -17    9.64    0.37
  -1  -2 -17    9.54    0.37
  -1  -2 -17    9.17    0.37
  -1  -2 -17   10.10    0.42
   1   2  17    9.50    0.34
  -1   2 -17   10.20    0.39
  -1   2 -17    9.61    0.33
  -1   2 -17    9.71    0.37
  -1   2 -17    9.11    0.34
  -1   2 -17    8.72    0.36
   1   2  17    9.30    0.34
  -1   2 -17    9.73    0.35
  -1   2 -17    9.05    0.35
  -1   2 -17    9.72    0.41
  -1   2 -17    9.65    0.40
  -2  -2 -17    0.27    0.09
  -2  -2 -17    0.15    0.10
  -2  -2 -17    0.23    0.09
  -2   2 -17    0.32    0.11
  -2   2 -17    0.18    0.10
  -2   2 -17    0.15    0.10
  -2   2 -17    0.23    0.09
  -2   2 -17    0.26    0.10
   2   2  17    0.33    0.09
  -2   2 -17    0.27    0.11
  -2   2 -17    0.31    0.10
  -2   2 -17    0.25    0.12
   2   2  17    0.11    0.07
   2   2  17    0.19    0.07
   3  -3 -17    0.08    0.06
   3  -3 -17    0.13    0.06
  -3   3  17    0.03    0.05
   3   3 -17   -0.06    0.04
   3   3 -17    0.00    0.05
   3   3 -17   -0.01    0.05
   3   3 -17   -0.03    0.05
   3   3 -17   -0.04    0.05
   3   3 -17   -0.03    0.04
  -3   3  17   -0.07    0.04
   2  -3 -17    0.63    0.12
   2  -3 -17    0.59    0.10
   2  -3 -17    0.70    0.13
   2   3 -17    0.72    0.10
  -2   3  17    0.82    0.11
   2   3 -17    0.70    0.11
  -2   3  17    0.71    0.12
   2   3 -17    0.71    0.11
   2   3 -17    0.66    0.09
   2   3 -17    0.67    0.12
   2   3 -17    0.76    0.11
  -2   3  17    0.72    0.12
   1  -3 -17    0.06    0.09
   1  -3 -17    0.15    0.09
   1  -3 -17    0.12    0.09
   1  -3 -17    0.24    0.09
   1   3 -17    0.21    0.09
   1   3 -17    0.29    0.10
   1   3 -17    0.24    0.09
  -1   3  17    0.24    0.08
  -1   3  17    0.13    0.08
  -1   3  17    0.10    0.08
   1   3 -17    0.04    0.07
   1   3 -17    0.24    0.08
   1   3 -17    0.09    0.05
   0  -3 -17    5.26    0.28
   0  -3 -17    4.41    0.25
   0  -3 -17    5.00    0.28
   0   3 -17    4.87    0.26
   0   3 -17    4.78    0.24
   0   3 -17    4.60    0.24
   0   3 -17    4.61    0.25
   0   3 -17    4.91    0.22
   0   3 -17    4.83    0.29
   0   3  17    4.60    0.23
   0   3  17    5.12    0.24
   0   3  17    4.35    0.28
   0   3 -17    4.74    0.27
  -1  -3 -17    1.73    0.19
  -1  -3 -17    1.66    0.17
  -1  -3 -17    1.66    0.17
   1   3  17    1.51    0.14
  -1   3 -17    1.49    0.16
   1   3  17    1.71    0.16
  -1   3 -17    1.62    0.18
  -1   3 -17    1.66    0.20
  -1   3 -17    1.57    0.16
  -1   3 -17    1.70    0.17
  -1   3 -17    1.47    0.15
  -1   3 -17    1.44    0.15
  -1   3 -17    1.59    0.16
   1   3  17    1.59    0.15
  -2  -3 -17    0.12    0.08
  -2  -3 -17    0.14    0.06
  -2   3 -17    0.07    0.08
  -2   3 -17    0.18    0.08
  -2   3 -17    0.15    0.07
   2   3  17    0.03    0.06
   2   3  17    0.13    0.06
  -2   3 -17    0.13    0.08
  -2   3 -17    0.10    0.08
  -2   3 -17    0.01    0.08
   2   3  17    0.11    0.06
  -2   3 -17    0.00    0.06
   2  -4 -17    0.68    0.10
   2  -4 -17    0.54    0.10
  -2   4  17    0.70    0.09
  -2   4  17    0.60    0.09
   1  -4 -17    0.72    0.13
   1  -4 -17    0.83    0.12
   1  -4 -17    0.90    0.12
  -1   4  17    1.00    0.13
  -1   4  17    0.79    0.11
  -1   4  17    0.71    0.10
   0  -4 -17   -0.08    0.06
   0  -4 -17   -0.03    0.07
   0   4 -17    0.01    0.06
   0   4  17    0.02    0.05
   0   4 -17    0.06    0.06
   0   4  17   -0.10    0.06
   0   4 -17    0.00    0.06
   0   4  17    0.00    0.05
  -1  -4 -17    0.97    0.12
  -1  -4 -17    1.03    0.14
  -1  -4 -17    1.08    0.11
  -1   4 -17    1.14    0.12
   1   4  17    1.23    0.12
  -1   4 -17    0.94    0.14
  -1   4 -17    1.19    0.13
   1   4  17    1.16    0.11
  -1   4 -17    0.97    0.10
  -1   4 -17    1.22    0.13
  -1   4 -17    1.23    0.13
   1   4  17    1.11    0.12
   3   0 -18    4.00    0.18
  -3   0  18    3.69    0.18
   3   0 -18    4.17    0.18
   3   0 -18    3.60    0.18
   3   0 -18    4.21    0.17
   3   0 -18    3.74    0.18
   3   0 -18    4.11    0.19
   3   0 -18    3.90    0.18
   3   0 -18    3.79    0.19
   2   0 -18    1.59    0.16
   2   0 -18    1.75    0.17
   2   0 -18    1.66    0.17
   2   0 -18    1.72    0.16
   2   0 -18    1.81    0.16
   2   0 -18    1.76    0.15
   2   0 -18    1.59    0.18
   2   0 -18    2.28    0.19
   2   0 -18    1.68    0.16
   1   0 -18   22.57    0.55
   1   0 -18   22.72    0.59
   1   0 -18   22.54    0.54
   1   0 -18   23.20    0.54
   1   0 -18   22.43    0.63
  -1   0  18   22.75    0.52
   1   0 -18   23.10    0.57
   1   0 -18   23.25    0.57
   1   0 -18   23.41    0.55
   1   0 -18   22.38    0.58
   0   0 -18   42.67    0.90
   0   0 -18   43.61    0.90
   0   0 -18   44.30    0.87
   0   0 -18   43.80    0.83
   0   0 -18   43.70    0.84
   0   0 -18   42.23    0.86
   0   0 -18   43.14    0.83
   0   0 -18   42.85    0.92
   0   0 -18   44.06    0.94
  -1   0 -18   51.02    1.03
  -1   0 -18   50.60    0.99
  -1   0 -18   49.23    0.89
  -1   0 -18   52.17    0.98
  -1   0 -18   50.30    0.94
  -1   0 -18   49.00    0.92
  -1   0 -18   50.23    0.97
  -1   0 -18   49.15    0.89
  -1   0 -18   49.68    0.91
   1   0  18   50.03    0.89
   2   0  18    2.48    0.16
  -2   0 -18    2.14    0.18
  -2   0 -18    2.25    0.17
  -2   0 -18    2.21    0.20
  -2   0 -18    2.13    0.17
   2   0  18    2.61    0.19
  -2   0 -18    2.27    0.20
  -2   0 -18    2.02    0.17
  -3  -1  18    0.05    0.05
   3  -1 -18   -0.02    0.05
   3  -1 -18    0.05    0.05
   3  -1 -18    0.05    0.05
   3  -1 -18    0.02    0.05
   3  -1 -18   -0.11    0.05
   3  -1 -18    0.05    0.06
   3   1 -18    0.01    0.06
   3   1 -18   -0.03    0.06
   3   1 -18    0.01    0.05
   3   1 -18    0.06    0.06
  -3   1  18   -0.01    0.04
   3   1 -18    0.01    0.06
   3   1 -18    0.09    0.05
   3   1 -18   -0.05    0.06
  -3   1  18    0.06    0.05
   3   1 -18    0.06    0.05
   2  -1 -18    2.08    0.20
   2  -1 -18    1.90    0.16
   2  -1 -18    2.07    0.17
   2  -1 -18    1.92    0.17
   2  -1 -18    1.96    0.15
   2  -1 -18    2.03    0.16
   2  -1 -18    2.19    0.19
   2  -1 -18    1.89    0.17
   2   1 -18    2.23    0.19
   2   1 -18    1.84    0.16
   2   1 -18    2.02    0.17
   2   1 -18    2.01    0.17
   2   1 -18    1.93    0.16
   2   1 -18    2.12    0.17
  -2   1  18    2.33    0.19
   2   1 -18    2.00    0.16
   2   1 -18    2.15    0.19
   2   1 -18    2.27    0.18
   1  -1 -18   14.97    0.43
   1  -1 -18   15.64    0.45
   1  -1 -18   15.98    0.43
   1  -1 -18   16.00    0.51
   1  -1 -18   14.71    0.45
   1  -1 -18   15.65    0.43
   1  -1 -18   15.06    0.41
   1  -1 -18   15.34    0.48
   1  -1 -18   15.36    0.44
   1   1 -18   15.65    0.46
  -1   1  18   14.72    0.42
   1   1 -18   15.12    0.42
   1   1 -18   15.70    0.44
   1   1 -18   15.68    0.50
   1   1 -18   14.91    0.41
   1   1 -18   15.35    0.47
   1   1 -18   15.36    0.45
   1   1 -18   15.12    0.45
   1   1 -18   15.80    0.44
   0  -1 -18    1.08    0.14
   0  -1 -18    0.78    0.14
   0  -1 -18    0.94    0.14
   0  -1 -18    1.00    0.14
   0  -1 -18    0.85    0.13
   0  -1 -18    1.02    0.17
   0  -1 -18    0.72    0.14
   0  -1 -18    1.03    0.17
   0  -1 -18    0.67    0.15
   0   1 -18    1.07    0.16
   0   1 -18    0.83    0.13
   0   1 -18    0.79    0.13
   0   1 -18    0.78    0.14
   0   1 -18    0.88    0.17
   0   1 -18    0.97    0.14
   0   1 -18    0.96    0.16
   0   1 -18    0.99    0.15
   0   1  18    0.90    0.13
   0   1 -18    0.93    0.16
  -1  -1 -18    4.06    0.27
  -1  -1 -18    4.28    0.25
  -1  -1 -18    4.32    0.23
  -1  -1 -18    4.81    0.25
   1  -1  18    4.16    0.21
  -1  -1 -18    3.87    0.29
  -1  -1 -18    5.10    0.27
  -1   1 -18    4.10    0.22
  -1   1 -18    4.30    0.28
  -1   1 -18    4.81    0.26
  -1   1 -18    4.13    0.29
  -1   1 -18    4.42    0.27
  -1   1 -18    4.75    0.24
  -1   1 -18    4.62    0.27
   1   1  18    4.44    0.21
  -1   1 -18    4.83    0.24
  -1   1 -18    3.98    0.26
   1   1  18    4.77    0.23
  -2  -1 -18   -0.02    0.07
  -2  -1 -18    0.04    0.08
  -2  -1 -18    0.07    0.07
   2  -1  18    0.09    0.07
   2   1  18    0.07    0.06
  -2   1 -18    0.02    0.08
   2   1  18   -0.09    0.07
  -2   1 -18    0.01    0.07
  -2   1 -18   -0.02    0.08
  -2   1 -18    0.04    0.09
  -2   1 -18    0.03    0.06
  -2   1 -18    0.16    0.08
  -2   1 -18    0.15    0.09
  -2   1 -18    0.05    0.08
   3  -2 -18    3.52    0.15
   3  -2 -18    3.64    0.18
   3  -2 -18    3.33    0.16
   3   2 -18    3.01    0.18
   3   2 -18    3.54    0.15
   3   2 -18    3.71    0.15
   3   2 -18    3.54    0.15
   3   2 -18    3.55    0.15
  -3   2  18    3.40    0.15
   3   2 -18    3.56    0.18
  -3   2  18    3.55    0.16
   3   2 -18    3.60    0.16
   2  -2 -18    0.11    0.07
   2  -2 -18    0.35    0.08
   2  -2 -18    0.43    0.11
   2  -2 -18    0.39    0.09
   2  -2 -18    0.26    0.08
  -2   2  18    0.22    0.07
   2   2 -18    0.25    0.09
   2   2 -18    0.24    0.08
  -2   2  18    0.27    0.08
   2   2 -18    0.17    0.07
   2   2 -18    0.21    0.08
   2   2 -18    0.24    0.07
   2   2 -18    0.32    0.09
   2   2 -18    0.34    0.09
   1  -2 -18    0.05    0.09
   1  -2 -18   -0.06    0.07
   1  -2 -18    0.04    0.08
   1  -2 -18    0.07    0.07
   1   2 -18    0.07    0.05
   1   2 -18    0.23    0.09
   1   2 -18    0.02    0.07
   1   2 -18    0.00    0.07
   1   2 -18   -0.08    0.07
   1   2 -18    0.12    0.07
  -1   2  18    0.19    0.08
   1   2 -18    0.08    0.08
   1   2 -18   -0.02    0.07
  -1   2  18    0.07    0.07
   0  -2 -18    1.06    0.15
   0  -2 -18    0.97    0.15
   0  -2 -18    1.13    0.16
   0  -2 -18    0.90    0.13
   0   2 -18    1.60    0.16
   0   2 -18    1.26    0.16
   0   2 -18    1.29    0.16
   0   2  18    1.03    0.14
   0   2  18    1.15    0.13
   0   2 -18    1.16    0.17
   0   2 -18    1.13    0.14
   0   2 -18    1.14    0.16
   0   2 -18    1.18    0.12
   0   2 -18    1.26    0.17
  -1  -2 -18    1.18    0.16
  -1  -2 -18    0.53    0.10
  -1  -2 -18    0.68    0.12
  -1   2 -18    0.95    0.14
  -1   2 -18    0.91    0.13
   1   2  18    0.69    0.11
  -1   2 -18    1.06    0.14
  -1   2 -18    0.80    0.11
  -1   2 -18    1.02    0.15
  -1   2 -18    0.98    0.13
   1   2  18    0.92    0.14
  -1   2 -18    0.82    0.14
  -1   2 -18    0.93    0.13
   1   2  18    0.88    0.13
  -2  -2 -18    0.24    0.09
  -2  -2 -18    0.24    0.07
  -2   2 -18    0.26    0.08
  -2   2 -18    0.27    0.09
  -2   2 -18    0.16    0.08
   2   2  18    0.24    0.08
   2   2  18    0.18    0.07
  -2   2 -18    0.10    0.08
  -2   2 -18    0.24    0.10
  -2   2 -18    0.29    0.09
  -2   2 -18    0.12    0.08
  -2   2 -18    0.18    0.09
   2  -3 -18    0.19    0.08
   2  -3 -18    0.13    0.07
   2  -3 -18    0.01    0.06
   2   3 -18    0.13    0.07
  -2   3  18    0.18    0.06
   2   3 -18    0.25    0.06
   2   3 -18    0.16    0.05
  -2   3  18    0.11    0.06
   2   3 -18    0.01    0.08
   2   3 -18    0.03    0.07
  -2   3  18    0.07    0.06
   2   3 -18    0.16    0.07
   1  -3 -18    0.40    0.10
   1  -3 -18    0.47    0.11
   1  -3 -18    0.15    0.08
  -1   3  18    0.42    0.09
   1   3 -18    0.32    0.08
   1   3 -18    0.31    0.10
   1   3 -18    0.27    0.10
   1   3 -18    0.47    0.10
  -1   3  18    0.52    0.07
  -1   3  18    0.23    0.08
   1   3 -18    0.56    0.09
   0  -3 -18    0.38    0.12
   0  -3 -18    0.57    0.11
   0  -3 -18    0.53    0.11
   0   3 -18    0.06    0.10
   0   3 -18    0.55    0.09
   0   3  18    0.49    0.10
   0   3 -18    0.42    0.10
   0   3 -18    0.45    0.10
   0   3  18    0.29    0.08
   0   3  18    0.42    0.10
   0   3 -18    0.50    0.10
   0   3 -18    0.25    0.08
   0   3 -18    0.48    0.09
  -1  -3 -18    0.00    0.07
  -1  -3 -18   -0.03    0.06
  -1  -3 -18   -0.02    0.06
  -1   3 -18    0.03    0.07
  -1   3 -18   -0.03    0.06
  -1   3 -18    0.09    0.07
  -1   3 -18    0.01    0.06
  -1   3 -18    0.05    0.09
   1   3  18   -0.09    0.05
   1   3  18   -0.05    0.05
  -1   3 -18   -0.06    0.07
  -1   3 -18   -0.13    0.05
   1  -4 -18    0.39    0.08
   1  -4 -18    0.40    0.10
  -1   4  18    0.38    0.08
  -1   4  18    0.45    0.08
   0  -4 -18    0.16    0.08
   0  -4 -18    0.05    0.07
   0   4  18   -0.02    0.05
   0   4 -18    0.04    0.05
   0   4  18    0.09    0.05
   0   4 -18   -0.06    0.05
   2   0 -19   -0.03    0.06
   2   0 -19   -0.01    0.06
   2   0 -19   -0.04    0.08
   2   0 -19    0.02    0.07
   2   0 -19    0.05    0.06
   2   0 -19   -0.05    0.06
   2   0 -19   -0.04    0.06
  -2   0  19   -0.06    0.04
   2   0 -19    0.06    0.07
   1   0 -19   -0.13    0.07
   1   0 -19   -0.07    0.06
   1   0 -19   -0.10    0.07
   1   0 -19    0.09    0.08
   1   0 -19   -0.07    0.06
   1   0 -19   -0.03    0.07
   1   0 -19    0.14    0.08
   1   0 -19   -0.04    0.08
   1   0 -19    0.04    0.07
   0   0 -19    0.10    0.10
   0   0 -19    0.15    0.08
   0   0 -19   -0.13    0.08
   0   0  19    0.00    0.06
   0   0 -19   -0.14    0.09
   0   0 -19    0.13    0.08
   0   0 -19   -0.04    0.07
   0   0 -19   -0.05    0.08
   0   0 -19    0.16    0.08
   0   0 -19    0.09    0.09
  -1   0 -19   -0.01    0.08
   1   0  19    0.03    0.06
  -1   0 -19   -0.05    0.07
  -1   0 -19   -0.06    0.08
  -1   0 -19   -0.08    0.07
  -1   0 -19    0.01    0.08
  -1   0 -19   -0.05    0.07
  -1   0 -19   -0.04    0.07
  -1   0 -19    0.04    0.09
  -2   0 -19   -0.09    0.06
  -2   0 -19    0.04    0.06
   2   0  19   -0.08    0.05
  -2   0 -19    0.04    0.07
   2  -1 -19    1.33    0.13
   2  -1 -19    1.28    0.13
   2  -1 -19    1.17    0.14
   2  -1 -19    1.36    0.13
   2  -1 -19    1.38    0.13
   2  -1 -19    1.44    0.12
   2  -1 -19    1.32    0.12
   2   1 -19    1.54    0.14
   2   1 -19    1.42    0.15
   2   1 -19    1.43    0.14
   2   1 -19    1.22    0.12
   2   1 -19    1.41    0.13
   2   1 -19    1.43    0.13
  -2   1  19    1.50    0.14
   2   1 -19    1.67    0.14
   2   1 -19    1.89    0.15
   1  -1 -19    0.37    0.09
   1  -1 -19    0.40    0.10
   1  -1 -19    0.33    0.09
   1  -1 -19    0.25    0.10
   1  -1 -19    0.36    0.08
   1  -1 -19    0.44    0.10
   1  -1 -19    0.45    0.09
   1  -1 -19    0.27    0.12
   1   1 -19    0.37    0.10
   1   1 -19    0.64    0.10
   1   1 -19    0.46    0.12
   1   1 -19    0.40    0.08
  -1   1  19    0.38    0.09
   1   1 -19    0.51    0.10
   1   1 -19    0.49    0.10
   1   1 -19    0.38    0.09
   1   1 -19    0.39    0.09
   1   1 -19    0.36    0.10
   0  -1 -19    0.60    0.11
   0  -1 -19    0.67    0.10
   0  -1 -19    0.79    0.13
   0  -1 -19    0.63    0.13
   0  -1 -19    0.75    0.13
   0  -1 -19    0.72    0.11
   0  -1 -19    0.74    0.12
   0  -1 -19    0.55    0.12
   0   1 -19    0.82    0.13
   0   1 -19    0.71    0.12
   0   1  19    0.79    0.11
   0   1 -19    0.67    0.11
   0   1 -19    0.76    0.14
   0   1 -19    0.76    0.12
   0   1 -19    0.60    0.12
   0   1 -19    0.71    0.11
   0   1 -19    1.07    0.15
   0   1 -19    0.87    0.14
  -1  -1 -19   -0.01    0.08
  -1  -1 -19    0.09    0.07
  -1  -1 -19   -0.04    0.07
  -1  -1 -19   -0.16    0.07
  -1  -1 -19    0.08    0.06
  -1   1 -19   -0.08    0.08
  -1   1 -19   -0.02    0.06
   1   1  19   -0.07    0.05
  -1   1 -19   -0.08    0.08
  -1   1 -19    0.05    0.07
  -1   1 -19   -0.03    0.07
  -1   1 -19   -0.01    0.09
  -1   1 -19    0.00    0.07
  -1   1 -19    0.04    0.07
  -2  -1 -19    3.60    0.18
  -2  -1 -19    3.49    0.17
  -2   1 -19    3.70    0.16
   2   1  19    3.43    0.17
  -2   1 -19    3.69    0.18
   2   1  19    3.59    0.21
  -2   1 -19    3.66    0.20
   2  -2 -19    0.04    0.05
   2  -2 -19    0.10    0.07
   2  -2 -19    0.15    0.06
   2  -2 -19    0.03    0.05
  -2   2  19    0.03    0.05
   2   2 -19    0.05    0.05
   2   2 -19    0.07    0.05
   2   2 -19    0.06    0.05
   2   2 -19    0.05    0.06
   2   2 -19    0.07    0.06
   2   2 -19    0.07    0.06
   2   2 -19   -0.03    0.05
  -2   2  19   -0.03    0.05
   1  -2 -19    0.22    0.07
   1  -2 -19    0.12    0.08
   1  -2 -19    0.29    0.10
   1  -2 -19    0.38    0.09
   1   2 -19    0.09    0.08
   1   2 -19    0.17    0.08
   1   2 -19    0.19    0.08
   1   2 -19    0.25    0.08
  -1   2  19    0.32    0.07
  -1   2  19    0.37    0.09
   1   2 -19    0.36    0.08
   1   2 -19    0.11    0.07
   1   2 -19    0.22    0.07
   0  -2 -19    0.63    0.13
   0  -2 -19    0.40    0.10
   0  -2 -19    0.42    0.10
   0  -2 -19    0.55    0.12
   0   2 -19    0.59    0.12
   0   2 -19    0.50    0.10
   0   2  19    0.53    0.09
   0   2 -19    0.50    0.10
   0   2 -19    0.39    0.11
   0   2 -19    0.49    0.10
   0   2 -19    0.61    0.11
   0   2  19    0.75    0.12
   0   2 -19    0.57    0.12
  -1  -2 -19    0.58    0.10
  -1  -2 -19    0.50    0.08
  -1  -2 -19    0.64    0.11
  -1   2 -19    0.49    0.12
  -1   2 -19    0.51    0.10
  -1   2 -19    0.58    0.11
  -1   2 -19    0.58    0.10
  -1   2 -19    0.42    0.10
   1   2  19    0.71    0.09
  -1   2 -19    0.41    0.09
   1   2  19    0.75    0.10
   1   2  19    0.69    0.11
  -1   2 -19    0.56    0.10
   1  -3 -19    5.89    0.23
   1  -3 -19    6.15    0.24
  -1   3  19    5.97    0.21
   1   3 -19    5.91    0.19
   1   3 -19    5.81    0.22
   1   3 -19    5.82    0.22
   1   3 -19    5.75    0.21
   1   3 -19    5.62    0.19
  -1   3  19    6.10    0.21
   0  -3 -19    0.19    0.09
   0  -3 -19    0.35    0.09
   0  -3 -19    0.39    0.10
   0   3  19    0.31    0.07
   0   3 -19    0.26    0.07
   0   3 -19    0.32    0.10
   0   3  19    0.27    0.07
   0   3 -19    0.37    0.08
   0   3 -19    0.36    0.08
   0   3  19    0.28    0.07
   0   3 -19    0.17    0.07
   2   0 -20    0.92    0.10
   2   0 -20    1.03    0.11
   2   0 -20    0.89    0.10
   2   0 -20    0.97    0.10
   2   0 -20    0.94    0.09
   2   0 -20    1.01    0.10
   2   0 -20    0.89    0.10
   2   0 -20    0.89    0.14
   1   0 -20    0.07    0.06
  -1   0  20    0.08    0.06
   1   0 -20    0.06    0.06
   1   0 -20    0.06    0.07
   1   0 -20    0.07    0.06
   1   0 -20   -0.01    0.07
   1   0 -20   -0.05    0.07
   1   0 -20    0.06    0.07
   1   0 -20    0.09    0.06
   0   0 -20    1.57    0.15
   0   0  20    1.17    0.16
   0   0 -20    1.30    0.14
   0   0 -20    1.31    0.13
   0   0 -20    1.50    0.13
   0   0 -20    1.16    0.14
   0   0 -20    1.33    0.12
   0   0 -20    1.02    0.12
   0   0 -20    1.13    0.11
  -1   0 -20    8.50    0.29
   1   0  20    8.81    0.23
  -1   0 -20    8.83    0.28
  -1   0 -20    8.20    0.29
  -1   0 -20    8.48    0.28
  -1   0 -20    8.39    0.24
  -1   0 -20    8.87    0.29
   1  -1 -20    0.27    0.10
   1  -1 -20    0.16    0.09
   1  -1 -20    0.31    0.08
   1  -1 -20    0.20    0.07
   1  -1 -20    0.20    0.07
   1  -1 -20    0.19    0.07
  -1   1  20    0.28    0.08
   1   1 -20    0.21    0.08
   1   1 -20    0.09    0.08
   1   1 -20    0.26    0.08
   1   1 -20    0.30    0.08
   1   1 -20    0.32    0.09
   1   1 -20    0.25    0.07
   1   1 -20    0.25    0.08
   0  -1 -20    3.79    0.18
   0  -1 -20    3.82    0.17
   0  -1 -20    4.04    0.20
   0  -1 -20    3.76    0.20
   0  -1 -20    3.71    0.18
   0  -1 -20    4.13    0.22
   0   1 -20    4.15    0.21
   0   1  20    3.99    0.18
   0   1 -20    3.93    0.19
   0   1  20    3.91    0.18
   0   1 -20    3.69    0.18
   0   1 -20    3.92    0.20
   0   1 -20    4.06    0.20
   0   1 -20    3.89    0.22
   0   1 -20    4.14    0.19
  -1  -1 -20    2.46    0.17
  -1  -1 -20    2.93    0.17
  -1   1 -20    3.08    0.15
  -1   1 -20    3.01    0.18
  -1   1 -20    2.60    0.17
  -1   1 -20    2.91    0.15
   1   1  20    2.99    0.14
  -1   1 -20    2.99    0.16
  -1   1 -20    2.70    0.18
  -1   1 -20    2.89    0.18
   1   1  20    2.77    0.15
   1  -2 -20    1.79    0.14
   1  -2 -20    1.72    0.14
  -1   2  20    1.67    0.13
   1   2 -20    1.88    0.14
  -1   2  20    1.77    0.12
   1   2 -20    1.90    0.13
   1   2 -20    1.65    0.12
   1   2 -20    1.82    0.14
   1   2 -20    1.75    0.12
   0  -2 -20    0.51    0.09
   0  -2 -20    0.32    0.08
   0  -2 -20    0.38    0.08
   0   2 -20    0.34    0.08
   0   2  20    0.26    0.07
   0   2  20    0.30    0.07
   0   2 -20    0.35    0.09
   0   2 -20    0.37    0.09
   0   2 -20    0.34    0.08
   0   2 -20    0.36    0.08
   0   2 -20    0.25    0.07
   0   0   0    0.00    0.00
;
_shelx_hkl_checksum              94024
_olex2_exptl_crystal_mounting_method 'mounted on a cryoloop'
_olex2_submission_special_instructions 'No special instructions were received'
loop_
_space_group_symop_operation_xyz
'x, y, z'
'-x, y+1/2, -z+1/2'
'-x, -y, -z'
'x, -y-1/2, z-1/2'
loop_
_atom_site_label
_atom_site_type_symbol
_atom_site_fract_x
_atom_site_fract_y
_atom_site_fract_z
_atom_site_U_iso_or_equiv
_atom_site_adp_type
_atom_site_occupancy
_atom_site_site_symmetry_order
_atom_site_calc_flag
_atom_site_refinement_flags_posn
_atom_site_refinement_flags_adp
_atom_site_refinement_flags_occupancy
_atom_site_disorder_assembly
_atom_site_disorder_group
O1 O 1.4290(3) 1.2827(3) 0.44308(11) 0.0478(4) Uani 0.5 1 d . . P A -1
O2 O 0.7301(15) 1.4745(10) 0.7449(3) 0.134(2) Uani 0.5 1 d D . P A -1
O3 O 1.0140(4) 1.6412(4) 0.68598(11) 0.0822(6) Uani 0.5 1 d D . P A -1
O4 O 1.1783(10) 0.4534(7) 0.2619(4) 0.0988(16) Uani 0.5 1 d D . P . .
O5A O 1.5085(6) 0.6371(5) 0.26854(16) 0.0684(7) Uani 0.372(3) 1 d D U P B -1
O5B O 1.401(4) 0.704(3) 0.2328(11) 0.144(5) Uani 0.128(3) 1 d D U P B -2
N1A N 0.4475(5) 0.7242(4) 0.59809(17) 0.0585(8) Uani 0.372(3) 1 d . . P B -1
N1B N 0.4918(16) 0.6243(13) 0.5509(5) 0.054(3) Uani 0.128(3) 1 d . . P B -2
N3B N 1.258(5) 0.623(3) 0.2799(14) 0.067(4) Uani 0.128(3) 1 d . U P B -2
N2 N 0.8868(6) 1.5043(6) 0.6959(2) 0.0727(8) Uani 0.5 1 d D . P A -1
N3A N 1.2964(17) 0.5826(11) 0.2930(5) 0.0720(18) Uani 0.372(3) 1 d D U P B -1
C1A C 0.5794(5) 0.8550(4) 0.59685(14) 0.0457(7) Uani 0.372(3) 1 d . . P B -1
C1B C 0.6565(14) 0.6741(10) 0.5141(5) 0.040(2) Uani 0.128(3) 1 d . . P B -2
C2 C 0.7474(10) 1.0292(10) 0.5954(4) 0.0507(12) Uani 0.5 1 d . . P . .
H2 H 0.641870 0.918807 0.598064 0.061 Uiso 0.128(3) 1 d R . P B -2
C3 C 0.7369(11) 1.1873(12) 0.6474(4) 0.0569(18) Uani 0.5 1 d . . P A -1
H3 H 0.617183 1.187216 0.687711 0.068 Uiso 0.5 1 calc R . P A -1
C4 C 0.9039(13) 1.3421(11) 0.6385(3) 0.0516(14) Uani 0.5 1 d . . P A -1
C5 C 1.0833(10) 1.3527(8) 0.5805(3) 0.0423(10) Uani 0.5 1 d . . P A -1
H5 H 1.194671 1.460652 0.575567 0.051 Uiso 0.5 1 calc R . P A -1
C6 C 1.0898(9) 1.1946(10) 0.5299(3) 0.0419(14) Uani 0.5 1 d . . P A -1
C7 C 1.2635(3) 1.1736(2) 0.46465(9) 0.0390(4) Uani 0.5 1 d . . P A -1
C8 C 1.1907(9) 0.9811(6) 0.4302(3) 0.0383(10) Uani 0.5 1 d . . P A -1
C9 C 1.2885(11) 0.8815(9) 0.3705(3) 0.0433(11) Uani 0.5 1 d . . P A -1
H9 H 1.425414 0.932413 0.341568 0.052 Uiso 0.5 1 calc R . P A -1
C10 C 1.1807(13) 0.7021(9) 0.3533(4) 0.0504(15) Uani 0.5 1 d . . P . .
C11 C 0.9796(10) 0.6278(6) 0.3924(4) 0.0462(12) Uani 0.5 1 d . . P B -1
H11 H 0.905008 0.507212 0.377634 0.055 Uiso 0.5 1 calc R . P B -1
C12 C 0.8854(7) 0.7300(10) 0.4539(3) 0.0412(10) Uani 0.5 1 d . . P . .
H12 H 0.747863 0.678985 0.482562 0.049 Uiso 0.372(3) 1 calc R . P B -1
C13 C 0.9932(9) 0.9072(8) 0.47331(19) 0.0371(9) Uani 0.5 1 d . . P A -1
C14 C 0.9228(11) 1.0356(7) 0.5372(3) 0.0440(10) Uani 0.5 1 d . . P A -1
loop_
_atom_site_aniso_label
_atom_site_aniso_U_11
_atom_site_aniso_U_22
_atom_site_aniso_U_33
_atom_site_aniso_U_23
_atom_site_aniso_U_13
_atom_site_aniso_U_12
O1 0.0408(8) 0.0561(11) 0.0467(9) 0.0107(8) 0.0046(8) -0.0098(8)
O2 0.199(6) 0.133(5) 0.080(3) -0.012(3) 0.069(3) 0.030(4)
O3 0.0878(13) 0.0935(14) 0.0617(10) -0.0249(10) -0.0200(9) 0.0216(11)
O4 0.099(2) 0.098(2) 0.094(3) -0.048(2) -0.041(3) 0.0140(17)
O5A 0.0693(16) 0.0836(17) 0.0522(13) -0.0149(11) 0.0036(11) 0.0118(13)
O5B 0.155(13) 0.163(13) 0.118(11) -0.039(10) 0.043(10) 0.015(11)
N1A 0.0505(13) 0.0676(18) 0.0577(16) 0.0160(14) 0.0066(12) -0.0112(11)
N1B 0.047(4) 0.045(4) 0.069(5) 0.017(4) -0.008(3) -0.017(3)
N3B 0.079(7) 0.071(7) 0.046(7) -0.038(6) -0.029(5) 0.031(6)
N2 0.078(2) 0.092(2) 0.0490(14) 0.0036(13) 0.0062(11) 0.0296(18)
N3A 0.088(4) 0.077(4) 0.046(3) -0.013(2) -0.033(2) 0.030(3)
C1A 0.0379(12) 0.0573(17) 0.0423(13) 0.0163(12) 0.0064(9) 0.0007(10)
C1B 0.035(3) 0.033(3) 0.052(4) 0.011(3) -0.004(3) -0.014(3)
C2 0.0342(19) 0.068(3) 0.051(3) 0.030(3) 0.0076(17) 0.0048(16)
C3 0.055(4) 0.082(5) 0.034(2) 0.015(3) 0.0099(18) 0.027(4)
C4 0.052(4) 0.068(4) 0.0340(17) 0.006(2) 0.000(3) 0.013(3)
C5 0.0378(19) 0.059(3) 0.030(2) 0.010(2) 0.0042(15) 0.0075(13)
C6 0.047(2) 0.047(3) 0.0301(13) -0.003(2) -0.0056(12) 0.015(3)
C7 0.0340(8) 0.0469(9) 0.0356(8) 0.0115(7) -0.0007(6) -0.0017(7)
C8 0.029(2) 0.0452(11) 0.041(2) 0.0167(18) 0.0013(16) -0.0077(16)
C9 0.0427(13) 0.050(3) 0.037(3) 0.0009(15) 0.000(2) 0.003(2)
C10 0.049(3) 0.048(3) 0.053(3) -0.0002(19) -0.010(2) 0.004(2)
C11 0.043(3) 0.0433(12) 0.050(4) 0.006(2) -0.007(2) -0.0016(17)
C12 0.0375(11) 0.045(3) 0.041(3) 0.0092(16) 0.0032(18) 0.006(2)
C13 0.036(2) 0.029(3) 0.0440(13) 0.0067(19) -0.0087(17) -0.0027(11)
C14 0.034(2) 0.0426(19) 0.054(2) 0.0227(13) -0.009(2) -0.0082(16)
loop_
_atom_type_symbol
_atom_type_description
_atom_type_scat_dispersion_real
_atom_type_scat_dispersion_imag
_atom_type_scat_source
C C 0.0181 0.0091 'International Tables Vol C Tables 4.2.6.8 and 6.1.1.4'
H H 0.0000 0.0000 'International Tables Vol C Tables 4.2.6.8 and 6.1.1.4'
N N 0.0311 0.0180 'International Tables Vol C Tables 4.2.6.8 and 6.1.1.4'
O O 0.0492 0.0322 'International Tables Vol C Tables 4.2.6.8 and 6.1.1.4'
loop_
_geom_angle_atom_site_label_1
_geom_angle_atom_site_label_2
_geom_angle_atom_site_label_3
_geom_angle
_geom_angle_site_symmetry_1
_geom_angle_site_symmetry_3
_geom_angle_publ_flag
O4 N3B C10 118(2) . . ?
O5B N3B O4 117(2) . . ?
O5B N3B C10 125.7(17) . . ?
O2 N2 C4 113.0(7) . . ?
O3 N2 O2 129.3(7) . . ?
O3 N2 C4 117.6(4) . . ?
O4 N3A O5A 120.4(9) . . ?
O4 N3A C10 121.8(9) . . ?
O5A N3A C10 117.2(7) . . ?
N1A C1A C2 178.8(4) . . ?
N1B C1B C12 174.2(10) . . ?
C3 C2 C1A 125.4(6) . . ?
C14 C2 C1A 116.0(7) . . ?
C14 C2 C3 118.6(6) . . ?
C4 C3 C2 119.1(6) . . ?
C3 C4 N2 116.8(7) . . ?
C3 C4 C5 123.6(6) . . ?
C5 C4 N2 119.5(7) . . ?
C4 C5 C6 116.1(5) . . ?
C5 C6 C7 125.8(6) . . ?
C5 C6 C14 121.6(5) . . ?
C14 C6 C7 112.6(6) . . ?
O1 C7 C6 129.2(3) . . ?
O1 C7 C8 126.9(3) . . ?
C6 C7 C8 103.9(3) . . ?
C9 C8 C7 131.3(6) . . ?
C9 C8 C13 121.7(4) . . ?
C13 C8 C7 107.0(5) . . ?
C8 C9 C10 117.5(6) . . ?
C9 C10 N3A 119.1(7) . . ?
C11 C10 N3A 118.4(7) . . ?
C11 C10 C9 122.5(6) . . ?
C10 C11 C12 119.2(4) . . ?
C11 C12 C13 119.4(4) . . ?
C8 C13 C14 112.9(7) . . ?
C12 C13 C8 119.7(4) . . ?
C12 C13 C14 127.5(8) . . ?
C2 C14 C6 120.8(6) . . ?
C2 C14 C13 135.6(9) . . ?
C6 C14 C13 103.6(8) . . ?
loop_
_geom_bond_atom_site_label_1
_geom_bond_atom_site_label_2
_geom_bond_distance
_geom_bond_site_symmetry_2
_geom_bond_publ_flag
O1 C7 1.211(2) . ?
O2 N2 1.213(6) . ?
O3 N2 1.173(5) . ?
O4 N3B 1.28(2) . ?
O4 N3A 1.188(9) . ?
O5A N3A 1.242(10) . ?
O5B N3B 1.26(3) . ?
N1A C1A 1.134(4) . ?
N1B C1B 1.136(12) . ?
N3B C10 1.45(2) . ?
N2 C4 1.504(8) . ?
N3A C10 1.479(12) . ?
C1A C2 1.487(7) . ?
C1B C12 1.652(9) . ?
C2 C3 1.420(7) . ?
C2 C14 1.381(5) . ?
C3 C4 1.389(7) . ?
C4 C5 1.394(5) . ?
C5 C6 1.404(5) . ?
C6 C7 1.476(5) . ?
C6 C14 1.408(5) . ?
C7 C8 1.503(4) . ?
C8 C9 1.357(5) . ?
C8 C13 1.385(4) . ?
C9 C10 1.391(5) . ?
C10 C11 1.362(5) . ?
C11 C12 1.382(5) . ?
C12 C13 1.385(4) . ?
C13 C14 1.476(5) . ?
loop_
_geom_torsion_atom_site_label_1
_geom_torsion_atom_site_label_2
_geom_torsion_atom_site_label_3
_geom_torsion_atom_site_label_4
_geom_torsion
_geom_torsion_site_symmetry_1
_geom_torsion_site_symmetry_2
_geom_torsion_site_symmetry_3
_geom_torsion_site_symmetry_4
_geom_torsion_publ_flag
O1 C7 C8 C9 1.6(5) . . . . ?
O1 C7 C8 C13 179.93(18) . . . . ?
O2 N2 C4 C3 2.0(6) . . . . ?
O2 N2 C4 C5 -177.6(5) . . . . ?
O3 N2 C4 C3 -175.1(3) . . . . ?
O3 N2 C4 C5 5.2(5) . . . . ?
O4 N3A C10 C9 -160.9(6) . . . . ?
O4 N3A C10 C11 22.1(8) . . . . ?
O5A N3A C10 C9 10.0(8) . . . . ?
O5A N3A C10 C11 -167.0(4) . . . . ?
N2 C4 C5 C6 179.2(3) . . . . ?
N3A C10 C11 C12 174.0(4) . . . . ?
C1A C2 C3 C4 -179.2(4) . . . . ?
C1A C2 C14 C6 179.4(3) . . . . ?
C1A C2 C14 C13 -0.9(5) . . . . ?
C2 C3 C4 N2 -179.2(4) . . . . ?
C2 C3 C4 C5 0.4(6) . . . . ?
C3 C2 C14 C6 0.6(5) . . . . ?
C3 C2 C14 C13 -179.7(3) . . . . ?
C3 C4 C5 C6 -0.4(6) . . . . ?
C4 C5 C6 C7 -179.7(3) . . . . ?
C4 C5 C6 C14 0.5(4) . . . . ?
C5 C6 C7 O1 0.6(4) . . . . ?
C5 C6 C7 C8 -180.0(3) . . . . ?
C5 C6 C14 C2 -0.6(4) . . . . ?
C5 C6 C14 C13 179.6(3) . . . . ?
C6 C7 C8 C9 -177.8(4) . . . . ?
C6 C7 C8 C13 0.5(3) . . . . ?
C7 C6 C14 C2 179.6(3) . . . . ?
C7 C6 C14 C13 -0.2(3) . . . . ?
C7 C8 C9 C10 178.8(4) . . . . ?
C7 C8 C13 C12 179.4(2) . . . . ?
C7 C8 C13 C14 -0.6(2) . . . . ?
C8 C9 C10 N3A -175.1(5) . . . . ?
C8 C9 C10 C11 1.8(7) . . . . ?
C8 C13 C14 C2 -179.2(4) . . . . ?
C8 C13 C14 C6 0.5(2) . . . . ?
C9 C8 C13 C12 -2.1(4) . . . . ?
C9 C8 C13 C14 177.9(3) . . . . ?
C9 C10 C11 C12 -2.8(6) . . . . ?
C10 C11 C12 C13 1.4(5) . . . . ?
C11 C12 C13 C8 1.0(4) . . . . ?
C11 C12 C13 C14 -179.0(2) . . . . ?
C12 C13 C14 C2 0.8(5) . . . . ?
C12 C13 C14 C6 -179.5(3) . . . . ?
C13 C8 C9 C10 0.7(6) . . . . ?
C14 C2 C3 C4 -0.5(6) . . . . ?
C14 C6 C7 O1 -179.6(2) . . . . ?
C14 C6 C7 C8 -0.2(3) . . . . ?
