#------------------------------------------------------------------------------
#$Date: 2020-07-06 04:42:50 +0300 (Mon, 06 Jul 2020) $
#$Revision: 253771 $
#$URL: file:///home/coder/svn-repositories/cod/cif/7/12/65/7126557.cif $
#------------------------------------------------------------------------------
#
# This file is available in the Crystallography Open Database (COD),
# http://www.crystallography.net/
#
# All data on this site have been placed in the public domain by the
# contributors.
#
data_7126557
loop_
_publ_author_name
'Ai, Yong'
'Wu, Dong-Ji'
'Yang, Meng-Juan'
'Wang, Pan'
'He, Wen-Hui'
'Liao, Wei-Qiang'
_publ_section_title
;
 Highest-T<sub>c</sub> organic enantiomeric ferroelectrics obtained by F/H
 substitution.
;
_journal_issue                   51
_journal_name_full
'Chemical communications (Cambridge, England)'
_journal_page_first              7033
_journal_page_last               7036
_journal_paper_doi               10.1039/d0cc02547j
_journal_volume                  56
_journal_year                    2020
_chemical_absolute_configuration rm
_chemical_formula_moiety         'C6 H13 F N, I'
_chemical_formula_sum            'C6 H13 F I N'
_chemical_formula_weight         245.07
_space_group_crystal_system      monoclinic
_space_group_IT_number           4
_space_group_name_Hall           'P 2yb'
_space_group_name_H-M_alt        'P 1 21 1'
_atom_sites_solution_hydrogens   geom
_audit_creation_method           SHELXL-2014/7
_audit_update_record
;
2020-04-07 deposited with the CCDC.	2020-05-18 downloaded from the CCDC.
;
_cell_angle_alpha                90
_cell_angle_beta                 105.627(4)
_cell_angle_gamma                90
_cell_formula_units_Z            2
_cell_length_a                   5.9613(3)
_cell_length_b                   7.6228(3)
_cell_length_c                   10.1630(4)
_cell_measurement_reflns_used    3722
_cell_measurement_temperature    293(2)
_cell_measurement_theta_max      30.2280
_cell_measurement_theta_min      2.6700
_cell_volume                     444.75(3)
_computing_cell_refinement       'CrysAlisPro 1.171.39.46 (Rigaku OD, 2018)'
_computing_data_collection       'CrysAlisPro 1.171.39.46 (Rigaku OD, 2018)'
_computing_data_reduction        'CrysAlisPro 1.171.39.46 (Rigaku OD, 2018)'
_computing_molecular_graphics    'DIAMOND (Brandenburg & Putz, 2005)'
_computing_publication_material  'SHELXL-2014/7 (Sheldrick, 2014)'
_computing_structure_refinement  'SHELXL-2014/7 (Sheldrick, 2014)'
_computing_structure_solution    'SHELXL-2014/7 (Sheldrick, 2014)'
_diffrn_ambient_temperature      293(2)
_diffrn_measured_fraction_theta_full 0.998
_diffrn_measured_fraction_theta_max 0.997
_diffrn_measurement_device_type  'XtaLAB Synergy R, DW system, HyPix'
_diffrn_measurement_method       'four-circle diffractometer'
_diffrn_radiation_type           MoK\a
_diffrn_radiation_wavelength     0.71073
_diffrn_reflns_av_R_equivalents  0.0093
_diffrn_reflns_av_unetI/netI     0.0104
_diffrn_reflns_Laue_measured_fraction_full 0.998
_diffrn_reflns_Laue_measured_fraction_max 0.997
_diffrn_reflns_limit_h_max       7
_diffrn_reflns_limit_h_min       -6
_diffrn_reflns_limit_k_max       8
_diffrn_reflns_limit_k_min       -9
_diffrn_reflns_limit_l_max       12
_diffrn_reflns_limit_l_min       -12
_diffrn_reflns_number            3477
_diffrn_reflns_point_group_measured_fraction_full 0.998
_diffrn_reflns_point_group_measured_fraction_max 0.997
_diffrn_reflns_theta_full        25.242
_diffrn_reflns_theta_max         25.999
_diffrn_reflns_theta_min         3.388
_diffrn_source                   'Rotating-anode X-ray tube'
_exptl_absorpt_coefficient_mu    3.543
_exptl_absorpt_correction_T_max  0.475
_exptl_absorpt_correction_T_min  0.463
_exptl_absorpt_correction_type   multi-scan
_exptl_absorpt_process_details   'CrysAlisPro 1.171.39.46 (Rigaku OD, 2018)'
_exptl_crystal_colour            colourless
_exptl_crystal_density_diffrn    1.830
_exptl_crystal_description       block
_exptl_crystal_F_000             236
_exptl_crystal_size_max          0.220
_exptl_crystal_size_mid          0.210
_exptl_crystal_size_min          0.210
_refine_diff_density_max         0.258
_refine_diff_density_min         -1.085
_refine_diff_density_rms         0.100
_refine_ls_abs_structure_details
;
 Refined as an inversion twin.
;
_refine_ls_abs_structure_Flack   0.08(6)
_refine_ls_extinction_method     none
_refine_ls_goodness_of_fit_ref   1.004
_refine_ls_hydrogen_treatment    constr
_refine_ls_matrix_type           full
_refine_ls_number_parameters     85
_refine_ls_number_reflns         1748
_refine_ls_number_restraints     1
_refine_ls_restrained_S_all      1.003
_refine_ls_R_factor_all          0.0187
_refine_ls_R_factor_gt           0.0185
_refine_ls_shift/su_max          0.040
_refine_ls_shift/su_mean         0.007
_refine_ls_structure_factor_coef Fsqd
_refine_ls_weighting_details
'w=1/[\s^2^(Fo^2^)+(0.0279P)^2^+0.4091P] where P=(Fo^2^+2Fc^2^)/3'
_refine_ls_weighting_scheme      calc
_refine_ls_wR_factor_gt          0.0476
_refine_ls_wR_factor_ref         0.0477
_reflns_Friedel_coverage         0.852
_reflns_Friedel_fraction_full    0.999
_reflns_Friedel_fraction_max     0.998
_reflns_number_gt                1626
_reflns_number_total             1748
_reflns_threshold_expression     'I > 2\s(I)'
_cod_data_source_file            d0cc02547j2.cif
_cod_data_source_block           R_P21
_cod_depositor_comments
'Adding full bibliography for 7126557--7126560.cif.'
_cod_original_sg_symbol_H-M      'P 21'
_cod_database_code               7126557
_shelx_shelxl_version_number     2014/7
_shelx_space_group_comment
;
The symmetry employed for this shelxl refinement is uniquely defined
by the following loop, which should always be used as a source of
symmetry information in preference to the above space-group names.
They are only intended as comments.
;
_shelx_estimated_absorpt_t_min   0.510
_shelx_estimated_absorpt_t_max   0.523
_shelx_res_file
;

    R_P21.res created by SHELXL-2014/7

TITL P21 in P2(1)
CELL 0.71073   5.9613   7.6228  10.1630  90.000 105.627  90.000
ZERR    2.00   0.0003   0.0003   0.0004   0.000   0.004   0.000
LATT -1
SYMM -X, 0.5+Y, -Z
SFAC C  H  N  F  I
UNIT 12 26 2 2 2
OMIT 0 -2 0
OMIT   0.00  52.00
L.S. 4
ACTA
BOND
FMAP 2
PLAN 2
CONF
TWIN
SIZE 0.22 0.21 0.21
EQIV $1 -x+1, y-1/2, -z+1
HTAB C1 I1_$1
EQIV $2 x-1, y, z-1
HTAB C3 I1_$2
HTAB C3 I1_$1
EQIV $3 -x+1, y+1/2, -z+1
HTAB C5 I1_$3
HTAB C5 F1
HTAB C6 I1_$1
HTAB C6 I1_$3
TEMP 20
WGHT    0.027900    0.409100
BASF   0.08046
FVAR       0.32923
MOLE 1
I1    5    0.966337    0.121324    0.676385    11.00000    0.04100    0.03730 =
         0.04807    0.00189    0.01026    0.00299
N1    3    0.402565    0.130585    0.282054    11.00000    0.03010    0.03232 =
         0.03472    0.00503    0.00611    0.00356
F1    4    0.627788    0.005422    0.066395    11.00000    0.09315    0.09774 =
         0.07514    0.00929    0.05790    0.01139
C1    1    0.536595   -0.038200    0.281370    11.00000    0.03666    0.03609 =
         0.03782   -0.00008    0.01226    0.00390
AFIX  23
H1A   2    0.485056   -0.128515    0.333832    11.00000   -1.20000
H1B   2    0.702338   -0.019486    0.319673    11.00000   -1.20000
AFIX   0
C2    1    0.483207   -0.090293    0.130706    11.00000    0.07692    0.05104 =
         0.04421   -0.00349    0.02478    0.00309
AFIX  13
H2    2    0.499432   -0.217051    0.120042    11.00000   -1.20000
AFIX   0
C3    1    0.236304   -0.031722    0.073065    11.00000    0.07387    0.08101 =
         0.03369   -0.00512   -0.00112   -0.01592
AFIX  23
H3A   2    0.204845   -0.009127   -0.024137    11.00000   -1.20000
H3B   2    0.128970   -0.120828    0.087196    11.00000   -1.20000
AFIX   0
C4    1    0.211279    0.131879    0.147565    11.00000    0.04236    0.08570 =
         0.05082    0.00965   -0.00971    0.00590
AFIX  23
H4A   2    0.059195    0.135868    0.165008    11.00000   -1.20000
H4B   2    0.227469    0.233854    0.093769    11.00000   -1.20000
AFIX   0
C5    1    0.558824    0.285599    0.286557    11.00000    0.06575    0.04249 =
         0.08980    0.00373    0.02818   -0.01667
AFIX 137
H5A   2    0.469574    0.391609    0.280114    11.00000   -1.50000
H5B   2    0.627568    0.279597    0.211428    11.00000   -1.50000
H5C   2    0.679490    0.284952    0.371017    11.00000   -1.50000
AFIX   0
C6    1    0.304909    0.128365    0.402863    11.00000    0.06023    0.04688 =
         0.05265    0.00798    0.03166    0.00877
AFIX 137
H6A   2    0.196146    0.033336    0.393901    11.00000   -1.50000
H6B   2    0.226777    0.237351    0.407617    11.00000   -1.50000
H6C   2    0.429050    0.112981    0.484703    11.00000   -1.50000
AFIX   0
HKLF 4

REM  P21 in P2(1)
REM R1 =  0.0185 for    1626 Fo > 4sig(Fo)  and  0.0187 for all    1646 data
REM     85 parameters refined using      1 restraints

END

WGHT      0.0279      0.2012

REM Highest difference peak  0.258,  deepest hole -1.085,  1-sigma level  0.100
Q1    1   0.3171  0.5660  0.1612  11.00000  0.05    0.26
Q2    1   0.3146 -0.3362  0.1606  11.00000  0.05    0.25
;
_shelx_res_checksum              31150
_shelx_hkl_file
;
   0  -9   0    1.04    0.18
   0  -9  -1   26.61    0.79
   0  -9  -2   20.61    0.72
   0  -9  -3    2.20    0.27
   0  -8   0   75.64    0.88
   0  -8   0   77.14    1.22
   0  -8   1   13.14    0.34
   0  -8   1   13.50    0.50
   0  -8  -1   13.83    0.54
   0  -8   2   20.67    0.40
   0  -8  -2   21.29    0.69
   0  -8  -3   52.65    1.09
   0  -8  -4    3.33    0.30
   0  -8  -5   16.17    0.69
   0  -8  -5   17.76    0.69
   0  -8  -6   16.91    0.72
   0  -8  -6   17.85    0.72
   0  -7   0    0.01    0.09
   0  -7   0    0.02    0.06
   0  -7   1   54.56    0.93
   0  -7   1   53.29    0.67
   0  -7  -1   53.16    0.98
   0  -7  -1   52.83    0.75
   0  -7  -2   45.31    0.94
   0  -7   2   46.11    0.60
   0  -7  -3    1.42    0.20
   0  -7  -4   47.49    0.42
   0  -7  -4   49.43    0.44
   0  -7  -4   50.65    1.05
   0  -7  -4   46.12    1.03
   0  -7  -5   33.94    0.51
   0  -7  -5   34.28    0.90
   0  -7  -6    3.94    0.34
   0  -7  -6    3.71    0.21
   0  -6   0  289.49    2.13
   0  -6   0  295.39    1.72
   0  -6  -1   43.09    0.65
   0  -6  -1   42.59    0.80
   0  -6   1   42.09    0.75
   0  -6   1   42.61    0.57
   0  -6  -2   96.19    1.24
   0  -6  -2   91.61    1.03
   0  -6  -3  156.39    1.66
   0  -6  -3  154.45    0.78
   0  -6  -4    5.36    0.34
   0  -6  -4    5.37    0.19
   0  -6  -5   63.97    1.17
   0  -6  -5   66.36    0.82
   0  -6  -6   43.32    1.03
   0  -6  -6   46.53    0.72
   0  -6  -7    0.53    0.12
   0  -6  -8   23.98    0.62
   0  -6  -9    8.73    0.56
   0  -6  -9    9.03    0.42
   0  -6 -10    0.82    0.18
   0  -6 -11    5.13    0.37
   0  -5   0    0.16    0.08
   0  -5   0    0.24    0.06
   0  -5  -1  133.46    1.11
   0  -5   1  134.09    1.25
   0  -5  -1  134.71    1.31
   0  -5  -2  137.33    0.61
   0  -5  -2  136.89    1.37
   0  -5  -2  137.41    1.21
   0  -5  -2  139.88    0.64
   0  -5  -3    4.22    0.15
   0  -5  -3    4.45    0.14
   0  -5  -4  174.46    1.76
   0  -5   4  172.28    1.20
   0  -5  -4  175.53    1.16
   0  -5   5   50.24    0.69
   0  -5  -5   52.99    0.70
   0  -5  -5   51.08    0.98
   0  -5   6    3.34    0.21
   0  -5  -6    3.36    0.21
   0  -5  -7   84.40    1.08
   0  -5   7   83.02    1.06
   0  -5  -8   25.67    0.64
   0  -5  -8   24.36    0.85
   0  -5   8   25.36    0.61
   0  -5  -9    9.47    0.57
   0  -5  -9    9.56    0.43
   0  -5 -10   20.23    0.66
   0  -5 -10   20.00    0.86
   0  -5 -11    3.44    0.31
   0  -4   0  415.68    1.88
   0  -4  -1  146.37    1.09
   0  -4  -1  146.53    1.25
   0  -4   1  145.07    1.17
   0  -4  -2  187.91    0.88
   0  -4  -2  190.25    1.36
   0  -4   2  187.58    0.94
   0  -4  -2  190.50    1.52
   0  -4   3  242.14    1.31
   0  -4  -3  245.18    1.26
   0  -4  -3  239.76    1.82
   0  -4   4   30.60    0.48
   0  -4  -4   30.75    0.48
   0  -4  -4   31.23    0.68
   0  -4   5   90.06    0.94
   0  -4  -5   90.04    0.93
   0  -4  -6  150.74    1.35
   0  -4   6  147.61    1.33
   0  -4  -7    1.98    0.24
   0  -4   7    2.11    0.18
   0  -4  -7    2.71    0.21
   0  -4   8   32.15    0.69
   0  -4  -8   33.48    0.74
   0  -4  -8   32.17    0.95
   0  -4   9   29.49    0.70
   0  -4  -9   30.62    0.98
   0  -4  -9   32.35    0.78
   0  -4 -10    0.76    0.23
   0  -4 -10    0.36    0.15
   0  -4  11   13.83    0.48
   0  -4 -11   15.73    0.61
   0  -4 -11   15.09    0.77
   0  -4  12    3.89    0.28
   0  -3   0    0.05    0.04
   0  -3  -1  496.32    1.48
   0  -3  -1  492.39    2.27
   0  -3   1  498.46    2.16
   0  -3  -2  240.92    1.56
   0  -3  -2  238.65    1.46
   0  -3  -2  239.59    1.07
   0  -3  -3   12.02    0.36
   0  -3   3   12.72    0.27
   0  -3   4  489.47    2.26
   0  -3  -4  484.24    2.24
   0  -3  -5   91.49    0.96
   0  -3   5   88.64    0.93
   0  -3   6   28.05    0.56
   0  -3  -6   28.52    0.58
   0  -3  -6   26.71    0.71
   0  -3  -7  140.20    1.43
   0  -3   7  139.28    1.38
   0  -3  -8   34.83    0.95
   0  -3  -8   36.33    0.77
   0  -3   8   34.59    0.72
   0  -3  -9   17.93    0.58
   0  -3   9   17.54    0.53
   0  -3  -9   18.06    0.73
   0  -3 -10   30.14    0.81
   0  -3 -10   30.54    0.99
   0  -3 -11    3.83    0.33
   0  -3  11    3.75    0.28
   0  -3 -11    3.59    0.38
   0  -3 -12    4.42    0.43
   0  -3 -12    4.97    0.38
   0  -3  12    4.18    0.31
   0  -2   0  697.15    2.48
   0  -2  -1  286.05    0.99
   0  -2  -1  288.13    1.34
   0  -2   1  286.53    1.05
   0  -2  -1  285.91    1.42
   0  -2   2  267.54    1.22
   0  -2  -2  267.93    1.45
   0  -2  -3  508.20    2.10
   0  -2   3  509.59    2.13
   0  -2  -4   35.42    0.52
   0  -2   4   35.02    0.52
   0  -2  -5  149.83    1.27
   0  -2   5  149.33    1.22
   0  -2   6  201.23    1.57
   0  -2  -6  201.49    1.61
   0  -2   7    4.63    0.25
   0  -2  -7    2.88    0.22
   0  -2  -8   77.14    1.14
   0  -2   8   77.17    1.06
   0  -2  -9   32.54    0.79
   0  -2   9   32.22    0.71
   0  -2 -10    0.67    0.17
   0  -2  10    0.69    0.15
   0  -2  11   17.47    0.58
   0  -2 -11   19.52    0.69
   0  -2 -12    8.64    0.49
   0  -2  12    7.85    0.41
   0  -1   0    2.46    0.07
   0  -1   0    0.05    0.01
   0  -1  -1  150.48    0.79
   0  -1   1  149.06    0.65
   0  -1  -1  149.24    0.63
   0  -1  -1  149.28    0.78
   0  -1   2  595.46    2.11
   0  -1  -2  599.12    2.10
   0  -1  -3  119.34    0.87
   0  -1   3  119.28    0.86
   0  -1   4  330.84    1.76
   0  -1  -4  333.55    1.81
   0  -1   5  239.02    1.57
   0  -1  -5  246.70    1.66
   0  -1  -6   18.04    0.47
   0  -1   6   17.77    0.44
   0  -1  -7  211.91    1.80
   0  -1   7  212.56    1.73
   0  -1   8   64.40    0.96
   0  -1  -8   68.89    1.08
   0  -1  -9   14.64    0.53
   0  -1   9   13.74    0.47
   0  -1   9   14.36    0.49
   0  -1 -10   62.83    1.16
   0  -1  10   59.44    1.04
   0  -1  11    3.92    0.30
   0  -1 -11    3.97    0.33
   0  -1 -12    4.60    0.37
   0  -1  12    4.02    0.32
   0   0   2  476.77    1.79
   0   0  -2  479.28    1.80
   0   0   3  791.90    2.85
   0   0  -3  786.25    2.91
   0   0  -4   79.12    0.81
   0   0   4   80.10    0.78
   0   0   5  446.65    2.29
   0   0  -5  443.34    2.39
   0   0   6  142.89    1.27
   0   0  -6  145.19    1.37
   0   0  -7    4.69    0.27
   0   0   7    1.46    0.16
   0   0   8  102.70    1.30
   0   0  -8  103.34    1.33
   0   0   9   22.42    0.65
   0   0  -9   23.39    0.68
   0   0 -10    0.84    0.18
   0   0  10    0.51    0.16
   0   0  11   20.98    0.69
   0   0 -11   22.01    0.73
   0   0  12    5.72    0.39
   0   0 -12    6.24    0.43
   0   1   3  113.12    0.98
   0   1   4  352.38    2.08
   0   1   5  257.96    1.90
   0   1   6   20.57    0.55
   0   1   7  218.55    1.94
   0   1   7  203.92    1.69
   0   1   8   65.41    0.97
   0   1   8   72.00    1.15
   0   1   9   14.75    0.55
   0   1   9   14.63    0.49
   0   1  10   61.57    1.17
   0   1  11    4.14    0.34
   0   1  12    4.16    0.36
   0   2   1  290.62    1.02
   0   2  -1  290.18    1.04
   0   2   2  280.98    1.22
   0   2  -2  282.36    1.32
   0   2   3  501.69    2.07
   0   2  -3  494.87    2.13
   0   2   4   35.58    0.51
   0   2  -4   35.40    0.54
   0   2   5  147.22    1.20
   0   2  -5  144.87    1.27
   0   2   6  215.01    1.64
   0   2   6  210.57    1.93
   0   2  -7    2.47    0.21
   0   2   7    2.89    0.25
   0   2   8   76.34    1.06
   0   2  -8   78.25    1.17
   0   2   9   34.82    0.75
   0   2   9   35.26    0.90
   0   2  -9   36.17    0.85
   0   2  10    0.97    0.21
   0   2 -10    0.82    0.18
   0   2  11   18.87    0.71
   0   2 -11   19.71    0.70
   0   2 -12    7.58    0.48
   0   2  12    8.06    0.49
   0   3  -1  492.92    1.56
   0   3  -1  489.53    2.18
   0   3   2  236.54    1.09
   0   3  -2  237.73    1.12
   0   3  -2  240.11    1.38
   0   3   2  237.53    1.48
   0   3   3   11.47    0.25
   0   3   3   11.24    0.36
   0   3  -3   11.30    0.26
   0   3  -3   11.83    0.29
   0   3   4  482.40    2.24
   0   3  -4  477.01    2.31
   0   3   5   84.73    0.91
   0   3  -5   84.38    0.96
   0   3   6   26.71    0.55
   0   3  -6   27.09    0.59
   0   3  -7  142.96    1.50
   0   3   7  138.34    1.38
   0   3  -8   37.65    0.81
   0   3   8   35.54    0.72
   0   3  -9   18.84    0.62
   0   3   9   18.78    0.55
   0   3  10   29.02    0.88
   0   3 -10   29.42    0.83
   0   3  11    3.95    0.36
   0   3 -11    3.94    0.34
   0   4   0  419.76    2.18
   0   4  -1  142.95    1.16
   0   4  -2  193.61    1.36
   0   4  -2  193.05    1.39
   0   4  -2  190.18    0.95
   0   4  -3  244.04    1.58
   0   4  -3  241.31    1.34
   0   4   3  240.04    1.30
   0   4  -4   32.38    0.52
   0   4   4   32.95    0.72
   0   4  -4   32.44    0.56
   0   4   4   31.03    0.49
   0   4  -5   91.26    0.99
   0   4   5   91.15    1.30
   0   4  -5   90.09    1.00
   0   4   5   92.47    0.95
   0   4   6  146.81    1.76
   0   4  -6  145.38    1.32
   0   4  -6  146.41    1.41
   0   4   6  146.87    1.34
   0   4  -7    2.08    0.19
   0   4   7    1.83    0.17
   0   4   7    1.81    0.23
   0   4   8   32.31    0.91
   0   4  -8   32.94    0.77
   0   4   8   31.94    0.71
   0   4  -9   31.45    0.81
   0   4   9   30.70    0.72
   0   4 -10    0.40    0.15
   0   4 -11   17.42    0.68
   0   5   0    0.02    0.06
   0   5   1  134.45    1.28
   0   5  -1  136.82    1.27
   0   5  -2  142.51    1.29
   0   5  -2  137.75    0.66
   0   5  -3    4.10    0.15
   0   5  -3    4.48    0.23
   0   5  -3    4.10    0.14
   0   5  -4  176.28    1.48
   0   5  -4  170.28    1.24
   0   5  -5   53.13    0.77
   0   5   5   51.92    0.71
   0   5   6    3.44    0.22
   0   5  -6    3.49    0.22
   0   5  -6    3.70    0.23
   0   5   7   85.34    1.10
   0   5  -7   84.41    1.18
   0   5  -7   87.19    1.13
   0   5   7   83.86    1.48
   0   5  -8   26.72    0.71
   0   5  -8   25.67    0.62
   0   5   8   26.41    0.64
   0   5   8   25.94    0.87
   0   5   9    9.86    0.57
   0   5  -9    9.53    0.40
   0   5   9    9.59    0.42
   0   5  -9    9.47    0.45
   0   5 -10   21.85    0.73
   0   5  10   20.73    0.82
   0   5 -11    3.46    0.35
   0   6   0  305.55    2.15
   0   6  -1   44.14    0.78
   0   6   1   50.30    0.84
   0   6   2   97.19    1.19
   0   6  -2   96.02    1.16
   0   6  -3  153.94    0.84
   0   6  -3  159.42    1.51
   0   6  -4    4.68    0.26
   0   6  -4    5.29    0.20
   0   6  -4    4.87    0.17
   0   6  -4    4.83    0.28
   0   6  -5   62.62    0.99
   0   6  -5   65.19    0.74
   0   6  -5   62.56    0.82
   0   6  -6   45.07    0.82
   0   6  -6   46.81    0.72
   0   6  -6   44.21    0.76
   0   6  -7    0.54    0.13
   0   6  -7    0.73    0.14
   0   6  -8   23.28    0.67
   0   6  -8   23.08    0.62
   0   6  -9    8.70    0.45
   0   6 -10    0.44    0.17
   0   6 -11    5.10    0.40
   0   7   0    0.02    0.09
   0   7   1   56.21    0.97
   0   7  -1   55.93    0.95
   0   7   2   48.25    0.90
   0   7  -2   48.65    0.89
   0   7  -3    1.58    0.19
   0   7  -4   50.37    0.92
   0   7  -4   46.64    0.45
   0   7  -5   34.75    0.79
   0   7  -5   34.27    0.49
   0   7  -6    3.51    0.28
   0   7  -6    3.85    0.20
   0   7  -7   30.65    0.61
   0   7  -7   28.51    0.78
   0   7  -7   30.16    0.69
   0   7  -8   10.74    0.46
   0   7  -8   10.62    0.40
   0   7  -9    2.19    0.25
   0   7 -10   13.67    0.60
   0   8  -2   22.08    0.64
   0   8  -5   16.12    0.28
   0   8  -5   16.24    0.27
   1 -10   0   15.05    0.58
   1  -9  -4   19.65    0.74
   1  -9  -3    1.93    0.24
   1  -9  -2   13.65    0.57
   1  -9  -1   25.27    0.74
   1  -9   0    0.57    0.15
  -1  -9  -1   20.42    0.71
  -1  -9  -3    0.10    0.14
   1  -8  -5   25.89    0.81
   1  -8  -4    0.58    0.17
   1  -8  -3   35.58    0.91
  -1  -8   2   35.79    0.67
   1  -8  -2   35.25    0.86
  -1  -8   1    1.38    0.15
   1  -8  -1    1.98    0.22
  -1  -8   0   51.98    1.03
  -1  -8   0   53.22    0.86
   1  -8   0   52.75    0.98
   1  -8   1   24.33    0.64
  -1  -8  -1   24.77    0.60
  -1  -8  -2    6.75    0.34
  -1  -8  -2    6.59    0.38
  -1  -8  -3   40.60    0.97
  -1  -8  -3   38.17    0.98
  -1  -8  -3   37.56    0.79
  -1  -8  -4    9.67    0.53
  -1  -8  -4    9.05    0.48
  -1  -8  -5    9.88    0.53
  -1  -8  -5    9.99    0.56
  -1  -8  -6   22.06    0.85
  -1  -8  -6   22.85    0.86
   1  -7  -8    0.96    0.22
   1  -7  -7   31.65    0.61
   1  -7  -7   31.05    0.91
   1  -7  -6   19.11    0.42
  -1  -7   6   18.91    0.43
  -1  -7   5    7.32    0.24
   1  -7  -5    7.19    0.22
   1  -7  -4   79.25    1.30
   1  -7  -4   76.09    0.54
   1  -7  -4   78.17    0.60
   1  -7  -2   54.04    0.99
   1  -7  -1  111.14    1.38
   1  -7   0    1.46    0.17
  -1  -7   0    1.47    0.16
   1  -7   1   76.84    1.06
  -1  -7  -1   79.03    1.17
  -1  -7  -1   76.96    1.02
  -1  -7  -2   92.48    1.38
  -1  -7  -2   90.72    1.17
  -1  -7  -2   92.54    1.33
  -1  -7  -3    1.00    0.19
  -1  -7  -3    0.92    0.06
  -1  -7  -3    0.94    0.16
  -1  -7  -3    0.88    0.17
  -1  -7  -4   64.70    1.26
  -1  -7  -4   62.63    1.20
  -1  -7  -4   63.58    0.62
  -1  -7  -4   60.92    0.62
  -1  -7  -5   21.73    0.76
  -1  -7  -5   20.51    0.43
  -1  -7  -5   22.74    0.45
  -1  -7  -5   23.63    0.80
  -1  -7  -6    1.16    0.23
  -1  -7  -6    1.00    0.13
  -1  -7  -6    0.80    0.20
  -1  -7  -7   22.39    0.56
  -1  -7  -7   21.07    0.80
  -1  -7  -7   20.46    0.84
  -1  -7  -8    4.61    0.41
   1  -6 -10    0.27    0.18
  -1  -6   9   15.83    0.49
   1  -6  -9   15.52    0.69
   1  -6  -8   27.40    0.87
  -1  -6   8   28.06    0.62
   1  -6  -7    0.71    0.18
  -1  -6   7    0.70    0.12
  -1  -6   6   61.69    0.80
   1  -6  -5   48.86    0.63
  -1  -6   5   50.47    0.65
  -1  -6   4    4.76    0.18
   1  -6  -4    4.19    0.16
  -1  -6   3  112.82    0.74
   1  -6  -3  112.38    0.67
   1  -6  -1    2.17    0.19
  -1  -6   1    2.09    0.19
  -1  -6   0  104.56    1.12
  -1  -6   0  107.48    1.21
   1  -6   0  103.89    1.18
   1  -6   1   63.78    0.89
  -1  -6  -1   65.55    0.99
  -1  -6  -1   63.40    0.89
   1  -6   2   12.62    0.38
  -1  -6  -2   13.40    0.19
  -1  -6  -2   12.62    0.47
  -1  -6  -2   13.13    0.19
  -1  -6  -2   12.91    0.43
  -1  -6  -3   82.63    1.27
  -1  -6  -3   79.82    1.22
  -1  -6  -3   82.17    0.69
  -1  -6  -3   80.08    1.10
  -1  -6  -3   82.60    0.68
  -1  -6  -4   33.50    0.84
  -1  -6  -4   33.28    0.84
  -1  -6  -4   34.28    0.51
  -1  -6  -4   32.23    0.72
  -1  -6  -4   33.02    0.52
  -1  -6  -5   18.38    0.66
  -1  -6  -5   17.43    0.65
   1  -6   5   18.21    0.25
  -1  -6  -5   16.93    0.43
  -1  -6  -5   18.45    0.43
   1  -6   6   64.43    0.60
  -1  -6  -6   62.34    0.87
  -1  -6  -6   59.61    1.29
  -1  -6  -6   58.91    0.91
  -1  -6  -7    6.79    0.32
  -1  -6  -7    6.22    0.33
   1  -6   7    6.73    0.23
  -1  -6  -7    6.26    0.47
  -1  -6  -8   15.89    0.52
  -1  -6  -8   14.89    0.54
  -1  -6  -9   23.21    0.67
  -1  -6 -10    0.41    0.16
   1  -5 -11    0.29    0.19
   1  -5 -11    0.06    0.15
   1  -5 -10   18.69    0.75
   1  -5 -10   21.36    0.68
   1  -5  -9   19.83    0.74
  -1  -5   9   19.99    0.56
   1  -5  -9   21.13    0.63
   1  -5  -8    2.28    0.26
  -1  -5   8    2.62    0.21
   1  -5  -8    2.42    0.22
   1  -5  -7   71.67    1.26
  -1  -5   7   71.73    0.93
  -1  -5   6   63.72    0.81
   1  -5  -6   63.09    1.11
  -1  -5   5   42.03    0.60
  -1  -5   4  166.40    1.12
   1  -5  -3   46.22    0.82
  -1  -5   3   48.01    0.50
   1  -5  -3   46.18    0.48
   1  -5  -2  122.12    0.67
  -1  -5   2  122.65    0.69
   1  -5  -1  312.60    1.04
  -1  -5   1  312.30    1.03
   1  -5   0    1.86    0.15
  -1  -5   0    2.01    0.16
  -1  -5  -1  197.45    0.85
  -1  -5  -1  196.05    1.69
  -1  -5  -1  198.50    1.63
  -1  -5  -1  199.81    0.83
  -1  -5  -1  197.64    1.56
   1  -5   1  193.80    1.44
  -1  -5  -2  194.38    1.61
  -1  -5  -2  196.02    1.03
  -1  -5  -2  196.92    1.72
   1  -5   2  195.57    1.41
  -1  -5  -2  196.41    1.03
  -1  -5  -2  195.94    1.75
  -1  -5  -3    1.21    0.10
  -1  -5  -3    0.76    0.14
  -1  -5  -3    1.16    0.09
  -1  -5  -3    0.75    0.14
  -1  -5  -3    0.71    0.12
  -1  -5  -4  136.14    1.63
  -1  -5  -4  139.73    1.12
   1  -5   4  141.55    0.77
  -1  -5  -4  133.59    1.44
  -1  -5  -4  136.62    1.16
  -1  -5  -5   74.45    0.88
  -1  -5  -5   73.02    1.28
   1  -5   5   74.54    0.65
  -1  -5  -5   73.63    0.95
  -1  -5  -6    5.36    0.27
  -1  -5  -6    5.46    0.29
  -1  -5  -6    5.27    0.39
   1  -5   6    5.79    0.21
  -1  -5  -7   39.36    0.76
  -1  -5  -7   37.13    1.08
  -1  -5  -7   37.52    0.81
   1  -5   7   38.90    0.60
   1  -5   8   14.55    0.40
  -1  -5  -8   14.47    0.50
  -1  -5  -8   13.92    0.53
  -1  -5  -9    1.15    0.19
   1  -5   9    1.16    0.15
  -1  -5 -10   13.47    0.55
  -1  -5 -11    1.61    0.24
   1  -4 -12    3.77    0.35
   1  -4 -12    4.25    0.39
   1  -4 -11   14.38    0.60
   1  -4 -11   12.79    0.64
   1  -4 -10    1.35    0.24
   1  -4 -10    1.34    0.22
   1  -4  -9   24.28    0.68
   1  -4  -9   22.24    0.75
  -1  -4   9   22.54    0.58
  -1  -4   8   52.02    0.83
   1  -4  -8   50.40    1.07
   1  -4  -8   53.42    0.94
   1  -4  -7    0.88    0.14
  -1  -4   7    0.92    0.13
   1  -4  -7    0.92    0.17
   1  -4  -6   87.04    1.02
   1  -4  -6   85.03    1.22
   1  -4  -5  150.35    1.55
  -1  -4   5  153.77    1.18
  -1  -4   4    1.76    0.12
  -1  -4   3  292.58    1.41
   1  -4  -3  292.44    1.43
  -1  -4   2  207.55    1.00
   1  -4  -2  204.28    1.57
   1  -4  -2  206.54    1.00
  -1  -4   1    1.65    0.07
   1  -4  -1    1.64    0.07
   1  -4   0  363.85    1.34
   1  -4   0  362.74    1.93
  -1  -4   0  362.69    1.99
  -1  -4   0  362.25    2.14
  -1  -4   0  369.12    1.28
  -1  -4  -1  197.19    0.93
   1  -4   1  193.49    1.29
  -1  -4  -1  194.02    0.95
  -1  -4  -1  197.44    1.49
  -1  -4  -2   47.20    0.73
   1  -4   2   45.27    0.57
  -1  -4  -2   45.88    0.74
  -1  -4  -2   46.92    0.49
  -1  -4  -2   46.28    0.75
  -1  -4  -3  268.73    1.91
  -1  -4  -3  263.44    1.47
  -1  -4  -3  269.91    2.08
  -1  -4  -3  269.09    1.53
  -1  -4  -4   46.08    0.90
  -1  -4  -4   46.50    0.67
  -1  -4  -4   46.49    0.64
  -1  -4  -4   44.88    0.79
  -1  -4  -5   58.41    1.11
  -1  -4  -5   55.92    0.77
  -1  -4  -5   55.38    0.81
   1  -4   5   57.97    0.64
  -1  -4  -6  126.02    1.80
   1  -4   6  129.97    1.10
  -1  -4  -6  125.48    1.36
  -1  -4  -6  127.18    1.29
   1  -4   7    8.57    0.30
  -1  -4  -7    8.98    0.37
  -1  -4  -7    8.01    0.37
   1  -4   8   46.38    0.76
  -1  -4  -8   46.72    0.93
  -1  -4  -8   45.73    0.89
  -1  -4  -9   26.49    0.71
  -1  -4  -9   26.35    1.00
   1  -4   9   25.78    0.60
   1  -4  10    0.69    0.14
  -1  -4 -10    0.59    0.17
  -1  -4 -10    0.91    0.26
   1  -4  11    8.25    0.39
  -1  -4 -11    9.05    0.47
   1  -3 -13    5.81    0.45
   1  -3 -12    8.63    0.52
   1  -3 -12    9.35    0.52
   1  -3 -11    1.51    0.23
   1  -3 -11    1.77    0.26
   1  -3 -10   32.83    0.92
   1  -3 -10   38.39    0.90
  -1  -3   9   42.13    0.79
   1  -3  -9   44.10    0.92
   1  -3  -9   42.12    0.99
   1  -3  -8   10.78    0.48
  -1  -3   8   10.68    0.38
   1  -3  -8   11.15    0.43
  -1  -3   7  182.34    1.50
   1  -3  -7  183.32    1.64
  -1  -3   6   56.32    0.75
   1  -3  -6   53.99    0.91
   1  -3  -6   56.54    0.81
  -1  -3   5   77.53    0.82
   1  -3  -5   75.50    0.86
  -1  -3   4  297.14    1.57
   1  -3  -4  294.15    1.64
  -1  -3   3   59.52    0.56
  -1  -3   2  372.56    1.50
   1  -3  -2  371.79    1.52
  -1  -3   1  309.39    1.52
   1  -3  -1  308.24    1.21
   1  -3   0    8.75    0.16
  -1  -3   0    9.46    0.25
  -1  -3   0    8.90    0.27
  -1  -3   0    8.88    0.16
  -1  -3  -1  275.76    1.22
  -1  -3  -1  273.87    1.65
   1  -3   1  273.77    1.37
  -1  -3  -1  273.94    1.66
  -1  -3  -1  275.35    1.24
  -1  -3  -2  334.70    2.03
  -1  -3  -2  331.97    1.95
  -1  -3  -2  335.71    1.56
   1  -3   2  331.38    1.10
  -1  -3  -3    0.45    0.07
   1  -3   3    0.59    0.05
  -1  -3  -3    0.42    0.07
   1  -3   4  203.69    1.20
  -1  -3  -4  201.08    1.42
   1  -3   5  143.69    1.11
  -1  -3  -5  143.35    1.29
   1  -3   6    2.98    0.18
  -1  -3  -6    2.70    0.20
   1  -3   7   61.49    0.85
  -1  -3  -7   61.37    0.95
   1  -3   8   41.78    0.75
  -1  -3  -8   44.14    0.86
   1  -3   9    2.79    0.23
  -1  -3  -9    2.88    0.26
  -1  -3 -10   21.92    0.69
   1  -3  10   20.72    0.61
  -1  -3 -11    4.29    0.35
   1  -3  11    4.13    0.30
   1  -3  12    0.92    0.19
   1  -2 -13    1.15    0.24
   1  -2 -12    4.57    0.37
   1  -2 -12    3.59    0.35
   1  -2 -11   24.90    0.81
   1  -2 -11   28.31    0.83
   1  -2 -10    1.69    0.23
   1  -2 -10    2.12    0.25
   1  -2  -9   47.12    1.00
  -1  -2   9   47.81    0.84
   1  -2  -8   61.26    1.01
  -1  -2   8   59.01    0.88
   1  -2  -7    3.41    0.23
   1  -2  -7    3.21    0.24
  -1  -2   7    3.30    0.20
  -1  -2   6  181.29    1.38
   1  -2  -6  184.93    1.53
   1  -2  -5  301.25    1.95
   1  -2  -5  303.81    1.84
  -1  -2   5  301.84    1.71
  -1  -2   4   25.09    0.41
   1  -2  -4   24.80    0.43
   1  -2  -4   24.36    0.47
  -1  -2   3  395.96    1.71
   1  -2  -2  533.47    1.96
  -1  -2   2  532.33    1.93
  -1  -2   1   18.86    0.25
   1  -2  -1   16.50    0.23
   1  -2   0  719.13    2.28
  -1  -2   0  712.86    2.28
  -1  -2  -1  357.96    1.71
   1  -2   1  358.71    1.37
   1  -2   1  359.70    1.46
  -1  -2  -1  360.79    1.48
  -1  -2  -2   93.37    0.74
  -1  -2  -2   94.76    0.74
  -1  -2  -2   90.67    0.88
   1  -2   2   90.94    0.56
   1  -2   3  403.50    1.74
  -1  -2  -3  398.78    2.19
  -1  -2  -3  404.73    1.97
  -1  -2  -3  404.32    1.97
  -1  -2  -4   82.98    0.98
  -1  -2  -4   86.13    0.89
   1  -2   5   86.01    1.00
  -1  -2  -5   88.27    0.99
   1  -2   6  237.34    1.71
   1  -2   6  232.24    1.82
  -1  -2  -6  232.94    1.81
   1  -2   7    7.63    0.32
   1  -2   7    8.02    0.35
   1  -2   8   58.82    0.93
  -1  -2  -8   60.17    1.02
   1  -2   8   59.70    0.99
  -1  -2  -9   50.19    0.98
   1  -2   9   49.63    0.91
   1  -2  10    1.11    0.18
  -1  -2 -10    1.34    0.21
   1  -2  11   14.47    0.55
  -1  -2 -11   16.18    0.63
   1  -2  12    7.06    0.41
   1  -1 -14    0.14    0.16
   1  -1 -13    5.57    0.41
   1  -1 -12    9.62    0.52
   1  -1 -11    0.79    0.20
   1  -1 -10   39.62    0.93
   1  -1  -9   60.21    1.08
  -1  -1   9   55.27    0.88
  -1  -1   8    2.98    0.21
   1  -1  -8    3.06    0.24
  -1  -1   7  234.31    1.71
   1  -1  -7  237.21    1.90
  -1  -1   6  130.13    1.15
   1  -1  -6  130.73    1.27
  -1  -1   5   30.24    0.49
   1  -1  -5   29.55    0.54
   1  -1  -4  613.22    2.62
  -1  -1   4  611.97    2.49
   1  -1  -4  605.31    2.56
   1  -1  -3  186.01    1.12
  -1  -1   3  184.79    1.06
   1  -1  -3  185.04    1.08
  -1  -1   2  459.30    1.75
  -1  -1   1  990.30    3.03
   1  -1  -1  994.59    3.04
  -1  -1   1 1000.00    2.78
  -1  -1   0    1.40    0.07
  -1  -1   0    1.44    0.07
  -1  -1  -1  792.92    2.63
   1  -1   1  798.84    2.63
  -1  -1  -1  792.40    2.66
  -1  -1  -2  598.11    2.39
  -1  -1  -2  602.06    2.34
   1  -1   2  603.07    2.19
   1  -1   3    6.48    0.21
  -1  -1  -3    8.48    0.25
  -1  -1  -4  532.66    2.58
   1  -1   4  533.22    2.52
   1  -1   4  536.78    2.60
   1  -1   5  150.01    1.34
   1  -1   5  154.74    1.32
  -1  -1  -5  153.15    1.36
  -1  -1  -6   13.60    0.43
   1  -1   6   13.11    0.42
   1  -1   6   13.23    0.41
   1  -1   7   93.09    1.18
  -1  -1  -7   97.04    1.22
   1  -1   7   94.75    1.18
   1  -1   8   33.82    0.74
  -1  -1  -8   33.28    0.76
   1  -1   8   34.59    0.75
  -1  -1  -9    4.56    0.32
   1  -1   9    4.50    0.31
   1  -1  10   23.65    0.69
  -1  -1 -10   25.98    0.76
  -1  -1 -11    3.75    0.33
   1  -1  11    3.39    0.30
   1  -1  12    1.76    0.24
  -1   0  12    7.89    0.44
   1   0 -12    8.90    0.50
   1   0 -11   36.79    0.97
   1   0 -10    1.95    0.24
   1   0  -9   71.61    1.18
  -1   0   9   63.06    0.94
   1   0  -8   92.19    1.25
  -1   0   8   86.55    1.07
  -1   0   7    4.63    0.23
   1   0  -7    4.59    0.26
   1   0  -6  247.84    1.80
  -1   0   6  242.51    1.61
  -1   0   5  182.85    1.27
   1   0  -5  184.99    1.42
  -1   0   4   45.82    0.55
   1   0  -4   46.13    0.60
  -1   0   3  541.23    2.13
   1   0  -3  546.42    2.21
   1   0  -2  277.90    0.96
  -1   0   2  276.48    1.23
  -1   0   1   12.99    0.20
   1   0  -1   12.77    0.20
  -1   0   0  180.47    0.85
   1   0   0  180.13    0.85
   1   0   1  563.60    2.02
  -1   0  -1  564.78    2.04
  -1   0  -2   51.36    0.55
   1   0   2   51.29    0.56
  -1   0  -2   51.35    0.53
   1   0   3  310.62    1.74
  -1   0  -3  304.76    1.69
   1   0   4   94.79    0.99
   1   0   4   95.44    0.97
  -1   0  -4   95.77    0.97
   1   0   5   22.87    0.51
  -1   0  -5   24.20    0.53
   1   0   6  301.78    2.24
  -1   0  -6  303.18    2.14
   1   0   7   24.12    0.63
  -1   0  -7   23.43    0.61
   1   0   7   22.07    0.57
   1   0   8   65.70    1.10
  -1   0  -8   65.37    1.07
  -1   0  -9   80.10    1.27
   1   0   9   73.39    1.22
   1   0  10    0.72    0.18
  -1   0 -10    0.48    0.16
  -1   0 -11   13.68    0.58
   1   0  11   12.40    0.56
   1   0  12   15.28    0.63
  -1   1  12    8.20    0.46
  -1   1  11    0.88    0.19
  -1   1   9   55.92    0.89
  -1   1   8    3.20    0.22
  -1   1   2  468.19    1.75
  -1   1   1  996.35    3.08
  -1   1  -1  796.97    2.43
   1   1   3    6.08    0.24
   1   1   4  537.07    2.81
   1   1   5  148.00    1.46
   1   1   6   12.78    0.45
   1   1   7   93.29    1.30
   1   1   7   90.48    1.17
   1   1   8   34.07    0.75
   1   1   8   34.68    0.83
   1   1   9    6.34    0.35
   1   1   9    4.45    0.33
   1   1  10   23.90    0.76
   1   1  11    3.39    0.32
   1   2 -12    4.80    0.39
  -1   2  12    4.24    0.35
  -1   2  11   26.30    0.80
   1   2 -11   28.01    0.84
  -1   2  10    2.91    0.28
   1   2 -10    2.51    0.27
  -1   2   9   50.26    1.02
  -1   2   9   46.24    0.83
   1   2  -8   58.81    1.01
  -1   2   8   58.41    0.87
   1   2  -7    2.82    0.22
  -1   2   7    3.43    0.20
  -1   2   6  179.79    1.36
   1   2  -6  173.62    1.52
   1   2  -5  309.91    1.90
  -1   2   5  303.25    1.71
  -1   2   4   24.50    0.40
   1   2  -4   24.66    0.44
  -1   2   3  403.48    1.89
  -1   2   3  399.78    1.71
   1   2  -2  525.86    1.82
  -1   2   2  528.59    1.93
   1   2  -1   12.73    0.27
  -1   2   1   12.59    0.19
   1   2  -1   12.54    0.19
   1   2  -1   13.24    0.22
  -1   2   1   12.44    0.26
  -1   2   0  726.60    2.31
   1   2   0  708.01    2.28
  -1   2  -1  352.08    1.48
   1   2   1  354.20    1.44
  -1   2  -2   95.12    0.58
  -1   2  -2   92.39    0.77
  -1   2  -2   93.57    0.74
  -1   2  -3  397.24    1.93
  -1   2  -3  403.85    1.55
  -1   2  -3  398.55    2.01
   1   2   4   88.01    1.11
  -1   2  -4   86.33    0.92
   1   2   5   85.20    1.18
   1   2   5   86.44    0.99
   1   2   6  230.39    1.82
   1   2   6  230.03    2.10
  -1   2  -6  234.88    1.87
   1   2   7    6.98    0.38
   1   2   7    6.91    0.33
  -1   2  -7    7.00    0.34
   1   2   8   59.06    1.14
  -1   2  -8   60.44    1.05
  -1   2  -9   49.43    1.00
   1   2   9   48.17    1.08
  -1   2 -10    1.28    0.21
   1   2  10    1.05    0.22
  -1   2 -11   16.13    0.64
   1   2  11   15.59    0.67
   1   3 -12    9.77    0.55
   1   3 -11    1.52    0.24
   1   3 -10   38.16    0.93
   1   3  -9   43.98    0.95
  -1   3   9   44.62    0.80
   1   3  -8   11.55    0.46
  -1   3   8   11.98    0.51
  -1   3   8   10.86    0.38
   1   3  -7  180.89    1.69
  -1   3   7  183.34    1.50
   1   3  -6   57.99    0.85
  -1   3   6   57.75    0.76
   1   3  -5   78.39    0.90
  -1   3   5   80.23    0.83
  -1   3   4  291.87    1.54
  -1   3   4  289.59    2.06
   1   3  -4  291.59    1.68
  -1   3   3   59.33    0.55
   1   3  -3   60.01    0.58
  -1   3   3   61.31    0.74
  -1   3   2  372.21    1.93
   1   3  -2  366.51    1.54
   1   3  -2  370.09    1.67
   1   3  -2  372.04    1.95
  -1   3   2  368.32    1.90
  -1   3   2  369.38    1.47
  -1   3   1  320.74    1.42
   1   3  -1  317.11    1.22
   1   3  -1  317.74    1.56
   1   3   0    6.61    0.13
  -1   3   0    6.76    0.14
  -1   3  -1  275.30    1.29
  -1   3  -1  275.85    1.24
  -1   3  -2  335.25    1.56
  -1   3  -2  328.39    1.62
  -1   3  -3    0.41    0.06
  -1   3  -3    0.36    0.06
  -1   3  -3    0.29    0.06
  -1   3  -4  202.53    1.41
  -1   3  -4  201.01    1.19
  -1   3  -4  203.85    1.49
  -1   3  -5  147.72    1.36
  -1   3  -5  142.71    1.04
  -1   3  -6    2.99    0.22
  -1   3  -7   61.53    0.99
   1   3   7   59.30    1.17
  -1   3  -8   42.95    0.89
   1   3   8   42.14    1.03
  -1   3  -9    2.79    0.27
   1   3   9    2.53    0.30
   1   3  10   22.47    0.81
  -1   3 -10   22.85    0.73
  -1   3 -11    4.40    0.36
   1   3  11    3.67    0.36
   1   4 -12    3.86    0.37
   1   4 -11   14.40    0.63
  -1   4  11   13.27    0.62
   1   4 -10    1.52    0.23
  -1   4  10    1.87    0.27
  -1   4   9   26.53    0.83
   1   4  -9   24.59    0.71
   1   4  -8   54.36    0.99
  -1   4   8   53.74    0.85
  -1   4   7    0.90    0.18
  -1   4   7    0.66    0.12
  -1   4   6   89.97    1.34
   1   4  -6   88.38    1.07
  -1   4   6   89.63    0.96
  -1   4   5  148.51    1.65
   1   4  -5  151.44    1.29
   1   4  -5  154.48    1.44
  -1   4   5  156.40    1.18
  -1   4   4    1.04    0.12
  -1   4   4    0.91    0.09
   1   4  -4    1.11    0.13
  -1   4   4    0.97    0.14
   1   4  -4    0.94    0.10
  -1   4   3  295.93    1.98
   1   4  -3  296.10    1.91
   1   4  -3  294.26    1.65
  -1   4   3  301.15    1.92
  -1   4   3  294.93    1.39
  -1   4   2  204.16    1.39
  -1   4   2  207.59    1.52
   1   4  -2  204.28    1.01
  -1   4   2  205.41    0.97
   1   4  -2  204.44    1.34
   1   4  -1    0.97    0.11
   1   4  -1    0.78    0.09
   1   4  -1    0.97    0.05
   1   4   0  366.50    1.97
  -1   4   0  361.90    1.34
  -1   4  -1  196.97    0.98
  -1   4  -1  194.14    1.02
  -1   4  -2   46.12    0.53
  -1   4  -2   47.19    0.50
  -1   4  -3  268.17    1.57
  -1   4  -3  265.71    1.48
  -1   4  -4   45.42    0.63
  -1   4  -4   47.16    0.69
  -1   4  -4   47.52    0.62
  -1   4  -5   56.21    0.77
  -1   4  -5   58.20    0.70
  -1   4  -5   56.46    0.82
  -1   4  -6  127.68    1.36
  -1   4  -6  128.41    1.12
  -1   4  -6  131.65    1.33
  -1   4  -7   10.02    0.41
  -1   4  -7    9.04    0.37
  -1   4  -7    8.90    0.30
  -1   4  -8   49.37    0.97
  -1   4  -8   48.00    0.90
  -1   4  -8   47.39    0.72
  -1   4  -9   28.66    0.78
  -1   4  -9   27.28    0.57
  -1   4 -10    0.52    0.17
  -1   4 -11    9.16    0.50
   1   5 -11   -0.01    0.17
  -1   5  10   21.34    0.82
   1   5 -10   20.14    0.70
  -1   5   9   21.33    0.78
   1   5  -9   20.75    0.66
   1   5  -9   19.75    0.61
  -1   5   9   20.74    0.57
  -1   5   8    2.64    0.30
   1   5  -8    2.27    0.22
  -1   5   8    2.61    0.21
   1   5  -8    2.57    0.24
   1   5  -7   71.74    1.06
   1   5  -7   69.49    1.08
  -1   5   7   71.80    1.33
  -1   5   7   72.95    0.94
  -1   5   6   62.84    1.18
  -1   5   6   64.20    0.82
   1   5  -6   63.33    0.99
  -1   5   5   39.91    0.87
   1   5  -5   39.95    0.76
   1   5  -5   39.47    0.66
  -1   5   5   39.89    0.58
  -1   5   4  166.31    1.53
   1   5  -4  170.02    1.55
   1   5  -4  167.98    1.36
  -1   5   4  168.42    1.12
  -1   5   3   48.43    0.80
   1   5  -3   48.10    0.79
   1   5  -3   47.29    0.50
  -1   5   3   47.67    0.49
   1   5  -2  123.91    0.66
   1   5  -2  125.35    1.15
  -1   5   2  122.88    1.25
   1   5  -2  125.58    1.25
  -1   5   2  122.63    0.66
   1   5  -1  322.27    1.98
  -1   5   0    1.42    0.05
   1   5   0    1.10    0.13
  -1   5  -1  196.86    0.91
  -1   5  -1  192.82    0.96
  -1   5  -2  194.00    1.15
  -1   5  -2  197.12    1.63
  -1   5  -2  194.08    1.07
  -1   5  -3    1.38    0.12
  -1   5  -3    0.70    0.08
  -1   5  -4  135.25    1.11
  -1   5  -4  137.39    1.20
  -1   5  -5   70.55    0.87
  -1   5  -5   73.03    0.95
  -1   5  -5   73.57    0.87
  -1   5  -6    5.20    0.27
  -1   5  -6    5.97    0.30
  -1   5  -6    5.52    0.25
  -1   5  -7   39.76    0.78
  -1   5  -7   39.57    0.68
  -1   5  -7   39.52    0.82
  -1   5  -8   13.69    0.41
  -1   5  -8   14.14    0.53
  -1   5  -8   13.20    0.49
  -1   5  -9    1.14    0.20
  -1   5 -10   13.50    0.58
  -1   6  10    0.07    0.18
  -1   6   9   16.34    0.51
  -1   6   9   16.70    0.75
  -1   6   8   26.95    0.91
  -1   6   8   27.47    0.62
   1   6  -8   26.94    0.73
   1   6  -7    1.34    0.16
  -1   6   7    0.57    0.19
   1   6  -7    0.72    0.15
  -1   6   7    1.39    0.15
  -1   6   6   61.07    1.22
   1   6  -6   58.65    0.92
   1   6  -6   61.27    1.03
  -1   6   6   61.42    0.81
   1   6  -5   51.60    0.82
  -1   6   5   49.72    0.66
   1   6  -4    4.62    0.25
   1   6  -4    4.63    0.28
   1   6  -4    4.75    0.18
  -1   6   4    4.30    0.17
  -1   6   4    4.49    0.27
  -1   6   3  109.82    0.67
   1   6  -3  112.69    1.29
   1   6  -3  112.23    0.69
  -1   6   3  113.02    1.32
   1   6  -2   58.80    0.87
   1   6  -1    2.02    0.17
   1   6   0  110.88    1.22
  -1   6   0  107.81    1.27
  -1   6  -1   64.87    0.97
  -1   6  -2   12.85    0.44
  -1   6  -2   12.73    0.22
  -1   6  -2   12.43    0.23
  -1   6  -3   79.03    0.77
  -1   6  -3   77.77    1.12
  -1   6  -3   77.83    0.69
  -1   6  -4   33.70    0.57
  -1   6  -4   32.16    0.50
  -1   6  -5   17.47    0.41
  -1   6  -5   17.82    0.47
  -1   6  -6   62.78    0.97
  -1   6  -6   60.91    0.86
  -1   6  -7    6.86    0.36
  -1   6  -7    6.59    0.32
  -1   6  -8   15.35    0.52
  -1   6  -8   16.25    0.57
  -1   6  -9   24.41    0.74
  -1   6 -10    0.29    0.16
   1   7  -8    0.78    0.16
  -1   7   8    1.00    0.15
  -1   7   7   32.86    0.64
   1   7  -7   31.75    0.74
   1   7  -6   18.23    0.43
   1   7  -6   18.88    0.56
  -1   7   6   18.14    0.43
   1   7  -5    6.91    0.34
   1   7  -5    7.02    0.37
   1   7  -5    7.25    0.23
   1   7  -4   80.66    0.59
   1   7  -4   80.18    1.11
   1   7  -3   22.51    0.59
   1   7  -2   58.84    0.94
  -1   7   1  116.81    1.43
   1   7  -1  115.65    1.34
   1   7   0    1.53    0.18
  -1   7   0    1.48    0.18
  -1   7  -1   80.04    1.18
  -1   7  -2   91.42    1.26
  -1   7  -3    0.87    0.07
  -1   7  -3    0.98    0.17
  -1   7  -3    0.89    0.07
  -1   7  -4   61.12    0.65
  -1   7  -4   61.08    1.08
  -1   7  -4   60.37    0.71
  -1   7  -5   19.80    0.41
  -1   7  -5   21.56    0.50
  -1   7  -6    0.84    0.12
  -1   7  -6    0.91    0.14
  -1   7  -7   19.87    0.53
  -1   7  -7   20.31    0.60
  -1   7  -8    5.34    0.34
  -1   7  -9    1.22    0.21
  -1   7 -10    4.89    0.39
   1   8  -7    0.31    0.13
   1   8  -7    0.06    0.08
   1   8  -6   17.86    0.59
   1   8  -6   16.45    0.35
   1   8  -5   24.66    0.29
   1   8  -5   25.20    0.68
   1   8  -4    0.50    0.14
   1   8  -3   40.11    0.85
   1   8  -2   38.39    0.84
   1   8  -1    1.34    0.18
  -1   8  -4    8.20    0.18
  -1   8  -6   20.76    0.51
   2 -10   0   10.99    0.48
   2  -9  -4   17.18    0.68
   2  -9  -3   11.23    0.53
   2  -9  -2    5.56    0.36
   2  -9  -1   32.54    0.80
   2  -9   0    8.11    0.40
   2  -9   1   10.60    0.43
  -2  -9  -2   32.35    0.87
  -2  -9  -3    1.19    0.22
   2  -8  -3   31.12    0.82
   2  -8  -2   28.46    0.75
   2  -8  -1    0.40    0.13
   2  -8   0   32.09    0.73
  -2  -8   0   31.56    0.74
  -2  -8  -1   23.15    0.73
  -2  -8  -1   22.33    0.67
   2  -8   1   21.83    0.58
  -2  -8  -1   21.33    0.61
  -2  -8  -2    3.90    0.31
  -2  -8  -2    3.98    0.33
  -2  -8  -3   28.06    0.82
  -2  -8  -3   29.92    0.90
  -2  -8  -4    8.41    0.49
  -2  -8  -4    8.82    0.51
  -2  -8  -5    3.16    0.34
  -2  -8  -5    2.78    0.32
   2  -7  -9    7.80    0.50
   2  -7  -8    0.77    0.20
   2  -7  -8    0.86    0.14
   2  -7  -7   21.82    0.75
   2  -7  -7   21.88    0.52
  -2  -7   6   16.04    0.39
   2  -7  -6   16.22    0.40
   2  -7  -5    9.49    0.27
  -2  -7   5    9.91    0.28
   2  -7  -4   50.95    0.55
  -2  -7   4   51.50    0.56
   2  -7  -3   13.71    0.23
  -2  -7   3   14.36    0.25
   2  -7  -2   11.32    0.44
  -2  -7   2   11.85    0.17
   2  -7  -1   92.09    1.21
  -2  -7   0   14.89    0.49
   2  -7   0   14.21    0.45
  -2  -7  -1   25.59    0.66
   2  -7   1   24.79    0.57
  -2  -7  -1   26.18    0.72
  -2  -7  -1   25.70    0.27
  -2  -7  -1   25.00    0.64
  -2  -7  -2   57.53    0.54
  -2  -7  -2   57.19    1.11
  -2  -7  -2   55.40    0.99
  -2  -7  -2   56.09    0.52
  -2  -7  -2   56.91    1.06
  -2  -7  -3   10.08    0.44
  -2  -7  -3   10.96    0.28
  -2  -7  -3   10.33    0.27
  -2  -7  -3   10.47    0.49
  -2  -7  -3   10.58    0.50
  -2  -7  -4   24.71    0.48
  -2  -7  -4   22.04    0.45
  -2  -7  -4   24.34    0.78
  -2  -7  -4   22.86    0.77
  -2  -7  -5   34.63    0.63
  -2  -7  -5   34.62    0.97
  -2  -7  -5   32.44    0.97
  -2  -7  -6    0.28    0.18
  -2  -7  -6    0.53    0.12
  -2  -7  -6    0.28    0.17
  -2  -7  -7   13.47    0.66
   2  -6 -10    4.01    0.36
   2  -6  -9    6.51    0.43
  -2  -6   9    7.22    0.33
   2  -6  -8   34.90    0.94
   2  -6  -8   37.10    0.77
  -2  -6   8   35.70    0.68
   2  -6  -7   10.54    0.38
   2  -6  -7   11.05    0.52
  -2  -6   7   10.90    0.36
   2  -6  -6   29.61    0.79
   2  -6  -6   28.22    0.56
  -2  -6   6   29.54    0.54
  -2  -6   5  106.07    0.96
   2  -6  -5  105.00    1.43
  -2  -6   4   10.32    0.27
   2  -6  -4    9.97    0.27
  -2  -6   3   87.72    0.72
   2  -6  -3   86.09    0.74
   2  -6  -2  122.08    0.81
  -2  -6   2  120.70    0.78
   2  -6  -1    1.47    0.16
   2  -6  -1    1.44    0.09
  -2  -6   1    1.44    0.08
  -2  -6   0  116.39    1.27
   2  -6   0  117.59    1.21
  -2  -6   0  117.30    1.41
  -2  -6   0  117.01    0.77
  -2  -6  -1   77.86    1.10
   2  -6   1   74.77    0.91
  -2  -6  -1   76.97    1.09
  -2  -6  -1   78.04    0.64
  -2  -6  -1   77.68    0.67
  -2  -6  -1   77.49    1.17
  -2  -6  -2   16.63    0.33
  -2  -6  -2   16.52    0.54
  -2  -6  -2   16.38    0.52
   2  -6   2   16.36    0.40
  -2  -6  -2   17.00    0.57
  -2  -6  -2   16.56    0.33
  -2  -6  -3  103.82    1.36
  -2  -6  -3  100.49    1.43
  -2  -6  -3   99.85    0.93
  -2  -6  -3  105.48    1.46
  -2  -6  -3  103.52    0.94
  -2  -6  -4   17.56    0.57
  -2  -6  -4   19.53    0.44
  -2  -6  -4   18.06    0.66
  -2  -6  -4   17.72    0.44
  -2  -6  -4   19.01    0.64
  -2  -6  -5   12.42    0.55
  -2  -6  -5   11.35    0.57
  -2  -6  -5   10.51    0.38
  -2  -6  -5   11.72    0.37
  -2  -6  -6   40.82    0.75
  -2  -6  -6   37.65    0.79
  -2  -6  -6   42.66    1.05
  -2  -6  -6   38.16    1.12
  -2  -6  -7    4.81    0.45
  -2  -6  -7    4.95    0.32
  -2  -6  -7    5.44    0.31
  -2  -6  -7    5.89    0.42
  -2  -6  -8    4.51    0.39
  -2  -6  -8    4.99    0.31
  -2  -6  -8    4.88    0.48
  -2  -6  -9    9.17    0.44
  -2  -6  -9    9.90    0.56
   2  -5 -11    0.13    0.16
   2  -5 -10   14.29    0.62
   2  -5  -9   16.97    0.64
  -2  -5   9   17.20    0.50
   2  -5  -8    0.74    0.17
  -2  -5   8    0.81    0.13
  -2  -5   7   65.61    0.88
   2  -5  -7   60.29    1.10
  -2  -5   6   22.23    0.46
   2  -5  -6   22.09    0.65
   2  -5  -6   22.95    0.52
  -2  -5   5   10.13    0.29
   2  -5  -5    9.72    0.41
   2  -5  -5    9.31    0.30
  -2  -5   4  129.42    1.01
   2  -5  -4  129.26    1.05
  -2  -5   3   63.81    0.64
   2  -5  -3   63.13    0.66
   2  -5  -2   56.40    0.58
  -2  -5   2   57.15    0.56
  -2  -5   1  182.74    1.42
   2  -5  -1  181.96    1.06
  -2  -5   0   68.18    0.89
   2  -5   0   69.59    0.64
  -2  -5   0   70.00    0.99
  -2  -5   0   69.06    0.61
   2  -5   1   66.21    0.77
  -2  -5  -1   68.65    1.01
  -2  -5  -1   66.25    0.66
  -2  -5  -1   66.74    0.64
  -2  -5  -1   65.94    0.94
  -2  -5  -2  162.23    1.15
  -2  -5  -2  164.41    1.63
  -2  -5  -2  165.90    1.18
  -2  -5  -2  164.68    1.61
  -2  -5  -2  164.93    1.65
  -2  -5  -3   18.96    0.55
  -2  -5  -3   18.85    0.60
  -2  -5  -3   19.09    0.57
  -2  -5  -3   18.97    0.43
  -2  -5  -3   18.65    0.41
  -2  -5  -4   53.96    0.79
  -2  -5  -4   54.36    0.97
  -2  -5  -4   56.82    1.15
  -2  -5  -4   55.25    0.77
  -2  -5  -5   81.18    1.23
  -2  -5  -5   79.03    1.47
  -2  -5  -5   78.89    1.06
  -2  -5  -5   81.96    1.02
  -2  -5  -6    0.04    0.15
  -2  -5  -6    0.11    0.09
  -2  -5  -6    0.13    0.12
  -2  -5  -6    0.13    0.11
  -2  -5  -7   33.32    1.11
  -2  -5  -7   33.93    0.89
  -2  -5  -7   34.63    0.82
  -2  -5  -7   32.98    0.73
  -2  -5  -8   19.52    0.60
  -2  -5  -8   19.83    0.71
  -2  -5  -8   18.30    0.87
  -2  -5  -9    0.93    0.18
  -2  -5 -10    9.51    0.47
   2  -4 -12    2.27    0.29
   2  -4 -11   17.16    0.68
   2  -4 -10    9.08    0.48
   2  -4  -9   24.11    0.73
  -2  -4   9   24.54    0.59
  -2  -4   8   91.78    1.10
   2  -4  -8   88.22    1.33
  -2  -4   7    7.82    0.30
   2  -4  -7    7.95    0.38
  -2  -4   6   76.46    0.88
   2  -4  -6   72.80    1.07
   2  -4  -5  246.66    1.97
   2  -4  -5  248.73    1.68
  -2  -4   4    0.92    0.10
   2  -4  -4    0.87    0.13
   2  -4  -4    0.85    0.10
   2  -4  -3  175.08    1.17
  -2  -4   3  170.91    1.11
   2  -4  -2  183.33    1.14
  -2  -4   2  181.75    1.17
  -2  -4   1   12.13    0.26
  -2  -4   1   12.27    0.32
   2  -4  -1   12.22    0.27
  -2  -4   0  243.35    1.64
  -2  -4   0  239.96    1.75
   2  -4   0  244.11    1.32
  -2  -4  -1   81.53    0.74
  -2  -4  -1   83.45    1.00
   2  -4   1   79.98    0.74
  -2  -4  -1   83.15    1.02
   2  -4   1   82.70    0.76
  -2  -4  -2   14.47    0.43
   2  -4   2   13.96    0.28
  -2  -4  -2   14.63    0.45
  -2  -4  -2   15.34    0.35
  -2  -4  -2   14.69    0.34
  -2  -4  -2   14.68    0.46
  -2  -4  -3  192.56    1.90
  -2  -4  -3  192.56    1.68
  -2  -4  -3  182.41    1.38
  -2  -4  -3  184.63    1.69
  -2  -4  -3  188.29    1.39
  -2  -4  -4   37.24    0.77
  -2  -4  -4   39.45    0.70
  -2  -4  -4   38.19    0.64
  -2  -4  -5   12.89    0.47
  -2  -4  -5   12.56    0.47
  -2  -4  -5   12.11    0.42
  -2  -4  -5   11.99    0.39
  -2  -4  -6   68.49    1.07
  -2  -4  -6   67.73    0.99
  -2  -4  -7   22.72    0.66
  -2  -4  -7   23.21    0.61
  -2  -4  -8    8.93    0.41
  -2  -4  -9   20.28    0.64
  -2  -4 -10    3.36    0.30
   2  -3 -13    4.44    0.37
   2  -3 -12    8.27    0.47
   2  -3 -11    0.05    0.13
   2  -3 -10   25.38    0.74
   2  -3  -9   17.37    0.58
  -2  -3   9   18.05    0.51
  -2  -3   8    2.35    0.19
   2  -3  -8    2.15    0.21
  -2  -3   7   89.34    1.00
   2  -3  -7   89.83    1.19
   2  -3  -6   86.57    1.09
  -2  -3   6   86.66    0.93
   2  -3  -5   18.85    0.47
  -2  -3   5   19.08    0.40
   2  -3  -4  204.71    1.54
  -2  -3   4  207.26    1.32
   2  -3  -4  208.31    1.42
  -2  -3   3  238.55    1.37
   2  -3  -3  236.46    1.42
  -2  -3   2   78.00    0.62
   2  -3  -2   76.72    0.72
  -2  -3   1  578.99    2.36
   2  -3  -1  582.78    2.34
  -2  -3   1  583.42    2.31
  -2  -3   0  211.71    1.22
  -2  -3   0  207.47    1.37
   2  -3   0  210.39    1.22
  -2  -3  -1  206.94    1.27
   2  -3   1  206.58    1.26
   2  -3   1  205.61    1.07
  -2  -3  -1  204.16    1.48
  -2  -3  -2  378.19    2.33
  -2  -3  -2  372.60    2.16
  -2  -3  -2  371.41    1.96
  -2  -3  -3   35.52    0.69
  -2  -3  -3   34.87    0.58
  -2  -3  -3   35.80    0.63
  -2  -3  -3   34.49    0.58
  -2  -3  -4  134.87    1.44
  -2  -3  -4  138.30    1.32
  -2  -3  -4  133.47    1.28
  -2  -3  -4  137.42    1.28
  -2  -3  -5  177.66    1.61
  -2  -3  -5  173.25    1.72
  -2  -3  -5  175.10    1.54
  -2  -3  -6    3.52    0.25
  -2  -3  -6    3.51    0.24
  -2  -3  -7   56.56    1.01
   2  -3   7   58.01    0.86
  -2  -3  -8   23.04    0.66
   2  -3   8   22.29    0.58
  -2  -3  -9    1.02    0.19
   2  -3   9    1.11    0.17
  -2  -3 -10   21.06    0.69
   2  -2 -14    4.23    0.35
   2  -2 -13    3.14    0.30
   2  -2 -12    2.99    0.29
   2  -2 -11   23.02    0.71
   2  -2 -10   13.41    0.51
   2  -2 -10   16.30    0.61
   2  -2  -9   29.52    0.71
  -2  -2   9   30.43    0.65
  -2  -2   8  152.93    1.41
   2  -2  -8  147.09    1.51
   2  -2  -7   10.88    0.37
  -2  -2   7   10.76    0.34
  -2  -2   6  130.09    1.16
   2  -2  -6  131.43    1.23
  -2  -2   5  345.42    1.89
   2  -2  -5  341.33    1.96
   2  -2  -4   29.90    0.49
  -2  -2   4   30.27    0.47
   2  -2  -4   30.44    0.51
   2  -2  -3  424.72    2.02
  -2  -2   2  235.77    0.97
  -2  -2   2  236.61    1.29
   2  -2  -1   15.46    0.30
  -2  -2   1   15.59    0.29
   2  -2   0  260.21    1.39
  -2  -2   0  259.91    1.39
  -2  -2  -1  234.09    1.38
   2  -2   1  234.24    1.35
  -2  -2  -2   51.57    0.64
   2  -2   2   51.08    0.63
  -2  -2  -2   49.57    0.64
  -2  -2  -3  302.49    1.74
  -2  -2  -3  301.57    1.86
  -2  -2  -3  304.50    1.87
  -2  -2  -4   56.22    0.81
  -2  -2  -4   54.60    0.79
  -2  -2  -5   18.11    0.49
  -2  -2  -5   18.90    0.50
  -2  -2  -6  100.61    1.24
   2  -2   6  103.35    1.15
  -2  -2  -6  104.48    1.25
  -2  -2  -7   36.69    0.78
   2  -2   7   39.22    0.76
  -2  -2  -7   38.94    0.80
  -2  -2  -8   16.56    0.56
   2  -2   8   16.44    0.53
  -2  -2  -8   15.27    0.54
   2  -2   9   28.19    0.72
  -2  -2  -9   29.18    0.77
  -2  -2 -10    3.17    0.30
   2  -2  10    2.98    0.27
   2  -1 -14    0.29    0.15
   2  -1 -13    8.92    0.46
   2  -1 -12   15.92    0.58
   2  -1 -12   19.07    0.74
   2  -1 -11    0.54    0.15
   2  -1 -11    1.37    0.22
   2  -1 -10   30.07    0.73
   2  -1 -10   33.64    0.87
  -2  -1   9   62.12    0.93
   2  -1  -9   60.57    0.97
   2  -1  -8   11.23    0.44
  -2  -1   8   10.26    0.36
   2  -1  -8   10.52    0.37
   2  -1  -7  101.63    1.06
  -2  -1   7  102.77    1.07
   2  -1  -6   96.09    0.94
  -2  -1   6   94.16    0.97
  -2  -1   5   60.66    0.72
   2  -1  -5   61.20    0.67
   2  -1  -4  311.76    1.55
  -2  -1   4  316.75    1.70
   2  -1  -3   77.12    0.76
  -2  -1   2   78.54    0.70
   2  -1  -2   73.74    0.70
   2  -1  -1  893.68    3.18
  -2  -1   1  885.72    3.15
  -2  -1   0   80.47    0.72
   2  -1   0   80.41    0.72
   2  -1   1  142.20    1.02
  -2  -1  -1  146.28    1.07
   2  -1   2  461.38    2.14
  -2  -1  -2  457.30    2.22
  -2  -1  -2  460.18    1.88
  -2  -1  -3   92.49    0.75
  -2  -1  -3   92.60    0.98
  -2  -1  -3   89.33    0.94
  -2  -1  -3   89.23    0.98
  -2  -1  -4  162.26    1.38
  -2  -1  -4  163.07    1.44
  -2  -1  -5  189.90    1.61
  -2  -1  -5  188.34    1.63
   2  -1   6    4.90    0.27
  -2  -1  -6    4.91    0.27
  -2  -1  -6    4.79    0.28
   2  -1   7   83.02    1.17
  -2  -1  -7   79.00    1.14
  -2  -1  -8   41.38    0.90
   2  -1   8   39.39    0.85
  -2  -1  -9    1.06    0.19
   2  -1   9    1.18    0.19
  -2  -1 -10   25.38    0.76
   2  -1  10   22.77    0.71
   2   0 -13    0.63    0.17
   2   0 -12    0.41    0.19
   2   0 -12    0.25    0.13
   2   0 -11   37.51    0.98
   2   0 -11   31.79    0.74
   2   0 -10    9.16    0.47
   2   0 -10    8.13    0.36
   2   0  -9   22.44    0.54
  -2   0   9   22.86    0.56
  -2   0   8  117.09    1.21
   2   0  -8  120.97    1.17
  -2   0   7   66.05    0.85
   2   0  -7   66.27    0.77
   2   0  -6  207.27    1.28
  -2   0   6  202.06    1.46
   2   0  -5  423.06    1.77
  -2   0   5  421.56    2.14
   2   0  -4  120.55    0.69
  -2   0   4  122.01    0.98
  -2   0   3  570.07    1.84
   2   0  -3  569.36    2.46
  -2   0   2  564.26    2.28
   2   0  -2  556.17    2.32
  -2   0   1    0.21    0.04
   2   0  -1    0.09    0.04
  -2   0   0  578.75    2.34
   2   0   0  577.81    2.35
   2   0   1  490.46    1.63
   2   0   1  491.04    2.15
  -2   0  -1  492.98    2.20
  -2   0  -2  204.20    1.37
  -2   0  -2  205.46    1.36
   2   0   2  206.88    1.32
  -2   0  -3  327.52    1.91
  -2   0  -3  333.59    1.31
  -2   0  -3  334.93    2.00
  -2   0  -3  329.72    1.93
  -2   0  -4   91.31    1.01
  -2   0  -4   90.68    1.00
  -2   0  -5   64.87    0.91
  -2   0  -5   71.06    0.99
  -2   0  -6  139.69    1.44
  -2   0  -6  146.84    1.52
   2   0   7   14.87    0.52
  -2   0  -7   15.91    0.53
   2   0   8   11.34    0.48
  -2   0  -8   10.79    0.44
  -2   0  -8   12.43    0.49
   2   0   9   37.31    0.90
  -2   0  -9   39.24    0.91
  -2   0 -10    1.80    0.23
   2   1 -13    8.58    0.41
  -2   1   9   58.12    0.90
  -2   1   8    9.49    0.34
   2   1  -5   62.78    0.45
  -2   1   4  314.45    1.49
  -2   1   3   79.17    0.63
  -2   1   2   78.95    0.62
   2   1   0   82.79    0.65
   2   1   1  146.99    0.86
  -2   1  -2  447.39    2.01
  -2   1  -3   87.71    0.85
  -2   2  12    3.36    0.31
   2   2 -11   24.26    0.79
   2   2 -10   15.84    0.61
   2   2  -9   33.16    0.82
  -2   2   9   33.29    0.67
  -2   2   8  157.75    1.42
  -2   2   7    9.55    0.32
  -2   2   6  128.66    1.14
  -2   2   5  353.38    1.91
  -2   2   4   28.71    0.46
  -2   2   4   28.90    0.46
  -2   2   3  421.87    1.98
   2   2  -3  422.81    2.01
   2   2  -2  235.04    1.34
  -2   2   2  238.39    1.39
  -2   2   2  238.22    1.31
   2   2  -1   15.17    0.29
  -2   2   1   15.13    0.29
   2   2   0  258.63    1.44
   2   2   0  258.62    1.37
  -2   2  -1  230.07    1.37
   2   2   1  226.46    1.32
  -2   2  -2   46.80    0.49
  -2   2  -2   47.36    0.62
  -2   2  -3  313.24    1.88
  -2   2  -3  308.60    1.91
  -2   2  -4   53.13    0.80
  -2   2  -4   51.24    0.76
  -2   2  -5   17.35    0.46
  -2   2  -5   18.44    0.22
  -2   2  -5   17.84    0.50
  -2   2  -6  100.71    1.20
  -2   2  -6  104.84    1.27
  -2   2  -7   37.14    0.76
  -2   2  -7   41.17    0.84
  -2   2  -8   17.84    0.59
  -2   2  -8   15.93    0.53
  -2   2  -9   29.78    0.80
  -2   2 -10    3.41    0.31
  -2   3  11    0.40    0.16
  -2   3  10   27.80    0.79
  -2   3   9   17.43    0.50
  -2   3   8    3.24    0.21
  -2   3   7   92.23    1.02
  -2   3   6   84.84    0.91
  -2   3   5   17.00    0.41
  -2   3   5   16.68    0.37
   2   3  -5   17.74    0.26
   2   3  -4  208.21    1.01
  -2   3   4  207.88    1.47
  -2   3   4  208.76    1.32
   2   3  -4  206.25    1.42
  -2   3   3  236.76    1.55
   2   3  -3  236.90    1.43
   2   3  -2   81.59    0.72
  -2   3   2   81.27    0.85
  -2   3   1  577.57    2.68
   2   3  -1  578.94    2.30
  -2   3   1  582.75    2.32
  -2   3   0  212.40    1.24
   2   3   0  211.99    1.21
   2   3   0  211.87    1.44
  -2   3  -1  205.91    1.28
   2   3   1  208.11    1.24
  -2   3  -2  376.98    2.02
  -2   3  -2  377.37    1.96
  -2   3  -3   34.68    0.57
  -2   3  -3   34.10    0.59
  -2   3  -4  133.51    1.24
  -2   3  -4  136.43    1.31
  -2   3  -5  181.60    1.61
  -2   3  -5  179.40    1.55
  -2   3  -6    3.37    0.23
  -2   3  -6    3.68    0.13
  -2   3  -6    3.54    0.25
  -2   3  -7   61.31    0.58
  -2   3  -7   60.61    1.04
  -2   3  -8   24.19    0.70
  -2   3  -8   24.28    0.39
  -2   3  -9    1.08    0.20
  -2   3 -10   25.17    0.78
  -2   4  11   18.87    0.73
  -2   4  10   10.03    0.51
  -2   4   9   29.35    0.84
  -2   4   9   25.76    0.60
  -2   4   8   90.80    1.07
  -2   4   8  100.39    1.48
  -2   4   7    8.79    0.31
  -2   4   7   10.42    0.47
   2   4  -6   75.21    0.73
  -2   4   6   75.12    0.85
  -2   4   5  252.11    1.57
   2   4  -5  247.93    1.70
  -2   4   5  248.94    1.80
   2   4  -5  252.44    1.38
  -2   4   4    0.50    0.10
   2   4  -4    0.55    0.07
   2   4  -4    0.48    0.10
   2   4  -4    0.69    0.09
  -2   4   3  172.13    1.42
   2   4  -3  172.98    1.13
  -2   4   3  170.10    1.10
   2   4  -3  174.58    1.52
   2   4  -3  174.45    1.17
  -2   4   2  188.14    1.34
   2   4  -2  183.28    1.12
  -2   4   2  188.46    1.49
   2   4  -2  183.89    1.52
  -2   4   1   11.64    0.22
  -2   4   1   12.22    0.37
   2   4  -1   11.83    0.25
  -2   4   1   11.73    0.26
   2   4   0  242.05    1.29
  -2   4   0  242.84    1.33
  -2   4  -1   78.04    0.75
   2   4   1   82.93    0.73
  -2   4  -2   14.74    0.36
  -2   4  -2   14.57    0.34
  -2   4  -3  181.46    1.36
  -2   4  -3  188.35    1.46
  -2   4  -4   38.74    0.66
  -2   4  -4   38.42    0.68
  -2   4  -5   12.39    0.40
  -2   4  -5   12.93    0.43
  -2   4  -6   67.52    1.00
  -2   4  -6   70.16    1.06
  -2   4  -7   23.52    0.65
  -2   4  -7   23.01    0.63
  -2   4  -8    8.18    0.41
  -2   4  -9   20.43    0.67
  -2   4 -10    3.22    0.31
  -2   5  11    0.16    0.18
  -2   5  10   15.35    0.67
   2   5  -9   16.45    0.44
  -2   5   9   17.28    0.49
  -2   5   8    0.86    0.20
   2   5  -8    0.67    0.11
  -2   5   8    0.73    0.12
   2   5  -7   59.06    0.75
   2   5  -7   60.69    1.08
  -2   5   6   22.89    0.47
   2   5  -6   21.47    0.53
   2   5  -6   23.06    0.64
  -2   5   6   23.53    0.71
   2   5  -6   22.89    0.45
  -2   5   5    9.96    0.44
  -2   5   5   10.34    0.29
   2   5  -5   10.21    0.29
   2   5  -5   10.85    0.43
   2   5  -5   10.89    0.34
  -2   5   4  129.39    1.45
   2   5  -4  129.28    1.09
   2   5  -4  128.60    1.43
  -2   5   4  127.25    1.33
   2   5  -4  127.81    1.06
  -2   5   4  127.72    0.99
  -2   5   3   63.59    0.87
   2   5  -3   62.62    0.75
  -2   5   3   61.57    0.91
  -2   5   3   61.75    0.62
   2   5  -3   63.59    0.96
   2   5  -3   62.65    0.65
  -2   5   2   54.92    0.66
  -2   5   2   54.40    0.85
  -2   5   2   52.74    0.54
   2   5  -2   53.89    0.86
   2   5  -2   55.83    0.56
  -2   5   1  188.92    1.62
   2   5  -1  184.72    1.04
  -2   5   0   67.67    0.97
  -2   5   0   67.85    0.63
   2   5   0   67.67    0.60
  -2   5  -1   64.87    0.66
  -2   5  -1   67.32    0.72
  -2   5  -2  160.06    1.17
  -2   5  -2  165.31    1.26
  -2   5  -3   18.91    0.42
  -2   5  -3   20.11    0.46
  -2   5  -4   53.05    0.75
  -2   5  -4   55.72    0.82
  -2   5  -5   79.53    1.00
  -2   5  -5   84.35    1.11
  -2   5  -6    0.16    0.11
  -2   5  -6    0.12    0.11
  -2   5  -7   35.04    0.80
  -2   5  -7   32.91    0.75
  -2   5  -8   20.02    0.64
  -2   5  -9    0.93    0.20
  -2   5 -10   11.50    0.55
  -2   6  10    5.04    0.42
   2   6  -9    6.71    0.30
  -2   6   9    7.13    0.48
  -2   6   9    6.77    0.32
   2   6  -8   34.32    0.65
  -2   6   8   36.67    1.02
  -2   6   8   35.57    0.68
  -2   6   7   11.28    0.55
   2   6  -7   10.33    0.35
   2   6  -7   10.32    0.40
  -2   6   7   10.81    0.36
  -2   6   6   29.61    0.84
   2   6  -6   28.78    0.57
   2   6  -6   30.27    0.77
   2   6  -6   28.94    0.59
  -2   6   6   29.37    0.53
  -2   6   5  103.38    1.44
  -2   6   5  100.94    1.28
   2   6  -5  103.00    1.09
   2   6  -5  102.17    1.38
  -2   6   5  102.94    0.93
   2   6  -5  101.16    1.00
   2   6  -4   10.79    0.28
  -2   6   4   10.75    0.27
  -2   6   4   10.46    0.41
   2   6  -4   10.21    0.42
  -2   6   4   11.13    0.42
   2   6  -4   11.42    0.36
   2   6  -3   92.72    1.04
   2   6  -3   90.71    0.73
  -2   6   3   90.29    1.20
   2   6  -3   92.37    1.25
   2   6  -2  121.85    0.77
  -2   6   2  117.27    0.77
  -2   6   2  124.60    1.41
   2   6  -2  120.19    1.37
  -2   6   1    1.66    0.18
  -2   6   1    1.95    0.10
   2   6  -1    1.52    0.08
  -2   6   0  114.66    0.78
  -2   6   0  115.78    0.85
  -2   6  -1   78.08    0.75
  -2   6  -1   77.12    0.69
  -2   6  -2   16.77    0.35
  -2   6  -2   16.37    0.53
  -2   6  -2   16.75    0.38
  -2   6  -3   99.19    0.95
  -2   6  -3  102.61    1.05
  -2   6  -4   18.17    0.48
  -2   6  -4   17.19    0.43
  -2   6  -5   12.21    0.42
  -2   6  -5   10.92    0.37
  -2   6  -6   42.52    0.84
  -2   6  -6   38.14    0.74
  -2   6  -7    5.58    0.34
  -2   6  -7    5.04    0.30
  -2   6  -8    5.23    0.35
  -2   6  -9    9.63    0.48
   2   7 -10    7.94    0.44
   2   7  -9    7.04    0.39
  -2   7   9    7.48    0.53
  -2   7   8    0.60    0.22
   2   7  -8    0.86    0.14
   2   7  -8    0.71    0.15
   2   7  -7   20.07    0.51
  -2   7   7   21.30    0.49
   2   7  -7   20.58    0.53
  -2   7   7   21.59    0.78
   2   7  -6   16.43    0.48
  -2   7   6   15.68    0.39
   2   7  -6   15.88    0.40
   2   7  -5    9.82    0.27
   2   7  -5    9.98    0.37
  -2   7   5    9.71    0.28
   2   7  -4   51.96    0.84
   2   7  -4   50.75    0.53
   2   7  -3   14.37    0.22
   2   7  -3   14.29    0.45
  -2   7   0   11.41    0.15
  -2   7   0   12.80    0.18
  -2   7  -1   24.07    0.34
  -2   7  -1   24.53    0.32
  -2   7  -2   55.72    0.64
  -2   7  -2   54.88    0.58
  -2   7  -3   10.15    0.28
  -2   7  -3   10.06    0.31
  -2   7  -4   24.96    0.55
  -2   7  -4   21.80    0.46
  -2   7  -5   34.30    0.71
  -2   7  -5   31.71    0.60
  -2   7  -6    0.23    0.10
  -2   7  -6    0.27    0.13
  -2   7  -7   13.92    0.53
  -2   7  -8   10.16    0.48
  -2   7  -9    0.07    0.15
   2   8  -6   14.89    0.34
   2   8  -6   15.90    0.51
   2   8  -5   29.64    0.70
   2   8  -5   30.14    0.38
   2   8  -4    1.76    0.19
  -2   8  -3   24.83    0.39
  -2   8  -3   25.76    0.37
  -2   8  -4    7.47    0.28
  -2   8  -5    2.86    0.20
   3 -10  -1    0.81    0.17
   3 -10   0    8.55    0.41
   3  -9  -4   13.46    0.58
   3  -9  -3    6.07    0.38
   3  -9  -2    1.96    0.22
   3  -9  -1   15.41    0.54
   3  -9   0    4.29    0.28
  -3  -9  -1    2.46    0.25
  -3  -9  -2   10.32    0.51
   3  -8  -3   11.93    0.50
   3  -8  -2   36.53    0.82
   3  -8  -1    1.41    0.17
  -3  -8   0   29.26    0.73
   3  -8   0   27.92    0.65
  -3  -8  -1   30.79    0.79
   3  -8   1   29.40    0.63
  -3  -8  -2    0.14    0.13
  -3  -8  -3   25.45    0.82
  -3  -8  -3   26.28    0.84
  -3  -8  -4   12.81    0.63
   3  -7  -7   20.44    0.52
   3  -7  -6   20.70    0.49
   3  -7  -5    0.57    0.10
  -3  -7   5    0.60    0.10
  -3  -7   4   52.43    0.64
   3  -7  -4   51.91    0.67
   3  -7  -3   34.58    0.51
  -3  -7   3   37.18    0.50
   3  -7  -2    4.93    0.19
  -3  -7   2    4.96    0.18
   3  -7  -1   50.44    0.60
   3  -7  -1   49.92    0.85
  -3  -7   1   50.79    0.56
  -3  -7   0   26.50    0.65
   3  -7   0   25.93    0.58
  -3  -7   0   26.87    0.44
  -3  -7  -1   11.90    0.48
   3  -7   1   11.56    0.37
  -3  -7  -1   11.52    0.29
  -3  -7  -1   11.77    0.31
  -3  -7  -2   42.19    0.96
  -3  -7  -2   43.21    0.98
  -3  -7  -2   41.67    0.63
  -3  -7  -2   40.60    0.59
  -3  -7  -3    5.67    0.38
  -3  -7  -3    5.42    0.25
  -3  -7  -4   11.66    0.55
  -3  -7  -4   10.89    0.37
  -3  -7  -5   19.69    0.81
  -3  -7  -5   22.64    0.79
  -3  -7  -6    1.06    0.22
   3  -6 -11    9.43    0.49
   3  -6 -10    5.48    0.40
   3  -6 -10    5.98    0.38
   3  -6  -9    3.87    0.34
   3  -6  -9    3.96    0.29
  -3  -6   8   28.51    0.61
   3  -6  -8   28.36    0.69
  -3  -6   7   10.09    0.35
   3  -6  -7    9.99    0.38
   3  -6  -6   14.02    0.42
  -3  -6   6   15.01    0.39
   3  -6  -5   48.89    0.73
  -3  -6   5   49.86    0.69
  -3  -6   4    7.48    0.26
   3  -6  -4    7.39    0.27
  -3  -6   3   37.27    0.54
   3  -6  -3   37.29    0.57
   3  -6  -2   82.05    0.83
  -3  -6   2   82.57    0.96
   3  -6  -1    0.32    0.08
  -3  -6   1    0.71    0.12
   3  -6   0   55.14    0.68
  -3  -6   0   54.86    0.89
   3  -6   0   53.51    0.77
  -3  -6   0   56.19    0.67
  -3  -6  -1   66.74    1.05
   3  -6   1   66.11    0.80
  -3  -6  -1   67.02    0.79
  -3  -6  -1   65.55    0.76
  -3  -6  -2    0.26    0.13
  -3  -6  -2    0.26    0.09
  -3  -6  -2    0.33    0.14
  -3  -6  -2    0.29    0.13
  -3  -6  -2    0.45    0.09
  -3  -6  -3   57.03    1.08
  -3  -6  -3   56.10    1.14
  -3  -6  -3   53.88    0.79
  -3  -6  -3   55.43    0.79
  -3  -6  -4   30.52    0.92
  -3  -6  -4   30.95    0.66
  -3  -6  -4   31.11    0.63
  -3  -6  -5    1.01    0.23
  -3  -6  -5    0.77    0.18
  -3  -6  -5    0.74    0.14
  -3  -6  -5    0.87    0.14
  -3  -6  -6   23.79    0.62
  -3  -6  -6   24.25    0.77
  -3  -6  -6   22.67    0.66
  -3  -6  -7    9.72    0.42
  -3  -6  -7    8.92    0.49
  -3  -6  -8    1.60    0.20
  -3  -6  -8    1.39    0.23
   3  -5 -12    7.29    0.47
   3  -5 -11    0.90    0.21
   3  -5 -11    0.91    0.20
   3  -5 -10   10.23    0.51
   3  -5 -10   11.44    0.51
   3  -5  -9   22.45    0.71
   3  -5  -9   23.20    0.69
   3  -5  -8    0.03    0.12
  -3  -5   8    0.11    0.09
   3  -5  -8    0.26    0.12
  -3  -5   7   46.98    0.74
   3  -5  -7   46.49    0.84
  -3  -5   6   71.32    0.88
   3  -5  -6   71.61    0.98
   3  -5  -5    4.89    0.25
  -3  -5   5    4.90    0.23
   3  -5  -4  131.33    1.19
  -3  -5   4  132.82    1.11
   3  -5  -3   63.75    0.78
  -3  -5   3   64.33    0.74
  -3  -5   2    5.05    0.22
   3  -5  -2    5.07    0.22
  -3  -5   1  167.31    1.39
   3  -5  -1  166.96    1.24
  -3  -5   1  169.36    1.24
   3  -5   0   44.25    0.62
   3  -5   0   43.00    0.62
  -3  -5   0   45.39    0.76
  -3  -5   0   44.19    0.62
  -3  -5  -1   30.86    0.54
  -3  -5  -1   30.78    0.69
   3  -5   1   30.10    0.48
   3  -5   1   30.35    0.53
  -3  -5  -2   82.71    1.22
  -3  -5  -2   83.98    1.27
  -3  -5  -2   79.63    0.93
  -3  -5  -2   81.87    1.17
  -3  -5  -2   79.44    0.93
  -3  -5  -3   15.55    0.55
  -3  -5  -3   14.90    0.43
  -3  -5  -3   15.67    0.53
  -3  -5  -3   15.31    0.42
  -3  -5  -4   22.18    0.78
  -3  -5  -4   22.12    0.64
  -3  -5  -4   21.83    0.57
  -3  -5  -4   22.39    0.55
  -3  -5  -5   43.40    1.17
  -3  -5  -5   46.23    0.83
  -3  -5  -5   45.28    0.88
  -3  -5  -6    2.46    0.24
  -3  -5  -6    2.23    0.32
  -3  -5  -6    2.33    0.24
  -3  -5  -6    2.61    0.23
  -3  -5  -7   11.95    0.69
  -3  -5  -7   13.51    0.55
  -3  -5  -7   13.60    0.50
  -3  -5  -8   12.74    0.53
  -3  -5  -8   13.34    0.52
  -3  -5  -9    0.69    0.17
  -3  -5  -9    0.73    0.18
   3  -4 -13    1.03    0.21
   3  -4 -12    1.20    0.21
   3  -4 -11   12.03    0.53
   3  -4 -10    9.46    0.46
  -3  -4   9    3.32    0.23
   3  -4  -9    2.55    0.25
   3  -4  -9    2.69    0.26
  -3  -4   8   45.16    0.76
   3  -4  -8   45.86    0.92
   3  -4  -8   47.73    0.92
  -3  -4   7   30.17    0.60
   3  -4  -7   29.74    0.71
   3  -4  -7   30.74    0.69
  -3  -4   6   15.97    0.42
   3  -4  -6   15.93    0.46
  -3  -4   5   84.11    0.92
   3  -4  -5   83.78    1.00
   3  -4  -4   65.27    0.83
  -3  -4   4   65.48    0.78
   3  -4  -3   92.42    0.95
  -3  -4   2  209.56    1.31
  -3  -4   2  209.75    1.40
   3  -4  -2  211.27    1.46
   3  -4  -1    9.59    0.29
  -3  -4   1   10.16    0.30
  -3  -4   1   10.37    0.30
  -3  -4   0  135.74    1.13
   3  -4   0  134.04    1.12
  -3  -4   0  134.25    1.26
  -3  -4  -1  236.84    1.90
  -3  -4  -1  232.45    1.59
   3  -4   1  231.62    1.55
   3  -4   1  232.97    1.25
  -3  -4  -2    0.44    0.09
  -3  -4  -2    0.71    0.12
  -3  -4  -3  142.25    1.60
  -3  -4  -3  141.10    1.37
  -3  -4  -3  142.33    1.35
  -3  -4  -4   81.65    1.23
  -3  -4  -4   82.83    1.13
  -3  -4  -4   81.32    1.07
  -3  -4  -4   80.67    1.11
  -3  -4  -5    8.54    0.39
  -3  -4  -5    7.93    0.41
  -3  -4  -5    8.69    0.38
  -3  -4  -5    8.37    0.36
  -3  -4  -6   46.71    0.96
  -3  -4  -6   46.45    0.89
  -3  -4  -6   45.39    0.87
  -3  -4  -7   14.61    0.52
  -3  -4  -7   13.92    0.52
  -3  -4  -8    4.65    0.33
  -3  -4  -8    4.99    0.32
  -3  -4  -9   13.66    0.55
  -3  -4  -9   14.15    0.53
   3  -3 -13    2.82    0.28
   3  -3 -12   15.14    0.58
   3  -3 -11    1.31    0.19
   3  -3 -10   20.84    0.62
  -3  -3   9   55.30    0.89
   3  -3  -9   54.77    0.96
   3  -3  -8    3.40    0.24
  -3  -3   8    4.04    0.24
  -3  -3   7  101.22    1.10
   3  -3  -7  104.29    1.22
  -3  -3   6  106.46    1.09
   3  -3  -6  106.05    1.22
  -3  -3   5   24.22    0.49
   3  -3  -5   23.70    0.53
   3  -3  -4  275.34    1.82
   3  -3  -3   76.48    0.88
  -3  -3   3   77.58    0.53
  -3  -3   2   28.39    0.39
  -3  -3   2   28.10    0.49
  -3  -3   1  237.69    1.46
  -3  -3   1  235.35    1.51
  -3  -3   0   47.17    0.66
   3  -3   0   46.72    0.65
  -3  -3  -1   26.95    0.52
   3  -3   1   26.07    0.30
   3  -3   1   27.28    0.50
   3  -3   2  135.55    1.19
  -3  -3  -2  135.90    1.26
  -3  -3  -3   19.77    0.48
  -3  -3  -3   19.27    0.49
  -3  -3  -3   19.18    0.50
  -3  -3  -4   20.66    0.50
  -3  -3  -4   20.84    0.54
  -3  -3  -5   69.53    0.95
  -3  -3  -5   69.44    1.08
  -3  -3  -5   67.26    1.03
  -3  -3  -6   13.16    0.51
  -3  -3  -6   13.45    0.51
  -3  -3  -6   13.53    0.44
  -3  -3  -6   13.08    0.48
  -3  -3  -7   26.65    0.63
  -3  -3  -7   27.19    0.71
  -3  -3  -8   21.84    0.58
  -3  -3  -8   22.12    0.67
  -3  -3  -9    2.12    0.26
  -3  -3  -9    1.80    0.20
   3  -2 -13    2.54    0.25
   3  -2 -12    1.83    0.22
   3  -2 -11   21.02    0.61
   3  -2 -10   12.34    0.45
  -3  -2   9    4.42    0.26
   3  -2  -9    4.65    0.27
  -3  -2   8   75.42    0.99
   3  -2  -8   75.04    0.97
  -3  -2   7   50.58    0.77
   3  -2  -7   51.42    0.76
   3  -2  -7   51.01    0.89
  -3  -2   6   24.49    0.51
   3  -2  -6   24.17    0.49
   3  -2  -6   25.38    0.59
  -3  -2   5  199.59    1.47
   3  -2  -5  196.22    1.57
   3  -2  -4   67.75    0.85
   3  -2  -3  110.02    1.06
  -3  -2   3  109.88    0.52
   3  -2  -2  396.12    2.12
  -3  -2   2  394.43    2.04
   3  -2  -1   18.13    0.40
  -3  -2   1   18.14    0.40
   3  -2   0  313.35    1.83
  -3  -2   0  313.35    1.84
  -3  -2  -1  295.72    1.85
   3  -2   1  299.68    1.82
   3  -2   2    4.67    0.23
  -3  -2  -2    4.70    0.24
  -3  -2  -3  243.98    1.97
  -3  -2  -3  242.32    1.83
  -3  -2  -4  129.53    1.39
  -3  -2  -4  129.30    1.44
  -3  -2  -4  132.91    1.15
  -3  -2  -4  134.60    1.40
  -3  -2  -5   18.07    0.56
  -3  -2  -5   16.41    0.52
  -3  -2  -5   16.60    0.41
  -3  -2  -5   17.23    0.53
  -3  -2  -6   68.67    1.12
  -3  -2  -6   71.62    0.89
  -3  -2  -6   70.57    1.14
  -3  -2  -6   71.15    1.11
  -3  -2  -7   20.36    0.49
  -3  -2  -7   20.25    0.62
  -3  -2  -8    4.72    0.25
  -3  -2  -8    5.09    0.34
  -3  -2  -9   23.52    0.74
  -3  -2  -9   20.79    0.52
   3  -1 -13    1.51    0.20
   3  -1 -12   13.91    0.49
   3  -1 -11    2.64    0.22
   3  -1 -10   30.59    0.65
   3  -1  -9   36.62    0.66
  -3  -1   9   37.77    0.72
  -3  -1   8    3.76    0.23
   3  -1  -8    3.90    0.20
  -3  -1   7  136.74    1.29
   3  -1  -7  136.34    1.11
  -3  -1   6  157.48    1.37
   3  -1  -6  152.50    1.49
  -3  -1   5   25.93    0.51
   3  -1  -5   14.86    0.43
   3  -1  -4  322.55    1.99
   3  -1  -3  260.85    1.69
  -3  -1   3  264.78    1.64
   3  -1  -2   45.59    0.64
  -3  -1   2   47.73    0.65
  -3  -1   1  325.62    1.84
   3  -1  -1  322.91    1.85
   3  -1   0  207.99    1.44
  -3  -1   0  208.84    1.46
  -3  -1  -1  117.42    1.12
   3  -1   1  116.96    0.55
   3  -1   1  115.86    1.06
   3  -1   2  208.10    1.52
  -3  -1  -2  214.23    1.64
  -3  -1  -3   29.66    0.63
  -3  -1  -3   29.05    0.60
  -3  -1  -4   41.65    0.78
  -3  -1  -4   41.62    0.76
  -3  -1  -4   42.60    0.53
  -3  -1  -5  130.08    1.44
  -3  -1  -5  131.18    1.47
  -3  -1  -5  135.48    1.02
  -3  -1  -5  135.24    1.49
  -3  -1  -6    3.87    0.18
  -3  -1  -6    3.82    0.28
  -3  -1  -7   30.75    0.52
  -3  -1  -7   32.48    0.79
  -3  -1  -8   29.07    0.52
  -3  -1  -8   32.37    0.83
  -3  -1  -9    0.48    0.17
   3   0 -13    5.81    0.31
   3   0 -12    5.37    0.29
   3   0 -11   18.92    0.49
   3   0 -10   25.87    0.54
  -3   0   9   13.44    0.44
   3   0  -9   14.01    0.36
  -3   0   8  138.04    1.34
   3   0  -8  136.61    1.05
  -3   0   7   14.82    0.42
   3   0  -7   14.56    0.29
  -3   0   6   16.26    0.42
   3   0  -6   16.75    0.48
  -3   0   5  257.11    1.71
   3   0  -5  265.55    1.88
  -3   0   4   22.37    0.27
   3   0  -4   21.93    0.48
   3   0  -3  128.63    1.14
  -3   0   3  130.48    1.11
   3   0  -2  349.83    1.96
  -3   0   2  352.30    1.92
  -3   0   1    0.35    0.07
   3   0  -1    0.42    0.08
  -3   0   0  217.33    1.48
   3   0   0  219.01    1.47
  -3   0  -1  268.29    1.76
   3   0   1  267.45    1.69
   3   0   2   11.73    0.34
  -3   0  -2   11.83    0.36
  -3   0  -3  302.50    1.98
  -3   0  -3  288.43    1.97
  -3   0  -4   93.83    1.11
  -3   0  -4   93.45    1.15
  -3   0  -5    0.61    0.12
  -3   0  -5    0.73    0.14
  -3   0  -6   80.87    0.64
  -3   0  -6   85.56    1.26
  -3   0  -7   37.75    0.46
  -3   0  -7   37.76    0.86
  -3   0  -8    6.45    0.20
  -3   0  -8    6.10    0.38
  -3   0  -9   21.76    0.72
   3   1 -12   13.22    0.41
   3   1 -11    2.68    0.18
   3   1 -10   29.21    0.51
  -3   1   9   40.22    0.75
   3   1  -9   39.24    0.52
  -3   1   8    3.50    0.22
   3   1  -8    3.81    0.14
   3   1  -7  136.06    0.67
  -3   1   5   14.26    0.29
  -3   1   4  316.55    1.53
  -3   1   3  261.85    1.37
   3   1   0  206.13    1.23
   3   1   1  110.89    0.82
  -3   1  -2  214.32    1.47
  -3   1  -3   27.44    0.52
  -3   1  -4   41.11    0.69
  -3   1  -8   25.75    0.22
   3   2 -12    1.69    0.14
   3   2 -11   21.08    0.41
   3   2 -10   11.86    0.28
  -3   2   9    4.48    0.26
   3   2  -9    4.43    0.14
  -3   2   8   75.35    0.99
  -3   2   7   52.46    0.78
  -3   2   6   26.66    0.53
   3   2  -6   28.54    0.63
  -3   2   5  191.09    1.31
  -3   2   5  191.32    1.44
   3   2  -5  188.94    1.59
  -3   2   4   66.92    0.73
   3   2  -4   67.53    0.85
   3   2  -3  112.16    1.06
  -3   2   3  116.28    0.98
   3   2  -2  387.31    2.08
  -3   2   2  388.26    2.04
   3   2  -1   18.83    0.40
   3   2  -1   18.17    0.40
   3   2   0  311.48    1.81
  -3   2   0  310.41    1.85
   3   2   0  310.68    1.74
  -3   2  -1  301.69    1.87
   3   2   1  302.97    1.81
  -3   2  -2    4.66    0.19
   3   2   2    4.83    0.23
  -3   2  -2    4.45    0.23
  -3   2  -3  239.78    1.53
  -3   2  -3  242.10    1.81
  -3   2  -4  131.38    1.37
  -3   2  -4  138.05    1.44
  -3   2  -5   16.84    0.51
  -3   2  -5   17.44    0.54
  -3   2  -6   69.03    1.10
  -3   2  -6   69.35    1.12
  -3   2  -7   20.03    0.63
  -3   2  -8    5.23    0.36
  -3   2  -9   23.57    0.75
   3   3 -11    1.48    0.11
   3   3 -10   20.70    0.31
   3   3  -9   48.35    0.36
   3   3  -9   49.08    0.35
  -3   3   8    3.32    0.22
  -3   3   7   99.70    1.09
   3   3  -7  104.95    1.31
  -3   3   6  106.41    1.08
  -3   3   6  105.47    1.08
  -3   3   5   22.99    0.48
  -3   3   5   23.03    0.48
   3   3  -5   23.60    0.53
  -3   3   4  273.21    1.75
   3   3  -4  275.80    1.81
   3   3  -3   72.16    0.84
  -3   3   3   71.04    0.84
  -3   3   2   25.68    0.51
   3   3  -2   24.40    0.46
   3   3  -2   25.01    0.53
  -3   3   2   24.78    0.46
   3   3  -1  238.31    1.65
  -3   3   1  237.39    1.53
   3   3   0   44.38    0.62
   3   3   0   45.12    0.67
  -3   3   0   44.62    0.64
  -3   3  -1   26.43    0.34
   3   3   1   27.46    0.50
  -3   3  -1   27.01    0.51
  -3   3  -2  136.26    0.91
   3   3   2  137.87    1.20
  -3   3  -2  134.01    1.25
  -3   3  -3   19.18    0.51
  -3   3  -3   20.88    0.51
  -3   3  -4   21.49    0.54
  -3   3  -4   22.38    0.57
  -3   3  -5   68.10    1.03
  -3   3  -5   71.45    1.08
  -3   3  -6   13.41    0.48
  -3   3  -6   13.80    0.50
  -3   3  -7   27.46    0.73
  -3   3  -8   22.07    0.69
  -3   3  -9    2.06    0.25
  -3   4  11   12.65    0.57
   3   4 -10    8.00    0.16
  -3   4   9    2.55    0.21
   3   4  -9    2.03    0.07
  -3   4   8   46.23    0.77
   3   4  -8   46.70    0.95
  -3   4   7   30.05    0.59
   3   4  -7   29.27    0.70
  -3   4   6   15.24    0.44
  -3   4   6   15.52    0.41
   3   4  -6   16.08    0.47
  -3   4   5   83.19    1.01
  -3   4   5   83.59    0.91
   3   4  -4   68.82    0.85
  -3   4   4   65.70    0.89
  -3   4   4   67.22    0.79
   3   4  -4   67.75    1.01
   3   4  -3   91.72    0.94
  -3   4   3   93.74    1.08
  -3   4   2  215.46    1.70
   3   4  -2  212.47    1.45
   3   4  -1    9.74    0.29
   3   4  -1    9.73    0.35
  -3   4   1   10.70    0.31
  -3   4   0  129.66    1.11
   3   4   0  132.43    1.26
   3   4   0  131.67    1.09
  -3   4  -1  233.14    1.60
   3   4   1  235.83    1.54
  -3   4  -2    0.50    0.10
  -3   4  -3  144.30    1.41
  -3   4  -3  141.34    1.36
  -3   4  -4   83.68    1.12
  -3   4  -4   80.42    1.06
  -3   4  -5    7.92    0.35
  -3   4  -5    8.51    0.38
  -3   4  -6   46.83    0.91
  -3   4  -6   47.25    0.92
  -3   4  -7   15.01    0.56
  -3   4  -8    5.25    0.36
  -3   4  -9   14.29    0.59
  -3   5  11    1.04    0.22
  -3   5  10   11.90    0.57
   3   5 -10   10.42    0.51
  -3   5   9   22.17    0.56
   3   5  -9   21.20    0.67
  -3   5   8    0.08    0.13
   3   5  -8    0.20    0.05
  -3   5   8    0.22    0.10
   3   5  -8    0.09    0.12
  -3   5   7   46.91    0.74
   3   5  -7   47.43    0.88
  -3   5   6   69.42    1.01
  -3   5   6   68.77    0.85
   3   5  -6   67.62    1.16
   3   5  -6   71.53    0.99
  -3   5   5    4.74    0.31
  -3   5   5    4.62    0.27
  -3   5   5    4.67    0.22
   3   5  -5    4.93    0.31
   3   5  -5    4.66    0.24
   3   5  -4  135.38    1.19
  -3   5   4  133.45    1.40
  -3   5   4  130.79    1.11
   3   5  -4  135.28    1.55
  -3   5   3   64.45    0.96
   3   5  -3   64.12    0.76
  -3   5   2    5.61    0.21
  -3   5   2    5.97    0.30
   3   5  -2    5.99    0.23
   3   5  -1  165.39    1.21
  -3   5   1  165.53    1.61
   3   5  -1  166.16    1.57
  -3   5   1  166.95    1.25
   3   5   0   44.93    0.61
  -3   5   0   45.69    0.64
  -3   5  -1   31.44    0.55
   3   5   1   32.20    0.53
  -3   5  -2   78.38    0.93
  -3   5  -2   81.18    0.99
  -3   5  -3   14.71    0.43
  -3   5  -3   15.09    0.45
  -3   5  -4   21.04    0.54
  -3   5  -4   21.93    0.57
  -3   5  -5   47.78    0.90
  -3   5  -5   45.94    0.84
  -3   5  -6    2.19    0.21
  -3   5  -6    2.33    0.23
  -3   5  -7   13.92    0.54
  -3   5  -8   13.82    0.56
   3   6 -11    9.11    0.51
  -3   6  10    6.21    0.45
   3   6 -10    5.83    0.40
  -3   6   9    3.91    0.36
   3   6  -9    4.16    0.32
  -3   6   9    3.73    0.24
  -3   6   8   28.53    0.60
  -3   6   8   29.55    0.89
   3   6  -8   27.39    0.43
   3   6  -8   27.90    0.70
  -3   6   7    9.97    0.34
  -3   6   7    9.86    0.51
   3   6  -7   10.07    0.40
  -3   6   6   13.85    0.57
  -3   6   6   14.68    0.39
   3   6  -6   14.66    0.43
  -3   6   5   50.25    1.00
   3   6  -5   50.20    0.73
  -3   6   5   52.10    0.93
  -3   6   5   48.86    0.67
  -3   6   4    6.90    0.33
  -3   6   4    6.90    0.35
  -3   6   4    6.62    0.24
   3   6  -4    6.80    0.25
   3   6  -4    7.39    0.38
  -3   6   3   35.33    0.60
  -3   6   3   36.34    0.78
  -3   6   3   35.26    0.52
   3   6  -3   37.24    0.81
   3   6  -3   36.83    0.55
   3   6  -2   82.27    0.81
  -3   6   2   82.76    1.19
  -3   6   1    0.71    0.14
   3   6  -1    0.26    0.07
   3   6   0   56.76    0.66
  -3   6   0   55.77    0.99
  -3   6   0   56.23    0.69
  -3   6  -1   67.16    1.11
  -3   6  -1   68.02    0.86
  -3   6  -1   66.93    0.80
  -3   6  -2    0.30    0.09
  -3   6  -2    0.31    0.10
  -3   6  -3   54.26    0.80
  -3   6  -3   58.67    0.89
  -3   6  -4   30.32    0.64
  -3   6  -4   33.58    0.71
  -3   6  -5    0.79    0.14
  -3   6  -5    1.26    0.17
  -3   6  -6   25.19    0.70
  -3   6  -6   22.26    0.62
  -3   6  -7    9.43    0.45
  -3   6  -8    1.54    0.22
  -3   7  10    4.18    0.40
   3   7 -10    3.98    0.32
  -3   7   9   10.46    0.59
   3   7  -9   10.39    0.46
   3   7  -8    0.09    0.10
  -3   7   8    0.05    0.15
  -3   7   7   19.65    0.72
  -3   7   7   20.69    0.48
   3   7  -7   19.91    0.52
  -3   7   6   21.49    0.70
  -3   7   6   20.95    0.45
   3   7  -6   21.29    0.49
  -3   7   5    0.57    0.09
  -3   7   5    0.54    0.14
   3   7  -5    0.56    0.10
  -3   7   4   49.86    0.61
   3   7  -4   52.38    0.65
   3   7  -3   35.18    0.50
  -3   7   3   32.17    0.46
   3   7  -2    5.21    0.19
  -3   7   2    4.91    0.18
  -3   7   0   26.75    0.49
  -3   7  -1   13.33    0.34
  -3   7  -1   11.72    0.35
  -3   7  -2   42.30    0.71
  -3   7  -2   39.84    0.62
  -3   7  -3    4.95    0.24
  -3   7  -3    5.26    0.28
  -3   7  -4    9.20    0.34
  -3   7  -4   10.63    0.41
  -3   7  -5   21.12    0.61
  -3   7  -5   19.87    0.53
  -3   7  -6    1.19    0.19
  -3   7  -7    7.54    0.41
  -3   7  -8    7.61    0.43
  -3   8   9    0.42    0.19
   3   8  -5   23.18    0.41
   3   8  -4    5.54    0.18
  -3   8   3   11.50    0.22
   3   8  -3   11.55    0.21
  -3   8   2   31.69    0.34
  -3   8   2   33.11    0.39
  -3   8   1    1.35    0.08
  -3   8   1    1.26    0.09
  -3   8   0   26.44    0.41
  -3   8  -1   29.20    0.49
  -3   8  -2    0.29    0.09
  -3   8  -3   26.27    0.56
   4  -9  -3   12.12    0.52
   4  -9  -2    0.07    0.11
   4  -9  -1   13.18    0.47
  -4  -9  -1    1.82    0.23
   4  -8  -2   20.42    0.59
  -4  -8   1    2.23    0.21
   4  -8  -1    2.21    0.20
  -4  -8   0    6.98    0.37
   4  -8   0    6.89    0.31
  -4  -8  -1   15.95    0.58
  -4  -8  -2    1.76    0.24
  -4  -8  -3    6.21    0.44
   4  -7  -6   24.87    0.58
   4  -7  -5    0.59    0.12
   4  -7  -4   24.42    0.53
   4  -7  -3   27.52    0.54
  -4  -7   2    0.28    0.10
   4  -7  -2    0.32    0.09
  -4  -7   1   34.31    0.71
   4  -7  -1   32.05    0.66
   4  -7  -1   32.90    0.59
  -4  -7   0   17.93    0.56
   4  -7   0   17.67    0.45
  -4  -7  -1    4.43    0.32
   4  -7   1    4.53    0.21
  -4  -7  -1    4.38    0.23
  -4  -7  -2   25.63    0.77
  -4  -7  -2   25.93    0.57
  -4  -7  -3    6.47    0.44
  -4  -7  -4    3.78    0.36
  -4  -7  -5   15.08    0.63
   4  -6 -11    5.41    0.39
   4  -6 -10    5.89    0.38
   4  -6  -9    0.22    0.13
   4  -6  -8   16.23    0.55
   4  -6  -7    9.33    0.39
  -4  -6   7    9.47    0.35
   4  -6  -6    3.58    0.25
  -4  -6   6    3.40    0.21
  -4  -6   5   39.80    0.66
   4  -6  -5   40.28    0.73
  -4  -6   4   14.31    0.40
   4  -6  -4   14.71    0.43
   4  -6  -3   15.05    0.42
   4  -6  -2   66.96    0.87
  -4  -6   2   67.81    0.87
  -4  -6   1   15.05    0.45
  -4  -6   1   14.63    0.40
   4  -6  -1   14.48    0.40
  -4  -6   0   28.19    0.67
   4  -6   0   27.71    0.52
   4  -6   0   28.77    0.58
  -4  -6   0   27.79    0.56
  -4  -6  -1   48.68    0.96
   4  -6   1   47.09    0.61
  -4  -6  -1   46.93    0.75
  -4  -6  -2    4.64    0.26
  -4  -6  -2    4.39    0.33
  -4  -6  -2    4.92    0.26
  -4  -6  -3   21.40    0.76
  -4  -6  -3   20.50    0.56
  -4  -6  -3   20.78    0.55
  -4  -6  -4   23.86    0.87
  -4  -6  -4   24.79    0.65
  -4  -6  -4   25.45    0.63
  -4  -6  -5    0.01    0.15
  -4  -6  -5    0.03    0.10
  -4  -6  -5    0.10    0.13
  -4  -6  -6    9.83    0.47
  -4  -6  -6   10.32    0.44
  -4  -6  -7    6.87    0.41
  -4  -6  -7    6.84    0.38
   4  -5 -11    1.68    0.24
   4  -5 -10    6.79    0.42
   4  -5  -9   22.90    0.70
   4  -5  -8    1.64    0.20
   4  -5  -7   20.75    0.59
  -4  -5   7   20.70    0.52
   4  -5  -6   56.16    0.92
  -4  -5   6   54.47    0.81
   4  -5  -5    2.39    0.20
  -4  -5   5    2.53    0.19
   4  -5  -4   51.22    0.81
  -4  -5   3   72.86    0.74
   4  -5  -3   75.13    0.96
   4  -5  -2    1.54    0.16
  -4  -5   2    1.65    0.14
  -4  -5   2    1.54    0.15
  -4  -5   1   65.19    0.88
   4  -5  -1   66.72    0.88
  -4  -5   1   64.88    0.86
   4  -5   0   47.83    0.75
  -4  -5   0   47.96    0.84
   4  -5   0   46.41    0.61
  -4  -5   0   47.30    0.75
   4  -5   1    6.10    0.28
  -4  -5  -1    5.80    0.28
  -4  -5  -1    6.21    0.35
   4  -5   1    5.82    0.19
  -4  -5  -2   78.25    1.31
  -4  -5  -2   77.16    1.05
  -4  -5  -3   10.70    0.53
  -4  -5  -3   11.17    0.43
  -4  -5  -3   11.22    0.41
  -4  -5  -4    8.42    0.39
  -4  -5  -4    9.05    0.41
  -4  -5  -4    8.34    0.38
  -4  -5  -5   29.26    0.74
  -4  -5  -5   28.78    0.71
  -4  -5  -6    5.63    0.34
  -4  -5  -6    5.16    0.32
  -4  -5  -7    6.50    0.36
  -4  -5  -7    6.62    0.39
   4  -4 -11   16.96    0.69
   4  -4 -10   11.58    0.54
   4  -4  -9    1.06    0.19
  -4  -4   8   47.70    0.81
   4  -4  -8   48.93    0.97
  -4  -4   7   16.20    0.46
   4  -4  -7   16.26    0.53
   4  -4  -6   22.47    0.59
  -4  -4   6   22.28    0.52
   4  -4  -5   85.79    1.11
  -4  -4   5   88.07    1.04
   4  -4  -4   15.78    0.45
  -4  -4   3   44.48    0.51
   4  -4  -3   46.03    0.77
  -4  -4   2  119.76    1.20
   4  -4  -2  121.36    1.25
   4  -4  -1   14.75    0.42
  -4  -4   1   14.65    0.40
  -4  -4   1   15.02    0.42
  -4  -4   0   53.39    0.81
  -4  -4   0   53.58    0.87
   4  -4   0   54.49    0.80
  -4  -4  -1   69.95    0.97
   4  -4   1   69.64    0.55
  -4  -4  -2    8.85    0.36
   4  -4   2    8.55    0.34
  -4  -4  -3   24.08    0.62
  -4  -4  -3   24.79    0.62
  -4  -4  -4   47.76    0.93
  -4  -4  -4   48.06    0.90
  -4  -4  -5    0.93    0.15
  -4  -4  -5    0.95    0.16
  -4  -4  -6   17.00    0.52
  -4  -4  -6   16.99    0.58
  -4  -4  -7   11.88    0.44
  -4  -4  -7   11.47    0.49
  -4  -4  -8    0.14    0.13
   4  -3 -12    4.84    0.32
   4  -3 -11    1.70    0.20
   4  -3 -11    1.69    0.26
   4  -3 -10    8.43    0.47
   4  -3  -9   28.51    0.79
  -4  -3   8    7.68    0.33
   4  -3  -8    8.46    0.41
  -4  -3   7   21.97    0.54
   4  -3  -7   22.10    0.62
  -4  -3   6  123.06    1.27
   4  -3  -6  121.60    1.39
   4  -3  -5   13.14    0.43
   4  -3  -4   87.44    1.08
  -4  -3   3  161.90    0.93
   4  -3  -3  161.90    1.45
  -4  -3   3  163.05    1.42
   4  -3  -2    1.73    0.17
  -4  -3   2    1.58    0.15
   4  -3  -1  173.85    1.47
  -4  -3   1  169.26    1.44
  -4  -3   0  119.44    1.23
   4  -3   0  123.90    1.25
  -4  -3  -1   19.66    0.51
   4  -3   1   18.95    0.21
  -4  -3  -2  157.40    1.53
   4  -3   2  159.09    1.46
  -4  -3  -3   31.67    0.79
  -4  -3  -3   30.90    0.70
  -4  -3  -4   30.30    0.78
  -4  -3  -4   30.04    0.72
  -4  -3  -4   30.27    0.75
  -4  -3  -5   56.30    0.85
  -4  -3  -5   57.13    1.03
  -4  -3  -6    6.12    0.29
  -4  -3  -6    6.37    0.38
  -4  -3  -7   12.53    0.41
  -4  -3  -7   13.33    0.54
  -4  -3  -8   12.74    0.55
   4  -2 -12    0.14    0.11
   4  -2 -12    0.02    0.17
   4  -2 -11   18.05    0.52
   4  -2 -11   19.13    0.73
   4  -2 -10   23.60    0.77
   4  -2  -9    3.07    0.29
  -4  -2   8   65.08    0.96
   4  -2  -8   66.98    1.14
  -4  -2   7   26.95    0.60
   4  -2  -7   27.03    0.69
  -4  -2   6   32.38    0.64
   4  -2  -6   32.51    0.71
   4  -2  -5  120.57    1.32
   4  -2  -4   27.09    0.60
   4  -2  -3   67.84    0.92
  -4  -2   3   68.83    0.91
   4  -2  -2  195.71    1.59
  -4  -2   2  195.67    1.56
   4  -2  -1   16.47    0.45
  -4  -2   1   16.90    0.44
  -4  -2   0   58.48    0.85
   4  -2   0   58.11    0.84
  -4  -2  -1  133.07    1.36
   4  -2   1  138.27    1.34
  -4  -2  -2   14.58    0.46
   4  -2   2   14.89    0.44
  -4  -2  -3   47.16    0.93
  -4  -2  -3   44.28    0.84
  -4  -2  -4   71.08    1.15
  -4  -2  -4   71.58    1.13
  -4  -2  -4   72.80    1.15
  -4  -2  -5    1.18    0.18
  -4  -2  -5    1.31    0.18
  -4  -2  -5    1.24    0.19
  -4  -2  -6   28.09    0.76
  -4  -2  -7   18.75    0.43
  -4  -2  -7   19.29    0.65
  -4  -2  -8    0.03    0.14
   4  -1 -12   10.43    0.37
   4  -1 -12   11.16    0.59
   4  -1 -11    1.69    0.16
   4  -1 -11    1.86    0.27
   4  -1 -10   12.70    0.57
   4  -1  -9   59.73    1.15
  -4  -1   8    4.40    0.26
   4  -1  -8    6.40    0.36
  -4  -1   7   60.83    0.89
   4  -1  -7   62.58    1.04
  -4  -1   6  124.32    1.27
   4  -1  -6  125.23    1.42
   4  -1  -5   18.89    0.52
   4  -1  -4  181.31    1.58
  -4  -1   4  183.74    0.80
   4  -1  -3  153.34    1.41
  -4  -1   3  161.92    1.41
   4  -1  -2    1.20    0.14
  -4  -1   2    1.13    0.14
  -4  -1   1  177.65    1.49
   4  -1  -1  182.93    1.53
  -4  -1   0  137.70    1.34
   4  -1   0  140.76    1.34
  -4  -1  -1   24.28    0.57
   4  -1   1   23.44    0.26
   4  -1   1   23.80    0.54
   4  -1   2  173.07    1.54
  -4  -1  -2  172.52    1.63
   4  -1   3   31.94    0.66
  -4  -1  -3   31.09    0.71
  -4  -1  -4   21.52    0.61
  -4  -1  -4   21.90    0.63
  -4  -1  -4   20.79    0.60
  -4  -1  -5   68.08    1.11
  -4  -1  -5   70.20    1.17
  -4  -1  -6   12.15    0.49
  -4  -1  -6   13.12    0.53
  -4  -1  -7   12.26    0.53
  -4  -1  -8   19.11    0.68
   4   0 -12   -0.03    0.15
   4   0 -11   18.01    0.71
   4   0 -10   20.45    0.71
   4   0  -9    2.01    0.25
  -4   0   8   36.38    0.71
   4   0  -8   38.39    0.88
  -4   0   7   61.44    0.90
   4   0  -7   63.93    1.04
  -4   0   6   30.48    0.61
   4   0  -6   35.01    0.74
  -4   0   5  141.22    0.81
   4   0  -5  139.90    1.42
   4   0  -4   38.83    0.71
  -4   0   4   39.54    0.43
   4   0  -3   34.14    0.65
  -4   0   3   34.82    0.64
   4   0  -2  331.30    2.12
  -4   0   2  326.44    2.09
  -4   0   1   35.08    0.64
   4   0  -1   36.11    0.66
   4   0   0  114.48    1.19
  -4   0   0  115.09    1.21
   4   0   0  114.19    0.85
  -4   0  -1  177.26    1.57
   4   0   1  179.06    1.52
   4   0   2   19.95    0.51
  -4   0  -2   19.27    0.53
  -4   0  -3   78.15    1.07
   4   0   3   75.72    1.02
  -4   0  -3   75.41    1.11
  -4   0  -4  103.02    1.28
  -4   0  -4   99.23    1.32
  -4   0  -5    0.33    0.13
  -4   0  -5    0.29    0.13
  -4   0  -6   35.58    0.87
  -4   0  -7   18.99    0.65
  -4   0  -8    0.60    0.17
  -4   1   8    4.69    0.27
  -4   1   7   57.78    0.87
  -4   1   6  128.43    0.94
  -4   1   5   16.85    0.33
  -4   1   4  181.14    1.18
   4   1   0  138.10    1.06
   4   1   1   23.14    0.39
  -4   1  -3   32.65    0.64
  -4   1  -4   21.40    0.54
  -4   1  -5   65.65    0.99
   4   2 -12   -0.01    0.16
   4   2 -11   17.09    0.72
   4   2 -10   22.78    0.76
   4   2  -9    2.62    0.27
  -4   2   8   66.46    0.96
   4   2  -8   68.14    1.17
  -4   2   7   24.44    0.56
   4   2  -7   25.41    0.68
  -4   2   6   31.29    0.52
  -4   2   6   31.98    0.64
   4   2  -6   32.69    0.71
   4   2  -5  119.47    1.32
  -4   2   5  118.83    1.03
   4   2  -4   27.99    0.60
  -4   2   4   27.66    0.49
   4   2  -3   69.53    0.93
  -4   2   3   69.40    0.81
  -4   2   3   69.23    0.90
   4   2  -2  192.54    1.57
  -4   2   2  194.56    1.55
  -4   2   1   17.66    0.46
   4   2  -1   17.79    0.42
   4   2  -1   17.95    0.46
  -4   2   0   57.39    0.85
   4   2   0   57.85    0.82
   4   2   0   56.31    0.72
  -4   2  -1  134.38    1.36
   4   2   1  137.86    1.32
  -4   2  -2   14.80    0.38
  -4   2  -2   15.07    0.47
   4   2   2   15.01    0.44
  -4   2  -3   43.27    0.69
  -4   2  -3   44.30    0.83
  -4   2  -4   68.24    0.91
  -4   2  -4   70.75    1.11
  -4   2  -5    1.29    0.18
  -4   2  -5    1.14    0.17
  -4   2  -6   28.58    0.78
  -4   2  -7   19.59    0.67
  -4   2  -8    0.01    0.13
   4   3 -11    1.87    0.27
   4   3 -10    8.66    0.49
   4   3  -9   27.72    0.79
  -4   3   8    7.29    0.33
   4   3  -8    7.40    0.39
  -4   3   7   21.78    0.53
   4   3  -7   21.75    0.63
  -4   3   6  121.87    1.18
  -4   3   6  122.31    1.26
   4   3  -6  122.76    1.40
   4   3  -5   13.76    0.44
  -4   3   5   13.31    0.38
   4   3  -4   86.59    1.07
  -4   3   4   82.82    0.96
  -4   3   3  167.02    1.42
   4   3  -3  167.82    1.48
  -4   3   3  167.97    1.43
   4   3  -3  165.45    1.54
   4   3  -2    2.16    0.18
   4   3  -2    2.02    0.17
  -4   3   2    1.94    0.17
   4   3  -1  173.77    1.46
   4   3  -1  170.54    1.46
  -4   3   1  173.00    1.47
  -4   3   0  119.81    1.23
   4   3   0  119.48    1.17
   4   3   1   20.10    0.49
  -4   3  -1   19.41    0.51
  -4   3  -2  160.70    1.18
  -4   3  -2  159.78    1.54
   4   3   2  160.51    1.46
  -4   3  -3   29.72    0.68
  -4   3  -4   31.21    0.75
  -4   3  -4   29.92    0.72
  -4   3  -5   57.50    1.06
  -4   3  -6    6.57    0.39
  -4   3  -7   13.71    0.56
  -4   3  -8   13.08    0.57
   4   4 -11   16.07    0.68
   4   4 -10   10.74    0.54
   4   4  -9    1.07    0.20
  -4   4   8   46.25    0.79
   4   4  -8   49.18    1.00
  -4   4   7   15.53    0.46
  -4   4   7   16.01    0.46
   4   4  -7   16.34    0.54
  -4   4   6   21.81    0.53
  -4   4   6   22.41    0.53
   4   4  -6   22.45    0.59
   4   4  -5   87.80    1.11
  -4   4   5   84.78    1.05
  -4   4   5   84.39    1.00
   4   4  -4   13.83    0.42
  -4   4   4   13.71    0.43
   4   4  -4   13.38    0.47
  -4   4   3   45.66    0.79
   4   4  -3   45.28    0.74
   4   4  -3   45.29    0.84
  -4   4   2  118.43    1.31
   4   4  -2  117.70    1.32
  -4   4   2  118.81    1.18
   4   4  -2  119.83    1.20
   4   4  -1   15.10    0.42
   4   4  -1   15.94    0.47
  -4   4   1   15.09    0.42
  -4   4   0   55.39    0.82
   4   4   0   54.90    0.83
   4   4   0   56.06    0.80
  -4   4  -1   68.87    0.56
  -4   4  -1   68.66    0.95
   4   4   1   70.45    0.92
  -4   4  -2    8.64    0.36
   4   4   2    8.98    0.34
  -4   4  -3   23.90    0.61
  -4   4  -3   24.79    0.64
  -4   4  -4   48.96    0.91
  -4   4  -4   50.67    0.95
  -4   4  -5    1.04    0.18
  -4   4  -6   17.03    0.60
  -4   4  -7   11.29    0.51
  -4   5  11    1.45    0.25
   4   5 -11    1.42    0.25
   4   5 -10    6.83    0.43
   4   5  -9   22.68    0.72
  -4   5   8    2.14    0.19
   4   5  -8    1.75    0.21
  -4   5   7   21.52    0.57
  -4   5   7   20.31    0.51
   4   5  -7   21.52    0.61
   4   5  -6   56.67    0.93
  -4   5   6   57.20    0.94
  -4   5   6   55.47    0.82
   4   5  -5    2.56    0.21
  -4   5   5    2.49    0.21
  -4   5   5    2.85    0.19
  -4   5   4   51.48    0.90
   4   5  -4   50.03    0.79
  -4   5   3   74.29    1.08
   4   5  -3   73.65    1.13
   4   5  -3   72.81    0.94
   4   5  -2    1.50    0.15
  -4   5   2    1.73    0.19
   4   5  -2    1.66    0.19
  -4   5   2    1.75    0.16
  -4   5   1   66.70    1.06
   4   5  -1   64.03    0.99
   4   5  -1   65.69    0.86
  -4   5   1   64.37    0.87
   4   5   0   48.40    0.74
  -4   5   0   47.92    0.76
   4   5   1    5.92    0.27
  -4   5  -1    6.00    0.29
  -4   5  -2   78.69    1.06
  -4   5  -2   82.82    1.13
  -4   5  -3   11.23    0.42
  -4   5  -3   11.62    0.45
  -4   5  -4    8.43    0.39
  -4   5  -4    8.62    0.40
  -4   5  -5   32.75    0.79
  -4   5  -6    5.86    0.36
  -4   5  -7    6.59    0.40
   4   6 -11    4.70    0.38
  -4   6  10    6.26    0.44
   4   6 -10    5.99    0.40
   4   6  -9    0.23    0.14
  -4   6   9    0.35    0.18
  -4   6   8   16.59    0.66
  -4   6   8   15.41    0.45
   4   6  -8   15.09    0.54
   4   6  -7    9.17    0.39
  -4   6   7    9.63    0.49
  -4   6   7    8.97    0.34
  -4   6   6    3.78    0.30
   4   6  -6    3.76    0.25
  -4   6   6    3.54    0.22
  -4   6   5   40.42    0.67
   4   6  -5   40.84    0.73
  -4   6   4   13.27    0.45
  -4   6   4   13.96    0.39
   4   6  -4   13.99    0.41
  -4   6   3   14.62    0.38
   4   6  -3   15.14    0.41
   4   6  -2   66.37    0.84
  -4   6   1   14.47    0.41
   4   6  -1   14.71    0.40
  -4   6   0   28.71    0.59
   4   6   0   28.00    0.55
  -4   6  -1   49.79    0.84
  -4   6  -1   48.08    0.78
  -4   6  -2    4.70    0.26
  -4   6  -2    5.06    0.29
  -4   6  -3   20.55    0.56
  -4   6  -3   22.80    0.62
  -4   6  -4   24.32    0.63
  -4   6  -4   26.53    0.69
  -4   6  -5    0.05    0.11
  -4   6  -6   10.56    0.48
  -4   6  -7    7.39    0.43
  -4   7  10    3.01    0.34
   4   7  -9    9.21    0.44
  -4   7   9    8.80    0.53
   4   7  -8    1.69    0.20
  -4   7   8    1.11    0.22
  -4   7   7   10.65    0.52
   4   7  -7   11.33    0.42
  -4   7   6   24.14    0.72
  -4   7   6   24.66    0.52
   4   7  -6   25.96    0.59
  -4   7   5    0.52    0.13
  -4   7   5    0.57    0.11
   4   7  -5    0.65    0.12
  -4   7   4   23.97    0.51
  -4   7   4   23.85    0.48
   4   7  -3   27.10    0.52
  -4   7   3   24.99    0.49
   4   7  -2    0.26    0.09
   4   7  -1   32.91    0.56
  -4   7   0   17.95    0.45
  -4   7   0   17.97    0.49
  -4   7  -1    5.37    0.29
  -4   7  -1    4.70    0.25
  -4   7  -2   29.76    0.68
  -4   7  -2   26.06    0.59
  -4   7  -3    5.74    0.29
  -4   7  -3    6.37    0.34
  -4   7  -4    4.54    0.30
  -4   7  -5   15.14    0.55
  -4   7  -6    1.93    0.24
  -4   8   1    2.10    0.17
  -4   8   0    7.02    0.30
   5  -8  -3    1.78    0.21
   5  -8  -2   16.87    0.51
   5  -7  -4    6.72    0.31
   5  -7  -3   18.04    0.50
   5  -7  -2    0.53    0.13
  -5  -7   1   11.76    0.43
   5  -7  -1   12.03    0.38
   5  -7  -1   12.06    0.41
  -5  -7   0   17.51    0.57
   5  -7   0   17.83    0.41
  -5  -7  -1    0.40    0.15
  -5  -7  -2   16.66    0.65
  -5  -7  -3    7.76    0.48
   5  -6 -10    5.80    0.38
   5  -6  -9    0.02    0.13
   5  -6  -8   14.54    0.54
   5  -6  -7   13.72    0.50
   5  -6  -6    2.32    0.22
  -5  -6   5   34.87    0.69
   5  -6  -5   34.89    0.75
   5  -6  -4   14.59    0.48
   5  -6  -3    5.82    0.30
  -5  -6   3    5.75    0.23
  -5  -6   2   34.93    0.63
   5  -6  -2   36.65    0.73
   5  -6  -1    9.00    0.36
  -5  -6   1    8.42    0.35
  -5  -6   1    8.62    0.35
  -5  -6   0    9.82    0.42
   5  -6   0    9.83    0.28
  -5  -6   0    9.77    0.38
   5  -6   0    9.69    0.38
  -5  -6  -1   20.27    0.65
  -5  -6  -1   19.89    0.56
  -5  -6  -2    1.70    0.23
  -5  -6  -2    1.96    0.19
  -5  -6  -3    5.23    0.40
  -5  -6  -3    4.79    0.29
  -5  -6  -4    8.63    0.53
  -5  -6  -4   10.23    0.43
  -5  -6  -5    0.37    0.13
   5  -5 -10    2.81    0.29
   5  -5  -9   13.00    0.55
   5  -5  -8    5.54    0.35
   5  -5  -7    7.88    0.39
   5  -5  -6   23.48    0.64
  -5  -5   6   23.28    0.58
   5  -5  -5    4.54    0.29
  -5  -5   5    4.36    0.26
   5  -5  -4   18.69    0.54
  -5  -5   3   36.63    0.52
   5  -5  -3   39.51    0.78
   5  -5  -2    1.51    0.17
  -5  -5   2    1.44    0.14
  -5  -5   2    1.39    0.17
  -5  -5   1   33.23    0.67
   5  -5  -1   33.44    0.70
  -5  -5   1   31.39    0.67
   5  -5   0   38.30    0.75
  -5  -5   0   37.56    0.81
   5  -5   0   36.65    0.49
  -5  -5   0   36.99    0.75
  -5  -5  -1    0.01    0.10
  -5  -5  -1    0.13    0.12
   5  -5   1    0.03    0.10
  -5  -5  -2   27.89    0.81
  -5  -5  -3   21.47    0.62
  -5  -5  -4    1.27    0.18
  -5  -5  -5   13.84    0.54
   5  -4 -10   10.11    0.51
   5  -4  -9    0.37    0.16
   5  -4  -8   14.82    0.56
   5  -4  -7   28.96    0.74
   5  -4  -6    0.62    0.15
  -5  -4   6    0.57    0.13
   5  -4  -5   66.68    1.06
   5  -4  -4   39.92    0.81
  -5  -4   3    3.39    0.16
  -5  -4   3    3.35    0.24
   5  -4  -3    3.18    0.24
   5  -4  -2   94.36    1.20
  -5  -4   2   96.36    1.00
  -5  -4   2   96.47    1.19
  -5  -4   1   27.45    0.60
   5  -4  -1   27.11    0.64
  -5  -4   1   26.85    0.63
   5  -4   0   16.62    0.50
  -5  -4   0   17.05    0.51
  -5  -4  -1   61.43    1.01
   5  -4   1   61.29    0.97
  -5  -4  -2    4.71    0.30
   5  -4   2    4.66    0.29
  -5  -4  -3   19.60    0.61
  -5  -4  -4   23.02    0.68
  -5  -4  -5    0.65    0.16
  -5  -4  -6   11.90    0.53
   5  -3 -11    4.36    0.38
   5  -3 -10    5.51    0.39
   5  -3  -9   36.62    0.92
   5  -3  -8    6.26    0.38
   5  -3  -7   25.82    0.71
   5  -3  -6   34.67    0.79
   5  -3  -5    4.89    0.30
  -5  -3   4   44.96    0.33
   5  -3  -4   46.94    0.86
  -5  -3   3   53.40    0.59
  -5  -3   3   53.96    0.89
   5  -3  -3   52.60    0.90
   5  -3  -2    0.21    0.11
  -5  -3   2    0.49    0.12
   5  -3  -1   40.07    0.78
  -5  -3   1   38.74    0.76
  -5  -3   0   53.89    0.92
   5  -3   0   55.35    0.91
   5  -3   1    0.34    0.12
  -5  -3  -1    0.23    0.11
  -5  -3  -2   41.70    0.86
   5  -3   2   42.62    0.82
  -5  -3  -4    0.67    0.17
  -5  -3  -5   19.61    0.65
  -5  -3  -6   12.07    0.54
   5  -2 -11    7.07    0.46
   5  -2 -10   10.27    0.53
   5  -2  -9    0.67    0.18
   5  -2  -8   27.47    0.77
   5  -2  -7   49.95    0.99
  -5  -2   7   49.07    0.86
   5  -2  -6    2.85    0.25
   5  -2  -5  100.41    1.30
   5  -2  -4   62.50    1.00
   5  -2  -3    8.23    0.37
  -5  -2   3    8.16    0.35
  -5  -2   2  140.65    1.46
   5  -2  -2  146.46    1.53
   5  -2  -1   50.12    0.86
  -5  -2   1   50.32    0.87
  -5  -2   0   38.87    0.79
   5  -2   0   38.62    0.76
   5  -2   1   84.53    1.15
  -5  -2  -1   81.33    1.17
  -5  -2  -2    5.93    0.34
   5  -2   2    6.36    0.33
   5  -2   3   24.51    0.64
  -5  -2  -4   43.20    0.97
  -5  -2  -5    0.29    0.15
  -5  -2  -6   17.44    0.65
   5  -1 -11    5.47    0.41
   5  -1 -10    6.75    0.44
   5  -1  -9   35.18    0.91
   5  -1  -8    6.95    0.39
  -5  -1   7   10.09    0.40
   5  -1  -7   10.58    0.46
   5  -1  -6   70.06    1.12
   5  -1  -5    6.76    0.35
  -5  -1   5    6.61    0.12
   5  -1  -4   30.98    0.71
  -5  -1   4   31.25    0.67
   5  -1  -3  106.57    1.31
  -5  -1   3  108.24    1.26
   5  -1  -2    2.54    0.22
  -5  -1   2    2.68    0.22
   5  -1  -1   84.98    1.13
  -5  -1   1   81.69    1.11
  -5  -1   0   79.29    1.12
   5  -1   0   82.83    1.14
  -5  -1  -1    1.88    0.20
   5  -1   1    1.73    0.08
   5  -1   1    1.62    0.18
  -5  -1  -2   88.68    1.27
   5  -1   2   90.15    1.19
  -5  -1  -3   49.20    0.98
   5  -1   3   47.35    0.88
  -5  -1  -4    2.25    0.24
  -5  -1  -4    2.28    0.25
  -5  -1  -5   33.42    0.89
  -5  -1  -6   15.05    0.62
   5   0 -11    9.84    0.53
   5   0 -10   13.85    0.61
   5   0  -9    0.47    0.17
   5   0  -8   62.06    1.14
  -5   0   7   36.86    0.76
   5   0  -7   36.12    0.85
   5   0  -6    5.14    0.31
  -5   0   6    5.10    0.14
   5   0  -5  113.75    1.39
  -5   0   5  114.33    0.80
   5   0  -4   75.33    1.10
  -5   0   4   80.32    1.07
   5   0  -3   36.57    0.75
  -5   0   3   36.18    0.72
   5   0  -2  102.94    1.27
  -5   0   2  101.52    1.23
  -5   0   1   46.99    0.84
   5   0  -1   47.35    0.84
  -5   0   0   37.21    0.76
   5   0   0   37.08    0.74
   5   0   0   37.88    0.52
  -5   0  -1   80.98    1.17
   5   0   1   78.10    0.66
   5   0   1   81.77    1.12
  -5   0  -2    4.23    0.29
   5   0   2    4.24    0.27
  -5   0  -3   16.78    0.55
   5   0   3   15.84    0.51
  -5   0  -4   42.06    0.88
  -5   0  -4   45.15    1.00
  -5   0  -5    0.87    0.17
  -5   0  -5    0.91    0.19
  -5   0  -6   12.61    0.57
  -5   1   7   10.95    0.42
  -5   1   6   67.65    0.69
  -5   1   5    7.42    0.24
  -5   1   4   33.60    0.53
   5   1  -1   78.74    0.88
   5   1   0   77.43    0.82
  -5   1  -2   91.29    1.18
  -5   1  -3   47.78    0.86
  -5   1  -4    2.09    0.21
  -5   1  -5   31.01    0.72
   5   2 -11    6.53    0.45
   5   2 -10   10.95    0.55
   5   2  -9    1.06    0.20
   5   2  -8   27.05    0.76
   5   2  -7   52.55    1.01
  -5   2   7   51.24    0.69
  -5   2   7   50.67    0.88
   5   2  -6    1.95    0.22
  -5   2   6    2.00    0.15
   5   2  -5  105.56    1.34
  -5   2   5  102.20    1.01
   5   2  -4   60.93    0.99
  -5   2   4   61.59    0.80
  -5   2   4   58.81    0.91
   5   2  -3    7.60    0.35
  -5   2   3    6.88    0.33
   5   2  -2  150.67    1.54
  -5   2   2  145.50    1.48
   5   2  -1   48.96    0.85
   5   2  -1   49.01    0.74
  -5   2   1   49.76    0.87
  -5   2   0   38.84    0.78
   5   2   0   37.92    0.63
   5   2   0   38.11    0.75
   5   2   1   83.77    1.13
  -5   2  -1   83.03    1.18
  -5   2  -2    6.22    0.29
  -5   2  -2    6.05    0.34
   5   2   2    5.86    0.32
  -5   2  -3   25.99    0.59
  -5   2  -4   38.89    0.74
  -5   2  -4   42.36    0.97
  -5   2  -5    0.32    0.16
  -5   2  -6   16.99    0.66
   5   3 -11    4.01    0.37
   5   3 -10    5.39    0.40
   5   3  -9   35.60    0.92
   5   3  -8    6.06    0.38
   5   3  -7   25.87    0.71
  -5   3   7   25.06    0.53
  -5   3   7   25.45    0.62
   5   3  -6   33.73    0.78
  -5   3   6   32.23    0.61
   5   3  -5    5.29    0.31
  -5   3   5    5.48    0.26
  -5   3   4   47.39    0.77
   5   3  -4   47.66    0.87
  -5   3   3   53.61    0.84
   5   3  -3   52.92    0.90
   5   3  -3   50.69    0.87
  -5   3   3   52.57    0.87
   5   3  -2    0.24    0.10
  -5   3   2    0.15    0.10
   5   3  -2    0.14    0.10
   5   3  -1   40.23    0.77
   5   3  -1   40.07    0.72
  -5   3   1   38.64    0.76
  -5   3   0   55.13    0.93
   5   3   0   53.41    0.80
   5   3   0   55.33    0.90
  -5   3  -1    0.58    0.10
   5   3   1    0.52    0.12
  -5   3  -1    0.42    0.13
   5   3   2   41.51    0.79
  -5   3  -2   40.13    0.64
  -5   3  -2   39.99    0.84
  -5   3  -3   33.04    0.60
  -5   3  -4    0.59    0.16
  -5   3  -5   19.09    0.66
  -5   3  -6   12.00    0.55
   5   4 -10   10.39    0.54
   5   4  -9    0.51    0.16
   5   4  -8   15.55    0.58
   5   4  -7   29.81    0.76
  -5   4   7   28.30    0.62
  -5   4   6    0.52    0.12
   5   4  -6    0.44    0.14
  -5   4   6    0.51    0.13
  -5   4   5   64.96    0.96
   5   4  -5   67.45    1.06
  -5   4   4   39.36    0.75
   5   4  -4   40.76    0.80
   5   4  -4   37.95    0.82
  -5   4   3    3.80    0.26
   5   4  -3    3.59    0.26
  -5   4   3    3.28    0.24
   5   4  -3    3.87    0.26
   5   4  -2   95.42    1.18
   5   4  -2   93.62    1.22
  -5   4   2   95.23    1.18
   5   4  -1   28.07    0.63
   5   4  -1   26.16    0.62
  -5   4   1   27.35    0.64
  -5   4   0   16.04    0.50
   5   4   0   16.47    0.49
  -5   4  -1   60.24    0.66
  -5   4  -1   61.34    0.99
   5   4   1   63.15    0.96
   5   4   2    4.85    0.28
  -5   4  -3   20.11    0.64
  -5   4  -4   24.12    0.73
  -5   4  -5    0.80    0.19
  -5   4  -6   12.61    0.56
   5   5 -10    2.95    0.30
   5   5  -9   13.11    0.57
   5   5  -8    5.57    0.35
   5   5  -7    8.07    0.40
   5   5  -6   23.65    0.64
  -5   5   6   24.97    0.60
   5   5  -5    4.57    0.28
   5   5  -4   19.38    0.55
   5   5  -3   39.32    0.76
   5   5  -2    1.40    0.17
  -5   5   2    1.66    0.18
   5   5  -1   34.31    0.69
  -5   5   1   34.05    0.72
   5   5   0   38.44    0.74
  -5   5   0   36.80    0.75
  -5   5  -1    0.34    0.12
   5   5   1    0.08    0.09
  -5   5  -3   24.08    0.70
  -5   5  -4    1.48    0.21
  -5   5  -5   14.21    0.57
   5   6 -10    6.08    0.40
  -5   6  10    6.19    0.42
  -5   6   9    0.10    0.14
   5   6  -9    0.13    0.13
   5   6  -8   14.04    0.54
   5   6  -7   13.46    0.50
  -5   6   6    2.27    0.20
   5   6  -6    2.55    0.23
  -5   6   5   33.55    0.67
   5   6  -5   35.00    0.73
   5   6  -4   15.00    0.47
  -5   6   3    5.73    0.24
   5   6  -3    6.20    0.30
   5   6  -2   36.30    0.72
  -5   6   2   34.55    0.69
   5   6  -1    9.14    0.36
  -5   6   1    9.11    0.37
  -5   6   0   10.41    0.40
   5   6   0   10.61    0.39
  -5   6  -1   21.84    0.59
  -5   6  -2    1.80    0.21
  -5   6  -3    4.92    0.33
  -5   6  -4   12.27    0.52
  -5   6  -5    0.39    0.16
   5   7  -8    1.02    0.17
   5   7  -7    3.02    0.24
   5   7  -6    9.42    0.38
   5   7  -5    2.10    0.19
   5   7  -4    6.37    0.30
   5   7  -3   18.28    0.50
   5   7  -2    0.52    0.12
  -5   7   1   11.50    0.40
   5   7  -1   12.74    0.41
  -5   7  -1    0.32    0.13
  -5   7  -2   17.58    0.57
  -5   7  -3    9.57    0.45
  -5   7  -4    0.56    0.16
   6  -6  -8    3.31    0.29
   6  -6  -7    8.41    0.43
   6  -6  -6    0.57    0.15
   6  -6  -5    7.42    0.38
   6  -6  -4   14.07    0.50
   6  -6  -3    0.13    0.11
   6  -6  -2   13.79    0.49
   6  -6  -1   12.46    0.46
   6  -6   0    0.69    0.16
  -6  -6  -2    3.46    0.32
  -6  -6  -2    3.82    0.27
   6  -5  -8    3.22    0.29
   6  -5  -7    3.62    0.30
   6  -5  -6   20.03    0.64
   6  -5  -5    3.71    0.29
   6  -5  -4   13.21    0.50
   6  -5  -3   26.80    0.69
   6  -5  -2    1.45    0.20
  -6  -5   1   14.17    0.46
   6  -5  -1   15.28    0.52
  -6  -5   0   15.90    0.55
   6  -5   0   17.06    0.55
  -6  -5  -1    0.42    0.15
   6  -5   1    0.66    0.14
  -6  -5  -2    6.75    0.42
  -6  -5  -3    8.18    0.41
   6  -4  -9    0.24    0.15
   6  -4  -8   11.35    0.52
   6  -4  -7   18.89    0.64
   6  -4  -6    0.24    0.14
   6  -4  -5   19.68    0.62
   6  -4  -4   21.05    0.64
   6  -4  -3    0.28    0.13
  -6  -4   3    0.36    0.08
  -6  -4   2   21.85    0.50
   6  -4  -2   22.36    0.64
   6  -4  -1   16.96    0.55
   6  -4   0    2.33    0.23
   6  -4   0    2.14    0.08
   6  -4   1   25.93    0.69
   6  -4   2    7.64    0.39
  -6  -4  -3    3.10    0.29
   6  -3  -9   10.46    0.52
   6  -3  -8    9.00    0.47
   6  -3  -7    3.07    0.28
   6  -3  -6   34.46    0.84
   6  -3  -5    8.21    0.42
  -6  -3   4   12.40    0.22
   6  -3  -4   12.69    0.50
   6  -3  -3   61.11    1.07
   6  -3  -2    5.89    0.34
   6  -3  -1   30.09    0.74
   6  -3   0   34.39    0.32
   6  -3   0   38.99    0.84
   6  -3   1    1.14    0.18
   6  -3   2   19.00    0.59
  -6  -3  -4    0.24    0.16
   6  -2  -9    0.10    0.14
   6  -2  -8   18.27    0.66
   6  -2  -7   20.62    0.68
   6  -2  -6    0.77    0.16
   6  -2  -5   31.42    0.78
   6  -2  -4   33.84    0.80
   6  -2  -3    0.64    0.16
   6  -2  -2   34.05    0.78
   6  -2  -1   28.74    0.71
   6  -2   0    2.39    0.10
   6  -2   0    2.75    0.25
   6  -2   1   42.54    0.88
   6  -2   2   11.54    0.47
  -6  -2  -4   21.46    0.74
   6  -1  -9   18.72    0.69
   6  -1  -8   14.10    0.58
   6  -1  -7   12.79    0.54
   6  -1  -6   42.83    0.93
  -6  -1   5    8.54    0.18
   6  -1  -5    9.02    0.43
   6  -1  -4   27.85    0.73
   6  -1  -3   70.05    1.14
   6  -1  -2    2.30    0.23
   6  -1  -1   35.16    0.79
   6  -1   0   35.92    0.45
   6  -1   0   37.69    0.82
   6  -1   1    0.83    0.16
   6  -1   2   18.27    0.59
  -6  -1  -4    0.26    0.16
   6   0 -10   10.31    0.54
   6   0  -9    0.05    0.14
   6   0  -8   10.16    0.50
   6   0  -7   27.40    0.78
  -6   0   6    2.60    0.12
   6   0  -6    2.60    0.25
  -6   0   5   30.83    0.45
   6   0  -5   30.34    0.77
   6   0  -4   38.13    0.85
   6   0  -3    0.76    0.16
   6   0  -2   49.76    0.94
   6   0  -1   46.55    0.91
   6   0  -1   42.09    0.62
   6   0   0    2.69    0.15
   6   0   0    3.10    0.26
   6   0   1   60.24    1.04
  -6   0  -2   15.64    0.56
   6   0   2   15.24    0.54
   6   0   3    7.18    0.38
  -6   0  -4   33.16    0.94
  -6   1   6   42.29    0.57
  -6   1   5    8.40    0.27
  -6   1   4   27.47    0.52
   6   1  -2    2.63    0.19
   6   1  -1   34.60    0.61
   6   1   0   36.44    0.57
  -6   1  -2   19.11    0.60
  -6   1  -3   20.18    0.61
   6   2  -9    0.04    0.13
   6   2  -8   18.31    0.66
  -6   2   7   20.72    0.45
   6   2  -7   21.69    0.69
  -6   2   6    0.94    0.12
   6   2  -6    0.83    0.16
  -6   2   5   29.67    0.57
   6   2  -5   31.66    0.79
  -6   2   4   31.61    0.61
   6   2  -4   31.73    0.77
   6   2  -3    0.95    0.14
   6   2  -3    0.81    0.17
   6   2  -2   30.84    0.74
   6   2  -2   30.38    0.64
   6   2  -1   28.44    0.70
   6   2  -1   27.99    0.58
   6   2   0    2.22    0.17
   6   2   0    2.52    0.23
   6   2   1   42.59    0.87
  -6   2  -2   11.21    0.42
   6   2   2   10.97    0.45
  -6   2  -3    5.28    0.30
  -6   2  -4   20.25    0.57
  -6   2  -4   21.36    0.75
   6   3  -9   10.56    0.53
   6   3  -8    8.90    0.47
  -6   3   7    2.79    0.20
   6   3  -7    3.28    0.29
  -6   3   6   33.10    0.64
   6   3  -6   35.25    0.85
  -6   3   5    8.26    0.34
   6   3  -5    7.97    0.41
  -6   3   4   13.08    0.43
   6   3  -4   12.77    0.50
  -6   3   3   63.65    0.97
   6   3  -3   62.14    1.07
   6   3  -2    5.79    0.34
   6   3  -2    6.10    0.31
   6   3  -1   31.35    0.75
   6   3  -1   28.85    0.63
   6   3   0   38.49    0.83
  -6   3  -1    1.23    0.15
   6   3   1    1.55    0.20
  -6   3  -2   18.73    0.49
   6   3   2   18.70    0.58
  -6   3  -3   17.94    0.67
   6   4  -9    0.15    0.15
   6   4  -8   11.03    0.52
   6   4  -7   18.65    0.64
  -6   4   6    0.09    0.10
   6   4  -6    0.23    0.13
  -6   4   5   19.38    0.54
   6   4  -5   21.04    0.64
   6   4  -4   21.09    0.63
   6   4  -3    0.21    0.12
   6   4  -2   23.61    0.64
   6   4  -1   17.47    0.55
  -6   4   0    2.39    0.17
   6   4   0    2.77    0.24
   6   4   1   26.19    0.69
   6   4   2    7.56    0.38
  -6   4  -3    3.49    0.32
   6   5  -8    3.86    0.32
   6   5  -7    3.77    0.31
   6   5  -6   20.20    0.64
   6   5  -5    3.52    0.28
   6   5  -4   12.75    0.49
   6   5  -3   27.06    0.69
   6   5  -2    1.40    0.19
   6   5  -1   15.92    0.53
   6   5   0   16.84    0.54
   6   5   1    0.77    0.16
  -6   5  -2    8.58    0.45
  -6   5  -3    9.96    0.50
   6   6  -8    3.37    0.30
   6   6  -7    8.16    0.41
   6   6  -6    0.66    0.16
   6   6  -5    7.49    0.38
   6   6  -4   14.06    0.48
   6   6  -3    0.25    0.13
   6   6  -2   14.28    0.49
   6   6  -1   12.66    0.47
   6   6   0    0.58    0.14
  -6   6  -2    4.50    0.33
   6   7  -5    1.08    0.17
   6   7  -4    6.02    0.32
   6   7  -3   13.79    0.47
   6   7  -2    0.53    0.14
   6   7  -1    7.90    0.36
  -6   7  -1    0.34    0.14
   7  -5  -4    0.63    0.16
   7  -5  -3   14.88    0.57
   7  -4  -5    8.56    0.45
   7  -4  -4   11.42    0.50
   7  -4  -3    0.32    0.15
   7  -4  -2   10.56    0.48
   7  -4  -1    9.80    0.46
   7  -3  -6   17.90    0.65
   7  -3  -5    7.19    0.42
   7  -3  -4    2.28    0.26
   7  -3  -3   21.04    0.67
   7  -3  -2    6.39    0.38
   7  -3  -1    5.12    0.35
   7  -3   0   15.66    0.58
   7  -2  -7   14.80    0.60
   7  -2  -6    0.83    0.19
   7  -2  -5   11.43    0.51
   7  -2  -4   18.45    0.64
   7  -2  -3    0.13    0.14
   7  -2  -2   18.14    0.62
   7  -2  -1   13.61    0.54
   7  -2   0    0.32    0.15
   7  -1  -7    0.29    0.16
   7  -1  -6   17.67    0.65
   7  -1  -5   13.21    0.55
   7  -1  -4    1.95    0.24
   7  -1  -3   26.16    0.74
   7  -1  -2   16.12    0.59
   7  -1  -1    7.15    0.40
   7  -1   0   26.53    0.74
   7   0  -7   19.97    0.70
   7   0  -6    0.03    0.14
   7   0  -5   16.38    0.61
   7   0  -4   19.61    0.66
   7   0  -3    0.97    0.18
   7   0  -2   21.36    0.67
   7   0  -2   19.68    0.46
   7   0  -1    8.49    0.28
   7   0  -1    8.82    0.45
   7   0   0    0.09    0.13
   7   1  -7    0.33    0.15
   7   1  -6   17.80    0.65
   7   1  -5   13.22    0.55
   7   1  -4    1.70    0.23
   7   1  -3   25.27    0.73
   7   1  -3   24.34    0.58
   7   1  -2   15.56    0.58
   7   1  -2   15.39    0.45
   7   1  -1    6.23    0.27
   7   1  -1    6.57    0.39
   7   1   0   25.33    0.73
   7   2  -7   14.87    0.61
   7   2  -6    1.04    0.20
   7   2  -5   11.51    0.52
   7   2  -4   18.24    0.64
   7   2  -3    0.44    0.15
   7   2  -2   18.62    0.62
   7   2  -2   17.17    0.49
   7   2  -1   13.21    0.41
   7   2  -1   13.50    0.53
   7   2   0    0.44    0.16
   7   3  -6   18.35    0.66
   7   3  -5    7.04    0.42
   7   3  -4    2.53    0.27
   7   3  -3   21.29    0.67
   7   3  -2    6.44    0.38
   7   3  -1    5.13    0.34
   7   3   0   14.88    0.56
   7   4  -6    1.10    0.20
   7   4  -5    8.82    0.46
   7   4  -4   11.36    0.50
   7   4  -3    0.27    0.15
   7   4  -2   10.82    0.48
   7   4  -1    9.57    0.45
   7   5  -4    0.54    0.16
   7   5  -3   15.01    0.57
   7   5  -2    6.50    0.38
   0   0   0    0.00    0.00
;
_shelx_hkl_checksum              96117
loop_
_space_group_symop_operation_xyz
'x, y, z'
'-x, y+1/2, -z'
loop_
_atom_site_label
_atom_site_type_symbol
_atom_site_fract_x
_atom_site_fract_y
_atom_site_fract_z
_atom_site_U_iso_or_equiv
_atom_site_adp_type
_atom_site_occupancy
_atom_site_site_symmetry_order
_atom_site_calc_flag
_atom_site_refinement_flags_posn
_atom_site_refinement_flags_adp
_atom_site_refinement_flags_occupancy
_atom_site_disorder_assembly
_atom_site_disorder_group
I1 I 0.96634(4) 0.12132(18) 0.67638(3) 0.04246(11) Uani 1 1 d . . . . .
N1 N 0.4026(6) 0.1306(13) 0.2821(3) 0.0329(8) Uani 1 1 d . . . . .
F1 F 0.6278(9) 0.0054(7) 0.0664(5) 0.0819(13) Uani 1 1 d . . . . .
C1 C 0.5366(17) -0.0382(11) 0.2814(9) 0.0364(19) Uani 1 1 d . . . . .
H1A H 0.4851 -0.1285 0.3338 0.044 Uiso 1 1 calc R U . . .
H1B H 0.7023 -0.0195 0.3197 0.044 Uiso 1 1 calc R U . . .
C2 C 0.4832(13) -0.0903(9) 0.1307(6) 0.0557(15) Uani 1 1 d . . . . .
H2 H 0.4994 -0.2171 0.1200 0.067 Uiso 1 1 calc R U . . .
C3 C 0.2363(13) -0.0317(10) 0.0731(6) 0.0659(19) Uani 1 1 d . . . . .
H3A H 0.2048 -0.0091 -0.0241 0.079 Uiso 1 1 calc R U . . .
H3B H 0.1290 -0.1208 0.0872 0.079 Uiso 1 1 calc R U . . .
C4 C 0.2113(9) 0.132(3) 0.1476(6) 0.0639(19) Uani 1 1 d . . . . .
H4A H 0.0592 0.1359 0.1650 0.077 Uiso 1 1 calc R U . . .
H4B H 0.2275 0.2339 0.0938 0.077 Uiso 1 1 calc R U . . .
C5 C 0.559(2) 0.2856(15) 0.2866(15) 0.065(3) Uani 1 1 d . . . . .
H5A H 0.4696 0.3916 0.2801 0.097 Uiso 1 1 calc R U . . .
H5B H 0.6276 0.2796 0.2114 0.097 Uiso 1 1 calc R U . . .
H5C H 0.6795 0.2850 0.3710 0.097 Uiso 1 1 calc R U . . .
C6 C 0.3049(9) 0.128(2) 0.4029(5) 0.0501(12) Uani 1 1 d . . . . .
H6A H 0.1961 0.0333 0.3939 0.075 Uiso 1 1 calc R U . . .
H6B H 0.2268 0.2374 0.4076 0.075 Uiso 1 1 calc R U . . .
H6C H 0.4290 0.1130 0.4847 0.075 Uiso 1 1 calc R U . . .
loop_
_atom_site_aniso_label
_atom_site_aniso_U_11
_atom_site_aniso_U_22
_atom_site_aniso_U_33
_atom_site_aniso_U_23
_atom_site_aniso_U_13
_atom_site_aniso_U_12
I1 0.04100(16) 0.03730(16) 0.04807(17) 0.0019(3) 0.01026(11) 0.0030(3)
N1 0.0301(14) 0.032(2) 0.0347(15) 0.005(3) 0.0061(12) 0.004(3)
F1 0.093(3) 0.098(3) 0.075(3) 0.009(2) 0.058(3) 0.011(3)
C1 0.037(4) 0.036(5) 0.038(4) 0.000(4) 0.012(3) 0.004(3)
C2 0.077(4) 0.051(3) 0.044(3) -0.003(3) 0.025(3) 0.003(3)
C3 0.074(5) 0.081(5) 0.034(3) -0.005(3) -0.001(3) -0.016(4)
C4 0.042(2) 0.086(5) 0.051(3) 0.010(7) -0.010(2) 0.006(7)
C5 0.066(8) 0.042(7) 0.090(8) 0.004(6) 0.028(6) -0.017(5)
C6 0.060(3) 0.047(3) 0.053(2) 0.008(6) 0.032(2) 0.009(6)
loop_
_atom_type_symbol
_atom_type_description
_atom_type_scat_dispersion_real
_atom_type_scat_dispersion_imag
_atom_type_scat_source
C C 0.0033 0.0016 'International Tables Vol C Tables 4.2.6.8 and 6.1.1.4'
H H 0.0000 0.0000 'International Tables Vol C Tables 4.2.6.8 and 6.1.1.4'
N N 0.0061 0.0033 'International Tables Vol C Tables 4.2.6.8 and 6.1.1.4'
F F 0.0171 0.0103 'International Tables Vol C Tables 4.2.6.8 and 6.1.1.4'
I I -0.4742 1.8119 'International Tables Vol C Tables 4.2.6.8 and 6.1.1.4'
loop_
_geom_angle_atom_site_label_1
_geom_angle_atom_site_label_2
_geom_angle_atom_site_label_3
_geom_angle
_geom_angle_site_symmetry_1
_geom_angle_site_symmetry_3
_geom_angle_publ_flag
C6 N1 C5 111.1(9) . . ?
C6 N1 C1 108.5(8) . . ?
C5 N1 C1 110.2(4) . . ?
C6 N1 C4 111.9(4) . . ?
C5 N1 C4 109.3(10) . . ?
C1 N1 C4 105.6(9) . . ?
N1 C1 C2 104.9(6) . . ?
F1 C2 C3 108.8(6) . . ?
F1 C2 C1 109.9(6) . . ?
C3 C2 C1 103.4(6) . . ?
C4 C3 C2 105.9(5) . . ?
C3 C4 N1 107.3(10) . . ?
loop_
_geom_bond_atom_site_label_1
_geom_bond_atom_site_label_2
_geom_bond_distance
_geom_bond_site_symmetry_2
_geom_bond_publ_flag
N1 C6 1.494(5) . ?
N1 C5 1.498(13) . ?
N1 C1 1.516(12) . ?
N1 C4 1.526(6) . ?
F1 C2 1.416(8) . ?
C1 C2 1.530(10) . ?
C2 C3 1.498(10) . ?
C3 C4 1.487(18) . ?
loop_
_geom_hbond_atom_site_label_D
_geom_hbond_atom_site_label_H
_geom_hbond_atom_site_label_A
_geom_hbond_distance_DH
_geom_hbond_distance_HA
_geom_hbond_distance_DA
_geom_hbond_angle_DHA
_geom_hbond_site_symmetry_A
C1 H1A I1 0.97 3.28 4.075(10) 140.8 2_646
C3 H3A I1 0.97 3.15 4.088(6) 162.2 1_454
C3 H3B I1 0.97 3.27 4.074(8) 141.4 2_646
C5 H5A I1 0.96 3.26 4.139(14) 152.9 2_656
C5 H5B F1 0.96 2.56 3.199(16) 124.3 .
C6 H6A I1 0.96 3.31 4.183(16) 152.6 2_646
C6 H6B I1 0.96 3.18 4.084(15) 158.4 2_656
loop_
_geom_torsion_atom_site_label_1
_geom_torsion_atom_site_label_2
_geom_torsion_atom_site_label_3
_geom_torsion_atom_site_label_4
_geom_torsion
_geom_torsion_site_symmetry_1
_geom_torsion_site_symmetry_2
_geom_torsion_site_symmetry_3
_geom_torsion_site_symmetry_4
_geom_torsion_publ_flag
C6 N1 C1 C2 141.4(7) . . . . ?
C5 N1 C1 C2 -96.7(8) . . . . ?
C4 N1 C1 C2 21.2(8) . . . . ?
N1 C1 C2 F1 81.4(7) . . . . ?
N1 C1 C2 C3 -34.5(8) . . . . ?
F1 C2 C3 C4 -81.9(7) . . . . ?
C1 C2 C3 C4 34.8(9) . . . . ?
C2 C3 C4 N1 -21.9(9) . . . . ?
C6 N1 C4 C3 -117.8(11) . . . . ?
C5 N1 C4 C3 118.6(10) . . . . ?
C1 N1 C4 C3 0.1(9) . . . . ?
