#------------------------------------------------------------------------------
#$Date: 2020-09-06 11:12:44 +0300 (Sun, 06 Sep 2020) $
#$Revision: 255952 $
#$URL: file:///home/coder/svn-repositories/cod/cif/7/12/67/7126798.cif $
#------------------------------------------------------------------------------
#
# This file is available in the Crystallography Open Database (COD),
# http://www.crystallography.net/
#
# All data on this site have been placed in the public domain by the
# contributors.
#
data_7126798
loop_
_publ_author_name
'Appel, Sebastian'
'Br\"uggemann, Peter'
'Ganter, Christian'
_publ_section_title
;
 A tropylium annulated N-heterocyclic carbene.
;
_journal_issue                   63
_journal_name_full
'Chemical communications (Cambridge, England)'
_journal_page_first              9020
_journal_page_last               9023
_journal_paper_doi               10.1039/d0cc04482b
_journal_volume                  56
_journal_year                    2020
_chemical_formula_sum            'C6 H6 N2 O2'
_chemical_formula_weight         138.13
_chemical_name_systematic        1-methyl-1H-imidazole-4,5-dicarbaldehyde
_space_group_crystal_system      orthorhombic
_space_group_IT_number           19
_space_group_name_Hall           'P 2ac 2ab'
_space_group_name_H-M_alt        'P 21 21 21'
_atom_sites_solution_hydrogens   geom
_atom_sites_solution_primary     direct
_atom_sites_solution_secondary   difmap
_audit_creation_method           SHELXL-2014/7
_audit_update_record
;
2020-03-20 deposited with the CCDC.	2020-07-01 downloaded from the CCDC.
;
_cell_angle_alpha                90
_cell_angle_beta                 90
_cell_angle_gamma                90
_cell_formula_units_Z            4
_cell_length_a                   3.8712(16)
_cell_length_b                   6.840(3)
_cell_length_c                   23.770(9)
_cell_measurement_reflns_used    1648
_cell_measurement_temperature    296(2)
_cell_measurement_theta_max      28.195
_cell_measurement_theta_min      3.099
_cell_volume                     629.4(4)
_computing_cell_refinement       'SAINT (Bruker, 2015)'
_computing_data_collection       'APEX2 (Bruker, 2014)'
_computing_data_reduction        'SAINT (Bruker, 2015)'
_computing_molecular_graphics    'DIAMOND 3.2 (Crystal Impact, 2015)'
_computing_publication_material  'SHELXL-97 (Sheldrick, 2008)'
_computing_structure_refinement  'SHELXL-2014/7 (Sheldrick, 2014)'
_computing_structure_solution    'SHELXL-2014 (Sheldrick, 2014)'
_diffrn_ambient_temperature      296(2)
_diffrn_measured_fraction_theta_full 0.997
_diffrn_measured_fraction_theta_max 0.998
_diffrn_measurement_device_type  'Bruker Kappa APEX-II CCD area detector'
_diffrn_measurement_method       '\w scans'
_diffrn_radiation_monochromator  'multilayer mirror'
_diffrn_radiation_source         'microfocus sealed tube'
_diffrn_radiation_type           MoK\a
_diffrn_radiation_wavelength     0.71073
_diffrn_reflns_av_R_equivalents  0.0255
_diffrn_reflns_av_unetI/netI     0.0289
_diffrn_reflns_Laue_measured_fraction_full 0.997
_diffrn_reflns_Laue_measured_fraction_max 0.998
_diffrn_reflns_limit_h_max       5
_diffrn_reflns_limit_h_min       -5
_diffrn_reflns_limit_k_max       8
_diffrn_reflns_limit_k_min       -9
_diffrn_reflns_limit_l_max       31
_diffrn_reflns_limit_l_min       -18
_diffrn_reflns_number            3988
_diffrn_reflns_point_group_measured_fraction_full 0.998
_diffrn_reflns_point_group_measured_fraction_max 0.997
_diffrn_reflns_theta_full        25.242
_diffrn_reflns_theta_max         28.319
_diffrn_reflns_theta_min         1.713
_exptl_absorpt_coefficient_mu    0.112
_exptl_absorpt_correction_T_max  1.0000
_exptl_absorpt_correction_T_min  0.8519
_exptl_absorpt_correction_type   multi-scan
_exptl_absorpt_process_details   '(<i>SADABS</i>; Sheldrick, 2015)'
_exptl_crystal_colour            colorless
_exptl_crystal_density_diffrn    1.458
_exptl_crystal_density_method    'not measured'
_exptl_crystal_description       block
_exptl_crystal_F_000             288
_exptl_crystal_size_max          0.4
_exptl_crystal_size_mid          0.3
_exptl_crystal_size_min          0.1
_refine_diff_density_max         0.178
_refine_diff_density_min         -0.209
_refine_diff_density_rms         0.045
_refine_ls_abs_structure_details
;
 Flack x determined using 489 quotients [(I+)-(I-)]/[(I+)+(I-)]
 (Parsons, Flack and Wagner, Acta Cryst. B69 (2013) 249-259).
;
_refine_ls_abs_structure_Flack   0.8(7)
_refine_ls_extinction_method     none
_refine_ls_goodness_of_fit_ref   1.114
_refine_ls_hydrogen_treatment    constr
_refine_ls_matrix_type           full
_refine_ls_number_parameters     92
_refine_ls_number_reflns         1563
_refine_ls_number_restraints     0
_refine_ls_restrained_S_all      1.114
_refine_ls_R_factor_all          0.0479
_refine_ls_R_factor_gt           0.0416
_refine_ls_shift/su_max          0.000
_refine_ls_shift/su_mean         0.000
_refine_ls_structure_factor_coef Fsqd
_refine_ls_weighting_details
'w=1/[\s^2^(Fo^2^)+(0.0529P)^2^+0.0751P] where P=(Fo^2^+2Fc^2^)/3'
_refine_ls_weighting_scheme      calc
_refine_ls_wR_factor_gt          0.1037
_refine_ls_wR_factor_ref         0.1071
_reflns_Friedel_coverage         0.616
_reflns_Friedel_fraction_full    1.000
_reflns_Friedel_fraction_max     0.997
_reflns_number_gt                1405
_reflns_number_total             1563
_reflns_threshold_expression     'I > 2\s(I)'
_cod_data_source_file            d0cc04482b2.cif
_cod_data_source_block           mo_scan_0m
_cod_depositor_comments
'Adding full bibliography for 7126798--7126803.cif.'
_cod_database_code               7126798
_shelx_shelxl_version_number     2014/7
_shelx_space_group_comment
;
The symmetry employed for this shelxl refinement is uniquely defined
by the following loop, which should always be used as a source of
symmetry information in preference to the above space-group names.
They are only intended as comments.
;
_shelx_res_file
;

    mo_scan_0m.res created by SHELXL-2014/7


TITL mo_scan_0m in P2(1)2(1)2(1)
CELL 0.71073 3.8712 6.8402 23.7697 90.000 90.000 90.000
ZERR 4.00 0.0016 0.0028 0.0094 0.000 0.000 0.000
LATT -1
SYMM x+1/2, -y+1/2, -z
SYMM -x, y+1/2, -z+1/2
SYMM -x+1/2, -y, z+1/2
SFAC C H N O
UNIT 24 24 8 8
LIST 6 ! automatically inserted. Change 6 to 4 for CHECKCIF!!
TEMP 23.000
ACTA
L.S. 25
FMAP 2
PLAN -2 0 0.00
OMIT 0 3 1
OMIT 0 2 0
HTAB
BOND $H
CONF
WGHT    0.052900    0.075100
FVAR       0.44879
O1    4    0.439692    0.030849    0.153928    11.00000    0.07443    0.03965 =
         0.05414    0.00095   -0.00483   -0.01657
C1    1    0.944233    0.619471    0.172191    11.00000    0.04730    0.03134 =
         0.03966   -0.00194   -0.00525   -0.00591
AFIX  43
H1    2    1.050425    0.729378    0.187403    11.00000   -1.20000
AFIX   0
N1    3    0.853988    0.604123    0.117754    11.00000    0.03588    0.02649 =
         0.03635    0.00072    0.00062   -0.00181
O2    4    0.548320    0.439293    0.015402    11.00000    0.08286    0.04352 =
         0.03373    0.00314   -0.00895    0.00195
C2    1    0.914661    0.754460    0.074690    11.00000    0.04889    0.03267 =
         0.04509    0.00710    0.00076   -0.00674
AFIX 137
H2A   2    1.039590    0.698252    0.043778    11.00000   -1.50000
H2B   2    1.046911    0.859435    0.090649    11.00000   -1.50000
H2C   2    0.697111    0.803883    0.061517    11.00000   -1.50000
AFIX   0
N2    3    0.866346    0.462184    0.201812    11.00000    0.04918    0.03843 =
         0.03554   -0.00144   -0.00499   -0.00496
C3    1    0.705186    0.422129    0.111150    11.00000    0.03303    0.02715 =
         0.03247   -0.00196    0.00133    0.00102
C4    1    0.714448    0.338082    0.164316    11.00000    0.03351    0.03219 =
         0.03106   -0.00081    0.00035    0.00056
C6    1    0.565230    0.347390    0.058594    11.00000    0.05023    0.03332 =
         0.03324   -0.00245   -0.00211    0.00235
AFIX  43
H6    2    0.482956    0.219655    0.058285    11.00000   -1.20000
AFIX   0
C5    1    0.585731    0.147722    0.182962    11.00000    0.05288    0.03898 =
         0.03494    0.00508   -0.00236   -0.00796
AFIX  43
H5    2    0.620164    0.114677    0.220498    11.00000   -1.20000
AFIX   0
HKLF 4 1 1 0 0 0 1 0 0 0 1

REM  mo_scan_0m in P2(1)2(1)2(1)
REM R1 =  0.0416 for    1405 Fo > 4sig(Fo)  and  0.0479 for all    1563 data
REM     92 parameters refined using      0 restraints

END

WGHT      0.0529      0.0751

REM Instructions for potential hydrogen bonds
EQIV $1 x+1, y+1, z
HTAB C2 O1_$1
HTAB C6 O1

REM Highest difference peak  0.178,  deepest hole -0.209,  1-sigma level  0.045
Q1    1   0.7080  0.3580  0.1341  11.00000  0.05    0.18
Q2    1   0.6242  0.4047  0.0879  11.00000  0.05    0.18
;
_shelx_res_checksum              54473
_shelx_hkl_file
;
   1   0   0   -0.01    0.04
   2   0   0   89.15    2.38
  -3   0   0    0.04    0.15
   3   0   0   -0.04    0.05
  -4   0   0    2.58    0.39
   4   0   0    2.59    0.20
  -5   0   0   -0.09    0.35
   0   1   0    0.02    0.04
   0   1   0    0.02    0.02
   0  -1   0    0.02    0.02
   0  -1   0    0.00    0.03
   1   1   0  827.48   22.66
  -1  -1   0  833.94   25.87
   1  -1   0  845.19   21.82
   2   1   0  186.53    5.14
  -2  -1   0  188.47    5.93
   2  -1   0  190.12    4.97
  -3  -1   0   20.34    0.86
   3  -1   0   19.54    0.65
   4   1   0    1.55    0.17
   4  -1   0    1.65    0.20
  -4   1   0    1.67    0.33
  -4  -1   0    1.38    0.37
  -5   1   0   -0.34    0.29
  -5  -1   0    0.45    0.41
   5  -1   0    0.14    0.13
   0  -2   0  263.80    6.89
   0  -2   0  263.03    8.23
  -1  -2   0  151.69    4.76
   1   2   0  150.44    4.14
   1  -2   0  151.10    3.99
   2  -2   0    3.94    0.20
   2   2   0    2.71    0.17
  -3  -2   0    3.59    0.40
   3   2   0    3.13    0.20
   3  -2   0    3.05    0.22
   4   2   0    0.07    0.09
   4  -2   0    0.39    0.14
  -4  -2   0    0.50    0.33
  -5   2   0    2.92    0.50
   5  -2   0    3.08    0.32
  -5  -2   0    3.43    0.62
   0  -3   0    0.22    0.11
   0  -3   0    0.05    0.07
   1  -3   0    0.04    0.06
   1   3   0    0.07    0.11
  -1  -3   0   -0.09    0.13
   2   3   0   16.05    0.55
   2  -3   0   16.99    0.58
  -2  -3   0   16.29    0.73
   3   3   0    8.70    0.35
   3  -3   0    8.21    0.39
  -3  -3   0    8.96    0.61
   4  -3   0    1.74    0.24
  -4  -3   0    2.41    0.44
   0  -4   0   63.97    1.69
   0  -4   0   56.52    2.00
  -1  -4   0    1.63    0.23
   1  -4   0    1.10    0.13
   1   4   0    1.27    0.19
   2   4   0    4.14    0.27
   2  -4   0    4.51    0.27
  -2  -4   0    4.64    0.41
   3   4   0    0.14    0.11
   3  -4   0    0.21    0.13
  -3  -4   0    0.78    0.31
  -4  -4   0    0.46    0.36
   4  -4   0    0.14    0.14
   0  -5   0    0.35    0.15
   0  -5   0    0.38    0.11
   1  -5   0   12.53    0.50
  -1  -5   0   12.90    0.61
   1   5   0   12.66    0.56
  -2  -5   0   21.00    0.93
   2   5   0   21.15    0.77
   2  -5   0   20.57    0.76
   3  -5   0    0.73    0.17
  -3  -5   0    0.54    0.30
  -4  -5   0    0.94    0.40
   4  -5   0    0.51    0.21
   0  -6   0    2.99    0.33
   0  -6   0    3.35    0.26
  -1  -6   0   19.31    0.83
   1  -6   0   18.68    0.71
   1   6   0   19.37    0.77
   2  -6   0    0.74    0.19
   2   6   0    0.50    0.22
  -2  -6   0    0.81    0.27
   3  -6   0    1.85    0.27
  -3  -6   0    1.42    0.36
   0  -7   0    0.84    0.20
   1  -7   0    0.66    0.19
  -1  -7   0    0.88    0.25
   1   7   0    0.98    0.27
   2   7   0   16.05    0.71
   2  -7   0   15.64    0.69
  -2  -7   0   15.16    0.79
   3  -7   0    0.02    0.19
   0  -8   0    1.02    0.22
  -1  -8   0    5.74    0.48
   1   8   0    5.84    0.50
   1  -8   0    5.63    0.41
   2  -8   0    2.14    0.34
   0  -9   0   -0.18    0.19
   0   0   1    0.00    0.00
   0   0  -1    0.00    0.00
   1   0   1    0.80    0.07
   1   0  -1    0.74    0.06
   2   0  -1    2.34    0.12
  -2   0   1    2.10    0.20
  -3   0   1    1.86    0.28
  -3   0  -1    1.62    0.26
   3   0   1    1.66    0.15
   3   0  -1    1.53    0.14
   4   0  -1    0.65    0.13
  -4   0   1    0.72    0.29
   4   0   1    0.46    0.11
  -4   0  -1    1.21    0.31
   5   0   1    1.98    0.24
  -5   0   1    0.89    0.45
  -5   0  -1    1.03    0.42
   0   1  -1   35.92    0.98
   0  -1   1   36.65    0.98
   0  -1  -1   37.02    0.99
   0  -1  -1   37.23    1.17
   0   1  -1   38.29    1.19
   0  -1   1   36.89    1.19
   1   1  -1   36.66    1.02
   1  -1   1   37.39    1.01
  -1  -1  -1   36.33    1.20
  -1  -1   1   36.37    1.22
   1  -1  -1   36.72    1.00
  -1  -1   1   36.47    1.03
   1   1   1   36.14    1.04
   2   1  -1   25.92    0.75
  -2  -1  -1   25.83    0.93
   2  -1   1   24.06    0.75
   2   1   1   24.23    0.76
   2  -1  -1   27.70    0.76
   3  -1   1    5.15    0.26
   3   1  -1    5.24    0.23
  -3  -1  -1    5.69    0.40
   3   1   1    5.59    0.26
  -3  -1   1    4.97    0.41
   3  -1  -1    5.53    0.27
  -4  -1  -1    2.59    0.42
   4   1  -1    2.60    0.20
   4  -1   1    2.17    0.23
  -4   1   1    2.75    0.38
   4   1   1    2.25    0.19
  -4  -1   1    2.77    0.45
  -4   1  -1    3.05    0.39
   4  -1  -1    2.59    0.24
  -5  -1  -1    0.86    0.46
  -5   1   1    1.41    0.42
   5  -1   1    1.53    0.23
   5  -1  -1    1.47    0.22
  -5  -1   1    1.00    0.49
  -5   1  -1    1.66    0.44
   0  -2   1   39.17    1.27
   0  -2   1   38.62    1.05
   0  -2  -1   39.24    1.25
   0  -2  -1   36.17    1.05
   1  -2   1   42.83    1.23
  -1  -2  -1   46.52    1.48
   1   2  -1   44.16    1.26
   1   2   1   43.64    1.28
   1  -2  -1   44.74    1.24
  -1  -2   1   45.18    1.50
   2  -2   1   47.10    1.34
  -2  -2  -1   53.09    1.65
   2   2  -1   44.57    1.34
   2  -2  -1   46.63    1.34
   2   2   1   45.13    1.36
  -2  -2   1   46.62    1.65
   3   2  -1    6.64    0.28
  -3  -2  -1    7.33    0.50
   3  -2   1    6.33    0.31
   3  -2  -1    6.35    0.31
   3   2   1    6.09    0.29
  -3  -2   1    6.61    0.49
   4   2  -1    2.76    0.19
   4  -2   1    3.15    0.28
  -4  -2  -1    3.06    0.47
   4   2   1    3.05    0.21
  -4  -2   1    3.54    0.49
   4  -2  -1    3.18    0.26
  -5  -2  -1    0.98    0.48
   5  -2   1    1.26    0.23
  -5   2   1    1.43    0.41
   5  -2  -1    1.14    0.22
  -5  -2   1    1.10    0.47
  -5   2  -1    1.68    0.40
   0  -3  -1  333.30    8.41
   0  -3   1  324.88    8.45
   0  -3  -1  314.97    9.97
   0  -3   1  313.19    9.99
   1  -3   1    9.01    0.35
   1   3  -1    9.31    0.36
  -1  -3  -1   10.24    0.45
   1   3   1    9.30    0.38
  -1  -3   1    9.49    0.46
   1  -3  -1    8.72    0.35
  -2  -3  -1    9.45    0.51
   2  -3   1    9.34    0.38
   2   3  -1    8.64    0.35
   2  -3  -1   10.19    0.39
  -2  -3   1   10.52    0.54
   2   3   1    8.71    0.37
  -3  -3  -1    2.57    0.39
   3   3  -1    1.62    0.15
   3  -3   1    1.45    0.19
   3   3   1    1.65    0.17
   3  -3  -1    1.38    0.18
  -3  -3   1    1.52    0.36
  -4  -3  -1    4.27    0.53
   4  -3   1    4.57    0.33
   4  -3  -1    4.35    0.32
  -4  -3   1    4.59    0.59
   0  -4  -1    0.72    0.11
   0  -4  -1    0.74    0.16
   0  -4   1    0.62    0.11
   0  -4   1    0.68    0.16
   1   4  -1    3.13    0.25
   1  -4   1    3.51    0.22
   1  -4  -1    3.21    0.22
   1   4   1    3.67    0.29
  -1  -4   1    4.25    0.33
   2   4  -1    7.25    0.34
   2  -4   1    7.99    0.36
  -2  -4  -1    7.97    0.50
   2  -4  -1    7.85    0.37
  -2  -4   1    8.05    0.51
   2   4   1    7.61    0.37
   3  -4   1    4.43    0.30
   3   4  -1    3.30    0.22
  -3  -4  -1    4.00    0.47
   3   4   1    3.96    0.25
   3  -4  -1    3.54    0.28
  -3  -4   1    2.90    0.43
   4  -4   1    1.58    0.25
  -4  -4  -1    1.02    0.38
   4  -4  -1    0.90    0.21
  -4  -4   1    1.15    0.40
   0  -5   1    3.76    0.23
   0  -5  -1    3.46    0.23
   0  -5   1    3.64    0.30
   0  -5  -1    3.48    0.28
   1   5  -1    1.98    0.26
   1  -5   1    1.94    0.21
  -1  -5  -1    1.93    0.26
  -1  -5   1    2.50    0.30
   1   5   1    2.60    0.30
   1  -5  -1    1.95    0.21
   2   5  -1    5.05    0.35
   2  -5   1    5.79    0.34
  -2  -5  -1    6.20    0.46
   2   5   1    5.24    0.38
  -2  -5   1    6.29    0.48
   2  -5  -1    6.52    0.36
  -3  -5  -1    2.34    0.40
   3  -5   1    1.37    0.23
   3   5   1    1.84    0.21
  -3  -5   1    2.01    0.40
   3  -5  -1    1.73    0.24
  -4  -5  -1    1.08    0.39
   4  -5   1    0.75    0.22
  -4  -5   1    1.53    0.45
   4  -5  -1    0.64    0.21
   0  -6  -1   17.56    0.63
   0  -6   1   15.87    0.75
   0  -6   1   17.25    0.62
   1  -6   1   23.38    0.83
   1   6  -1   23.77    0.89
  -1  -6  -1   24.24    0.97
   1  -6  -1   23.87    0.84
  -1  -6   1   24.41    0.99
   1   6   1   22.32    0.90
   2  -6   1    4.95    0.33
  -2  -6  -1    5.68    0.44
   2   6  -1    4.21    0.36
   2  -6  -1    4.82    0.35
   2   6   1    5.26    0.40
  -2  -6   1    4.74    0.45
   3  -6   1    2.80    0.32
  -3  -6  -1    2.64    0.41
  -3  -6   1    2.65    0.44
   3  -6  -1    2.88    0.33
   0  -7   1   46.45    1.44
   0  -7  -1   47.50    1.45
   1   7  -1    8.95    0.54
   1  -7   1    9.35    0.48
  -1  -7  -1    9.32    0.55
   1  -7  -1    9.29    0.48
  -1  -7   1    9.59    0.57
   1   7   1    8.80    0.56
   2  -7   1    3.06    0.34
  -2  -7  -1    4.51    0.44
  -2  -7   1    5.42    0.47
   2   7   1    4.54    0.43
   2  -7  -1    6.90    0.42
   3  -7   1    0.61    0.23
  -3  -7   1    0.45    0.34
   3  -7  -1    0.36    0.22
   0  -8   1    1.09    0.22
   0  -8  -1    1.03    0.21
  -1  -8  -1    3.63    0.41
   1   8  -1    3.51    0.42
   1  -8   1    2.61    0.32
   1  -8  -1    3.24    0.35
  -1  -8   1    2.78    0.40
   1   8   1    3.53    0.44
   2  -8   1    3.47    0.39
  -2  -8   1    4.40    0.49
   2  -8  -1    4.08    0.41
   0  -9  -1    0.32    0.21
   0  -9   1   -0.19    0.18
   0   0   2    0.19    0.03
   0   0  -2    0.17    0.03
   0   0  -2    0.25    0.03
  -1   0   2  991.18   30.19
   1   0  -2  977.87   26.43
   1   0   2  954.30   27.73
   2   0  -2   23.10    0.67
  -2   0   2   23.24    0.86
   2   0   2   23.22    0.71
   3   0   2    6.10    0.27
   3   0  -2    5.66    0.25
  -3   0   2    5.55    0.41
  -3   0  -2    5.82    0.39
  -4   0  -2    0.78    0.27
  -4   0   2    0.41    0.28
   4   0  -2    0.70    0.13
   4   0   2    0.36    0.13
   5   0   2    0.17    0.14
  -5   0  -2    0.30    0.36
  -5   0   2    0.14    0.38
   0  -1   2  471.83   12.46
   0  -1  -2  481.61   12.51
   0   1   2  478.98   14.76
   0  -1   2  505.34   14.83
   0   1  -2  455.89   12.46
   1  -1   2  623.52   15.96
  -1  -1  -2  601.24   18.89
   1   1  -2  620.46   16.49
  -1  -1   2  609.48   18.88
   1  -1  -2  624.99   15.94
  -1  -1   2  575.90   16.50
   1   1   2  607.47   16.61
  -2  -1  -2   53.38    1.75
   2   1  -2   51.88    1.47
   2  -1   2   52.45    1.46
  -2  -1   2   53.04    1.79
   2  -1  -2   52.97    1.45
   2   1   2   51.78    1.50
   3  -1   2    4.65    0.25
   3   1  -2    4.81    0.21
  -3  -1  -2    5.56    0.38
   3  -1  -2    4.74    0.24
  -3  -1   2    4.88    0.41
   3   1   2    4.85    0.25
  -4  -1  -2    0.37    0.30
  -4   1   2    0.73    0.27
   4   1  -2    0.98    0.13
   4  -1   2    1.01    0.16
  -4   1  -2    0.76    0.25
   4  -1  -2    0.70    0.14
   4   1   2    0.86    0.14
  -4  -1   2    1.15    0.36
  -5  -1  -2   -0.21    0.35
   5  -1   2    0.37    0.17
  -5   1   2    0.04    0.34
  -5  -1   2    0.51    0.43
  -5   1  -2    0.51    0.35
   0  -2  -2   47.61    1.55
   0  -2  -2   49.31    1.33
   0  -2   2   48.19    1.59
   0  -2   2   49.76    1.32
   1   2  -2  158.31    4.32
  -1  -2  -2  160.98    4.97
   1  -2   2  158.28    4.19
   1  -2  -2  159.24    4.19
   1   2   2  154.27    4.36
  -1  -2   2  160.22    5.01
   2  -2   2   84.97    2.25
  -2  -2  -2   85.52    2.69
   2   2  -2   80.41    2.27
  -2  -2   2   81.35    2.73
   2   2   2   77.51    2.31
   2  -2  -2   82.06    2.24
  -3  -2  -2    9.04    0.52
   3   2  -2    6.67    0.27
   3  -2   2    6.45    0.33
  -3  -2   2    6.26    0.50
   3  -2  -2    6.44    0.32
   3   2   2    7.25    0.31
  -4  -2  -2    3.40    0.47
   4  -2   2    3.43    0.26
  -4  -2   2    3.40    0.50
   4  -2  -2    3.56    0.27
   5  -2   2    1.52    0.25
  -5   2   2    1.88    0.44
  -5  -2  -2    1.07    0.47
  -5  -2   2    1.64    0.51
  -5   2  -2    1.78    0.42
   5  -2  -2    1.83    0.26
   0  -3  -2  140.50    3.58
   0  -3   2  134.15    3.57
   0  -3  -2  131.51    4.23
   0  -3   2  132.59    4.27
   1  -3   2   74.56    2.03
  -1  -3  -2   74.98    2.40
   1   3  -2   73.92    2.09
   1  -3  -2   71.58    2.03
   1   3   2   74.29    2.12
  -1  -3   2   74.23    2.45
   2   3  -2    6.92    0.29
   2  -3   2    7.58    0.34
  -2  -3  -2    9.29    0.47
  -2  -3   2    8.08    0.49
   2   3   2    7.05    0.33
   2  -3  -2    7.61    0.33
   3   3  -2   13.15    0.44
  -3  -3  -2   12.77    0.70
   3  -3   2   13.44    0.53
   3  -3  -2   11.80    0.50
   3   3   2   12.76    0.48
  -3  -3   2   12.04    0.73
   4  -3   2    1.33    0.22
  -4  -3  -2    2.04    0.42
   4   3   2    1.90    0.21
   4  -3  -2    1.53    0.23
  -4  -3   2    1.73    0.45
   0  -4   2    2.49    0.16
   0  -4  -2    2.08    0.20
   0  -4  -2    2.42    0.18
   0  -4   2    2.30    0.24
  -1  -4  -2   80.76    2.65
   1  -4   2   79.97    2.25
   1   4  -2   79.88    2.32
  -1  -4   2   82.08    2.71
   1   4   2   81.48    2.35
   1  -4  -2   81.70    2.25
   2   4  -2    7.97    0.35
   2  -4   2    8.31    0.38
  -2  -4  -2    9.20    0.51
  -2  -4   2    9.19    0.55
   2  -4  -2    8.32    0.38
   2   4   2    7.97    0.39
   3  -4   2    3.95    0.29
  -3  -4  -2    4.23    0.46
   3   4  -2    3.65    0.22
  -3  -4   2    3.21    0.46
   3  -4  -2    3.71    0.28
   3   4   2    3.30    0.25
   4  -4   2   -0.13    0.14
  -4  -4  -2    0.56    0.34
  -4  -4   2    0.28    0.35
   4  -4  -2    0.03    0.14
   0  -5   2   74.79    2.62
   0  -5   2   78.12    2.18
   0  -5  -2   82.30    2.20
  -1  -5  -2    4.73    0.34
   1  -5   2    4.92    0.29
   1  -5  -2    5.14    0.30
  -1  -5   2    4.78    0.37
   1   5   2    5.24    0.41
   2  -5   2   21.80    0.80
   2   5  -2   23.23    0.79
  -2  -5  -2   23.70    0.97
  -2  -5   2   22.38    1.00
   2  -5  -2   22.30    0.80
   2   5   2   23.51    0.85
   3  -5   2    0.41    0.17
  -3  -5  -2    0.70    0.30
   3  -5  -2    0.47    0.17
   3   5   2    0.56    0.16
  -3  -5   2    0.45    0.33
  -4  -5  -2    0.84    0.39
   4  -5   2    0.19    0.18
   4  -5  -2    0.14    0.18
  -4  -5   2    0.99    0.41
   0  -6   2   20.88    0.69
   0  -6  -2   19.06    0.69
   0  -6   2   17.97    0.83
   1  -6   2    9.95    0.47
  -1  -6  -2   10.39    0.54
   1   6  -2   10.11    0.51
   1  -6  -2   10.39    0.49
   1   6   2    9.38    0.54
  -1  -6   2   10.02    0.58
  -2  -6  -2    3.04    0.35
   2   6  -2    2.97    0.31
   2  -6   2    2.66    0.29
  -2  -6   2    3.74    0.43
   2   6   2    2.87    0.35
   2  -6  -2    2.53    0.28
   3  -6   2    0.45    0.19
  -3  -6  -2    0.62    0.29
   3  -6  -2    0.75    0.21
  -3  -6   2    0.85    0.34
   0  -7   2    0.70    0.18
   0  -7  -2    0.71    0.19
   0  -7   2    0.93    0.26
  -1  -7  -2    2.31    0.32
   1  -7   2    1.85    0.25
   1   7  -2    2.71    0.35
  -1  -7   2    2.21    0.35
   1  -7  -2    2.36    0.27
   1   7   2    3.03    0.38
  -2  -7  -2    1.70    0.31
   2  -7   2    1.23    0.23
   2  -7  -2    1.54    0.26
   2   7   2    1.10    0.30
  -2  -7   2    1.65    0.34
   3  -7   2    2.39    0.33
  -3  -7   2    2.00    0.43
   3  -7  -2    2.03    0.32
   0  -8  -2    0.81    0.22
   0  -8   2    1.20    0.23
   1  -8   2    5.81    0.43
   1   8  -2    5.65    0.49
  -1  -8  -2    5.18    0.44
   1   8   2    5.23    0.52
  -1  -8   2    6.10    0.51
   1  -8  -2    5.52    0.42
   2  -8   2    0.69    0.23
  -2  -8   2    1.36    0.35
   2  -8  -2    1.19    0.28
   0  -9   2   -0.06    0.19
   0  -9  -2    0.18    0.20
   0   0   3    0.02    0.03
   0   0  -3    0.00    0.02
   0   0  -3    0.03    0.03
   0   0   3    0.00    0.02
  -1   0   3   19.48    0.68
  -1   0   3   20.08    0.54
   1   0  -3   19.35    0.54
   1   0   3   18.98    0.58
   2   0  -3  107.68    2.85
  -2   0   3  110.22    3.47
   2   0   3  105.09    2.99
   3   0  -3    0.33    0.08
  -3   0   3    0.68    0.23
   3   0   3    0.38    0.10
   4   0  -3    9.87    0.41
  -4   0  -3    9.68    0.61
   4   0   3    9.12    0.41
  -4   0   3    9.95    0.66
  -5   0   3    1.02    0.47
  -5   0  -3    1.28    0.41
   5   0   3    0.87    0.18
   0  -1   3   20.24    0.55
   0   1  -3   20.15    0.55
   0  -1   3   20.67    0.70
   0  -1  -3   20.41    0.57
   1   1  -3  963.91   26.63
  -1  -1  -3  979.50   29.82
   1  -1   3 1000.00   27.71
   1  -1  -3  997.11   25.20
   1   1   3  927.85   26.25
  -1  -1   3  963.48   29.89
  -1  -1   3  935.21   26.09
   2   1  -3   65.10    1.73
   2  -1   3   65.68    1.79
  -2  -1  -3   64.72    2.12
   2  -1  -3   67.21    1.78
   2   1   3   63.29    1.84
  -2  -1   3   64.59    2.19
  -3  -1  -3    7.06    0.42
  -3   1   3    6.33    0.43
   3  -1   3    6.74    0.31
   3   1  -3    6.72    0.26
   3   1   3    6.65    0.31
   3  -1  -3    6.91    0.30
  -3  -1   3    7.02    0.50
   4  -1   3    0.29    0.12
  -4   1   3    0.58    0.28
  -4  -1  -3   -0.01    0.26
   4   1  -3    0.26    0.10
  -4  -1   3    0.06    0.30
   4  -1  -3    0.46    0.13
   4   1   3    0.29    0.11
   5  -1   3    2.74    0.29
  -5   1   3    2.42    0.51
  -5  -1  -3    1.78    0.50
  -5   1  -3    2.87    0.50
  -5  -1   3    2.28    0.57
   0  -2  -3   64.68    1.71
   0  -2   3   63.53    1.70
   0  -2   3   62.23    2.06
  -1  -2  -3   83.94    2.59
   1   2  -3   81.25    2.14
   1  -2   3   79.66    2.19
   1   2  -3   79.99    2.23
  -1  -2   3   84.57    2.66
   1   2   3   81.53    2.29
   1  -2  -3   78.22    2.19
  -2  -2  -3   82.73    2.75
   2  -2   3   84.17    2.31
   2   2  -3   84.58    2.32
   2  -2  -3   86.15    2.31
   2   2   3   81.47    2.38
  -2  -2   3   87.12    2.82
  -3  -2  -3   37.85    1.40
   3   2  -3   37.98    1.04
   3  -2   3   37.80    1.14
  -3  -2   3   34.50    1.44
   3   2   3   37.32    1.14
   3  -2  -3   36.96    1.12
  -4   2   3    3.64    0.43
  -4  -2  -3    3.21    0.45
   4  -2   3    3.30    0.28
   4  -2  -3    3.35    0.26
  -4  -2   3    3.56    0.52
   4   2   3    3.26    0.25
  -5   2   3   -0.03    0.30
   5  -2   3    0.04    0.16
  -5  -2  -3   -0.03    0.40
   5  -2  -3    0.33    0.17
  -5  -2   3    0.13    0.46
  -5   2  -3    1.16    0.34
   0  -3   3    9.59    0.44
   0  -3  -3    9.46    0.34
   0  -3   3    9.55    0.33
   1  -3   3    8.79    0.34
  -1  -3  -3    9.13    0.41
   1   3  -3    8.93    0.34
  -1  -3   3    9.55    0.48
   1   3   3    8.86    0.38
   1  -3  -3    8.82    0.35
   2  -3   3   15.39    0.56
  -2  -3  -3   16.86    0.70
   2   3  -3   16.38    0.51
  -2  -3   3   15.23    0.75
   2   3   3   16.24    0.59
   2  -3  -3   17.22    0.57
   3   3  -3    1.31    0.13
   3  -3   3    0.90    0.17
  -3  -3   3    1.21    0.35
   3   3   3    1.14    0.17
   3  -3  -3    1.42    0.19
  -4  -3  -3    2.24    0.43
   4  -3   3    1.64    0.24
  -4  -3   3    2.36    0.49
   4   3   3    2.23    0.24
   4  -3  -3    2.37    0.26
   0  -4   3   13.34    0.60
   0  -4  -3   13.45    0.48
   0  -4   3   14.64    0.48
   1  -4   3    1.13    0.15
  -1  -4  -3    1.52    0.20
   1   4   3    1.01    0.21
  -1  -4   3    1.36    0.26
  -2  -4  -3    4.15    0.35
   2   4  -3    3.24    0.21
   2  -4   3    4.07    0.26
   2   4   3    3.47    0.29
   2  -4  -3    4.39    0.26
  -2  -4   3    3.90    0.43
   3  -4   3    5.13    0.34
  -3  -4  -3    5.70    0.48
   3  -4  -3    5.27    0.34
   3   4   3    5.95    0.33
  -3  -4   3    4.66    0.54
  -4  -4  -3    3.61    0.51
   4  -4   3    2.54    0.31
   4  -4  -3    3.10    0.32
  -4  -4   3    3.19    0.54
   0  -5   3    1.74    0.18
   0  -5   3    2.08    0.27
   0  -5  -3    1.45    0.18
   1  -5   3    5.36    0.30
  -1  -5  -3    5.86    0.36
  -1  -5   3    5.64    0.41
   1  -5  -3    5.26    0.30
  -1  -5   3    4.94    0.25
   1   5   3    5.52    0.39
   2  -5   3    3.32    0.27
  -2  -5  -3    4.35    0.38
   2   5  -3    3.98    0.29
   2   5   3    3.50    0.35
  -2  -5   3    4.08    0.45
   3  -5   3    7.67    0.44
  -3  -5  -3    7.52    0.56
   3  -5  -3    7.36    0.42
   3   5   3    8.30    0.41
  -3  -5   3    7.44    0.60
   4  -5   3    0.95    0.24
  -4  -5   3    1.06    0.46
   4  -5  -3    0.85    0.22
   0  -6  -3    1.30    0.20
   0  -6   3    1.21    0.18
   0  -6   3    1.26    0.26
   1  -6   3   18.23    0.68
  -1  -6  -3   18.64    0.78
   1   6   3   17.53    0.77
   1  -6  -3   18.62    0.70
  -1  -6   3   17.89    0.83
   2  -6   3    2.59    0.28
  -2  -6  -3    2.65    0.34
   2   6  -3    3.21    0.31
   2   6   3    3.04    0.35
   2  -6  -3    3.02    0.29
  -2  -6   3    3.19    0.43
   3  -6   3    7.58    0.47
  -3  -6   3    7.26    0.60
   3  -6  -3    7.40    0.46
   0  -7   3   28.97    0.96
   0  -7   3   26.44    1.16
   0  -7  -3   29.68    0.98
  -1  -7  -3    3.09    0.34
   1  -7   3    2.16    0.27
   1   7  -3    2.79    0.34
   1  -7  -3    2.32    0.29
   1   7   3    2.35    0.36
  -1  -7   3    2.99    0.39
   2  -7   3    0.29    0.16
  -2  -7   3    0.22    0.27
   2  -7  -3    0.29    0.17
   2   7   3    0.23    0.25
   3  -7   3    1.33    0.28
   3  -7  -3    1.00    0.25
  -3  -7   3    1.75    0.41
   0  -8   3    0.14    0.16
   0  -8  -3    0.09    0.19
   1   8  -3    5.83    0.51
   1  -8   3    4.81    0.39
   1  -8  -3    5.11    0.42
   1   8   3    5.95    0.54
  -1  -8   3    5.49    0.50
   2  -8   3    0.40    0.23
   2  -8  -3    1.00    0.27
  -2  -8   3    1.09    0.34
   2   8   3    1.32    0.33
   0  -9   3    3.09    0.34
   0   0  -4  536.96   14.69
   0   0   4  530.21   14.70
   0   0  -4  530.89   16.71
   0   0   4  568.65   16.73
  -1   0   4   17.25    0.47
  -1   0   4   15.91    0.61
   1   0   4   16.16    0.51
   1   0  -4   17.65    0.47
   2   0   4   33.35    1.00
   2   0  -4   34.67    0.94
  -2   0   4   32.65    1.20
   3   0  -4    2.96    0.17
  -3   0   4    2.55    0.32
   4   0   4    0.14    0.10
   4   0  -4    0.36    0.11
  -4   0   4    0.53    0.30
  -4   0  -4    0.19    0.24
   5   0   4    0.03    0.13
  -5   0  -4   -0.13    0.30
  -5   0   4    0.02    0.41
   0  -1   4   41.14    1.33
   0  -1   4   41.88    1.07
   0   1  -4   39.70    1.11
   0   1   4   38.87    1.16
  -1  -1  -4  129.28    3.98
   1  -1  -4  131.84    3.37
   1   1   4  125.46    3.53
  -1  -1   4  125.32    4.05
   2   1  -4   46.05    1.24
  -2  -1  -4   44.96    1.53
   2  -1   4   45.74    1.29
   2   1   4   45.09    1.34
   2  -1  -4   46.30    1.28
  -2  -1   4   48.34    1.63
  -3  -1  -4    1.77    0.26
   3   1  -4    1.42    0.11
  -3   1   4    1.34    0.24
   3  -1   4    1.37    0.16
   3  -1  -4    1.37    0.14
  -3  -1   4    1.02    0.28
   3   1   4    1.80    0.18
  -4   1   4    2.03    0.38
  -4  -1  -4    2.17    0.36
   4  -1   4    1.75    0.20
  -4  -1   4    1.90    0.43
   4  -1  -4    1.58    0.19
   4   1   4    2.33    0.21
  -5  -1  -4    0.37    0.41
  -5   1   4    0.29    0.39
   5  -1   4    0.44    0.18
  -5  -1   4    1.15    0.48
  -5   1  -4    0.72    0.35
   5   1   4    0.56    0.16
   0  -2   4    0.08    0.11
   0  -2  -4    0.06    0.06
   0  -2   4    0.07    0.04
   1  -2   4    3.05    0.15
   1   2  -4    3.03    0.13
  -1  -2  -4    3.23    0.19
   1   2  -4    2.93    0.11
  -1  -2   4    3.14    0.27
   1  -2  -4    3.06    0.16
   1   2   4    3.14    0.20
  -2  -2  -4   23.37    0.87
   2  -2   4   23.10    0.73
   2   2  -4   22.31    0.67
  -2  -2   4   25.68    0.97
   2  -2  -4   25.18    0.73
   2   2   4   21.22    0.74
  -3  -2  -4   25.56    1.06
   3   2  -4   26.44    0.76
   3  -2   4   26.61    0.86
   3  -2  -4   26.54    0.85
   3   2   4   26.07    0.85
  -3  -2   4   28.30    1.16
  -4   2   4    0.79    0.28
  -4  -2  -4    1.07    0.35
   4  -2   4    0.45    0.15
   4  -2  -4    0.89    0.17
   4   2   4    0.78    0.16
  -4  -2   4    1.55    0.41
  -5   2   4    1.71    0.44
  -5  -2  -4    0.97    0.46
  -5   2  -4    1.69    0.37
  -5  -2   4    0.85    0.48
   0  -3   4    0.02    0.05
   0  -3  -4    0.01    0.07
   0  -3   4   -0.11    0.12
   1   3  -4   30.90    0.93
  -1  -3  -4   32.51    1.08
   1  -3  -4   30.41    0.94
   1   3   4   32.18    1.00
  -1  -3   4   32.30    1.18
   2   3  -4    8.80    0.30
   2  -3   4    8.85    0.37
  -2  -3  -4    9.65    0.48
  -2  -3   4    8.52    0.54
   2  -3  -4    8.83    0.37
   2   3   4    8.95    0.40
   3  -3   4    3.13    0.25
  -3  -3  -4    4.38    0.41
   3   3  -4    2.91    0.16
  -3  -3   4    2.78    0.43
   3  -3  -4    2.97    0.24
   3   3   4    3.24    0.25
  -4  -3  -4    8.37    0.65
   4  -3   4    9.99    0.49
   4  -3  -4    9.18    0.45
  -4  -3   4    8.61    0.73
   4   3   4    8.75    0.43
   0  -4   4   31.29    1.16
   0  -4  -4   32.20    0.95
   0  -4   4   31.17    0.93
   1  -4   4   14.63    0.53
  -1  -4  -4   15.83    0.61
   1  -4  -4   14.44    0.54
   1   4   4   15.59    0.61
  -1  -4   4   14.78    0.70
  -1  -4   4   15.47    0.48
  -2  -4  -4    9.81    0.53
   2   4  -4    9.80    0.37
   2  -4   4   10.54    0.44
  -2  -4   4    9.92    0.61
   2  -4  -4   10.08    0.43
   2   4   4   10.42    0.47
  -3  -4  -4   10.46    0.62
   3  -4   4   10.28    0.48
   3  -4  -4   10.75    0.48
  -3  -4   4    9.62    0.68
   3   4   4   10.71    0.47
  -4  -4  -4    4.53    0.56
   4  -4   4    3.87    0.37
  -4  -4   4    4.65    0.63
   4  -4  -4    4.68    0.36
   0  -5   4    1.06    0.15
   0  -5  -4    0.96    0.16
   0  -5   4    1.23    0.23
  -1  -5  -4   31.98    1.14
   1  -5   4   33.01    1.01
  -1  -5   4   31.79    0.93
   1   5   4   31.83    1.09
  -1  -5   4   31.44    1.24
   1  -5  -4   29.92    1.00
   2  -5   4   11.26    0.50
  -2  -5  -4   12.32    0.60
   2   5  -4   11.06    0.46
  -2  -5   4   11.45    0.68
   2  -5  -4   11.43    0.50
   2   5   4   11.91    0.58
  -3  -5  -4    3.92    0.45
   3  -5   4    2.88    0.31
   3   5   4    3.18    0.30
  -3  -5   4    3.76    0.52
   3  -5  -4    3.42    0.28
   4  -5   4    0.98    0.24
  -4  -5   4    1.14    0.43
   4  -5  -4    1.13    0.24
   0  -6   4    1.39    0.19
   0  -6  -4    1.30    0.20
   0  -6   4    1.60    0.29
  -1  -6  -4   26.70    1.01
   1  -6   4   25.76    0.89
  -1  -6   4   26.23    0.82
  -1  -6   4   27.03    1.11
   1   6   4   25.27    0.98
   1  -6  -4   25.72    0.91
  -2  -6  -4    3.01    0.34
   2  -6   4    3.47    0.32
   2  -6  -4    3.21    0.31
  -2  -6   4    2.56    0.41
   2   6   4    2.68    0.35
   3  -6   4    0.14    0.17
   3  -6  -4    0.64    0.19
   3   6   4    0.27    0.18
  -3  -6   4    0.49    0.35
   0  -7   4    0.62    0.25
   0  -7   4    0.10    0.15
   0  -7  -4    0.47    0.18
   1  -7   4    0.51    0.17
  -1  -7  -4    0.39    0.18
   1   7   4    0.30    0.26
  -1  -7   4    0.40    0.24
   1  -7  -4    0.66    0.20
   2  -7   4    8.50    0.49
  -2  -7   4    8.52    0.62
   2  -7  -4    9.46    0.52
   2   7   4    8.74    0.57
   3  -7   4    0.48    0.22
  -3  -7   4    0.84    0.37
   3  -7  -4    0.96    0.25
   0  -8  -4    2.78    0.31
   0  -8   4    2.82    0.29
   1  -8   4    1.96    0.29
   1   8   4    2.45    0.40
   1  -8  -4    2.89    0.34
  -1  -8   4    2.39    0.40
   2  -8   4    3.82    0.40
   2  -8  -4    3.97    0.41
  -2  -8   4    4.68    0.53
   2   8   4    3.67    0.46
   0  -9   4    0.72    0.24
   0   0   5   -0.01    0.08
   0   0  -5    0.08    0.07
   0   0   5    0.03    0.06
  -1   0   5    0.17    0.11
   1   0   5    0.17    0.06
   1   0  -5    0.15    0.04
   2   0  -5   10.27    0.32
   2   0   5    9.66    0.36
  -2   0   5    9.47    0.47
   3   0   5    4.46    0.25
   3   0  -5    3.93    0.20
  -3   0   5    4.13    0.40
  -4   0  -5    1.70    0.32
   4   0  -5    1.55    0.17
   4   0   5    1.56    0.19
  -4   0   5    1.52    0.38
   5   0   5    0.21    0.14
  -5   0   5   -0.02    0.40
  -5   0  -5    0.83    0.37
   0  -1   5  277.59    7.76
   0   1   5  282.18    7.79
   0  -1   5  299.80    8.85
   0   1   5  281.45    8.80
   1  -1   5   25.62    0.76
  -1  -1  -5   25.98    0.83
   1   1   5   25.87    0.79
   1  -1  -5   25.12    0.73
  -1  -1   5   26.07    0.94
   2  -1   5    3.57    0.19
  -2  -1  -5    3.76    0.24
   2   1  -5    3.71    0.14
  -2  -1   5    4.45    0.35
   2   1   5    3.45    0.20
  -3   1   5   10.76    0.57
   3   1  -5   11.08    0.37
  -3  -1  -5   10.83    0.53
   3  -1   5   11.36    0.43
   3   1   5   11.61    0.44
   3  -1  -5   10.91    0.41
  -3  -1   5    9.55    0.60
  -4   1   5    4.57    0.51
   4  -1   5    4.58    0.30
  -4  -1  -5    4.17    0.42
   4  -1  -5    4.16    0.26
  -4  -1   5    4.09    0.54
  -5   1   5   -0.47    0.33
   5  -1   5    0.01    0.15
  -5  -1  -5   -0.03    0.38
   5   1   5    0.10    0.13
  -5   1  -5    0.33    0.32
  -5  -1   5   -0.07    0.44
   0  -2   5  304.92    9.05
   0  -2  -5  280.06    7.59
   0  -2   5  296.13    7.64
   0   2   5  281.43    8.96
   1   2  -5    5.71    0.17
   1  -2   5    6.01    0.23
  -1  -2  -5    5.98    0.26
   1   2   5    6.15    0.28
  -1  -2   5    6.14    0.37
   1  -2  -5    5.35    0.23
   2  -2   5   96.90    2.59
  -2  -2  -5   94.01    3.05
  -2  -2   5   94.31    3.16
   2   2   5   93.81    2.68
   2  -2  -5   95.25    2.58
   3   2  -5    1.10    0.09
  -3  -2  -5    1.02    0.25
   3  -2   5    1.03    0.16
   3   2   5    0.84    0.15
  -4  -2  -5    3.44    0.45
   4  -2   5    2.30    0.25
  -4   2   5    3.80    0.46
   4  -2  -5    3.15    0.25
  -4  -2   5    1.90    0.46
   4   2   5    2.93    0.28
   0  -3  -5   63.43    1.70
   0  -3   5   61.63    2.06
   0  -3   5   59.63    1.67
   1  -3   5   41.00    1.22
  -1  -3  -5   43.98    1.42
  -1  -3   5   42.27    1.54
   1   3   5   44.17    1.32
  -1  -3   5   43.16    1.16
   1  -3  -5   43.40    1.24
   2  -3   5   28.18    0.86
  -2  -3  -5   27.26    1.00
   2   3  -5   27.46    0.77
   2  -3  -5   26.25    0.85
  -2  -3   5   26.38    1.11
   2   3   5   26.15    0.89
   3  -3   5   25.18    0.87
  -3  -3  -5   28.41    1.08
  -3  -3   5   25.35    1.17
   3   3   5   25.74    0.87
   3  -3  -5   24.74    0.85
   4  -3   5   10.27    0.50
  -4  -3  -5    9.49    0.66
   4  -3  -5    9.87    0.48
  -4  -3   5    8.37    0.75
   4   3   5   10.23    0.46
   0  -4   5   43.67    1.25
   0  -4  -5   44.64    1.28
   0  -4   5   43.49    1.55
  -1  -4  -5   78.16    2.42
   1  -4   5   73.31    2.08
  -1  -4   5   74.44    2.01
  -1  -4   5   74.70    2.55
   1  -4  -5   72.78    2.09
   1   4   5   74.09    2.21
   2  -4   5    3.79    0.26
  -2  -4  -5    4.40    0.35
   2   4  -5    3.80    0.20
   2   4   5    4.24    0.32
   2  -4  -5    4.93    0.29
  -2  -4   5    3.67    0.44
  -3  -4  -5   18.39    0.86
   3  -4   5   18.50    0.71
   3   4   5   18.75    0.71
  -3  -4   5   17.48    0.96
   3  -4  -5   19.51    0.71
  -4  -4  -5    1.49    0.37
   4  -4   5    1.37    0.25
   4  -4  -5    1.71    0.25
  -4  -4   5    1.92    0.49
   4   4   5    2.04    0.25
   0  -5   5   14.88    0.52
   0  -5   5   14.19    0.67
   0  -5  -5   13.34    0.52
  -1  -5  -5    3.88    0.28
   1  -5   5    3.97    0.26
  -1  -5   5    4.25    0.39
   1  -5  -5    4.08    0.28
  -1  -5   5    3.74    0.22
   1   5   5    4.73    0.40
   2  -5   5   16.34    0.65
  -2  -5  -5   17.66    0.74
   2   5  -5   15.31    0.58
   2   5   5   16.81    0.71
  -2  -5   5   17.60    0.87
   2  -5  -5   17.17    0.66
   3  -5   5    2.38    0.27
  -3  -5  -5    2.39    0.36
  -3  -5   5    3.01    0.48
   3  -5  -5    2.43    0.28
   3   5   5    2.35    0.28
   4  -5   5    1.26    0.25
  -4  -5   5    1.46    0.49
   4  -5  -5    0.52    0.21
   0  -6   5    0.16    0.13
   0  -6  -5    0.17    0.12
   0  -6   5    0.17    0.19
  -1  -6  -5    2.35    0.26
   1  -6   5    1.57    0.21
  -1  -6   5    2.13    0.35
   1   6   5    2.16    0.34
  -1  -6   5    1.75    0.19
   1  -6  -5    2.11    0.25
  -2  -6  -5    0.98    0.23
   2  -6   5    0.81    0.19
   2   6   5    0.94    0.27
  -2  -6   5    1.10    0.33
   2  -6  -5    1.00    0.21
   3  -6   5    4.01    0.39
   3  -6  -5    3.12    0.34
  -3  -6   5    4.11    0.56
   3   6   5    4.51    0.36
   0  -7  -5    2.87    0.29
   0  -7   5    2.53    0.26
   0  -7   5    3.09    0.40
   1  -7   5    3.95    0.32
   1  -7  -5    3.63    0.34
   1   7   5    5.15    0.49
  -1  -7   5    4.34    0.47
   2  -7   5    1.55    0.27
   2   7   5    1.38    0.33
   2  -7  -5    1.47    0.26
  -2  -7   5    1.76    0.37
   3  -7   5    3.06    0.37
  -3  -7   5    2.71    0.47
   3  -7  -5    3.73    0.39
   0  -8   5    1.12    0.23
   0  -8   5    1.41    0.32
   0  -8  -5    1.05    0.24
   1  -8   5    0.89    0.23
   1   8   5    1.18    0.36
   1  -8  -5    1.03    0.26
  -1  -8   5    1.03    0.33
   2  -8   5    4.54    0.43
   2   8   5    4.42    0.51
  -2  -8   5    4.53    0.54
   2  -8  -5    5.35    0.44
   0  -9   5    3.65    0.36
   0   0   6  486.63   15.29
   0   0   6  503.78   13.47
   1   0   6    6.58    0.25
   1   0  -6    6.57    0.21
  -1   0   6    6.85    0.34
   2   0  -6   30.33    0.83
   2   0   6   29.91    0.91
  -2   0   6   28.27    1.09
   3   0  -6   43.76    1.24
  -3   0   6   44.19    1.65
   3   0   6   44.52    1.34
  -4   0  -6    1.69    0.32
  -4   0   6    1.26    0.38
   4   0  -6    1.19    0.15
   4   0   6    1.20    0.17
  -5   0  -6    0.93    0.41
  -5   0   6    0.35    0.43
   5   0   6    1.03    0.21
   0   1   6   59.54    1.78
   0  -1   6   59.28    1.57
   0   1   6   58.63    1.62
   0  -1   6   49.93    1.84
  -1   1   6   64.64    1.98
   1  -1   6   62.59    1.73
  -1  -1   6   55.67    2.03
   1  -1  -6   61.64    1.65
   1   1   6   61.91    1.75
  -2   1   6   58.77    1.94
  -2  -1  -6   56.66    1.87
   2  -1   6   57.34    1.66
   2   1  -6   57.00    1.52
   2  -1  -6   57.06    1.58
   2   1   6   56.93    1.66
  -2  -1   6   57.70    1.99
   3  -1   6   16.80    0.59
  -3  -1  -6   16.64    0.71
  -3   1   6   16.30    0.78
   3   1  -6   16.80    0.51
   3   1   6   16.59    0.60
  -3  -1   6   17.29    0.84
   3  -1  -6   16.78    0.56
  -4  -1  -6    0.13    0.24
  -4   1   6    0.22    0.27
   4  -1   6    0.21    0.12
  -4  -1   6    0.35    0.34
   4  -1  -6    0.29    0.12
  -5  -1  -6    1.49    0.45
  -5   1   6    0.72    0.43
   5  -1   6    1.11    0.23
  -5   1  -6    1.61    0.39
  -5  -1   6    0.45    0.47
   5   1   6    0.90    0.19
   0  -2   6  264.75    7.05
   0   2   6  271.98    8.30
   0  -2   6  270.49    8.40
   1  -2   6    1.79    0.12
  -1  -2  -6    1.47    0.13
   1  -2  -6    1.65    0.13
  -1  -2   6    1.84    0.26
   1   2   6    1.59    0.18
   2   2  -6  100.93    2.60
   2   2  -6   96.63    2.60
  -2  -2  -6   98.56    3.19
   2  -2   6   99.58    2.71
  -2  -2   6   98.59    3.33
   2   2   6   99.44    2.82
   2  -2  -6  103.72    2.70
   3   2  -6    3.71    0.16
   3  -2   6    3.51    0.24
  -3  -2  -6    3.99    0.36
   3   2   6    4.22    0.27
   3  -2  -6    4.02    0.25
  -3  -2   6    3.89    0.45
   4  -2   6    6.59    0.36
  -4  -2  -6    5.66    0.51
  -4   2   6    5.22    0.55
   4   2   6    5.41    0.33
  -4  -2   6    4.45    0.59
   4  -2  -6    4.73    0.31
   0  -3   6  100.51    2.68
   0  -3   6  101.31    3.27
   0  -3  -6   99.56    2.71
  -1  -3  -6   20.80    0.72
   1  -3   6   20.51    0.65
   1  -3  -6   21.82    0.67
  -1  -3   6   20.79    0.87
  -1  -3   6   20.81    0.59
   1   3   6   20.17    0.73
   2  -3   6    2.33    0.19
  -2  -3  -6    2.60    0.27
  -2  -3   6    2.67    0.38
   2   3   6    3.10    0.28
   3  -3   6   35.63    1.10
  -3  -3  -6   33.28    1.31
   3   3   6   35.13    1.11
  -3  -3   6   31.66    1.42
   3  -3  -6   34.82    1.08
  -4   3   6    4.81    0.46
   4  -3   6    5.95    0.37
  -4  -3  -6    4.95    0.54
   4  -3  -6    5.57    0.35
  -4  -3   6    5.45    0.67
   4   3   6    5.48    0.34
   0  -4  -6    8.77    0.36
   0  -4   6    8.88    0.34
   0  -4   6    8.66    0.47
  -1  -4  -6   21.06    0.74
   1  -4   6   20.69    0.68
   1   4   6   20.37    0.77
  -1  -4   6   21.12    0.61
  -1  -4   6   19.72    0.89
   1  -4  -6   19.95    0.69
   2   4  -6   17.21    0.54
  -2  -4  -6   17.84    0.73
   2  -4   6   18.40    0.65
   2   4   6   17.62    0.70
   2  -4  -6   17.41    0.64
  -2  -4   6   17.71    0.88
  -3  -4  -6    8.04    0.54
   3  -4   6    8.42    0.44
   3  -4  -6    8.71    0.43
  -3  -4   6    8.14    0.65
   3   4   6    8.72    0.44
   4  -4   6    0.94    0.21
   4  -4  -6    0.96    0.22
  -4  -4   6    0.98    0.43
   4   4   6    1.18    0.21
   0  -5   6   37.58    1.12
   0  -5  -6   37.85    1.15
   0  -5   6   37.95    1.42
  -1  -5  -6   16.91    0.64
   1  -5   6   15.46    0.59
   1   5   6   15.98    0.70
   1  -5  -6   15.62    0.60
  -1  -5   6   16.33    0.78
  -1  -5   6   15.75    0.52
  -2  -5  -6   19.22    0.78
   2  -5   6   18.48    0.71
  -2  -5   6   17.81    0.93
   2   5   6   19.91    0.80
   2  -5  -6   20.18    0.73
   3  -5   6    2.05    0.25
   3   5   6    2.72    0.30
  -3  -5   6    2.53    0.46
   3  -5  -6    1.82    0.26
   4  -5   6    0.80    0.22
  -4  -5   6    0.85    0.42
   4  -5  -6    0.46    0.20
   0  -6   6   17.61    0.63
   0  -6   6   17.44    0.83
   0  -6  -6   17.63    0.66
   1  -6   6    9.62    0.45
  -1  -6  -6    9.63    0.47
   1  -6  -6    9.87    0.48
  -1  -6   6    8.44    0.58
  -1  -6   6   10.16    0.39
   1   6   6    9.66    0.56
   2  -6   6    4.12    0.32
   2  -6  -6    3.22    0.32
  -2  -6   6    3.76    0.48
   2   6   6    4.40    0.43
   3  -6   6    0.53    0.20
   3   6   6    0.46    0.21
  -3  -6   6    1.11    0.37
   3  -6  -6    0.78    0.21
   0  -7   6    1.81    0.33
   0  -7   6    1.27    0.20
   0  -7  -6    1.38    0.23
   1  -7   6    0.60    0.18
  -1  -7   6    0.19    0.14
  -1  -7   6    0.69    0.27
   1   7   6    0.55    0.29
   1  -7  -6    0.52    0.20
   2  -7   6    0.70    0.20
  -2  -7   6    0.53    0.33
   2  -7  -6    1.06    0.24
   2   7   6    0.67    0.30
   3  -7   6    2.31    0.33
   3  -7  -6    3.04    0.37
  -3  -7   6    2.26    0.50
   0  -8   6    0.19    0.17
   0  -8   6    0.62    0.27
   1  -8   6    4.03    0.38
  -1  -8   6    3.81    0.48
   1   8   6    3.64    0.49
   1  -8  -6    4.01    0.40
   2  -8   6    0.39    0.21
   2  -8  -6    0.24    0.22
  -2  -8   6    0.42    0.31
   2   8   6    0.17    0.29
   0   0   7    0.05    0.07
   0   0   7   -0.03    0.10
  -1   0   7  140.16    4.49
   1   0   7  143.15    3.91
   1   0  -7  143.01    3.71
   2   0   7    1.81    0.16
   2   0  -7    1.87    0.11
  -2   0   7    1.69    0.23
  -3   0   7    0.52    0.26
   3   0   7    0.21    0.11
  -4   0   7    1.65    0.40
   4   0   7    1.65    0.20
  -4   0  -7    1.60    0.30
  -5   0   7    0.45    0.47
  -5   0  -7    0.59    0.36
   5   0   7    0.65    0.18
   0  -1   7   23.33    0.65
   0   1   7   22.16    0.70
   0  -1   7   20.83    0.81
   0   1   7   23.56    0.74
  -1   1   7   48.91    1.59
   1  -1   7   48.43    1.38
   1  -1  -7   47.35    1.31
  -1  -1   7   47.47    1.65
   1   1   7   48.80    1.41
   2  -1   7    1.79    0.16
  -2   1   7    1.48    0.21
   2   1   7    1.71    0.17
  -2  -1   7    1.58    0.27
   3  -1   7    6.35    0.31
  -3   1   7    6.32    0.46
  -3  -1  -7    6.22    0.39
   3   1  -7    6.27    0.24
   3  -1  -7    6.65    0.29
  -3  -1   7    6.28    0.52
   3   1   7    5.88    0.31
  -4  -1  -7    0.36    0.25
  -4   1   7    0.08    0.29
   4  -1   7    0.37    0.13
   4  -1  -7    0.11    0.10
  -4  -1   7    0.46    0.31
   4   1   7    0.57    0.16
  -5  -1  -7   -0.52    0.33
  -5   1   7   -0.08    0.38
  -5  -1   7    0.37    0.45
  -5   1  -7   -0.10    0.29
   0  -2   7    0.74    0.16
   0   2   7    0.46    0.13
   0  -2   7    0.52    0.06
  -1  -2  -7    2.46    0.14
   1  -2   7    2.85    0.15
   1   2   7    2.73    0.22
  -1  -2   7    2.56    0.30
   1  -2  -7    2.60    0.16
   2  -2   7    6.40    0.29
  -2  -2  -7    6.01    0.34
  -2  -2   7    5.97    0.49
   2   2   7    6.65    0.32
   2  -2  -7    7.37    0.30
  -3  -2  -7    6.97    0.44
   3  -2   7    7.43    0.35
  -3   2   7    7.47    0.47
   3   2   7    7.32    0.36
  -3  -2   7    7.79    0.59
   3  -2  -7    7.05    0.33
   4  -2   7    0.93    0.18
  -4  -2  -7    1.03    0.32
  -4   2   7    0.83    0.33
  -4  -2   7    1.55    0.44
   4  -2  -7    1.10    0.17
   4   2   7    0.99    0.20
   0  -3   7    9.87    0.33
   0  -3  -7   10.05    0.37
   0  -3   7    9.50    0.49
  -1  -3  -7    4.87    0.22
   1  -3   7    5.03    0.23
  -1  -3   7    5.43    0.40
  -1  -3   7    4.93    0.18
   1  -3  -7    4.89    0.24
   1   3   7    5.10    0.32
  -2  -3  -7    1.17    0.19
   2  -3   7    0.74    0.13
  -2  -3   7    0.87    0.26
   2   3   7    1.17    0.21
   2  -3  -7    0.77    0.13
  -3  -3  -7    3.59    0.38
   3  -3   7    3.19    0.26
   3  -3  -7    4.08    0.27
   3   3   7    3.71    0.28
  -3  -3   7    2.79    0.45
   4  -3   7    7.56    0.43
  -4  -3  -7    6.58    0.56
  -4   3   7    6.19    0.53
   4  -3  -7    6.96    0.40
   4   3   7    7.07    0.40
  -4  -3   7    6.55    0.74
   0  -4   7    0.60    0.10
   0  -4   7    0.74    0.20
   0  -4  -7    0.42    0.12
   1  -4   7    2.12    0.18
  -1  -4  -7    2.00    0.17
  -1  -4   7    2.40    0.34
  -1  -4   7    1.81    0.13
   1   4   7    2.09    0.29
   1  -4  -7    1.88    0.19
   2  -4   7   30.58    0.98
  -2  -4  -7   30.21    1.10
   2  -4  -7   29.78    0.98
  -2  -4   7   31.60    1.30
   2   4   7   30.57    1.05
  -3  -4  -7   10.03    0.56
   3  -4   7    9.06    0.46
   3  -4  -7    9.12    0.45
  -3  -4   7    9.08    0.69
   3   4   7    8.97    0.47
   4  -4   7    3.52    0.35
   4  -4  -7    3.42    0.34
   4   4   7    4.24    0.32
  -4  -4   7    3.14    0.57
   0  -5   7   48.50    1.40
   0  -5   7   48.85    1.76
   0  -5  -7   48.09    1.44
   1  -5   7   11.24    0.47
  -1  -5  -7   11.81    0.48
   1  -5  -7   11.86    0.50
   1   5   7   11.14    0.59
  -1  -5   7   11.66    0.65
  -1  -5   7   11.18    0.40
  -2  -5  -7   22.73    0.85
   2  -5   7   20.96    0.78
   2  -5  -7   22.11    0.79
   2   5   7   22.82    0.88
  -2  -5   7   20.60    1.03
   3  -5   7    1.81    0.25
   3  -5  -7    2.55    0.28
  -3  -5   7    2.03    0.46
   3   5   7    2.99    0.32
   4  -5   7    0.10    0.18
  -4  -5   7    0.06    0.39
   4  -5  -7    0.07    0.18
   0  -6   7    0.78    0.16
   0  -6   7    0.67    0.25
   0  -6  -7    0.95    0.19
   1  -6   7    2.48    0.25
   1  -6  -7    2.44    0.28
   1   6   7    3.09    0.39
  -1  -6   7    2.58    0.20
  -1  -6   7    2.26    0.38
   2  -6   7    5.38    0.36
   2  -6  -7    5.35    0.36
  -2  -6   7    5.42    0.52
   2   6   7    5.42    0.47
   3  -6   7    0.89    0.23
   3  -6  -7    1.18    0.24
  -3  -6   7    0.74    0.36
   3   6   7    1.29    0.27
   0  -7   7    0.05    0.21
   0  -7   7    0.21    0.14
   1  -7   7    5.20    0.36
  -1  -7   7    4.80    0.46
   1  -7  -7    4.44    0.35
   1   7   7    5.47    0.53
  -1  -7   7    4.73    0.29
   2  -7   7    0.11    0.16
   2   7   7    0.12    0.28
  -2  -7   7    0.35    0.29
   2  -7  -7   -0.03    0.15
   3  -7   7    1.59    0.30
  -3  -7   7    1.83    0.44
   3  -7  -7    0.79    0.23
   3   7   7    1.33    0.30
   0  -8   7    0.62    0.20
   0  -8   7    0.98    0.33
   0   8   7    1.57    0.36
   1  -8   7    0.23    0.17
   1  -8  -7    0.28    0.22
  -1  -8   7    0.76    0.31
   1   8   7    0.12    0.30
   2  -8   7    0.92    0.26
  -2  -8   7    1.61    0.39
   2   8   7    1.21    0.38
   2  -8  -7    1.03    0.28
   0   0   8  173.18    5.37
   0   0   8  170.73    4.70
  -1   0   8   23.97    0.89
   1   0   8   24.62    0.75
   2   0   8   33.12    1.02
  -2   0   8   32.78    1.24
   2   0  -8   34.25    0.93
   3   0   8    3.20    0.24
   3   0  -8    3.31    0.18
  -3   0   8    3.05    0.42
  -4   0   8    0.88    0.37
  -4   0  -8    1.06    0.26
   4   0   8    0.82    0.16
  -5   0   8    0.98    0.48
  -5   0  -8    1.19    0.37
   0   1   8   36.46    1.11
   0  -1   8   36.86    1.05
   0  -1  -8   37.15    1.18
   0   1   8   37.40    1.21
   0  -1   8   39.60    1.29
  -1   1   8   38.60    1.31
   1  -1   8   38.62    1.13
  -1  -1  -8   39.17    1.24
   1   1   8   38.62    1.17
   1  -1  -8   39.87    1.08
  -1  -1   8   39.14    1.38
   2   1  -8    9.73    0.29
   2  -1   8    9.50    0.38
  -2   1   8    9.28    0.49
   2  -1  -8    9.86    0.35
  -2  -1   8   10.29    0.31
   2   1   8    9.62    0.40
  -2  -1   8    9.83    0.55
  -3   1   8    0.54    0.24
   3   1  -8    0.48    0.08
   3  -1   8    0.67    0.13
  -3  -1  -8    0.68    0.19
   3  -1  -8    0.52    0.11
   3   1   8    0.67    0.14
  -3  -1   8    0.37    0.30
  -4   1   8    9.28    0.67
  -4  -1  -8    9.03    0.56
   4  -1   8    9.08    0.43
   4  -1  -8    8.96    0.40
   4   1   8    9.61    0.45
  -4  -1   8    8.15    0.70
   0  -2   8  227.33    6.01
   0   2   8  230.61    6.34
   0  -2   8  241.11    7.24
   0   2   8  222.73    7.11
   1  -2   8   64.34    1.78
   1   2   8   64.86    1.91
   1  -2  -8   64.75    1.79
  -1  -2   8   67.03    2.23
  -2  -2  -8   16.63    0.64
   2  -2   8   16.90    0.56
  -2  -2   8   16.23    0.80
   2   2   8   16.74    0.61
   2  -2  -8   17.06    0.56
  -3  -2  -8   11.99    0.59
   3  -2   8   12.46    0.48
  -3   2   8   11.53    0.63
   3   2   8   11.81    0.50
   3  -2  -8   11.91    0.46
  -3  -2   8   11.39    0.70
  -4  -2  -8    1.01    0.32
  -4   2   8    1.44    0.36
   4  -2   8    1.61    0.22
  -4  -2   8    2.01    0.47
   4   2   8    1.22    0.22
   4  -2  -8    1.29    0.19
   0  -3   8  158.10    4.07
   0  -3   8  152.59    4.93
   0   3   8  151.36    4.33
   1  -3   8   75.02    2.06
  -1  -3  -8   77.01    2.33
   1  -3   8   78.00    2.50
   1  -3  -8   72.22    2.07
   1   3   8   73.58    2.20
  -1  -3   8   75.81    1.97
  -1  -3   8   71.83    2.55
   2  -3   8   28.76    0.90
  -2  -3  -8   28.16    1.01
   2  -3  -8   28.28    0.89
   2   3   8   28.32    0.96
  -2  -3   8   29.05    1.20
  -3  -3  -8    3.86    0.37
   3  -3   8    3.19    0.26
  -3  -3   8    3.57    0.49
   3  -3  -8    3.42    0.25
   3   3   8    3.87    0.30
  -4   3   8    1.75    0.36
   4  -3   8    1.73    0.25
   4   3   8    2.35    0.27
  -4  -3   8    2.21    0.51
   4  -3  -8    2.05    0.25
   0  -4   8    1.50    0.14
   0  -4   8    1.80    0.27
   1  -4   8   41.78    1.22
   1  -4   8   42.00    1.50
  -1  -4  -8   41.61    1.34
  -1  -4   8   40.60    1.56
  -1  -4   8   40.64    1.14
   1   4   8   40.39    1.35
   1  -4  -8   41.90    1.24
  -2  -4  -8    9.26    0.43
   2  -4   8    8.91    0.40
  -2  -4   8    8.59    0.62
   2  -4  -8    7.80    0.39
   2   4   8    8.95    0.47
  -3  -4  -8    7.85    0.52
   3  -4   8    7.77    0.42
   3  -4  -8    8.80    0.43
   3   4   8    7.66    0.43
  -3  -4   8    7.01    0.64
   4  -4   8    4.16    0.34
  -4   4   8    4.11    0.49
   4   4   8    3.81    0.32
   4  -4  -8    3.89    0.32
  -4  -4   8    3.36    0.59
   0  -5   8    1.26    0.16
   0  -5  -8    1.20    0.18
   0  -5   8    1.29    0.26
   1  -5   8   16.46    0.61
   1   5   8   16.84    0.72
  -1  -5   8   17.02    0.83
  -1  -5   8   16.37    0.53
   1  -5  -8   15.65    0.61
   2  -5   8   26.51    0.91
   2  -5  -8   26.62    0.92
   2   5   8   27.25    1.02
  -2  -5   8   26.22    1.20
   3  -5   8    0.90    0.20
   3   5   8    1.04    0.23
  -3  -5   8    0.90    0.38
   3  -5  -8    0.61    0.19
   4  -5   8    0.13    0.18
   4   5   8    0.46    0.20
   4  -5  -8    0.33    0.21
  -4  -5   8    1.06    0.43
   0  -6   8   31.13    1.28
   0  -6   8   32.00    0.99
   1  -6   8   14.04    0.58
  -1  -6   8   14.72    0.50
   1  -6  -8   13.95    0.60
  -1  -6   8   13.66    0.76
   1   6   8   14.17    0.72
   2  -6   8    4.28    0.32
   2   6   8    3.83    0.44
  -2  -6   8    4.69    0.54
   2  -6  -8    3.54    0.33
   3  -6   8    1.22    0.24
   3  -6  -8    1.03    0.24
   3   6   8    1.43    0.27
  -3  -6   8    1.15    0.44
   0  -7   8    1.09    0.19
   0  -7   8    1.69    0.34
   1  -7   8   10.78    0.51
   1   7   8   10.95    0.66
   1  -7  -8   11.16    0.56
  -1  -7   8   10.10    0.66
   2  -7   8    2.91    0.33
   2  -7  -8    2.97    0.35
  -2  -7   8    3.17    0.48
   2   7   8    2.97    0.43
   3  -7   8    0.90    0.25
   3  -7  -8    1.08    0.27
   3   7   8    1.23    0.30
  -3  -7   8    0.79    0.39
   0   8   8    7.26    0.61
   0  -8   8    5.72    0.53
   0  -8   8    5.84    0.38
   1  -8   8    0.40    0.18
   1  -8  -8    0.45    0.23
   1   8   8    0.32    0.33
  -1  -8   8    0.38    0.31
   2  -8   8    4.21    0.42
   2   8   8    4.19    0.52
  -2  -8   8    3.68    0.52
   2  -8  -8    3.76    0.42
   0   0   9    0.09    0.11
   0   0   9    0.10    0.08
   1   0   9  186.69    5.19
  -1   0   9  191.83    5.16
  -1   0   9  188.76    5.96
   2   0   9    3.23    0.21
  -2   0   9    3.19    0.34
   2   0  -9    3.22    0.15
  -3   0   9    0.29    0.28
   3   0  -9    0.56    0.09
   3   0   9    0.63    0.15
   4   0   9    2.32    0.24
  -4   0  -9    2.79    0.35
  -4   0   9    2.44    0.48
   0  -1   9   16.68    0.70
   0  -1   9   19.40    0.55
   0   1   9   18.81    0.64
   0   1   9   18.06    0.61
   1  -1   9   51.86    1.50
  -1  -1  -9   51.57    1.66
  -1   1   9   52.39    1.74
   1   1   9   52.00    1.54
  -1  -1   9   53.11    1.81
  -1  -1   9   52.38    1.38
   1  -1  -9   53.80    1.43
   2   1  -9   46.47    1.22
  -2   1   9   48.41    1.64
   2  -1   9   46.60    1.37
   2   1   9   44.99    1.39
   2  -1  -9   47.01    1.29
  -2  -1   9   43.14    1.66
  -3   1   9    7.38    0.51
  -3  -1  -9    8.34    0.43
   3   1  -9    7.89    0.28
   3   1   9    7.76    0.37
  -3  -1   9    8.05    0.60
   3  -1  -9    7.88    0.32
   4  -1   9    1.33    0.20
  -4   1   9    1.05    0.38
  -4  -1  -9    1.65    0.31
  -4  -1   9    2.06    0.47
   4   1   9    2.28    0.26
   0   2   9    1.21    0.19
   0   2   9    1.15    0.10
   0  -2   9    1.02    0.08
   0  -2   9    0.85    0.18
   1  -2   9   59.99    1.69
  -1   2   9   62.51    2.01
   1  -2   9   64.73    2.06
   1   2   9   61.29    1.82
   1  -2  -9   60.52    1.70
  -1  -2   9   61.28    2.13
  -2   2   9    8.74    0.46
   2  -2   9    8.82    0.36
  -2  -2  -9    9.00    0.39
  -2  -2   9    8.58    0.54
   2   2   9    8.81    0.40
   2  -2  -9    9.22    0.35
   3  -2   9    0.37    0.13
  -3   2   9    0.47    0.24
  -3  -2  -9    0.46    0.20
   3  -2  -9    0.50    0.13
   3   2   9    0.49    0.15
  -3  -2   9    0.12    0.30
  -4  -2  -9    0.45    0.29
   4  -2   9    0.94    0.19
  -4   2   9    0.50    0.30
  -4  -2   9    0.80    0.41
   4   2   9    0.93    0.20
   4  -2  -9    0.44    0.15
   0  -3   9    1.10    0.10
   0   3   9    0.95    0.21
   0  -3   9    1.13    0.22
   1  -3   9   32.54    0.94
   1  -3   9   30.59    1.16
   1  -3  -9   31.94    0.96
  -1  -3   9   31.32    1.24
   1   3   9   32.34    1.05
  -1  -3   9   31.58    0.86
   2  -3   9    4.60    0.26
  -2  -3  -9    4.63    0.29
  -2  -3   9    4.40    0.48
   2  -3  -9    5.13    0.28
   2   3   9    4.66    0.34
  -3   3   9    5.76    0.44
   3  -3   9    6.85    0.35
  -3  -3  -9    5.19    0.41
  -3  -3   9    6.03    0.57
   3  -3  -9    6.28    0.33
   3   3   9    6.55    0.38
   4  -3   9    2.93    0.31
  -4   3   9    3.02    0.44
  -4  -3   9    3.38    0.60
   4  -3  -9    2.89    0.29
   4   3   9    3.64    0.33
   0  -4   9    6.31    0.42
   0  -4   9    6.61    0.27
   0   4   9    6.36    0.42
   1  -4   9   59.37    1.71
   1  -4   9   59.03    2.08
   1  -4  -9   60.04    1.73
  -1  -4   9   61.25    1.62
   1   4   9   59.01    1.86
  -1  -4   9   61.28    2.16
  -2  -4  -9   12.66    0.51
   2  -4   9   12.19    0.50
  -2  -4   9   11.92    0.74
   2   4   9   12.01    0.57
   2  -4  -9   12.26    0.51
   3  -4   9    1.86    0.24
   3  -4  -9    2.81    0.27
   3   4   9    3.26    0.32
  -3  -4   9    3.09    0.51
  -4   4   9    1.18    0.33
   4  -4   9    0.78    0.20
  -4  -4   9    1.39    0.49
   4  -4  -9    0.75    0.20
   4   4   9    1.38    0.24
   0  -5   9   65.11    2.27
   0  -5   9   64.07    1.81
   1  -5   9    0.13    0.11
  -1  -5   9    0.17    0.09
   1   5   9    0.23    0.24
  -1  -5   9    0.14    0.22
   1  -5  -9    0.13    0.14
   2  -5   9    2.28    0.24
   2  -5  -9    2.50    0.27
  -2  -5   9    2.12    0.40
   2   5   9    2.43    0.35
   3  -5   9    1.08    0.20
   3  -5  -9    1.11    0.22
  -3  -5   9    1.25    0.40
   3   5   9    1.15    0.24
   4  -5   9    0.13    0.18
   4   5   9    0.12    0.18
  -4  -5   9    0.37    0.43
   4  -5  -9    0.03    0.17
   0   6   9    6.51    0.50
   0  -6   9    6.14    0.32
   0  -6   9    5.85    0.48
   1  -6   9    7.30    0.39
   1   6   9    6.80    0.54
  -1  -6   9    6.93    0.54
   1  -6  -9    7.19    0.42
  -1  -6   9    6.81    0.31
   2  -6   9    5.49    0.36
   2  -6  -9    5.12    0.37
   2   6   9    5.82    0.53
  -2  -6   9    5.43    0.54
   3  -6   9    1.04    0.24
  -3  -6   9    0.96    0.39
   3  -6  -9    1.22    0.25
   3   6   9    1.63    0.30
   0  -7   9    4.97    0.32
   0  -7   9    4.87    0.47
   0   7   9    5.19    0.54
   1  -7   9    1.92    0.25
   1  -7  -9    1.77    0.27
  -1  -7   9    2.57    0.42
   1   7   9    2.63    0.42
   2  -7   9    0.96    0.23
   2   7   9    1.24    0.36
  -2  -7   9    1.67    0.40
   2  -7  -9    1.05    0.26
   0  -8   9    0.01    0.16
   0  -8   9    0.11    0.25
   0   8   9    0.62    0.34
   1  -8   9    0.83    0.22
  -1  -8   9    1.49    0.37
   1   8   9    1.30    0.39
   1  -8  -9    0.67    0.25
  -2  -8   9    1.24    0.42
   0   0  10   20.06    0.71
   0   0  10   18.33    0.60
  -1   0  10    0.21    0.16
  -1   0  10    0.24    0.09
   1   0  10    0.21    0.10
   2   0 -10   11.07    0.36
  -2   0  10   11.53    0.60
   2   0  10   11.20    0.44
  -3   0  10    5.34    0.51
   3   0  10    5.67    0.32
   3   0 -10    6.03    0.25
  -4   0  10    2.11    0.47
  -4   0 -10    3.58    0.38
   0   1  10  155.92    4.78
   0  -1  10  153.00    4.19
   0   1  10  151.14    4.24
   0  -1  10  152.88    4.86
   1  -1  10   79.41    2.23
  -1  -1 -10   74.42    2.48
  -1   1  10   80.95    2.58
   1  -1 -10   81.76    2.13
   1   1  10   79.69    2.27
  -1  -1  10   81.50    2.08
  -1  -1  10   78.07    2.63
  -1  -1  10   77.74    2.16
   2  -1  10    0.55    0.12
  -2   1  10    0.24    0.19
   2   1  10    0.37    0.13
  -2  -1  10    0.30    0.21
   2  -1 -10    0.37    0.08
  -3  -1 -10    2.43    0.26
  -3   1  10    1.70    0.32
   3  -1 -10    2.08    0.17
   3   1  10    2.09    0.23
  -3  -1  10    2.67    0.42
   4  -1  10    1.28    0.21
  -4   1  10    1.30    0.40
  -4  -1 -10    1.73    0.31
  -4  -1  10    1.03    0.42
   4   1  10    1.78    0.25
   0  -2  10   56.99    1.52
   0  -2  10   59.11    1.93
   0   2  10   54.33    1.66
   0   2  10   55.08    1.78
   1  -2  10   66.07    2.19
  -1   2  10   67.76    2.15
   1  -2 -10   64.35    1.81
   1   2  10   65.11    1.94
  -1  -2  10   65.96    2.28
  -2  -2 -10   15.58    0.59
  -2   2  10   15.07    0.68
   2  -2  10   15.79    0.54
   2   2  10   16.34    0.60
   2  -2 -10   15.94    0.54
  -2  -2  10   16.34    0.80
  -3   2  10    4.59    0.42
  -3  -2 -10    4.97    0.36
   3  -2  10    4.08    0.26
  -3  -2  10    4.49    0.55
   3   2  10    4.85    0.31
   3  -2 -10    4.85    0.27
  -4   2  10    1.14    0.38
   4  -2  10    1.34    0.22
  -4  -2 -10    1.47    0.32
   4   2  10    1.18    0.21
  -4  -2  10    1.34    0.46
   4  -2 -10    1.25    0.19
   0  -3  10   28.92    0.84
   0  -3  10   29.63    1.12
   0   3  10   28.88    0.99
   1  -3  10   48.46    1.34
   1  -3  10   43.22    1.63
  -1  -3  10   47.88    1.25
  -1  -3  10   46.55    1.72
   1  -3 -10   47.74    1.36
   1   3  10   46.63    1.46
  -2  -3 -10    5.72    0.30
   2  -3  10    5.78    0.29
   2  -3 -10    5.18    0.28
   2   3  10    5.57    0.36
  -2  -3  10    5.16    0.50
  -3   3  10    4.08    0.38
   3  -3  10    3.93    0.27
  -3  -3 -10    3.87    0.36
  -3  -3  10    3.93    0.53
   3   3  10    4.03    0.32
   3  -3 -10    4.36    0.29
  -4   3  10    2.40    0.43
   4  -3  10    1.98    0.26
   4   3  10    2.41    0.29
   4  -3 -10    1.92    0.24
  -4  -3  10    2.27    0.52
   0  -4  10    1.10    0.24
   0  -4  10    0.72    0.11
   0   4  10    0.61    0.23
   1  -4  10   31.08    1.18
   1  -4  10   28.54    0.92
  -1  -4  10   30.07    0.84
   1   4  10   30.82    1.07
   1  -4 -10   29.68    0.95
  -1  -4  10   29.79    1.23
   2  -4  10    4.66    0.29
  -2  -4  10    5.01    0.55
   2  -4 -10    4.49    0.29
   2   4  10    4.63    0.37
   3  -4  10    0.40    0.15
  -3  -4  10    0.53    0.35
   3  -4 -10    0.09    0.14
   3   4  10    0.69    0.21
   4  -4  10    0.68    0.20
  -4   4  10    0.83    0.32
   4  -4 -10    0.83    0.20
   4   4  10    1.58    0.26
  -4  -4  10    0.74    0.45
   0   5  10    6.64    0.47
   0  -5  10    6.89    0.48
   0  -5  10    6.77    0.31
   1  -5  10   12.77    0.67
   1  -5  10   14.43    0.54
   1  -5 -10   13.10    0.56
   1   5  10   14.06    0.69
  -1  -5  10   13.27    0.45
  -1  -5  10   13.34    0.74
   2  -5  10    6.83    0.37
   2  -5 -10    5.40    0.36
   2   5  10    6.59    0.49
  -2  -5  10    6.73    0.58
   3  -5  10    0.02    0.14
   3   5  10    0.51    0.21
  -3  -5  10    0.01    0.33
   3  -5 -10   -0.06    0.14
  -4   5  10    0.66    0.28
  -4  -5  10    0.24    0.44
   0  -6  10   23.50    0.78
   0  -6  10   23.67    1.06
   0   6  10   23.70    1.00
   1  -6  10   13.75    0.58
  -1  -6  10   14.31    0.51
   1   6  10   13.47    0.72
   1  -6 -10   15.18    0.63
  -1  -6  10   15.79    0.82
   2  -6  10    0.35    0.16
   2   6  10    0.29    0.27
   2  -6 -10    0.22    0.17
  -2  -6  10    0.13    0.29
   3  -6  10    1.68    0.27
   3   6  10    1.75    0.31
   3  -6 -10    1.49    0.27
  -3  -6  10    1.38    0.44
   0   7  10    9.83    0.66
   0  -7  10    9.76    0.65
   0  -7  10   10.19    0.46
   1  -7  10    6.10    0.37
   1  -7 -10    5.70    0.41
  -1  -7  10    6.28    0.54
   1   7  10    6.07    0.59
   2  -7  10    1.34    0.25
  -2  -7  10    1.27    0.38
   2  -7 -10    1.47    0.27
   2   7  10    1.29    0.38
   0  -8  10    2.01    0.25
   0  -8  10    1.69    0.38
   0   8  10    1.74    0.42
   1  -8  10    2.87    0.32
   1   8  10    2.69    0.48
   1  -8 -10    3.30    0.38
  -1  -8  10    3.46    0.50
   0   0  11    5.67    0.25
   1   0  11   17.87    0.60
  -1   0  11   19.17    0.75
  -1   0  11   17.61    0.57
   2   0  11    2.76    0.20
  -2   0  11    2.61    0.35
   2   0 -11    2.62    0.14
   3   0  11   12.06    0.51
  -3   0  11   11.98    0.73
   3   0 -11   11.87    0.41
  -4   0  11    1.73    0.45
   0   1  11   -0.05    0.11
   0  -1  11    0.21    0.15
   0   1  11    0.11    0.10
   0  -1  11    0.05    0.06
   1  -1  11    0.11    0.08
  -1   1  11   -0.02    0.11
  -1   1  11   -0.14    0.14
   1  -1  11    0.07    0.10
  -1  -1  11    0.06    0.17
  -1  -1  11    0.03    0.05
   1   1  11    0.02    0.11
  -2   1  11   38.77    1.43
   2  -1  11   38.08    1.18
   2   1  11   38.64    1.20
   2  -1 -11   38.65    1.10
  -2  -1  11   39.31    1.48
  -3   1  11    4.72    0.49
   3  -1  11    4.59    0.29
  -3  -1 -11    4.50    0.30
   3  -1 -11    4.47    0.24
   3   1  11    4.62    0.29
  -3  -1  11    4.73    0.53
  -4   1  11   -0.47    0.29
   4  -1  11   -0.07    0.12
  -4  -1 -11    0.14    0.21
  -4  -1  11   -0.06    0.36
   4   1  11   -0.12    0.14
   0   2  11    4.12    0.21
   0   2  11    3.74    0.27
   0  -2  11    4.23    0.32
   1  -2  11   16.73    0.56
  -1   2  11   16.88    0.66
   1  -2  11   17.32    0.69
   1   2  11   17.00    0.64
   1  -2 -11   17.01    0.55
  -1  -2  11   16.16    0.76
  -2   2  11   11.34    0.56
  -2  -2 -11   10.96    0.45
   2  -2  11   11.28    0.43
   2   2  11   10.98    0.48
   2  -2 -11   11.70    0.43
  -2  -2  11   10.52    0.65
  -3   2  11    8.95    0.58
   3  -2  11    9.18    0.41
  -3  -2 -11    8.81    0.48
  -3  -2  11    9.71    0.71
   3   2  11    9.22    0.45
   3  -2 -11    8.98    0.39
  -4   2  11    1.30    0.39
   4  -2  11    0.92    0.19
   4   2  11    0.76    0.21
  -4  -2  11    0.23    0.41
   4  -2 -11    0.73    0.17
   0  -3  11    9.80    0.34
   0   3  11   11.05    0.50
   0   3  11    9.92    0.37
   0  -3  11    9.57    0.53
   1  -3  11   31.27    0.93
   1  -3  11   31.58    1.18
   1   3  11   31.23    1.06
   1  -3 -11   30.21    0.95
  -1  -3  11   33.32    1.27
  -1  -3  11   30.67    0.84
  -2  -3 -11    0.33    0.12
   2  -3  11    0.14    0.10
  -2   3  11    0.23    0.18
  -2  -3  11    0.49    0.30
   2  -3 -11    0.07    0.10
   2   3  11    0.31    0.18
   3  -3  11    1.76    0.22
  -3   3  11    2.27    0.35
   3   3  11    2.16    0.27
  -3  -3  11    2.08    0.44
   3  -3 -11    2.11    0.22
  -4   3  11    1.37    0.36
   4  -3  11    0.97    0.21
  -4  -3  11    1.09    0.47
   4  -3 -11    1.27    0.21
   4   3  11    1.65    0.26
   0  -4  11  167.95    5.42
   0  -4  11  167.06    4.45
   0   4  11  167.30    4.77
   1  -4  11    2.15    0.19
   1  -4  11    2.26    0.31
   1   4  11    2.28    0.32
  -1  -4  11    2.01    0.37
   1  -4 -11    1.77    0.20
  -1  -4  11    2.18    0.12
   2  -4  11    0.97    0.16
   2   4  11    1.12    0.25
  -2  -4  11    1.06    0.34
   2  -4 -11    0.77    0.16
  -3   4  11    3.97    0.43
   3  -4  11    3.30    0.27
   3   4  11    4.25    0.35
   3  -4 -11    3.42    0.31
  -3  -4  11    3.91    0.57
  -4   4  11    1.15    0.36
   4  -4  11    1.08    0.22
   4   4  11    1.21    0.24
  -4  -4  11    1.07    0.46
   4  -4 -11    0.79    0.20
   0  -5  11    0.16    0.21
   0  -5  11    0.11    0.09
   0   5  11   -0.15    0.22
   1  -5  11   48.73    1.74
   1  -5  11   46.25    1.38
   1   5  11   46.72    1.56
   1  -5 -11   44.20    1.40
  -1  -5  11   44.46    1.76
  -1  -5  11   46.05    1.28
   2  -5  11    0.98    0.18
   2   5  11    1.16    0.29
  -2  -5  11    1.48    0.38
   2  -5 -11    0.94    0.20
   3  -5  11    2.21    0.28
   3   5  11    2.72    0.34
  -3  -5  11    2.36    0.50
   3  -5 -11    2.52    0.29
   0   6  11   33.68    1.29
   0  -6  11   34.74    1.08
   0  -6  11   36.44    1.43
   1  -6  11   13.09    0.56
   1  -6 -11   14.81    0.62
  -1  -6  11   13.86    0.79
   1   6  11   14.65    0.76
   2  -6  11    0.08    0.14
   2   6  11   -0.02    0.26
   2  -6 -11   -0.03    0.16
  -2  -6  11   -0.13    0.30
   3  -6  11    2.60    0.32
  -3  -6  11    3.06    0.55
   3   6  11    1.71    0.34
   3  -6 -11    2.07    0.30
   0   7  11    1.14    0.36
   0  -7  11    1.44    0.34
   0  -7  11    1.18    0.20
   1  -7  11    7.01    0.41
   1   7  11    6.34    0.55
  -1  -7  11    6.92    0.57
   1  -7 -11    6.70    0.44
   2  -7  11    1.53    0.26
   2  -7 -11    1.51    0.29
  -2  -7  11    1.15    0.38
   2   7  11    2.03    0.40
   0  -8  11    0.18    0.27
   0   8  11   -0.27    0.33
   1  -8  11    0.24    0.19
  -1  -8  11    0.31    0.31
   1   8  11    0.64    0.36
   1  -8 -11    0.72    0.25
   0   0  12   35.67    1.05
   0   0  12   34.45    1.22
   1   0  12   71.00    2.01
  -1   0  12   69.83    1.97
  -1   0  12   68.86    2.35
   2   0  12   21.05    0.70
  -2   0  12   19.66    0.88
   3   0 -12    4.05    0.21
   3   0  12    4.47    0.29
  -3   0  12    4.18    0.51
  -4   0  12    2.84    0.54
   0   1  12  254.25    7.59
   0  -1  12  238.84    7.66
   0  -1  12  237.21    6.64
   0   1  12  245.06    6.70
   1  -1  12    8.78    0.42
   1  -1  12    9.85    0.37
  -1   1  12    9.54    0.46
  -1   1  12    9.18    0.39
   1   1  12   10.31    0.42
  -1  -1  12    9.66    0.30
  -1  -1  12    9.96    0.53
  -2   1  12    6.37    0.45
   2  -1  12    6.51    0.31
  -2  -1  12    6.02    0.50
   2   1  12    6.44    0.34
   2  -1 -12    6.51    0.27
   3  -1  12    0.90    0.17
  -3  -1 -12    0.83    0.17
  -3   1  12    0.59    0.31
  -3  -1  12    0.60    0.33
   3   1  12    0.75    0.17
   3  -1 -12    0.83    0.13
  -4   1  12    1.06    0.42
   4  -1  12    0.78    0.18
  -4  -1 -12    1.27    0.28
   4   1  12    0.94    0.21
  -4  -1  12    0.44    0.35
   0  -2  12   26.74    1.07
   0  -2  12   28.68    0.84
   0   2  12   28.91    0.94
   0   2  12   29.22    0.95
   1  -2  12   46.76    1.40
  -1   2  12   46.45    1.61
   1  -2  12   51.18    1.66
  -1  -2  12   46.95    1.74
  -1  -2  12   48.66    1.26
   1   2  12   46.79    1.47
  -2  -2 -12    9.31    0.39
  -2   2  12    9.91    0.54
   2  -2 -12    9.77    0.39
   2   2  12    9.91    0.46
  -2  -2  12    9.40    0.62
  -3  -2 -12    7.10    0.41
  -3   2  12    7.36    0.54
   3  -2  12    7.05    0.36
   3  -2 -12    7.02    0.34
  -3  -2  12    6.32    0.66
   3   2  12    7.15    0.39
  -4   2  12    3.55    0.54
   4  -2  12    3.76    0.30
  -4  -2  12    2.48    0.56
   4   2  12    3.78    0.36
   0  -3  12  113.08    2.91
   0  -3  12   98.47    3.57
   0   3  12  111.30    3.40
   0   3  12  112.03    3.15
   1  -3  12   29.01    1.09
   1  -3  12   28.48    0.85
  -1   3  12   27.35    1.00
   1  -3 -12   28.12    0.87
   1   3  12   26.46    0.97
  -1  -3  12   28.97    1.18
  -1  -3  12   27.48    0.76
  -2   3  12   13.09    0.62
   2  -3  12   13.15    0.50
  -2  -3  12   12.69    0.76
   2  -3 -12   13.10    0.50
   2   3  12   13.10    0.59
  -3   3  12    4.27    0.45
   3  -3  12    4.20    0.29
  -3  -3  12    4.02    0.54
   3   3  12    4.13    0.34
   3  -3 -12    3.84    0.28
   4  -3  12    0.66    0.19
  -4   3  12    0.68    0.35
  -4  -3  12    1.08    0.47
   4  -3 -12    0.50    0.18
   4   3  12    1.11    0.24
   0   4  12    0.26    0.24
   0  -4  12    0.49    0.10
   0  -4  12    0.50    0.23
   1  -4  12    3.26    0.36
   1  -4  12    3.43    0.22
  -1  -4  12    2.93    0.15
   1  -4 -12    3.17    0.25
   1   4  12    3.02    0.35
  -1  -4  12    3.34    0.41
   2  -4  12    5.61    0.32
  -2  -4  12    5.12    0.58
   2   4  12    5.79    0.44
   2  -4 -12    6.04    0.34
  -3   4  12    2.00    0.35
   3  -4  12    1.80    0.24
  -3  -4  12    1.68    0.41
   3  -4 -12    1.81    0.23
   3   4  12    2.58    0.32
   4  -4  12    0.82    0.20
  -4   4  12    0.56    0.33
   4   4  12    0.78    0.22
   4  -4 -12    0.64    0.20
  -4  -4  12    1.28    0.49
   0   5  12    5.20    0.45
   0  -5  12    5.56    0.45
   0  -5  12    5.61    0.27
   1  -5  12    4.04    0.43
   1  -5  12    3.87    0.27
  -1  -5  12    4.14    0.48
  -1  -5  12    3.14    0.19
   1   5  12    3.83    0.43
   1  -5 -12    3.72    0.29
   2  -5  12    1.27    0.21
  -2  -5  12    1.40    0.35
   2   5  12    2.00    0.34
   2  -5 -12    1.22    0.20
   3  -5  12    0.78    0.20
   3  -5 -12    0.51    0.19
   3   5  12    1.02    0.26
  -3  -5  12    0.58    0.39
   0  -6  12    2.91    0.24
   0  -6  12    2.36    0.37
   0   6  12    4.06    0.47
   1  -6  12    3.19    0.29
  -1  -6  12    3.44    0.46
   1   6  12    4.10    0.47
   1  -6 -12    2.76    0.30
   2  -6  12    5.48    0.37
   2   6  12    6.49    0.54
  -2  -6  12    5.03    0.60
   2  -6 -12    5.49    0.39
   3  -6  12    1.97    0.29
   3  -6 -12    1.58    0.28
   3   6  12    2.74    0.37
  -3  -6  12    2.07    0.51
   0   7  12   16.99    0.85
   0  -7  12   16.45    0.62
   0  -7  12   15.51    0.87
   1  -7  12    3.75    0.31
  -1  -7  12    3.42    0.48
   1  -7 -12    3.29    0.35
   1   7  12    2.45    0.45
   2  -7  12    0.51    0.19
  -2  -7  12    1.12    0.39
   2  -7 -12    0.74    0.24
   2   7  12    1.31    0.38
   0   8  12    1.60    0.43
   0  -8  12    1.16    0.37
   1  -8  12    0.61    0.20
   1   8  12    0.53    0.38
  -1  -8  12    0.61    0.34
   0   0  13    3.79    0.22
  -1   0  13   11.04    0.40
  -1   0  13   12.07    0.58
   1   0  13   10.78    0.43
  -2   0  13    0.13    0.25
   2   0  13    0.12    0.10
  -2   0  13    0.04    0.12
   3   0  13    9.21    0.44
  -3   0  13    9.85    0.68
  -4   0  13    2.67    0.53
   4   0  13    3.39    0.34
   0  -1  13   -0.03    0.15
   0  -1  13    0.04    0.07
   0   1  13    0.15    0.12
   0   1  13    0.07    0.13
  -1   1  13    9.95    0.42
   1  -1  13    9.45    0.44
   1  -1  13   10.79    0.39
  -1   1  13   10.71    0.51
  -1  -1  13   10.64    0.33
   1   1  13   10.32    0.44
  -1  -1  13    9.78    0.56
   2  -1  13    6.59    0.32
  -2   1  13    6.90    0.48
  -2  -1  13    5.92    0.48
   2   1  13    6.45    0.34
   2  -1 -13    6.25    0.27
   3  -1  13    7.15    0.38
  -3   1  13    7.59    0.60
  -3  -1  13    7.24    0.62
   3   1  13    7.12    0.38
   3  -1 -13    7.32    0.32
  -4   1  13    3.14    0.55
   4  -1  13    3.37    0.28
  -4  -1 -13    3.45    0.39
   4   1  13    3.73    0.36
  -4  -1  13    2.72    0.56
   0  -2  13    2.83    0.31
   0   2  13    2.62    0.26
   0  -2  13    2.52    0.14
   0   2  13    2.63    0.18
  -1   2  13   36.16    1.19
   1  -2  13   36.57    1.11
  -1   2  13   37.51    1.31
   1  -2  13   36.45    1.32
  -1  -2  13   38.01    0.99
   1   2  13   37.21    1.20
  -1  -2  13   38.00    1.44
  -2  -2 -13   18.86    0.67
  -2   2  13   18.30    0.84
  -2  -2  13   18.27    0.92
   2  -2 -13   19.70    0.64
   2   2  13   19.39    0.72
  -3   2  13    4.40    0.49
   3  -2  13    4.00    0.27
  -3  -2 -13    4.44    0.37
   3   2  13    4.96    0.34
   3  -2 -13    4.49    0.28
  -3  -2  13    4.48    0.57
   4  -2  13    1.53    0.23
  -4   2  13    1.71    0.46
  -4  -2  13    2.07    0.55
   4   2  13    2.70    0.31
   0  -3  13   17.24    0.54
   0  -3  13   16.87    0.78
   0   3  13   17.76    0.60
   0   3  13   17.00    0.70
   1  -3  13   15.64    0.54
   1  -3  13   16.53    0.72
  -1   3  13   17.06    0.65
  -1  -3  13   14.42    0.77
  -1  -3  13   15.87    0.45
   1   3  13   16.45    0.68
   2  -3  13   20.83    0.70
  -2   3  13   20.04    0.87
   2   3  13   20.01    0.80
   2  -3 -13   21.48    0.71
  -2  -3  13   19.96    1.01
   3  -3  13    0.75    0.17
  -3   3  13    0.70    0.29
  -3  -3  13    0.75    0.33
   3  -3 -13    0.85    0.17
   3   3  13    1.40    0.25
   4  -3  13    4.70    0.35
  -4   3  13    5.86    0.64
   4  -3 -13    4.81    0.35
  -4  -3  13    4.79    0.68
   4   3  13    5.28    0.39
   0   4  13    8.57    0.51
   0  -4  13    8.39    0.52
   0  -4  13    9.02    0.34
   0   4  13    8.60    0.34
   1  -4  13   12.32    0.64
   1  -4  13   12.48    0.47
  -1  -4  13   11.53    0.69
  -1  -4  13   12.50    0.38
   1   4  13   12.18    0.62
   1  -4 -13   13.07    0.51
   2  -4  13    9.85    0.44
  -2   4  13   10.23    0.53
   2  -4 -13    9.66    0.45
  -2  -4  13    9.63    0.69
   2   4  13   10.74    0.57
  -3   4  13    4.06    0.45
   3  -4  13    3.34    0.28
   3   4  13    4.21    0.40
  -3  -4  13    4.34    0.58
   3  -4 -13    3.49    0.32
   4  -4  13    0.55    0.19
  -4   4  13    0.00    0.29
   4   4  13    0.31    0.20
   4  -4 -13   -0.07    0.17
  -4  -4  13    0.52    0.44
   0  -5  13    2.96    0.21
   0  -5  13    3.35    0.41
   0   5  13    3.11    0.40
   1  -5  13    2.96    0.39
   1  -5  13    2.09    0.22
   1   5  13    2.23    0.36
   1  -5 -13    1.91    0.23
  -1  -5  13    2.18    0.40
   2  -5  13    5.93    0.36
   2   5  13    6.94    0.52
   2  -5 -13    6.89    0.40
  -2  -5  13    6.26    0.59
  -3   5  13    2.58    0.38
   3  -5  13    2.60    0.30
  -3  -5  13    1.40    0.44
   3   5  13    2.38    0.35
   3  -5 -13    2.43    0.30
   0   6  13    6.78    0.54
   0  -6  13    7.14    0.55
   0  -6  13    7.23    0.35
   1  -6  13    4.28    0.29
   1  -6  13    4.22    0.46
   1   6  13    4.61    0.50
   1  -6 -13    4.24    0.34
  -1  -6  13    4.51    0.52
   2  -6  13    5.14    0.36
  -2  -6  13    5.44    0.63
   2  -6 -13    4.22    0.34
   2   6  13    5.64    0.54
   3  -6  13    0.29    0.18
   3  -6 -13    0.02    0.19
  -3  -6  13    0.55    0.40
   3   6  13    0.24    0.24
   0  -7  13    0.97    0.18
   0   7  13    1.28    0.36
   0  -7  13    1.08    0.34
   1  -7  13    0.22    0.16
   1   7  13    0.41    0.32
  -1  -7  13    0.08    0.27
   2  -7  13    3.77    0.37
   2   7  13    4.76    0.54
  -2  -7  13    3.68    0.56
   2  -7 -13    4.42    0.41
   0   8  13    2.99    0.51
   0  -8  13    2.34    0.43
   1  -8  13    2.24    0.30
  -1   8  13    2.63    0.47
   1   8  13    2.17    0.48
  -1  -8  13    1.53    0.42
   0   0  14    8.59    0.35
   0   0  14    8.47    0.43
  -1   0  14   15.42    0.70
  -1   0  14   15.57    0.52
   1   0  14   14.60    0.54
  -2   0  14   10.73    0.63
  -2   0  14   10.42    0.40
   2   0  14   10.46    0.44
   3   0  14    7.40    0.39
  -3   0  14    7.23    0.61
   4   0  14    0.33    0.18
  -4   0  14    0.50    0.41
   0   1  14   27.24    0.88
   0  -1  14   26.72    0.81
   0  -1  14   26.08    1.01
   0   1  14   26.28    0.94
   1  -1  14    3.34    0.20
   1  -1  14    3.58    0.25
  -1   1  14    3.12    0.30
  -1   1  14    3.24    0.26
  -1  -1  14    3.28    0.15
   1   1  14    3.16    0.25
  -1  -1  14    3.28    0.37
  -2   1  14    4.23    0.44
   2  -1  14    5.03    0.28
   2   1  14    4.40    0.30
  -2  -1  14    5.43    0.49
  -3   1  14    5.51    0.54
   3  -1  14    5.72    0.33
  -3  -1  14    5.44    0.61
   3   1  14    4.83    0.33
   3  -1 -14    4.65    0.26
  -4   1  14    3.67    0.58
   4  -1  14    3.90    0.30
   4   1  14    4.82    0.37
  -4  -1  14    3.89    0.64
   0   2  14    0.17    0.11
   0  -2  14    0.40    0.20
   0   2  14    0.14    0.17
   0  -2  14   -0.04    0.06
   1  -2  14   21.25    0.85
   1  -2  14   21.95    0.70
  -1   2  14   21.66    0.84
  -1   2  14   22.92    0.79
  -1  -2  14   19.13    0.93
  -1  -2  14   21.79    0.59
   1   2  14   21.63    0.78
  -2  -2 -14    1.76    0.16
  -2   2  14    1.92    0.32
   2   2  14    1.48    0.22
  -2  -2  14    1.74    0.35
   2  -2 -14    1.77    0.18
   3  -2  14    4.22    0.28
  -3   2  14    4.21    0.51
   3   2  14    4.44    0.34
   3  -2 -14    3.82    0.26
  -3  -2  14    3.12    0.51
   4  -2  14    0.31    0.15
  -4   2  14    0.37    0.38
   4   2  14    0.54    0.20
  -4  -2  14    0.23    0.41
   0   3  14   12.73    0.48
   0   3  14   12.65    0.59
   0  -3  14   13.70    0.67
   0  -3  14   12.96    0.43
   1  -3  14   15.97    0.54
  -1   3  14   15.53    0.65
   1  -3  14   15.58    0.71
  -1   3  14   16.69    0.69
   1   3  14   14.95    0.67
  -1  -3  14   15.44    0.45
  -1  -3  14   17.03    0.83
  -2   3  14   29.15    1.14
   2  -3  14   28.81    0.92
  -2  -3  14   26.41    1.26
   2  -3 -14   29.62    0.92
   2   3  14   28.98    1.03
  -3   3  14    2.82    0.42
   3  -3  14    3.14    0.25
  -3  -3  14    2.77    0.50
   3  -3 -14    2.90    0.26
   3   3  14    3.88    0.37
  -4   3  14    0.37    0.36
   4  -3  14    0.34    0.15
   4   3  14    0.70    0.22
  -4  -3  14    0.72    0.44
   0   4  14   70.39    2.15
   0   4  14   66.90    2.20
   0  -4  14   70.74    1.92
   0  -4  14   69.94    2.45
  -1   4  14    8.76    0.43
   1  -4  14    8.80    0.37
   1  -4  14    7.73    0.50
  -1  -4  14    8.75    0.29
  -1  -4  14    9.50    0.63
   1   4  14    8.59    0.52
   2  -4  14    3.97    0.27
  -2   4  14    3.95    0.35
   2  -4 -14    3.84    0.29
   2   4  14    4.51    0.43
  -2  -4  14    4.26    0.54
   3  -4  14    1.41    0.22
  -3   4  14    2.17    0.37
  -3  -4  14    0.89    0.41
   3  -4 -14    1.41    0.22
   3   4  14    1.82    0.30
   4  -4  14    4.00    0.38
  -4   4  14    3.88    0.57
   4  -4 -14    3.12    0.34
   4   4  14    3.72    0.38
  -4  -4  14    3.92    0.67
   0  -5  14    0.44    0.25
   0  -5  14    0.03    0.09
   0   5  14    0.18    0.25
   1  -5  14   30.71    1.26
   1  -5  14   29.04    0.95
  -1  -5  14   28.99    1.28
   1   5  14   30.30    1.15
   2  -5  14    7.62    0.40
   2   5  14    7.51    0.52
   2  -5 -14    6.79    0.40
  -2  -5  14    5.60    0.54
   3  -5  14    0.29    0.17
  -3   5  14    0.75    0.28
   3  -5 -14    0.42    0.20
  -3  -5  14    0.13    0.37
   3   5  14    0.96    0.27
   0  -6  14    0.19    0.11
   0   6  14    0.16    0.28
   0  -6  14    0.35    0.23
   1  -6  14    2.05    0.23
   1  -6  14    2.21    0.38
   1   6  14    2.27    0.40
  -1  -6  14    2.00    0.40
   2  -6  14    5.79    0.37
   2  -6 -14    5.51    0.40
   2   6  14    5.86    0.56
  -2  -6  14    5.05    0.62
   3  -6  14    3.80    0.39
  -3   6  14    4.81    0.44
  -3  -6  14    3.83    0.61
   3   6  14    4.29    0.48
   3  -6 -14    3.62    0.39
   0   7  14   -0.15    0.28
   0  -7  14    0.56    0.29
  -1   7  14    4.38    0.52
   1  -7  14    2.99    0.31
  -1  -7  14    3.96    0.53
   1   7  14    3.55    0.51
   2  -7  14    2.36    0.30
  -2  -7  14    2.35    0.49
   2  -7 -14    2.79    0.35
   2   7  14    2.86    0.47
   0  -8  14    0.58    0.31
   0   8  14   -0.43    0.30
  -1  -8  14    1.55    0.43
   0   0  15    0.84    0.14
  -1   0  15   20.96    0.68
   1   0  15   20.43    0.71
  -1   0  15   21.78    0.90
  -2   0  15    5.40    0.48
   2   0  15    5.17    0.30
  -2   0  15    4.95    0.27
   3   0  15    0.61    0.17
  -3   0  15    0.01    0.32
  -4   0  15    6.03    0.74
   4   0  15    6.97    0.42
   0   1  15    1.34    0.19
   0  -1  15    1.53    0.14
   0   1  15    1.36    0.20
   0  -1  15    1.38    0.24
  -1   1  15    2.11    0.29
   1  -1  15    1.95    0.18
  -1   1  15    1.68    0.22
   1  -1  15    1.77    0.21
   1   1  15    1.55    0.21
  -1  -1  15    1.57    0.32
  -1  -1  15    1.98    0.12
  -2   1  15   31.09    1.27
  -2   1  15   32.28    1.03
   2  -1  15   31.15    1.01
   2   1  15   30.61    1.04
  -2  -1  15   32.43    1.33
  -3   1  15    9.93    0.70
   3  -1  15    9.60    0.46
   3   1  15    9.85    0.47
  -3  -1  15    9.99    0.75
   3  -1 -15   10.04    0.40
  -4   1  15    2.16    0.52
   4  -1  15    2.45    0.27
   4   1  15    2.87    0.33
  -4  -1  15    1.52    0.51
   0   2  15   42.32    1.31
   0  -2  15   37.69    1.48
   0   2  15   41.05    1.35
   0  -2  15   42.00    1.19
   1  -2  15   58.07    1.70
  -1   2  15   57.28    1.76
  -1   2  15   57.27    1.98
   1  -2  15   58.96    1.99
  -1  -2  15   58.29    1.55
   1   2  15   60.55    1.79
  -1  -2  15   57.36    2.11
  -2   2  15    3.55    0.41
   2  -2  15    3.37    0.24
  -2  -2  15    3.38    0.46
   2  -2 -15    3.67    0.23
   2   2  15    3.62    0.31
  -3   2  15   13.20    0.79
   3  -2  15   13.99    0.55
   3   2  15   13.42    0.60
   3  -2 -15   13.29    0.51
  -3  -2  15   12.98    0.84
  -4   2  15    2.19    0.50
   4  -2  15    1.77    0.24
   4   2  15    1.99    0.30
  -4  -2  15    1.34    0.51
   0   3  15   11.05    0.42
   0   3  15   11.11    0.55
   0  -3  15   12.33    0.63
   0  -3  15   11.15    0.38
   1  -3  15    6.90    0.30
   1  -3  15    6.69    0.44
  -1   3  15    7.14    0.41
  -1   3  15    6.70    0.44
   1   3  15    7.08    0.45
  -1  -3  15    7.14    0.23
  -1  -3  15    7.28    0.55
  -2   3  15    5.43    0.44
   2  -3  15    5.58    0.30
   2   3  15    5.97    0.41
   2  -3 -15    5.88    0.32
  -2  -3  15    6.07    0.57
   3  -3  15    4.97    0.32
  -3   3  15    4.74    0.53
   3   3  15    4.98    0.39
  -3  -3  15    4.69    0.62
   3  -3 -15    4.75    0.32
   4  -3  15    1.27    0.24
  -4   3  15    0.96    0.41
  -4  -3  15    0.47    0.45
   4   3  15    1.11    0.25
   0  -4  15    0.00    0.08
   0  -4  15    0.35    0.24
   0   4  15   -0.09    0.22
   1  -4  15    2.12    0.32
  -1   4  15    2.36    0.26
  -1   4  15    2.52    0.35
   1  -4  15    2.25    0.20
   1   4  15    1.89    0.32
  -1  -4  15    2.14    0.39
   2  -4  15    7.12    0.37
  -2   4  15    6.51    0.46
   2   4  15    7.20    0.50
   2  -4 -15    6.82    0.37
  -2  -4  15    7.80    0.63
   3  -4  15    1.59    0.23
  -3   4  15    1.58    0.35
   3   4  15    1.84    0.31
  -3  -4  15    1.11    0.44
   3  -4 -15    1.55    0.24
   0   5  15    1.14    0.31
   0  -5  15    1.44    0.32
   0  -5  15    1.17    0.15
   1  -5  15    1.65    0.20
  -1   5  15    1.92    0.23
   1  -5  15    1.89    0.32
  -1   5  15    1.72    0.35
  -1  -5  15    1.45    0.37
   1   5  15    1.64    0.34
  -2   5  15    6.81    0.45
   2  -5  15    7.39    0.39
  -2  -5  15    6.39    0.62
   2   5  15    7.25    0.53
   2  -5 -15    6.42    0.40
   3  -5  15    1.11    0.22
  -3   5  15    1.35    0.34
   3   5  15    1.24    0.30
   3  -5 -15    1.15    0.24
  -3  -5  15    0.78    0.42
   0  -6  15    3.21    0.23
   0  -6  15    3.11    0.43
   0   6  15    3.83    0.47
   1  -6  15    2.88    0.42
   1  -6  15    2.27    0.25
  -1   6  15    2.60    0.41
  -1  -6  15    2.56    0.44
   1   6  15    2.10    0.41
   2  -6  15    1.10    0.21
   2   6  15    1.31    0.35
   2  -6 -15    0.64    0.22
  -2  -6  15    0.76    0.38
   3  -6  15    0.35    0.19
  -3   6  15    0.72    0.28
   3  -6 -15   -0.10    0.19
   3   6  15    0.45    0.28
  -3  -6  15    0.22    0.40
   0   7  15    1.04    0.36
   0  -7  15    0.56    0.28
   1  -7  15    1.49    0.23
  -1   7  15    1.56    0.41
   1   7  15    1.06    0.38
  -1  -7  15    1.65    0.41
   2  -7  15   -0.10    0.16
  -2  -7  15    0.00    0.34
   2   7  15    0.76    0.34
   2  -7 -15    0.05    0.21
   0   8  15    0.58    0.37
   0  -8  15    0.75    0.35
   0   0  16   22.29    0.86
   0   0  16   21.75    0.73
  -1   0  16   12.41    0.46
  -1   0  16   11.77    0.62
   1   0  16   12.75    0.49
   2   0  16    1.74    0.21
  -2   0  16    1.96    0.19
  -2   0  16    1.62    0.36
  -3   0  16    4.41    0.55
   3   0  16    4.43    0.32
  -4   0  16    3.01    0.59
   4   0  16    3.94    0.38
   0  -1  16    0.67    0.11
   0  -1  16    0.81    0.22
   0   1  16    0.44    0.15
   0   1  16    0.61    0.17
  -1   1  16    3.92    0.29
   1  -1  16    3.79    0.22
  -1   1  16    3.37    0.37
   1  -1  16    4.37    0.28
   1   1  16    3.16    0.26
  -1  -1  16    4.20    0.43
  -1  -1  16    3.76    0.18
  -2   1  16   16.74    0.64
  -2   1  16   16.79    0.83
   2  -1  16   17.17    0.63
   2   1  16   17.53    0.66
  -2  -1  16   16.64    0.87
  -3   1  16    3.67    0.53
   3  -1  16    3.32    0.28
   3   1  16    3.13    0.31
  -3  -1  16    2.62    0.47
   4  -1  16    2.65    0.29
  -4   1  16    2.80    0.58
   4   1  16    2.90    0.34
  -4  -1  16    1.99    0.55
   0   2  16   14.22    0.54
   0  -2  16   14.00    0.47
   0  -2  16   13.57    0.67
   0   2  16   14.27    0.60
  -1   2  16    7.03    0.43
  -1   2  16    6.66    0.40
   1  -2  16    7.15    0.42
   1  -2  16    6.59    0.31
  -1  -2  16    6.17    0.51
   1   2  16    6.80    0.40
   2  -2  16   21.58    0.75
  -2   2  16   21.64    0.96
   2   2  16   20.82    0.80
  -2  -2  16   20.71    1.04
   3  -2  16    0.28    0.13
  -3   2  16    0.48    0.33
  -3  -2  16    0.36    0.35
   3   2  16    0.58    0.20
   3  -2 -16    0.13    0.13
   4  -2  16    1.00    0.21
  -4   2  16    0.71    0.44
  -4  -2  16    1.30    0.48
   4   2  16    1.13    0.25
   0   3  16   41.18    1.38
   0   3  16   41.31    1.36
   0  -3  16   42.74    1.19
   0  -3  16   42.85    1.59
   1  -3  16   11.10    0.41
   1  -3  16   10.49    0.57
  -1   3  16   10.22    0.53
  -1   3  16   11.41    0.57
   1   3  16   10.59    0.57
  -1  -3  16   10.82    0.33
  -1  -3  16   10.46    0.67
   2  -3  16    6.33    0.33
  -2   3  16    6.96    0.48
   2  -3 -16    6.19    0.34
   2   3  16    7.54    0.46
  -2  -3  16    6.27    0.58
   3  -3  16    7.54    0.40
  -3   3  16    8.16    0.61
   3   3  16    7.91    0.49
   3  -3 -16    7.74    0.40
  -3  -3  16    7.09    0.69
  -4   3  16   -0.21    0.35
   4  -3  16    0.18    0.16
  -4  -3  16    0.29    0.42
   4   3  16    0.28    0.21
   0   4  16   15.21    0.73
   0  -4  16   15.61    0.79
   0  -4  16   14.82    0.51
   1  -4  16   26.79    1.11
   1  -4  16   26.40    0.84
  -1   4  16   26.15    0.99
  -1   4  16   27.40    1.04
   1   4  16   26.48    1.04
  -1  -4  16   23.61    1.15
   2  -4  16    3.64    0.26
  -2   4  16    3.80    0.40
   2  -4 -16    3.75    0.29
   2   4  16    4.16    0.43
  -2  -4  16    2.61    0.48
  -3   4  16    5.56    0.57
   3  -4  16    5.51    0.36
  -3  -4  16    2.85    0.55
   3   4  16    5.72    0.43
   3  -4 -16    5.03    0.34
   0  -5  16    6.28    0.52
   0   5  16    6.74    0.54
   0  -5  16    6.14    0.30
   1  -5  16   17.47    0.86
   1  -5  16   16.66    0.62
  -1   5  16   17.64    0.81
  -1  -5  16   15.88    0.90
   1   5  16   16.38    0.81
  -2   5  16    1.05    0.25
   2  -5  16    0.97    0.18
   2  -5 -16    0.97    0.22
   2   5  16    1.02    0.30
  -2  -5  16    0.78    0.37
  -3   5  16    1.85    0.38
   3  -5  16    1.62    0.24
  -3  -5  16    1.40    0.45
   3  -5 -16    1.42    0.25
   3   5  16    1.38    0.31
   0   6  16    1.68    0.38
   0  -6  16    1.33    0.17
   0  -6  16    0.91    0.30
  -1   6  16    0.18    0.27
   1  -6  16    0.21    0.13
   1  -6  16    0.04    0.24
  -1  -6  16    0.10    0.29
   1   6  16    0.36    0.30
   2  -6  16    1.44    0.24
   2  -6 -16    1.58    0.27
   2   6  16    2.00    0.39
  -2  -6  16    1.45    0.41
   0  -7  16    0.56    0.31
   0   7  16    0.34    0.33
   1  -7  16    0.88    0.19
  -1   7  16    0.94    0.36
  -1  -7  16    0.88    0.35
   1   7  16    1.34    0.38
   2  -7  16    2.17    0.29
   2   7  16    1.91    0.43
   2  -7 -16    1.56    0.30
  -2  -7  16    1.76    0.46
   1   0  17    0.05    0.10
  -1   0  17    0.15    0.22
   1   0  17    0.20    0.13
  -1   0  17    0.16    0.13
   2   0  17   11.73    0.49
  -2   0  17   11.80    0.44
  -2   0  17   10.75    0.70
  -3   0  17    7.51    0.67
   3   0  17    7.90    0.42
   4   0  17    0.24    0.18
  -4   0  17    0.31    0.42
   0   1  17    1.12    0.20
   0  -1  17    1.15    0.24
   0   1  17    1.35    0.20
   0  -1  17    1.30    0.14
  -1   1  17    6.71    0.37
   1  -1  17    5.50    0.35
   1  -1  17    5.79    0.30
  -1   1  17    6.76    0.45
  -1  -1  17    6.32    0.25
   1   1  17    6.48    0.36
  -1  -1  17    6.51    0.49
  -2   1  17    3.45    0.30
  -2   1  17    3.81    0.46
   2  -1  17    3.01    0.24
   2   1  17    3.39    0.31
  -2  -1  17    3.03    0.44
  -3   1  17    2.38    0.45
   3  -1  17    2.53    0.28
  -3  -1  17    1.71    0.46
   3   1  17    2.42    0.28
   4  -1  17    1.29    0.22
  -4   1  17    1.01    0.46
  -4  -1  17    0.90    0.50
   4   1  17    1.77    0.29
   0  -2  17    0.19    0.08
   0   2  17    0.37    0.20
   0  -2  17    0.10    0.19
   0   2  17    0.21    0.12
  -1   2  17    4.39    0.38
  -1   2  17    4.44    0.36
   1  -2  17    4.56    0.35
   1  -2  17    4.94    0.26
  -1  -2  17    4.32    0.48
   1   2  17    4.35    0.34
  -2   2  17   14.94    0.64
   2  -2  17   13.52    0.56
  -2   2  17   14.15    0.76
   2   2  17   14.53    0.63
  -2  -2  17   14.82    0.84
  -3   2  17    5.78    0.57
   3  -2  17    6.63    0.36
   3  -2 -17    6.51    0.33
   3   2  17    6.23    0.42
  -3  -2  17    5.56    0.63
   4  -2  17    0.37    0.17
  -4   2  17   -0.02    0.42
  -4  -2  17    0.57    0.45
   4   2  17    0.79    0.24
   0  -3  17   14.75    0.49
   0   3  17   15.26    0.67
   0  -3  17   15.28    0.76
   1  -3  17   12.04    0.62
   1  -3  17   11.72    0.45
  -1   3  17   11.51    0.57
  -1   3  17   11.99    0.60
  -1  -3  17   12.58    0.73
   1   3  17   11.70    0.59
  -2   3  17    2.81    0.39
   2  -3  17    3.02    0.23
  -2  -3  17    3.14    0.49
   2   3  17    3.09    0.35
   3  -3  17    9.94    0.46
  -3   3  17    9.39    0.70
  -3  -3  17    8.53    0.72
   3   3  17    9.73    0.54
   3  -3 -17    9.72    0.45
   4  -3  17    1.33    0.25
  -4   3  17    0.77    0.45
  -4  -3  17    1.81    0.55
   4   3  17    1.20    0.27
   0   4  17   21.81    0.90
   0  -4  17   20.09    0.97
   0  -4  17   21.32    0.67
  -1   4  17   10.70    0.56
  -1   4  17   11.61    0.65
   1  -4  17   11.76    0.47
   1  -4  17   12.19    0.67
   1   4  17   12.74    0.65
  -1  -4  17   13.26    0.78
   2  -4  17    4.54    0.30
  -2   4  17    4.98    0.44
   2   4  17    5.04    0.48
  -2  -4  17    4.70    0.58
   3  -4  17    3.13    0.30
  -3   4  17    2.87    0.47
   3  -4 -17    3.16    0.31
  -3  -4  17    2.76    0.54
   3   4  17    3.42    0.40
   0  -5  17   10.78    0.68
   0  -5  17   12.55    0.45
   0   5  17   12.33    0.69
  -1   5  17    6.63    0.53
   1  -5  17    7.12    0.36
   1  -5  17    7.25    0.55
  -1  -5  17    7.44    0.61
   1   5  17    7.58    0.57
  -2   5  17    2.39    0.34
   2  -5  17    2.28    0.25
   2  -5 -17    2.21    0.27
   2   5  17    2.28    0.37
  -2  -5  17    1.44    0.42
   3  -5  17    0.63    0.19
  -3   5  17    0.39    0.31
   3   5  17    0.61    0.27
   3  -5 -17    0.53    0.20
  -3  -5  17    0.60    0.42
   0  -6  17    5.71    0.52
   0   6  17    6.36    0.55
   1  -6  17    0.24    0.13
   1  -6  17    0.01    0.25
  -1   6  17    0.26    0.30
  -1  -6  17    0.31    0.30
   1   6  17    0.11    0.29
   2  -6  17    2.76    0.30
  -2  -6  17    2.94    0.52
   2   6  17    3.02    0.45
   0   7  17    0.33    0.34
   0  -7  17    0.25    0.28
  -1   7  17    0.20    0.34
   1  -7  17   -0.04    0.14
   1   7  17    0.54    0.36
  -1  -7  17    0.39    0.32
   0   0  18   55.47    1.58
   0   0  18   49.95    1.81
  -1   0  18   16.14    0.56
   1   0  18   16.59    0.60
  -1   0  18   15.71    0.77
   1   0  18   15.11    0.62
  -2   0  18    6.34    0.54
  -2   0  18    5.99    0.30
   2   0  18    5.58    0.33
  -3   0  18   19.44    1.07
   3   0  18   20.19    0.78
  -4   0  18    0.51    0.46
   4   0  18    1.24    0.25
   0   1  18   30.26    1.09
   0  -1  18   31.33    0.94
   0   1  18   30.08    1.00
   0  -1  18   29.26    1.17
  -1   1  18   46.98    1.68
  -1   1  18   49.44    1.44
   1  -1  18   46.49    1.40
   1  -1  18   49.48    1.62
  -1  -1  18   45.71    1.33
   1   1  18   44.48    1.44
  -1  -1  18   41.43    1.72
  -2   1  18   17.98    0.88
  -2   1  18   16.78    0.64
   2  -1  18   15.58    0.63
  -2  -1  18   17.56    0.92
   2   1  18   16.45    0.66
  -3   1  18   -0.23    0.31
   3  -1  18   -0.02    0.14
   3   1  18    0.06    0.16
  -3  -1  18   -0.19    0.33
   4  -1  18    0.50    0.18
  -4   1  18    1.17    0.49
   4   1  18    0.89    0.24
  -4  -1  18    0.29    0.47
   0  -2  18    0.19    0.22
   0  -2  18    0.11    0.08
   0   2  18    0.18    0.21
   0   2  18    0.32    0.13
  -1   2  18   30.08    1.04
   1  -2  18   30.99    1.16
  -1   2  18   29.23    1.16
   1  -2  18   28.78    0.95
   1   2  18   29.69    1.05
  -1  -2  18   30.53    1.28
   2  -2  18    2.65    0.23
  -2   2  18    2.32    0.39
  -2   2  18    2.34    0.31
  -2  -2  18    2.11    0.43
   2   2  18    2.41    0.30
   3  -2  18    3.30    0.26
  -3   2  18    3.37    0.52
   3   2  18    4.20    0.34
  -3  -2  18    3.06    0.54
  -4   2  18   -0.66    0.35
   4  -2  18    0.03    0.14
  -4  -2  18    0.39    0.43
   4   2  18    0.21    0.20
   0   3  18    4.97    0.41
   0  -3  18    4.54    0.22
   0  -3  18    4.59    0.43
  -1   3  18   19.46    0.84
   1  -3  18   19.81    0.89
   1  -3  18   20.56    0.68
  -1   3  18   20.45    0.83
   1   3  18   21.06    0.85
  -1  -3  18   21.14    1.01
  -2   3  18   15.82    0.73
  -2   3  18   16.14    0.81
   2  -3  18   15.47    0.59
  -2  -3  18   16.59    0.94
   2   3  18   15.70    0.71
  -3   3  18    1.35    0.42
   3  -3  18    2.00    0.23
  -3  -3  18    1.75    0.48
   3   3  18    1.76    0.29
   3  -3 -18    1.43    0.22
   0  -4  18   42.45    1.62
   0  -4  18   39.37    1.17
   0   4  18   40.18    1.41
  -1   4  18    2.32    0.36
   1  -4  18    2.74    0.37
   1  -4  18    2.36    0.20
   1   4  18    2.05    0.35
  -1  -4  18    2.36    0.43
  -2   4  18    4.05    0.46
   2  -4  18    3.99    0.28
  -2  -4  18    2.99    0.52
   2   4  18    4.10    0.45
  -3   4  18    1.44    0.40
   3  -4  18    2.12    0.26
   3   4  18    1.80    0.32
   3  -4 -18    1.30    0.23
  -3  -4  18    1.02    0.46
   0  -5  18    3.94    0.48
   0  -5  18    3.98    0.24
   0   5  18    4.29    0.49
   1  -5  18    2.81    0.25
   1  -5  18    2.43    0.40
  -1   5  18    2.90    0.43
   1   5  18    3.09    0.43
  -1  -5  18    2.70    0.46
   2  -5  18    0.84    0.18
  -2   5  18    0.80    0.31
   2   5  18    0.92    0.30
  -2  -5  18    1.02    0.39
   3  -5  18    0.26    0.16
  -3   5  18   -0.17    0.29
   3   5  18    0.40    0.27
   3  -5 -18    0.16    0.20
  -3  -5  18    0.22    0.39
   0   6  18    0.57    0.35
   0  -6  18    0.90    0.32
  -1   6  18    2.67    0.45
   1  -6  18    3.54    0.48
   1  -6  18    2.96    0.27
   1   6  18    2.22    0.43
  -1  -6  18    2.06    0.43
   2  -6  18    0.35    0.16
   2   6  18    0.81    0.34
  -2  -6  18    1.31    0.42
   0   7  18    0.83    0.38
   0  -7  18    1.55    0.39
  -1   7  18    0.17    0.36
   1  -7  18    1.01    0.20
  -1  -7  18    0.99    0.39
   1   7  18    1.41    0.41
  -1   0  19    3.26    0.24
   1   0  19    3.46    0.26
  -1   0  19    3.62    0.43
   1   0  19    3.63    0.26
  -2   0  19    0.13    0.28
  -2   0  19    0.04    0.14
   2   0  19    0.03    0.13
  -3   0  19    0.84    0.40
   3   0  19    0.93    0.21
   4   0  19    0.70    0.23
  -4   0  19    0.16    0.45
   0  -1  19   18.10    0.61
   0  -1  19   17.72    0.80
   0   1  19   18.34    0.68
   0   1  19   17.45    0.72
  -1   1  19    1.24    0.22
  -1   1  19    0.93    0.29
   1  -1  19    0.97    0.20
   1  -1  19    1.27    0.18
  -1  -1  19    1.27    0.13
   1   1  19    1.64    0.23
  -1  -1  19    1.37    0.33
   2  -1  19    1.36    0.21
  -2   1  19    1.57    0.37
  -2   1  19    1.66    0.25
   2   1  19    1.87    0.25
  -2  -1  19    1.27    0.36
   3  -1  19    2.56    0.30
  -3   1  19    2.59    0.52
  -3  -1  19    2.73    0.52
   3   1  19    3.02    0.32
  -4   1  19   -0.11    0.45
   4  -1  19    0.02    0.16
   4   1  19    0.44    0.22
  -4  -1  19    0.42    0.48
   0  -2  19   -0.01    0.19
   0  -2  19    0.14    0.09
   0   2  19    0.23    0.13
   0   2  19    0.41    0.21
  -1   2  19   21.43    0.83
   1  -2  19   22.65    0.91
  -1   2  19   20.97    0.91
   1  -2  19   21.95    0.74
   1   2  19   21.05    0.83
  -1  -2  19   21.06    1.02
  -2   2  19    5.27    0.49
  -2   2  19    6.12    0.42
   2  -2  19    6.34    0.35
  -2  -2  19    5.79    0.63
   2   2  19    5.68    0.40
  -3   2  19    0.91    0.39
   3  -2  19    1.17    0.20
   3   2  19    1.28    0.25
  -3  -2  19    1.11    0.41
   0  -3  19    1.10    0.13
   0   3  19    1.50    0.30
   0  -3  19    1.27    0.31
  -1   3  19   20.40    0.84
  -1   3  19   19.79    0.84
   1  -3  19   19.37    0.89
   1  -3  19   20.48    0.67
  -1  -3  19   20.40    1.01
   1   3  19   19.98    0.83
   2  -3  19    4.59    0.29
  -2   3  19    4.52    0.44
  -2   3  19    4.42    0.49
  -2  -3  19    4.01    0.56
   2   3  19    3.88    0.40
   3  -3  19    0.41    0.15
  -3   3  19    0.06    0.32
  -3  -3  19    0.36    0.38
   3   3  19    0.67    0.24
   0  -4  19    0.08    0.09
   0   4  19    0.42    0.29
   0  -4  19   -0.13    0.22
   1  -4  19    0.76    0.15
   1  -4  19    1.23    0.29
  -1   4  19    1.04    0.31
   1   4  19    0.92    0.31
  -1  -4  19    0.17    0.29
  -2   4  19    0.61    0.29
  -2   4  19    0.96    0.30
   2  -4  19    0.70    0.16
  -2  -4  19    0.68    0.38
   2   4  19    1.07    0.29
  -3   4  19    0.57    0.37
   3  -4  19    0.49    0.17
  -3  -4  19    0.46    0.40
   3   4  19    0.41    0.25
   0   5  19    5.84    0.55
   0  -5  19    5.08    0.27
   0  -5  19    5.10    0.49
   1  -5  19    1.42    0.35
   1  -5  19    1.62    0.19
  -1   5  19    1.48    0.37
  -1  -5  19    1.91    0.40
   1   5  19    1.56    0.38
  -2   5  19    3.11    0.43
   2  -5  19    2.94    0.29
   2   5  19    3.20    0.44
  -2  -5  19    2.88    0.54
  -3   5  19   -0.27    0.30
   3  -5  19   -0.08    0.14
   3   5  19    0.23    0.26
  -3  -5  19    0.34    0.40
   0   6  19    4.50    0.54
   0  -6  19    4.66    0.55
   1  -6  19    0.58    0.17
  -1   6  19    1.06    0.36
   1  -6  19    0.52    0.30
  -1  -6  19    0.28    0.33
   1   6  19    0.62    0.35
   2  -6  19    1.10    0.21
  -2   6  19    1.60    0.40
   2   6  19    1.30    0.37
  -2  -6  19    0.92    0.40
   0  -7  19    0.29    0.31
   0   7  19    0.89    0.38
   1  -7  19    2.86    0.29
  -1   7  19    2.68    0.50
  -1  -7  19    2.45    0.47
   1   7  19    3.20    0.53
   0   0  20    5.02    0.30
   0   0  20    5.13    0.38
   1   0  20   36.85    1.20
  -1   0  20   38.93    1.17
   1   0  20   37.18    1.31
  -1   0  20   38.80    1.49
  -2   0  20    0.65    0.32
   2   0  20    0.89    0.19
   3   0  20    0.62    0.21
  -3   0  20    0.35    0.38
  -4   0  20    0.70    0.51
   0  -1  20   73.61    2.07
   0  -1  20   73.67    2.48
   0   1  20   72.09    2.14
   0   1  20   68.32    2.37
   1  -1  20    8.96    0.41
  -1   1  20    8.97    0.45
   1  -1  20    9.54    0.48
  -1   1  20    8.37    0.55
  -1  -1  20   10.25    0.63
  -1  -1  20    9.37    0.35
   1   1  20    9.16    0.45
  -2   1  20    8.91    0.45
  -2   1  20    8.51    0.64
   2  -1  20    9.36    0.44
  -2  -1  20    9.05    0.70
   2   1  20    9.10    0.46
   3  -1  20    1.61    0.25
  -3   1  20    1.97    0.49
  -3  -1  20    1.60    0.44
   3   1  20    1.52    0.25
   0   2  20   18.88    0.77
   0  -2  20   19.98    0.90
   0  -2  20   18.60    0.63
  -1   2  20    6.20    0.43
   1  -2  20    4.94    0.38
  -1   2  20    5.28    0.42
   1  -2  20    5.50    0.30
  -1  -2  20    5.51    0.51
   1   2  20    6.00    0.40
  -2   2  20   23.37    1.09
  -2   2  20   24.18    0.90
   2  -2  20   23.80    0.84
   2   2  20   24.53    0.91
  -2  -2  20   22.68    1.16
   3  -2  20   -0.04    0.12
  -3   2  20    0.46    0.36
  -3  -2  20   -0.08    0.36
   3   2  20    0.45    0.19
   0   3  20   20.99    0.86
   0  -3  20   20.84    0.97
   0  -3  20   20.94    0.66
   1  -3  20   13.48    0.51
  -1   3  20   14.40    0.69
   1  -3  20   14.35    0.71
  -1   3  20   13.07    0.67
  -1  -3  20   13.62    0.82
   1   3  20   14.01    0.68
  -2   3  20    3.28    0.44
   2  -3  20    3.04    0.25
  -2   3  20    3.22    0.39
   2   3  20    2.92    0.36
  -2  -3  20    3.36    0.52
   3  -3  20    0.42    0.16
  -3   3  20    0.82    0.38
  -3   3  20    1.04    0.29
   3   3  20    0.78    0.25
  -3  -3  20    0.63    0.40
   0   4  20    8.31    0.57
   0  -4  20    8.84    0.60
   0  -4  20    8.12    0.34
   1  -4  20   12.96    0.52
   1  -4  20   13.94    0.75
  -1   4  20   12.70    0.69
   1   4  20   14.16    0.71
  -1  -4  20   14.22    0.83
  -2   4  20   -0.03    0.27
  -2   4  20    0.10    0.28
   2  -4  20    0.17    0.12
  -2  -4  20    0.18    0.34
   2   4  20    0.87    0.27
  -3   4  20    0.15    0.37
   3  -4  20   -0.09    0.12
  -3  -4  20   -0.21    0.35
   3   4  20    0.45    0.24
   0  -5  20    5.38    0.51
   0   5  20    4.63    0.52
  -1   5  20    2.91    0.43
   1  -5  20    2.49    0.41
   1  -5  20    1.95    0.22
  -1  -5  20    1.76    0.40
   1   5  20    1.90    0.39
   2  -5  20    1.99    0.25
  -2   5  20    2.57    0.42
  -2  -5  20    1.65    0.46
   2   5  20    1.94    0.39
   0  -6  20    3.68    0.51
   0   6  20    3.44    0.51
  -1   6  20    1.63    0.42
   1  -6  20    1.08    0.19
   1  -6  20    1.01    0.35
   1   6  20    1.27    0.40
  -1  -6  20    1.31    0.39
   2  -6  20    1.48    0.23
  -2   6  20    1.04    0.39
   2   6  20    1.98    0.42
  -2  -6  20    1.37    0.43
   0   7  20    0.06    0.36
   0  -7  20   -0.23    0.28
   0   0  21    0.80    0.18
  -1   0  21   24.80    1.09
   1   0  21   24.73    0.86
  -1   0  21   24.78    0.82
  -2   0  21    5.44    0.59
   2   0  21    6.24    0.37
  -3   0  21    2.20    0.51
   3   0  21    3.37    0.35
   0   1  21    4.75    0.33
   0  -1  21    4.01    0.38
   0   1  21    2.71    0.28
   0  -1  21    4.18    0.25
  -1   1  21    3.84    0.42
   1  -1  21    2.93    0.29
  -1   1  21    3.53    0.32
   1  -1  21    3.38    0.25
   1   1  21    3.79    0.32
  -1  -1  21    3.76    0.47
  -1  -1  21    3.27    0.20
  -2   1  21   10.29    0.68
   2  -1  21   10.26    0.48
  -2   1  21    9.69    0.47
  -2  -1  21    9.07    0.69
   2   1  21    9.83    0.49
   3  -1  21    0.75    0.20
  -3   1  21    0.64    0.40
  -3  -1  21    0.34    0.38
   3   1  21    0.26    0.18
   0   2  21   49.84    1.64
   0  -2  21   52.99    1.91
   0  -2  21   51.54    1.51
   1  -2  21    1.85    0.28
  -1   2  21    1.49    0.30
  -1   2  21    1.84    0.29
   1  -2  21    1.54    0.19
   1   2  21    1.71    0.28
  -1  -2  21    0.90    0.33
  -2   2  21    2.59    0.34
   2  -2  21    2.57    0.27
  -2   2  21    2.39    0.41
   2   2  21    2.82    0.33
  -2  -2  21    2.15    0.45
  -3   2  21    3.87    0.60
   3  -2  21    3.64    0.33
  -3  -2  21    2.88    0.57
   3   2  21    3.97    0.39
   0  -3  21    0.08    0.08
   0   3  21   -0.24    0.23
   0  -3  21    0.17    0.26
   1  -3  21    4.47    0.26
  -1   3  21    4.69    0.46
   1  -3  21    3.94    0.43
   1   3  21    4.91    0.46
  -1  -3  21    4.76    0.57
   2  -3  21    3.29    0.26
  -2   3  21    3.89    0.42
  -2   3  21    3.69    0.46
  -2  -3  21    3.36    0.53
   2   3  21    3.68    0.39
  -3   3  21    0.49    0.40
   3  -3  21    0.19    0.14
   3   3  21    0.89    0.26
  -3  -3  21    0.58    0.43
   0  -4  21    1.92    0.17
   0  -4  21    1.79    0.36
   0   4  21    2.20    0.38
   1  -4  21    1.12    0.17
   1  -4  21    1.42    0.31
  -1   4  21    1.44    0.35
  -1  -4  21    1.38    0.39
   1   4  21    1.53    0.35
   2  -4  21    1.36    0.20
  -2   4  21    1.35    0.34
   2   4  21    1.69    0.34
  -2  -4  21    0.79    0.38
  -3   4  21   -0.16    0.36
  -3   4  21    0.39    0.30
   3  -4  21   -0.10    0.13
  -3  -4  21    0.09    0.38
   3   4  21    0.46    0.25
   0  -5  21    0.03    0.26
   0   5  21    0.00    0.28
   1  -5  21    3.76    0.26
   1  -5  21    3.76    0.49
  -1   5  21    4.00    0.50
  -1  -5  21    2.99    0.48
   1   5  21    4.06    0.50
  -2   5  21    2.07    0.41
   2  -5  21    1.62    0.23
  -2  -5  21    2.13    0.49
   2   5  21    2.32    0.42
   0   6  21    0.06    0.34
   0  -6  21    0.16    0.29
   1  -6  21    0.60    0.34
  -1   6  21    0.84    0.37
   1  -6  21    0.76    0.17
  -1  -6  21    0.73    0.36
   1   6  21    0.47    0.35
   0   0  22   73.90    2.51
   0   0  22   74.64    2.18
  -1   0  22    0.90    0.29
  -1   0  22    0.88    0.17
   1   0  22    1.16    0.20
  -2   0  22    3.75    0.52
   2   0  22    3.29    0.31
  -3   0  22    0.17    0.37
   3   0  22    0.29    0.18
   0   1  22    0.53    0.19
   0  -1  22    0.05    0.20
   0  -1  22    0.31    0.12
   0   1  22    0.21    0.16
   1  -1  22   27.89    0.94
  -1   1  22   27.65    1.18
   1  -1  22   29.72    1.09
  -1   1  22   28.54    0.97
  -1  -1  22   27.69    0.87
   1   1  22   29.04    1.00
  -1  -1  22   25.76    1.20
   2  -1  22    0.53    0.17
  -2   1  22    0.85    0.35
  -2   1  22    1.18    0.24
   2   1  22    0.94    0.21
  -2  -1  22    0.85    0.39
   3  -1  22    1.31    0.25
  -3   1  22    0.72    0.45
  -3  -1  22    0.98    0.43
   3   1  22    1.30    0.25
   0  -2  22   13.72    0.75
   0   2  22   15.57    0.68
   0  -2  22   14.92    0.53
   1  -2  22    7.47    0.48
  -1   2  22    6.93    0.46
   1  -2  22    7.82    0.37
  -1   2  22    7.55    0.51
  -1  -2  22    8.09    0.62
   1   2  22    8.29    0.49
   2  -2  22    0.07    0.13
  -2   2  22    0.08    0.23
  -2   2  22    0.63    0.34
   2   2  22   -0.03    0.18
  -2  -2  22    0.59    0.37
   3  -2  22    1.37    0.23
  -3   2  22    1.78    0.47
   3   2  22    1.10    0.26
  -3  -2  22    0.99    0.44
   0  -3  22    1.91    0.16
   0   3  22    1.41    0.34
   0  -3  22    1.73    0.35
   1  -3  22    1.84    0.19
   1  -3  22    1.92    0.34
  -1   3  22    1.73    0.33
  -1  -3  22    1.83    0.41
   1   3  22    2.14    0.33
   2  -3  22    1.54    0.21
  -2   3  22    1.04    0.35
  -2   3  22    1.41    0.33
  -2  -3  22    1.47    0.42
   2   3  22    1.94    0.32
   3  -3  22    0.14    0.15
  -3   3  22    0.54    0.41
   3   3  22    0.56    0.23
  -3  -3  22    0.41    0.41
   0   4  22    1.99    0.38
   0  -4  22    1.90    0.37
   1  -4  22    1.02    0.31
   1  -4  22    1.14    0.16
  -1   4  22    1.13    0.34
  -1  -4  22    0.89    0.35
   1   4  22    1.62    0.35
  -2   4  22    3.51    0.45
   2  -4  22    3.65    0.29
   2   4  22    3.55    0.44
  -2  -4  22    3.59    0.57
   0   5  22    0.07    0.27
   0  -5  22   -0.14    0.26
   1  -5  22    0.58    0.15
  -1   5  22    1.08    0.37
   1  -5  22    0.86    0.31
   1   5  22    1.17    0.37
  -1  -5  22    0.79    0.35
  -2   5  22   -0.19    0.28
   2  -5  22    0.05    0.14
  -2  -5  22    0.08    0.35
   2   5  22    0.52    0.30
   0  -6  22    2.46    0.46
   0   6  22    2.10    0.45
   1  -6  22    1.58    0.40
   1  -6  22    1.44    0.23
  -1   6  22    1.68    0.44
   1   6  22    1.31    0.41
  -1  -6  22    1.47    0.41
   0   0  23    0.60    0.21
   1   0  23   35.77    1.17
  -1   0  23   36.90    1.13
  -1   0  23   34.13    1.44
  -2   0  23    0.51    0.35
   2   0  23    0.27    0.17
   3   0  23    0.06    0.18
  -3   0  23    0.32    0.42
   0   1  23    5.71    0.39
   0  -1  23    5.68    0.44
   0  -1  23    5.67    0.30
  -1   1  23    1.35    0.24
   1  -1  23    1.68    0.25
   1  -1  23    1.67    0.21
  -1   1  23    1.67    0.34
  -1  -1  23    1.39    0.34
  -1  -1  23    1.48    0.17
   1   1  23    1.60    0.25
   2  -1  23    4.62    0.33
  -2   1  23    4.76    0.56
   2   1  23    4.47    0.34
  -2  -1  23    4.93    0.60
  -3   1  23    9.08    0.78
   3  -1  23    9.24    0.50
  -3  -1  23    8.85    0.78
   3   1  23    9.39    0.52
   0  -2  23    0.02    0.21
   0  -2  23    0.37    0.11
   0   2  23    0.49    0.23
  -1   2  23    4.24    0.41
  -1   2  23    4.57    0.42
   1  -2  23    3.95    0.37
   1  -2  23    4.18    0.28
  -1  -2  23    4.40    0.53
   1   2  23    4.54    0.37
  -2   2  23    4.27    0.54
  -2   2  23    4.63    0.40
   2  -2  23    4.84    0.33
   2   2  23    4.77    0.38
  -2  -2  23    4.43    0.61
  -3   2  23    2.00    0.51
   3  -2  23    1.57    0.24
  -3  -2  23    1.71    0.51
   3   2  23    2.01    0.30
   0  -3  23   17.36    0.90
   0   3  23   18.07    0.81
   0  -3  23   16.98    0.58
   1  -3  23    4.49    0.27
  -1   3  23    5.84    0.46
   1  -3  23    4.23    0.41
  -1  -3  23    5.18    0.58
   1   3  23    5.35    0.43
   2  -3  23    1.45    0.20
  -2   3  23    0.99    0.31
  -2   3  23    1.67    0.41
  -2  -3  23    2.47    0.49
   2   3  23    1.53    0.30
  -3   3  23    0.76    0.42
   3  -3  23    0.53    0.17
  -3  -3  23    0.33    0.43
   3   3  23    0.71    0.26
   0  -4  23    4.31    0.51
   0   4  23    4.13    0.49
  -1   4  23    4.99    0.52
   1  -4  23    4.58    0.50
   1  -4  23    3.98    0.27
   1   4  23    5.08    0.51
  -1  -4  23    3.71    0.53
   2  -4  23    1.82    0.23
  -2   4  23    1.63    0.38
  -2  -4  23    1.42    0.46
   2   4  23    1.64    0.33
   0  -5  23    2.55    0.45
   0   5  23    3.37    0.48
   1  -5  23    2.86    0.46
   1  -5  23    2.46    0.24
  -1   5  23    2.28    0.44
   1   5  23    2.72    0.45
  -1  -5  23    2.74    0.50
   2  -5  23    0.78    0.18
  -2   5  23    0.91    0.38
   2   5  23    1.30    0.36
  -2  -5  23    0.64    0.41
   0   6  23    0.71    0.37
   0  -6  23    0.66    0.33
   1  -6  23    0.11    0.30
  -1   6  23    0.46    0.38
   1   6  23    1.76    0.44
  -1  -6  23    0.15    0.33
   0   0  24    1.12    0.24
   0   0  24    1.32    0.21
  -1   0  24    5.80    0.32
   1   0  24    5.99    0.37
  -1   0  24    5.30    0.55
   2   0  24    5.36    0.36
  -2   0  24    5.46    0.62
  -3   0  24    3.20    0.59
   3   0  24    3.36    0.38
   0  -1  24    0.24    0.23
   0  -1  24    0.75    0.15
   0   1  24    0.79    0.22
  -1   1  24    1.35    0.32
  -1   1  24    1.77    0.25
   1  -1  24    1.24    0.24
   1  -1  24    1.48    0.22
  -1  -1  24    1.12    0.35
   1   1  24    1.52    0.25
   2  -1  24    8.62    0.45
  -2   1  24    8.32    0.63
  -2  -1  24    8.08    0.71
   2   1  24    8.70    0.49
   3  -1  24    1.19    0.26
  -3   1  24    1.58    0.48
  -3  -1  24    1.18    0.49
   3   1  24    1.55    0.27
   0   2  24    0.76    0.25
   0  -2  24    0.99    0.15
   0  -2  24    1.11    0.28
   1  -2  24    0.59    0.16
   1  -2  24    0.25    0.20
  -1   2  24    0.47    0.24
  -1  -2  24    0.31    0.28
   1   2  24    0.26    0.19
  -2   2  24    0.34    0.32
  -2   2  24    0.18    0.24
   2  -2  24    0.58    0.18
   2   2  24    0.79    0.24
  -2  -2  24    0.65    0.38
   3  -2  24    0.80    0.20
  -3   2  24    1.26    0.50
   3   2  24    1.05    0.26
  -3  -2  24    0.95    0.50
   0   3  24    0.26    0.24
   0  -3  24    0.12    0.24
   0  -3  24    0.25    0.09
  -1   3  24    5.26    0.48
   1  -3  24    4.78    0.43
   1  -3  24    4.68    0.28
  -1  -3  24    5.31    0.60
   1   3  24    5.49    0.47
  -2   3  24    0.96    0.32
   2  -3  24    0.69    0.16
   2   3  24    0.48    0.23
  -2  -3  24    0.19    0.32
   0   4  24    0.36    0.30
   0  -4  24    0.09    0.26
   1  -4  24    0.68    0.14
   1  -4  24    0.40    0.27
  -1   4  24    0.77    0.34
   1   4  24    0.89    0.31
  -1  -4  24    0.30    0.32
  -2   4  24   -0.13    0.30
   2  -4  24    0.51    0.15
   2   4  24    0.50    0.25
  -2  -4  24    0.18    0.35
   0   5  24    0.43    0.33
   0  -5  24    1.17    0.37
   1  -5  24    1.65    0.21
   1  -5  24    2.18    0.43
  -1   5  24    1.44    0.41
  -1  -5  24    1.63    0.43
   1   5  24    1.73    0.40
   0   0  25    0.40    0.20
   0   0  25    0.55    0.16
  -1   0  25    0.54    0.15
   1   0  25    0.48    0.18
  -1   0  25    0.61    0.28
  -2   0  25   16.31    0.97
   2   0  25   17.06    0.70
   3   0  25    0.35    0.21
  -3   0  25    0.29    0.40
   0  -1  25    5.12    0.44
   0  -1  25    5.28    0.30
   0   1  25    5.78    0.39
   1  -1  25    8.32    0.49
  -1   1  25    7.89    0.57
   1  -1  25    8.48    0.42
  -1   1  25    8.79    0.45
   1   1  25    8.11    0.47
  -1  -1  25    8.50    0.64
  -2   1  25    3.94    0.54
   2  -1  25    3.83    0.32
   2   1  25    3.65    0.37
  -2  -1  25    3.56    0.55
  -3   1  25    0.23    0.40
   3  -1  25    0.66    0.21
  -3  -1  25    0.67    0.43
   3   1  25    0.48    0.22
   0  -2  25    1.52    0.18
   0   2  25    1.75    0.30
   0  -2  25    1.93    0.35
  -1   2  25    1.93    0.32
   1  -2  25    2.19    0.24
   1  -2  25    1.73    0.29
   1   2  25    1.30    0.28
  -1  -2  25    1.46    0.39
   2  -2  25    1.23    0.22
  -2   2  25    0.80    0.34
  -2  -2  25    1.06    0.43
   2   2  25    1.07    0.27
   0  -3  25    0.09    0.25
   0   3  25    0.48    0.26
   1  -3  25    2.66    0.22
  -1   3  25    2.61    0.39
   1  -3  25    2.23    0.37
   1   3  25    2.46    0.37
  -1  -3  25    2.23    0.44
  -2   3  25    0.53    0.31
   2  -3  25    0.83    0.18
   2   3  25    0.84    0.28
  -2  -3  25    0.74    0.39
   0  -4  25    0.35    0.29
   0   4  25    0.31    0.30
   1  -4  25    0.88    0.30
  -1   4  25    0.24    0.31
   1  -4  25    0.63    0.14
   1   4  25    0.70    0.29
  -1  -4  25    0.88    0.36
  -2   4  25    2.29    0.43
   2  -4  25    1.66    0.23
  -2  -4  25    1.33    0.45
   2   4  25    1.67    0.34
   0  -5  25    1.22    0.37
   0   5  25    1.27    0.40
  -1   5  25   -0.24    0.32
   1  -5  25   -0.43    0.25
  -1  -5  25    0.02    0.32
   1   5  25   -0.32    0.29
   0   0  26    1.33    0.21
   1   0  26    1.89    0.26
  -1   0  26    1.72    0.36
  -2   0  26    4.07    0.57
   2   0  26    4.03    0.33
   0  -1  26    8.56    0.58
   0  -1  26   10.73    0.45
   0   1  26   10.76    0.52
  -1   1  26    1.77    0.27
   1  -1  26    1.94    0.24
   1   1  26    2.37    0.30
  -1  -1  26    1.67    0.39
  -2   1  26    0.76    0.37
   2  -1  26    0.38    0.18
  -2  -1  26    0.45    0.37
   2   1  26    0.21    0.18
   0   2  26    0.87    0.25
   0  -2  26    0.34    0.25
   0  -2  26    0.32    0.13
   1  -2  26    5.40    0.44
  -1   2  26    5.28    0.43
   1  -2  26    5.15    0.32
  -1  -2  26    4.93    0.59
   1   2  26    5.21    0.40
   2  -2  26    1.93    0.26
   2   2  26    1.45    0.28
  -2  -2  26    1.38    0.46
   0   3  26    2.45    0.38
   0  -3  26    1.42    0.36
   1  -3  26    0.62    0.15
   1  -3  26    0.60    0.28
  -1   3  26    0.46    0.29
   1   3  26    0.56    0.27
  -1  -3  26    0.77    0.35
  -2   3  26    1.03    0.33
   2  -3  26    0.74    0.18
  -2  -3  26    0.31    0.39
   2   3  26    1.18    0.31
   0  -4  26    3.45    0.49
   0   4  26    2.87    0.46
   1  -4  26    0.11    0.11
  -1   4  26    0.34    0.32
   1  -4  26   -0.04    0.25
   1   4  26    0.01    0.27
  -1  -4  26   -0.09    0.29
   0  -5  26    0.12    0.32
   0   5  26    0.25    0.35
   0   0  27    0.58    0.17
   1   0  27    0.22    0.16
  -1   0  27   -0.08    0.26
  -2   0  27    0.01    0.34
   2   0  27    0.39    0.18
   0  -1  27    3.67    0.43
   0  -1  27    4.90    0.30
   0   1  27    4.74    0.37
   1  -1  27    2.41    0.27
  -1   1  27    2.68    0.32
  -1  -1  27    2.63    0.46
   1   1  27    2.60    0.32
  -2   1  27   -0.02    0.34
   2  -1  27    0.16    0.16
  -2  -1  27    0.98    0.40
   2   1  27    0.21    0.18
   0   2  27    0.45    0.24
   0  -2  27    0.31    0.27
   1  -2  27    4.04    0.43
   1  -2  27    3.47    0.28
  -1   2  27    5.06    0.41
   1   2  27    4.14    0.42
  -1  -2  27    3.41    0.51
   2  -2  27    1.66    0.25
   2   2  27    1.39    0.30
  -2  -2  27    2.17    0.51
   0  -3  27    0.04    0.27
   0   3  27    0.19    0.24
   1  -3  27    1.99    0.37
   1  -3  27    1.46    0.19
  -1   3  27    1.68    0.36
   1   3  27    2.07    0.36
  -1  -3  27    0.91    0.39
   2  -3  27    0.15    0.15
   2   3  27    0.49    0.26
  -2  -3  27    0.53    0.38
   0  -4  27    0.25    0.32
   0   4  27    0.09    0.30
   1  -4  27    1.72    0.21
  -1   4  27    1.43    0.40
   1  -4  27    0.71    0.32
  -1  -4  27    1.51    0.42
   1   4  27    2.21    0.41
   0   0  28    3.03    0.30
   1   0  28    0.48    0.18
  -1   0  28   -0.36    0.27
  -2   0  28   -0.41    0.31
   2   0  28    0.49    0.20
   0  -1  28    2.39    0.25
   0  -1  28    2.75    0.40
   0   1  28    2.89    0.33
   1  -1  28    1.60    0.24
  -1   1  28    2.18    0.31
  -1  -1  28    1.46    0.40
   1   1  28    1.65    0.28
   2  -1  28    1.77    0.27
  -2  -1  28    1.73    0.47
   2   1  28    2.15    0.31
   0  -2  28    1.86    0.36
   0   2  28    2.57    0.36
  -1   2  28    1.83    0.32
   1  -2  28    1.68    0.23
  -1  -2  28    1.71    0.41
   1   2  28    1.38    0.29
   2  -2  28    2.75    0.32
   2   2  28    3.33    0.39
  -2  -2  28    2.53    0.54
   0  -3  28    1.71    0.39
   0   3  28    2.17    0.38
   1  -3  28    2.08    0.39
  -1   3  28    2.30    0.39
   1  -3  28    1.63    0.21
  -1  -3  28    1.40    0.40
   1   3  28    2.27    0.38
   0   4  28    0.13    0.28
   0  -4  28   -0.16    0.26
   0   0  29    0.27    0.16
   1   0  29    0.10    0.16
  -2   0  29    1.47    0.44
   2   0  29    0.79    0.23
   0   1  29    1.96    0.29
   0  -1  29    1.88    0.24
   1  -1  29    2.48    0.28
   1   1  29    2.38    0.32
  -1  -1  29    1.64    0.40
   2  -1  29    2.06    0.30
  -2  -1  29    2.21    0.48
   2   1  29    2.58    0.34
   0  -2  29    5.63    0.51
   0   2  29    5.95    0.46
  -1   2  29    3.25    0.38
   1  -2  29    3.32    0.31
   1   2  29    3.29    0.40
  -1  -2  29    3.13    0.49
   0   3  29    0.55    0.29
   0  -3  29    0.50    0.32
  -1   3  29    0.42    0.29
   1  -3  29    0.48    0.15
   1  -3  29    0.54    0.28
   1   3  29    0.55    0.28
  -1  -3  29    0.31    0.37
   0   0  30    3.21    0.31
   1   0  30    2.05    0.27
   0   1  30    2.46    0.32
   1  -1  30    0.28    0.17
   1   1  30    0.28    0.20
  -1  -1  30    0.09    0.30
   0   2  30    1.89    0.32
   0  -2  30    1.14    0.34
   1  -2  30    1.74    0.24
   1   2  30    1.72    0.33
  -1  -2  30    0.92    0.36
   0   0  31    0.33    0.17
   1   0  31    7.90    0.46
   0   1  31    1.32    0.27
   0   0   0    0.00    0.00
;
_shelx_hkl_checksum              37433
loop_
_space_group_symop_operation_xyz
'x, y, z'
'x+1/2, -y+1/2, -z'
'-x, y+1/2, -z+1/2'
'-x+1/2, -y, z+1/2'
loop_
_atom_site_label
_atom_site_type_symbol
_atom_site_fract_x
_atom_site_fract_y
_atom_site_fract_z
_atom_site_U_iso_or_equiv
_atom_site_adp_type
_atom_site_occupancy
_atom_site_site_symmetry_order
_atom_site_calc_flag
_atom_site_refinement_flags_posn
_atom_site_refinement_flags_adp
_atom_site_refinement_flags_occupancy
_atom_site_disorder_assembly
_atom_site_disorder_group
O1 O 0.4397(6) 0.0308(3) 0.15393(8) 0.0561(5) Uani 1 1 d . . . . .
C1 C 0.9442(6) 0.6195(3) 0.17219(9) 0.0394(5) Uani 1 1 d . . . . .
H1 H 1.0504 0.7294 0.1874 0.047 Uiso 1 1 calc R U . . .
N1 N 0.8540(5) 0.6041(2) 0.11775(7) 0.0329(4) Uani 1 1 d . . . . .
O2 O 0.5483(6) 0.4393(2) 0.01540(6) 0.0534(5) Uani 1 1 d . . . . .
C2 C 0.9147(7) 0.7545(3) 0.07469(10) 0.0422(5) Uani 1 1 d . . . . .
H2A H 1.0396 0.6983 0.0438 0.063 Uiso 1 1 calc R U . . .
H2B H 1.0469 0.8594 0.0906 0.063 Uiso 1 1 calc R U . . .
H2C H 0.6971 0.8039 0.0615 0.063 Uiso 1 1 calc R U . . .
N2 N 0.8663(5) 0.4622(3) 0.20181(8) 0.0411(5) Uani 1 1 d . . . . .
C3 C 0.7052(5) 0.4221(3) 0.11115(8) 0.0309(4) Uani 1 1 d . . . . .
C4 C 0.7144(5) 0.3381(3) 0.16432(8) 0.0323(4) Uani 1 1 d . . . . .
C6 C 0.5652(6) 0.3474(3) 0.05859(8) 0.0389(5) Uani 1 1 d . . . . .
H6 H 0.4830 0.2197 0.0583 0.047 Uiso 1 1 calc R U . . .
C5 C 0.5857(7) 0.1477(3) 0.18296(9) 0.0423(5) Uani 1 1 d . . . . .
H5 H 0.6202 0.1147 0.2205 0.051 Uiso 1 1 calc R U . . .
loop_
_atom_site_aniso_label
_atom_site_aniso_U_11
_atom_site_aniso_U_22
_atom_site_aniso_U_33
_atom_site_aniso_U_23
_atom_site_aniso_U_13
_atom_site_aniso_U_12
O1 0.0744(13) 0.0397(9) 0.0541(10) 0.0009(7) -0.0048(10) -0.0166(9)
C1 0.0473(11) 0.0313(10) 0.0397(10) -0.0019(8) -0.0053(10) -0.0059(9)
N1 0.0359(9) 0.0265(8) 0.0364(9) 0.0007(7) 0.0006(7) -0.0018(7)
O2 0.0829(14) 0.0435(9) 0.0337(8) 0.0031(7) -0.0089(8) 0.0020(10)
C2 0.0489(12) 0.0327(11) 0.0451(12) 0.0071(9) 0.0008(11) -0.0067(10)
N2 0.0492(11) 0.0384(9) 0.0355(9) -0.0014(8) -0.0050(9) -0.0050(9)
C3 0.0330(9) 0.0271(9) 0.0325(9) -0.0020(8) 0.0013(8) 0.0010(8)
C4 0.0335(9) 0.0322(9) 0.0311(9) -0.0008(8) 0.0004(8) 0.0006(8)
C6 0.0502(12) 0.0333(10) 0.0332(10) -0.0025(8) -0.0021(9) 0.0023(10)
C5 0.0529(13) 0.0390(11) 0.0349(10) 0.0051(9) -0.0024(10) -0.0080(11)
loop_
_atom_type_symbol
_atom_type_description
_atom_type_scat_dispersion_real
_atom_type_scat_dispersion_imag
_atom_type_scat_source
C C 0.0033 0.0016 'International Tables Vol C Tables 4.2.6.8 and 6.1.1.4'
H H 0.0000 0.0000 'International Tables Vol C Tables 4.2.6.8 and 6.1.1.4'
N N 0.0061 0.0033 'International Tables Vol C Tables 4.2.6.8 and 6.1.1.4'
O O 0.0106 0.0060 'International Tables Vol C Tables 4.2.6.8 and 6.1.1.4'
loop_
_geom_angle_atom_site_label_1
_geom_angle_atom_site_label_2
_geom_angle_atom_site_label_3
_geom_angle
_geom_angle_site_symmetry_1
_geom_angle_site_symmetry_3
_geom_angle_publ_flag
N2 C1 N1 112.96(19) . . ?
N2 C1 H1 123.5 . . ?
N1 C1 H1 123.5 . . ?
C1 N1 C3 106.75(16) . . ?
C1 N1 C2 125.04(18) . . ?
C3 N1 C2 128.19(17) . . ?
N1 C2 H2A 109.5 . . ?
N1 C2 H2B 109.5 . . ?
H2A C2 H2B 109.5 . . ?
N1 C2 H2C 109.5 . . ?
H2A C2 H2C 109.5 . . ?
H2B C2 H2C 109.5 . . ?
C1 N2 C4 104.90(18) . . ?
N1 C3 C4 105.01(17) . . ?
N1 C3 C6 124.75(18) . . ?
C4 C3 C6 130.2(2) . . ?
N2 C4 C3 110.37(18) . . ?
N2 C4 C5 120.18(18) . . ?
C3 C4 C5 129.44(19) . . ?
O2 C6 C3 124.6(2) . . ?
O2 C6 H6 117.7 . . ?
C3 C6 H6 117.7 . . ?
O1 C5 C4 125.5(2) . . ?
O1 C5 H5 117.3 . . ?
C4 C5 H5 117.3 . . ?
loop_
_geom_bond_atom_site_label_1
_geom_bond_atom_site_label_2
_geom_bond_distance
_geom_bond_site_symmetry_2
_geom_bond_publ_flag
O1 C5 1.198(3) . ?
C1 N2 1.321(3) . ?
C1 N1 1.344(3) . ?
C1 H1 0.9300 . ?
N1 C3 1.381(3) . ?
N1 C2 1.470(3) . ?
O2 C6 1.206(3) . ?
C2 H2A 0.9600 . ?
C2 H2B 0.9600 . ?
C2 H2C 0.9600 . ?
N2 C4 1.364(3) . ?
C3 C4 1.389(3) . ?
C3 C6 1.454(3) . ?
C4 C5 1.463(3) . ?
C6 H6 0.9300 . ?
C5 H5 0.9300 . ?
loop_
_geom_torsion_atom_site_label_1
_geom_torsion_atom_site_label_2
_geom_torsion_atom_site_label_3
_geom_torsion_atom_site_label_4
_geom_torsion
_geom_torsion_site_symmetry_1
_geom_torsion_site_symmetry_2
_geom_torsion_site_symmetry_3
_geom_torsion_site_symmetry_4
_geom_torsion_publ_flag
N2 C1 N1 C3 0.0(3) . . . . ?
N2 C1 N1 C2 -178.8(2) . . . . ?
N1 C1 N2 C4 -0.4(3) . . . . ?
C1 N1 C3 C4 0.5(2) . . . . ?
C2 N1 C3 C4 179.1(2) . . . . ?
C1 N1 C3 C6 178.8(2) . . . . ?
C2 N1 C3 C6 -2.5(3) . . . . ?
C1 N2 C4 C3 0.7(3) . . . . ?
C1 N2 C4 C5 -178.6(2) . . . . ?
N1 C3 C4 N2 -0.7(2) . . . . ?
C6 C3 C4 N2 -179.0(2) . . . . ?
N1 C3 C4 C5 178.5(2) . . . . ?
C6 C3 C4 C5 0.2(4) . . . . ?
N1 C3 C6 O2 -3.7(4) . . . . ?
C4 C3 C6 O2 174.3(2) . . . . ?
N2 C4 C5 O1 177.7(2) . . . . ?
C3 C4 C5 O1 -1.5(4) . . . . ?
