#------------------------------------------------------------------------------
#$Date: 2020-06-05 12:46:41 +0300 (Fri, 05 Jun 2020) $
#$Revision: 252697 $
#$URL: file:///home/coder/svn-repositories/cod/cif/7/12/63/7126359.cif $
#------------------------------------------------------------------------------
#
# This file is available in the Crystallography Open Database (COD),
# http://www.crystallography.net/
#
# All data on this site have been placed in the public domain by the
# contributors.
#
data_7126359
loop_
_publ_author_name
'Pookkandam Parambil, Shandev'
'de Jong, Flip'
'Veys, Koen'
'Huang, Jianjun'
'Veettil, Santhini Pulikkal'
'Verhaeghe, Davy'
'Van Meervelt, Luc'
'Escudero, Daniel'
'Van der Auweraer, Mark'
'Dehaen, Wim'
_publ_section_title
;
 BOPAHY: a doubly chelated highly fluorescent pyrrole-acyl hydrazone
 -BF<sub>2</sub> chromophore.
;
_journal_issue                   43
_journal_name_full
'Chemical communications (Cambridge, England)'
_journal_page_first              5791
_journal_page_last               5794
_journal_paper_doi               10.1039/d0cc01131b
_journal_volume                  56
_journal_year                    2020
_chemical_formula_moiety         'C12 H12 B2 F4 N4 O'
_chemical_formula_sum            'C12 H12 B2 F4 N4 O'
_chemical_formula_weight         325.88
_space_group_crystal_system      monoclinic
_space_group_IT_number           4
_space_group_name_Hall           'P 2yb'
_space_group_name_H-M_alt        'P 1 21 1'
_atom_sites_solution_hydrogens   geom
_audit_creation_date             2019-11-12
_audit_creation_method
;
Olex2 1.2
(compiled 2018.05.29 svn.r3510 for OlexSys, GUI svn.r5506)
;
_audit_update_record
;
2020-02-07 deposited with the CCDC.	2020-04-13 downloaded from the CCDC.
;
_cell_angle_alpha                90
_cell_angle_beta                 109.221(6)
_cell_angle_gamma                90
_cell_formula_units_Z            2
_cell_length_a                   10.2475(6)
_cell_length_b                   4.8212(2)
_cell_length_c                   15.1310(8)
_cell_measurement_reflns_used    4111
_cell_measurement_temperature    293(2)
_cell_measurement_theta_max      26.8540
_cell_measurement_theta_min      2.8950
_cell_volume                     705.88(7)
_computing_cell_refinement       'CrysAlisPro 1.171.40.25a (Rigaku OD, 2018)'
_computing_data_collection       'CrysAlisPro 1.171.40.25a (Rigaku OD, 2018)'
_computing_data_reduction        'CrysAlisPro 1.171.40.25a (Rigaku OD, 2018)'
_computing_molecular_graphics    'Olex2 (Dolomanov et al., 2009)'
_computing_publication_material  'Olex2 (Dolomanov et al., 2009)'
_computing_structure_refinement  'ShelXL (Sheldrick, 2015)'
_computing_structure_solution    'SHELXT 2014/5 (Sheldrick, 2014)'
_diffrn_ambient_temperature      293(2)
_diffrn_detector                 'CCD plate'
_diffrn_detector_area_resol_mean 15.9631
_diffrn_detector_type            Eos
_diffrn_measured_fraction_theta_full 0.997
_diffrn_measured_fraction_theta_max 0.997
_diffrn_measurement_details
;
List of Runs (angles in degrees, time in seconds):

  # Type    Start    End  Width  t~exp~   \w     \q     \k     \f   Frames
#--------------------------------------------------------------------------
  1  \w     35.00  95.00   1.00   10.00    --   18.87 178.00  30.00   60
  2  \w     -7.00  91.00   1.00   10.00    --   18.87  38.00-180.00   98
  3  \w    -54.00  44.00   1.00   10.00    --   18.87 -38.00   0.00   98
  4  \w    -61.00  56.00   1.00   10.00    --  -17.07  19.00-150.00  117
  5  \w    -20.00  25.00   1.00   10.00    --  -17.07 -99.00   0.00   45
  6  \w    -50.00  40.00   1.00   10.00    --   18.87 -57.00-150.00   90
  7  \w     -3.00  68.00   1.00   10.00    --   18.87  57.00 -60.00   71
;
_diffrn_measurement_device       'four-circle diffractometer'
_diffrn_measurement_device_type  'SuperNova, Single source at offset/far, Eos'
_diffrn_measurement_method       '\w scans'
_diffrn_orient_matrix_type
'CrysAlisPro convention (1999,Acta A55,543-557)'
_diffrn_orient_matrix_UB_11      -0.0671986000
_diffrn_orient_matrix_UB_12      0.0558634000
_diffrn_orient_matrix_UB_13      -0.0208784000
_diffrn_orient_matrix_UB_21      0.0020121000
_diffrn_orient_matrix_UB_22      -0.0372572000
_diffrn_orient_matrix_UB_23      -0.0448803000
_diffrn_orient_matrix_UB_31      -0.0293316000
_diffrn_orient_matrix_UB_32      -0.1307724000
_diffrn_orient_matrix_UB_33      0.0038893000
_diffrn_radiation_monochromator  mirror
_diffrn_radiation_probe          x-ray
_diffrn_radiation_type           MoK\a
_diffrn_radiation_wavelength     0.71073
_diffrn_reflns_av_R_equivalents  0.0216
_diffrn_reflns_av_unetI/netI     0.0265
_diffrn_reflns_Laue_measured_fraction_full 0.997
_diffrn_reflns_Laue_measured_fraction_max 0.997
_diffrn_reflns_limit_h_max       12
_diffrn_reflns_limit_h_min       -12
_diffrn_reflns_limit_k_max       6
_diffrn_reflns_limit_k_min       -5
_diffrn_reflns_limit_l_max       18
_diffrn_reflns_limit_l_min       -18
_diffrn_reflns_number            8064
_diffrn_reflns_point_group_measured_fraction_full 0.995
_diffrn_reflns_point_group_measured_fraction_max 0.994
_diffrn_reflns_theta_full        25.242
_diffrn_reflns_theta_max         26.368
_diffrn_reflns_theta_min         2.851
_diffrn_source                   'micro-focus sealed X-ray tube'
_diffrn_source_type              'SuperNova (Mo) X-ray Source'
_exptl_absorpt_coefficient_mu    0.135
_exptl_absorpt_correction_T_max  1.00000
_exptl_absorpt_correction_T_min  0.73679
_exptl_absorpt_correction_type   multi-scan
_exptl_absorpt_process_details
;
CrysAlisPro 1.171.40.25a (Rigaku Oxford Diffraction, 2018)
Empirical absorption correction using spherical harmonics,
 implemented in SCALE3 ABSPACK scaling algorithm.
;
_exptl_crystal_colour            'greenish yellow'
_exptl_crystal_colour_modifier   greenish
_exptl_crystal_colour_primary    yellow
_exptl_crystal_density_diffrn    1.533
_exptl_crystal_description       block
_exptl_crystal_F_000             332
_exptl_crystal_size_max          0.5
_exptl_crystal_size_mid          0.25
_exptl_crystal_size_min          0.15
_refine_diff_density_max         0.133
_refine_diff_density_min         -0.149
_refine_diff_density_rms         0.034
_refine_ls_abs_structure_details
;
 Flack x determined using 954 quotients [(I+)-(I-)]/[(I+)+(I-)]
 (Parsons, Flack and Wagner, Acta Cryst. B69 (2013) 249-259).
;
_refine_ls_abs_structure_Flack   -0.2(3)
_refine_ls_extinction_method     none
_refine_ls_goodness_of_fit_ref   1.112
_refine_ls_hydrogen_treatment    constr
_refine_ls_matrix_type           full
_refine_ls_number_parameters     210
_refine_ls_number_reflns         2850
_refine_ls_number_restraints     1
_refine_ls_restrained_S_all      1.111
_refine_ls_R_factor_all          0.0431
_refine_ls_R_factor_gt           0.0363
_refine_ls_shift/su_max          0.000
_refine_ls_shift/su_mean         0.000
_refine_ls_structure_factor_coef Fsqd
_refine_ls_weighting_details
'w=1/[\s^2^(Fo^2^)+(0.0291P)^2^+0.1824P] where P=(Fo^2^+2Fc^2^)/3'
_refine_ls_weighting_scheme      calc
_refine_ls_wR_factor_gt          0.0813
_refine_ls_wR_factor_ref         0.0857
_reflns_Friedel_coverage         0.772
_reflns_Friedel_fraction_full    0.993
_reflns_Friedel_fraction_max     0.990
_reflns_number_gt                2551
_reflns_number_total             2850
_reflns_threshold_expression     'I > 2\s(I)'
_iucr_refine_instructions_details
;
TITL wdh1094_a.res in P2(1)
 wdh1094.res created by SHELXL-2016/4 at 22:37:34 on 12-Nov-2019
REM Old TITL WDH1094 in P2(1)
REM SHELXT solution in P2(1)
REM R1 0.123, Rweak 0.047, Alpha 0.005, Orientation as input
REM Flack x = 0.275 ( 0.449 ) from Parsons' quotients
REM Formula found by SHELXT: C12 B2 N12 O F4
CELL 0.71073 10.247547 4.821193 15.130963 90 109.2212 90
ZERR 2 0.000614 0.000226 0.000769 0 0.0064 0
LATT -1
SYMM -X,0.5+Y,-Z
SFAC C H B F N O
UNIT 24 24 4 8 8 2

L.S. 10
PLAN  5
SIZE 0.5 0.25 0.15
TEMP 21
MORE -1
BOND $H
CONF
htab
fmap 2
acta
SHEL 999 0.8
OMIT 6 0 3
OMIT 0 0 7
OMIT 0 -3 6
OMIT 0 -4 4
REM <olex2.extras>
REM <HklSrc "%./WDH1094.hkl">
REM </olex2.extras>

WGHT    0.029100    0.182400
FVAR       1.41131
B1    3   -0.675234   -0.295548   -0.803630    11.00000    0.04190    0.03239 =
         0.03119    0.00147    0.01416    0.00069
N2    5   -0.550098   -0.468704   -0.736869    11.00000    0.04262    0.02963 =
         0.02457    0.00002    0.01215   -0.00035
C3    1   -0.431512   -0.535112   -0.748212    11.00000    0.04158    0.03284 =
         0.02988    0.00021    0.00792   -0.00029
O4    6   -0.350168   -0.696047   -0.683640    11.00000    0.04955    0.05470 =
         0.03912    0.01429    0.01163    0.01331
B5    3   -0.410515   -0.750146   -0.607910    11.00000    0.06026    0.03824 =
         0.03070    0.00487    0.01250    0.00234
N6    5   -0.552120   -0.600628   -0.654660    11.00000    0.05101    0.03515 =
         0.02583    0.00342    0.01386   -0.00085
C7    1   -0.663265   -0.590968   -0.630209    11.00000    0.05846    0.03964 =
         0.02889   -0.00239    0.01801   -0.00752
AFIX  43
H7    2   -0.662893   -0.688105   -0.577025    11.00000   -1.20000
AFIX   0
C8    1   -0.780925   -0.445170   -0.678689    11.00000    0.04920    0.04511 =
         0.03076   -0.00470    0.01849   -0.00573
C9    1   -0.905553   -0.407363   -0.659875    11.00000    0.05429    0.06172 =
         0.04228   -0.01285    0.02590   -0.01305
C10   1   -0.983922   -0.229403   -0.728169    11.00000    0.04662    0.06807 =
         0.05901   -0.00801    0.02582   -0.00158
AFIX  43
H10   2   -1.071982   -0.166216   -0.733621    11.00000   -1.20000
AFIX   0
C11   1   -0.910645   -0.159509   -0.787463    11.00000    0.04411    0.05060 =
         0.04947   -0.00194    0.01821    0.00145
N12   5   -0.786395   -0.290044   -0.757580    11.00000    0.04336    0.04018 =
         0.03219   -0.00081    0.01489    0.00023
F13   4   -0.628525   -0.032612   -0.814356    11.00000    0.05101    0.03169 =
         0.05300    0.00732    0.02152    0.00222
F14   4   -0.720518   -0.423520   -0.890364    11.00000    0.05027    0.04959 =
         0.02683   -0.00458    0.01063    0.00260
C15   1   -0.384101   -0.461406   -0.824248    11.00000    0.03713    0.03848 =
         0.03321    0.00224    0.01067    0.00022
N16   5   -0.436690   -0.257573   -0.889467    11.00000    0.04708    0.04410 =
         0.04330    0.00847    0.02271    0.00290
AFIX  43
H16   2   -0.503083   -0.146846   -0.890744    11.00000   -1.20000
AFIX   0
C17   1   -0.366963   -0.259081   -0.951588    11.00000    0.05362    0.05562 =
         0.04217    0.00519    0.02282   -0.00422
AFIX  43
H17   2   -0.382748   -0.140157   -1.002436    11.00000   -1.20000
AFIX   0
C18   1   -0.270494   -0.462404   -0.927380    11.00000    0.04949    0.06792 =
         0.04971   -0.00273    0.02844   -0.00104
AFIX  43
H18   2   -0.208884   -0.507992   -0.958525    11.00000   -1.20000
AFIX   0
C19   1   -0.280317   -0.590776   -0.847391    11.00000    0.04537    0.05821 =
         0.05082    0.00493    0.01860    0.00932
AFIX  43
H19   2   -0.226367   -0.737603   -0.815394    11.00000   -1.20000
AFIX   0
F20   4   -0.334940   -0.623667   -0.526361    11.00000    0.07409    0.05700 =
         0.03586   -0.00050   -0.00175    0.00626
F21   4   -0.425734   -1.025249   -0.595450    11.00000    0.09022    0.03612 =
         0.04838    0.00937    0.01973    0.00667
C22   1   -0.942716   -0.538315   -0.581349    11.00000    0.07832    0.09586 =
         0.05638   -0.00424    0.04231   -0.01303
AFIX 137
H22A  2   -0.886701   -0.459786   -0.522858    11.00000   -1.50000
H22B  2   -0.926756   -0.734601   -0.580888    11.00000   -1.50000
H22C  2   -1.038459   -0.504303   -0.590080    11.00000   -1.50000
AFIX   0
C23   1   -0.952487    0.021969   -0.871781    11.00000    0.05015    0.07001 =
         0.06724    0.01657    0.01902    0.01472
AFIX 137
H23A  2   -0.955564   -0.085324   -0.925878    11.00000   -1.50000
H23B  2   -0.886654    0.169522   -0.863624    11.00000   -1.50000
H23C  2   -1.042223    0.098718   -0.880206    11.00000   -1.50000
AFIX   0
HKLF 4




REM  wdh1094_a.res in P2(1)
REM R1 =  0.0363 for    2551 Fo > 4sig(Fo)  and  0.0431 for all    2850 data
REM    210 parameters refined using      1 restraints

END  
     
WGHT      0.0291      0.1824 

REM Instructions for potential hydrogen bonds
EQIV $1 -x-1, y-1/2, -z-
HTAB C7 F20_$1
EQIV $2 -x-1, y+1/2, -z-
HTAB C7 F21_$2
HTAB N16 F13
HTAB N16 F14
EQIV $3 -x-1, y+1/2, -z-
HTAB C17 F14_$3

REM Highest difference peak  0.133,  deepest hole -0.149,  1-sigma level  0.034
Q1    1  -1.0178 -0.7131 -0.6013  11.00000  0.05    0.13
Q2    1  -0.8807  0.0510 -0.9031  11.00000  0.05    0.12
Q3    1  -0.4453 -0.0445 -1.0101  11.00000  0.05    0.12
Q4    1  -0.9536  0.2837 -0.8186  11.00000  0.05    0.11
Q5    1  -1.0573 -0.0177 -0.9265  11.00000  0.05    0.11

  REM The information below was added by Olex2.
  REM
  REM R1 = 0.0363 for 2551 Fo > 4sig(Fo) and 0.0431 for all 8711 data
  REM n/a parameters refined using n/a restraints
  REM Highest difference peak 0.13, deepest hole -0.15
  REM Mean Shift 0, Max Shift 0.000.

  REM +++ Tabular Listing of Refinement Information +++
  REM R1_all = 0.0431
  REM R1_gt = 0.0363
  REM wR_ref = 0.0857
  REM GOOF = 1.112
  REM Shift_max = 0.000
  REM Shift_mean = 0
  REM Reflections_all = 8711
  REM Reflections_gt = 2551
  REM Parameters = n/a
  REM Hole = -0.15
  REM Peak = 0.13
  REM Flack = -0.2(3)

  
;
_cod_data_source_file            d0cc01131b2.cif
_cod_data_source_block           wdh1094
_cod_depositor_comments
'Adding full bibliography for 7126359--7126362.cif.'
_cod_database_code               7126359
_shelx_shelxl_version_number     2016/4
_chemical_oxdiff_formula         'C12 H12 N4 O1 B2 F4'
_chemical_oxdiff_usercomment     WDH-SD-38
_shelx_space_group_comment
;
The symmetry employed for this shelxl refinement is uniquely defined
by the following loop, which should always be used as a source of
symmetry information in preference to the above space-group names.
They are only intended as comments.
;
_shelx_estimated_absorpt_t_max   0.980
_shelx_estimated_absorpt_t_min   0.936
_diffrn_oxdiff_ac4_digest_frames
;
01c6228ec08f6248d8e5f853fb35e765da000273461
;
_reflns_odcompleteness_completeness 99.81
_reflns_odcompleteness_iscentric 1
_reflns_odcompleteness_theta     26.32
_olex2_refinement_description
;
1. Fixed Uiso
 At 1.2 times of:
  All C(H) groups, All N(H) groups
 At 1.5 times of:
  All C(H,H,H) groups
2.a Aromatic/amide H refined with riding coordinates:
 C7(H7), C10(H10), N16(H16), C17(H17), C18(H18), C19(H19)
2.b Idealised Me refined as rotating group:
 C22(H22A,H22B,H22C), C23(H23A,H23B,H23C)
;
_olex2_submission_original_sample_id WDH-SD-38
_olex2_submission_special_instructions 'No special instructions were received'
_oxdiff_exptl_absorpt_empirical_details
;
Empirical correction (ABSPACK) includes:
- Absorption correction using spherical harmonics
- Frame scaling
;
_oxdiff_exptl_absorpt_empirical_full_max 1.674
_oxdiff_exptl_absorpt_empirical_full_min 0.587
loop_
_space_group_symop_operation_xyz
'x, y, z'
'-x, y+1/2, -z'
loop_
_atom_site_label
_atom_site_type_symbol
_atom_site_fract_x
_atom_site_fract_y
_atom_site_fract_z
_atom_site_U_iso_or_equiv
_atom_site_adp_type
_atom_site_occupancy
_atom_site_site_symmetry_order
_atom_site_calc_flag
_atom_site_refinement_flags_posn
_atom_site_refinement_flags_adp
_atom_site_refinement_flags_occupancy
_atom_site_disorder_assembly
_atom_site_disorder_group
B1 B -0.6752(3) -0.2955(7) -0.8036(2) 0.0346(7) Uani 1 1 d . . . . .
N2 N -0.5501(2) -0.4687(5) -0.73687(14) 0.0320(5) Uani 1 1 d . . . . .
C3 C -0.4315(3) -0.5351(6) -0.74821(19) 0.0357(7) Uani 1 1 d . . . . .
O4 O -0.3502(2) -0.6960(5) -0.68364(14) 0.0485(6) Uani 1 1 d . . . . .
B5 B -0.4105(4) -0.7501(8) -0.6079(2) 0.0437(9) Uani 1 1 d . . . . .
N6 N -0.5521(3) -0.6006(5) -0.65466(15) 0.0370(6) Uani 1 1 d . . . . .
C7 C -0.6633(3) -0.5910(7) -0.63021(19) 0.0414(7) Uani 1 1 d . . . . .
H7 H -0.662893 -0.688105 -0.577025 0.050 Uiso 1 1 calc R . . . .
C8 C -0.7809(3) -0.4452(7) -0.67869(19) 0.0404(7) Uani 1 1 d . . . . .
C9 C -0.9056(3) -0.4074(9) -0.6599(2) 0.0503(9) Uani 1 1 d . . . . .
C10 C -0.9839(3) -0.2294(9) -0.7282(2) 0.0558(10) Uani 1 1 d . . . . .
H10 H -1.071982 -0.166216 -0.733621 0.067 Uiso 1 1 calc R . . . .
C11 C -0.9106(3) -0.1595(8) -0.7875(2) 0.0474(8) Uani 1 1 d . . . . .
N12 N -0.7864(2) -0.2900(6) -0.75758(15) 0.0380(6) Uani 1 1 d . . . . .
F13 F -0.62852(18) -0.0326(4) -0.81436(12) 0.0442(4) Uani 1 1 d . . . . .
F14 F -0.72052(17) -0.4235(4) -0.89036(10) 0.0427(4) Uani 1 1 d . . . . .
C15 C -0.3841(3) -0.4614(7) -0.82425(19) 0.0365(7) Uani 1 1 d . . . . .
N16 N -0.4367(3) -0.2576(6) -0.88947(17) 0.0429(6) Uani 1 1 d . . . . .
H16 H -0.503083 -0.146846 -0.890744 0.051 Uiso 1 1 calc R . . . .
C17 C -0.3670(3) -0.2591(8) -0.9516(2) 0.0487(8) Uani 1 1 d . . . . .
H17 H -0.382748 -0.140157 -1.002436 0.058 Uiso 1 1 calc R . . . .
C18 C -0.2705(3) -0.4624(8) -0.9274(2) 0.0527(9) Uani 1 1 d . . . . .
H18 H -0.208884 -0.507992 -0.958525 0.063 Uiso 1 1 calc R . . . .
C19 C -0.2803(3) -0.5908(8) -0.8474(2) 0.0508(9) Uani 1 1 d . . . . .
H19 H -0.226367 -0.737603 -0.815394 0.061 Uiso 1 1 calc R . . . .
F20 F -0.3349(2) -0.6237(5) -0.52636(12) 0.0605(6) Uani 1 1 d . . . . .
F21 F -0.4257(2) -1.0252(4) -0.59545(13) 0.0590(6) Uani 1 1 d . . . . .
C22 C -0.9427(4) -0.5383(11) -0.5813(3) 0.0719(13) Uani 1 1 d . . . . .
H22A H -0.886701 -0.459786 -0.522858 0.108 Uiso 1 1 calc GR . . . .
H22B H -0.926756 -0.734601 -0.580888 0.108 Uiso 1 1 calc GR . . . .
H22C H -1.038459 -0.504303 -0.590080 0.108 Uiso 1 1 calc GR . . . .
C23 C -0.9525(4) 0.0220(9) -0.8718(3) 0.0625(10) Uani 1 1 d . . . . .
H23A H -0.955564 -0.085324 -0.925878 0.094 Uiso 1 1 calc GR . . . .
H23B H -0.886654 0.169522 -0.863624 0.094 Uiso 1 1 calc GR . . . .
H23C H -1.042223 0.098718 -0.880206 0.094 Uiso 1 1 calc GR . . . .
loop_
_atom_site_aniso_label
_atom_site_aniso_U_11
_atom_site_aniso_U_22
_atom_site_aniso_U_33
_atom_site_aniso_U_23
_atom_site_aniso_U_13
_atom_site_aniso_U_12
B1 0.0419(18) 0.0324(18) 0.0312(15) 0.0015(14) 0.0142(14) 0.0007(15)
N2 0.0426(13) 0.0296(14) 0.0246(11) 0.0000(10) 0.0122(10) -0.0004(11)
C3 0.0416(15) 0.0328(16) 0.0299(13) 0.0002(12) 0.0079(12) -0.0003(13)
O4 0.0495(12) 0.0547(16) 0.0391(11) 0.0143(11) 0.0116(10) 0.0133(11)
B5 0.060(2) 0.038(2) 0.0307(16) 0.0049(16) 0.0125(16) 0.0023(18)
N6 0.0510(14) 0.0351(15) 0.0258(11) 0.0034(11) 0.0139(10) -0.0008(12)
C7 0.0585(19) 0.0396(18) 0.0289(14) -0.0024(14) 0.0180(14) -0.0075(15)
C8 0.0492(17) 0.0451(19) 0.0308(14) -0.0047(14) 0.0185(13) -0.0057(15)
C9 0.0543(19) 0.062(2) 0.0423(16) -0.0129(17) 0.0259(15) -0.0131(18)
C10 0.0466(18) 0.068(3) 0.059(2) -0.008(2) 0.0258(16) -0.0016(19)
C11 0.0441(18) 0.051(2) 0.0495(18) -0.0019(16) 0.0182(15) 0.0015(16)
N12 0.0434(13) 0.0402(15) 0.0322(12) -0.0008(11) 0.0149(10) 0.0002(12)
F13 0.0510(10) 0.0317(9) 0.0530(10) 0.0073(8) 0.0215(8) 0.0022(8)
F14 0.0503(9) 0.0496(11) 0.0268(8) -0.0046(8) 0.0106(7) 0.0026(9)
C15 0.0371(15) 0.0385(17) 0.0332(14) 0.0022(13) 0.0107(12) 0.0002(14)
N16 0.0471(14) 0.0441(16) 0.0433(13) 0.0085(13) 0.0227(12) 0.0029(13)
C17 0.0536(18) 0.056(2) 0.0422(16) 0.0052(17) 0.0228(15) -0.0042(18)
C18 0.0495(18) 0.068(3) 0.0497(18) -0.0027(18) 0.0284(15) -0.0010(19)
C19 0.0454(18) 0.058(2) 0.0508(18) 0.0049(18) 0.0186(15) 0.0093(17)
F20 0.0741(13) 0.0570(13) 0.0359(9) -0.0005(10) -0.0018(9) 0.0063(11)
F21 0.0902(15) 0.0361(11) 0.0484(11) 0.0094(9) 0.0197(11) 0.0067(10)
C22 0.078(3) 0.096(4) 0.056(2) -0.004(2) 0.042(2) -0.013(3)
C23 0.0501(19) 0.070(3) 0.067(2) 0.017(2) 0.0190(18) 0.015(2)
loop_
_atom_type_symbol
_atom_type_description
_atom_type_scat_dispersion_real
_atom_type_scat_dispersion_imag
_atom_type_scat_source
C C 0.0033 0.0016 'International Tables Vol C Tables 4.2.6.8 and 6.1.1.4'
H H 0.0000 0.0000 'International Tables Vol C Tables 4.2.6.8 and 6.1.1.4'
B B 0.0013 0.0007 'International Tables Vol C Tables 4.2.6.8 and 6.1.1.4'
F F 0.0171 0.0103 'International Tables Vol C Tables 4.2.6.8 and 6.1.1.4'
N N 0.0061 0.0033 'International Tables Vol C Tables 4.2.6.8 and 6.1.1.4'
O O 0.0106 0.0060 'International Tables Vol C Tables 4.2.6.8 and 6.1.1.4'
loop_
_geom_angle_atom_site_label_1
_geom_angle_atom_site_label_2
_geom_angle_atom_site_label_3
_geom_angle
_geom_angle_site_symmetry_1
_geom_angle_site_symmetry_3
_geom_angle_publ_flag
N12 B1 N2 106.8(2) . . ?
F13 B1 N2 108.6(2) . . ?
F13 B1 N12 112.2(3) . . ?
F13 B1 F14 108.5(2) . . ?
F14 B1 N2 108.5(2) . . ?
F14 B1 N12 112.0(3) . . ?
C3 N2 B1 129.1(2) . . ?
C3 N2 N6 106.7(2) . . ?
N6 N2 B1 124.0(2) . . ?
N2 C3 C15 127.8(3) . . ?
O4 C3 N2 115.7(2) . . ?
O4 C3 C15 116.4(3) . . ?
C3 O4 B5 110.7(2) . . ?
O4 B5 N6 97.4(2) . . ?
F20 B5 O4 111.1(3) . . ?
F20 B5 N6 111.6(3) . . ?
F21 B5 O4 111.9(3) . . ?
F21 B5 N6 112.4(3) . . ?
F21 B5 F20 111.6(3) . . ?
N2 N6 B5 109.1(2) . . ?
C7 N6 N2 120.2(2) . . ?
C7 N6 B5 130.7(3) . . ?
N6 C7 H7 118.1 . . ?
N6 C7 C8 123.9(3) . . ?
C8 C7 H7 118.1 . . ?
C7 C8 C9 130.6(3) . . ?
C7 C8 N12 120.7(3) . . ?
N12 C8 C9 108.7(3) . . ?
C8 C9 C22 126.1(4) . . ?
C10 C9 C8 105.8(3) . . ?
C10 C9 C22 128.2(3) . . ?
C9 C10 H10 125.4 . . ?
C9 C10 C11 109.3(3) . . ?
C11 C10 H10 125.4 . . ?
C10 C11 C23 129.2(3) . . ?
N12 C11 C10 108.7(3) . . ?
N12 C11 C23 122.1(3) . . ?
C8 N12 B1 124.0(3) . . ?
C11 N12 B1 128.2(3) . . ?
C11 N12 C8 107.6(2) . . ?
N16 C15 C3 126.8(3) . . ?
N16 C15 C19 107.2(3) . . ?
C19 C15 C3 126.0(3) . . ?
C15 N16 H16 125.6 . . ?
C17 N16 C15 108.9(3) . . ?
C17 N16 H16 125.6 . . ?
N16 C17 H17 125.6 . . ?
C18 C17 N16 108.7(3) . . ?
C18 C17 H17 125.6 . . ?
C17 C18 H18 126.2 . . ?
C17 C18 C19 107.6(3) . . ?
C19 C18 H18 126.2 . . ?
C15 C19 C18 107.7(3) . . ?
C15 C19 H19 126.2 . . ?
C18 C19 H19 126.2 . . ?
C9 C22 H22A 109.5 . . ?
C9 C22 H22B 109.5 . . ?
C9 C22 H22C 109.5 . . ?
H22A C22 H22B 109.5 . . ?
H22A C22 H22C 109.5 . . ?
H22B C22 H22C 109.5 . . ?
C11 C23 H23A 109.5 . . ?
C11 C23 H23B 109.5 . . ?
C11 C23 H23C 109.5 . . ?
H23A C23 H23B 109.5 . . ?
H23A C23 H23C 109.5 . . ?
H23B C23 H23C 109.5 . . ?
loop_
_geom_bond_atom_site_label_1
_geom_bond_atom_site_label_2
_geom_bond_distance
_geom_bond_site_symmetry_2
_geom_bond_publ_flag
B1 N2 1.584(4) . ?
B1 N12 1.519(4) . ?
B1 F13 1.383(4) . ?
B1 F14 1.385(4) . ?
N2 C3 1.321(4) . ?
N2 N6 1.403(3) . ?
C3 O4 1.310(3) . ?
C3 C15 1.433(4) . ?
O4 B5 1.493(4) . ?
B5 N6 1.565(5) . ?
B5 F20 1.366(4) . ?
B5 F21 1.356(4) . ?
N6 C7 1.309(4) . ?
C7 H7 0.9300 . ?
C7 C8 1.380(4) . ?
C8 C9 1.409(4) . ?
C8 N12 1.394(4) . ?
C9 C10 1.379(5) . ?
C9 C22 1.501(5) . ?
C10 H10 0.9300 . ?
C10 C11 1.388(4) . ?
C11 N12 1.357(4) . ?
C11 C23 1.489(5) . ?
C15 N16 1.371(4) . ?
C15 C19 1.374(4) . ?
N16 H16 0.8600 . ?
N16 C17 1.355(4) . ?
C17 H17 0.9300 . ?
C17 C18 1.354(5) . ?
C18 H18 0.9300 . ?
C18 C19 1.392(5) . ?
C19 H19 0.9300 . ?
C22 H22A 0.9600 . ?
C22 H22B 0.9600 . ?
C22 H22C 0.9600 . ?
C23 H23A 0.9600 . ?
C23 H23B 0.9600 . ?
C23 H23C 0.9600 . ?
loop_
_geom_torsion_atom_site_label_1
_geom_torsion_atom_site_label_2
_geom_torsion_atom_site_label_3
_geom_torsion_atom_site_label_4
_geom_torsion
_geom_torsion_site_symmetry_1
_geom_torsion_site_symmetry_2
_geom_torsion_site_symmetry_3
_geom_torsion_site_symmetry_4
_geom_torsion_publ_flag
B1 N2 C3 O4 -175.9(3) . . . . ?
B1 N2 C3 C15 1.4(5) . . . . ?
B1 N2 N6 B5 180.0(3) . . . . ?
B1 N2 N6 C7 1.8(4) . . . . ?
N2 B1 N12 C8 -8.2(4) . . . . ?
N2 B1 N12 C11 177.9(3) . . . . ?
N2 C3 O4 B5 -3.8(4) . . . . ?
N2 C3 C15 N16 16.1(5) . . . . ?
N2 C3 C15 C19 -161.1(3) . . . . ?
N2 N6 C7 C8 -3.1(4) . . . . ?
C3 N2 N6 B5 4.1(3) . . . . ?
C3 N2 N6 C7 -174.1(3) . . . . ?
C3 O4 B5 N6 5.5(3) . . . . ?
C3 O4 B5 F20 -111.1(3) . . . . ?
C3 O4 B5 F21 123.4(3) . . . . ?
C3 C15 N16 C17 -177.9(3) . . . . ?
C3 C15 C19 C18 177.8(3) . . . . ?
O4 C3 C15 N16 -166.7(3) . . . . ?
O4 C3 C15 C19 16.1(4) . . . . ?
O4 B5 N6 N2 -5.7(3) . . . . ?
O4 B5 N6 C7 172.3(3) . . . . ?
B5 N6 C7 C8 179.1(3) . . . . ?
N6 N2 C3 O4 -0.4(3) . . . . ?
N6 N2 C3 C15 176.9(3) . . . . ?
N6 C7 C8 C9 -177.6(3) . . . . ?
N6 C7 C8 N12 -1.6(5) . . . . ?
C7 C8 C9 C10 176.4(3) . . . . ?
C7 C8 C9 C22 -3.9(6) . . . . ?
C7 C8 N12 B1 8.0(5) . . . . ?
C7 C8 N12 C11 -177.0(3) . . . . ?
C8 C9 C10 C11 0.1(4) . . . . ?
C9 C8 N12 B1 -175.2(3) . . . . ?
C9 C8 N12 C11 -0.1(4) . . . . ?
C9 C10 C11 N12 -0.2(4) . . . . ?
C9 C10 C11 C23 179.0(4) . . . . ?
C10 C11 N12 B1 175.0(3) . . . . ?
C10 C11 N12 C8 0.2(4) . . . . ?
N12 B1 N2 C3 178.3(3) . . . . ?
N12 B1 N2 N6 3.5(4) . . . . ?
N12 C8 C9 C10 0.0(4) . . . . ?
N12 C8 C9 C22 179.7(3) . . . . ?
F13 B1 N2 C3 -60.4(4) . . . . ?
F13 B1 N2 N6 124.7(2) . . . . ?
F13 B1 N12 C8 -127.1(3) . . . . ?
F13 B1 N12 C11 59.0(4) . . . . ?
F14 B1 N2 C3 57.4(4) . . . . ?
F14 B1 N2 N6 -117.4(3) . . . . ?
F14 B1 N12 C8 110.5(3) . . . . ?
F14 B1 N12 C11 -63.5(4) . . . . ?
C15 C3 O4 B5 178.6(3) . . . . ?
C15 N16 C17 C18 0.3(4) . . . . ?
N16 C15 C19 C18 0.1(4) . . . . ?
N16 C17 C18 C19 -0.2(4) . . . . ?
C17 C18 C19 C15 0.1(4) . . . . ?
C19 C15 N16 C17 -0.2(4) . . . . ?
F20 B5 N6 N2 110.6(3) . . . . ?
F20 B5 N6 C7 -71.5(4) . . . . ?
F21 B5 N6 N2 -123.2(3) . . . . ?
F21 B5 N6 C7 54.8(4) . . . . ?
C22 C9 C10 C11 -179.5(4) . . . . ?
C23 C11 N12 B1 -4.3(5) . . . . ?
C23 C11 N12 C8 -179.1(3) . . . . ?
loop_
_refln_index_h
_refln_index_k
_refln_index_l
_refln_F_squared_meas
_refln_F_squared_sigma
0 -5 -1 110.61 9.46
0 -5 -2 46.68 6.36
0 -5 -3 125.82 10.58
0 -5 4 7.26 2.81
0 -5 -4 3.29 2.42
0 -5 5 80.1 9.26
0 -5 -5 80.62 9
0 -5 -6 3.23 2.53
0 -5 6 7.76 3.5
0 -5 -7 11.61 4.18
0 -5 7 15.65 4.91
0 -5 -8 4.56 3.14
0 -5 8 8.83 4.33
0 -5 9 11.31 4.85
0 -5 -9 6.53 3.8
0 -5 10 11.67 4.91
0 -5 11 3.2 3.33
0 -4 0 361.24 15.08
0 -4 0 346.68 12.73
0 -4 1 95.73 7.25
0 -4 1 95.7 7.6
0 -4 -1 94.52 5.4
0 -4 -1 91.94 7.63
0 -4 2 82.76 6.9
0 -4 -2 99.54 8.15
0 -4 2 93.59 7.95
0 -4 3 36.94 5.52
0 -4 -3 44.76 5.68
0 -4 3 42.16 5.05
0 -4 4 30.88 5.48
0 -4 -4 37.04 5.67
0 -4 4 31.66 4.47
0 -4 -5 456.73 19.8
0 -4 5 452.39 21.33
0 -4 5 450.84 16.83
0 -4 -6 272.45 15.55
0 -4 6 245.5 16.38
0 -4 6 269.91 13.14
0 -4 7 79.17 9.78
0 -4 7 90.95 7.82
0 -4 -7 78.3 8.69
0 -4 8 26.99 4.51
0 -4 -8 46.11 7.13
0 -4 8 30.49 6.69
0 -4 9 135.49 13.55
0 -4 -9 135 12.21
0 -4 9 134.06 10.09
0 -4 10 30.99 7.17
0 -4 10 37.42 5.58
0 -4 11 6.94 4.35
0 -4 12 10.11 4.95
0 -4 13 12.63 5.13
0 -3 0 3.18 1.42
0 -3 0 -0.04 1.34
0 -3 -1 75 4.36
0 -3 1 74.86 5.63
0 -3 -1 69.61 5.7
0 -3 1 73.1 5.84
0 -3 -2 73.7 3.1
0 -3 2 76.42 6.45
0 -3 2 76.53 5.63
0 -3 -2 89.2 6.7
0 -3 3 242.32 12.71
0 -3 3 256.42 10.54
0 -3 -3 266.88 12.35
0 -3 4 140 7.74
0 -3 -4 140.16 9.27
0 -3 4 140.41 10.17
0 -3 -5 237.72 12.72
0 -3 5 231.64 13.92
0 -3 5 243.99 10.62
0 -3 6 41.46 6.55
0 -3 -6 40.14 5.56
0 -3 6 40.54 4.6
0 -3 7 119.04 7.88
0 -3 7 118.8 10.9
0 -3 -7 127.71 10.12
0 -3 -7 123.35 9.26
0 -3 -8 42.81 6.21
0 -3 -8 45.49 5.89
0 -3 8 42.25 4.94
0 -3 8 46.43 7.47
0 -3 9 505.25 18.37
0 -3 -9 482.42 20.41
0 -3 9 476.95 24.23
0 -3 -9 520.58 22.81
0 -3 -10 17.68 4.24
0 -3 10 15.92 5.35
0 -3 10 22.63 4.14
0 -3 11 91.14 11.47
0 -3 11 98.31 8.63
0 -3 -11 99.77 9.74
0 -3 12 32.17 5.41
0 -3 -12 37.48 6.49
0 -3 12 36 8.01
0 -3 -13 71.95 8.9
0 -3 13 78.01 11.6
0 -3 -14 7.76 3.56
0 -3 14 7.19 4.78
0 -3 -15 35.67 6.94
0 -3 15 41.7 9.07
0 -2 0 2985.01 46.12
0 -2 0 2978.27 44.99
0 -2 0 2916.36 48.51
0 -2 -1 1620.2 25.12
0 -2 -1 1596.43 29.53
0 -2 1 1640.44 30.25
0 -2 1 1612.9 28.23
0 -2 1 1595.61 30.12
0 -2 2 36.23 3.98
0 -2 2 41.53 3.3
0 -2 2 36.76 3.44
0 -2 -2 39.56 3.88
0 -2 3 236.77 8.41
0 -2 -3 234.91 9.52
0 -2 -3 244.92 10.18
0 -2 3 229.23 8.63
0 -2 3 245.9 11.35
0 -2 4 746.49 17.28
0 -2 4 760.03 17.6
0 -2 -4 777.08 19.79
0 -2 -4 756.67 20.79
0 -2 4 761.5 22.76
0 -2 5 488.98 13.88
0 -2 5 504.18 18.9
0 -2 -5 464.41 15.43
0 -2 5 463.19 13.43
0 -2 -5 488.48 16.72
0 -2 -6 293.98 12.44
0 -2 6 305.84 10.71
0 -2 -6 301.16 13.63
0 -2 6 299.67 15.31
0 -2 7 82.35 8.43
0 -2 -7 86.82 7.5
0 -2 -7 84.15 6.85
0 -2 -8 0.79 1.85
0 -2 -8 1 1.6
0 -2 8 2.19 1.58
0 -2 8 0.21 2.06
0 -2 -9 99.31 8.17
0 -2 9 93.26 7.06
0 -2 9 88.16 9.64
0 -2 10 29.74 4.21
0 -2 10 33.93 6.49
0 -2 -10 38.16 5.45
0 -2 -11 71.54 4.72
0 -2 11 66.64 6.35
0 -2 -11 82.09 8.16
0 -2 11 83 10.08
0 -2 -12 204.08 8.4
0 -2 12 217.41 11.82
0 -2 -12 197.63 13.18
0 -2 12 203.66 16.48
0 -2 -13 90.82 9.38
0 -2 13 104.01 12.37
0 -2 13 92.9 7.94
0 -2 14 26.09 6.92
0 -2 -14 17.9 4.78
0 -2 15 17.81 5.79
0 -2 -15 18.34 5.11
0 -2 -16 20.33 5.27
0 -2 16 3.97 4.18
0 -2 -17 10.19 4.44
0 -2 17 2.44 3.84
0 -1 0 0.13 0.63
0 -1 0 0.84 0.66
0 -1 0 1.22 0.77
0 -1 -1 7418.87 96.11
0 -1 1 7303.32 94.81
0 -1 1 7414.94 97.84
0 -1 -1 7346.22 96.62
0 -1 1 7222.57 95.62
0 -1 2 5949.51 82.91
0 -1 2 5839.27 77.89
0 -1 2 5949.61 77.84
0 -1 -2 5916.57 80.88
0 -1 -2 6010.01 79.91
0 -1 -3 777.29 17.42
0 -1 3 786.28 15.9
0 -1 -3 770.13 12.9
0 -1 3 769.27 19
0 -1 3 789.28 14.35
0 -1 -3 792.31 16.51
0 -1 -4 2338.13 32.29
0 -1 4 2335.06 42.5
0 -1 -4 2279.46 37.78
0 -1 4 2366.08 36.16
0 -1 4 2292.31 34.33
0 -1 -4 2301.76 34.85
0 -1 -4 2327.08 39.69
0 -1 5 948.78 16.92
0 -1 -5 986.35 22.95
0 -1 5 988.07 19.07
0 -1 -5 943.31 16.03
0 -1 -5 965.84 21.05
0 -1 5 936.33 24.77
0 -1 -5 945.52 19.48
0 -1 5 953.29 17.98
0 -1 -6 733.74 18.76
0 -1 6 720.77 16.06
0 -1 6 721.32 14.79
0 -1 6 737.71 15.7
0 -1 -6 745.04 13.92
0 -1 6 720.78 22.45
0 -1 -6 714.03 17.98
0 -1 7 660 15.36
0 -1 -7 671.94 18.56
0 -1 7 613.19 21.87
0 -1 -7 642.04 13.5
0 -1 7 656.63 15.58
0 -1 7 615.59 14.42
0 -1 -7 628.04 18.05
0 -1 -8 681.93 20.63
0 -1 8 665.87 24.14
0 -1 -8 722.4 15.31
0 -1 8 744.41 17.41
0 -1 -8 720.62 20.4
0 -1 8 693.07 16.3
0 -1 -9 743.33 16.24
0 -1 9 702.65 17.41
0 -1 9 697.64 25.87
0 -1 -9 660.85 20.55
0 -1 -10 74.06 4.88
0 -1 -10 83.59 7.13
0 -1 10 81.19 8.99
0 -1 10 73.13 5.27
0 -1 11 245.73 16.25
0 -1 -11 224.16 12.46
0 -1 11 231.05 10.01
0 -1 -11 249.18 9.54
0 -1 12 258.33 17.46
0 -1 -12 266.43 10.44
0 -1 12 263.31 11.24
0 -1 -12 282.65 14.54
0 -1 13 133.54 8.17
0 -1 13 138.24 13.37
0 -1 -13 130.22 7.45
0 -1 -13 115.12 9.69
0 -1 -14 46.79 4.77
0 -1 14 37.12 4.57
0 -1 -14 46.62 6.64
0 -1 14 41.22 7.9
0 -1 -15 42.83 4.67
0 -1 -15 37.14 6.16
0 -1 15 50.93 8.93
0 -1 16 13.11 5.06
0 -1 -16 16.82 4.3
0 -1 -17 14.38 4.3
0 -1 17 10.16 4.62
0 -1 18 25.8 7.12
0 -1 -18 18.02 5.02
0 0 -2 5837.05 77.62
0 0 2 5886.67 74.93
0 0 -2 6049.72 75.18
0 0 -2 5922.93 75.02
0 0 2 5873.21 77.55
0 0 3 270.01 6.6
0 0 -3 279.4 6.8
0 0 -3 277.5 6.76
0 0 -3 267.96 8.55
0 0 3 277.47 8.59
0 0 4 2011.62 34.81
0 0 -4 1991.77 34.73
0 0 4 1970.08 30.31
0 0 -4 2045.98 30.73
0 0 -4 1984.44 30.64
0 0 -5 94.6 4.74
0 0 5 100.05 4.65
0 0 -5 94.06 4.68
0 0 5 90 6.06
0 0 -5 87.21 6
0 0 6 147.52 8.37
0 0 -6 199.91 7.55
0 0 -6 215.66 8.07
0 0 -6 158.87 9.09
0 0 6 172.27 9.39
0 0 6 172.66 6.92
0 0 7 193.2 10.75
0 0 7 187.4 7.73
0 0 -7 222.85 8.85
0 0 -7 226.9 8.5
0 0 -8 91.08 5.68
0 0 -8 97.31 6.19
0 0 8 76.72 7.33
0 0 -9 35.31 3.85
0 0 -9 41.43 4.32
0 0 9 31.51 2.79
0 0 9 32.59 5.03
0 0 -10 30.08 3.76
0 0 10 31.18 5.25
0 0 -10 31.7 4.06
0 0 10 27.8 2.86
0 0 11 5.73 1.6
0 0 11 2.94 2.28
0 0 -11 9.4 2.42
0 0 -11 11.41 2.75
0 0 11 8.64 0.91
0 0 12 119.04 11.07
0 0 -12 109.18 8.31
0 0 -12 117.64 7.74
0 0 12 112.94 6.21
0 0 -13 227.86 11.25
0 0 13 213.01 15.44
0 0 -13 229.25 12.71
0 0 13 221.41 9.35
0 0 14 520.01 15.36
0 0 14 503.81 25.24
0 0 -14 517.38 20.46
0 0 -14 516.83 18.09
0 0 15 116.04 12.37
0 0 -15 131.05 10.56
0 0 -15 110.5 8.32
0 0 16 12.68 4.71
0 0 -16 18.02 4.27
0 0 -16 24.18 4.16
0 0 -17 15.41 4.15
0 0 17 22.34 6.1
0 0 -17 14.82 3.52
0 0 -18 2.94 2.43
0 0 18 -5.41 3.65
0 0 19 34.94 8.1
0 0 -19 33.11 6.36
0 1 0 -0.09 0.46
0 1 0 -0.11 0.43
0 1 0 -0.1 0.6
0 1 -1 7413.45 97.86
0 1 -1 7193.9 94.32
0 1 1 7332.35 95.7
0 1 -1 7312.28 95.03
0 1 1 7337.2 98.04
0 1 1 7345.4 96.37
0 1 -2 6018.99 84.63
0 1 2 6030.17 82.17
0 1 -2 6048.19 81.03
0 1 -2 5988.39 78.64
0 1 2 6103.32 81.3
0 1 -3 792.61 13.82
0 1 3 766.78 12.47
0 1 3 778.13 12.76
0 1 -3 796.9 15.26
0 1 3 806.87 16.48
0 1 -3 781.4 12.82
0 1 -3 767.9 19.18
0 1 3 796.34 17.53
0 1 4 2354.24 32.92
0 1 4 2339.85 40.14
0 1 -4 2336.92 33.11
0 1 4 2321.41 34.82
0 1 -4 2341.34 34.86
0 1 -4 2372.49 43.18
0 1 4 2361.47 37.89
0 1 -5 1001.35 17.71
0 1 5 968.52 20.85
0 1 5 984.89 19.66
0 1 -5 966.39 25.52
0 1 5 1004.49 23.42
0 1 5 984.26 17.16
0 1 -5 973.71 17.1
0 1 6 728.74 14.98
0 1 -6 749.6 15.04
0 1 6 745.32 18.03
0 1 -6 748.14 14.71
0 1 -7 609.38 14.61
0 1 7 661.91 18.12
0 1 7 648.22 14.87
0 1 -7 656.63 13.89
0 1 -8 696.91 19.78
0 1 8 741.59 20.69
0 1 8 652.1 16.52
0 1 -8 697.87 16.38
0 1 9 746.24 22.32
0 1 -9 687.77 17.7
0 1 -9 748.44 21.37
0 1 -10 78.26 5.68
0 1 -10 79.51 6.75
0 1 10 73.1 7.07
0 1 -11 236.27 10.7
0 1 11 263.22 14.24
0 1 -11 244.9 12.42
0 1 12 272.07 15.27
0 1 -12 248.58 13.01
0 1 -12 262.17 11.96
0 1 13 114.52 10.42
0 1 -13 121.87 9.18
0 1 -13 138.48 9.02
0 1 14 46.49 4.59
0 1 14 43.02 6.86
0 1 -14 42.95 5.8
0 1 -14 44.35 5.5
0 1 -15 39.2 5.34
0 1 -15 45.47 6.15
0 1 15 53.01 7.69
0 1 -16 19.09 4.03
0 1 16 12.95 4.31
0 1 -16 9.68 3.48
0 1 17 16.99 4.88
0 1 -17 11.94 3.66
0 1 -17 12 3.74
0 1 -18 21.31 4.7
0 1 -19 2.75 2.67
0 2 0 2977.31 45.77
0 2 0 2949.99 45.31
0 2 0 2953.79 47.65
0 2 0 3009.07 44.97
0 2 -1 1633.52 29.5
0 2 1 1626.61 29.54
0 2 -1 1686.44 31.31
0 2 1 1634.89 31.76
0 2 1 1636.91 28.92
0 2 1 1649.74 26.25
0 2 -1 1632.95 27.88
0 2 2 38.5 3.55
0 2 -2 45.48 3.32
0 2 -2 43.41 4.44
0 2 2 46.07 4.59
0 2 -2 41.92 4.14
0 2 -2 36.74 3.21
0 2 2 38.12 3.68
0 2 -3 230.31 7.88
0 2 3 229.73 9.76
0 2 3 215.15 10.57
0 2 -3 231.22 11.29
0 2 4 764.05 22.15
0 2 -4 774.98 16.38
0 2 4 775.4 14.42
0 2 -5 482.74 12.2
0 2 -5 484.66 10.76
0 2 5 492.17 10.69
0 2 -6 309.73 8.39
0 2 6 295.84 7.1
0 2 6 325.36 8.58
0 2 7 80.75 4.34
0 2 -7 78.69 3.38
0 2 7 76.82 4.12
0 2 -7 82.14 4.35
0 2 8 0.21 0.65
0 2 -8 -0.04 0.33
0 2 -8 -0.07 0.62
0 2 8 1.12 0.79
0 2 9 97.44 6.08
0 2 9 102.14 5.75
0 2 -9 107.09 5.73
0 2 10 27.92 3.68
0 2 -10 31.12 4.91
0 2 -10 34.73 3.44
0 2 -11 82.6 7.99
0 2 -11 73.4 5.37
0 2 11 76.43 6.39
0 2 12 209.05 11.43
0 2 -12 215.11 10.01
0 2 -12 206.73 13.1
0 2 13 89.65 7.89
0 2 -13 95.61 9.36
0 2 -13 92.1 6.86
0 2 -14 20 3.5
0 2 -14 21.8 4.86
0 2 -15 15.78 4.35
0 2 -16 12.66 4.14
0 2 -17 5.66 3.77
0 3 0 -1.06 1.03
0 3 0 0.08 0.96
0 3 0 0.65 1.35
0 3 -1 76.35 5.31
0 3 -1 61.37 4.64
0 3 1 72.39 6.39
0 3 -1 70.48 6.02
0 3 -1 80.45 6.12
0 3 -2 77.51 5.31
0 3 2 79.08 6.96
0 3 -2 85.95 5.18
0 3 -2 78.64 5.87
0 3 3 289.44 14.26
0 3 -3 267.37 10.65
0 3 -4 145.94 7.4
0 3 4 128.73 9.78
0 3 5 220.74 7.86
0 3 5 244.67 13.9
0 3 -5 219.01 9.02
0 3 -6 33.79 3.56
0 3 -6 26.67 2.64
0 3 -7 115.13 6.45
0 3 -7 126.84 5.63
0 3 7 109.09 5.41
0 3 7 124.2 10.64
0 3 -8 42.88 3.34
0 3 8 43.03 6.61
0 3 -9 448.77 11.01
0 3 -9 467.92 12.44
0 3 9 522.21 23.94
0 3 -10 9.09 1.74
0 3 -12 31.8 5.94
0 3 -13 68.61 8.79
0 3 -14 0.04 2.03
0 3 -15 24.45 5.74
0 4 0 355.94 15.91
0 4 1 90.24 8.19
0 4 -1 84.74 7.45
0 4 2 89.76 8.49
0 4 -2 82.34 6.97
0 4 3 37.08 5.79
0 4 -3 33.95 4.44
0 4 4 43.98 6.68
0 4 -4 22.11 3.71
0 4 5 421.7 20.69
0 4 -5 404.92 14.62
0 4 6 282.75 17.2
0 4 -6 260.25 11.11
0 4 -7 73.74 5.87
0 4 7 71.08 9.2
0 4 -8 25.81 3.62
0 4 8 46.74 8.1
0 4 9 136.66 13.38
0 4 10 44.34 8.16
0 4 11 12.06 4.91
0 4 12 9.7 4.63
0 4 -12 7.25 4.01
0 4 13 14.07 4.97
0 4 -13 11.73 4.65
0 5 0 1.73 2.24
0 5 1 99.76 9.6
0 5 -1 62.15 7.07
0 5 -2 24.26 4.39
0 5 2 33.51 5.84
0 5 -3 123.94 9.35
0 5 3 120.43 11.27
0 5 -4 5.56 2.34
0 5 4 4.71 2.83
0 5 -5 76.8 6.96
0 5 5 67.51 9.01
0 5 6 6.84 3.46
0 5 7 21.5 5.85
0 5 8 10.92 4.31
0 5 9 14.59 5.13
0 5 10 5.64 4.39
0 6 0 35.72 6.25
0 6 1 -1.09 1.95
0 6 2 9.64 3.79
0 6 3 12.07 4.6
0 6 4 34.65 7.01
0 6 5 17.7 5.56
0 6 6 7.75 4.16
1 -5 -11 6.46 3.88
-1 -5 11 10.3 4.92
1 -5 -10 0.5 2.4
-1 -5 10 0.62 2.71
1 -5 -9 6.42 3.97
-1 -5 9 8.52 4.22
-1 -5 8 6.67 3.57
1 -5 -8 -2.86 2.86
-1 -5 7 21.36 5.3
1 -5 -7 15.88 4.65
-1 -5 6 37.2 6.55
1 -5 -6 31.83 6.33
1 -5 -5 39.18 6.92
-1 -5 5 41.53 6.72
1 -5 -4 105.17 10.41
1 -5 -3 166.48 12.69
1 -5 -2 17.88 4.46
1 -5 -1 50.28 6.81
1 -5 0 3.25 2.93
1 -5 1 37.85 5.77
1 -5 2 154.06 11.46
1 -5 3 7.25 2.88
1 -5 4 19.17 4.89
1 -5 5 2.3 2.48
-1 -5 -6 3.92 2.62
1 -5 6 -0.05 1.95
1 -5 7 2.42 2.89
1 -5 8 -3.64 3.49
1 -5 9 16.18 5.47
1 -5 10 5.71 4.15
-1 -4 14 20.79 6.74
-1 -4 13 0.71 2.75
-1 -4 12 9.9 4.63
1 -4 -11 13.6 4.77
-1 -4 11 4.44 3.15
1 -4 -10 82.91 10.06
-1 -4 10 77.2 10.6
1 -4 -9 70.93 8.94
-1 -4 9 72.63 9.89
1 -4 -8 3.28 2.83
-1 -4 8 5.26 3.29
-1 -4 7 211.02 10.76
1 -4 -7 203.15 14.31
-1 -4 7 227.4 15.67
1 -4 -6 67.46 7.96
-1 -4 6 66.8 5.87
-1 -4 6 62.47 7.97
1 -4 -5 83 8.53
-1 -4 5 79.07 8.54
-1 -4 5 71.7 5.93
-1 -4 4 70.59 7.61
1 -4 -4 74.11 7.82
-1 -4 4 72.24 5.84
1 -4 -3 89.32 8.28
-1 -4 3 83.77 7.6
-1 -4 3 78.07 6.06
-1 -4 2 88.22 7.19
1 -4 -2 84.29 7.96
-1 -4 2 80.11 6.19
1 -4 -2 84.61 4.94
1 -4 -1 64.1 6.77
-1 -4 1 64.8 5.75
1 -4 -1 54.57 4.86
-1 -4 1 68.5 5.78
-1 -4 0 275.57 12.22
1 -4 0 279.51 14.02
-1 -4 0 273.22 10.35
1 -4 0 279.12 12.62
-1 -4 -1 3.94 1.95
1 -4 1 6.8 2.37
1 -4 1 6.99 2.41
1 -4 2 26.45 4.31
-1 -4 -2 22.54 3.89
1 -4 2 23.45 4.25
-1 -4 -3 180.4 11.03
1 -4 3 180.05 10.98
1 -4 3 173 12.15
-1 -4 -4 157.59 10.81
1 -4 4 152.62 10.22
1 -4 4 153.07 12.09
1 -4 5 162.89 10.75
-1 -4 -5 187.22 12.07
1 -4 5 152.25 12.57
1 -4 6 256.33 17.31
1 -4 6 270.15 14.2
-1 -4 -6 285.41 15.9
1 -4 7 44.16 7.73
1 -4 7 52.77 6.49
-1 -4 -7 56.95 7.48
1 -4 8 17.33 5.26
1 -4 8 20.93 4.53
1 -4 9 8.76 4.35
1 -4 9 8.38 3.01
-1 -4 -9 17.94 4.7
-1 -4 -10 47.98 7.34
1 -4 10 52.38 7.02
1 -4 10 53.36 9.57
1 -4 11 2.92 2.07
-1 -4 -11 5.49 3.16
1 -4 11 2.23 3.51
-1 -4 -12 0.97 2.5
1 -4 12 -5.01 3.65
1 -4 13 6.05 4.38
-1 -3 15 4.09 3.43
-1 -3 14 14.06 5.41
-1 -3 13 10.3 4.44
-1 -3 12 10.37 4.51
1 -3 -11 276.05 17.48
-1 -3 11 244.73 12.84
-1 -3 11 257.87 18.54
1 -3 -10 32.25 6.09
-1 -3 10 23.69 6.18
-1 -3 10 33.08 4.6
-1 -3 9 346.22 13.9
-1 -3 9 309.31 18.89
1 -3 -9 325.93 17.83
-1 -3 8 419.25 21.11
-1 -3 8 431.36 15.02
1 -3 -8 440.6 19.94
-1 -3 7 20.97 4.84
-1 -3 7 16.38 2.8
1 -3 -7 19.49 4.37
-1 -3 7 15.69 2.74
-1 -3 6 78.87 8.29
-1 -3 6 88.67 5.82
-1 -3 6 76.25 5.66
1 -3 -6 82.29 7.87
-1 -3 5 245.75 9.52
-1 -3 5 216.48 12.93
-1 -3 5 220.34 9.75
1 -3 -5 252.9 13.25
-1 -3 4 341.09 11.17
-1 -3 4 322.01 12.09
1 -3 -4 342.64 15.2
-1 -3 4 355.78 15.69
1 -3 -3 457.29 17.07
-1 -3 3 434.98 12.77
1 -3 -3 432.89 8.75
-1 -3 3 424.43 16.15
-1 -3 3 423.87 14.49
-1 -3 2 595.62 17.98
1 -3 -2 636.31 14.61
-1 -3 2 630.56 16.06
-1 -3 2 633.65 18.85
1 -3 -2 648.22 20.04
1 -3 -1 959.09 21.43
-1 -3 1 936.62 22.01
-1 -3 1 953.8 21.08
1 -3 -1 952.46 24.83
-1 -3 0 128.36 6.29
1 -3 0 129.43 8.19
-1 -3 0 122.29 6.82
1 -3 0 130.86 7.7
1 -3 1 132.35 8.12
-1 -3 -1 136.11 7.54
1 -3 1 115.78 7.93
1 -3 2 56.84 5.24
1 -3 2 52.51 5.75
-1 -3 -2 47.55 4.78
-1 -3 -3 482.95 16.34
1 -3 3 481.96 16.2
-1 -3 -3 499.18 17.01
1 -3 3 455.42 18.6
1 -3 4 253.39 11.66
-1 -3 -4 276.03 12.85
1 -3 4 267.95 14.7
-1 -3 -4 273.47 12.46
-1 -3 -5 688.2 22.39
-1 -3 -5 715.49 21.91
1 -3 5 697.3 25.77
1 -3 5 675.06 20.5
1 -3 6 169.7 9.96
-1 -3 -6 164.87 10.5
-1 -3 -6 187.36 11.61
1 -3 6 153.87 12.41
1 -3 7 338.82 19.19
1 -3 7 311.18 14.19
-1 -3 -7 342.62 15.87
1 -3 8 294.5 14.14
1 -3 8 308.57 19.09
-1 -3 -8 267.09 14.76
-1 -3 -9 286 15.71
1 -3 9 310.35 15.11
1 -3 9 296.39 19.56
-1 -3 -10 42.66 6.48
1 -3 10 43.23 5.92
1 -3 10 39.87 7.59
1 -3 11 17.72 5.57
1 -3 11 22.35 4.66
-1 -3 -11 11.76 3.9
1 -3 12 17.11 5.98
-1 -3 -12 37.23 6.74
1 -3 12 33.54 5.73
-1 -3 -13 43.75 7.09
1 -3 13 59.04 10.5
1 -3 13 56.7 7.66
1 -3 14 42.98 9.29
-1 -3 -14 51.86 8.24
1 -3 14 36.92 6.47
-1 -3 -15 31.21 6.57
1 -3 15 34.07 6.42
1 -3 16 53.14 8.47
1 -2 -17 11.03 3.87
-1 -2 17 4.35 3.68
1 -2 -16 -0.22 2.1
-1 -2 16 2.11 3.2
1 -2 -15 85.26 9.54
-1 -2 15 92.01 8.54
-1 -2 15 87.93 12.11
-1 -2 14 32.1 7.39
-1 -2 14 38.7 5.48
1 -2 -14 41.56 6.48
1 -2 -14 36.38 4.13
-1 -2 13 162.18 10.82
1 -2 -13 174.88 12.61
1 -2 -13 176.97 8.53
-1 -2 13 176 15.44
1 -2 -12 34.86 3.72
-1 -2 12 49.58 8.13
1 -2 -12 46.48 6.23
-1 -2 12 37.38 5.07
-1 -2 11 19.19 4.87
-1 -2 11 17.18 3.39
1 -2 -11 15.17 3.74
-1 -2 10 147.98 12.54
1 -2 -10 152.18 8.8
-1 -2 10 141.1 9.2
1 -2 -10 146.5 10.21
1 -2 -10 163.97 12.04
1 -2 -9 311.51 15.92
1 -2 -9 305.09 11.61
1 -2 -9 303.03 14.26
-1 -2 9 291.51 13.02
-1 -2 9 298.9 17.28
1 -2 -8 156.58 10.65
-1 -2 8 144.47 6.87
-1 -2 8 133.85 8.42
-1 -2 8 134.29 10.87
1 -2 -8 120.82 8.53
1 -2 -8 137.05 6.79
1 -2 -7 110.58 8.58
-1 -2 7 91.46 5.33
-1 -2 7 84.96 8.21
1 -2 -7 90.95 7.03
-1 -2 7 100.95 7.15
1 -2 -7 98.81 4.94
1 -2 -6 53.9 5.33
1 -2 -6 49.35 5.55
-1 -2 6 59.86 5.52
1 -2 -6 59.39 3.14
-1 -2 6 58.25 3.95
-1 -2 6 57.66 6.41
1 -2 -5 2120.11 41.09
-1 -2 5 1977.58 32.47
-1 -2 5 1975.75 38.46
-1 -2 5 2005.39 42.27
-1 -2 5 2013.06 33.09
1 -2 -4 139.01 8.26
-1 -2 4 140.7 8.66
-1 -2 4 122.09 5.49
-1 -2 4 134.02 5.6
1 -2 -3 855.23 21.57
1 -2 -3 863.85 13.89
-1 -2 3 842.36 16.24
-1 -2 3 823.63 17.37
-1 -2 3 888.68 22.13
1 -2 -2 1074.67 25.68
-1 -2 2 1067.79 21.18
1 -2 -2 1098.77 18.96
1 -2 -2 1096.06 24.29
-1 -2 2 1092.62 19.18
-1 -2 2 1097.2 23.72
1 -2 -1 513.47 15.96
-1 -2 1 528.79 11.9
-1 -2 1 528.91 13.76
1 -2 -1 528.08 13
1 -2 -1 529.93 15.12
1 -2 0 1149.13 23.88
-1 -2 0 1115.05 20.61
-1 -2 0 1150.32 21.14
1 -2 0 1158.77 25.39
1 -2 0 1161.9 23.71
1 -2 1 1898.87 35.89
1 -2 1 1896.38 33.85
-1 -2 -1 1933.49 32.61
1 -2 1 1913.39 35.27
-1 -2 -1 1919.87 32.68
1 -2 2 1646.15 30.63
1 -2 2 1623.71 31.15
1 -2 2 1649.96 34.37
-1 -2 -2 1680.03 30.56
-1 -2 -2 1610.46 30.01
1 -2 3 160.4 7.77
-1 -2 -3 159.81 7.84
1 -2 3 155.81 7.55
-1 -2 -3 152.7 7.86
1 -2 3 154.41 9.44
1 -2 4 2452.97 48.96
1 -2 4 2415.25 41.99
1 -2 4 2406.71 41.87
-1 -2 -4 2435.22 43.15
-1 -2 -4 2416.73 44.01
1 -2 5 62.84 5.19
-1 -2 -5 64.58 5.72
1 -2 5 67.82 7.12
-1 -2 -5 66.19 5.99
1 -2 6 2541.87 45.54
1 -2 6 2508.72 54.15
-1 -2 -6 2524.07 47.15
-1 -2 -7 163.57 9.89
1 -2 7 152.42 11.84
1 -2 8 152.25 12.42
-1 -2 -8 137.24 9.47
1 -2 9 257.5 16.91
-1 -2 -9 256.27 13.59
1 -2 10 199.7 15.54
-1 -2 -10 192.49 12.29
-1 -2 -11 418.64 19.31
1 -2 11 460.24 24.89
1 -2 12 285.84 20.23
-1 -2 -12 273.51 15.87
1 -2 13 88.56 11.81
-1 -2 -13 64.97 8.1
1 -2 14 10.82 5.29
-1 -2 -14 9.51 3.27
-1 -2 -15 23.55 5.54
1 -2 15 28.85 7.2
1 -2 16 5.84 4.13
-1 -2 -16 6.33 3.43
1 -1 -19 12.5 4.25
-1 -1 18 7.34 4.3
1 -1 -18 5.24 2.78
1 -1 -17 2.74 2.74
-1 -1 17 4.97 3.71
1 -1 -16 14.66 3.13
-1 -1 16 5.89 2.98
-1 -1 15 40.79 7.99
1 -1 -15 32.82 4.19
1 -1 -15 44.41 6.56
-1 -1 15 39.15 4.87
-1 -1 14 104.12 7.7
1 -1 -14 118.71 7.68
-1 -1 14 119.78 12.56
1 -1 -14 115.38 9.89
-1 -1 13 132.84 8.32
1 -1 -13 134.86 10.16
-1 -1 13 134.99 12.82
1 -1 -13 143.14 8.01
-1 -1 12 149.74 12.89
1 -1 -12 134.77 7.55
1 -1 -12 136.57 9.82
-1 -1 12 131.31 7.91
1 -1 -11 100.91 8.03
1 -1 -11 93.34 5.92
-1 -1 11 101.43 6.57
-1 -1 11 83.08 9.21
1 -1 -10 127.04 6.51
-1 -1 10 129.64 7.14
-1 -1 10 122.54 10.59
1 -1 -10 121.01 8.38
-1 -1 9 2782.68 57.71
-1 -1 9 2750.74 45.6
1 -1 -9 2613.69 49.4
1 -1 -9 2818.23 43.68
-1 -1 9 2772.53 43.04
1 -1 -8 120.16 7.76
1 -1 -8 137.45 9.1
-1 -1 8 123.45 9.6
-1 -1 8 124.55 6.44
1 -1 -8 115.54 7.49
-1 -1 8 125.87 5.44
1 -1 -8 114.97 5.63
-1 -1 7 158.05 5.66
1 -1 -7 147.42 8.97
1 -1 -7 153.85 8.22
1 -1 -7 162.08 6.15
-1 -1 7 161.24 7.03
1 -1 -7 144.46 7.78
-1 -1 7 159.39 10.28
1 -1 -6 1712.93 33.14
1 -1 -6 1790.61 32.24
-1 -1 6 1792.59 27.03
-1 -1 6 1812.85 31
1 -1 -6 1812.41 28.5
-1 -1 6 1781.13 38.28
1 -1 -6 1911.79 36.71
1 -1 -5 102.4 5.1
-1 -1 5 102.53 3.39
-1 -1 5 104.73 3.95
-1 -1 5 99.2 5.14
1 -1 -5 109.97 6.75
1 -1 -5 109.43 6.03
1 -1 -5 103.35 4.29
-1 -1 5 117.28 7.59
1 -1 -4 75.46 5.23
-1 -1 4 90.1 4.68
1 -1 -4 79.47 3.85
-1 -1 4 82.68 5.85
-1 -1 4 85.18 3.12
-1 -1 4 81.14 2.39
1 -1 -4 74.9 3.45
1 -1 -4 76.17 4.72
1 -1 -3 594.22 14.95
1 -1 -3 582.04 10.93
-1 -1 3 620.23 10.18
-1 -1 3 609.44 13.66
-1 -1 3 619.26 15.77
1 -1 -2 1254.34 22.92
-1 -1 2 1211.12 22.72
-1 -1 2 1251.59 17.54
-1 -1 2 1202.71 17.96
1 -1 -2 1205.12 23.32
-1 -1 2 1249.6 21.93
-1 -1 1 2160.72 29.15
-1 -1 1 2164.23 32.52
1 -1 -1 2117.72 34.24
1 -1 -1 2110.44 33.62
-1 -1 0 3255.24 43.83
1 -1 0 3209.68 46.8
1 -1 0 3205.12 46.33
-1 -1 0 3191.92 43.06
1 -1 1 4363.79 62.75
-1 -1 -1 4353.42 58.34
-1 -1 -1 4246.76 58.38
1 -1 1 4232.75 59.49
1 -1 1 4190.69 59.59
-1 -1 -2 9670.77 127.29
1 -1 2 9744.57 127.28
1 -1 2 9678.58 127.75
1 -1 2 9937.81 132.95
1 -1 3 8526.07 121.67
1 -1 3 8720.99 113.94
-1 -1 -3 8625.01 115.3
1 -1 4 3388.41 58.46
-1 -1 -4 3422.99 52.26
-1 -1 -4 3409.12 44.36
1 -1 4 3380.57 50.13
1 -1 5 234.58 12.04
1 -1 5 234.81 8.4
-1 -1 -5 250.07 9.72
1 -1 5 244.73 7.9
1 -1 5 223.73 7.77
-1 -1 -5 239.61 5.71
-1 -1 -6 124.17 4.41
-1 -1 -6 112.32 6.83
1 -1 6 121.65 9.23
1 -1 6 132.54 5.72
1 -1 6 119.2 5.82
-1 -1 -7 113.57 4.65
1 -1 7 106.99 5.37
-1 -1 -7 110.92 7.19
1 -1 7 101.47 8.86
-1 -1 -8 1069.07 26.67
-1 -1 -8 1120.99 20.26
1 -1 8 1046.46 32.25
1 -1 8 1091.18 21.86
1 -1 9 381.11 11.69
-1 -1 -9 358.68 14.85
1 -1 9 363.1 18.79
-1 -1 -9 378.68 10.64
-1 -1 -10 220.22 12.04
1 -1 10 219.81 9.09
1 -1 10 214.01 15.09
-1 -1 -10 220.97 8.3
-1 -1 -11 49.65 6.02
-1 -1 -11 46.99 3.95
1 -1 11 48.43 4.41
1 -1 11 45.98 7.37
1 -1 12 68.74 5.39
-1 -1 -12 68.07 5.03
1 -1 12 61.58 8.9
-1 -1 -12 61.17 6.99
1 -1 13 95.43 11.53
-1 -1 -13 104.01 6.53
-1 -1 -13 93.55 8.94
-1 -1 -14 50.05 6.98
1 -1 14 38.17 7.92
1 -1 15 45.49 8.67
-1 -1 -15 45.43 6.96
-1 -1 -16 24.77 5.45
1 -1 16 22.69 7.02
-1 -1 -17 13.67 4.56
1 -1 17 10.77 5.04
-1 -1 -18 41.25 7.51
1 0 -19 7.15 3.27
-1 0 19 8.9 5.42
1 0 -18 -0.38 1.59
1 0 -18 1.72 2.44
-1 0 18 0.01 2.28
1 0 -17 -0.02 2.01
-1 0 17 -2.21 2.8
1 0 -17 -3.64 2.2
-1 0 16 36.57 7.39
1 0 -16 35.9 5.68
1 0 -16 25.18 4.22
-1 0 15 80.55 10.07
1 0 -15 73.34 7.61
-1 0 15 73.17 5.97
1 0 -15 76.69 6.9
1 0 -14 266.25 12.82
-1 0 14 291.38 18.28
1 0 -14 267.87 14.04
-1 0 14 290.83 11.62
-1 0 13 2.79 2.37
-1 0 13 2.09 1.33
1 0 -13 0.36 1.65
1 0 -13 2.31 1.93
1 0 -12 467.13 16.04
-1 0 12 514.34 14.56
1 0 -12 443.16 16.85
-1 0 12 492.96 22.05
-1 0 11 69.19 7.73
1 0 -11 57.36 5.11
1 0 -11 59.62 5.62
-1 0 11 66.28 4.72
1 0 -10 152.46 7.99
1 0 -10 134.26 8.02
-1 0 10 162.39 7.18
-1 0 10 158.57 11
-1 0 9 200.24 11.76
-1 0 9 230.19 8.19
1 0 -9 189.76 9.06
1 0 -9 208.2 9.03
1 0 -8 933.55 21.29
-1 0 8 947.23 26.19
-1 0 8 992.59 19.22
1 0 -8 952.54 21.15
-1 0 7 225.31 9.03
-1 0 7 231.92 11.09
-1 0 7 238.3 7.55
-1 0 7 225.61 8.13
1 0 -7 221.99 11.08
1 0 -7 235.18 8.77
1 0 -7 232.85 8.56
-1 0 6 59.84 4.93
-1 0 6 65.48 4.37
-1 0 6 59.56 3.76
1 0 -6 68.03 4.19
1 0 -6 59.98 3.92
1 0 -6 64.21 5.46
-1 0 6 65.19 5.34
1 0 -5 1372.83 27.88
-1 0 5 1433.09 27.04
1 0 -5 1360.56 23.63
-1 0 5 1379.99 24.52
1 0 -5 1397.64 23.85
-1 0 5 1442.36 27.91
-1 0 5 1365.32 23.27
1 0 -4 117.06 4.51
-1 0 4 115.7 4.78
-1 0 4 117.59 5.88
-1 0 4 114.84 5.54
1 0 -4 114.72 5.43
-1 0 4 117.32 4.46
1 0 -4 119.5 6.01
1 0 -4 124.22 4.7
1 0 -3 2055.65 32.49
-1 0 3 2033.82 31.56
1 0 -3 2058.49 31.35
-1 0 3 2051.77 29.42
1 0 -3 2054.91 29.36
-1 0 3 2031.51 29.97
1 0 -3 2057.99 29.64
-1 0 3 2099.54 32.3
-1 0 2 5.02 0.79
-1 0 2 3.75 0.79
1 0 -2 3.15 0.62
1 0 -2 4.27 0.9
-1 0 2 5.77 0.94
1 0 -2 2.77 0.68
-1 0 2 3.94 0.66
-1 0 -1 1250.47 17.24
-1 0 -1 1292.55 18.85
1 0 1 1240.54 17.32
1 0 1 1295.7 18.93
-1 0 -2 61.09 2.9
1 0 2 61 2.93
1 0 2 63.7 1.96
-1 0 -2 63.04 2.08
-1 0 -3 1404.42 22.8
1 0 3 1380.23 19.24
1 0 3 1426.43 22.86
1 0 3 1389.03 26.63
1 0 4 468.37 7.96
-1 0 -4 475.57 11.47
1 0 4 472.33 11.37
1 0 4 458.97 14.35
-1 0 -5 149.34 6.52
1 0 5 159.35 4.35
1 0 5 164.49 6.67
1 0 5 163.34 8.92
-1 0 -5 155.39 8.81
1 0 5 168.72 4.02
-1 0 -6 314 13.56
1 0 6 307.08 6.19
1 0 6 308.51 13.4
1 0 6 324.77 7.21
-1 0 -6 307.72 9.75
-1 0 -6 304.29 10.26
1 0 7 1091.46 16.3
1 0 7 1136.96 18.26
-1 0 -7 1058.87 23.35
-1 0 -7 998.82 22.32
1 0 7 1119.89 29.27
-1 0 -8 342.16 11.72
-1 0 -8 355.71 12.73
1 0 8 354.22 6.96
1 0 8 342.65 15.99
1 0 8 370.98 8.99
-1 0 -9 258.95 10.6
1 0 9 255.32 14.45
1 0 9 257.2 5.57
1 0 9 286.95 8.07
-1 0 -9 276.77 11.72
-1 0 -10 380.06 14.83
1 0 10 373.38 7.01
1 0 10 416.71 10.68
1 0 10 377.72 18.61
-1 0 -10 385.31 13.58
-1 0 -11 125.94 7.7
1 0 11 140.93 11.79
-1 0 -11 132.38 8.92
1 0 11 135.3 5.99
-1 0 -12 693.95 23.01
-1 0 -12 761.26 21.41
1 0 12 749.11 29.6
1 0 12 770.57 17.26
-1 0 -13 60.39 5.85
1 0 13 60.57 8.65
-1 0 -13 59.51 6.69
1 0 14 285.9 19.53
-1 0 -14 315.54 13.84
-1 0 -14 296.67 15.68
1 0 15 3.51 3.42
-1 0 -15 3.14 2.14
-1 0 -15 6.15 2.93
1 0 16 1.09 2.67
-1 0 -16 -1.35 2.16
-1 0 -16 1.92 1.86
-1 0 -17 9.67 3.7
1 0 17 16.51 5.48
-1 0 -18 -3.33 2.76
1 0 18 14.54 5.76
-1 0 -19 7.71 3.75
1 1 -19 11.27 4.07
1 1 -18 5.36 3.09
-1 1 17 0.3 2.11
1 1 -17 -1.51 2.31
1 1 -16 20.17 4.09
1 1 -16 13.13 3.45
-1 1 16 14.97 4.64
1 1 -15 43.29 5.46
-1 1 15 46.1 7.18
1 1 -15 44.41 6.07
-1 1 15 35.93 4.34
1 1 -14 98.35 8.48
-1 1 14 114.21 10.46
1 1 -14 117.81 8.53
1 1 -13 138.76 9.77
1 1 -13 136.49 8.64
-1 1 13 140.77 11.09
1 1 -12 138.3 9.42
-1 1 12 138.18 10.49
1 1 -12 137.16 8.19
1 1 -11 99.41 6.42
-1 1 11 91.31 7.92
1 1 -11 86.19 7.14
-1 1 10 115.29 8.4
1 1 -10 126.14 8.26
1 1 -10 128.66 6.88
1 1 -9 2650.79 48.98
1 1 -9 2760.17 43.8
-1 1 9 2742.47 49.79
-1 1 8 131.11 7.65
1 1 -8 128.68 7.76
1 1 -8 127.93 5.79
1 1 -7 157.34 5.89
1 1 -7 162.35 6.41
-1 1 7 149.04 7.49
1 1 -7 161.71 8.34
-1 1 7 159.49 6.7
-1 1 6 1795.07 29.49
1 1 -6 1841.32 29.35
1 1 -6 1746.66 27.54
1 1 -6 1822.89 33.65
-1 1 6 1821.31 31.34
1 1 -5 106.94 3.57
-1 1 5 95.93 6.32
1 1 -5 99.51 7.13
-1 1 5 98 5.65
1 1 -5 105.18 3.02
-1 1 5 100.94 4.37
1 1 -5 94.02 5.65
-1 1 5 100.84 4.76
1 1 -5 107.85 4.76
-1 1 4 87.42 3.65
1 1 -4 82.94 2.48
-1 1 4 83.72 5.41
1 1 -4 79.5 3.96
1 1 -4 78.54 5.88
-1 1 4 78.07 3.49
1 1 -4 85.1 2.88
-1 1 4 82.52 4.9
-1 1 3 611.96 11.4
-1 1 3 618.72 15.68
-1 1 3 608.57 15.04
1 1 -3 590.52 10.89
1 1 -3 620.78 9.71
-1 1 3 617.8 14.06
1 1 -3 610.37 16.03
1 1 -3 606.16 12.95
1 1 -2 1196.74 23.09
1 1 -2 1240.32 21.55
1 1 -2 1241.06 17.57
-1 1 2 1228.88 23.36
-1 1 2 1238.61 22.82
1 1 -1 2134.47 30.2
-1 1 1 2167.24 33.41
1 1 -1 2128.04 32.83
1 1 -1 2123.03 32.98
1 1 -1 2127.21 28.86
-1 1 1 2184.63 34.12
1 1 0 3209.86 43.07
-1 1 0 3211.87 46.16
1 1 0 3231.84 43.59
1 1 0 3217.99 44.19
-1 1 0 3240.23 46.62
1 1 1 4216.29 58.3
-1 1 -1 4238.32 59.09
1 1 1 4260.29 57.99
-1 1 -1 4404.41 59.47
1 1 2 9999 128.7
1 1 2 9963.04 129.9
-1 1 -2 9788.19 134.79
-1 1 -2 9850.22 128.15
1 1 3 8598.8 108.88
-1 1 -3 8430.07 113.15
1 1 3 8796.39 115.68
1 1 3 8797.96 117.86
-1 1 -3 8437.88 113.08
-1 1 -3 8657.53 122.89
-1 1 -3 8720.15 113.97
1 1 4 3345.1 45.17
-1 1 -4 3455.34 58.82
-1 1 -4 3448.48 47.38
1 1 4 3400.28 51.3
-1 1 -4 3354.18 48.38
1 1 4 3431.62 54.09
1 1 4 3360.05 50.7
1 1 5 235.49 9.2
-1 1 -5 238.49 7.8
-1 1 -5 232.95 6.55
1 1 6 124.55 7.25
-1 1 -6 118.92 5.75
-1 1 -6 125.31 4.67
1 1 7 114.57 7.55
-1 1 -7 111.35 5.89
-1 1 -7 110.59 4.6
1 1 8 1106.97 27.95
-1 1 -8 1032.99 22.81
-1 1 -9 371.43 12.89
1 1 9 399.11 16.66
1 1 10 230.91 13.26
-1 1 -10 232.02 10.5
-1 1 -10 223.17 11.7
1 1 11 56.31 7.01
-1 1 -11 46.6 4.88
-1 1 -11 46.7 5.58
1 1 12 56.83 4.11
-1 1 -12 69.55 6.35
1 1 12 83.12 8.89
-1 1 -12 80.01 7.45
1 1 13 92.29 9.88
-1 1 -13 89.09 8.11
-1 1 -13 98.88 8.04
1 1 14 49.19 7.62
-1 1 -14 45.12 6.01
-1 1 -14 43.24 5.58
-1 1 -15 41.77 5.78
-1 1 -15 39.12 5.82
1 1 15 33.83 6.86
1 1 16 16.81 5.01
-1 1 -16 22.68 4.42
-1 1 -16 18.05 4.4
-1 1 -17 10.62 3.63
-1 1 -17 1.95 2.11
-1 1 -18 30.25 5.44
1 2 -17 10.42 3.86
1 2 -16 0.81 2.2
1 2 -15 85.85 9.01
1 2 -14 41.76 6.18
1 2 -13 116.12 7.24
-1 2 13 142.37 9.44
-1 2 12 35.72 4.4
1 2 -12 43.63 4.14
1 2 -12 38.14 5.66
1 2 -11 18.2 2.51
1 2 -11 15.71 3.63
-1 2 11 16.55 2.92
1 2 -10 163.03 6.97
1 2 -10 157.54 10.54
-1 2 10 153.67 7.97
1 2 -9 318 6.66
-1 2 9 310.49 10.59
1 2 -9 310.05 9.14
1 2 -9 312.15 14.45
1 2 -8 137.13 5.21
1 2 -8 133.55 8.94
-1 2 8 135.73 5.98
1 2 -8 132.71 4.27
1 2 -7 99.24 3.97
-1 2 7 99.43 5.21
-1 2 7 97.99 8.45
1 2 -7 95.19 3.84
1 2 -6 57.75 2.58
1 2 -6 63.3 3.45
-1 2 6 56.54 3.66
-1 2 6 50.14 5.86
1 2 -5 2029.21 28.38
-1 2 5 2060.49 42.6
-1 2 5 2118.61 32.53
1 2 -5 2029.51 31.06
-1 2 4 138.28 8.75
1 2 -4 137.99 5.1
1 2 -3 850.21 16.25
1 2 -3 856.5 22.56
-1 2 3 849.91 22.55
-1 2 3 884.54 21.59
1 2 -3 838.38 14.37
-1 2 2 1086.57 23.8
1 2 -2 1073.7 24.23
-1 2 2 1094.37 25.2
1 2 -2 1070.33 20.18
-1 2 2 1084.41 22.75
1 2 -2 1057.28 18.1
1 2 -2 1045.79 18.44
1 2 -1 515.31 14.28
1 2 -1 538.81 13.61
-1 2 1 542.45 15.87
1 2 -1 535.29 11.52
1 2 -1 528.82 11.77
-1 2 1 544.34 14.87
1 2 0 1184.99 21.38
1 2 0 1139.7 23.56
1 2 0 1161.78 21.89
-1 2 0 1120.58 23.35
1 2 0 1179.64 21.05
-1 2 0 1126.95 24.44
1 2 1 1959.55 32.7
-1 2 -1 1954.25 34.56
1 2 1 1920.8 35.72
-1 2 -1 1888.1 33.62
1 2 1 1944.12 29.89
1 2 1 1990.62 32.78
1 2 2 1616.27 29.81
-1 2 -2 1653.36 29.95
-1 2 -2 1650.66 29.98
-1 2 -2 1687.1 34.92
1 2 2 1605.01 23.71
1 2 2 1604.16 29.89
-1 2 -3 142.32 7.51
1 2 3 156.25 7.89
-1 2 -3 152.55 6.94
1 2 4 2443.95 33.81
1 2 4 2444.73 33.75
-1 2 -4 2448.23 39.91
-1 2 -5 61.3 4.02
1 2 5 61.34 2.82
-1 2 -5 68.38 4.64
1 2 5 55.64 3.17
1 2 6 2552.03 36.51
-1 2 -6 2567.12 40.42
1 2 6 2479.83 39.3
-1 2 -7 155.17 6.97
1 2 7 162.53 5.81
1 2 7 176.72 7.67
-1 2 -8 145.07 7
1 2 8 147.45 7.69
1 2 8 143.59 5.93
-1 2 -9 271.24 10.3
1 2 9 259.77 11.44
1 2 10 222.91 11.25
-1 2 -10 192.01 9.11
-1 2 -11 471.04 15.56
1 2 11 464.94 17.81
-1 2 -12 255.03 11.71
-1 2 -12 259.52 14.92
1 2 12 226.97 12.85
-1 2 -13 70.01 8.06
-1 2 -13 63.75 6.05
-1 2 -14 9.7 2.75
-1 2 -14 3.29 2.6
-1 2 -15 27.72 5.54
-1 2 -16 1.41 2.41
-1 2 -17 11.58 4.5
-1 3 16 15.28 5.27
1 3 -16 18.59 5.63
1 3 -15 14.15 4.48
-1 3 15 13.16 5.12
-1 3 14 15.04 5.28
1 3 -14 13.02 4.49
-1 3 13 6.28 3.46
1 3 -13 5.01 2.92
1 3 -12 7.87 3.47
-1 3 12 9.06 4.47
-1 3 11 219.06 16.51
1 3 -11 249.38 15.23
-1 3 10 22.2 5.33
1 3 -10 25.46 2.18
1 3 -10 30.8 5.45
1 3 -9 324.1 9.12
1 3 -9 298.18 8.03
-1 3 9 323.73 18.81
1 3 -8 394.46 8.95
-1 3 8 388.08 19.85
1 3 -8 393.36 11.4
1 3 -7 17.24 1.58
1 3 -7 15.47 2.33
-1 3 7 12.04 3.52
1 3 -6 91.23 5.05
-1 3 6 79.68 8.18
1 3 -6 80.64 3.54
-1 3 5 212.77 13
1 3 -5 225 6.87
1 3 -5 226.69 8.49
1 3 -4 332.34 9.18
-1 3 4 349.51 16.11
1 3 -4 349.23 11.03
1 3 -3 426.67 11.27
-1 3 3 428.07 17.45
1 3 -3 446.39 13.28
-1 3 2 611.76 20.6
1 3 -2 613.56 17.06
1 3 -2 639.96 15.16
1 3 -2 627.08 15.09
1 3 -2 648.15 20.14
1 3 -1 902.41 22.46
1 3 -1 908.29 19.61
-1 3 1 915.7 25.01
1 3 -1 893.65 23.1
1 3 -1 926.49 20.01
-1 3 0 126.98 8.26
1 3 0 119.59 6.79
1 3 0 125.96 6.68
1 3 0 125.37 7.91
1 3 1 128.23 8.47
1 3 1 125.89 6.04
-1 3 -1 127.4 7.95
1 3 1 122.45 6.96
-1 3 -2 49.16 4.86
1 3 2 52.81 5.68
1 3 2 56.06 3.01
1 3 3 481.94 18.65
-1 3 -3 475.16 15.39
1 3 4 274.14 14.26
-1 3 -4 260.95 10.8
1 3 5 671.31 13.79
1 3 5 751.47 25.47
-1 3 -5 690.05 18.64
-1 3 -6 153.29 7.23
1 3 6 156.18 5.64
-1 3 -6 160.66 8.29
1 3 7 306.07 8.65
-1 3 -7 364.58 11.42
-1 3 -7 337.48 12.42
-1 3 -8 306.93 10.75
-1 3 -9 304.14 11.11
-1 3 -10 33.94 3.68
-1 3 -11 17.68 2.89
-1 3 -13 49.29 7.6
-1 3 -14 66.89 9.09
-1 3 -15 32.78 6.51
-1 4 13 8.51 4.43
1 4 -13 1.67 3.12
-1 4 12 7.64 4.2
1 4 -12 13.17 4.6
-1 4 11 3.26 3.14
1 4 -11 11.01 4.01
-1 4 10 87.69 11.3
-1 4 9 91.19 10.95
1 4 -9 77.23 5.49
1 4 -8 1.93 1.48
-1 4 8 4.23 3.18
-1 4 7 206.22 15.21
1 4 -7 193.76 8.78
-1 4 6 62.82 8.28
1 4 -6 69.83 5.28
-1 4 5 81.03 8.94
1 4 -5 73.16 5.59
-1 4 4 76.43 8.36
1 4 -4 70.37 5.75
-1 4 3 75.84 8.2
1 4 -3 84.91 6.57
-1 4 2 84.7 8.33
1 4 -2 91.46 7.1
-1 4 1 69.11 7.23
1 4 -1 57.76 6
1 4 0 254.4 13.12
-1 4 0 266.38 13.85
-1 4 -1 3.22 1.74
1 4 1 5.81 2.36
1 4 2 27.71 4.72
-1 4 -2 24.89 4.14
-1 4 -3 168.07 10.07
1 4 3 177.48 12.37
-1 4 -4 152.02 9.35
1 4 4 165.42 12.37
-1 4 -5 143.68 8.95
1 4 5 162.98 12.74
-1 4 -6 251.85 10.25
1 4 6 258.96 16.88
-1 4 -6 281.73 12.5
-1 4 -7 30.7 3.47
1 4 7 48.83 7.8
-1 4 -7 55.17 5.41
1 4 8 20.19 5.36
-1 4 -8 21.44 3.58
1 4 9 10.41 4.43
1 4 10 39.88 7.62
1 4 11 0.41 1.94
1 4 12 -6.4 3.93
1 4 13 0.71 2.82
-1 5 10 0.24 2.44
1 5 -10 6.04 3.64
-1 5 9 7.6 4.27
-1 5 8 7.1 4.13
-1 5 7 23.18 5.84
-1 5 6 25.37 6.12
-1 5 5 42.58 7.41
-1 5 4 122.44 11.75
1 5 -4 109.47 8.22
-1 5 3 152.27 12.67
1 5 -3 154.28 10.13
1 5 -2 14.97 3.46
-1 5 2 16.42 4.39
-1 5 1 39.05 6.14
1 5 -1 46.41 5.99
1 5 0 8.55 2.99
-1 5 0 4.36 2.77
1 5 1 49.41 6.67
-1 5 -1 40.36 6.01
1 5 2 170.76 12.82
-1 5 -2 134.08 10.38
1 5 3 3.73 2.64
-1 5 -3 5.08 2.33
-1 5 -4 25.33 4.38
1 5 4 26.86 5.7
1 5 5 -4.03 2.86
-1 5 -5 0.31 1.47
-1 5 -6 1.31 1.61
1 5 6 1.86 2.74
1 5 7 3.56 3.08
1 5 8 -4.46 3.53
1 5 9 26.37 6.9
1 5 10 5.66 3.58
-1 6 6 3.46 3.3
-1 6 5 16.02 5.23
-1 6 4 54.63 8.46
-1 6 3 16.56 4.95
-1 6 2 34.43 6.59
-1 6 1 18.79 4.99
-1 6 0 5.87 3
-1 6 -1 9.99 3.6
1 6 2 4.24 3.05
1 6 3 9.8 3.84
1 6 4 6.95 3.45
1 6 5 3.2 2.85
1 6 6 5.32 3.63
2 -5 -12 7.13 4.61
-2 -5 12 8.85 4.52
-2 -5 11 -1.71 3
2 -5 -11 7.62 4.17
2 -5 -10 5.22 3.44
-2 -5 10 8.29 4.26
2 -5 -9 -2.95 3.02
-2 -5 9 2.37 3.57
2 -5 -8 26.24 6.16
-2 -5 8 34.23 6.94
-2 -5 7 3.08 2.75
2 -5 -7 1.75 2.43
-2 -5 6 43.42 6.83
2 -5 -6 52.13 7.94
2 -5 -5 7.91 3.57
-2 -5 5 8.55 3.29
2 -5 -4 5.16 3.21
2 -5 -3 10.92 3.92
2 -5 -2 98.84 10.09
2 -5 -1 24.31 5.15
2 -5 0 6.65 2.78
2 -5 1 9.13 3.27
2 -5 2 32.43 5.69
2 -5 3 30.33 5.62
2 -5 3 23.08 5.23
2 -5 4 16.45 4.48
2 -5 4 13.56 4.4
2 -5 5 12.11 3.94
2 -5 5 13.22 3.97
2 -5 6 4.1 3.19
2 -5 7 -1.26 3.11
2 -5 8 5.52 4.17
2 -5 9 5.52 4.07
2 -5 10 16.31 6.62
-2 -4 14 -0.02 4.93
2 -4 -13 5.41 3.35
-2 -4 13 1.27 3.54
-2 -4 12 3.2 3.31
2 -4 -12 7.31 3.81
-2 -4 11 18.95 5.67
2 -4 -11 19.48 5.32
2 -4 -10 101.78 11.17
-2 -4 10 91.6 11.09
-2 -4 9 190.75 15.37
2 -4 -9 194.26 14.95
-2 -4 8 244.86 16.66
2 -4 -8 234.09 15.96
-2 -4 7 381.48 20.09
2 -4 -7 391.36 20.13
2 -4 -6 96.47 9.69
-2 -4 6 96.68 9.6
2 -4 -5 64.88 7.89
-2 -4 5 75.2 8.04
2 -4 -4 89.34 8.81
-2 -4 4 86.45 7.98
-2 -4 3 152.33 9.92
-2 -4 3 150.41 7.4
2 -4 -3 154.55 11.36
-2 -4 2 57.54 5.66
2 -4 -2 56.17 5.04
2 -4 -2 75.19 7.73
-2 -4 2 58.53 4.7
-2 -4 1 137.62 7.89
2 -4 -1 123.44 8.36
2 -4 -1 154.74 11.03
-2 -4 1 132.61 7.4
-2 -4 0 112.42 7.25
2 -4 0 130.15 9.18
2 -4 0 118.08 9.51
2 -4 1 125.74 9.75
2 -4 1 121.91 9.51
-2 -4 -1 104.24 7.27
2 -4 2 110.86 9.62
2 -4 2 105 8.92
-2 -4 -2 98.31 7.49
-2 -4 -3 258.11 13.06
2 -4 3 254.18 15.45
2 -4 3 249.99 13.83
2 -4 4 204.57 14.52
2 -4 4 215.24 13
-2 -4 -4 223.49 12.54
-2 -4 -5 360.7 17.08
2 -4 5 334.34 19.69
2 -4 5 369 17.41
-2 -4 -6 98.55 9.17
2 -4 6 104.72 11.45
2 -4 6 99.56 9.15
-2 -4 -7 496.97 21.76
2 -4 7 479.56 25.68
2 -4 7 505.5 21.45
-2 -4 -8 43.61 6.8
2 -4 8 50.85 8.84
2 -4 8 56.13 7.27
-2 -4 -9 17.48 4.64
2 -4 9 22.38 5.08
2 -4 9 12.74 5.12
2 -4 10 7.57 4.87
-2 -4 -10 9.58 3.72
2 -4 10 14.26 4.4
-2 -4 -11 3.07 2.94
2 -4 11 5.46 3.38
2 -4 11 7.97 5.68
2 -4 12 5.98 3.59
2 -4 12 11.72 4.18
-2 -4 -12 14.89 4.78
2 -4 13 10.78 4.46
-2 -3 16 15.55 6.13
-2 -3 15 4.83 4.39
-2 -3 15 -0.39 2.13
-2 -3 14 2.96 3.15
-2 -3 14 4.35 3.01
-2 -3 13 74.89 10.65
-2 -3 13 51.12 7.18
2 -3 -13 77.26 9.9
-2 -3 12 84.2 9.06
2 -3 -12 97.07 10.68
-2 -3 12 98.15 11.62
-2 -3 11 133.85 10.95
-2 -3 11 129.04 12.78
2 -3 -11 130.38 12.03
-2 -3 10 201.93 15.41
-2 -3 10 234.73 11.09
2 -3 -10 194.44 14.27
-2 -3 9 99.66 10.56
2 -3 -9 95.15 9.7
-2 -3 9 108 6.97
-2 -3 8 289.94 17.02
-2 -3 8 299.2 11.21
2 -3 -8 298.05 16.43
-2 -3 7 191.5 8.05
-2 -3 7 200.84 8.4
-2 -3 7 198.77 13.31
2 -3 -7 189.83 12.74
-2 -3 6 55.89 4.02
-2 -3 6 60.43 4.45
2 -3 -6 71.86 7.64
-2 -3 6 66.82 7.43
2 -3 -5 51.14 2.37
-2 -3 5 52.51 6.16
-2 -3 5 51.18 4.14
2 -3 -5 57.75 6.64
2 -3 -5 51.28 2.58
-2 -3 5 56.59 3.77
2 -3 -4 87.75 4.45
-2 -3 4 93.01 4.7
-2 -3 4 91.17 7.56
2 -3 -4 100.74 8.43
-2 -3 3 1148.34 27.8
2 -3 -3 1153.3 30.03
2 -3 -3 1102.25 22.45
-2 -3 3 1092.62 20.5
-2 -3 2 209.17 9.92
2 -3 -2 209.65 9.16
2 -3 -2 215.08 11.64
-2 -3 2 204.64 7.33
2 -3 -1 181.3 10.49
-2 -3 1 177.53 7.08
2 -3 -1 179.11 9.21
-2 -3 1 170.47 8.1
2 -3 0 9.19 2.53
-2 -3 0 11.08 2.02
2 -3 0 9.96 2.78
2 -3 1 1097.67 27.65
-2 -3 -1 1049.78 24.27
-2 -3 -1 1075.09 23.65
2 -3 1 1027.27 27.89
2 -3 2 426.71 17.66
2 -3 2 384.55 15.4
-2 -3 -2 425.66 14.73
-2 -3 -2 431.45 14.26
2 -3 3 1269.3 34.76
-2 -3 -3 1330.61 29.64
-2 -3 -3 1238.54 29.34
2 -3 3 1307.05 31.3
2 -3 4 971.84 26.35
2 -3 4 950.86 30.4
-2 -3 -4 891.29 24.9
2 -3 5 966.16 26.88
2 -3 5 955.9 32.3
-2 -3 -5 925.5 26.49
-2 -3 -6 450.27 18.05
2 -3 6 430.68 17.45
2 -3 6 436.71 21.81
-2 -3 -7 100.39 8.71
2 -3 7 88.49 8.04
2 -3 7 94.61 10.58
-2 -3 -8 48.97 6.51
2 -3 8 45.01 7.66
2 -3 8 50.82 6.39
2 -3 9 33.37 5.35
2 -3 9 30.78 6.99
-2 -3 -9 44.04 6.42
2 -3 10 3.9 3.29
-2 -3 -10 11.2 3.97
2 -3 10 18.08 4.41
-2 -3 -11 38.6 6.57
2 -3 11 30.38 7.42
2 -3 11 47.76 6.9
-2 -3 -12 28.16 5.98
2 -3 12 29.76 7.37
2 -3 12 30.29 5.77
2 -3 13 0.83 3.31
-2 -3 -13 14.5 4.67
2 -3 13 12.41 4.34
2 -3 14 27.77 6.04
-2 -3 -14 22.34 5.55
2 -3 14 16.56 5.74
2 -3 15 12.56 4.7
-2 -2 17 24.36 7.07
-2 -2 16 9.45 4.32
-2 -2 16 12.07 3.34
-2 -2 15 101.75 9.24
-2 -2 15 104.56 12.73
2 -2 -15 107.43 7.56
2 -2 -14 37.47 4.43
-2 -2 14 42.3 5.87
-2 -2 14 50.44 8.72
2 -2 -13 9.55 2.38
-2 -2 13 18.39 5.26
-2 -2 13 8.96 2.98
2 -2 -12 72.25 5.56
-2 -2 12 67.78 6.94
-2 -2 12 56.72 8.37
2 -2 -12 73.24 8.83
-2 -2 11 309.82 14.5
2 -2 -11 285.55 16.64
-2 -2 11 294.06 18.11
-2 -2 10 130.75 8.92
2 -2 -10 114.58 7.68
2 -2 -10 117.94 10.14
-2 -2 10 111.76 10.66
-2 -2 10 124.37 6.32
-2 -2 9 148.75 11.72
-2 -2 9 145.48 9.32
2 -2 -9 147.49 8
2 -2 -9 159.48 11.36
-2 -2 9 146.51 6.55
-2 -2 8 156.24 6.23
2 -2 -8 145.43 10.43
2 -2 -8 145.61 7.28
-2 -2 8 146.6 9.05
-2 -2 8 145.15 11.03
2 -2 -7 135.21 6.32
-2 -2 7 149.18 10.57
2 -2 -7 143.36 9.86
-2 -2 7 140.23 8.62
-2 -2 7 136.48 5.45
-2 -2 6 1327.41 30.09
-2 -2 6 1352.26 22.23
-2 -2 6 1354.4 33.72
2 -2 -6 1324.02 23.73
2 -2 -6 1408.95 33.26
2 -2 -5 1137.5 27.99
-2 -2 5 1077.9 18.22
-2 -2 5 1056.78 27.74
-2 -2 5 1068.04 18.75
-2 -2 5 1063.48 25.52
2 -2 -5 1032.41 18.96
-2 -2 4 325.33 12.67
-2 -2 4 320.52 7.46
-2 -2 4 322.1 8.13
-2 -2 4 332.6 13.23
2 -2 -4 317.01 13.21
-2 -2 3 153.58 4.3
2 -2 -3 147.07 8.5
-2 -2 3 152.24 8.18
-2 -2 2 805.69 19.12
2 -2 -2 801.44 20.94
-2 -2 2 781.73 12.9
-2 -2 1 1545.57 25.01
-2 -2 1 1520.04 27.3
-2 -2 1 1426.88 22.83
2 -2 -1 1484.29 30.65
-2 -2 0 378.11 10.56
2 -2 0 373.07 13
2 -2 0 389.94 13.64
-2 -2 0 358.46 9.46
-2 -2 -1 94.59 5.39
2 -2 1 110.07 6.75
2 -2 1 93.5 7
2 -2 2 159.13 9.76
-2 -2 -2 168.54 7.81
2 -2 2 181.42 8.81
2 -2 3 125.62 9.3
2 -2 3 142.1 7.93
-2 -2 -3 118.49 7.1
-2 -2 -4 989.13 23.91
2 -2 4 999.57 24.41
2 -2 4 991.26 29.34
2 -2 5 843.53 27.93
2 -2 5 835.32 22.49
-2 -2 -5 835.71 22.57
-2 -2 -6 44.47 5.07
2 -2 6 37.13 5.99
2 -2 6 44.91 5.15
-2 -2 -7 56.82 5.97
2 -2 7 52.08 7.32
2 -2 8 16.37 4.65
-2 -2 -8 12.82 3.29
-2 -2 -9 107.2 8.97
2 -2 9 98.47 11
2 -2 10 64.82 9.26
-2 -2 -10 59.93 7.05
2 -2 11 117.41 13.04
-2 -2 -11 115.41 10.22
-2 -2 -12 141.58 11.72
2 -2 12 128.01 14.24
-2 -2 -13 83.51 9.5
2 -2 13 100.75 13.02
2 -2 14 2.24 3.43
-2 -2 -14 2.81 2.5
2 -2 15 10.25 5.31
-2 -2 -15 8.6 4.09
-2 -1 19 7.68 4.61
-2 -1 18 96.27 12.84
2 -1 -18 84.24 9.53
-2 -1 17 31.58 7.33
2 -1 -17 25.3 5.36
2 -1 -17 34.02 4.77
2 -1 -16 13.25 3.85
2 -1 -16 15.97 3.43
-2 -1 16 15.28 3.41
-2 -1 16 20.53 5.84
2 -1 -15 102.67 9.48
2 -1 -15 110.29 7.76
-2 -1 15 108.66 8.24
-2 -1 15 108.09 11.97
2 -1 -14 58.07 6.92
-2 -1 14 60.08 8.93
-2 -1 14 73.84 6.5
2 -1 -14 71.19 6.02
-2 -1 13 24.05 5.58
-2 -1 13 31.83 4.21
2 -1 -13 31.89 3.92
2 -1 -13 27.41 4.71
-2 -1 12 3.69 1.75
2 -1 -12 3.46 1.71
2 -1 -12 4.48 2.2
-2 -1 12 3.41 2.43
2 -1 -11 505.54 18.41
2 -1 -11 499.7 15.09
-2 -1 11 531.44 16.33
-2 -1 11 534.13 22.92
-2 -1 10 21.33 4.37
-2 -1 10 14.48 2.04
2 -1 -10 17.63 3.39
-2 -1 10 18.67 2.85
2 -1 -10 28.1 4.78
2 -1 -10 20.38 2.88
-2 -1 9 163.1 4.9
-2 -1 9 170.15 6.42
-2 -1 9 141.52 10.65
2 -1 -9 179.69 7.73
-2 -1 9 168.08 8.07
2 -1 -9 164.81 9.24
2 -1 -9 165.8 10.63
-2 -1 8 1481.39 22.9
-2 -1 8 1511.93 36.64
2 -1 -8 1547.03 35.17
2 -1 -8 1444.96 31.12
-2 -1 8 1547 24.5
-2 -1 8 1490.95 28.72
2 -1 -8 1492.38 32.07
2 -1 -8 1460.97 27.02
2 -1 -7 573.52 16.59
-2 -1 7 591.44 16.47
-2 -1 7 574.37 19.76
-2 -1 7 597.95 11.41
-2 -1 7 576.72 11.35
2 -1 -7 590.61 14.02
-2 -1 7 582.91 15.17
2 -1 -7 581.11 18.76
-2 -1 6 471.69 8.83
2 -1 -6 465.94 13.52
2 -1 -6 485.32 15.96
2 -1 -6 459.87 11.66
-2 -1 6 476.11 12.9
-2 -1 6 461.51 13.18
-2 -1 6 454.44 9.85
-2 -1 6 488.95 16.92
-2 -1 5 463.81 15.46
-2 -1 5 461.38 12.36
2 -1 -5 481.53 15.1
2 -1 -5 455.32 11.08
-2 -1 5 459.06 11.69
2 -1 -5 435.74 12.01
-2 -1 5 459.64 9.9
-2 -1 5 466.65 7.65
-2 -1 4 957.92 16.85
-2 -1 4 973.49 22.5
2 -1 -4 995.9 22.25
2 -1 -4 960.56 18.42
-2 -1 4 990.25 19.48
2 -1 -4 987.95 22.17
-2 -1 4 918.36 16.79
-2 -1 3 578.48 12.03
-2 -1 3 602.23 15.39
-2 -1 3 599.87 13.87
-2 -1 3 581 9.81
2 -1 -3 566.07 15.27
2 -1 -3 587.11 15.56
2 -1 -2 693.14 16.47
-2 -1 2 681.43 10.7
2 -1 -2 687.99 16.44
-2 -1 2 664.08 14.86
-2 -1 2 712.55 15.7
-2 -1 1 1333.68 23.36
-2 -1 1 1322.05 19.96
2 -1 -1 1302.37 24.51
2 -1 -1 1299.48 24.65
-2 -1 0 583.57 11.58
2 -1 0 564.45 13.98
2 -1 0 564.25 13.89
2 -1 1 1408.61 25.82
2 -1 1 1423.4 26.25
-2 -1 -1 1441.54 23.98
2 -1 2 2283.19 37.45
-2 -1 -2 2203.05 35.45
2 -1 2 2223.46 36.57
2 -1 3 4765.9 77.32
-2 -1 -3 4783 69.24
2 -1 3 4864.55 69.36
-2 -1 -4 337.18 11.26
2 -1 4 318.44 14.38
-2 -1 -4 329.34 5.77
-2 -1 -5 135.2 7.39
-2 -1 -5 144.3 4.03
2 -1 5 150.98 10.35
2 -1 6 2072.12 47.3
-2 -1 -6 2069.98 39.43
-2 -1 -6 2153.45 30.8
-2 -1 -7 25.34 2.16
-2 -1 -7 24.35 3.73
2 -1 7 28.32 5.14
2 -1 8 321 17.65
-2 -1 -8 329.42 13.9
-2 -1 -8 326.96 9
2 -1 9 43.81 6.81
-2 -1 -9 38.17 4.94
-2 -1 -9 38.39 3.17
-2 -1 -10 313.05 14.94
2 -1 10 326.9 19.4
2 -1 10 313.02 10.28
-2 -1 -10 325.79 10.16
2 -1 11 89.38 5.43
-2 -1 -11 97.68 8.67
-2 -1 -11 87.9 5.37
2 -1 11 85.79 10.48
-2 -1 -12 298.96 15.97
2 -1 12 317.94 20.82
-2 -1 -12 292.16 10.56
2 -1 13 67.87 10.22
-2 -1 -13 64.84 7.72
-2 -1 -14 112.66 10.68
2 -1 14 132.29 14.47
-2 -1 -15 6.3 3.18
2 -1 15 6.58 4.4
-2 -1 -16 25.95 5.74
2 -1 16 22.19 7.09
-2 -1 -17 3.46 2.98
2 -1 17 6.31 4.39
-2 0 20 5.88 4.91
2 0 -19 3.86 2.58
-2 0 19 2.02 2.7
-2 0 18 3.47 3.39
2 0 -18 10.89 3.69
2 0 -18 5.56 2.66
2 0 -17 32.85 5.44
2 0 -17 20.12 3.97
-2 0 17 35.2 7.01
-2 0 17 26.31 4.06
2 0 -16 79.65 8.03
-2 0 16 79.38 10.02
2 0 -16 88.81 7.72
-2 0 16 91.48 7.16
-2 0 15 52.11 7.98
2 0 -15 58.38 6.74
2 0 -15 56.86 6.07
-2 0 15 66.24 5.88
2 0 -14 3.35 2.17
-2 0 14 5.21 2.01
2 0 -14 6.38 2.52
-2 0 14 5.64 3.1
2 0 -13 1.87 1.64
-2 0 13 3.03 2.86
2 0 -13 5.08 2.07
-2 0 13 1.74 1.63
-2 0 12 745.99 19.19
-2 0 12 716.16 26.3
2 0 -12 713.43 21.4
2 0 -12 724.58 20.64
2 0 -11 10.57 2.52
-2 0 11 12.85 2.47
2 0 -11 15.41 2.92
-2 0 11 7.62 2.74
-2 0 10 232.12 9.16
-2 0 10 217.54 12.58
2 0 -10 239.61 10.16
2 0 -10 209.13 9.8
-2 0 9 84.34 5.34
-2 0 9 76.32 7.09
2 0 -9 76.2 5.41
2 0 -9 77.74 5.47
2 0 -8 502.06 14.15
2 0 -8 515.16 14.34
-2 0 8 547.4 13.68
-2 0 8 513.51 13.88
-2 0 8 518.5 17.85
2 0 -7 907.01 19.51
-2 0 7 925.76 19.27
-2 0 7 918.31 23.56
2 0 -7 951.8 22.8
2 0 -7 933.93 19.8
2 0 -6 2778.65 42.95
-2 0 6 2798 42.55
2 0 -6 2788.77 48.61
-2 0 6 2853.77 46.79
-2 0 6 2830.25 47.78
2 0 -6 2778.73 46.12
-2 0 6 2759.01 44.04
2 0 -5 2380.95 39.17
-2 0 5 2406.29 40.57
2 0 -5 2355.35 40.92
-2 0 5 2354.59 37.35
2 0 -5 2447.04 36.77
-2 0 5 2425.17 36.51
-2 0 5 2315.05 39.47
2 0 -4 5.49 1.13
-2 0 4 5.17 1.38
-2 0 4 5.81 1.23
2 0 -4 4.3 1.33
2 0 -4 2.89 1
-2 0 4 3.8 0.98
-2 0 4 4.6 1.09
-2 0 4 5.77 1.4
-2 0 3 4144.84 55.63
2 0 -3 4028.12 56.99
2 0 -3 4177.92 55.39
-2 0 3 4039.27 55.48
-2 0 3 4011.87 57.11
2 0 -3 4112.78 55.85
2 0 -3 4072.48 58.57
2 0 -2 1803.64 26.45
-2 0 2 1813.68 26.13
-2 0 2 1748.67 25.89
2 0 -2 1797.5 25.87
-2 0 2 1744.52 27.12
2 0 -2 1776.16 27.22
2 0 -1 662.22 12.4
-2 0 1 667.1 11.6
2 0 -1 674.58 12.03
-2 0 1 645.94 11.23
-2 0 1 667.27 11.74
-2 0 1 643.96 12.21
-2 0 0 115.13 3.15
-2 0 0 125.36 4.42
-2 0 0 128.32 3.95
-2 0 0 125.52 4.24
2 0 0 131.42 4.64
2 0 0 132.83 4.41
-2 0 -1 7644.23 99.95
2 0 1 7626.8 97.81
-2 0 -1 7726.88 97.73
2 0 1 7633.33 99.72
2 0 1 7756.25 100.26
2 0 2 9.48 1.12
-2 0 -2 12.57 1.64
2 0 2 9.91 1.46
-2 0 -2 10.19 1.06
2 0 3 155.75 4.43
-2 0 -3 161.19 6.29
2 0 3 151.49 6.18
-2 0 -3 155.77 4.55
2 0 4 52.87 3.85
2 0 4 44.54 2.3
-2 0 -4 48.56 3.66
2 0 4 49.68 5.11
2 0 5 1.99 0.62
2 0 5 2.97 0.45
-2 0 -5 2.13 1.08
2 0 5 1.7 1.49
-2 0 -6 15.45 2.45
2 0 6 15.33 1.41
2 0 6 14.73 3.18
2 0 6 21.1 1.32
-2 0 -7 119.98 7.09
2 0 7 128.23 4.16
2 0 7 138.78 4.1
2 0 7 136.36 9.96
2 0 8 110.01 4
-2 0 -8 101.43 6.21
2 0 8 103.4 3.73
2 0 8 107.51 9.32
-2 0 -8 110.05 7.2
2 0 9 112.26 3.87
2 0 9 111.27 9.97
2 0 9 123.34 4.61
-2 0 -9 121.07 7.99
-2 0 -9 120.71 7.08
2 0 10 193.54 6.31
-2 0 -10 177.02 10.22
2 0 10 160.06 12.62
-2 0 -10 179.45 9.16
-2 0 -11 2.27 1.84
-2 0 -11 0.12 1.6
2 0 11 2.09 0.91
2 0 11 1.7 2.62
-2 0 -12 775.93 25.11
-2 0 -12 760.83 21.44
2 0 12 744.5 30.79
2 0 13 577.16 27.78
-2 0 -13 541.8 21.63
-2 0 -13 565.54 18.64
-2 0 -14 35.8 5.91
-2 0 -14 31.5 4.35
2 0 14 35.86 7.54
-2 0 -15 62.59 7.86
2 0 15 61.15 9.83
-2 0 -16 18.64 4.69
2 0 16 4.67 3.61
-2 0 -17 2.03 2.73
2 0 17 -1.69 2.61
-2 0 -18 1.16 2.51
2 0 18 -3.31 4.44
2 1 -19 7.12 3.18
-2 1 18 68.55 9.42
2 1 -18 75.93 8.45
-2 1 17 19.68 5.14
-2 1 17 25.49 4.1
-2 1 16 12.99 4.15
2 1 -16 22.59 4.65
2 1 -16 19.74 3.83
-2 1 16 20.99 3.81
2 1 -15 123.04 8.63
-2 1 15 115.45 8.02
2 1 -15 101.21 8.74
-2 1 15 110.1 10.39
-2 1 14 65.43 7.61
2 1 -14 64.88 6.05
2 1 -14 66.09 6.96
2 1 -13 28.15 3.88
-2 1 13 26.56 5.05
2 1 -13 26.24 4.41
2 1 -12 3.66 1.67
2 1 -12 3.86 2.23
-2 1 12 3.16 2.06
-2 1 11 481.51 18.28
2 1 -11 489.41 14.66
2 1 -11 521.33 17.91
-2 1 10 17.22 3.33
2 1 -10 21.61 2.72
2 1 -10 19.06 3.34
-2 1 9 162.15 8.97
2 1 -9 161.22 8.94
2 1 -9 167.85 6.97
-2 1 8 1545.32 30.84
2 1 -8 1517.3 25.56
2 1 -8 1460.37 30.82
2 1 -7 567.08 11.94
-2 1 7 603.24 15.77
2 1 -7 578.58 16.47
-2 1 6 469.06 12.69
-2 1 6 474.83 15.88
-2 1 6 468.49 11.9
2 1 -6 474.38 13.85
-2 1 5 457.69 13.35
2 1 -5 466.59 15.87
-2 1 5 479.52 15
2 1 -5 443.44 9.18
-2 1 5 475.57 15.01
-2 1 5 452.34 10.97
2 1 -5 455.45 12.84
2 1 -5 462.87 11.51
2 1 -4 977.58 23.01
2 1 -4 995.42 18.5
-2 1 4 972.86 20.52
2 1 -4 954.04 16.07
-2 1 4 994.77 22.29
2 1 -4 980.83 19.67
-2 1 4 990.94 22.27
-2 1 4 962.8 17.63
2 1 -3 593.02 15.6
-2 1 3 580.61 15.32
2 1 -3 585.04 13.04
-2 1 3 603.8 15.54
2 1 -3 595.13 12.93
2 1 -3 578.8 11.29
-2 1 3 556.89 11.97
2 1 -2 657.15 14.13
-2 1 2 678.21 16.04
-2 1 2 730.74 16.51
2 1 -2 674.4 12.99
2 1 -2 690.81 13.42
2 1 -2 682.19 10.7
2 1 -2 682.31 15.84
2 1 -1 1340.58 20.44
-2 1 1 1309.71 24.29
2 1 -1 1335.47 22.89
-2 1 1 1339.06 24.44
2 1 -1 1309.07 21.71
2 1 -1 1300.83 19.86
2 1 -1 1292.15 23.12
-2 1 0 586.32 13.75
2 1 0 571.96 12.7
-2 1 0 566.76 13.69
2 1 0 584.32 12.43
2 1 0 571.67 9.6
2 1 0 581.65 11.48
2 1 1 1422 23.69
2 1 1 1425.46 24.17
-2 1 -1 1438.67 25.97
2 1 1 1438.7 24.08
-2 1 -1 1425.37 25.21
2 1 2 2284.56 35.35
2 1 2 2187.09 34.7
-2 1 -2 2275.12 35.9
2 1 3 4919.94 69.16
-2 1 -3 4935.58 68.71
-2 1 -3 4787.12 68.17
-2 1 -3 4771.78 65.42
-2 1 -4 338.37 10.25
-2 1 -4 337.74 8.08
2 1 5 154.54 8.4
-2 1 -5 142.86 6.61
-2 1 -5 136.77 3.93
-2 1 -5 146.96 4.56
-2 1 -6 2152.9 36.6
-2 1 -6 2087.26 28.2
-2 1 -6 2117.71 30.23
2 1 6 2021.26 34
2 1 6 2124.59 41.43
2 1 7 23.73 3.84
-2 1 -7 25.97 3.19
2 1 7 28.37 2.81
2 1 8 322.31 14.99
-2 1 -8 334.38 12.26
2 1 8 312.96 9.87
2 1 9 33.5 3.13
-2 1 -9 38.24 4.26
2 1 9 44.23 5.89
2 1 10 305.86 9.78
-2 1 -10 323.22 13.29
2 1 10 314.93 16.49
2 1 11 88.37 9.25
-2 1 -11 74.84 7.16
2 1 11 91.09 5.05
-2 1 -11 94.33 7.4
-2 1 -12 294.46 13.96
2 1 12 326.74 18.48
-2 1 -12 267.06 14.17
-2 1 -13 54.23 6.51
-2 1 -13 70.23 7.11
2 1 13 52.95 7.81
2 1 14 105.56 11.45
-2 1 -14 107.83 9.32
-2 1 -14 117.37 9.66
-2 1 -15 9.23 3.23
-2 1 -15 2.69 2.4
2 1 15 6.38 3.4
-2 1 -16 3.7 3.01
2 1 16 12.28 4.69
-2 1 -16 12.96 3.75
-2 1 -17 5.46 3.22
-2 2 18 13.04 5.49
2 2 -18 18.3 4.87
-2 2 17 30.21 7.09
2 2 -17 20.56 4.94
2 2 -16 27.99 5.57
-2 2 16 28.63 7.01
2 2 -15 102.89 9.79
-2 2 15 101.1 11.86
2 2 -14 54.97 6.96
-2 2 14 39.25 5.15
-2 2 14 40.85 7.53
-2 2 13 12.16 4.02
-2 2 13 12.72 2.99
2 2 -13 15.35 3.82
-2 2 12 64.6 5.8
2 2 -12 69.27 4.63
-2 2 12 69.22 8.67
2 2 -12 75.5 7.64
-2 2 11 285.09 11.66
-2 2 11 315.96 17.92
2 2 -11 293.42 9.24
2 2 -11 287.79 14.52
2 2 -10 127.32 5.21
-2 2 10 120.19 10.49
2 2 -10 119.87 8.99
-2 2 9 163.7 11.82
2 2 -9 155.33 9.95
2 2 -9 162.31 5.21
2 2 -9 169.18 5.42
-2 2 8 130.64 10.18
2 2 -8 144.73 3.97
2 2 -8 141.22 9.08
2 2 -8 142.83 5.11
-2 2 7 132.76 9.82
2 2 -7 141.51 5.31
2 2 -7 126.09 8.23
2 2 -6 1386.59 23.65
-2 2 6 1402.35 34.16
2 2 -6 1375.34 30.32
-2 2 5 1102.94 28.46
2 2 -5 1060.19 20.11
2 2 -5 1051.69 24.6
-2 2 4 316.6 13.61
2 2 -4 331.95 9.88
2 2 -4 325.9 7.15
2 2 -3 155.32 4.04
-2 2 3 149.98 8.83
2 2 -3 151.41 8.64
2 2 -3 154.25 5.1
2 2 -2 772.51 13.95
2 2 -2 780.07 19.96
2 2 -2 772.98 15.9
2 2 -2 811.41 12.58
-2 2 2 798.76 21.16
2 2 -1 1494.66 22.73
2 2 -1 1539.25 28.76
-2 2 1 1543.89 31.21
2 2 -1 1477.93 26.96
2 2 -1 1494.97 24.36
2 2 0 365.73 9.96
-2 2 0 378.57 12.95
2 2 0 372.73 10.87
2 2 0 366.57 9.4
2 2 1 105.94 4.92
2 2 1 107.43 5.46
2 2 1 99.12 5.13
-2 2 -1 97.12 6.13
-2 2 -2 171.22 8.08
2 2 2 171.86 7.71
2 2 2 170.67 5.93
2 2 3 115.94 2.75
2 2 3 120.31 7.01
-2 2 -3 126.77 6.85
-2 2 -4 981.71 22.15
-2 2 -4 970.84 21
-2 2 -4 970.1 21.93
-2 2 -5 855.77 19.39
-2 2 -5 813.95 19.28
2 2 5 838.73 19.11
-2 2 -5 835.81 20.1
-2 2 -6 46.8 4.1
2 2 6 40.75 4.04
2 2 7 64.83 5.36
-2 2 -7 60.68 4.82
2 2 8 9.05 2.47
-2 2 -8 11.4 2.3
2 2 9 113.94 8.22
-2 2 -9 107.58 7
-2 2 -10 70.83 5.89
2 2 10 76.72 7.18
2 2 11 129.29 9.84
-2 2 -11 123.88 8.28
2 2 12 139.67 10.73
2 2 12 138.83 8.3
-2 2 -12 122.99 8.61
-2 2 -13 94.69 9.46
-2 2 -13 99.31 7.95
-2 2 -14 -1.83 1.87
-2 2 -14 -0.78 2.22
-2 2 -15 1.17 2.5
-2 2 -16 1.98 2.67
-2 3 16 25.96 6.9
2 3 -16 16.96 4.8
-2 3 15 1.72 3.36
2 3 -15 -1.73 2.71
-2 3 14 2.43 3.1
2 3 -14 12.69 4.24
2 3 -13 55.77 7.62
-2 3 13 74.24 10.32
-2 3 12 100.44 11.52
2 3 -12 94.68 9.57
2 3 -11 118.51 10.26
-2 3 11 120.17 12.06
2 3 -10 223.31 7.46
-2 3 10 197.93 15.05
2 3 -10 212.54 13.39
2 3 -9 107.48 5.45
-2 3 9 97.1 10.3
2 3 -9 110.38 9.36
-2 3 8 280.37 16.73
2 3 -8 300.82 9.69
2 3 -8 283.73 14.57
-2 3 7 195.6 13.31
2 3 -7 192.17 8.07
2 3 -6 71.03 5.1
-2 3 6 75.29 7.96
2 3 -6 65.09 3.71
2 3 -5 56.08 2.33
-2 3 5 60.29 6.98
2 3 -5 48.93 3.35
-2 3 4 86.88 8.06
2 3 -4 85.32 3.68
2 3 -4 85.51 4.77
-2 3 3 1109.36 30.36
2 3 -3 1108.25 22.67
2 3 -3 1130.22 20.09
2 3 -2 206.86 7.43
2 3 -2 214.67 9.12
2 3 -2 216.69 6.94
-2 3 2 220.67 12
2 3 -1 159.2 8.38
2 3 -1 166.39 7.1
2 3 -1 172.47 6.62
2 3 -1 170.52 8.98
-2 3 1 158.2 9.82
2 3 0 10.67 2.55
2 3 0 6.82 1.81
-2 3 0 7.13 2.39
2 3 0 9.01 1.67
2 3 1 1038.47 21.81
2 3 1 1022.06 22.59
-2 3 -1 1066.37 26.72
2 3 1 1088.47 27.15
2 3 2 412.85 10.84
2 3 2 418.54 16.53
2 3 2 403.36 13.74
-2 3 -2 414.88 15.18
2 3 3 1236.65 20.5
2 3 3 1289.53 32.76
-2 3 -3 1258.33 28.88
2 3 4 864.94 14.95
-2 3 -4 932.45 23.48
-2 3 -5 989.28 23.66
2 3 5 804.03 13.51
-2 3 -6 452.55 14.04
-2 3 -6 455.06 15.12
-2 3 -7 94.93 6.33
-2 3 -7 99.69 7.08
-2 3 -8 53.21 4.81
-2 3 -9 42.96 4.52
-2 3 -10 18.02 3.09
-2 3 -11 48.36 5.13
-2 3 -14 10.67 4.11
2 4 -14 14.86 4.68
-2 4 14 7.07 4.21
2 4 -13 4.45 2.94
-2 4 13 -1.28 3.31
-2 4 12 6 3.97
2 4 -12 5.69 3.23
2 4 -11 20.25 5.34
-2 4 11 15.14 5.05
-2 4 10 107.13 12.02
2 4 -10 117.69 11.11
-2 4 9 174.48 14.88
2 4 -9 182.48 13.45
2 4 -9 183.06 8.63
2 4 -8 224.54 14.58
2 4 -8 255.65 10.96
-2 4 8 227.94 16.56
2 4 -7 339.36 13.46
-2 4 7 358.79 20.14
-2 4 6 112.56 10.88
2 4 -6 98.41 7.38
2 4 -6 88.58 5.36
-2 4 5 69.09 8.34
2 4 -5 64.42 4.84
-2 4 4 75.46 8.34
2 4 -4 70.35 5.45
-2 4 3 143.58 11.24
2 4 -3 148 8.36
-2 4 2 49.18 6.48
2 4 -2 62.7 5.73
-2 4 1 154.81 11.02
2 4 -1 114.58 8.25
-2 4 0 123.67 9.62
2 4 0 123.61 9
2 4 1 122.64 9.36
-2 4 -1 110.71 8.92
-2 4 -2 111.26 8.71
2 4 2 105.11 9.13
2 4 3 268.91 15.38
-2 4 -3 255.16 13.04
2 4 4 209.57 14.22
-2 4 -4 206.68 11.54
2 4 5 357.04 19.17
-2 4 -5 330.1 14.58
2 4 6 119.67 11.6
-2 4 -6 105.02 7.97
-2 4 -6 96.71 6.9
-2 4 -7 497.69 16.3
2 4 7 497.37 25.03
-2 4 -7 482.59 17.7
2 4 8 56.48 8.56
-2 4 -8 43.78 5.2
2 4 9 12.97 4.44
2 4 10 12.11 4.8
2 4 11 9.87 4.55
2 4 12 14.14 5.7
2 5 -11 -1.86 3.01
2 5 -10 5.84 3.53
-2 5 10 17.84 5.32
2 5 -9 0.27 2.48
-2 5 9 0.26 3.48
2 5 -8 23.93 5.41
2 5 -8 26.86 4.26
-2 5 8 32.5 7.39
2 5 -7 -3.23 2.27
-2 5 7 1.39 2.57
2 5 -6 46.9 6.05
-2 5 6 45.97 7.88
-2 5 5 14.07 4.51
-2 5 4 7.22 3.5
-2 5 3 21.54 5.2
-2 5 2 103.36 10.35
2 5 -2 111.22 8.63
-2 5 1 24 5.28
2 5 -1 25.97 4.58
-2 5 0 1.59 1.9
2 5 0 4.8 2.15
-2 5 -1 9.92 3.41
2 5 1 7.41 2.66
2 5 2 25.31 5.15
-2 5 -2 34.24 5.59
-2 5 -3 28.1 4.92
2 5 3 29.1 5.67
-2 5 -4 7 2.53
2 5 4 18.33 4.74
-2 5 -5 8.16 2.81
2 5 5 9.71 3.9
2 5 6 3.98 2.79
-2 5 -6 2.3 1.89
-2 5 -7 25.28 4.43
2 5 7 20.37 5.74
2 5 8 5.12 3.53
2 5 9 -1.95 3.1
2 6 -7 33.8 7.19
2 6 -6 3.3 3
2 6 -6 10.27 3.63
-2 6 6 5.94 3.58
2 6 -5 11.97 4.07
-2 6 5 11.78 4.65
-2 6 4 20.45 5.53
-2 6 3 1.44 2.37
-2 6 2 42.8 7.53
-2 6 1 -2.48 2.79
-2 6 0 19.82 4.86
-2 6 -1 2.99 2.36
-2 6 -2 17.05 4.62
2 6 4 9.7 3.72
2 6 5 -5.45 3.38
2 6 6 7.23 4.03
3 -6 -8 10.48 4.85
3 -6 -7 42.09 8.18
3 -6 -6 1.68 3.05
3 -6 -5 11.01 4.46
-3 -5 12 -1.71 3.3
-3 -5 11 7.77 3.98
3 -5 -11 15.78 5.04
-3 -5 10 4.81 3.57
3 -5 -10 3.58 3.21
3 -5 -9 29.18 6.69
-3 -5 9 41.23 7.8
-3 -5 8 7.59 4.07
3 -5 -8 -0.96 2.84
-3 -5 7 30.84 6.14
3 -5 -7 33.45 6.96
-3 -5 6 83.64 9.26
3 -5 -6 78.61 9.88
3 -5 -5 -6.15 3.6
3 -5 -4 91.44 10.33
3 -5 -3 9.39 3.93
3 -5 -2 144.65 12.58
3 -5 -1 19.69 5.09
3 -5 0 42.15 6.89
3 -5 1 4.96 3.01
3 -5 2 17.09 4.63
3 -5 3 11.58 3.94
3 -5 3 7.49 3.12
3 -5 4 7.41 3.72
3 -5 4 3.77 2.8
3 -5 5 7.23 3.66
3 -5 5 14.23 4.43
3 -5 6 10.75 4.87
3 -5 6 9.43 3.84
3 -5 7 63.25 10.46
3 -5 7 95.08 10.66
3 -5 8 -1.55 3.03
3 -5 9 83.75 12.52
-3 -4 14 19.6 6.33
3 -4 -14 19.83 6.41
3 -4 -13 76.04 10.92
-3 -4 13 67.03 10.44
-3 -4 12 11.47 4.83
3 -4 -12 13.99 5.11
-3 -4 11 48.84 8.45
3 -4 -11 38.94 7.3
-3 -4 10 20.82 5.81
3 -4 -10 26.13 6.17
3 -4 -9 109.91 11.46
-3 -4 9 112.13 11.61
-3 -4 8 112.98 11.26
3 -4 -8 116.3 11.67
-3 -4 7 79.12 8.98
3 -4 -7 64.58 8.5
3 -4 -6 11.22 4.16
-3 -4 6 2.8 2.6
3 -4 -5 99.99 9.99
-3 -4 5 106.32 9.26
-3 -4 4 4.4 2.24
3 -4 -4 3.3 2.48
3 -4 -3 23.29 3.42
-3 -4 3 22.53 3.77
3 -4 -3 25.73 5.02
3 -4 -2 21.09 3.66
3 -4 -2 22.41 4.66
3 -4 -1 9.72 2.95
3 -4 -1 11.37 3.42
3 -4 0 -3.63 2.04
3 -4 0 -0.32 1.99
3 -4 1 209.25 13.41
3 -4 1 224.01 13.84
3 -4 2 149.74 11.9
-3 -4 -2 151.64 9.85
3 -4 2 162.36 11.84
3 -4 3 96.56 10.15
-3 -4 -3 119.16 9.04
3 -4 3 131.27 10.65
3 -4 4 6.47 3.53
-3 -4 -4 5.03 2.3
3 -4 4 5.22 2.94
-3 -4 -5 320.63 16.33
3 -4 5 317.92 17.28
3 -4 5 281.36 18.78
3 -4 6 103.87 12.06
3 -4 6 129.32 11.09
-3 -4 -6 98.86 9.48
3 -4 7 120.04 13.27
-3 -4 -7 111.06 10.39
3 -4 7 124.11 11.11
3 -4 8 66.91 10.44
3 -4 8 55.03 7.7
-3 -4 -8 51.16 7.51
3 -4 9 6.38 4.75
3 -4 9 -1.72 2.46
-3 -4 -9 0.27 2.2
3 -4 10 32.38 8.48
3 -4 10 24.98 5.42
-3 -4 -10 32.16 6.67
3 -4 11 3.73 3.83
-3 -4 -11 8.47 4.04
3 -4 11 5.14 3.1
3 -4 12 25.23 6.16
3 -4 13 2.15 3.23
-3 -3 17 7.39 4.1
-3 -3 16 69.3 9.1
-3 -3 16 55.66 9.98
-3 -3 15 19.1 4.96
-3 -3 15 22.66 6.35
3 -3 -14 10.37 4.62
-3 -3 14 5.7 3
-3 -3 14 6.36 3.72
-3 -3 13 86.73 9.47
-3 -3 13 102.21 12.16
3 -3 -13 93.91 11.21
3 -3 -12 11.58 4.18
-3 -3 12 15.4 5.14
-3 -3 12 6.59 3.26
-3 -3 11 44.42 6.62
-3 -3 11 55.7 8.42
3 -3 -11 46.6 7.5
-3 -3 10 231.28 14.43
-3 -3 10 252.37 16.96
-3 -3 10 249.03 10.38
3 -3 -10 236.23 15.83
-3 -3 9 84.59 8.61
-3 -3 9 87.16 5.54
-3 -3 9 78.72 9.1
3 -3 -9 98.19 9.91
-3 -3 8 27.43 5.46
3 -3 -8 30.51 5.49
-3 -3 8 29.94 2.97
-3 -3 8 26.03 4.84
3 -3 -7 170.85 12.29
-3 -3 7 172.68 12.15
-3 -3 7 164.47 6.24
3 -3 -6 522.47 12.75
-3 -3 6 580.53 21.74
-3 -3 6 553.07 11.15
3 -3 -6 632.99 23.19
-3 -3 5 20.03 3.85
3 -3 -5 20.99 4.24
-3 -3 5 25.21 1.59
-3 -3 4 408.55 16.12
3 -3 -4 384.23 17.21
-3 -3 3 23.98 3.94
3 -3 -3 16.33 3
3 -3 -3 23.27 4.49
3 -3 -2 295.61 12.75
3 -3 -2 296.57 14.49
3 -3 -1 120.31 8.46
3 -3 -1 116.79 8.92
-3 -3 1 116.26 6.33
3 -3 0 92.28 7.91
-3 -3 0 118.15 6.84
3 -3 0 109.13 8.57
-3 -3 -1 464.64 15.15
3 -3 1 464.75 19.17
3 -3 1 499.65 18.6
-3 -3 -2 48.38 4.98
3 -3 2 37.87 5.82
3 -3 2 40.33 5.24
-3 -3 -3 130.11 8.62
3 -3 3 107.63 10.01
3 -3 3 110.45 8.74
-3 -3 -4 395.04 16.06
3 -3 4 395.8 20.23
3 -3 4 396.76 17.06
-3 -3 -5 77.48 7.41
3 -3 5 64.3 6.97
3 -3 5 63.45 8.42
3 -3 6 237.64 13.73
3 -3 6 214.11 16.07
-3 -3 -7 180.13 12.14
3 -3 7 177.89 15.06
3 -3 7 179.65 12.1
-3 -3 -8 31.97 5.57
3 -3 8 25.78 6.54
3 -3 8 36.79 5.8
3 -3 9 58.11 9.87
3 -3 9 57.1 7.4
-3 -3 -10 19.47 4.84
3 -3 10 14.27 5.42
3 -3 10 17.88 4.75
3 -3 11 71.3 11.62
-3 -3 -11 53.28 7.93
3 -3 11 64.63 8.35
-3 -3 -12 39.36 6.82
3 -3 12 28.18 8.12
3 -3 12 25.6 5.86
3 -3 13 1.59 3.81
-3 -3 -13 4.8 3.37
3 -3 13 -7.79 4.05
3 -3 14 40.65 7.35
-3 -2 18 27.32 7.43
-3 -2 17 101.06 13.01
-3 -2 17 84.61 9.22
-3 -2 16 18.98 5.93
3 -2 -16 14.39 3.22
-3 -2 16 17.27 4.29
-3 -2 15 75.76 8.27
3 -2 -15 68.04 6.42
-3 -2 14 3.73 4.13
-3 -2 14 10.96 3.42
3 -2 -14 7.78 2.36
-3 -2 13 79.9 10.01
-3 -2 13 75.49 7.65
3 -2 -13 89.1 10.04
3 -2 -12 58.92 7.86
-3 -2 12 56.58 6.59
-3 -2 12 53.05 7.99
3 -2 -11 21.93 4.76
-3 -2 11 20.33 4.9
-3 -2 11 18.66 3.87
-3 -2 10 -1.82 2.56
3 -2 -10 0.44 2.03
-3 -2 10 1.56 1.65
-3 -2 9 208.52 11.41
-3 -2 9 195.62 13.17
3 -2 -9 193.78 9.69
-3 -2 9 217.8 6.61
3 -2 -9 211.96 13.25
-3 -2 8 59.78 6.95
3 -2 -8 64.23 5.11
-3 -2 8 68.74 6.33
3 -2 -8 77.92 7.77
-3 -2 8 61.88 4.83
-3 -2 8 70.04 3.02
3 -2 -7 33.72 3.45
-3 -2 7 33.35 5.05
3 -2 -7 39.13 5.27
-3 -2 7 32.73 4.37
-3 -2 7 29.94 3.01
-3 -2 6 138.42 9.63
-3 -2 6 142.21 8.64
3 -2 -6 149.47 9.92
-3 -2 6 135.33 5.43
3 -2 -6 141.71 6.72
-3 -2 5 462.43 17.01
3 -2 -5 479.73 17.77
-3 -2 5 487.79 8.6
-3 -2 5 455.44 9.04
-3 -2 5 479.92 16.25
-3 -2 4 103.25 7.26
-3 -2 4 121.32 7.77
3 -2 -4 102.71 7.73
-3 -2 3 796.72 20.47
3 -2 -3 759.3 22
-3 -2 3 747 20.56
-3 -2 3 765.35 13.54
-3 -2 2 753.31 14.81
3 -2 -2 768.09 21.53
-3 -2 1 916.45 18.17
3 -2 -1 941.39 23.98
-3 -2 0 525.75 13.59
3 -2 0 530.81 17.07
3 -2 1 1490.63 32.17
-3 -2 -1 1504.09 28.39
3 -2 1 1432.15 34.86
-3 -2 -2 247.91 10.02
3 -2 2 244.29 13.48
3 -2 2 256.31 11.66
-3 -2 -3 952.47 22.92
3 -2 3 916.03 24.41
3 -2 3 921.72 28.74
-3 -2 -4 786.19 21.57
3 -2 4 797.87 27.43
3 -2 4 808.83 22.96
3 -2 5 59.31 5.97
-3 -2 -5 54.45 5.57
3 -2 5 52.96 7.2
-3 -2 -6 58.06 5.89
3 -2 6 60.28 6.32
3 -2 6 51.25 7.57
3 -2 7 16.9 4.77
-3 -2 -7 17.48 3.53
3 -2 7 15.76 3.64
-3 -2 -8 92.76 8.31
3 -2 8 103.54 11.23
3 -2 8 105.44 8.9
-3 -2 -9 0.45 1.83
3 -2 9 -0.44 3.16
-3 -2 -10 58.46 7.2
3 -2 10 52.51 8.72
-3 -2 -11 36.19 5.9
3 -2 11 27.51 6.92
3 -2 12 4.75 4.53
-3 -2 -12 11.57 3.91
3 -2 13 48.05 9.59
-3 -2 -13 61.18 8.28
3 -2 14 14.2 5.88
-3 -2 -14 24.09 5.75
3 -2 15 1.12 3.63
-3 -2 -15 23.04 5.87
3 -1 -19 12.58 3.68
-3 -1 19 19.28 5.88
-3 -1 18 5.04 2.77
-3 -1 18 7.87 4.44
3 -1 -18 4.35 2.34
-3 -1 17 3.59 2.25
-3 -1 17 2.45 2.89
3 -1 -17 7.22 2.55
3 -1 -16 29.85 4.55
-3 -1 16 28.92 4.61
-3 -1 16 32.89 6.91
-3 -1 15 75.83 10.12
-3 -1 15 68.47 6.72
3 -1 -15 73.58 6.58
-3 -1 14 282.05 13.21
-3 -1 14 272.34 18.06
3 -1 -14 264.99 12.16
-3 -1 13 210.85 10.92
-3 -1 13 207.51 15.19
3 -1 -13 222.14 10.68
-3 -1 12 638.16 26.06
3 -1 -12 626.09 18.32
-3 -1 12 614.06 19.06
3 -1 -12 647.89 24.84
-3 -1 11 296.66 16.54
-3 -1 11 264.33 9.1
-3 -1 11 261.88 7.45
-3 -1 11 298.32 12.11
3 -1 -11 307.88 15.88
3 -1 -11 299.2 11.53
-3 -1 10 175.43 12.17
-3 -1 10 190.52 6.99
-3 -1 10 179.14 5.97
3 -1 -10 193.31 8.77
-3 -1 10 176.98 8.98
3 -1 -10 220.28 12.76
-3 -1 9 205.52 6.84
-3 -1 9 189.37 6.23
-3 -1 9 211.08 12.66
3 -1 -9 202.7 11.76
-3 -1 9 202.77 9.23
3 -1 -9 207.48 8.74
-3 -1 8 517.13 19.39
-3 -1 8 485.9 10.64
-3 -1 8 483.62 10.95
3 -1 -8 482.05 13.58
-3 -1 8 514.17 15.67
3 -1 -8 492.33 18.12
-3 -1 8 502.28 14.82
-3 -1 7 74.05 6.75
3 -1 -7 79.76 5.9
-3 -1 7 81.05 3.41
-3 -1 7 79.95 3.92
-3 -1 7 79.35 5.3
3 -1 -7 84.6 6.88
-3 -1 7 77.81 5.26
3 -1 -7 77.73 4.87
3 -1 -6 293.46 9.47
-3 -1 6 286.82 6.67
3 -1 -6 282.45 10.66
-3 -1 6 283.96 6.57
-3 -1 6 279.16 7.89
-3 -1 6 289.25 9.45
-3 -1 6 290.08 10.06
3 -1 -6 303.4 12.62
-3 -1 6 292.23 12.76
3 -1 -5 159.98 7.35
-3 -1 5 156.27 7.53
3 -1 -5 152.24 8.31
-3 -1 5 161.29 5.79
-3 -1 5 158.37 7.09
-3 -1 5 159.84 5.98
3 -1 -5 154.8 8.55
-3 -1 5 171.38 9.04
-3 -1 4 266.63 10.71
-3 -1 4 246.51 7.48
3 -1 -4 260.85 10.59
-3 -1 4 249.13 8.87
-3 -1 4 256.7 6.53
3 -1 -4 254.24 10.6
-3 -1 4 247.26 8.89
3 -1 -3 318.98 11.53
-3 -1 3 362.66 10.08
-3 -1 3 355.99 10.4
-3 -1 3 332.99 6.47
3 -1 -3 338.59 11.95
-3 -1 3 338.13 9.14
-3 -1 3 340.27 7.09
3 -1 -2 2467.94 42.04
-3 -1 2 2474.22 35.35
-3 -1 2 2583.84 39.59
3 -1 -2 2530.48 42.44
-3 -1 2 2516.36 37.63
-3 -1 2 2488.1 38.21
-3 -1 1 1184.19 20.12
-3 -1 1 1204.58 22.4
-3 -1 1 1199.28 21.93
3 -1 -1 1211.02 24.63
-3 -1 1 1222.7 19.83
3 -1 -1 1197.64 24.77
-3 -1 0 512.78 12.6
-3 -1 0 506.65 11.69
-3 -1 0 489.14 12.33
3 -1 0 520.7 14.67
-3 -1 0 511.44 9.6
3 -1 0 491.85 14.02
-3 -1 -1 2617.59 40.02
3 -1 1 2552.07 43.46
-3 -1 -1 2576.94 34.15
3 -1 1 2549.55 42.75
-3 -1 -2 639.49 15.42
3 -1 2 632.29 17.27
3 -1 3 4086.25 64.48
-3 -1 -3 4071.2 61.5
3 -1 4 411.95 17.91
-3 -1 -4 394.21 13.22
-3 -1 -4 402.76 7.25
3 -1 5 207.99 13.23
-3 -1 -5 228.22 5.53
-3 -1 -5 227.9 10.17
3 -1 6 507.17 21.94
-3 -1 -6 530.74 10.58
-3 -1 -6 525.34 16.98
3 -1 7 30.09 5.86
-3 -1 -7 35.5 4.41
-3 -1 -7 38.27 2.63
3 -1 8 22.03 5.16
-3 -1 -8 19.11 2.07
-3 -1 -8 10.91 2.79
3 -1 9 243.01 16.83
-3 -1 -9 230.38 12.62
-3 -1 -9 257.78 8.29
3 -1 10 117.82 12.14
-3 -1 -10 132.79 9.97
-3 -1 -10 125.89 5.97
-3 -1 -11 26.09 4.85
3 -1 11 30.74 7
3 -1 12 72.32 10.55
-3 -1 -12 97.12 9.44
-3 -1 -13 4.55 3.08
3 -1 13 -8.97 4.5
-3 -1 -14 142.48 12.32
3 -1 14 132.4 15.35
3 -1 15 54.47 10.14
-3 -1 -15 59.94 8.56
-3 -1 -16 110.85 11.68
3 -1 16 106.92 14.61
3 0 -20 24.89 4.92
-3 0 20 17.32 6.06
3 0 -19 25.56 4.78
-3 0 19 38.52 7.71
-3 0 18 4.78 2.97
-3 0 18 7.23 2.45
3 0 -18 4.63 2.59
3 0 -17 29.08 4.72
-3 0 17 24.13 5.53
-3 0 17 27.99 4.58
-3 0 16 181.04 15.02
-3 0 16 198.68 11.07
3 0 -16 166.34 10.75
3 0 -15 488.39 18.32
-3 0 15 488.94 24.03
-3 0 15 519.68 17.85
-3 0 14 111.78 10.8
3 0 -14 104.27 7.93
-3 0 14 108.36 7.54
-3 0 13 444.89 15.36
-3 0 13 410.46 19.98
3 0 -13 423.35 15.84
-3 0 12 19.53 3.25
-3 0 12 21.29 4.42
3 0 -12 24.3 3.66
-3 0 11 175.92 8.68
-3 0 11 160.09 11.23
3 0 -11 179.94 9.29
-3 0 10 6.17 1.98
3 0 -10 4.83 1.83
-3 0 10 4.15 2.15
-3 0 9 171.05 10.48
-3 0 9 159.84 7.7
3 0 -9 161.54 9.59
3 0 -9 170.95 8.23
-3 0 8 965.45 25.63
-3 0 8 959.4 21.14
-3 0 8 982.64 20.89
3 0 -8 967.38 21.36
-3 0 8 972.77 23.07
3 0 -8 972.3 24.37
-3 0 7 1775.31 35.68
-3 0 7 1750.33 31.07
-3 0 7 1726.14 34.59
-3 0 7 1766.7 32.67
3 0 -7 1734.89 34.14
3 0 -7 1751.05 31.13
-3 0 6 1617.66 28.03
-3 0 6 1603.57 32.12
3 0 -6 1511.76 32.44
-3 0 6 1589.15 28.92
-3 0 6 1574.92 30.97
3 0 -6 1598 30.6
3 0 -6 1624.37 28.27
3 0 -5 169.4 8.32
-3 0 5 172.1 6.75
-3 0 5 189.97 8.55
-3 0 5 177.12 7.7
-3 0 5 174.12 6.81
3 0 -5 177.82 7.63
3 0 -5 163.22 6.44
-3 0 4 741.01 15.02
3 0 -4 730.46 14.8
-3 0 4 699.71 16.29
3 0 -4 735.71 16.44
3 0 -4 722.96 17.77
-3 0 4 713.56 14.95
3 0 -4 729.7 15.32
-3 0 3 2971.55 44.58
3 0 -3 2999.4 45
3 0 -3 2968.08 42.79
3 0 -3 2974.76 43.64
-3 0 3 3009.75 43.03
-3 0 3 3024.16 43.13
-3 0 2 394.47 9.27
-3 0 2 388.14 10.01
3 0 -2 375.98 10.08
3 0 -2 404.23 9.1
-3 0 2 408.89 9.45
3 0 -2 385.5 9.66
-3 0 2 390.77 8.99
-3 0 1 42.73 2.38
-3 0 1 36.95 2.79
3 0 -1 42.64 3.06
-3 0 1 43.92 2.75
-3 0 1 40.42 2.7
-3 0 1 41.22 2.44
3 0 -1 39.8 2.79
-3 0 0 6617.39 86.02
-3 0 0 6761.27 90.29
-3 0 0 6594.27 88.31
3 0 0 6691.84 91.06
-3 0 0 6886.13 89.39
3 0 0 6752.75 89.97
-3 0 -1 14.76 1.61
-3 0 -1 17.17 2.15
3 0 1 19.88 2.17
-3 0 -1 19.62 1.21
3 0 2 102.92 5.4
-3 0 -2 103.35 4.17
3 0 2 113.35 4.4
-3 0 -2 105.51 5.36
3 0 2 109.88 5.4
-3 0 -3 178.53 7.45
-3 0 -3 168.43 5.53
3 0 3 154.14 5.38
-3 0 -4 18.7 1.86
3 0 4 18.24 1.89
-3 0 -4 19.51 2.6
3 0 5 56.24 6.41
-3 0 -5 70.31 5.18
3 0 5 67.41 3.39
3 0 6 113.98 9.51
-3 0 -6 114.31 6.96
3 0 6 104.01 4.48
-3 0 -7 704.84 19.73
3 0 7 712.66 25.6
3 0 7 655.18 13.39
3 0 8 88.14 9.09
-3 0 -8 74.49 6.3
3 0 9 205.33 14.38
-3 0 -9 193.73 10.78
3 0 9 186.22 4.35
-3 0 -9 184.95 9.12
3 0 10 293.45 18.06
-3 0 -10 264.04 13.37
-3 0 -10 289.95 12.02
3 0 11 292.09 18.89
-3 0 -11 290.81 14.57
-3 0 -11 275.53 12.18
3 0 12 226.36 17.27
-3 0 -12 253.63 14.31
-3 0 -12 233.04 11.29
3 0 13 180.23 15.93
-3 0 -13 190.6 12.9
-3 0 -13 163.76 9.77
3 0 14 2.81 3.24
-3 0 -14 2.17 2.47
3 0 15 175.56 16.96
-3 0 -15 175.13 13.45
3 0 16 17.75 5.99
-3 0 -16 4.94 3.17
3 0 17 0.98 3.2
-3 0 -17 2.05 2.36
-3 1 20 1.09 2.87
-3 1 19 4.07 2.77
3 1 -19 12.64 3.89
-3 1 18 5.47 4.04
-3 1 18 2.52 2.86
-3 1 18 4 2.26
3 1 -18 1.97 2.38
3 1 -17 4.69 2.93
-3 1 17 3.03 2.77
-3 1 17 2.96 2.32
3 1 -16 38.23 5.77
-3 1 16 29.4 5.54
-3 1 16 37.53 4.99
-3 1 15 83.7 8.99
3 1 -15 77.99 7.65
-3 1 14 287.51 15.76
3 1 -14 257.07 13.64
-3 1 13 224.16 13.28
3 1 -13 223.82 12.16
3 1 -12 662.83 21.11
-3 1 12 610.1 24.08
-3 1 12 675.68 22.75
-3 1 11 288.34 13.63
-3 1 11 277.27 15.15
3 1 -11 294.81 13.1
-3 1 10 183.18 10.15
-3 1 10 176.29 11.4
3 1 -10 191.02 9.95
-3 1 9 207.04 10.16
-3 1 9 211.5 11.86
3 1 -9 209.92 10.07
3 1 -8 506.45 15.67
-3 1 8 535.21 16.08
-3 1 8 487.69 17.79
3 1 -7 80 5.66
-3 1 7 77.02 6.44
-3 1 6 277.98 11.88
3 1 -6 301.47 10.47
-3 1 5 157.44 8.38
3 1 -5 162.11 7.11
3 1 -5 161.68 5.64
-3 1 4 245.76 10.1
3 1 -4 241.87 7.12
-3 1 4 271.22 10.73
-3 1 4 247.12 7.93
3 1 -4 236.78 6.42
3 1 -4 229.59 10.21
3 1 -4 259.51 8.43
3 1 -4 243.77 8.03
-3 1 3 337.41 11.49
3 1 -3 348.03 11.94
-3 1 3 336.73 9.33
3 1 -3 333.49 8.67
-3 1 3 342.11 11.75
3 1 -3 335.8 6.79
3 1 -3 339.56 9.49
3 1 -3 347.08 9.26
3 1 -2 2532.43 41.46
3 1 -2 2511.99 37.19
-3 1 2 2497.42 41.76
-3 1 2 2557.26 41.58
3 1 -2 2513.9 33.61
3 1 -2 2528.61 37.85
3 1 -2 2429.62 33.87
3 1 -2 2491.56 36.43
3 1 -1 1203.81 20.36
3 1 -1 1216.65 21.17
-3 1 1 1201.46 24
3 1 -1 1205.33 18.71
-3 1 1 1213.56 24.44
3 1 -1 1180.63 21.1
3 1 -1 1219.37 19.02
3 1 0 537.5 12.09
-3 1 0 502.6 13.63
-3 1 0 520.78 14.25
3 1 0 512.36 11.8
3 1 0 521.76 12.08
3 1 0 518.61 9.16
3 1 1 2528.84 38.71
3 1 1 2620.82 40.2
-3 1 -1 2642.13 43.45
3 1 1 2624.71 39.47
-3 1 -1 2605.64 41.97
3 1 2 617.67 13.81
3 1 2 600.62 13.02
3 1 2 623.7 15.01
-3 1 -2 585.76 15.11
3 1 3 3970.57 56.08
-3 1 -3 3970.78 60.03
3 1 3 4054.64 57.49
-3 1 -3 4009.39 60.22
3 1 4 405.19 11.15
3 1 4 424.44 10.45
-3 1 -4 407.38 12.61
-3 1 -4 427.54 8.92
-3 1 -5 234.11 9.62
3 1 5 218.28 7.87
-3 1 -5 220.87 5.28
-3 1 -5 227.18 6.17
-3 1 -6 500.57 9.02
3 1 6 540.93 19.44
3 1 6 527.49 13.03
-3 1 -6 483.48 9.89
-3 1 -6 534.68 15.68
3 1 7 38.25 5.41
-3 1 -7 34.6 3.92
-3 1 -7 35.15 2.13
3 1 7 28.33 2.83
3 1 8 16.8 3.84
3 1 8 16.25 2.23
-3 1 -8 14.62 2.88
3 1 9 248.04 14.83
-3 1 -9 227.6 11.32
3 1 9 244.72 8.61
-3 1 -10 110.77 8.2
3 1 10 125.83 11.08
3 1 10 118.2 5.84
-3 1 -11 25.35 4.11
3 1 11 25.35 5.36
3 1 11 32.72 3.07
3 1 12 77.17 9.53
-3 1 -12 80.42 7.71
-3 1 -12 78.59 7.73
-3 1 -13 1.68 1.99
3 1 13 4.09 2.62
-3 1 -13 0.69 1.53
-3 1 -14 150.91 11.43
3 1 14 151.44 14.33
-3 1 -14 128.58 10.42
3 1 15 60.29 9.61
-3 1 -15 63.3 7.91
-3 1 -15 63.41 7.44
-3 1 -16 104.15 10.39
-3 1 -17 41.51 7.1
-3 2 18 7.88 4.9
3 2 -18 17.59 4.69
-3 2 17 105.43 12.85
3 2 -17 81.95 9.13
3 2 -16 22.39 4.81
-3 2 16 22.25 6.16
-3 2 15 62.8 9.38
3 2 -15 76.78 8.38
3 2 -14 7.01 2.91
-3 2 14 1.94 2.77
-3 2 13 58.47 8.4
3 2 -13 66.24 7.3
-3 2 12 48.05 7.28
3 2 -12 57.85 6.65
3 2 -11 21.73 4.1
-3 2 11 28.93 5.58
3 2 -10 4.03 2.05
-3 2 10 0.06 2.05
-3 2 9 215.6 13.63
3 2 -9 216.08 7.14
3 2 -9 233.71 11.87
3 2 -8 64.55 3.87
3 2 -8 72.32 6.36
-3 2 8 70.63 7.37
3 2 -7 39.93 3.04
-3 2 7 32.61 4.92
3 2 -7 44.94 4.8
-3 2 6 139.43 9.68
3 2 -6 142.12 5.97
3 2 -6 138.58 8.02
-3 2 5 482.82 17.8
3 2 -5 468.03 14.77
3 2 -5 484.2 12.33
-3 2 4 103.1 7.69
3 2 -4 105.28 5.42
3 2 -4 106.82 6.25
-3 2 3 794.12 22.16
3 2 -3 779.05 14.05
3 2 -3 787.5 17.62
3 2 -3 781.7 13.21
3 2 -3 758.82 17.77
-3 2 2 794.62 21.61
3 2 -2 774.26 20.12
3 2 -2 735.68 15.76
3 2 -2 791.21 18.06
3 2 -2 772.5 14.38
3 2 -2 779.46 16.81
3 2 -1 928.64 21.59
3 2 -1 969.17 21.09
3 2 -1 951.07 17.95
3 2 -1 942.87 15.38
3 2 -1 950.78 18.09
-3 2 1 975.92 23.97
3 2 0 510.81 14.14
3 2 0 534.82 12.98
3 2 0 506.5 14.52
3 2 0 509.46 11.74
-3 2 0 518.33 16.24
3 2 0 507.42 10.81
3 2 1 1425.23 26.81
3 2 1 1481.44 28.83
3 2 1 1444.63 26.57
-3 2 -1 1471.78 30.43
3 2 1 1443.29 21.29
3 2 2 254.12 10.19
3 2 2 256.49 9.92
-3 2 -2 250.22 10.57
3 2 3 922.63 22
3 2 3 933.3 22.8
-3 2 -3 951.08 22.72
-3 2 -4 770.66 18.78
-3 2 -4 775.41 19.55
3 2 4 749.01 19.61
-3 2 -4 781.78 20.34
-3 2 -5 60.57 5.01
-3 2 -5 52.25 4.16
3 2 5 57.8 5.06
-3 2 -5 56.77 5.13
3 2 6 45.68 4.99
-3 2 -6 51.88 4.73
3 2 6 52.67 4.84
-3 2 -6 46.33 3.74
-3 2 -7 15.18 2.02
3 2 7 20.99 3.63
-3 2 -7 18.1 3.09
3 2 7 11.91 2.52
3 2 8 105.19 8.32
-3 2 -8 94.49 6.89
3 2 8 94.68 6.62
-3 2 -8 87.94 4.66
3 2 9 5.55 2.44
3 2 9 2.54 1.49
-3 2 -9 0.76 1.51
3 2 10 67.83 7.36
-3 2 -10 60.2 5.92
3 2 10 68.81 5.68
-3 2 -11 29.99 4.41
3 2 11 28.44 3.74
3 2 11 29.94 5.2
-3 2 -12 9.33 2.77
-3 2 -13 44.41 6.9
-3 2 -13 56.47 6.53
-3 2 -14 10.09 3.78
-3 2 -14 13.39 3.56
-3 2 -15 10.65 4.02
-3 2 -16 16.92 4.98
3 3 -16 62.07 8.5
-3 3 16 76.25 11.43
-3 3 15 20.09 6.2
3 3 -15 17.39 4.68
3 3 -14 6.68 3.1
-3 3 14 9.68 4.35
-3 3 13 98.76 11.76
3 3 -13 106.5 10.21
3 3 -12 8.84 3.49
-3 3 12 7.43 3.95
3 3 -11 36.66 5.73
-3 3 11 45.58 7.38
3 3 -11 36.48 3.24
-3 3 10 247.03 16.66
3 3 -10 250.03 8.76
3 3 -10 233.61 13.78
-3 3 9 81.14 9.31
3 3 -9 84.27 5
3 3 -9 89.29 8.25
3 3 -8 28.64 4.67
-3 3 8 37.3 6.17
3 3 -8 27.24 3.01
-3 3 7 162.26 12.17
3 3 -7 166.52 7.63
3 3 -7 181.11 10.93
3 3 -6 575.27 15.62
-3 3 6 574.32 22.68
3 3 -6 514.19 9.91
3 3 -6 576.28 19.38
3 3 -5 22.16 3.65
3 3 -5 22.33 3.07
3 3 -5 26.14 2.04
-3 3 5 29.37 5.07
-3 3 4 401.05 17.59
3 3 -4 378.96 8.09
3 3 -4 411.15 13.78
3 3 -4 385.71 10.16
3 3 -4 374.13 14.28
3 3 -3 26.09 3.69
3 3 -3 17.16 1.87
-3 3 3 20.62 4.26
3 3 -3 20.53 2.57
3 3 -3 34.24 4.33
3 3 -2 286.19 11.1
-3 3 2 271.81 13.71
3 3 -2 291.87 10.74
3 3 -2 275.68 8.69
3 3 -2 295.33 6.57
3 3 -1 130.09 6.78
3 3 -1 120.62 7.72
3 3 -1 139.68 7.8
3 3 -1 122.39 6.1
3 3 -1 124.35 4.91
-3 3 1 109.51 8.39
3 3 0 113.5 5.89
3 3 0 91.75 6.3
3 3 0 104.49 7.3
3 3 0 92.82 5.08
-3 3 0 111.91 8.41
3 3 1 455.6 13.77
-3 3 -1 460.38 17.13
3 3 1 479.24 17.42
3 3 1 445.51 13.44
3 3 1 462.2 11.71
3 3 2 38.99 3.48
-3 3 -2 36.85 4.66
3 3 2 30.97 3.72
3 3 2 34.99 2.54
3 3 3 99.06 5.27
3 3 3 92.43 3.22
-3 3 -3 120.44 8.18
-3 3 -4 394.75 15.09
3 3 4 362.8 10.35
-3 3 -5 74.78 6.06
3 3 5 78.81 5.08
-3 3 -5 68.46 6.25
3 3 6 216.16 8.78
-3 3 -6 229.48 10.79
-3 3 -6 226.3 11.43
-3 3 -7 172.97 9.47
-3 3 -7 178.79 10.2
-3 3 -8 32.47 4.22
-3 3 -9 60.6 5.89
-3 3 -10 11.75 2.78
3 3 10 15.27 3.55
-3 3 -11 63.73 6.37
3 3 11 57.38 6.34
3 3 12 34.07 5.02
-3 3 -14 40.57 7.47
3 4 -14 16.11 5.13
-3 4 14 19.19 6.26
3 4 -13 50.68 7.89
-3 4 13 52.56 9.16
3 4 -12 12.69 4.47
-3 4 12 14.86 5.14
3 4 -11 44.05 7.05
-3 4 11 37.95 7.64
3 4 -10 16.63 4.32
3 4 -10 19.05 2.88
-3 4 10 7.51 3.67
-3 4 9 119.01 12.33
3 4 -9 113.7 6.98
3 4 -9 109.68 10.22
-3 4 8 94.58 10.65
3 4 -8 116.46 7.39
3 4 -8 110.11 9.92
-3 4 7 86.9 9.93
3 4 -7 84.76 6.49
3 4 -7 76.51 8.08
3 4 -6 6.21 2.7
3 4 -6 4.75 2.17
-3 4 6 3.94 2.84
3 4 -5 100.89 8.59
3 4 -5 85.27 7.05
-3 4 5 95.95 9.83
3 4 -4 2.84 2.15
3 4 -4 0.65 1.78
3 4 -4 3.09 1.33
-3 4 4 2.06 1.57
3 4 -3 25.29 3.3
-3 4 3 14.36 3.75
-3 4 2 20.1 4.36
3 4 -2 28.5 3.95
-3 4 1 17.5 3.9
3 4 -1 10.05 2.59
-3 4 0 -4.35 2.44
3 4 0 -1.3 1.76
3 4 1 219.8 12.75
-3 4 -1 250.42 13.91
3 4 2 155.7 11.25
-3 4 -2 164.41 10.96
3 4 3 104.85 9.81
-3 4 -3 116.05 9.13
3 4 4 7.82 3.28
-3 4 -4 6.34 2.61
3 4 5 335.07 19.23
-3 4 -5 315.34 14.94
3 4 6 107.97 11.32
-3 4 -6 94.54 7.4
-3 4 -6 104.65 8.44
-3 4 -7 120.41 8.33
-3 4 -7 133.22 9.51
-3 4 -8 58.28 5.81
3 4 11 5.27 2.75
3 4 12 31.03 5.58
3 5 -11 13.49 4.76
3 5 -10 -2.98 2.69
-3 5 10 2.25 2.83
3 5 -9 28.59 5.98
-3 5 9 27.43 6.42
3 5 -8 3.21 3.22
3 5 -8 6.5 2.37
-3 5 8 4.58 3.42
3 5 -7 38.74 6.57
3 5 -7 46.02 5.66
-3 5 7 46.17 8.15
3 5 -6 87.21 9.37
3 5 -6 96.54 8.45
-3 5 6 79.51 10.1
3 5 -5 2.23 2.26
3 5 -5 3.75 2.32
-3 5 5 1.39 2.84
3 5 -4 95.57 9.04
-3 5 4 81.77 9.99
3 5 -4 105.28 9.41
3 5 -3 8.76 2.97
3 5 -3 16.9 4.26
-3 5 3 10.12 3.76
-3 5 2 128.36 11.66
-3 5 1 14.17 4.11
3 5 -1 22.02 4.18
-3 5 0 36.31 6.22
3 5 0 43.96 6.11
-3 5 -1 7.9 3.16
3 5 1 2.37 1.8
-3 5 -2 14.51 4.16
3 5 2 15.16 4.16
-3 5 -3 9.08 3.09
3 5 3 -0.01 2.25
-3 5 -4 5.37 2.74
3 5 4 7.83 3.39
-3 5 -5 16.3 3.94
3 5 5 18.69 5.1
-3 5 -6 8.13 3.06
3 5 6 7.9 3.78
3 5 7 83.77 10.93
-3 5 -7 72 7.69
-3 5 -8 1.64 1.97
3 5 8 4.72 3.85
3 5 9 62.25 10.27
3 6 -7 44.71 7.7
3 6 -6 11.33 4.06
3 6 -6 4.87 2.67
3 6 -5 10.14 3.76
-3 6 5 9.76 4.28
-3 6 4 -0.29 2.05
3 6 -4 -3.49 2.8
3 6 -3 9.19 3.77
-3 6 3 1.53 2.64
3 6 -2 -0.99 2.43
-3 6 2 8.01 3.65
3 6 -1 2.65 3.09
-3 6 1 4.57 3.18
-3 6 0 4.07 3.21
-3 6 -1 5.39 3.25
-3 6 -2 54.97 7.87
-3 6 -3 5.36 3.01
3 6 6 19.58 6.42
4 -6 -6 6.42 4.01
4 -6 -5 23.74 6.39
4 -6 -4 7.89 4.01
4 -6 -3 1.69 3.14
4 -6 -2 0.99 2.85
-4 -5 12 -3.9 3.47
4 -5 -11 4.14 3.98
-4 -5 11 8.68 4.74
-4 -5 10 6.34 3.9
4 -5 -10 6.85 4.15
4 -5 -9 10.39 4.94
-4 -5 9 -0.18 2.93
4 -5 -8 5.84 3.29
-4 -5 8 3.4 3.16
-4 -5 7 72.83 8.88
4 -5 -7 75 10.28
4 -5 -6 19.76 5.48
4 -5 -5 12.15 4.8
4 -5 -4 139.74 13.29
4 -5 -3 7.48 4.07
4 -5 -2 65.56 8.95
4 -5 -1 6.5 3.29
4 -5 0 38.04 6.82
4 -5 1 5.88 3.43
4 -5 2 -0.54 2.17
4 -5 3 21.84 5.33
4 -5 3 17.12 4.92
4 -5 4 2.6 3.06
4 -5 4 0.87 2.37
4 -5 5 7.82 4.13
-4 -5 -5 11.03 3.97
4 -5 5 13.98 4.57
4 -5 6 47.97 8.87
-4 -5 -6 64.7 8.43
4 -5 6 61.96 9
4 -5 7 38.13 8.25
-4 -5 -7 29.65 6.26
4 -5 7 31.71 7.02
4 -5 8 21.28 6.88
-4 -5 -8 23.9 5.98
4 -5 8 19.73 5.85
-4 -4 14 4.18 3.51
4 -4 -14 -0.82 3.18
-4 -4 13 74.56 10.95
4 -4 -13 57.83 9.72
4 -4 -12 6.5 3.96
-4 -4 12 9.4 4.71
4 -4 -11 26.28 6.31
-4 -4 11 38.26 7.64
-4 -4 10 64.2 9.08
4 -4 -10 57.17 8.8
4 -4 -9 25.8 5.98
-4 -4 9 22.96 5.58
-4 -4 8 80.43 9.39
4 -4 -8 82.64 9.93
-4 -4 7 3.45 2.79
4 -4 -7 2.7 2.8
-4 -4 6 73.48 8.11
4 -4 -6 67.11 8.6
-4 -4 5 127.29 10.08
4 -4 -5 134.23 11.83
4 -4 -4 18.69 4.95
4 -4 -3 138.11 9.46
4 -4 -3 168.43 12.84
4 -4 -2 100.51 8.64
4 -4 -2 102.69 10.07
4 -4 -1 4.2 2.43
4 -4 -1 1.38 2.81
4 -4 0 23.99 4.94
-4 -4 0 32.15 4.28
4 -4 0 26.75 5.48
-4 -4 -1 134.92 9.03
4 -4 1 136.89 11.58
4 -4 1 145.92 11.76
4 -4 2 28.6 5.9
-4 -4 -2 33.47 4.84
4 -4 2 30.91 5.78
4 -4 3 48.88 7.11
-4 -4 -3 42.66 5.71
4 -4 3 41.98 7.22
-4 -4 -4 107.19 9.36
4 -4 4 95.03 11.15
4 -4 4 89.57 9.47
-4 -4 -5 10.3 3.39
4 -4 5 9.27 4.57
4 -4 5 10.84 3.74
-4 -4 -6 -0.2 1.96
4 -4 6 1.96 3.13
4 -4 6 -1.41 2.22
-4 -4 -7 1.08 2.45
4 -4 7 2.38 3.63
4 -4 7 0.46 2.23
-4 -4 -8 59.69 8.36
4 -4 8 38.55 8.44
4 -4 8 47.16 7.61
-4 -4 -9 40.35 7.05
4 -4 9 28.14 7.84
4 -4 9 28.34 6.11
4 -4 10 3.08 4.32
-4 -4 -10 11.56 4.32
4 -4 10 10.53 3.82
4 -4 11 13.42 4.66
-4 -3 18 59.76 8.9
-4 -3 17 17.56 5.04
-4 -3 16 54.12 9.75
-4 -3 16 48.73 7.86
4 -3 -16 40.75 8.34
4 -3 -15 22.62 6.17
-4 -3 15 18.07 6.06
-4 -3 15 8.11 3.85
-4 -3 14 16.02 5.46
4 -3 -14 13.07 4.88
-4 -3 14 14.38 4.29
-4 -3 13 41.16 7.98
-4 -3 13 30.67 5.92
4 -3 -13 37.63 7.32
-4 -3 12 12.76 4.7
-4 -3 12 16.81 4.46
4 -3 -12 15.58 4.81
-4 -3 11 82.09 10.16
-4 -3 11 78.44 8.81
4 -3 -11 94.4 10.65
-4 -3 10 42.4 7.16
-4 -3 10 38.45 6.14
4 -3 -10 43.82 7.19
-4 -3 9 162.82 12.92
-4 -3 9 171.85 12.3
4 -3 -9 143.71 12.32
-4 -3 8 100.94 9.31
-4 -3 8 83.11 8.81
4 -3 -8 108.3 10.26
-4 -3 7 158.11 11.6
-4 -3 7 165.79 11.6
4 -3 -7 164.81 12.33
-4 -3 6 123.09 9.69
-4 -3 6 144.83 10.56
4 -3 -6 110.99 9.97
-4 -3 5 34.84 4.99
4 -3 -5 30.31 5.32
4 -3 -4 381.68 17.95
-4 -3 3 292.77 9.12
4 -3 -3 294.65 15.39
-4 -3 2 12.82 2.2
4 -3 -2 11.35 3.57
-4 -3 1 143.09 7.39
4 -3 -1 134.67 10.13
4 -3 -1 152.09 10.76
-4 -3 0 23.45 3.31
4 -3 0 22.67 4.53
4 -3 0 19.6 4.15
-4 -3 -1 244.35 11.12
4 -3 1 234.12 14.64
4 -3 1 257.26 14
-4 -3 -2 164.16 9.57
4 -3 2 155.24 12.31
4 -3 2 172.15 11.46
-4 -3 -3 78.32 6.87
4 -3 3 83.55 8.16
4 -3 3 70.16 8.71
-4 -3 -4 106.71 8.57
4 -3 4 119.17 11.63
4 -3 4 125.94 10.06
-4 -3 -5 98.51 8.55
4 -3 5 79.9 10.08
4 -3 5 94.33 8.95
4 -3 6 1.58 2.79
4 -3 6 8.62 3.53
-4 -3 -6 5.98 2.86
-4 -3 -7 50.91 6.72
4 -3 7 37.03 7.87
4 -3 7 45.47 6.68
4 -3 8 11.95 5.24
-4 -3 -8 8.14 3.13
4 -3 8 6.06 3.09
4 -3 9 8.63 4.65
-4 -3 -9 10.43 3.48
4 -3 9 6.52 2.79
4 -3 10 29.04 7.68
-4 -3 -10 18.81 5.08
4 -3 10 35.14 6.43
-4 -3 -11 2.97 2.76
4 -3 11 8.76 3.8
4 -3 11 -2.07 3.64
4 -3 12 -1.19 4.97
-4 -3 -12 -0.72 2.34
4 -3 12 0.49 2.68
4 -3 13 33.97 7
-4 -2 19 18.19 4.98
-4 -2 18 41.22 8.47
-4 -2 18 28.58 5.92
-4 -2 17 24.18 6.74
-4 -2 17 15.45 4.43
-4 -2 16 71.03 8.31
-4 -2 16 83.45 11.53
-4 -2 15 16.48 5.36
4 -2 -15 11.36 4.4
-4 -2 15 11.88 3.7
-4 -2 14 94.64 11.29
4 -2 -14 116.2 11.73
-4 -2 14 113.77 9.87
-4 -2 13 110.84 11.74
-4 -2 13 116.77 9.6
4 -2 -13 120.75 11.76
-4 -2 12 146.76 12.98
-4 -2 12 168.01 11.34
4 -2 -12 146.58 12.5
-4 -2 11 419.06 21.22
-4 -2 11 422.35 17.82
4 -2 -11 429.57 20.81
-4 -2 10 227.52 14.82
-4 -2 10 203.19 5.33
-4 -2 10 204.14 11.9
4 -2 -10 231.25 14.55
-4 -2 9 229.93 14.22
-4 -2 9 245.46 12.6
-4 -2 9 218.62 9.43
4 -2 -9 243.63 14.48
-4 -2 8 240.44 12.19
-4 -2 8 274.78 14.9
-4 -2 8 222.43 8.41
4 -2 -8 237.79 13.91
-4 -2 7 226.02 12.86
-4 -2 7 218.65 7.07
4 -2 -7 213.51 12.73
-4 -2 7 215.79 11.32
4 -2 -7 209.6 9.67
4 -2 -6 474.59 14.73
-4 -2 6 519.3 19.04
-4 -2 6 457.41 16.72
-4 -2 6 499.62 9.03
4 -2 -6 512.63 19.49
-4 -2 5 1034.5 26.72
-4 -2 5 922.38 13.7
-4 -2 5 992.83 25.16
4 -2 -5 1010.5 27.73
-4 -2 4 413.54 8.81
4 -2 -4 443.68 17.21
-4 -2 4 411.67 15.06
-4 -2 3 781.47 15.18
-4 -2 3 796.82 21.74
4 -2 -3 816.14 23.82
-4 -2 2 87.22 6.61
-4 -2 2 102.43 4.93
4 -2 -2 106.66 7.95
-4 -2 1 78.23 4.73
4 -2 -1 82.08 6.95
-4 -2 0 445.81 13.09
4 -2 0 482.8 17.33
-4 -2 -1 33.93 3.68
4 -2 1 36.08 4.76
-4 -2 -2 510.28 15.82
4 -2 2 510.15 18.37
-4 -2 -3 260.89 11.47
4 -2 3 234.57 14.91
4 -2 3 275.01 13.27
4 -2 4 5.94 2.94
-4 -2 -4 2.58 1.74
4 -2 4 2.85 1.75
-4 -2 -5 353.26 14.83
4 -2 5 341.29 19.4
4 -2 5 345.59 15.79
-4 -2 -6 83.2 7.36
4 -2 6 69.46 8.97
4 -2 6 77.86 7.58
-4 -2 -7 295.57 14.59
4 -2 7 275.3 15
4 -2 7 307.77 19.66
-4 -2 -8 141.03 10.62
4 -2 8 122.79 13.05
4 -2 8 136.12 10.91
4 -2 9 2.36 3.12
-4 -2 -9 3.94 2.18
4 -2 9 2.58 2.32
4 -2 10 30.74 7.34
-4 -2 -10 32.11 5.61
4 -2 10 42.46 6.61
4 -2 11 27.26 7.01
-4 -2 -11 23.76 5.19
4 -2 11 25.76 5.53
4 -2 12 7.39 4.62
-4 -2 -12 10.55 3.84
-4 -2 -13 2.3 2.48
4 -2 13 -2.42 3.36
4 -2 14 2.91 4.02
-4 -2 -14 2.52 2.89
4 -1 -20 4.72 2.76
4 -1 -19 3.15 2.31
-4 -1 19 4.58 3.17
-4 -1 19 -2.45 3.83
4 -1 -18 5.23 2.52
-4 -1 18 11.93 3.79
-4 -1 18 11.28 4.68
-4 -1 17 15.33 3.62
-4 -1 17 14.07 4.93
4 -1 -17 9.68 3.03
-4 -1 16 55.43 8.82
-4 -1 16 60.53 6.8
4 -1 -16 61.85 6.46
-4 -1 15 177.69 15.07
4 -1 -15 172.94 10.34
-4 -1 15 176.44 10.98
-4 -1 14 32.18 6.44
-4 -1 14 32.4 4.66
4 -1 -14 38.1 4.86
-4 -1 13 366.52 20.08
4 -1 -13 341.24 13.9
-4 -1 13 345.73 14.64
4 -1 -13 342.4 18.37
4 -1 -12 40.7 6.25
-4 -1 12 51.74 7.19
4 -1 -12 47.89 4.94
-4 -1 12 46.73 5.14
-4 -1 11 74.28 8.3
-4 -1 11 60.83 4.17
-4 -1 11 65.88 5.28
4 -1 -11 63.23 7.28
-4 -1 11 64.08 5.76
4 -1 -11 65.18 5.48
-4 -1 10 185.79 12.42
-4 -1 10 160.39 6.56
-4 -1 10 174.46 7.88
4 -1 -10 162.81 11.08
-4 -1 10 171.71 9.11
4 -1 -10 171.36 8.58
-4 -1 9 782.39 25.67
-4 -1 9 761.75 15.67
-4 -1 9 791.35 17.16
4 -1 -9 828.9 25.26
-4 -1 9 761.77 20.11
4 -1 -9 734.48 19.1
4 -1 -8 14.49 3.36
-4 -1 8 17.03 1.87
-4 -1 8 17 1.86
-4 -1 8 13.39 3.3
-4 -1 8 13.01 2.49
4 -1 -8 20.93 2.91
-4 -1 8 12.89 2.32
-4 -1 7 141.45 5.33
-4 -1 7 150.61 9.66
-4 -1 7 145.45 6.96
4 -1 -7 151.6 9.45
-4 -1 7 146.14 7.53
-4 -1 7 147.33 4.68
4 -1 -7 149.14 7.19
-4 -1 6 2498.03 47.02
-4 -1 6 2375.2 38.54
4 -1 -6 2402.11 46.26
-4 -1 6 2462.68 41.55
-4 -1 6 2438.38 32.65
-4 -1 5 865.93 16.79
4 -1 -5 914.44 23.61
-4 -1 5 922.65 20.26
-4 -1 5 868.37 12.98
-4 -1 4 796.3 14.56
-4 -1 4 779.05 14.26
-4 -1 4 791.69 18.16
4 -1 -4 760 21.11
-4 -1 4 784.04 17.82
-4 -1 3 129.52 4.95
-4 -1 3 128.77 4.4
-4 -1 3 125.47 6.35
4 -1 -3 135.26 7.95
-4 -1 3 128.96 5.84
-4 -1 2 768.72 15.49
-4 -1 2 811.32 17.88
4 -1 -2 800.16 20.51
-4 -1 2 776.86 15.82
-4 -1 1 169.84 6.47
4 -1 -1 170.36 8.68
-4 -1 1 175.52 7.15
-4 -1 1 171.71 5.71
-4 -1 0 1597.67 28.28
-4 -1 0 1642.92 28.51
4 -1 0 1603.41 32.65
-4 -1 0 1618.79 24.46
-4 -1 -1 1198.52 23.97
-4 -1 -1 1219.05 18.56
4 -1 1 1274.47 27.9
-4 -1 -2 700.43 17.51
4 -1 2 765.18 20.71
-4 -1 -2 705.87 11.51
-4 -1 -3 174.44 8.42
-4 -1 -3 183.71 4.35
4 -1 3 179.06 9.73
-4 -1 -4 18.13 2.97
4 -1 4 18.36 3.48
4 -1 5 90.83 9.4
-4 -1 -5 91.55 6.73
4 -1 6 17.48 4.47
-4 -1 -6 16.96 1.72
-4 -1 -6 19.43 3.38
4 -1 7 198.28 14.98
-4 -1 -7 237.11 12.01
-4 -1 -7 225.1 6.88
-4 -1 -8 76.54 7.09
4 -1 8 77.07 9.77
-4 -1 -8 79.25 4.19
4 -1 9 141.15 13.63
-4 -1 -9 156.42 10.76
-4 -1 -10 61.53 7.09
4 -1 10 67.03 9.86
-4 -1 -11 64.42 7.62
4 -1 11 61.15 9.83
-4 -1 -12 40.32 6.33
4 -1 12 27.61 6.94
-4 -1 -13 3.32 2.53
4 -1 13 -1.05 3.51
4 -1 14 6.65 4.53
-4 -1 -14 8.65 3.57
4 -1 15 33.42 8.82
-4 -1 -15 49.37 7.96
4 0 -20 7.36 2.79
-4 0 20 18.47 6.01
4 0 -19 -2.57 2.48
-4 0 19 2.29 2.12
-4 0 18 16.98 5.11
4 0 -18 11.99 3.56
-4 0 18 14.31 3.69
-4 0 17 27.94 4.65
4 0 -17 26.36 4.77
-4 0 17 9.48 3.36
-4 0 17 23.09 5.77
4 0 -16 54.06 6.25
-4 0 16 51.11 7.2
-4 0 16 57.02 8.48
-4 0 16 51.68 5.93
-4 0 15 17.59 4.29
-4 0 15 26.53 5.91
-4 0 15 31.75 4.56
4 0 -15 20.67 3.96
-4 0 14 -4.15 2.97
-4 0 14 0.58 1.75
4 0 -14 1.27 1.69
-4 0 14 0.78 1.83
-4 0 13 1.47 2.04
4 0 -13 6.34 2.35
-4 0 13 5.27 2.1
-4 0 12 475.11 20.59
-4 0 12 493.37 16.26
-4 0 12 498.76 18.89
4 0 -12 468.84 16.42
-4 0 11 562.97 16.93
-4 0 11 532.65 18.72
4 0 -11 545.35 20.15
4 0 -11 525.63 16.88
-4 0 11 531 20.9
-4 0 10 15.28 3.29
4 0 -10 16.27 3.45
-4 0 10 14.41 2.9
4 0 -10 11.37 2.44
-4 0 10 18.79 3.07
-4 0 9 98.57 7.9
-4 0 9 83.5 6.26
-4 0 9 96.9 6.23
4 0 -9 80.98 6.73
4 0 -9 85.34 5.86
4 0 -8 1819.07 33.62
-4 0 8 1862.01 38.89
-4 0 8 1872.54 34.03
-4 0 8 1810.36 33.5
-4 0 8 1817.7 34.69
4 0 -8 1775.61 36.79
-4 0 7 675.84 17.22
-4 0 7 687.43 16.85
4 0 -7 690.32 19.09
-4 0 7 693 17.08
4 0 -7 682.06 16.82
-4 0 6 631.12 15.42
-4 0 6 615.02 15.07
4 0 -6 606.12 15.69
4 0 -6 609.08 15.09
-4 0 6 613.54 17.07
4 0 -6 642.37 17.34
-4 0 5 3548.96 53.15
-4 0 5 3600.2 53.02
4 0 -5 3584.3 54.19
-4 0 5 3585.59 56.01
4 0 -5 3626.04 53.12
4 0 -5 3608.69 56.15
4 0 -4 1714.71 30.06
-4 0 4 1674.13 28.73
-4 0 4 1749.68 31
4 0 -4 1738.41 31.68
4 0 -4 1769.02 29.15
-4 0 4 1764.08 29.32
-4 0 4 1764.47 29.19
-4 0 3 2620.33 39.3
-4 0 3 2728.11 40.04
4 0 -3 2589.93 40.96
-4 0 3 2579.3 41.47
4 0 -3 2573.5 42.26
-4 0 3 2658.68 40.03
4 0 -3 2606.18 39.64
-4 0 3 2628.89 39.74
-4 0 2 258.26 7.5
4 0 -2 253.4 8.62
-4 0 2 253.69 8.76
4 0 -2 266.13 9.2
-4 0 2 266.57 7.78
-4 0 2 266.9 8.27
-4 0 2 266.06 8.16
-4 0 1 2009.1 29.44
-4 0 1 1951.01 33.08
-4 0 1 2015.35 30.42
4 0 -1 1963.76 33.64
4 0 -1 1966.83 32.76
-4 0 1 1981.17 31.96
-4 0 0 536.21 13.82
-4 0 0 522.29 12.32
4 0 0 522.58 14.23
-4 0 0 535.23 13.16
4 0 0 503.54 13.31
-4 0 0 518.65 10.44
4 0 1 0.99 0.8
-4 0 -1 1.51 0.75
-4 0 -1 1.83 0.53
-4 0 -1 1.09 1.04
4 0 1 4.23 1.51
-4 0 -2 293.28 10.4
-4 0 -2 308.74 8.68
-4 0 -2 301.67 6.13
-4 0 -3 723.32 18.14
-4 0 -3 714.55 14.9
-4 0 -4 391.48 13.14
-4 0 -4 377.43 10.19
-4 0 -5 313.34 12.11
-4 0 -5 302.79 9.34
-4 0 -6 1217.73 28.06
4 0 6 1227.77 36.08
4 0 7 1569.88 43.25
-4 0 -7 1617.34 34.81
-4 0 -8 98.28 7.68
4 0 8 91.99 10.02
4 0 9 360.49 20.79
-4 0 -9 390.59 16.37
-4 0 -10 126.31 9.63
4 0 10 136.51 12.98
-4 0 -10 124.81 7.97
4 0 11 177.04 15.36
-4 0 -11 163.28 11.4
-4 0 -11 158.41 9.33
4 0 12 30.85 6.83
-4 0 -12 23.35 5
4 0 13 -5.23 3.91
-4 0 -13 8.15 3.08
4 0 14 13.13 5.77
-4 0 -14 27.44 5.7
4 0 15 17.45 6.22
-4 0 -15 9.27 3.68
4 0 16 1.59 3.39
4 1 -19 2 2.35
-4 1 19 1.94 3.02
-4 1 19 4.71 2.65
-4 1 18 15.4 5.24
-4 1 18 13.18 3.67
4 1 -18 8.32 3.3
-4 1 18 8.06 3.84
-4 1 17 16.02 3.73
-4 1 17 10.63 4.27
-4 1 17 16.49 4.61
4 1 -17 8.73 3.39
-4 1 16 57.46 8.42
-4 1 16 69.3 7.03
4 1 -16 58.88 6.94
-4 1 16 55.15 7.59
-4 1 15 154.06 12.02
-4 1 15 145.86 12.76
4 1 -15 161.76 11.04
4 1 -14 28.63 4.67
-4 1 14 28.91 5.67
-4 1 14 36.09 5.67
-4 1 13 350.49 16.77
-4 1 13 342.5 18.13
4 1 -13 350.67 15.38
-4 1 12 47.61 6.51
4 1 -12 51.99 5.63
-4 1 12 43.07 5.58
-4 1 11 73.85 6.93
-4 1 11 75.14 7.69
4 1 -11 64.55 6.08
-4 1 10 175.57 11.19
4 1 -10 167.14 9.31
-4 1 9 761.34 23.73
4 1 -9 791 20.93
-4 1 8 16.94 3.44
4 1 -8 19.02 2.96
-4 1 7 137.61 8.66
4 1 -7 144.99 6.88
4 1 -7 147.2 7.54
-4 1 6 2376.66 44.06
4 1 -6 2332.73 37.53
4 1 -6 2365.93 39.77
-4 1 5 893.63 22.49
4 1 -5 913.41 17.28
4 1 -5 876.72 17.7
4 1 -5 905.76 19.3
4 1 -4 790.67 16.7
-4 1 4 796.18 20.16
4 1 -4 784.28 13.21
4 1 -4 765 16.27
4 1 -4 761.54 14.75
-4 1 3 130.85 7.23
4 1 -3 144.42 5.99
4 1 -3 132.94 5.51
4 1 -3 134.25 5.87
4 1 -3 131.27 4.82
4 1 -3 136.96 4.54
4 1 -2 792.78 16.5
4 1 -2 805.97 15.11
4 1 -2 772.33 14.72
4 1 -2 811.72 16.44
4 1 -2 760.69 14.47
-4 1 2 788.01 19.32
4 1 -1 171.75 6.75
4 1 -1 160.62 5.89
4 1 -1 174.89 5.4
4 1 -1 163.87 5.86
4 1 -1 162.49 6.1
-4 1 1 174.86 8.07
4 1 -1 174.75 6.69
4 1 0 1671.4 29.16
4 1 0 1704.18 28.33
4 1 0 1582.15 26.55
-4 1 0 1615.58 30.76
4 1 1 1284.41 23.06
4 1 1 1160.2 20.82
-4 1 -1 1230.46 25.45
-4 1 -2 727.29 18.44
4 1 2 748.92 16.24
4 1 2 679.97 13.99
-4 1 -2 788.66 18.96
-4 1 -3 174.83 8.48
4 1 3 187.82 7.4
4 1 3 176.29 5.83
-4 1 -3 193.61 8.81
-4 1 -4 18.93 1.5
4 1 4 16.17 1.69
4 1 4 16.42 2.22
-4 1 -4 15.7 1.9
-4 1 -4 17.6 2.89
-4 1 -5 90.73 6.42
4 1 5 82.27 3.73
4 1 5 84.18 4.98
-4 1 -5 83.86 4.1
-4 1 -5 83.36 2.31
4 1 6 17.34 1.71
4 1 6 16.4 3.93
-4 1 -6 14.18 1.72
4 1 6 14.07 2.17
-4 1 -6 18.36 3.1
4 1 7 204.2 13.45
-4 1 -7 232.89 11.18
4 1 7 211.1 6.12
-4 1 -7 222.99 6.84
4 1 7 217.89 8.35
4 1 8 72.13 8.28
-4 1 -8 85.29 6.99
4 1 8 77.85 4.9
4 1 9 133.55 11.78
-4 1 -9 151.44 9.71
4 1 9 165.58 7.28
-4 1 -10 57.39 6.25
4 1 10 57.96 4.27
4 1 10 51.26 7.9
-4 1 -11 58.15 6.69
4 1 11 48.64 7.76
4 1 12 31.32 6.4
-4 1 -12 28.3 4.95
-4 1 -12 40.02 5.82
-4 1 -13 4.69 2.47
4 1 13 3.67 3.47
-4 1 -13 6.05 2.75
4 1 14 4.47 3.47
-4 1 -14 6.63 3
4 1 15 50.84 9.38
-4 1 -15 40.03 6.6
-4 1 -16 25.27 5.37
-4 2 19 19.74 4.35
-4 2 18 32.91 7.86
4 2 -18 51.86 7.63
4 2 -17 36.14 6.24
-4 2 17 29.61 7.13
-4 2 16 68.37 9.99
4 2 -16 74.51 8.37
-4 2 15 11.32 4.58
4 2 -15 12.7 3.75
-4 2 14 109.18 11.53
4 2 -14 113.99 9.67
-4 2 13 115.54 11.54
4 2 -13 122.68 9.86
-4 2 12 149.69 12.55
4 2 -12 148.03 10.41
-4 2 11 419.42 20.54
4 2 -11 424.71 17.37
-4 2 10 202.39 13.62
4 2 -10 228.68 11.96
-4 2 9 228.92 13.93
4 2 -9 223.89 8.15
4 2 -9 228.68 11.53
-4 2 8 248.82 13.99
4 2 -8 231.79 8.41
4 2 -8 262.43 11.85
-4 2 7 226.8 12.89
4 2 -7 223.97 8.2
4 2 -7 211.59 10.26
-4 2 6 471.55 18.47
4 2 -6 494.92 13.05
4 2 -6 501.91 15.61
-4 2 5 978.33 27.21
4 2 -5 1008.25 20.78
4 2 -5 1023.4 22.89
-4 2 4 425.46 16.43
4 2 -4 442 12.55
4 2 -4 437.12 12.92
4 2 -3 801.58 15.2
4 2 -3 822.16 18.56
-4 2 3 798.4 22.95
4 2 -3 812.72 17.93
4 2 -2 106.18 4.89
4 2 -2 110.05 6.09
4 2 -2 93.11 4.81
-4 2 2 106.82 7.59
4 2 -1 82.7 5.42
4 2 -1 81.8 4.64
4 2 -1 79.78 3.66
4 2 -1 78.76 3.94
-4 2 1 81.46 6.6
-4 2 0 430.33 15.38
4 2 0 469.09 13.91
4 2 0 427.69 11.6
4 2 0 462.3 14.54
4 2 0 464.58 9.51
4 2 1 36.81 1.79
4 2 1 37.77 3.85
-4 2 -1 26.2 3.62
4 2 1 30.63 3.21
4 2 2 512.62 15.08
4 2 2 473.62 14.75
-4 2 -2 519.55 16.77
4 2 3 276.7 10.87
-4 2 -3 262.78 11.56
4 2 4 3.66 1.45
-4 2 -4 3.3 1.74
-4 2 -4 5.98 2.11
-4 2 -5 346.73 11.15
-4 2 -5 365.23 13.88
4 2 5 368.72 13.06
-4 2 -5 369.95 14.2
-4 2 -6 83.85 6.6
-4 2 -6 69.94 4.43
4 2 6 79.57 5.92
4 2 7 272.97 14.48
-4 2 -7 290.62 12.82
4 2 7 273.16 11.28
4 2 8 149.84 11.01
-4 2 -8 136.11 8.96
4 2 8 133.64 7.82
4 2 9 2.92 2.35
4 2 9 5.33 1.83
-4 2 -9 3.37 1.95
4 2 10 39.02 4.29
-4 2 -10 37.35 5.12
4 2 10 31.84 5.59
4 2 11 27.8 5.46
4 2 11 25.29 3.52
-4 2 -11 28.34 4.77
-4 2 -12 11.56 3.29
-4 2 -13 1.69 1.9
-4 2 -14 7.85 4.08
-4 2 -14 7.86 3.24
-4 2 -15 11.8 4.61
-4 2 -15 14.09 3.69
-4 3 16 68.63 10.65
4 3 -16 51.02 7.63
-4 3 15 18.76 5.55
4 3 -15 11.01 4.52
4 3 -14 22.31 5.06
-4 3 14 11.09 4.07
4 3 -13 37.71 6.08
-4 3 13 40.61 7.49
4 3 -12 14.28 3.9
-4 3 12 6.05 3.69
-4 3 11 91.21 10.45
4 3 -11 92.56 5.54
4 3 -11 94.14 8.85
4 3 -10 38.87 5.58
4 3 -10 40.33 3.79
-4 3 10 49.52 7.58
-4 3 9 157.64 12.82
4 3 -9 166.23 7.66
4 3 -9 145.55 10.22
-4 3 8 87.11 9.38
4 3 -8 104.79 6.14
4 3 -8 92.71 7.91
-4 3 7 154.01 11.98
4 3 -7 155.4 7.76
4 3 -7 157.17 9.84
-4 3 6 145.14 11.36
4 3 -6 139.31 7.45
4 3 -6 139.71 8.83
4 3 -5 34.06 4.26
4 3 -5 33.29 3.77
-4 3 5 33.47 5.42
4 3 -5 31.46 1.62
4 3 -4 373.38 9.39
-4 3 4 388.23 17.64
4 3 -4 359.79 8.41
4 3 -4 358.81 13.03
4 3 -4 361.82 13.44
4 3 -3 285.88 9.65
4 3 -3 285.22 8.36
4 3 -3 311.27 12.21
-4 3 3 275.78 14.51
4 3 -3 309.4 11.48
4 3 -2 12.73 2.24
4 3 -2 11.16 2.21
-4 3 2 10.95 2.99
4 3 -2 11.99 1.84
4 3 -2 14.24 2.89
4 3 -1 137.04 8
-4 3 1 148 10.09
4 3 -1 154.31 8.89
4 3 -1 143.77 4.79
4 3 -1 155.95 6.86
4 3 0 26.8 3.91
-4 3 0 21.34 3.8
4 3 0 25.02 2.51
4 3 0 22.6 2.34
4 3 1 221.21 10.1
4 3 1 246.31 11.74
4 3 1 240.18 9.48
-4 3 -1 236.33 12.43
4 3 1 239.85 6.73
4 3 2 151.06 7.96
4 3 2 164.23 9.65
4 3 2 147.85 3.72
-4 3 -2 161.24 10.05
4 3 3 80.44 5.55
4 3 3 76.23 6.77
-4 3 -3 73.36 6.81
4 3 4 125.16 8.72
-4 3 -4 123.69 8.79
4 3 5 107.95 8.23
-4 3 -5 99.73 7.56
-4 3 -5 85.95 7.36
-4 3 -6 4.97 2.22
4 3 6 2.63 1.59
4 3 6 6.98 2.54
-4 3 -6 4.3 2.03
-4 3 -7 49.67 5.52
4 3 7 47.41 5.59
4 3 8 13.29 3.35
-4 3 -8 15.83 3.29
4 3 9 3 2.22
-4 3 -9 7.83 2.5
4 3 10 37.1 5.05
-4 3 -10 24.77 4.23
-4 3 -11 0.27 1.27
4 3 11 2.72 1.71
-4 3 -12 4.51 2.33
4 4 -14 2.65 2.96
-4 4 14 0.4 3.24
-4 4 13 78.77 11.32
4 4 -13 81.36 9.6
4 4 -12 4.54 3.12
-4 4 12 8.28 4.61
4 4 -11 30.53 5.78
-4 4 11 31.32 6.84
4 4 -10 61.7 7.74
4 4 -10 54.34 4.87
-4 4 10 47.47 8.24
4 4 -9 25.39 5.24
4 4 -9 25.16 3.59
-4 4 9 26.71 6
-4 4 8 87.51 10.33
4 4 -8 76.3 6.09
4 4 -8 86.86 8.6
4 4 -7 3 2.19
4 4 -7 4.33 2.14
-4 4 7 6.48 3.28
-4 4 6 80.52 9.33
4 4 -6 78.64 6.55
4 4 -6 76.1 7.56
-4 4 5 144.08 12.23
4 4 -5 132.73 8.78
4 4 -5 129.66 9.38
4 4 -4 13.24 3.25
4 4 -4 21.66 3.86
-4 4 4 23.03 5.17
-4 4 3 158.4 12.15
4 4 -3 139.98 7.77
4 4 -3 183.14 10.86
4 4 -3 166.32 9.64
4 4 -2 87.78 6.69
4 4 -2 90.44 7.91
4 4 -2 108.63 7.3
-4 4 2 105.95 9.81
4 4 -1 -1.09 1.39
4 4 -1 -0.72 2.06
-4 4 1 0.97 2.01
4 4 -1 2.19 1.63
4 4 0 27.91 3.33
4 4 0 45.51 6.05
-4 4 0 30.93 5.52
4 4 0 30.31 4.67
4 4 1 139.32 10.33
4 4 1 153.74 10.65
-4 4 -1 146 10.89
4 4 2 41.37 6.11
4 4 2 24 4.71
-4 4 -2 33.84 5.22
4 4 3 43.53 6.6
-4 4 -3 46.76 6.15
4 4 3 41.24 5.98
4 4 4 111.12 10.53
4 4 4 122.81 9.99
-4 4 -4 87.32 8.27
4 4 5 18.22 4.25
-4 4 -5 16.2 3.94
-4 4 -5 8.75 2.76
-4 4 -6 0.9 1.56
4 4 6 -0.93 2.17
-4 4 -6 2.25 1.68
-4 4 -7 0.93 2.06
-4 4 -7 -1.39 1.62
4 4 7 -0.35 1.96
4 4 8 68.3 7.72
-4 4 -8 46.21 5.72
4 4 9 28.53 5.23
4 4 10 6.64 3.11
4 4 11 7.34 3.12
4 5 -11 11.27 4.48
4 5 -10 4.95 3.62
-4 5 10 6 3.88
4 5 -9 0.01 2.41
4 5 -9 -0.57 1.56
-4 5 9 1.19 3.15
4 5 -8 2.74 2.27
4 5 -8 8.82 2.73
-4 5 8 4.68 3.64
4 5 -7 61.1 7.89
4 5 -7 78.77 7.37
-4 5 7 78.81 10.48
4 5 -6 19.28 4.55
4 5 -6 19.16 4.03
-4 5 6 19.34 5.26
4 5 -5 5.01 2.82
-4 5 5 8.48 4.16
4 5 -4 167.96 11.42
-4 5 4 166.33 14.08
4 5 -4 182.12 12.27
4 5 -3 7.69 2.69
4 5 -3 8.49 3.29
-4 5 3 13.86 4.57
4 5 -2 85.98 8.76
-4 5 2 70.77 8.91
4 5 -1 9.65 3.45
-4 5 1 8.41 3.7
4 5 0 30.29 5.64
-4 5 0 34.59 6.09
4 5 1 5.28 3.16
-4 5 -1 5.35 2.92
4 5 1 8.12 3.05
4 5 2 2.35 2.33
-4 5 -2 -0.68 1.89
4 5 2 0.93 1.68
4 5 3 11.15 3.8
-4 5 -3 27.02 5.29
4 5 3 26.03 5.37
-4 5 -4 0.07 1.91
4 5 4 0.3 2.1
-4 5 -5 18.49 4.23
4 5 5 7.95 3.4
4 5 5 8.36 3.81
4 5 6 58.02 9.41
-4 5 -6 59.86 7.43
4 5 6 71.3 8.65
4 5 7 29.76 6.79
4 5 7 29.07 5.85
-4 5 -7 21.52 4.67
4 5 8 9.06 4.6
4 6 -8 5.24 3.22
4 6 -7 16.04 4.22
4 6 -6 -0.93 1.99
4 6 -5 27.81 5.55
4 6 -4 8.81 3.23
-4 6 3 7.51 4.01
-4 6 2 2.11 3.24
-4 6 1 15.45 5.2
-4 6 0 4.22 3.42
-4 6 -1 20.63 5.33
-4 6 -2 30.72 6.27
-4 6 -3 12.91 4.21
-4 6 -4 4.1 2.89
5 -6 -4 4.51 4.02
5 -6 -3 -1.64 3.19
5 -6 -2 -2.76 3.29
5 -6 -1 12.64 5.28
5 -6 0 4.89 4.02
5 -6 1 15.06 5.3
-5 -5 12 -0.01 2.7
-5 -5 11 0.29 2.59
5 -5 -10 22.27 6.45
-5 -5 10 27.79 6.6
5 -5 -9 87.21 11.6
-5 -5 9 95.63 11.17
5 -5 -8 13.96 5.61
5 -5 -7 48.93 8.66
5 -5 -6 11.5 4.7
5 -5 -5 15.79 5.24
5 -5 -4 63.53 9.23
5 -5 -3 25.5 6.42
5 -5 -2 32.67 6.93
5 -5 -1 40.96 7.35
5 -5 0 9.9 4.32
5 -5 1 3.62 3.12
5 -5 2 -1.29 2.29
5 -5 3 6.65 3.7
5 -5 3 1.78 2.7
5 -5 4 10.66 4.61
-5 -5 -4 10.14 3.69
5 -5 4 11.26 5.36
5 -5 5 14.59 5.57
-5 -5 -5 17.32 4.85
5 -5 5 17.47 5.19
5 -5 6 13.57 5.49
-5 -5 -6 3.63 2.86
5 -5 6 6.65 3.86
5 -5 7 9.97 5.39
-5 -5 -7 11.38 4.31
5 -5 7 13.3 5.21
-5 -4 14 1.39 3.14
-5 -4 13 83.88 11.34
5 -4 -13 54.13 9.58
5 -4 -12 3.9 3.55
-5 -4 12 2.05 3.07
5 -4 -11 34.06 7.13
-5 -4 11 31.24 6.9
-5 -4 10 3.01 2.46
5 -4 -10 0.97 3.5
-5 -4 9 44.23 7.32
5 -4 -9 43.54 7.77
-5 -4 8 127.89 11.75
5 -4 -8 121.12 12.37
-5 -4 7 13.92 4.19
5 -4 -7 13.81 4.49
5 -4 -6 38.65 7.06
5 -4 -5 50.24 7.64
5 -4 -4 11.4 3.32
5 -4 -4 5.69 3.26
5 -4 -3 50.98 6.66
5 -4 -3 62.54 8.3
5 -4 -2 25.78 5.12
5 -4 -2 40.04 6.64
-5 -4 1 150.38 8.81
5 -4 -1 142.65 11.85
5 -4 -1 162.75 13.23
-5 -4 0 325.05 14.06
5 -4 0 331.02 18.93
5 -4 0 353.03 19.48
-5 -4 -1 253.64 12.92
5 -4 1 248.13 16.94
5 -4 1 260.05 16.72
5 -4 2 17.03 5.24
-5 -4 -2 14.88 3.54
5 -4 2 9.52 3.95
5 -4 3 2.42 2.94
-5 -4 -3 9.21 3.1
5 -4 3 5.55 3.12
5 -4 4 28.2 6.82
-5 -4 -4 37.6 5.82
5 -4 4 35.78 6.53
5 -4 5 22.64 6.35
-5 -4 -5 12.48 3.9
5 -4 5 15.85 4.58
5 -4 6 34.88 8.26
-5 -4 -6 54.41 7.47
5 -4 6 44.16 7.29
5 -4 7 3.9 4.12
-5 -4 -7 7.08 3.65
5 -4 7 5.13 3.38
5 -4 8 46.2 9.62
-5 -4 -8 50.72 7.86
5 -4 8 43.88 7.72
5 -4 9 0.36 3.19
-5 -4 -9 9.9 4.21
5 -4 10 3.24 3.3
-5 -3 17 53.57 8.57
5 -3 -16 5 4.01
-5 -3 16 9.92 4.97
-5 -3 16 7.8 3.74
5 -3 -15 37.2 8.05
-5 -3 15 28.62 6.95
-5 -3 15 29.37 6.07
5 -3 -14 54.41 8.8
-5 -3 14 53.86 9.08
-5 -3 14 61.44 8.45
-5 -3 13 86.61 11
-5 -3 13 83.93 9.6
5 -3 -13 77.68 10.31
-5 -3 12 15.01 4.8
-5 -3 12 11.57 4
5 -3 -12 21.92 5.71
-5 -3 11 50.91 7.32
5 -3 -11 62.75 8.85
-5 -3 10 263.52 17.07
-5 -3 10 276.47 16.37
5 -3 -10 267.54 17.52
-5 -3 9 273.65 16.78
-5 -3 9 269.86 15.87
5 -3 -9 282.08 17.48
-5 -3 8 27.45 5.31
-5 -3 8 22.14 4.97
5 -3 -8 26.94 5.71
-5 -3 7 56.17 6.98
-5 -3 7 58.03 7.12
5 -3 -7 67.77 8.32
-5 -3 6 55.1 6.97
5 -3 -6 67.74 8.07
5 -3 -5 376.61 18.77
-5 -3 4 148.56 6.01
5 -3 -4 141.45 11.17
-5 -3 3 21.76 2.65
5 -3 -3 29.47 5.32
-5 -3 2 17.93 2.7
5 -3 -2 14.95 3.93
-5 -3 1 58.04 4.97
5 -3 -1 51.14 6.68
5 -3 0 3.69 2.65
-5 -3 0 5.44 2.01
-5 -3 -1 59.16 5.74
5 -3 1 47.48 7.42
5 -3 1 55.31 6.9
-5 -3 -2 220.38 11.59
5 -3 2 203.63 15.32
5 -3 2 222.56 14.02
5 -3 3 44.93 7.84
-5 -3 -3 44.47 5.52
5 -3 3 37.49 6.1
-5 -3 -4 194.48 11.9
5 -3 4 208.52 16.4
5 -3 4 207.68 13.9
-5 -3 -5 234.84 13.61
5 -3 5 216.38 17.43
5 -3 5 234.12 14.94
5 -3 6 53.99 9.26
-5 -3 -6 61.5 7.16
5 -3 6 56.96 7.68
-5 -3 -7 159.05 12.07
5 -3 7 146.01 15.27
5 -3 7 182.17 13.74
5 -3 8 60.99 10.59
-5 -3 -8 63.24 8.03
5 -3 8 74.31 9.16
5 -3 9 6.65 4.39
-5 -3 -9 3.86 3.14
5 -3 9 -1.5 2.68
5 -3 10 4.61 4.53
-5 -3 -10 4.83 3.1
5 -3 10 -1.88 2.76
5 -3 11 28.68 8.18
-5 -3 -11 42.64 7.31
5 -3 11 44.48 7.87
5 -3 12 22.31 6.03
-5 -2 19 10.51 4.3
-5 -2 18 34.97 6.42
-5 -2 17 17.84 6.08
-5 -2 17 16.73 4.77
-5 -2 16 4.81 3.17
-5 -2 16 8.86 3.61
5 -2 -16 10.11 4.74
-5 -2 15 130.51 13.63
-5 -2 15 120.39 10.71
5 -2 -15 131.88 13.11
-5 -2 14 97.02 11.36
-5 -2 14 112.52 10.02
5 -2 -14 98.47 11.02
-5 -2 13 104.32 11.41
-5 -2 13 115.56 9.98
5 -2 -13 90.44 10.35
-5 -2 12 217.35 15.76
-5 -2 12 229.02 13.7
5 -2 -12 230.4 15.86
-5 -2 11 77.84 9.03
-5 -2 11 57.09 6.66
5 -2 -11 72.69 8.65
-5 -2 10 278.37 16.5
-5 -2 10 282.99 14.5
5 -2 -10 296.8 16.88
-5 -2 9 3.72 2.67
-5 -2 9 8.74 1.84
-5 -2 9 9.67 2.94
5 -2 -9 5.17 3.26
-5 -2 8 638.02 23.73
-5 -2 8 653.55 21.62
-5 -2 8 639.39 14.19
5 -2 -8 674.33 24.6
-5 -2 7 375.08 17.13
-5 -2 7 365.06 15.25
-5 -2 7 344.26 7.63
5 -2 -7 360.12 17.2
-5 -2 6 49.95 2.28
5 -2 -6 52.58 6.49
-5 -2 6 55.03 5.74
-5 -2 5 72.07 3.4
-5 -2 5 77.53 6.62
5 -2 -5 83.93 7.88
-5 -2 4 18.72 1.98
5 -2 -4 16.18 3.64
-5 -2 4 15.84 3.09
-5 -2 3 79.28 4.43
-5 -2 3 71.97 6.23
5 -2 -3 67.82 6.94
-5 -2 2 55.8 5.43
-5 -2 2 49.86 3.8
5 -2 -2 56.11 6.17
5 -2 -1 64.1 6.68
-5 -2 1 60.56 4.56
-5 -2 0 15.94 2.58
5 -2 0 15.35 3.45
-5 -2 -1 121.45 7.29
5 -2 1 136.71 9.72
-5 -2 -2 285.68 12.01
5 -2 2 315.14 15.09
-5 -2 -3 191.13 10.13
5 -2 3 169.26 13.57
5 -2 3 168.25 11.17
-5 -2 -4 96.27 7.65
5 -2 4 105.22 10.96
5 -2 4 104.59 8.93
-5 -2 -5 362.38 15.61
5 -2 5 370.78 21.43
5 -2 5 387.08 18.03
-5 -2 -6 313.63 15.22
5 -2 6 348.47 21.35
5 -2 6 330.15 16.98
-5 -2 -7 155.99 10.93
5 -2 7 129.31 13.56
5 -2 7 167.55 12.38
-5 -2 -8 120.17 10.08
5 -2 8 124.79 13.66
5 -2 8 132.93 11.35
5 -2 9 13.88 5.29
-5 -2 -9 19.29 4.45
5 -2 9 17.04 4.71
5 -2 10 2.67 3.47
-5 -2 -10 4.05 2.77
5 -2 10 4.42 2.87
5 -2 11 1.35 3.73
-5 -2 -11 6.67 3.54
5 -2 11 7.29 3.92
5 -2 12 24.19 7.35
-5 -2 -12 23.08 5.71
5 -2 12 36.82 7.26
5 -2 13 41.91 9.76
5 -2 13 41.33 8.05
5 -1 -20 1.46 2.5
-5 -1 20 5.54 3.12
-5 -1 19 2.41 2.27
-5 -1 19 8.25 4.39
5 -1 -19 1.25 2.22
5 -1 -18 24.84 4.75
-5 -1 18 23.6 6.69
-5 -1 18 24.25 4.91
-5 -1 17 34.49 7.43
-5 -1 17 24.43 4.76
5 -1 -17 27.96 4.78
-5 -1 16 98.31 11.59
5 -1 -16 86.96 7.82
-5 -1 16 102.32 8.94
-5 -1 15 75.84 9.9
5 -1 -15 72.57 7.05
-5 -1 15 72.9 7.39
5 -1 -15 84.56 9.85
-5 -1 14 313.3 19.32
-5 -1 14 298.07 14.51
5 -1 -14 298.26 17.93
5 -1 -14 286.04 13.6
-5 -1 13 200.45 14.74
-5 -1 13 188.06 9.8
5 -1 -13 204.11 10.94
5 -1 -13 222.12 14.76
-5 -1 13 194.64 11.2
-5 -1 12 201.27 14.22
-5 -1 12 202.08 9.36
5 -1 -12 216.67 10.92
5 -1 -12 221.28 14.31
-5 -1 12 199.94 11.02
-5 -1 11 113.69 10.25
-5 -1 11 122.38 6.58
5 -1 -11 101.13 9.34
-5 -1 11 123.73 8.26
5 -1 -11 119.41 7.79
-5 -1 10 84.8 8.45
-5 -1 10 82.01 4.82
-5 -1 10 68.5 4.41
5 -1 -10 84.24 6.32
5 -1 -10 91.41 8.51
-5 -1 10 88.03 6.71
-5 -1 9 624.77 13.53
-5 -1 9 599.55 22.44
-5 -1 9 613.6 14.56
5 -1 -9 651.62 22.56
-5 -1 9 622.39 18.51
5 -1 -9 602.83 17.57
-5 -1 8 200.64 7.37
-5 -1 8 198.23 11.97
-5 -1 8 172.25 8.37
5 -1 -8 187.63 11.37
-5 -1 8 184.76 9.2
5 -1 -8 188.07 8.97
-5 -1 8 184.54 5.85
-5 -1 7 1.01 0.54
-5 -1 7 -0.01 1.59
-5 -1 7 1.48 0.96
5 -1 -7 0.99 1.74
-5 -1 6 43.04 3.4
5 -1 -6 51.79 5.65
-5 -1 6 48.43 4.48
-5 -1 6 41.4 2.25
5 -1 -5 26.73 4.18
-5 -1 5 29.51 2.61
-5 -1 5 35.5 3.71
-5 -1 5 32.67 2.09
-5 -1 4 75.76 4.26
-5 -1 4 71.64 3.85
5 -1 -4 82.28 6.71
-5 -1 4 73.83 5.13
-5 -1 3 991.75 19.6
-5 -1 3 990.32 21.66
5 -1 -3 960.16 24.94
-5 -1 3 999.17 20.21
-5 -1 2 42.7 3.51
-5 -1 2 44.29 3.29
-5 -1 2 46.59 3.93
5 -1 -2 46.17 4.95
-5 -1 1 120.8 6.1
-5 -1 1 114.27 6.08
5 -1 -1 114.19 7.77
-5 -1 1 117.29 5.01
-5 -1 0 980.42 21.6
-5 -1 0 1005.06 20.96
5 -1 0 1037.66 25.98
-5 -1 0 1011.23 17.8
-5 -1 -1 951.45 19.95
-5 -1 -1 953.27 21.68
-5 -1 -1 923.22 16.24
5 -1 1 1002.28 25.67
-5 -1 -2 45.5 4.38
5 -1 2 46.37 5.28
-5 -1 -2 50.64 2.61
-5 -1 -3 464.09 15.42
5 -1 3 490.57 17.79
-5 -1 -3 444.28 9.08
-5 -1 -4 64.07 5.73
-5 -1 -4 57.42 2.72
5 -1 4 60.34 6.33
5 -1 5 230.56 16.03
-5 -1 -5 266.15 12.32
5 -1 5 274.82 14.05
5 -1 6 349.89 20.42
-5 -1 -6 352.02 14.98
5 -1 6 394.63 17.57
-5 -1 -7 20.86 2.14
5 -1 7 17.06 4.99
-5 -1 -7 24.21 4.34
5 -1 8 125.86 13.16
-5 -1 -8 123.07 9.44
5 -1 9 3.23 3.51
-5 -1 -9 5.06 2.74
-5 -1 -10 96.5 9.21
5 -1 10 87.96 11.89
5 -1 11 22.51 7.06
-5 -1 -11 24.64 5.03
5 -1 12 8.92 4.82
-5 -1 -12 8 3.52
5 -1 13 20.27 7.01
-5 -1 -13 20.83 5.07
5 -1 14 -1.6 3.86
-5 -1 -14 10.88 4.41
-5 0 20 -3.97 3.84
-5 0 20 -2.05 2.6
-5 0 19 9.01 3.73
5 0 -19 3.26 2.55
-5 0 19 10.64 3.71
5 0 -18 13.64 3.79
-5 0 18 10.79 4.51
-5 0 18 8.45 3.16
5 0 -17 6.81 2.68
-5 0 17 9.73 3.3
-5 0 17 12.38 4.58
5 0 -16 7.94 3.08
-5 0 16 13.7 3.97
-5 0 16 20.89 5.48
-5 0 16 10.74 3.27
-5 0 15 9.13 3.29
-5 0 15 3.48 3.24
5 0 -15 5.69 2.83
-5 0 15 7 2.7
-5 0 14 692.84 27.16
-5 0 14 629.89 22.99
-5 0 14 662.27 21.25
5 0 -14 616.42 20.8
5 0 -13 38.12 4.9
-5 0 13 51.23 5.52
-5 0 13 50.7 7.04
-5 0 13 41.16 5.39
-5 0 12 41.79 5.2
-5 0 12 50.74 5.3
-5 0 12 58.78 7.18
5 0 -12 53.03 6.48
5 0 -12 56.49 5.61
-5 0 11 109.58 9.31
-5 0 11 107.57 7.36
-5 0 11 111.87 7.95
5 0 -11 119.41 9.13
5 0 -11 111.28 7.53
-5 0 10 274.3 11.61
-5 0 10 307.95 12.69
5 0 -10 278.51 11.66
5 0 -10 261.14 13.08
-5 0 9 41.18 4.37
-5 0 9 31.12 3.71
5 0 -9 36.67 4.03
5 0 -9 35.62 4.59
-5 0 8 132.66 7.33
-5 0 8 159.62 7.9
5 0 -8 139.33 7.46
5 0 -8 139.59 8.63
-5 0 7 1029.12 22.49
5 0 -7 1002.7 23.18
5 0 -7 1041.07 25.08
-5 0 7 1025.88 22.31
5 0 -7 1018.61 22.34
-5 0 6 1700.69 30.7
5 0 -6 1685.97 31.92
-5 0 6 1666.21 30.66
5 0 -6 1694.59 33.82
5 0 -6 1699.69 30.86
5 0 -5 892.47 20.37
-5 0 5 882.43 19.43
5 0 -5 896.59 19.45
-5 0 5 880.38 21.1
5 0 -5 919.23 22.06
-5 0 5 903.36 19.33
5 0 -4 2240.57 38.36
-5 0 4 2264.88 36.51
-5 0 4 2154.19 38.79
5 0 -4 2275.01 40.11
5 0 -4 2250.03 36.84
-5 0 4 2298.53 37.05
-5 0 3 4.53 1.4
5 0 -3 4.95 1.42
-5 0 3 2.23 1.24
5 0 -3 2.29 1.19
-5 0 3 3.7 1.5
-5 0 2 1666.71 27.31
-5 0 2 1622.8 30.32
5 0 -2 1586.02 31.04
-5 0 2 1665.59 29.09
-5 0 2 1597.23 27.84
5 0 -2 1599.67 30.31
-5 0 1 165.78 7.79
5 0 -1 156.58 7.94
-5 0 1 167.33 7.21
-5 0 1 167.26 6.47
-5 0 1 158.86 5.77
-5 0 0 131.01 7.04
5 0 0 125.62 7.28
-5 0 0 138.47 5.05
-5 0 0 125.04 6.48
-5 0 -1 430.96 13.55
5 0 1 420.97 14.23
-5 0 -1 397.26 8.83
-5 0 -2 3.13 1.38
5 0 2 1.07 1.56
-5 0 -2 2.96 0.67
-5 0 -3 252.56 10.86
-5 0 -4 114.42 7.44
-5 0 -5 60.41 5.66
5 0 6 153.09 12.8
-5 0 -6 153.12 9.43
5 0 7 12.34 4.18
-5 0 -7 10.06 2.9
-5 0 -8 49.15 5.89
5 0 8 51.25 8.22
5 0 9 294.53 19.79
-5 0 -9 321.1 15.65
-5 0 -10 41.49 4.83
-5 0 -10 62.59 7.08
5 0 10 48.08 8.35
5 0 11 0.63 2.96
-5 0 -11 -0.26 1.82
5 0 12 63.77 10.33
-5 0 -12 63.52 7.9
5 0 13 12.13 5.38
-5 0 -13 3.57 2.94
5 0 14 -4.35 3.62
-5 0 -14 0.68 2.75
5 0 15 -3.87 3.48
-5 1 20 -2.3 2.89
-5 1 19 2.6 3.42
5 1 -19 -1.27 2.39
-5 1 19 3.77 2.64
-5 1 18 23.05 5.87
5 1 -18 19.05 4.33
-5 1 17 30.46 5.03
-5 1 17 32.53 6.77
5 1 -17 30.27 5.3
-5 1 16 93.69 10.41
-5 1 16 92.24 8.37
5 1 -16 72.12 7.7
-5 1 15 80.8 9.33
5 1 -15 69.63 7.29
-5 1 14 333.03 18.17
5 1 -14 333.87 15.54
-5 1 13 197.56 13.43
5 1 -13 196.22 11.45
-5 1 12 228.49 13.9
5 1 -12 222.99 11.73
-5 1 11 117.75 9.61
5 1 -11 124.67 8.34
-5 1 10 85.26 7.67
5 1 -10 71.86 6.15
-5 1 9 592.65 20.55
5 1 -9 628.69 18.32
5 1 -9 629.43 18.07
-5 1 8 184.87 10.59
5 1 -8 200.81 8.89
5 1 -8 201.97 9.42
5 1 -7 1.83 1
5 1 -7 1.19 1.16
-5 1 7 1.51 1.47
5 1 -6 44.25 2.76
-5 1 6 43.95 4.76
5 1 -6 45.71 3.61
5 1 -6 42.07 3.84
5 1 -5 31.68 2.38
5 1 -5 30.84 3.12
5 1 -5 28.89 2.69
-5 1 5 31.84 3.92
5 1 -4 69.09 3.71
5 1 -4 67.83 4.63
5 1 -4 73.69 4.2
5 1 -4 73.11 4.49
-5 1 4 63.61 5.41
5 1 -3 974.36 18.68
5 1 -3 993.08 20.87
5 1 -3 996.28 19.34
5 1 -3 1020.89 19.48
-5 1 3 1007.72 23.73
5 1 -2 34.13 3.32
5 1 -2 50.02 3.56
-5 1 2 42.12 4.24
5 1 -2 45.39 3.32
5 1 -2 46.39 3.24
5 1 -1 127.97 6.29
5 1 -1 120.76 5.88
5 1 -1 106.27 5.13
5 1 -1 112.59 5.57
-5 1 1 115.86 6.94
5 1 0 1017 21.04
5 1 0 1037 21.36
-5 1 0 977.88 23.27
5 1 0 932.19 18.42
5 1 1 1002.14 20.57
-5 1 -1 920.29 22.52
5 1 1 900.83 17.35
-5 1 -2 50.21 4.83
5 1 2 54.97 4.24
5 1 2 45.7 2.92
-5 1 -2 68.41 5.47
-5 1 -3 441.39 15.17
5 1 3 451.66 12.88
-5 1 -3 467.35 15.33
5 1 3 419.57 9.58
-5 1 -4 64.06 2.52
-5 1 -4 68.36 5.91
5 1 4 58.68 4.5
5 1 4 55.3 2.8
-5 1 -5 277.59 12.21
5 1 5 254.01 9.45
5 1 5 227.28 5.65
-5 1 -6 383.97 15.19
5 1 6 377.67 11.98
5 1 7 24.11 5.53
5 1 7 26.61 3.18
-5 1 -7 24.79 4.1
5 1 8 132.23 12.22
-5 1 -8 128.07 9.2
5 1 8 110.77 6.4
5 1 9 6.82 3.49
5 1 9 7.14 2.02
-5 1 -9 4.56 2.19
5 1 10 98.54 11.2
-5 1 -10 90.53 8.48
5 1 11 25.73 6.3
-5 1 -11 21.44 4.44
5 1 12 6.36 4.32
-5 1 -12 5.62 2.57
5 1 13 13.2 5.06
-5 1 -13 23.72 5.01
5 1 14 15.44 5.54
-5 1 -14 19.1 4.79
-5 1 -15 8.65 3.85
-5 2 19 22.87 6.77
-5 2 18 39.11 8.04
5 2 -17 28.65 5.49
-5 2 17 29.36 6.85
5 2 -16 7.89 3.54
-5 2 16 4.96 3.66
-5 2 15 128.4 12.74
5 2 -15 111.45 9.86
-5 2 14 96.23 10.75
5 2 -14 99.43 9.1
-5 2 13 105.31 10.8
5 2 -13 78.8 7.89
-5 2 12 235.75 15.72
5 2 -12 233.9 12.93
5 2 -11 63.24 6.63
-5 2 11 52.43 7.31
-5 2 10 292.76 16.29
5 2 -10 273.13 13.06
5 2 -9 7.49 2.42
-5 2 9 7.98 3.17
-5 2 8 639.31 23.44
5 2 -8 673.23 16.69
5 2 -8 651.33 19.45
-5 2 7 348.85 16.24
5 2 -7 335.18 11.28
5 2 -7 337.84 12.87
5 2 -6 48.6 4.57
5 2 -6 50.42 4.27
-5 2 6 44.16 5.61
5 2 -5 75.44 5.12
-5 2 5 72.53 7.01
5 2 -5 70.08 5.09
5 2 -4 16.13 2.45
5 2 -4 17.59 2.6
-5 2 4 22.76 3.97
5 2 -4 17.55 1.41
5 2 -3 71.56 5.1
5 2 -3 74.23 3.58
5 2 -3 67.71 4.32
-5 2 3 77.81 6.88
5 2 -2 52.91 3.51
5 2 -2 57.75 4.08
5 2 -2 49.42 4.31
5 2 -2 54.66 2.65
5 2 -2 50.69 2.7
-5 2 2 53.45 5.57
5 2 -1 57.34 4.71
5 2 -1 62.01 3.5
5 2 -1 52.34 3.49
5 2 -1 60.12 3.36
-5 2 1 68.96 6.25
5 2 0 15.02 2.18
-5 2 0 14.45 2.99
5 2 0 17.9 2.75
5 2 0 17.84 1.68
5 2 1 125.31 7.11
5 2 1 113.58 6.64
-5 2 -1 116.63 8.01
5 2 2 291.84 11.3
-5 2 -2 295.64 13.01
-5 2 -3 175.31 9.84
5 2 3 183.6 8.89
-5 2 -3 186.97 10.29
-5 2 -4 101.91 7.55
5 2 4 96.76 6.5
-5 2 -4 98.29 7.51
-5 2 -5 336.09 10.54
-5 2 -5 349.63 14.57
5 2 5 355.04 12.93
-5 2 -5 374.42 15.16
-5 2 -6 300.49 13.79
5 2 6 341.14 12.7
5 2 7 145.67 11.61
-5 2 -7 139.83 9.55
5 2 7 151.53 8.34
5 2 8 130.27 11.28
-5 2 -8 128.09 9.35
5 2 8 128.25 7.81
5 2 9 18.76 4.69
5 2 9 15.49 2.9
-5 2 -9 19.91 3.97
5 2 10 2.96 2.47
5 2 10 3.22 1.55
-5 2 -10 -1.61 1.76
-5 2 -11 9.39 3.22
-5 2 -12 28.34 5.14
-5 2 -13 25.91 5.38
-5 2 -14 5.7 3
-5 2 -14 13.38 3.98
-5 2 -15 7.28 3.32
-5 3 17 42.87 9.09
5 3 -16 7.54 3.47
-5 3 16 9.83 4.48
5 3 -15 31.4 5.75
-5 3 15 31.16 7.3
5 3 -14 58.32 7.68
-5 3 14 71.9 10.25
-5 3 13 65.73 9.51
5 3 -13 79.66 8.59
-5 3 12 17.46 5.02
5 3 -12 17.46 4.38
5 3 -11 60.02 7.01
5 3 -11 65.2 5.08
-5 3 11 47.03 7.73
-5 3 10 268.34 17.37
5 3 -10 261.6 10.54
5 3 -10 259.74 13.99
-5 3 9 248.88 16.34
5 3 -9 263.7 10.67
5 3 -9 297.09 14.43
5 3 -8 27.98 4.39
5 3 -8 30.03 3.62
-5 3 8 22.1 4.95
-5 3 7 68.12 8.07
5 3 -7 62.81 5.16
5 3 -7 57.53 5.93
5 3 -6 53.14 4.82
-5 3 6 61.41 7.48
5 3 -6 56.27 5.51
-5 3 5 383.13 18.35
5 3 -5 381.42 13.52
5 3 -5 376.63 13.8
-5 3 4 144 10.87
5 3 -4 147.34 5.6
5 3 -4 155.37 8.47
5 3 -4 142.57 7.86
5 3 -3 22.42 2.65
5 3 -3 23.36 3.51
-5 3 3 27.65 4.83
5 3 -3 22.2 2.93
5 3 -3 17.96 2.23
5 3 -2 20.79 2.97
5 3 -2 22.07 3.47
-5 3 2 16.18 3.77
5 3 -2 23.98 2.77
5 3 -1 56.42 5.43
5 3 -1 58.92 2.96
-5 3 1 60.1 6.68
5 3 -1 58.14 3.82
5 3 0 5.43 1.15
5 3 0 8.31 1.64
5 3 0 7.83 2.41
-5 3 0 5.11 2.42
5 3 1 45.2 5.13
5 3 1 53.25 4.59
-5 3 -1 66.24 6.78
5 3 1 51.27 2.41
5 3 2 245.55 11.97
-5 3 -2 225.96 12.52
5 3 3 52.67 5.67
-5 3 -3 47.85 5.91
5 3 4 199.82 11.03
-5 3 -4 198.46 11.35
-5 3 -4 187.68 11.43
-5 3 -5 217.07 12.05
5 3 5 248.02 12.32
-5 3 -5 219.11 12.43
-5 3 -6 60.63 6.48
5 3 6 54.4 5.95
-5 3 -6 51.48 6.16
-5 3 -7 155.76 10.48
5 3 7 165.23 10.22
-5 3 -8 69.68 7.13
5 3 8 73.91 6.92
5 3 9 7.52 2.71
-5 3 -9 7.11 2.51
5 3 10 4.05 2.12
-5 3 -10 7.26 2.8
-5 3 -11 24.17 4.57
-5 3 -12 24 4.85
5 4 -14 11.61 4.12
-5 4 14 0.99 2.86
5 4 -13 69.51 8.72
-5 4 13 58.87 9.79
5 4 -12 2.86 2.71
-5 4 12 -0.05 3.16
5 4 -11 49.83 7.13
-5 4 11 47.75 8.52
5 4 -10 4.15 1.77
-5 4 10 2.65 3.08
5 4 -9 42.12 6.12
5 4 -9 43.13 4.79
-5 4 9 53.75 8.34
-5 4 8 114.09 11.74
5 4 -8 108.62 7.56
5 4 -8 123.32 9.81
5 4 -7 8.32 2.57
5 4 -7 9.91 3.21
-5 4 7 11.59 4.56
5 4 -6 33.03 4.88
5 4 -6 37.42 4.76
-5 4 6 31.61 6.29
5 4 -5 41.78 5.24
5 4 -5 39.75 4.95
-5 4 5 32.28 6.07
5 4 -4 15.36 3.1
5 4 -4 15.24 3.32
-5 4 4 14.01 4.16
5 4 -3 63.72 6.49
-5 4 3 59.5 7.87
5 4 -3 59.37 5.45
5 4 -2 28.11 3.49
5 4 -2 40.45 5.39
-5 4 2 29.95 5.72
5 4 -1 166.38 10.76
-5 4 1 150.48 11.74
5 4 -1 142.53 7.08
5 4 0 333.97 15.64
5 4 0 360.25 16.32
-5 4 0 339.28 17.61
5 4 1 264.69 14.61
5 4 1 240.85 13.43
-5 4 -1 239.54 14.49
5 4 2 10.64 3.31
-5 4 -2 17.43 4.15
5 4 2 13.74 3.8
-5 4 -3 6.36 2.65
5 4 3 6.7 2.94
-5 4 -4 37.64 5.68
5 4 4 38.01 5.67
-5 4 -5 18.08 4.1
5 4 5 11.22 3.47
-5 4 -5 6.89 2.76
-5 4 -6 53.93 6.74
5 4 6 41.69 6.04
-5 4 -6 40.56 5.52
-5 4 -7 9.46 3.34
5 4 7 3.03 2.05
-5 4 -7 3.47 2.12
5 4 8 50.44 6.65
-5 4 -8 44.32 6.04
5 4 9 9.81 3.59
5 4 10 5.05 2.55
5 4 11 1.75 2.43
5 5 -11 1.79 2.5
5 5 -10 30.78 6
5 5 -9 99.09 8.03
-5 5 9 90.16 11.85
5 5 -9 98.4 10.05
5 5 -8 6.79 2.74
5 5 -8 9.14 3.62
-5 5 8 6.5 3.78
5 5 -7 42.06 6.34
5 5 -7 41.47 5.53
-5 5 7 42.35 7.89
5 5 -6 7.96 2.88
5 5 -6 12.26 3.46
-5 5 6 4.95 3.13
5 5 -5 19.15 4.33
5 5 -5 11.8 3.5
-5 5 5 24.66 6
5 5 -4 74.93 7.76
-5 5 4 76.98 9.68
5 5 -3 33.37 5.52
-5 5 3 37.66 6.86
5 5 -2 30.08 5.45
-5 5 2 27.32 6.02
5 5 -1 57 7.3
-5 5 1 43.19 7.27
5 5 0 7.24 3.33
-5 5 0 5 2.79
5 5 1 7.97 3.33
-5 5 -1 0.1 2.08
-5 5 -2 1.32 2.66
5 5 2 7.56 3.09
-5 5 -3 1.7 2
5 5 3 4.95 2.82
5 5 3 4.25 2.9
5 5 4 13.73 4.39
-5 5 -4 6.16 3.08
5 5 4 7.56 3.43
5 5 5 10.47 4.07
-5 5 -5 17.75 4.64
5 5 5 24.27 5.2
5 5 6 8.44 3.86
-5 5 -6 4.28 2.76
5 5 7 11.69 4.88
-5 5 -7 12 3.88
6 -5 -9 72.38 11.02
6 -5 -8 21.71 6.12
6 -5 -7 47.98 8.88
6 -5 -6 16.84 5.35
6 -5 -5 0.82 3.38
6 -5 -4 -4.83 3.51
6 -5 -3 13.77 4.86
6 -5 -2 5.07 3.44
6 -5 -1 10.86 4.22
6 -5 0 2.62 2.84
6 -5 1 -5.2 3.48
6 -5 2 7.57 3.69
6 -5 3 8.64 4.26
6 -5 3 4.38 3.67
6 -5 4 1.07 3.73
6 -5 4 14.46 5.07
6 -5 5 30.43 7.81
-6 -5 -5 21.8 5.28
6 -5 5 18.08 5.51
-6 -5 -6 10.96 4.55
-6 -4 14 9.59 3.84
6 -4 -13 16.85 6.09
-6 -4 13 9.85 4.69
-6 -4 12 -3.05 3.27
6 -4 -12 5.44 3.67
6 -4 -11 5.64 4.29
-6 -4 11 7.22 3.91
-6 -4 10 2.72 2.79
6 -4 -10 4.21 3.73
6 -4 -9 4.45 3.89
6 -4 -8 158.67 14.55
6 -4 -7 126.73 12.83
6 -4 -6 29.65 6.67
6 -4 -5 23.72 5.77
6 -4 -4 58.32 7.7
6 -4 -4 67.86 9.23
6 -4 -3 42.92 7.08
6 -4 -3 40.36 7.26
6 -4 -2 36.3 6.64
6 -4 -2 45.34 7.57
6 -4 -1 240.05 17
6 -4 -1 246.83 17.12
-6 -4 0 44.2 5.38
6 -4 0 49.71 8.27
6 -4 0 38.28 7.14
6 -4 1 23.79 6.04
-6 -4 -1 24.87 4.3
6 -4 1 29.6 6.09
6 -4 2 41.61 8.01
-6 -4 -2 37.11 5.65
6 -4 2 52.85 8.08
6 -4 3 2.11 2.84
-6 -4 -3 0.41 1.97
6 -4 3 0.37 2.68
6 -4 4 16.58 5.8
-6 -4 -4 9.79 3.54
6 -4 4 10.14 4.32
6 -4 5 -0.64 3.22
-6 -4 -5 1.02 1.96
6 -4 5 3.66 3.7
6 -4 6 31.36 8.03
-6 -4 -6 28.82 5.87
6 -4 6 18.64 5.63
6 -4 7 4.3 3.87
-6 -4 -7 -1.83 2.52
6 -4 7 -0.78 2.57
6 -4 8 8.47 5.38
-6 -4 -8 1.7 2.94
6 -4 8 5.41 3.75
-6 -3 16 -2.64 3.52
-6 -3 16 4.78 3.01
-6 -3 15 12.98 5.02
-6 -3 15 7.3 3.82
6 -3 -15 13.78 5.23
6 -3 -14 0.79 2.53
-6 -3 14 6.06 4.16
-6 -3 14 3.98 3.19
-6 -3 13 8.67 4.15
6 -3 -13 10.04 4.47
-6 -3 13 1.87 2.86
6 -3 -12 6.43 3.72
-6 -3 12 12.66 4.86
-6 -3 12 1.74 2.53
6 -3 -11 23.08 5.7
-6 -3 11 29.33 6.28
-6 -3 11 9.99 3.81
-6 -3 10 105.06 10.89
-6 -3 10 97.49 9.84
6 -3 -10 91.11 10.55
-6 -3 9 24.51 5.13
6 -3 -9 24 5.77
-6 -3 8 346.23 18.4
6 -3 -8 378.87 20.53
-6 -3 7 115.3 10.2
6 -3 -7 140.31 12.2
-6 -3 6 246.68 14.69
6 -3 -6 260.46 16.45
-6 -3 5 66.2 7.48
6 -3 -5 60.22 8.05
-6 -3 4 2.01 1.17
6 -3 -4 1.25 2.57
-6 -3 3 191.02 8.48
6 -3 -3 200.08 13.93
-6 -3 2 106.06 6.73
6 -3 -2 112.61 10.4
-6 -3 1 20.54 3.35
6 -3 -1 17.14 4.45
-6 -3 0 136.48 8.62
6 -3 0 153.54 12.15
-6 -3 -1 271.87 13.02
6 -3 1 264.57 18.25
6 -3 1 286.68 16.76
-6 -3 -2 115.1 8.74
6 -3 2 151.28 14.08
6 -3 2 134.68 11.53
-6 -3 -3 196.72 11.93
6 -3 3 204.05 16.78
6 -3 3 179.04 13.6
6 -3 4 6.1 4.26
-6 -3 -4 5.71 2.75
6 -3 4 5.08 3.25
6 -3 5 53.71 9.53
-6 -3 -5 58.05 7.18
6 -3 5 56.18 7.9
6 -3 6 6.95 4.46
-6 -3 -6 18.06 4.31
6 -3 6 14.77 4.86
-6 -3 -7 88.79 9.43
6 -3 7 76.57 11.71
6 -3 7 79.3 9.8
-6 -3 -8 33.01 6.09
6 -3 8 32.27 8.2
6 -3 8 39.21 7.38
6 -3 9 14.92 5.74
-6 -3 -9 33.59 6.49
6 -3 9 21.25 5.81
6 -3 10 17.73 6.86
-6 -3 -10 25.08 5.79
6 -3 10 18.38 5.47
-6 -2 18 -1.44 2.4
6 -2 -17 26.86 6.72
-6 -2 17 30.25 7.44
-6 -2 17 30.04 5.81
-6 -2 16 2.08 2.68
6 -2 -16 8.35 4.43
-6 -2 16 5.76 3.03
-6 -2 15 59.03 9.28
6 -2 -15 61.53 9.19
-6 -2 15 51.24 7.27
6 -2 -14 40.94 7.58
-6 -2 14 33.03 6.99
-6 -2 14 42.71 6.43
6 -2 -13 17.41 5.03
-6 -2 13 23.6 5.66
-6 -2 13 20.26 4.4
-6 -2 12 457.49 23.19
-6 -2 12 436.2 19.64
6 -2 -12 461.72 23.06
6 -2 -11 64.81 8.44
-6 -2 11 81.54 9.29
-6 -2 11 66.36 7.4
-6 -2 10 88.18 9.39
-6 -2 10 96.08 8.63
6 -2 -10 81.83 9.07
-6 -2 9 94.65 8.39
6 -2 -9 108.43 10.17
-6 -2 8 347.65 15.63
6 -2 -8 337.28 17.51
-6 -2 7 225.39 6.19
-6 -2 7 237.17 12.81
-6 -2 7 225.69 5.19
6 -2 -7 232.6 14.32
-6 -2 6 183.96 6.16
-6 -2 6 202.52 11.38
6 -2 -6 199.87 13
-6 -2 5 315.01 9.14
-6 -2 5 320.38 14.48
6 -2 -5 319.61 16.28
-6 -2 4 308.52 9.6
-6 -2 4 296.78 13.51
6 -2 -4 320.86 16.09
-6 -2 3 88.74 5.35
-6 -2 3 85.49 7.07
6 -2 -3 91.22 8.47
-6 -2 2 393.57 12.27
-6 -2 2 409.8 15.59
-6 -2 2 412.13 12.79
6 -2 -2 414.21 18.13
-6 -2 1 18.11 2.32
-6 -2 1 16.38 2.78
6 -2 -1 22.89 4.45
-6 -2 0 451.8 14.88
6 -2 0 444.01 19.06
-6 -2 -1 104.42 7.26
6 -2 1 102.78 9.05
-6 -2 -2 75.94 6.45
6 -2 2 76.58 7.99
-6 -2 -3 92.72 7.44
6 -2 3 80.78 8.29
6 -2 4 20.3 5.87
-6 -2 -4 21.89 3.97
6 -2 4 17.56 4.16
-6 -2 -5 112.56 8.97
6 -2 5 87.35 11.1
6 -2 5 113.91 10.27
6 -2 6 45.39 8.39
-6 -2 -6 43.64 5.9
6 -2 6 59.51 7.73
-6 -2 -7 154.99 11.36
6 -2 7 141.6 14.83
6 -2 7 146.55 12.32
6 -2 8 10.7 4.69
-6 -2 -8 7.25 3.26
6 -2 8 13.68 4.48
6 -2 9 40.67 8.63
-6 -2 -9 44.55 6.98
6 -2 9 61.84 8.57
6 -2 10 1.28 2.48
-6 -2 -10 3.61 2.86
6 -2 10 4.17 3.22
6 -2 11 -4.14 3.96
-6 -2 -11 -0.08 2.35
6 -2 11 -1.07 2.87
-6 -1 19 15.31 4.34
-6 -1 19 25.29 6.42
6 -1 -19 13.59 3.98
-6 -1 18 11.03 4.44
-6 -1 18 10.04 3.32
6 -1 -18 8.89 3.48
-6 -1 17 51.57 8.77
-6 -1 17 36.85 5.9
6 -1 -17 42.25 6.09
6 -1 -16 3.44 3.1
6 -1 -16 13.24 4.41
-6 -1 16 6.44 3.33
-6 -1 16 10 3.33
6 -1 -15 22.95 4.45
6 -1 -15 16.34 4.72
-6 -1 15 16.22 4.97
-6 -1 15 17.27 3.96
6 -1 -14 34.84 6.32
-6 -1 14 42.77 7.4
6 -1 -14 28.82 4.63
-6 -1 14 30.77 4.98
-6 -1 13 558.24 25.36
6 -1 -13 590.35 24.98
-6 -1 13 560.64 20.22
6 -1 -13 560.09 19.65
-6 -1 12 144.85 12.28
6 -1 -12 146.66 9.33
6 -1 -12 139.38 11.56
-6 -1 12 129.28 9.14
-6 -1 11 945.12 19.65
6 -1 -11 932.87 30.32
-6 -1 11 879.35 25.1
6 -1 -11 936.27 24.85
-6 -1 10 81.89 5.44
6 -1 -10 89.58 8.59
6 -1 -10 83.93 6.63
-6 -1 10 88.87 7.02
-6 -1 10 87.1 4.61
-6 -1 9 78.49 5.11
6 -1 -9 60.07 7.04
-6 -1 9 74.26 6.3
-6 -1 9 81.6 3.99
-6 -1 8 222.97 9.62
6 -1 -8 250.83 13.67
-6 -1 8 260.63 11.53
-6 -1 8 238.89 6.84
-6 -1 7 1.68 0.74
-6 -1 7 0.83 1.58
-6 -1 7 2.28 1.16
6 -1 -7 4.26 2.18
-6 -1 6 373.19 11.1
6 -1 -6 393.65 16.51
-6 -1 6 398 13.64
-6 -1 6 330.86 8.9
-6 -1 5 138.7 6.48
-6 -1 5 122.21 5.87
6 -1 -5 119.01 8.75
-6 -1 5 131.68 7.48
-6 -1 4 669.18 16.24
-6 -1 4 647.16 15.19
6 -1 -4 650.12 21.28
-6 -1 4 679.1 18.15
-6 -1 3 203.63 8.44
-6 -1 3 222.1 9.49
6 -1 -3 213.79 11.46
-6 -1 2 789.53 18.98
-6 -1 2 812.91 19.59
6 -1 -2 784 23.41
-6 -1 2 758.58 17.04
-6 -1 1 4.25 1.26
-6 -1 1 5.25 1.7
-6 -1 1 6.05 1.65
6 -1 -1 1.84 1.79
-6 -1 0 504.12 15.43
-6 -1 0 516.22 14.34
6 -1 0 514.7 18.75
-6 -1 0 499.36 11.86
-6 -1 -1 390.29 11.99
-6 -1 -1 387.83 13.78
6 -1 1 412.61 16.74
-6 -1 -1 369.29 9.49
-6 -1 -2 69.5 5.79
6 -1 2 62.61 6.54
-6 -1 -2 59.6 3.29
-6 -1 -3 190.84 10.11
6 -1 3 205.37 12.19
-6 -1 -3 189.22 5.92
-6 -1 -4 5.26 2.18
6 -1 4 6.81 2.86
-6 -1 -5 8.65 2.75
6 -1 5 12.34 3.65
6 -1 6 32.28 6.91
-6 -1 -6 36.83 5.11
6 -1 6 44.9 6.49
6 -1 7 10.5 4.2
-6 -1 -7 15.6 3.61
6 -1 7 19.02 4.67
6 -1 8 116.05 13.27
-6 -1 -8 100.86 9.08
6 -1 8 119.14 11.01
6 -1 9 2.17 3
-6 -1 -9 5.91 2.72
6 -1 9 7.32 3.2
6 -1 10 17.64 6.33
-6 -1 -10 19.89 4.76
6 -1 11 8.94 4.71
-6 -1 -11 13.42 4.03
6 -1 12 38.51 8.75
-6 -1 -12 30.94 6.11
6 -1 13 40.58 9.57
-6 0 20 24.05 6.97
-6 0 19 2.23 2.78
-6 0 19 0.24 2.09
6 0 -19 6.46 3.65
6 0 -18 26.22 5.09
-6 0 18 32.1 6.86
-6 0 18 23.62 4.75
-6 0 17 42.55 6.13
-6 0 17 42.79 7.65
6 0 -17 45.1 6.35
-6 0 16 80.58 9.91
6 0 -16 69.92 7.41
-6 0 16 76.39 7.73
6 0 -15 21.49 4.18
-6 0 15 21.02 4.34
-6 0 15 18.96 4.08
-6 0 14 82.92 7.58
-6 0 14 68.39 7.06
6 0 -14 63.07 7.7
6 0 -14 73.49 7.02
6 0 -13 46.4 5.51
-6 0 13 56.95 6.12
6 0 -13 53.72 6.8
-6 0 13 61.53 6.26
-6 0 12 658.94 20.52
-6 0 12 626.93 20.5
6 0 -12 644.27 23.35
6 0 -12 610.53 19.9
6 0 -11 17.34 3.23
6 0 -11 19.16 3.92
-6 0 11 19.68 3.57
-6 0 11 14.37 2.96
6 0 -10 1.5 1.57
6 0 -10 -0.78 1.47
-6 0 10 2.8 2.02
-6 0 10 0.49 1.11
-6 0 9 272.67 11.29
-6 0 9 257.01 11.16
6 0 -9 297.85 13.67
6 0 -9 265.99 11.36
6 0 -8 0.87 1.37
-6 0 8 0.06 1
-6 0 8 2.57 1.74
6 0 -8 1.37 1.64
-6 0 7 175.84 8.46
6 0 -7 151.01 8.27
6 0 -7 171.72 9.57
6 0 -7 142.67 7.7
-6 0 7 155.11 7.73
-6 0 6 390.06 12.6
6 0 -6 388.5 13.53
6 0 -6 410.3 14.89
-6 0 6 394.51 12.49
6 0 -6 382.87 12.66
6 0 -5 12.87 2.29
-6 0 5 13.74 2.33
-6 0 5 13.78 2.35
6 0 -5 10.57 2.44
6 0 -5 11.81 2.31
-6 0 4 1.69 1.29
-6 0 4 -0.52 0.98
6 0 -4 0.22 1.24
-6 0 3 11.87 2.19
6 0 -3 13.73 2.72
-6 0 3 11.15 1.95
-6 0 2 283.57 9.22
6 0 -2 267.61 11.47
-6 0 2 291.26 10.43
-6 0 1 9 1.62
-6 0 1 9.07 2.05
-6 0 1 3.84 1.54
6 0 -1 9.18 2.4
-6 0 0 515.62 16.03
6 0 0 496.58 16.66
-6 0 0 504.77 11.77
-6 0 -1 249.57 11.05
6 0 1 258.47 11.97
-6 0 -1 255.28 7.3
-6 0 -2 -1.84 1.47
-6 0 -2 0.23 0.51
6 0 2 -0.15 1.38
-6 0 -3 66.9 6.18
6 0 3 68.96 6.75
-6 0 -4 706.06 21.34
6 0 4 748.48 23.69
-6 0 -5 69.21 6.61
-6 0 -6 221.61 12.08
6 0 7 3.67 3.21
-6 0 -7 6.91 2.73
-6 0 -8 81.89 7.93
6 0 8 70.43 10.19
6 0 9 6.75 4.17
-6 0 -9 13.86 3.55
6 0 10 -2.16 3.76
-6 0 -10 -0.3 1.93
6 0 11 23.3 6.6
-6 0 -11 29.64 5.55
6 0 12 -5.21 3.35
-6 0 -12 -1.02 2.85
6 0 13 2.06 3.63
-6 0 -13 4.71 3.6
6 0 14 6.02 4.06
-6 1 19 13.1 3.74
6 1 -18 7.7 3.38
-6 1 18 16.31 4.34
-6 1 18 6.41 3.54
6 1 -17 39.89 6.05
-6 1 17 53.52 6.86
-6 1 17 37.37 6.63
6 1 -16 5.61 2.65
-6 1 16 10.28 3.64
-6 1 16 2.49 2.52
-6 1 15 23.61 4.75
6 1 -15 13.71 3.38
-6 1 15 16.03 4.36
6 1 -14 32.33 5.05
-6 1 14 33.73 5.82
-6 1 13 578.21 23.15
6 1 -13 549.68 19.79
-6 1 12 134.28 10.48
6 1 -12 148.24 9.61
-6 1 11 931.62 28.34
6 1 -11 913.73 25
-6 1 10 101.32 8.39
6 1 -10 87.62 6.66
6 1 -10 94.2 7.03
-6 1 9 68.3 6.73
6 1 -9 71.61 5.69
6 1 -9 75.39 6
-6 1 8 246.21 12.34
6 1 -8 233.82 9.96
6 1 -8 231.03 10.3
6 1 -7 1.57 1.04
6 1 -7 4.3 1.52
6 1 -7 2.03 0.81
-6 1 7 4.7 1.89
6 1 -6 375.23 10.49
-6 1 6 383.8 14.88
6 1 -6 380.2 11.91
6 1 -6 390.25 12.62
6 1 -5 120.57 5.65
6 1 -5 123.15 6.31
6 1 -5 122.39 6.55
-6 1 5 123.12 8.04
6 1 -4 642.23 16.11
6 1 -4 670.93 16.06
-6 1 4 660.44 19.37
6 1 -4 635.88 15.33
6 1 -3 213.97 9.02
6 1 -3 211.74 8.46
-6 1 3 195.18 9.85
6 1 -3 215.17 8.09
6 1 -3 214.97 8.29
6 1 -2 794.9 19.18
6 1 -2 761.47 18.46
-6 1 2 781.81 21.03
6 1 -2 792.17 18.35
-6 1 1 6.99 2.11
6 1 -1 9.55 2.29
6 1 -1 3.15 1.32
6 1 0 487.95 12.38
6 1 0 517.72 14.94
6 1 0 530.58 15.63
-6 1 0 508.22 16.39
6 1 1 367.38 9.88
-6 1 -1 386.85 14.7
6 1 1 345.81 12.13
6 1 1 394.58 13.79
-6 1 -1 399.16 14.43
6 1 2 62.07 3.54
-6 1 -2 67.04 6.14
6 1 2 60.36 4.88
-6 1 -2 62.3 5.75
-6 1 -3 204.38 10.7
6 1 3 200.93 8.93
6 1 4 5.8 1.86
-6 1 -4 5.51 2.36
6 1 5 5.93 1.96
-6 1 -5 10.22 2.87
6 1 6 35.86 3.93
-6 1 -6 31.63 4.79
6 1 7 15.21 5.11
6 1 7 23.82 3.35
-6 1 -7 15.8 3.71
6 1 8 111.22 12.18
-6 1 -8 101.69 8.77
6 1 8 104.11 6.62
6 1 9 4.34 3.27
6 1 9 8.23 2.36
-6 1 -9 4.21 2.31
6 1 10 20.11 5.69
-6 1 -10 28.03 5.19
6 1 11 15.51 5.46
-6 1 -11 10 3.68
6 1 12 23.03 6.5
-6 1 -12 42.1 6.61
6 1 13 23.66 6.79
-6 1 -13 25.95 5.42
-6 2 19 26.95 7.02
-6 2 18 1.59 2.81
-6 2 17 34.62 7.09
6 2 -17 24.34 5.19
6 2 -16 1.76 2.2
-6 2 16 10.02 4.8
6 2 -15 61.97 7.43
-6 2 15 46.24 7.75
6 2 -14 37.7 5.66
-6 2 14 44.11 7.25
6 2 -13 31.3 5.08
-6 2 13 23.91 5.53
-6 2 12 451.03 21.85
6 2 -12 448.85 18.14
-6 2 11 62.7 7.88
6 2 -11 54.02 6.05
-6 2 10 72.4 8.16
6 2 -10 88.54 7.2
-6 2 9 110.08 9.77
6 2 -9 99.77 7.46
-6 2 8 328.54 16.42
6 2 -8 315.02 11.61
6 2 -8 320.18 13.05
-6 2 7 237.2 13.5
6 2 -7 243.98 10.28
6 2 -7 234.98 10.61
6 2 -6 177.27 8.77
-6 2 6 194.21 11.92
6 2 -6 199.73 9.18
-6 2 5 370.79 16.22
6 2 -5 319.25 7.17
6 2 -5 346.19 12.24
6 2 -5 322.35 11.35
6 2 -4 313.83 11.7
6 2 -4 300.48 8.25
6 2 -4 303.75 10.4
-6 2 4 306.02 14.55
6 2 -3 98.97 6.45
6 2 -3 93.16 3.81
6 2 -3 84.4 4.51
6 2 -3 98.38 5.28
-6 2 3 86.32 7.53
6 2 -2 428.62 14
6 2 -2 452.35 10.92
6 2 -2 394.74 11.38
6 2 -2 429.72 11.38
-6 2 2 414.43 16.73
6 2 -1 17.95 2.11
-6 2 1 22.26 3.9
6 2 -1 20.38 3.11
6 2 -1 22.52 2.51
6 2 0 443.8 14.63
6 2 0 456.42 13.19
-6 2 0 432.97 16.8
6 2 1 99.52 6.64
-6 2 -1 92.52 7.57
6 2 2 82.62 6.08
-6 2 -2 80.14 7.13
-6 2 -3 91.43 7.56
6 2 3 86.73 6.32
-6 2 -3 88.86 7.49
-6 2 -4 19.58 3.78
6 2 4 25.9 3.6
-6 2 -4 17.68 3.61
-6 2 -5 115.16 8.78
6 2 5 111.22 7.4
-6 2 -6 68.33 6.97
6 2 6 52.9 5.17
6 2 7 114.2 11.46
-6 2 -7 130.76 9.86
6 2 7 148.07 8.56
6 2 8 9.88 3.63
6 2 8 9.54 2.55
-6 2 -8 8.94 2.95
6 2 9 46.87 7.49
6 2 9 48.78 5.09
-6 2 -9 45.87 6.36
-6 2 -10 10.79 3.49
-6 2 -11 4.92 2.81
-6 2 -12 18.23 4.69
-6 2 -13 16 4.53
6 3 -16 7.44 3.61
-6 3 16 9.57 4.44
6 3 -15 15.88 4.45
-6 3 15 11.94 4.74
6 3 -14 7.37 3.29
-6 3 14 3.28 3.29
6 3 -13 4.82 2.89
-6 3 13 5.11 3.44
6 3 -12 4.62 2.53
-6 3 12 5.31 3.52
6 3 -11 18.91 4.17
-6 3 11 18.24 5.08
6 3 -10 98.91 6.85
-6 3 10 77.79 9.5
6 3 -10 85.93 7.86
6 3 -9 20.49 4.01
6 3 -9 20.6 3.46
-6 3 9 15.87 4.62
-6 3 8 355.04 19.25
6 3 -8 367.3 13.58
6 3 -8 366.46 15.3
-6 3 7 117.54 10.8
6 3 -7 118.62 7.54
6 3 -7 120.83 8.19
-6 3 6 246.1 15.16
6 3 -6 250.9 11.15
6 3 -6 248.36 11.31
6 3 -5 71.32 5.93
-6 3 5 60.41 7.42
6 3 -5 69.75 5.76
6 3 -4 0.71 0.64
6 3 -4 2.08 1.4
6 3 -4 2.69 1.77
-6 3 4 1.63 2.32
6 3 -3 206.43 10.43
-6 3 3 188.63 12.58
6 3 -3 204.86 8.51
6 3 -2 120.03 8.01
6 3 -2 130.97 6.13
-6 3 2 122.34 9.96
6 3 -1 18.33 2.14
6 3 -1 22.62 3.79
-6 3 1 13.34 3.73
6 3 -1 18.61 1.82
6 3 0 154.24 9.28
-6 3 0 137.18 10.32
6 3 0 154.07 5.34
6 3 1 272.12 12.71
-6 3 -1 276.81 14.69
6 3 2 148.77 9.3
-6 3 -2 119.99 9.6
6 3 3 192.65 10.75
-6 3 -3 174.8 11.59
-6 3 -4 8.54 3.04
6 3 4 1.42 2.01
-6 3 -4 7.36 2.8
-6 3 -5 50.08 6.34
6 3 5 51.71 5.88
-6 3 -5 49.71 6.3
6 3 6 14.17 3.3
-6 3 -6 5.87 2.47
-6 3 -7 73.4 7.66
6 3 7 73.32 6.91
6 3 8 48.26 5.71
-6 3 -8 40.24 5.84
6 3 9 28.6 4.57
-6 3 -9 25.18 4.8
6 3 10 16.84 3.62
-6 3 -10 16.94 4.2
-6 3 -11 29.61 5.32
-6 3 -12 2.06 2.26
6 4 -14 11.23 4.09
6 4 -13 12.41 4.11
-6 4 13 8.98 5.07
6 4 -12 6.72 3.55
-6 4 12 5.09 3.76
6 4 -11 8.99 3.39
6 4 -11 11.9 2.91
-6 4 11 11.45 5.04
6 4 -10 7.41 3.14
6 4 -10 6.62 2.41
6 4 -9 4.8 2.69
6 4 -9 3.47 1.89
-6 4 9 1.93 2.92
-6 4 8 160.26 14.07
6 4 -8 149.47 9.29
6 4 -8 170.15 11.23
-6 4 7 148.3 13.22
6 4 -7 130.04 8.76
6 4 -7 136.67 9.72
6 4 -6 27.14 4.29
6 4 -6 23.54 4.09
-6 4 6 10.56 3.97
6 4 -5 20.93 3.75
6 4 -5 13.86 3.34
-6 4 5 17.79 4.65
6 4 -4 79.39 7.24
-6 4 4 57.95 8.13
6 4 -4 60.32 5.44
6 4 -3 45.31 5.59
-6 4 3 44.78 6.99
6 4 -3 41.52 4.27
6 4 -2 33.45 5.04
-6 4 2 31.91 6.02
6 4 -1 300.41 14.56
-6 4 1 258.79 15.94
6 4 0 50.25 6.16
6 4 0 40.65 5.77
-6 4 0 44.18 6.62
-6 4 -1 23.46 4.85
6 4 1 30.24 4.95
-6 4 -2 47.5 6.69
6 4 2 50.44 6.37
-6 4 -3 0.22 1.86
6 4 3 2.67 2.19
-6 4 -4 10.54 3.62
6 4 4 13.4 3.7
-6 4 -4 11.71 3.36
-6 4 -5 0.72 2.04
6 4 5 0.34 1.84
-6 4 -5 -2.64 2.06
-6 4 -6 25.32 5.06
6 4 6 26.32 5.02
-6 4 -6 24.08 4.51
6 4 7 -0.41 2.23
-6 4 -7 0.36 1.77
6 4 8 3.59 2.4
-6 4 -8 9.07 3.35
6 4 9 3.41 2.42
6 5 -11 1.52 2.52
6 5 -10 62.68 8.25
6 5 -9 92.32 7.99
6 5 -9 84.93 9.03
6 5 -8 25.96 5.01
6 5 -8 23.58 4.41
-6 5 8 37.65 7.84
6 5 -7 49.37 6.46
6 5 -7 49.86 6.24
-6 5 7 49.35 8.46
6 5 -6 25.48 4.63
-6 5 6 11.32 4.62
6 5 -5 -0.33 2.45
-6 5 5 2.43 2.94
6 5 -4 -0.62 1.89
-6 5 4 -0.88 3.04
6 5 -3 14.42 3.88
-6 5 3 17.5 5.28
6 5 -2 7.97 3.26
-6 5 2 -0.48 2.78
6 5 -1 10.35 3.47
-6 5 1 16.17 4.52
6 5 0 3.31 2.59
-6 5 0 -0.95 2.65
-6 5 -1 1.66 2.25
6 5 1 0.15 1.84
-6 5 -2 0.62 1.93
6 5 2 -0.45 2.18
-6 5 -3 9.39 3.92
-6 5 -4 7.71 3.8
-6 5 -4 12.19 3.79
-6 5 -5 21.75 5.08
-6 5 -5 17.26 4.44
6 5 6 1.14 2.17
7 -5 -7 26.42 7.42
7 -5 -6 -4.31 4.06
7 -5 -5 2.04 3.76
7 -5 -4 36.83 7.87
7 -5 -3 14.73 5.11
7 -5 -2 18.49 6.05
7 -5 -1 18.62 6.02
7 -5 0 -2.63 3.26
7 -5 1 4.97 3.12
7 -5 3 19.51 6.58
7 -5 4 19.01 6.8
-7 -4 12 8.03 4.26
7 -4 -12 9.72 4.24
7 -4 -11 16.89 5.8
7 -4 -10 24.81 6.39
7 -4 -9 8.94 5.14
7 -4 -8 132.96 13.82
7 -4 -7 4.77 3.88
7 -4 -6 126.73 13.08
7 -4 -5 37.43 7.14
7 -4 -4 1.72 3.38
7 -4 -3 35.97 6.93
7 -4 -3 38.76 7.48
7 -4 -2 43.94 7.97
7 -4 -2 23.76 5.77
7 -4 -1 9.53 3.86
7 -4 -1 9.66 4.31
7 -4 0 2.65 2.96
7 -4 0 10.46 4.6
-7 -4 -1 93.65 8.51
7 -4 1 91.07 12.12
7 -4 1 86.8 10.88
7 -4 2 4.77 3.45
-7 -4 -2 3.55 2.37
7 -4 2 0.14 3.42
7 -4 3 -4.36 3.62
-7 -4 -3 2.02 2.34
7 -4 3 2.24 2.49
7 -4 4 9.35 5.05
-7 -4 -4 12.85 3.94
7 -4 4 17.8 5.46
7 -4 5 11.89 5.09
-7 -4 -5 13.94 4.25
7 -4 5 14.05 4.88
7 -4 6 7.54 4.88
-7 -4 -6 13.97 4.67
7 -4 6 18.48 5.68
-7 -4 -7 -2.24 3
7 -3 -15 46.4 8.91
-7 -3 15 39.94 8.36
-7 -3 15 32.94 6.83
7 -3 -14 18.78 5.7
-7 -3 14 20.16 5.8
-7 -3 14 13.79 4.5
7 -3 -13 64.23 9.75
-7 -3 13 55.67 8.32
7 -3 -12 40.6 7.59
-7 -3 12 37.84 6.83
-7 -3 11 70.66 8.9
7 -3 -11 66.65 9.53
-7 -3 10 13.51 4.35
7 -3 -10 22.57 5.94
-7 -3 9 162.96 12.95
7 -3 -9 176.79 14.69
-7 -3 8 -1.38 2.37
7 -3 -8 1.1 2.58
-7 -3 7 209.87 14.26
7 -3 -7 223.74 16.02
-7 -3 6 105.97 10.03
7 -3 -6 134.49 12.32
-7 -3 5 205.35 13.65
7 -3 -5 188.8 14.54
-7 -3 4 34.81 3.63
7 -3 -4 39 7.02
-7 -3 3 224.32 10.02
7 -3 -3 211.89 15.15
-7 -3 2 19.76 3.33
7 -3 -2 30.34 5.92
-7 -3 1 85.71 6.87
7 -3 -1 96.87 10.27
-7 -3 0 38.98 4.99
7 -3 0 25.95 5.68
-7 -3 -1 55.71 6.21
7 -3 1 50.46 7.61
7 -3 2 13.62 5.25
-7 -3 -2 17.84 3.88
7 -3 2 27.2 5.92
7 -3 3 38.2 8.1
-7 -3 -3 40.52 5.93
7 -3 3 38.65 6.9
7 -3 4 31.63 7.77
-7 -3 -4 30.94 5.46
7 -3 4 26.97 5.93
7 -3 5 17.06 6.3
-7 -3 -5 20.86 4.71
7 -3 5 27.19 6.25
7 -3 6 2.58 3.68
-7 -3 -6 3.84 2.91
7 -3 6 5.82 3.53
7 -3 7 15.91 5.91
-7 -3 -7 12.07 4.11
7 -3 7 19.64 5.51
7 -3 8 9.98 4.96
-7 -3 -8 7.64 3.69
7 -3 8 10 4.45
-7 -3 -9 -4.88 3.35
7 -2 -17 19.7 6.02
-7 -2 17 17.96 5.82
-7 -2 17 24.81 5.79
7 -2 -16 25.49 6.43
-7 -2 16 22.99 6.39
-7 -2 16 29.56 6.06
-7 -2 15 23.06 5.11
7 -2 -15 34.81 7.21
-7 -2 15 41.09 7.93
7 -2 -14 6.79 4.25
-7 -2 14 6.61 3.27
-7 -2 14 7.55 3.96
7 -2 -13 12.25 4.62
-7 -2 13 17.35 4.33
-7 -2 12 125.51 10.6
7 -2 -12 118.53 11.87
-7 -2 11 290.28 15.81
7 -2 -11 249.12 16.82
-7 -2 10 97.91 9.01
7 -2 -10 106.57 10.66
-7 -2 9 16.99 4.03
7 -2 -9 15.74 4.41
-7 -2 8 25.1 4.6
7 -2 -8 32.12 5.85
-7 -2 7 94.06 4.73
-7 -2 7 90.59 8.22
7 -2 -7 107.58 10.03
-7 -2 6 320.2 9.91
-7 -2 6 356.95 16.02
-7 -2 5 44.38 3.71
-7 -2 5 38.33 5.25
7 -2 -5 35.37 5.99
-7 -2 4 245.15 9.55
-7 -2 4 251.36 12.86
7 -2 -4 261 15.31
-7 -2 3 223.35 9.6
-7 -2 3 240.02 12.39
7 -2 -3 245.34 14.69
-7 -2 2 172.24 10.33
-7 -2 2 169.77 8.64
7 -2 -2 168.71 12.21
-7 -2 1 24.01 3.47
7 -2 -1 18.05 4.38
-7 -2 0 72.64 6.17
7 -2 0 69.96 8.05
-7 -2 -1 2.63 1.83
7 -2 1 0.22 2.09
-7 -2 -2 10.31 2.78
7 -2 2 10.39 3.52
-7 -2 -3 3.63 2.14
7 -2 3 6.08 2.98
-7 -2 -4 79.27 7.65
7 -2 4 74.71 8.72
-7 -2 -5 63.49 7.09
7 -2 5 55.58 9.48
7 -2 6 11.38 4.92
-7 -2 -6 9.35 3.19
7 -2 6 7.32 3.61
7 -2 7 41.58 8.94
-7 -2 -7 39.19 6.1
7 -2 7 37.72 6.93
7 -2 8 1.07 3.26
-7 -2 -8 0.42 1.94
7 -2 8 -3.04 3.12
7 -2 9 2.63 4.43
-7 -2 -9 7.79 3.68
7 -2 9 12.34 4.93
7 -2 10 69.33 12.16
-7 -2 -10 67.52 8.9
7 -2 10 69.41 10.05
7 -1 -18 11.51 3.78
-7 -1 18 10.08 4.63
-7 -1 18 14.09 4.3
7 -1 -17 3.64 2.77
7 -1 -17 6.19 3.15
-7 -1 17 2.7 2.18
7 -1 -16 21.47 4.56
7 -1 -16 23.02 5.83
-7 -1 16 24.08 4.8
7 -1 -15 7.83 2.98
-7 -1 15 8.18 3.21
7 -1 -15 5.57 3.4
7 -1 -14 11.35 3.36
-7 -1 14 18.84 4.21
7 -1 -13 0.01 1.9
7 -1 -13 5.01 3.49
-7 -1 13 0.12 1.99
7 -1 -12 109.11 10.44
7 -1 -12 89.58 7.73
-7 -1 12 85.31 7.77
7 -1 -11 204.93 13.85
-7 -1 11 203.31 11.43
-7 -1 10 50.34 5.56
-7 -1 10 42.51 3.11
7 -1 -10 49.71 6.79
7 -1 -9 287.12 15.64
-7 -1 9 313.24 13.56
-7 -1 9 286.44 8.38
-7 -1 8 16.01 1.9
-7 -1 8 12.42 2.84
7 -1 -8 16.1 3.76
-7 -1 7 91.41 5.85
7 -1 -7 87.62 8.25
-7 -1 7 91.08 6.91
-7 -1 7 95.19 4.63
-7 -1 6 395.44 12.55
-7 -1 6 360.75 11.81
7 -1 -6 375.96 16.98
-7 -1 6 373.59 14.08
-7 -1 5 226.81 9.53
-7 -1 5 227.35 9.02
7 -1 -5 232.11 13.03
-7 -1 5 255.1 11.22
-7 -1 4 43.4 4.17
-7 -1 4 43.45 4.53
7 -1 -4 35.28 5.11
-7 -1 3 174.14 8.66
-7 -1 3 185.24 9.13
7 -1 -3 176.55 11.34
-7 -1 2 1563.35 32.14
-7 -1 2 1602.08 32.08
7 -1 -2 1595.4 38.2
-7 -1 1 49.87 4.93
-7 -1 1 42.8 4.2
7 -1 -1 43.96 5.79
-7 -1 0 85.45 6.52
-7 -1 0 82.2 5.61
7 -1 0 80.57 7.84
-7 -1 0 71.35 4.43
-7 -1 -1 148.22 7.45
-7 -1 -1 164.21 9.44
7 -1 1 168.65 11.27
-7 -1 -1 137.46 5.92
-7 -1 -2 128.81 8.61
7 -1 2 151.38 10.92
-7 -1 -3 34.65 4.71
7 -1 3 37.63 6.01
-7 -1 -4 208.88 11.81
7 -1 4 213.38 13.74
-7 -1 -5 104.43 8.7
7 -1 5 109.5 10.1
-7 -1 -6 97.4 8.71
7 -1 6 91.7 11.88
7 -1 6 103.73 10.18
-7 -1 -7 62.36 7.31
7 -1 7 45.87 9.14
7 -1 7 74.67 9.06
7 -1 8 41.32 9.04
-7 -1 -8 53.56 7.03
7 -1 8 62.31 8.47
7 -1 9 26.88 7.35
-7 -1 -9 27.13 5.24
7 -1 9 31.34 6.33
7 -1 10 1.13 3.53
-7 -1 -10 4.73 3.28
7 -1 10 0.97 2.23
7 -1 11 44.2 9.72
-7 -1 -11 36.54 6.66
7 -1 11 38.87 7.81
-7 0 19 5.04 3.24
7 0 -18 36.84 5.85
-7 0 18 38.94 6.44
7 0 -17 5.92 2.86
-7 0 17 13.52 3.89
7 0 -16 38.67 5.64
-7 0 16 42.06 6.01
7 0 -15 23.33 5.14
-7 0 15 31.33 5.11
7 0 -15 20.12 4.13
7 0 -14 6.53 2.73
7 0 -14 5.77 3.09
-7 0 14 4.16 2.58
-7 0 14 1.11 1.45
-7 0 13 96.8 7.75
-7 0 13 101.16 8.19
7 0 -13 86.73 8.69
7 0 -13 92.01 7.78
7 0 -12 41.96 5.87
-7 0 12 33.49 4.48
-7 0 12 42.73 5.29
7 0 -12 41.2 5.23
7 0 -11 3.55 1.85
7 0 -11 2.41 2.02
-7 0 11 2.96 1.42
-7 0 11 5.68 2.57
-7 0 10 59.69 5.45
-7 0 10 71.01 6.25
7 0 -10 71.96 6.24
7 0 -10 61.08 6.57
7 0 -9 3.18 1.97
-7 0 9 1.22 1.81
7 0 -9 -0.69 2.23
-7 0 8 2113.22 39.03
7 0 -8 2034.03 42.96
7 0 -8 1999.15 38.9
-7 0 8 2005.34 37.88
7 0 -7 19.8 3.46
-7 0 7 17.32 3.18
-7 0 7 23.05 3.39
7 0 -7 24.39 4.15
-7 0 6 372.66 12.76
7 0 -6 380.19 15.23
-7 0 6 356.72 12.45
-7 0 5 190.21 8.72
7 0 -5 198.48 10.62
-7 0 5 174.25 8.43
-7 0 4 193.23 8.48
7 0 -4 214.58 10.97
-7 0 4 193.61 8.89
-7 0 3 -0.52 1.3
-7 0 3 -0.31 1.07
7 0 -3 -0.22 1.4
-7 0 2 44.49 4.69
7 0 -2 42.94 5.01
-7 0 2 40.62 4.16
-7 0 2 39.61 3.67
-7 0 1 362.64 13.94
7 0 -1 357.42 14.87
-7 0 1 366.45 11.03
-7 0 0 11.27 1.76
-7 0 0 12.34 2.82
7 0 0 11.61 2.97
-7 0 -1 3 0.96
-7 0 -1 3.09 1.92
7 0 1 4.3 2.24
-7 0 -2 41.46 2.79
-7 0 -2 32.99 4.54
7 0 2 44.91 5.58
-7 0 -3 7.09 2.51
7 0 3 4.65 2.3
-7 0 -4 123.29 9.01
7 0 4 107.43 9.09
-7 0 -5 30.13 4.95
7 0 5 25.07 5.05
-7 0 -6 416.05 17.94
7 0 6 437.05 20.18
7 0 7 128.44 14.12
-7 0 -7 118.93 9.78
7 0 8 10.22 4.65
-7 0 -8 14.78 4.03
7 0 9 7.77 4.24
-7 0 -9 5.96 2.93
7 0 10 11.01 5.53
-7 0 -10 21.57 5.06
7 0 11 45.55 9.44
-7 0 -11 56.28 7.81
7 0 12 -1.05 2.92
7 1 -18 16.74 4.74
-7 1 18 17.58 4.54
7 1 -17 7.46 3.24
-7 1 17 5.61 3.15
-7 1 17 2.78 2.58
7 1 -16 19.31 4.43
-7 1 16 30.07 5.34
-7 1 16 22.31 5.15
7 1 -15 11.95 3.3
-7 1 15 10.57 3.47
-7 1 15 6.37 3.17
7 1 -14 19.32 4.29
-7 1 14 19.83 4.3
7 1 -13 0.98 2.03
-7 1 13 -0.79 1.67
-7 1 12 84.66 8.24
7 1 -12 82.24 7.38
7 1 -12 94.77 7.8
-7 1 11 212.8 12.71
7 1 -11 219.76 11.44
7 1 -11 200.69 10.92
-7 1 10 33.86 5
7 1 -10 43.61 4.82
7 1 -10 44.56 4.99
-7 1 9 309.2 14.51
7 1 -9 283.91 12.08
7 1 -9 295.9 12.48
7 1 -8 20.99 3.06
7 1 -8 19.07 3.19
-7 1 8 19.58 3.65
7 1 -7 94.4 5.5
7 1 -7 111.64 6.8
7 1 -7 102.83 6.72
-7 1 7 90.76 7.4
7 1 -6 358.96 11.6
7 1 -6 375.7 12.81
7 1 -6 384.93 13.01
-7 1 6 371.89 15.07
7 1 -5 227.86 9.2
7 1 -5 236.82 9.96
7 1 -5 237.87 9.78
-7 1 5 242.74 11.79
7 1 -4 36.21 3.82
7 1 -4 38.28 3.72
-7 1 4 40.08 4.72
7 1 -4 33.67 3.56
7 1 -3 170.7 8.58
-7 1 3 176.57 9.72
7 1 -2 1591.06 32.2
-7 1 2 1564.44 34.16
-7 1 1 32.09 4.4
7 1 -1 54.6 5.08
7 1 -1 52.05 5
-7 1 0 67.37 6.35
7 1 0 81.7 6.19
7 1 0 76.89 6.22
-7 1 0 73.99 6.36
-7 1 -1 156.07 9.78
7 1 1 152.38 8.39
7 1 1 152.2 9.17
-7 1 -1 152.88 9.29
-7 1 -2 137.8 5.12
-7 1 -2 139.12 9.34
7 1 2 160.71 8.5
7 1 2 161.75 9.82
7 1 3 41.55 4.41
-7 1 -3 39.66 5.1
7 1 3 36.69 5.06
-7 1 -3 34.32 2.02
-7 1 -4 193.99 11.51
7 1 4 199.65 9.74
-7 1 -5 95.92 8.33
7 1 5 104.59 7.12
-7 1 -6 104.66 8.88
7 1 6 101.31 7.01
-7 1 -7 58.76 6.99
7 1 7 63.18 5.57
7 1 8 56.89 9.26
-7 1 -8 53.99 6.89
7 1 9 20.87 6.18
-7 1 -9 27.63 5.22
7 1 10 6.48 4.03
-7 1 -10 3.36 2.33
7 1 11 32.81 7.83
-7 1 -11 41.69 6.8
7 1 12 38.53 8.84
-7 1 -12 36.22 6.79
-7 2 19 18.31 6.02
-7 2 18 12.98 5.02
7 2 -17 27.92 5.43
-7 2 17 19.84 5.69
7 2 -16 20.24 4.57
-7 2 16 20.01 5.33
7 2 -15 38.48 5.92
-7 2 15 27.45 5.95
7 2 -14 3.69 2.14
-7 2 14 8.72 3.95
7 2 -13 19.74 4.11
-7 2 13 16.04 4.7
-7 2 12 113.65 10.91
7 2 -12 134.48 9.84
-7 2 11 261.42 16
7 2 -11 261.59 13.18
-7 2 10 100.91 9.68
7 2 -10 103.09 7.91
7 2 -9 18.35 3.35
-7 2 9 19.98 4.45
7 2 -8 28.99 4.04
-7 2 8 33.78 5.51
-7 2 7 94.08 8.69
7 2 -7 106.29 7.1
7 2 -7 97.24 6.86
7 2 -6 356.37 7.63
7 2 -6 368.62 13.46
7 2 -6 374.55 12.93
-7 2 6 370.91 17.07
7 2 -5 42.24 3.05
7 2 -5 52.99 4.56
7 2 -5 51.12 5.11
7 2 -5 35.14 2.27
-7 2 5 54.33 6.4
7 2 -4 249.06 11.12
7 2 -4 237.62 7.25
7 2 -4 259.87 9.77
7 2 -4 244.63 8.54
-7 2 4 253.28 13.64
7 2 -3 248.81 11.17
7 2 -3 239.67 8.11
7 2 -3 225.8 8.73
7 2 -3 239.27 9
-7 2 3 228.54 12.76
7 2 -2 185.27 9.57
7 2 -2 165.99 7.44
-7 2 2 167.57 10.75
7 2 -2 187.33 7.52
-7 2 1 19.85 3.82
7 2 -1 22.97 3.52
7 2 -1 24.71 3.04
7 2 0 76.86 6.22
7 2 0 79.24 5.68
-7 2 0 66.37 6.8
-7 2 -1 0.06 1.62
7 2 1 1.59 1.76
7 2 1 -0.32 1.16
-7 2 -2 14.77 3.56
7 2 2 16.62 3.14
-7 2 -2 11.38 3.14
-7 2 -3 7.27 2.7
7 2 3 6.53 2.29
-7 2 -3 1.46 1.92
-7 2 -4 67.14 7
7 2 4 70.32 6.13
-7 2 -5 65.28 7.25
7 2 5 61.84 5.9
7 2 6 12.44 2.87
-7 2 -6 16.36 3.86
7 2 7 35.36 4.59
-7 2 -7 35.14 5.74
7 2 8 3.87 3.88
7 2 8 3.57 1.94
-7 2 -8 0.7 2.02
7 2 9 14.48 5.11
7 2 9 12.88 3.12
-7 2 -9 9.68 3.49
-7 2 -10 67.15 8.14
-7 2 -11 5.31 2.81
-7 3 16 9.99 4.86
7 3 -15 39.02 6.47
-7 3 15 29.1 7.04
7 3 -14 26.68 5.29
-7 3 14 19.2 6.05
7 3 -13 64.37 7.51
-7 3 13 69.49 9.7
7 3 -12 44.83 6.19
-7 3 12 44.14 7.81
-7 3 11 61.97 8.7
7 3 -11 76.61 7.59
7 3 -10 24.12 4.44
7 3 -10 27.83 4.06
-7 3 10 24.53 5.72
-7 3 9 177.66 13.98
7 3 -9 172.76 9.78
7 3 -9 176.35 10.66
7 3 -8 -0.62 1.44
7 3 -8 1.98 2.06
-7 3 8 1.1 2.54
-7 3 7 211.23 14.61
7 3 -7 239.82 11.55
7 3 -7 234.94 11.29
7 3 -6 122.3 8.17
7 3 -6 110.23 7.4
-7 3 6 114.42 10.6
7 3 -5 203.54 10.63
7 3 -5 212.57 9.74
-7 3 5 197.04 13.67
7 3 -4 48.51 5.3
-7 3 4 33.29 5.71
7 3 -4 44.26 4.25
7 3 -3 231.01 11.66
7 3 -3 237.43 9.14
-7 3 3 235.83 14.59
7 3 -2 25.9 2.75
7 3 -2 26.81 4.27
-7 3 2 26.46 5.1
7 3 -1 86.85 7.25
-7 3 1 91.78 8.82
-7 3 0 32.16 5.3
7 3 0 30.76 4.58
7 3 1 58.43 6.04
-7 3 -1 60.74 7.12
-7 3 -2 16.71 4
7 3 2 19.36 3.87
-7 3 -3 43.95 6.17
7 3 3 43.23 5.42
-7 3 -3 52.89 6.63
-7 3 -4 27.15 4.84
7 3 4 31.42 4.75
-7 3 -4 25.42 4.84
-7 3 -5 13.83 3.91
7 3 5 21.26 3.9
-7 3 -5 24.94 4.8
7 3 6 2.33 2.12
-7 3 -6 0.35 1.9
7 3 7 16.83 3.69
-7 3 -7 17.36 4.21
7 3 8 11.85 3.23
-7 3 -8 4.36 2.84
7 3 9 -1.02 2.13
-7 3 -9 3.1 2.4
-7 3 -10 8.11 3.45
7 4 -13 4.12 2.77
7 4 -12 14.15 4.09
-7 4 12 11.22 4.48
7 4 -11 8.32 3.25
7 4 -11 11.89 3.15
-7 4 11 9 4.36
7 4 -10 20.93 4.47
7 4 -10 18.63 3.76
-7 4 10 15.99 5.19
7 4 -9 10.55 3.19
7 4 -9 3.43 1.92
-7 4 9 7.55 3.7
7 4 -8 131.74 9.16
7 4 -8 134.62 9.76
7 4 -7 4.25 2.1
7 4 -7 3.51 2.5
-7 4 7 3.46 2.73
7 4 -6 156.34 10.06
7 4 -6 131.56 8.77
-7 4 6 156.03 13.62
7 4 -5 34.15 4.32
7 4 -5 38.72 5.22
-7 4 5 32.03 6.25
7 4 -4 0.24 2.07
-7 4 4 1.18 2.27
7 4 -3 37.43 5.3
-7 4 3 37.83 6.76
7 4 -2 17.93 3.88
-7 4 2 26.07 5.54
7 4 -1 9.16 3.17
-7 4 1 4.01 3.06
-7 4 0 8.92 3.6
7 4 0 9.85 3.2
7 4 1 70.51 7.38
-7 4 -1 91.04 9.49
-7 4 -2 -4.87 2.92
7 4 2 4.68 2.59
-7 4 -3 9.81 3.47
7 4 3 7.37 3.16
-7 4 -3 4.91 2.93
-7 4 -4 9.21 3.79
7 4 4 9.45 3.15
-7 4 -4 10.86 3.56
-7 4 -5 10.24 3.66
7 4 5 12.46 3.73
-7 4 -5 14.4 3.91
-7 4 -6 12.57 3.91
7 4 6 17.19 4.08
-7 4 -6 13.86 3.84
7 4 7 -3.86 2.71
-7 4 -7 -0.34 1.91
-7 4 -8 5.41 2.93
7 5 -11 6.29 3.48
7 5 -10 44.63 6.74
7 5 -10 33.95 5.26
7 5 -9 2.53 1.99
7 5 -8 6.63 2.9
7 5 -7 34.41 5.42
7 5 -6 2.48 2.42
-7 5 6 2.28 2.94
7 5 -5 0.5 2.16
-7 5 5 6.08 3.85
7 5 -4 21 4.5
-7 5 4 27.41 6.55
7 5 -3 18.23 4.32
-7 5 3 22.82 6.03
7 5 -2 12.56 3.81
-7 5 2 11.16 4.4
7 5 -1 8.42 3.45
-7 5 1 15.59 4.89
-7 5 0 -0.56 2.4
-7 5 -1 -2.08 2.75
-7 5 -4 16.12 4.69
-7 5 -5 10.5 3.69
-8 -4 11 1.23 2.66
8 -4 -11 3.6 2.81
8 -4 -10 2.53 3.43
8 -4 -9 8.08 3.83
8 -4 -8 54.37 9.26
8 -4 -7 33.37 7.46
8 -4 -6 60.69 9.71
8 -4 -5 10.73 4.82
8 -4 -4 22.43 6.05
8 -4 -3 6.37 3.87
8 -4 -2 -0.35 2.68
8 -4 -2 -4.84 4.03
8 -4 -1 2.5 3.7
8 -4 -1 2.42 3.05
8 -4 0 25.15 7.14
8 -4 0 22.83 6.44
8 -4 1 30.84 7.86
8 -4 1 29.13 6.73
8 -4 2 10.53 5.41
-8 -4 -2 2.6 2.25
8 -4 2 8.74 4.3
8 -4 3 -0.2 3.16
-8 -4 -3 4.87 2.89
8 -4 4 4.74 4.5
-8 -4 -4 3.31 2.56
-8 -4 -5 11.11 4.42
8 -3 -14 0.36 2.4
-8 -3 14 -1.82 3.05
8 -3 -13 8.6 4.12
-8 -3 13 9.35 3.82
-8 -3 12 55.05 8.32
8 -3 -12 60.39 9.61
-8 -3 11 8.08 3.59
8 -3 -11 2.84 3.13
-8 -3 10 3.79 2.8
8 -3 -10 0.69 2.88
-8 -3 9 49.67 7.44
8 -3 -9 63.73 9.2
-8 -3 8 217.61 15.21
8 -3 -8 203.01 16.19
-8 -3 7 5.23 3.14
8 -3 -7 11.27 4.52
-8 -3 6 5.13 3.09
8 -3 -6 14.78 5.09
-8 -3 5 138.25 11.45
8 -3 -5 107.95 11.51
8 -3 -4 -0.05 3.37
-8 -3 3 58.31 5.38
8 -3 -3 61.87 8.77
-8 -3 2 28.93 4.15
8 -3 -2 21.23 5.34
-8 -3 1 10.44 2.82
8 -3 -1 16.3 4.79
-8 -3 0 16.92 3.66
8 -3 0 17.81 5.31
-8 -3 -1 117.66 9.31
8 -3 1 142.2 13.16
8 -3 2 5.96 4.44
-8 -3 -2 6.15 2.77
8 -3 2 1.8 3.11
8 -3 3 18.36 6.52
-8 -3 -3 20.38 4.41
8 -3 3 15.11 4.87
8 -3 4 26.4 7.5
-8 -3 -4 31.3 5.8
8 -3 4 38.84 7.3
8 -3 5 14.73 6.03
-8 -3 -5 19.38 4.78
8 -3 5 23.9 6.21
8 -3 6 6.17 4.68
-8 -3 -6 1.57 2.36
8 -3 6 5.9 3.87
8 -3 7 10.19 5.39
-8 -3 -7 4.81 3.26
8 -2 -17 2.39 3.15
8 -2 -16 35.01 7.47
-8 -2 16 35.8 6.71
-8 -2 15 23.19 5.53
8 -2 -15 15.77 5.33
8 -2 -14 31.01 6.78
-8 -2 14 25.34 5.33
8 -2 -13 49.6 8.11
-8 -2 13 48.98 7.02
8 -2 -12 43.56 7.58
-8 -2 12 44.09 6.67
-8 -2 11 234.75 14.79
8 -2 -11 263.1 17.78
-8 -2 10 239.44 14.65
8 -2 -10 234.33 16.38
-8 -2 9 60.74 7.31
8 -2 -9 52.29 7.82
-8 -2 8 162.7 11.58
8 -2 -8 152.64 12.9
-8 -2 7 408.32 12.2
-8 -2 7 459.22 19.41
8 -2 -7 461.26 22.14
-8 -2 6 140.98 7.18
-8 -2 6 157.32 11.05
8 -2 -6 148.86 12.44
-8 -2 5 43.55 4.2
-8 -2 5 52.34 6.31
8 -2 -5 38.35 6.37
-8 -2 4 252.71 10.64
-8 -2 4 264.61 13.83
8 -2 -4 258.43 16.24
-8 -2 3 170.27 9.02
-8 -2 3 186.2 11.27
8 -2 -3 185.93 13.65
-8 -2 2 132.49 9.35
-8 -2 2 126.52 8.1
8 -2 -2 124.2 11.19
-8 -2 1 23.12 3.83
8 -2 -1 26.71 5.61
-8 -2 0 10.38 2.95
8 -2 0 13.52 4.1
-8 -2 -1 116.54 8.82
8 -2 1 132.93 11.93
-8 -2 -2 47.25 5.92
8 -2 2 62.74 8.24
-8 -2 -3 127.77 9.94
8 -2 3 129 11.99
8 -2 4 3.77 3.38
-8 -2 -4 5.22 2.73
8 -2 4 5.22 3.36
8 -2 5 19.07 6.4
-8 -2 -5 23.21 4.82
8 -2 5 22.19 5.83
8 -2 6 10.53 5.62
-8 -2 -6 24.07 5.01
8 -2 6 24.74 5.61
8 -2 7 19.6 7.17
-8 -2 -7 14.45 4.03
8 -2 7 21.52 6.03
8 -2 8 8.5 4.93
-8 -2 -8 3.8 2.54
8 -2 8 12.61 4.91
8 -1 -18 11.28 4.62
8 -1 -17 68.62 8.04
8 -1 -17 80.76 10.55
-8 -1 17 66.14 8.25
8 -1 -16 14.53 4.06
8 -1 -16 13.07 4.44
-8 -1 16 11.81 3.84
8 -1 -15 39.86 5.89
8 -1 -15 43.77 7.37
-8 -1 15 48.57 6.71
8 -1 -14 88.75 10.14
-8 -1 14 93.8 8.8
8 -1 -14 92.21 8.56
8 -1 -13 -0.64 2.5
-8 -1 13 -2.6 2.72
8 -1 -12 14.22 4.06
-8 -1 12 14.19 3.43
8 -1 -11 162.67 12.77
-8 -1 11 145.5 10.07
8 -1 -10 132.4 11.27
-8 -1 10 159.06 10.19
8 -1 -9 279.3 16.07
-8 -1 9 262.65 13.08
-8 -1 8 13.56 2.04
-8 -1 8 12.58 2.99
8 -1 -8 9.22 3.19
-8 -1 7 11.64 2.93
-8 -1 7 6.38 1.96
8 -1 -7 9.15 3.11
-8 -1 6 100.48 6.68
8 -1 -6 96.82 9.1
-8 -1 6 109.68 7.78
-8 -1 5 57.56 5.21
-8 -1 5 55.43 5.54
8 -1 -5 54.61 6.91
-8 -1 4 151.17 8.58
-8 -1 4 184.74 9.89
8 -1 -4 155.28 11.29
-8 -1 3 313.52 12.81
-8 -1 3 299.87 12.67
8 -1 -3 288.53 15.46
-8 -1 2 121.67 8.19
-8 -1 2 146.19 8.46
8 -1 -2 139.17 10.68
-8 -1 1 57.39 5.71
-8 -1 1 65.62 5.44
8 -1 -1 58.67 7.09
-8 -1 0 79.61 5.86
-8 -1 0 78.41 6.82
8 -1 0 81.72 8.46
-8 -1 -1 68.67 6.6
8 -1 1 70.2 7.94
-8 -1 -2 154.51 10.33
8 -1 2 167.03 12.38
-8 -1 -3 7.72 2.88
8 -1 3 13.26 3.87
-8 -1 -4 49.75 6.2
8 -1 4 47.38 7.06
-8 -1 -5 20.61 4.35
8 -1 5 24.56 5.35
8 -1 6 16.52 6.04
-8 -1 -6 14.36 3.99
8 -1 6 13.39 4.34
8 -1 7 26.8 7.82
-8 -1 -7 19.41 4.57
8 -1 7 23.17 5.72
8 -1 8 42.64 9.32
-8 -1 -8 33.24 6.11
8 -1 8 35.47 7.05
8 -1 9 -2.5 3.59
-8 -1 -9 1.92 2.18
8 -1 9 4.23 3.73
8 -1 10 55.92 11.48
8 0 -18 9.2 3.2
-8 0 18 10.03 3.81
8 0 -17 1.95 2.51
-8 0 17 1.09 2.36
8 0 -16 33.71 5.46
8 0 -16 25.96 5.53
-8 0 16 31.81 5.63
8 0 -15 38.73 5.78
8 0 -15 43.49 6.76
-8 0 15 41.91 6.07
8 0 -14 3.78 2.32
8 0 -14 4.36 2.38
-8 0 14 4.86 2.71
8 0 -13 15.71 3.65
8 0 -13 9.7 3.47
-8 0 13 10.16 3.08
8 0 -12 12.31 3.3
8 0 -12 9.29 3.14
-8 0 12 13.46 3.05
-8 0 12 10 3.16
-8 0 11 359.59 15.23
8 0 -11 379.62 17.72
8 0 -11 369.67 15.63
-8 0 11 404.28 15.05
8 0 -10 28.12 4.25
-8 0 10 31.05 4.03
-8 0 10 28.93 4.33
8 0 -10 21.52 4.29
-8 0 9 140.53 8.87
8 0 -9 133.4 9.89
8 0 -9 140.24 8.96
-8 0 9 151.56 8.54
-8 0 8 351.75 13.82
8 0 -8 363.02 14.32
8 0 -8 376.07 16.47
-8 0 8 361.94 13.35
-8 0 7 7.61 2.08
-8 0 7 7.44 2.4
8 0 -7 6.8 2.6
-8 0 6 53.22 4.98
8 0 -6 54.76 6.17
-8 0 6 60.9 5.23
-8 0 5 40.74 4.3
8 0 -5 36.73 5.09
-8 0 5 36.34 4.15
8 0 -4 137.2 9.51
-8 0 4 123.88 7.69
-8 0 4 135.23 7.53
-8 0 3 20.18 2.92
-8 0 3 27.06 3.65
-8 0 3 17.74 3.3
8 0 -3 18.31 3.65
-8 0 2 67.7 6.26
8 0 -2 67.44 6.74
-8 0 2 57.86 5.48
-8 0 2 59.05 4.62
-8 0 1 23.08 3.9
-8 0 1 30.17 3.16
8 0 -1 25.89 4.31
-8 0 0 96.86 7.75
8 0 0 101.26 8.65
-8 0 0 103.54 5.6
-8 0 -1 564.75 19.89
-8 0 -1 564.02 13.91
8 0 1 593.24 21.68
-8 0 -2 12.38 1.75
-8 0 -2 10.93 3.13
8 0 2 18.85 4.1
-8 0 -3 50.43 6.11
8 0 3 51.49 6.69
-8 0 -4 43.22 5.92
8 0 4 43.01 6.43
-8 0 -5 -0.19 2.16
8 0 5 -1.02 2.32
-8 0 -6 396.09 18.42
8 0 6 382.67 20.25
8 0 7 1.72 3.59
-8 0 -7 1.67 2.42
8 0 7 4.03 3.29
8 0 8 60.31 10.66
-8 0 -8 53.54 7.27
8 0 8 46.49 7.75
8 0 9 22.25 7.38
-8 0 -9 13.92 4.2
8 0 9 25.33 6
8 0 10 6.07 4.32
-8 0 -10 9.26 4.34
8 0 10 1.22 2.39
8 0 11 20.3 7.27
8 1 -17 61.46 7.57
-8 1 17 66.05 8
8 1 -16 14.89 4.01
-8 1 16 14.91 4.17
8 1 -15 42.81 6
-8 1 15 50.68 7.09
-8 1 15 42.65 6.29
-8 1 14 79.79 8.54
-8 1 14 104.62 9.2
8 1 -14 98.03 8.69
8 1 -13 1.09 2.3
8 1 -13 3.96 1.86
-8 1 13 5.91 2.93
-8 1 13 2.98 2.37
8 1 -12 20.75 3.93
8 1 -12 15.55 3.51
-8 1 12 13.07 3.51
-8 1 11 171.39 11.53
8 1 -11 185.35 10.62
8 1 -11 180.87 10.68
-8 1 10 139.98 10.2
8 1 -10 127.25 8.53
8 1 -10 142.26 9.03
8 1 -9 267.3 12.06
8 1 -9 274.23 12.41
-8 1 9 256.38 13.58
8 1 -8 10.57 2.82
-8 1 8 16.55 3.58
8 1 -8 12.79 2.76
8 1 -7 10.16 2.4
-8 1 7 12.73 3.08
8 1 -7 10.69 2.55
8 1 -6 101.32 6.99
8 1 -6 102.48 6.9
-8 1 6 97.85 7.8
8 1 -5 51.94 5.12
-8 1 5 53.64 5.79
8 1 -5 57.82 5.13
8 1 -4 165.21 9.18
-8 1 4 153.22 9.59
8 1 -3 292.32 12.6
-8 1 3 281.31 13.15
8 1 -2 145.4 8.9
-8 1 2 123.5 8.69
-8 1 1 54.94 6.18
8 1 -1 61.55 5.95
-8 1 1 57.76 6.09
-8 1 0 76.68 4.65
-8 1 0 69.89 6.91
8 1 0 75.67 6.76
-8 1 0 64.26 6.44
-8 1 -1 67.72 4.06
-8 1 -1 60.85 6.6
8 1 1 74.91 7
-8 1 -1 68.43 6.7
-8 1 -2 153.71 10.54
8 1 2 150.73 10.23
-8 1 -2 150.12 5.49
-8 1 -3 11.69 3.38
8 1 3 15.64 3.9
-8 1 -4 43.85 5.94
8 1 4 40.98 6.08
-8 1 -5 15.64 3.86
8 1 5 25.91 5.02
-8 1 -6 11.76 3.76
-8 1 -7 22.78 4.81
8 1 8 37.25 8.05
-8 1 -8 41.38 6.59
8 1 9 6.93 4.11
-8 1 -9 1.89 2.58
8 1 10 61.15 11.01
-8 1 -10 69.37 8.78
8 1 11 -4.71 4.61
-8 2 18 21.02 5.85
-8 2 17 4.63 3.34
8 2 -16 23.17 4.93
-8 2 16 33.69 6.81
8 2 -15 18.32 4.46
-8 2 15 16.14 5.07
8 2 -14 20.43 4.41
-8 2 14 23.61 5.49
8 2 -13 34.54 5.3
-8 2 13 40.19 6.8
8 2 -12 46.92 5.87
-8 2 12 37.66 6.51
-8 2 11 244.53 15.56
8 2 -11 229.19 12.42
-8 2 10 267.35 15.87
8 2 -10 249 12.59
-8 2 9 57.54 7.29
8 2 -9 58.77 5.78
8 2 -8 162.35 9.32
-8 2 8 161.83 11.96
8 2 -7 454.36 15.62
-8 2 7 456.45 19.97
8 2 -6 146.75 9.11
8 2 -6 148.12 8.26
-8 2 6 144.61 10.89
8 2 -5 49.98 5.41
-8 2 5 45.78 6.24
8 2 -5 39.37 4.21
8 2 -4 284.72 12.6
8 2 -4 251.49 9.04
-8 2 4 268.27 14.39
8 2 -4 269 10.6
8 2 -3 177.98 10.03
8 2 -3 157.89 7.61
-8 2 3 199.82 12.24
8 2 -2 126.47 8.68
8 2 -2 141.94 7.71
-8 2 2 137.36 10.15
-8 2 1 21.03 4.15
8 2 -1 21.71 3.85
8 2 -1 16.79 2.91
-8 2 0 7.06 2.79
8 2 0 9.86 2.75
8 2 0 8.17 2.39
-8 2 -1 140.22 10.54
8 2 1 144.43 9.39
8 2 1 135.31 8.78
-8 2 -1 141.87 10.41
-8 2 -2 45.59 6.18
8 2 2 45.7 5.45
-8 2 -2 50.48 6.47
8 2 2 40.29 5.18
-8 2 -3 127 10.23
8 2 3 147.75 9.48
8 2 3 153.23 10.32
-8 2 -3 142.53 10.68
8 2 4 4.68 2.45
-8 2 -4 4.32 2.75
8 2 5 15.24 3.44
-8 2 -5 17.33 4.21
8 2 6 22.06 4.08
-8 2 -6 23.75 4.98
8 2 7 20.31 3.94
-8 2 -7 18.29 4.46
8 2 8 14.9 5.1
8 2 8 9.86 2.91
-8 2 -8 5.34 2.74
-8 2 -9 1.14 2.32
-8 3 16 24.94 6.8
8 3 -15 59.77 7.73
-8 3 15 52.97 8.83
8 3 -14 -0.98 2.11
-8 3 14 1.1 2.71
8 3 -13 12.66 3.56
-8 3 13 10.45 4.09
8 3 -12 59.01 7.04
-8 3 12 53.66 8.56
8 3 -11 2.46 1.85
-8 3 11 1.3 2.65
8 3 -10 4.79 2.27
-8 3 10 -0.85 2.62
8 3 -9 36.52 4.94
8 3 -9 48.69 5.71
-8 3 9 48.44 7.68
8 3 -8 205.63 11.33
8 3 -8 216.9 11.32
-8 3 8 198.01 14.59
8 3 -7 0.98 1.52
8 3 -7 4.96 2.64
-8 3 7 2.91 2.18
8 3 -6 4.06 1.89
8 3 -6 5.61 2.45
-8 3 6 6.19 2.99
8 3 -5 120.5 8.68
8 3 -5 117.9 7.26
-8 3 5 124.68 11.06
8 3 -4 3.54 1.42
8 3 -4 5.85 2.54
-8 3 4 3.71 2.9
8 3 -3 64.79 6.46
-8 3 3 52.51 7.27
8 3 -3 67.42 4.86
-8 3 2 27.39 5.16
8 3 -2 28 4.38
-8 3 1 7.42 3.13
8 3 -1 13.98 3.3
-8 3 0 15.82 4.11
8 3 0 21.45 3.97
8 3 1 118.41 8.99
-8 3 -1 109.49 10.04
-8 3 -2 3.29 2.83
8 3 2 0.45 1.82
-8 3 -2 4.83 2.45
-8 3 -3 22.9 4.95
8 3 3 19.75 4.02
-8 3 -3 20.78 4.88
-8 3 -4 28.98 5.36
8 3 4 34.35 5.06
-8 3 -4 28.45 5.18
8 3 5 18.67 3.9
-8 3 -5 19 4.48
8 3 6 8.33 3.18
-8 3 -6 3.56 2.58
8 3 7 6.53 2.71
-8 3 -7 9.19 3.68
8 3 8 -0.72 1.94
-8 3 -8 1.99 2.46
8 4 -13 19.18 4.76
8 4 -12 16.76 4.28
8 4 -11 3.16 2.47
8 4 -11 6.88 3.01
-8 4 11 8.07 3.87
8 4 -10 2.66 2.2
8 4 -10 0.48 1.95
-8 4 10 1.01 2.47
8 4 -9 7.85 2.81
8 4 -9 10.01 3.16
8 4 -8 42.66 5.42
8 4 -8 46.62 5.87
-8 4 8 48.23 8.22
8 4 -7 44.43 5.32
8 4 -7 39.61 5.54
-8 4 7 37.66 6.94
8 4 -6 71.32 7.18
-8 4 6 60.31 8.63
8 4 -5 17.49 3.89
-8 4 5 11.34 4.36
8 4 -4 19.61 4.12
-8 4 4 11.92 4.14
8 4 -3 2.15 2.15
-8 4 3 2.34 2.32
-8 4 2 0.64 2.42
8 4 -2 1.57 2.05
-8 4 1 -2.82 2.59
8 4 -1 -0.8 2.31
-8 4 0 21.84 5.09
8 4 0 17.82 4.02
-8 4 -1 23.85 5.41
8 4 1 20.18 4.42
-8 4 -2 0.92 2.11
8 4 2 -1.43 2.14
-8 4 -3 0.36 2.18
8 4 3 3.1 2.49
-8 4 -3 -1.43 2.41
-8 4 -4 4.91 2.8
8 4 4 0.99 2.16
-8 4 -4 4.45 2.62
-8 4 -5 12.34 4.1
-8 4 -6 26.2 5.47
9 -4 -8 18.41 5.92
9 -4 -7 4.94 4.53
9 -4 -6 26.19 7.06
9 -4 -5 -1.97 3.24
9 -4 -4 1.04 3.15
9 -4 -3 -4.09 3.6
9 -4 -2 15.55 5.8
9 -4 -2 11.33 5.06
9 -4 -1 61.15 11.11
9 -4 -1 61.85 10.31
9 -4 0 13.44 5.77
9 -4 0 13.22 5.5
9 -4 1 -0.02 2.66
9 -4 2 -4.9 4.67
-9 -4 -4 20.2 5.34
9 -3 -13 -1.15 2.54
-9 -3 13 0.89 2.42
-9 -3 12 39.92 7.23
9 -3 -12 33.65 7.49
-9 -3 11 3.34 2.95
9 -3 -11 9.9 4.42
-9 -3 10 29.23 6.34
9 -3 -10 14.45 5.32
-9 -3 9 21.78 5.5
9 -3 -9 17.73 5.56
-9 -3 8 72.14 9.09
9 -3 -8 70.14 9.86
-9 -3 7 48.41 7.49
9 -3 -7 45.9 8.14
-9 -3 6 9.52 3.99
9 -3 -6 12.64 4.67
-9 -3 5 69.62 8.57
9 -3 -5 84.94 10.8
9 -3 -4 5.19 3.92
9 -3 -3 72.37 10.08
-9 -3 2 36.1 4.93
9 -3 -2 36.75 7.46
-9 -3 1 33.56 4.98
9 -3 -1 47.51 8.34
-9 -3 0 6.91 2.69
9 -3 0 2.8 3.29
-9 -3 -1 23.82 4.73
9 -3 1 22.57 6.18
9 -3 2 2.48 3.24
-9 -3 -2 6.25 2.62
9 -3 3 16.27 6.83
-9 -3 -3 26.78 5.23
9 -3 3 19 6.02
9 -3 4 5.72 4.12
-9 -3 -4 11.06 3.79
9 -3 5 27.75 9.3
-9 -3 -5 14.63 4.37
-9 -3 -6 9.9 4.18
9 -2 -16 9.91 4.47
-9 -2 15 14.31 4.33
9 -2 -15 15.68 5.51
9 -2 -14 9.79 4.25
-9 -2 14 15.92 4.58
9 -2 -13 24.55 5.93
-9 -2 13 22.74 5.21
-9 -2 12 1.47 2.3
9 -2 -12 -4.54 3.43
-9 -2 11 10.14 3.61
9 -2 -11 9.21 4.01
-9 -2 10 21.16 4.94
9 -2 -10 14.75 4.57
-9 -2 9 30.45 5.62
9 -2 -9 30.27 6.19
-9 -2 8 32.01 5.69
9 -2 -8 22.95 5.34
-9 -2 7 29.19 5.22
9 -2 -7 32.66 6.6
-9 -2 6 22.39 3.23
-9 -2 6 28.51 5.03
9 -2 -6 20.47 5.17
-9 -2 5 42.99 4.6
-9 -2 5 45.13 6.12
9 -2 -5 44.55 7.18
-9 -2 4 15.64 3.69
-9 -2 4 4.96 1.89
9 -2 -4 12.24 4.03
-9 -2 3 89.21 7.14
-9 -2 3 90.16 8.28
9 -2 -3 73.71 9.21
-9 -2 2 30.94 4.87
-9 -2 2 16.51 3.47
9 -2 -2 27.45 5.91
-9 -2 1 10.16 3
9 -2 -1 8.96 3.61
-9 -2 0 91.57 8.04
9 -2 0 84.81 10.05
-9 -2 -1 215.55 12.78
9 -2 1 229.52 16.45
-9 -2 -2 5.71 2.65
9 -2 2 14.53 4.77
-9 -2 -3 159.68 11.85
9 -2 3 177.13 14.86
9 -2 4 24.62 7.55
-9 -2 -4 27.15 5.22
9 -2 4 31.85 6.75
9 -2 5 7.05 4.37
-9 -2 -5 7.74 3.59
9 -2 5 4.91 3.64
9 -2 6 -0.2 4.07
-9 -2 -6 5.61 2.96
9 -2 6 6.52 3.72
-9 -2 -7 6.36 3.34
9 -1 -18 6.8 3.85
9 -1 -17 44.8 8.03
9 -1 -16 42.02 7.68
-9 -1 16 59.78 7.93
9 -1 -15 5.75 3.22
-9 -1 15 9.07 3.22
9 -1 -14 48.24 7.77
-9 -1 14 48.96 6.71
9 -1 -13 3.07 2.46
-9 -1 13 1.45 1.91
-9 -1 12 16.55 3.85
9 -1 -12 29.85 6.04
-9 -1 11 16.63 3.92
9 -1 -11 7.95 3.51
-9 -1 10 12.83 3.19
9 -1 -10 13.38 4.27
-9 -1 9 68.64 5.82
9 -1 -9 95.5 9.8
-9 -1 9 88.67 7.82
-9 -1 8 205.5 10.25
9 -1 -8 195.05 13.81
-9 -1 8 190.33 11.28
-9 -1 7 246.01 11.41
9 -1 -7 237.84 15.15
-9 -1 7 253.6 12.99
-9 -1 6 26.23 4.25
-9 -1 6 19.62 3.42
9 -1 -6 24.04 5
-9 -1 5 102.12 7.57
-9 -1 5 114.04 8.32
9 -1 -5 105.63 9.93
-9 -1 4 16.11 3.32
-9 -1 4 7.04 2.43
9 -1 -4 8.24 3.43
-9 -1 3 174.43 10.27
-9 -1 3 182.82 10.35
9 -1 -3 187.01 13.15
-9 -1 2 106.23 8.24
-9 -1 2 128.5 8.29
9 -1 -2 103.23 9.93
-9 -1 1 98.1 8.04
-9 -1 1 85.95 6.61
9 -1 -1 92.12 9.5
-9 -1 0 51.05 4.91
-9 -1 0 50.04 6.01
9 -1 0 52.11 7.29
-9 -1 -1 34.23 5.24
9 -1 1 48.26 7.17
-9 -1 -2 93.95 8.57
9 -1 2 106.99 10.57
-9 -1 -3 47.78 6.41
9 -1 3 50.56 7.65
-9 -1 -4 74.15 8.07
9 -1 4 62.96 8.66
-9 -1 -5 10.33 3.77
9 -1 5 13.75 4.85
9 -1 6 8.95 4.8
-9 -1 -6 8.58 3.57
9 -1 6 3.78 3.39
9 -1 7 1.63 2.96
-9 -1 -7 2.07 2.32
9 -1 7 -3.23 3.25
-9 -1 -8 -2.72 3
9 -1 8 0.63 2.43
9 0 -17 38.23 6.22
9 0 -17 28.64 5.94
-9 0 17 34.4 6.33
9 0 -16 7.03 3.09
9 0 -16 4.42 2.83
-9 0 16 7.2 3.27
9 0 -15 13.79 4.12
9 0 -15 23.99 5.32
-9 0 15 15.67 4.27
9 0 -14 53.09 6.67
9 0 -14 44.97 6.83
-9 0 14 51.64 6.57
9 0 -13 -1.95 2.51
9 0 -13 4.19 2.77
-9 0 13 -1.32 2.09
9 0 -12 47.19 6.02
9 0 -12 54.04 6.95
-9 0 12 48.13 5.93
9 0 -11 18.88 4.22
9 0 -11 17.38 3.72
-9 0 11 14.45 3.48
-9 0 11 16.6 3.19
9 0 -10 193.28 12.61
9 0 -10 170.6 10.68
-9 0 10 192.54 10.08
-9 0 10 185.39 10.79
9 0 -9 119.61 9.85
-9 0 9 117.18 7.79
-9 0 9 120.96 8.6
9 0 -8 313.27 15.86
-9 0 8 314.05 12.88
-9 0 8 317.31 13.47
9 0 -7 409.3 18.19
-9 0 7 360.38 13.97
-9 0 7 380.6 14.74
-9 0 6 17.05 3.36
-9 0 6 17.56 3.09
9 0 -6 23.02 4.39
-9 0 5 27.22 3.88
9 0 -5 32.91 5.14
-9 0 5 37.52 4.3
-9 0 4 41.95 5.33
-9 0 4 42.69 4.83
9 0 -4 40.18 5.57
-9 0 4 47.7 4.72
-9 0 3 248.73 12.88
9 0 -3 267.5 14.39
-9 0 3 241.02 11.74
-9 0 3 248.37 10.7
-9 0 2 155.48 10.21
9 0 -2 157.84 11.22
-9 0 2 161.32 8.15
-9 0 1 204.25 11.82
9 0 -1 197.89 12.79
-9 0 1 186.6 8.55
-9 0 0 96.59 8.37
-9 0 0 95.66 5.76
9 0 0 97.58 9.02
-9 0 -1 206.66 12.42
9 0 1 216.7 13.72
-9 0 -2 79.82 7.9
9 0 2 79.58 8.6
-9 0 -3 84.7 8.3
9 0 3 95.63 9.67
-9 0 -4 187.67 12.69
9 0 4 192.75 14.08
-9 0 -5 6.41 3.15
9 0 5 3.64 3.4
-9 0 -6 3.1 2.6
9 0 6 5.59 3.41
9 0 7 0.38 2.5
-9 0 -7 3.96 3.15
9 0 7 10.14 4.05
9 0 8 2.46 3.78
-9 0 -8 3.72 2.79
9 0 8 1.92 3
9 0 9 5.83 4.12
9 0 9 5.06 3.59
9 1 -16 40.27 6.19
-9 1 16 41.51 6.58
-9 1 15 13.78 4.04
9 1 -15 3.83 2.67
9 1 -14 39.74 5.76
-9 1 14 48.82 6.69
-9 1 14 46.07 6.5
9 1 -13 1.38 2.21
-9 1 13 1.53 2
9 1 -12 20.18 3.95
-9 1 12 36.27 5.41
-9 1 12 31.69 5.3
9 1 -11 12.82 3.05
9 1 -11 10.45 2.92
-9 1 11 15.46 3.77
-9 1 11 22.67 4.15
9 1 -10 9.12 2.81
9 1 -10 13.62 3.18
-9 1 10 10.7 3.25
9 1 -9 77.88 6.79
9 1 -9 82.61 7.12
-9 1 9 80.68 7.63
9 1 -8 181.2 10.21
9 1 -8 167.42 9.9
-9 1 8 184.04 11.39
9 1 -7 235.91 11.68
9 1 -7 226.3 11.34
-9 1 7 243.81 12.98
-9 1 6 30.24 4.65
9 1 -6 28.74 4.18
9 1 -5 107.41 8.06
-9 1 5 119.65 8.89
-9 1 4 16.15 3.31
-9 1 4 13.4 2.75
9 1 -4 14.89 3.3
-9 1 3 176.15 8.68
9 1 -3 185.66 10.82
-9 1 3 181.17 10.94
-9 1 2 109.12 6.52
-9 1 2 105.03 8.89
9 1 -2 119.26 8.82
-9 1 2 111.48 8.63
-9 1 1 85.59 5.5
-9 1 1 92.93 8.44
9 1 -1 94.02 8.08
-9 1 1 93.58 8.02
9 1 0 55.14 6.27
-9 1 0 40.74 5.78
-9 1 0 47.42 5.89
-9 1 0 28.8 3.04
-9 1 -1 35.96 5.47
9 1 1 31.21 5.04
-9 1 -2 98.1 8.97
9 1 2 83.07 8.27
-9 1 -3 35.56 5.64
9 1 3 51.72 6.76
-9 1 -4 62.19 7.53
9 1 4 76.27 8.48
-9 1 -5 7.75 3.32
9 1 5 19.32 4.6
-9 1 -6 12.55 3.92
9 1 6 15.91 4.48
-9 1 -7 4.02 2.7
9 1 7 4.07 2.91
9 1 8 5.09 3.65
-9 1 -8 0.44 2.13
9 1 8 3.87 3.17
9 1 9 15.32 6.24
9 1 9 12.15 4.74
9 1 10 12.29 5.74
-9 2 16 8.36 4.23
9 2 -15 11.69 3.66
-9 2 15 11.93 4.31
9 2 -14 8.2 3.15
-9 2 14 12.28 4.18
9 2 -13 19.89 4.28
-9 2 13 22.24 5.6
9 2 -12 0.92 1.87
-9 2 12 0.02 2.23
9 2 -11 7.41 2.97
-9 2 11 5.6 3.03
9 2 -10 21.26 3.89
-9 2 10 12.28 3.81
9 2 -9 31.74 4.4
-9 2 9 33.99 5.89
9 2 -8 30.95 4.36
-9 2 8 26.98 5.19
9 2 -7 26.35 3.99
-9 2 7 30.82 5.4
9 2 -6 20.37 3.45
-9 2 6 17.66 3.99
-9 2 5 31.43 5.43
9 2 -5 41.02 4.53
-9 2 4 8.69 3.03
9 2 -4 14.42 3.4
9 2 -3 76.3 7.07
-9 2 3 80.63 8.11
-9 2 2 21.69 4.54
9 2 -2 21.69 4.19
-9 2 1 3.24 2.46
9 2 -1 9.81 3.05
9 2 -1 7.27 2.18
-9 2 0 91.81 9.16
9 2 0 96.71 8.12
9 2 0 101.47 7.89
-9 2 0 87.98 8.63
-9 2 -1 207.48 13.51
9 2 1 221.08 11.99
9 2 1 217.01 12.18
-9 2 -1 183.82 12.41
-9 2 -2 8.25 3.38
9 2 2 7.22 2.93
-9 2 -2 9.12 3.3
9 2 2 14.39 3.62
-9 2 -3 158.86 12.04
9 2 3 162.38 10.42
9 2 3 149.31 10.9
9 2 4 24.48 4.48
-9 2 -4 34.33 5.88
9 2 4 29.98 5.51
9 2 5 10.05 3.25
-9 2 -5 10.61 3.7
9 2 5 7.48 3.26
9 2 6 4.96 2.33
-9 2 -6 3.81 3.07
9 2 6 3.67 2.71
9 2 7 9.36 3.12
-9 2 -7 4.46 2.71
-9 3 15 13.86 4.98
9 3 -14 9.55 3.45
-9 3 14 7.01 3.82
9 3 -13 7.01 3.1
-9 3 13 8.25 3.88
9 3 -12 33.38 5.32
-9 3 12 28.43 6.22
9 3 -11 8.09 2.79
-9 3 11 4.49 3.19
9 3 -10 24.67 4.26
-9 3 10 36.91 6.97
9 3 -9 24.1 4.17
-9 3 9 17.1 4.67
9 3 -8 75.48 7.38
9 3 -8 73.99 6.79
-9 3 8 79.3 9.65
9 3 -7 58.93 6.55
-9 3 7 36.93 6.55
9 3 -7 53.97 5.5
9 3 -6 11.08 2.6
9 3 -6 6.26 3.32
-9 3 6 10.25 3.82
9 3 -5 81.89 7.69
9 3 -5 69.7 5.74
-9 3 5 83.51 9.38
-9 3 4 5.81 3.24
9 3 -4 5.48 2.58
9 3 -3 79.02 7.61
-9 3 3 95.44 9.82
-9 3 2 37.02 6.28
9 3 -2 38.94 5.48
-9 3 1 38.51 6.32
9 3 -1 41.5 5.68
-9 3 0 1.61 2.46
9 3 0 2.06 2.6
-9 3 -1 21.92 5.06
9 3 1 21.14 4.29
-9 3 -1 22.14 4.94
-9 3 -2 -0.21 2.02
9 3 2 -0.57 2.18
-9 3 -2 0.32 2.34
-9 3 -3 19.35 4.97
9 3 3 20.13 4.14
-9 3 -3 12.57 4.15
9 3 4 18.59 4.17
-9 3 -4 13.93 4.22
9 3 5 17.28 4.06
-9 3 -5 11.71 3.78
9 3 6 7.13 3.14
9 3 7 6.22 2.89
9 4 -12 10.79 3.59
9 4 -11 5.8 2.68
9 4 -10 0.89 1.87
9 4 -10 3.29 2.74
9 4 -9 5.52 2.37
9 4 -9 6.49 3
-9 4 9 1.38 2.68
9 4 -8 13.53 3.68
-9 4 8 23.44 6.07
9 4 -7 3.5 2.5
-9 4 7 6.19 3.37
9 4 -6 30 5.14
-9 4 6 37.07 6.97
9 4 -5 7.47 3.29
-9 4 5 11.84 4.5
-9 4 4 6.39 3.61
9 4 -4 5.93 2.97
-9 4 3 13.17 4.79
9 4 -3 7.69 3.07
-9 4 2 10.29 4.19
9 4 -2 15.17 4.15
-9 4 1 61.3 8.69
9 4 -1 63.6 7.47
-9 4 0 7.97 3.34
9 4 0 10.64 3.57
-9 4 -2 4.83 2.91
10 -4 -1 0.1 3.45
10 -4 0 0.3 3.77
-10 -3 12 17.35 5.14
10 -3 -12 12.48 5.2
-10 -3 11 13.43 4.8
10 -3 -11 4.49 4.79
-10 -3 10 3.44 3.27
10 -3 -10 -1.73 2.65
-10 -3 9 3.92 3.57
10 -3 -9 1.21 2.9
-10 -3 8 7.23 3.6
10 -3 -8 9.34 4.17
-10 -3 7 13.52 4.66
10 -3 -7 11.43 4.51
-10 -3 6 14.61 4.68
10 -3 -6 9 4.53
10 -3 -5 17.19 5.26
10 -3 -4 4.25 3.59
10 -3 -3 34 7.55
10 -3 -2 12.43 4.56
10 -3 -1 13.98 5.15
-10 -3 0 20.79 4.39
10 -3 0 18.91 6.3
-10 -3 -1 0.83 2.11
10 -3 1 -3.25 3.67
10 -3 2 0.79 3.41
-10 -3 -2 6.37 3.33
-10 -3 -3 22.89 5.23
-10 -3 -4 -0.94 2.65
10 -2 -15 8.95 4.32
10 -2 -14 41.89 8.03
-10 -2 14 36.9 6.79
-10 -2 13 1.49 2.52
10 -2 -13 -0.11 3.18
-10 -2 12 56.96 8.05
10 -2 -12 41.98 7.89
-10 -2 11 0.19 2.2
10 -2 -11 6.84 4.11
-10 -2 10 20.85 5.08
10 -2 -10 21.47 5.56
-10 -2 9 7.08 3.5
10 -2 -9 9.25 4.08
-10 -2 8 93.38 9.58
10 -2 -8 84.73 10.46
-10 -2 7 -0.74 2.32
10 -2 -7 0.96 2.96
-10 -2 6 88.81 9.02
10 -2 -6 91.82 10.97
-10 -2 5 109.01 7.96
-10 -2 5 100.11 9.62
10 -2 -5 120.57 12.44
-10 -2 4 46.7 5.48
-10 -2 4 53.6 6.97
10 -2 -4 52.94 8.27
-10 -2 3 39.09 5.64
-10 -2 3 39.89 5.2
10 -2 -3 47.56 7.81
-10 -2 2 11.1 3.26
-10 -2 2 11.28 3.19
10 -2 -2 19.31 5.59
-10 -2 1 6.07 2.72
10 -2 -1 5.81 3.49
-10 -2 0 31.23 5.22
10 -2 0 29.24 6.41
-10 -2 -1 62.19 7.38
10 -2 1 59.37 9
-10 -2 -2 6.15 2.99
10 -2 2 6.04 3.34
-10 -2 -3 63.62 7.91
10 -2 3 59.23 9.26
10 -2 4 17.94 7.07
-10 -2 -4 13.45 4.39
10 -2 4 17.07 5.3
-10 -2 -5 25.33 5.34
10 -1 -17 7.03 4.02
10 -1 -16 17.19 5.27
10 -1 -15 21.83 5.72
-10 -1 15 23.87 5.18
10 -1 -14 7.21 3.71
-10 -1 14 8.57 3.11
10 -1 -13 18.33 5.12
-10 -1 13 13.04 3.73
-10 -1 12 17.54 4.07
10 -1 -12 10.88 4.14
-10 -1 11 6.47 2.91
10 -1 -11 2.54 2.78
-10 -1 10 25.85 4.69
10 -1 -10 28.64 5.95
-10 -1 9 84.59 6.97
10 -1 -9 93.74 10.15
-10 -1 9 101.92 8.73
-10 -1 8 104.73 7.82
-10 -1 8 120.82 9.48
10 -1 -8 113.6 11.09
-10 -1 7 60.07 6.05
-10 -1 7 69.36 7.11
10 -1 -7 53.64 7.78
-10 -1 6 75.65 6.86
-10 -1 6 91.75 8.1
10 -1 -6 88.82 9.94
-10 -1 5 210.27 11.75
-10 -1 5 223.42 12.48
10 -1 -5 248.25 16.18
-10 -1 4 49.93 5.86
-10 -1 4 53.31 6.06
10 -1 -4 45.44 7.01
-10 -1 3 69.43 6.98
-10 -1 3 68.85 6.65
10 -1 -3 69.29 8.66
-10 -1 2 97.98 8.5
-10 -1 2 102.31 7.81
10 -1 -2 107.84 10.82
-10 -1 1 76.62 7.82
-10 -1 1 62.91 5.95
10 -1 -1 68.68 8.79
-10 -1 0 40.42 5.91
10 -1 0 39.1 6.63
-10 -1 -1 11.51 3.47
10 -1 1 11.63 4.24
-10 -1 -2 20.59 4.52
10 -1 2 18.89 5.15
-10 -1 -3 11.23 3.67
10 -1 3 7.85 3.44
-10 -1 -4 52.33 7.3
10 -1 4 42.27 7.69
-10 -1 -5 4.17 2.65
10 -1 5 0.27 2.57
10 -1 6 5.23 4.39
-10 -1 -6 5.96 2.95
10 -1 6 11.46 4.49
10 0 -16 1.12 2.06
-10 0 16 -1.5 2.47
10 0 -15 -0.15 2.4
-10 0 15 1.24 2.3
10 0 -15 -0.87 2.05
10 0 -14 15.32 4.1
10 0 -14 11.16 3.74
-10 0 14 6.64 2.97
10 0 -13 -0.7 2.92
10 0 -13 4.21 2.95
-10 0 13 0.39 2.1
10 0 -12 25.72 5.2
-10 0 12 22.01 4.3
-10 0 11 80.5 7.55
10 0 -11 59.34 7.54
-10 0 10 30.06 4.74
10 0 -10 28.23 5.3
-10 0 9 9.17 2.87
-10 0 9 6.98 2.25
10 0 -9 10.89 3.21
-10 0 8 16.28 3.44
-10 0 8 16.88 3.18
10 0 -8 27.71 5.11
-10 0 7 33 4.57
-10 0 7 32.21 4.31
10 0 -7 36.79 5.91
-10 0 6 21.8 3.62
-10 0 6 23.12 4.21
-10 0 6 21.73 3.64
10 0 -6 15.86 4.28
-10 0 5 35.99 5.21
-10 0 5 44.61 5.14
-10 0 5 43 4.85
10 0 -5 41.98 6.2
-10 0 4 78.4 7.66
10 0 -4 66.04 7.79
-10 0 4 77.25 6.31
-10 0 3 55.13 6.51
-10 0 3 51.64 5.05
10 0 -3 51.63 6.87
-10 0 2 6.76 2.06
-10 0 2 5.34 2.37
10 0 -2 2.59 2.18
-10 0 1 3.57 2.42
10 0 -1 6.79 3.02
-10 0 0 65.51 7.47
10 0 0 48.68 7.13
-10 0 -1 -2.25 2.12
10 0 1 -1.33 2.07
-10 0 -2 -1.56 2.43
10 0 2 2.11 2.28
-10 0 -3 0.24 2.02
10 0 3 -2.61 2.47
-10 0 -4 5.16 2.63
10 0 4 7.39 3.6
-10 0 -5 37.05 6.64
10 0 5 28.89 6.23
-10 0 -6 8.14 3.69
10 0 6 7.81 4.16
10 0 7 31.93 9.11
10 0 7 22.95 6.13
10 1 -15 18.58 4.29
-10 1 15 25.04 5.17
10 1 -14 3.38 2.19
-10 1 14 4.64 2.61
10 1 -13 20.34 4.45
-10 1 13 22.94 4.53
10 1 -12 14.48 3.77
-10 1 12 18.07 3.98
-10 1 12 13.62 3.72
10 1 -11 5.76 2.57
-10 1 11 1.87 2.11
-10 1 11 1.21 2.18
10 1 -10 35.29 5.09
-10 1 10 36.03 5.42
-10 1 10 29.7 4.81
-10 1 9 71.87 6.91
10 1 -9 79.13 7.32
-10 1 9 89.8 8.3
-10 1 8 112.39 8.31
10 1 -8 94.19 7.96
-10 1 8 103.94 8.8
-10 1 7 67.84 6.28
10 1 -7 61.8 6.43
-10 1 7 69.74 7.22
-10 1 6 87.92 6.93
10 1 -6 83.69 7.64
-10 1 6 75.16 7.55
-10 1 5 241.02 11.18
10 1 -5 237.1 13
-10 1 5 241.27 13.26
-10 1 4 41.51 4.58
-10 1 4 41.37 5.65
10 1 -4 51.75 6.14
-10 1 3 69.68 5.77
-10 1 3 72.55 7.75
10 1 -3 72.43 7.41
-10 1 3 75.79 7.5
-10 1 2 90.49 6.13
-10 1 2 101.18 9.22
10 1 -2 112 9.31
-10 1 2 113.19 9.24
-10 1 1 70.73 7.92
10 1 -1 72.54 7.66
-10 1 1 61.25 6.86
-10 1 0 47.33 6.48
10 1 0 35.53 5.6
-10 1 -1 11.9 3.89
10 1 1 14.96 4.01
-10 1 -2 23.15 4.98
10 1 2 25.68 5.19
-10 1 -3 10.67 3.64
10 1 3 4.64 2.97
-10 1 -4 62.61 7.93
10 1 4 48.73 7.33
-10 1 -5 4.16 2.79
10 1 5 5.08 3.13
-10 1 -6 21.48 5.16
10 1 6 12.89 4.48
10 1 7 -0.9 3.55
10 1 7 6.39 3.57
10 1 8 29.82 8.76
10 2 -15 5.62 3.09
-10 2 15 14.49 4.63
10 2 -14 21.17 4.56
-10 2 14 27.94 5.86
10 2 -13 0.13 2.07
-10 2 13 5.59 3.17
10 2 -12 52.54 6.49
-10 2 12 47.07 7.25
10 2 -11 1.7 2.12
-10 2 11 1.62 2.65
10 2 -10 15.34 3.5
-10 2 10 14.45 4.07
10 2 -9 7.48 2.53
-10 2 9 12.19 3.79
10 2 -8 86.93 7.47
-10 2 8 87.6 9.09
10 2 -7 3.33 2
-10 2 7 3.78 2.99
-10 2 6 101.52 9.57
-10 2 5 110.99 10.07
-10 2 4 48.35 6.7
-10 2 3 28.56 5.35
-10 2 2 7.12 3
-10 2 1 9.96 3.43
-10 2 1 10 3.89
-10 2 0 41.6 6.43
-10 2 0 43.75 6.65
-10 2 -1 54.65 7.12
-10 2 -1 49.75 6.96
-10 2 -2 6.7 3.2
-10 2 -3 61.09 8.04
-10 2 -4 12.37 3.84
10 3 -13 10.9 3.45
-10 3 13 12.49 4.8
10 3 -12 14.21 3.84
-10 3 12 7.38 3.9
10 3 -11 6 2.99
-10 3 11 8.07 3.58
10 3 -10 2.52 2.18
-10 3 10 1.15 2.3
10 3 -9 7.56 2.86
-10 3 9 0.5 2.7
10 3 -8 6.94 2.65
-10 3 8 8.48 3.43
-10 3 7 28.23 6.09
-10 3 6 10.26 4.05
10 3 -6 23.75 4.74
-10 3 5 15.7 4.61
10 3 -5 24.06 4.63
-10 3 4 8.16 3.78
10 3 -4 12.7 3.62
-10 3 3 9.94 3.73
10 3 -3 22.92 4.81
-10 3 2 10.99 4.25
10 3 -2 16.19 4.27
-10 3 1 16.07 4.54
10 3 -1 25.2 5.13
-10 3 0 6.73 3.32
10 3 0 15.49 4.3
-10 3 0 14.19 4.41
-10 3 -1 -0.02 1.92
10 3 1 2.45 2.35
-10 3 -1 2.54 2.42
-10 3 -2 1.12 2
-10 3 -2 2.45 2.64
10 3 3 19.39 4.48
10 4 -12 0.24 1.75
-11 -3 10 2.66 3.18
-11 -3 9 4.46 3.2
-11 -3 8 9.87 4.29
11 -3 -8 1.46 2.84
-11 -3 7 18.2 5.2
11 -3 -7 12.08 5.04
-11 -3 6 20.39 5.37
11 -3 -6 16.94 6.09
11 -3 -5 22.72 6.44
11 -3 -4 -0.07 3.1
11 -3 -3 17.52 5.73
-11 -3 -1 6 3.06
-11 -3 -2 7.11 3.68
11 -2 -14 9.54 4.34
11 -2 -13 14.64 5.34
-11 -2 12 6.78 3.42
11 -2 -12 4.2 3.13
-11 -2 11 65.87 8.59
11 -2 -11 51.29 8.82
-11 -2 10 17.27 4.66
11 -2 -10 5.43 3.82
-11 -2 9 19.85 5.09
11 -2 -9 16.5 5.38
-11 -2 8 2.88 2.65
11 -2 -8 3.34 3.06
-11 -2 7 2.52 2.54
11 -2 -7 2.1 3.04
-11 -2 6 14.01 4.11
11 -2 -6 13.36 4.88
-11 -2 5 46.04 6.91
11 -2 -5 53.39 8.7
-11 -2 4 -2.01 1.89
-11 -2 4 3.44 2.46
11 -2 -4 5.17 3.57
-11 -2 3 32.49 5.42
-11 -2 3 19.06 3.91
11 -2 -3 28.23 6.42
-11 -2 2 26.45 4.82
11 -2 -2 24.16 6.2
-11 -2 1 -0.89 2.08
11 -2 -1 -3.47 3.37
-11 -2 0 10.93 3.85
11 -2 0 12.81 4.99
-11 -2 -1 4.88 2.78
11 -2 1 8.25 4.21
-11 -2 -2 16.95 4.46
11 -2 2 27.47 7.05
-11 -2 -3 -0.65 2.54
11 -1 -17 38.74 8.12
11 -1 -16 2.82 3.28
11 -1 -15 0.08 2.42
11 -1 -14 10.76 4.29
-11 -1 14 14.59 4.23
11 -1 -13 9.33 4.02
-11 -1 13 14.96 3.95
-11 -1 12 6.25 2.94
11 -1 -12 -1.74 2.36
-11 -1 11 3.7 2.2
11 -1 -11 1.31 2.6
-11 -1 10 0.82 1.81
11 -1 -10 -5.06 3.01
-11 -1 9 -4.23 2.36
11 -1 -9 0.46 2.21
-11 -1 8 46.49 6.32
-11 -1 8 40.66 5.31
11 -1 -8 33.66 6.4
-11 -1 7 27.5 5.02
-11 -1 7 27.44 4.51
11 -1 -7 37.27 6.97
-11 -1 6 28.49 5.03
-11 -1 6 29.55 4.75
-11 -1 5 38.27 5.44
11 -1 -5 49.39 7.86
-11 -1 5 34.78 5.23
-11 -1 4 15.22 3.79
-11 -1 4 15.65 3.51
11 -1 -4 19.91 5.31
-11 -1 3 17.92 4.23
-11 -1 3 13.92 3.33
11 -1 -3 19.99 5.52
-11 -1 2 9.94 3.23
11 -1 -2 11.49 4.31
-11 -1 1 5.03 2.98
11 -1 -1 4.24 3.69
-11 -1 0 3.64 2.72
11 -1 0 22.03 5.64
-11 -1 -1 7.87 3.38
11 -1 1 19.43 5.47
-11 -1 -2 1.86 2.34
11 -1 2 11.84 4.69
-11 -1 -3 26.81 5.85
11 -1 3 33.06 7.08
-11 -1 -4 35.17 6.72
11 -1 4 31.37 7.07
-11 0 14 0.03 2.03
-11 0 13 0.47 1.51
11 0 -12 2.54 2.44
-11 0 12 -0.84 1.82
-11 0 11 61.07 7
11 0 -11 49.67 7.25
-11 0 10 -0.57 1.75
11 0 -10 -2.55 2.48
-11 0 9 -1.27 1.89
11 0 -9 -1.25 2.17
-11 0 8 52.33 6.04
11 0 -8 47 6.9
-11 0 7 78.15 7.91
11 0 -7 80.19 9.02
-11 0 7 85.46 7.2
-11 0 7 84.89 7.48
-11 0 6 22.91 3.94
-11 0 6 24.27 4.15
-11 0 6 20.96 4.41
11 0 -6 20.28 4.89
-11 0 5 -4.48 2.17
-11 0 5 -2.65 2.26
-11 0 4 14.68 3
-11 0 4 16.01 4.09
11 0 -4 15.71 4.36
-11 0 3 6.55 2.05
-11 0 3 1.81 2.41
11 0 -3 1.17 2.59
-11 0 2 8.86 3.23
11 0 -2 16.85 4.56
-11 0 1 105.81 9.81
11 0 -1 103.54 10.5
-11 0 0 89.56 9.03
11 0 0 87.84 9.9
-11 0 -1 0.48 2.29
11 0 1 0.55 2.03
-11 0 -2 2.16 2.6
11 0 2 6.04 3.32
-11 0 -3 7.66 3.56
11 0 3 10.14 3.96
-11 0 -4 4.52 3.19
11 0 4 13.46 4.92
11 0 5 43.06 7.95
11 1 -14 7.77 3.35
-11 1 14 1.46 2.56
11 1 -13 6.94 3.09
-11 1 13 2.83 2.19
11 1 -12 -0.53 1.96
-11 1 12 4.35 2.48
11 1 -11 -0.42 2.09
-11 1 11 3.59 2.3
-11 1 11 4.95 2.45
-11 1 10 5.57 2.41
-11 1 10 3.33 2.32
-11 1 9 2.62 1.97
-11 1 9 3.07 2
-11 1 8 30.71 4.69
-11 1 8 34.09 5.36
-11 1 7 34.97 4.76
-11 1 7 37.35 5.58
-11 1 6 42.25 5.06
-11 1 6 36.69 5.43
-11 1 5 51.91 5.37
-11 1 5 55.63 6.72
-11 1 4 16.38 3.92
-11 1 4 20.21 3.46
-11 1 4 11.93 3.78
-11 1 3 14.81 3.75
-11 1 3 16.79 4.41
11 1 -3 20.65 4.39
-11 1 2 10.41 3.27
-11 1 2 14.94 4.17
11 1 -2 12.05 3.86
-11 1 1 6.5 3.1
11 1 -1 7.86 3.2
-11 1 0 11.77 3.89
11 1 0 9.01 3.39
-11 1 -1 9.62 3.59
11 1 1 7.86 3.26
-11 1 -2 5.57 2.99
11 1 2 4 3.01
-11 1 -3 28.44 5.89
11 1 3 25.87 5.54
11 1 4 40.98 7.24
11 1 5 18.45 5.8
11 1 6 23.91 5.98
11 2 -14 2.87 2.34
11 2 -13 14.78 3.88
-11 2 13 16.21 4.75
11 2 -12 8.17 3.21
-11 2 12 2.59 2.32
11 2 -11 42.39 5.92
-11 2 11 39.37 6.67
11 2 -10 4.46 2.53
-11 2 10 8.1 3.28
11 2 -9 21.28 4.2
-11 2 9 13.75 4.09
-11 2 8 1.67 1.94
-11 2 7 2.16 2.1
-11 2 6 14.02 4.01
-11 2 5 51.75 7.21
-11 2 4 -0.41 2.1
-11 2 3 18.25 4.34
-11 2 2 23.06 5.13
-11 2 2 18.37 4.51
-11 2 1 -0.97 2.15
-11 2 1 3.27 2.8
-11 2 0 6.92 2.91
-11 2 0 9.53 3.56
-11 2 -1 7.47 3.42
11 3 -12 17.27 4.26
11 3 -11 9.88 3.32
-11 3 11 5.15 3.57
11 3 -10 5.49 2.65
-11 3 10 5.68 3.69
-11 3 9 14.18 4.89
-11 3 8 6.38 3.58
-11 3 7 14.89 4.21
-11 3 6 9.09 4.02
-11 3 5 19.1 5.29
-11 3 4 6.93 3.39
-11 3 3 16.31 4.73
-11 3 2 1.61 2.61
-12 -3 8 7.29 3.9
-12 -3 7 2.97 2.8
-12 -2 11 1.52 2.34
12 -2 -11 2.98 2.72
-12 -2 10 10.74 4.03
12 -2 -10 6.97 4.02
-12 -2 9 -0.78 2.18
12 -2 -9 -0.21 2.53
-12 -2 8 2.91 2.66
12 -2 -8 3.15 3.03
-12 -2 7 -2.25 2.56
12 -2 -7 -5.59 3.96
-12 -2 6 9.6 3.45
12 -2 -6 1.4 2.63
-12 -2 5 10.72 3.48
12 -2 -5 5.62 4.12
12 -2 -4 9.55 4.06
12 -2 -3 11.86 5.36
-12 -2 2 31.43 5.85
12 -2 -2 20.88 5.92
-12 -2 1 -0.5 2.07
-12 -2 0 21.11 5.08
-12 -2 -1 -5.55 3.33
12 -1 -15 24.37 6.32
12 -1 -14 12.36 4.58
12 -1 -13 10.45 4.52
-12 -1 12 10.66 3.62
12 -1 -12 0.4 2.23
-12 -1 11 -0.43 1.68
12 -1 -11 11.78 4.77
-12 -1 10 2.17 2.05
12 -1 -10 8.85 3.83
-12 -1 9 2.51 2.52
12 -1 -9 7.61 3.63
-12 -1 8 26.19 5.05
12 -1 -8 27.63 6.2
-12 -1 7 1.88 2.45
-12 -1 7 3.61 2.19
12 -1 -7 1.39 2.65
-12 -1 6 2.36 2.11
-12 -1 6 -0.92 1.84
12 -1 -6 4.98 3.6
-12 -1 5 0.25 1.89
-12 -1 5 -1.36 1.71
12 -1 -5 2.12 2.96
-12 -1 4 15.38 4.05
12 -1 -4 18.25 5.32
-12 -1 3 0.43 2.43
12 -1 -3 8.29 3.6
-12 -1 2 8.76 3.48
12 -1 -2 9.41 4.28
-12 -1 1 2.18 2.45
12 -1 -1 5.07 3.74
-12 -1 0 1.43 2.38
12 -1 0 4.22 3.25
-12 -1 -1 3.77 2.86
12 -1 1 6.22 3.61
-12 0 13 1.78 2.36
-12 0 12 19.37 4.44
-12 0 11 -0.02 1.94
-12 0 10 0.9 1.64
-12 0 9 22.77 4.39
-12 0 9 17.75 4.22
-12 0 8 -3.56 2.25
-12 0 8 2.08 2.11
12 0 -8 0.09 1.69
-12 0 7 18.31 3.84
-12 0 7 14.89 4.01
12 0 -7 15.02 4.59
-12 0 6 -0.74 1.33
-12 0 6 2.23 2.33
12 0 -6 1.7 2.32
-12 0 5 2.33 1.46
-12 0 5 0.1 1.82
12 0 -5 -0.01 2.03
-12 0 4 -0.18 1.87
12 0 -4 -1.35 2.3
-12 0 3 5.23 2.83
12 0 -3 6.41 3.29
-12 0 2 0.03 1.94
12 0 -2 -4.63 3.2
-12 0 1 27.37 5.64
12 0 -1 34.12 6.47
-12 0 0 25.34 5.49
12 0 0 23.72 5.62
-12 0 -1 11.27 3.8
12 0 1 8.65 4.14
12 0 2 7.65 3.84
12 0 3 0.17 2.58
-12 1 12 3.67 2.27
-12 1 11 1.68 2.55
-12 1 10 7.55 3
-12 1 9 1.81 2.09
-12 1 9 1.36 1.79
-12 1 8 16.75 4.12
-12 1 8 21.48 4.27
-12 1 7 6.98 3.05
-12 1 7 6.01 2.54
-12 1 6 -0.04 2.01
-12 1 6 1.91 1.74
-12 1 6 1.84 2.32
-12 1 5 -1.79 2.1
-12 1 5 4 2.89
-12 1 4 8.11 3.21
-12 1 4 9.42 3.63
-12 1 3 3.6 2.24
-12 1 2 4.86 2.97
-12 1 1 0.49 2.28
-12 1 0 2.01 2.42
12 2 -12 16.89 4.32
-12 2 12 20.18 5.07
12 2 -11 0.68 2.15
-12 2 11 -0.66 2
-12 2 10 12.64 3.56
-12 2 10 7.79 3.39
-12 2 9 2.43 2.41
-12 2 9 -0.68 2.21
-12 2 8 2.24 2.45
-12 2 8 1.55 2.29
-12 2 7 -0.18 2.03
-12 2 7 3.02 2.15
-12 2 6 8.45 2.77
-12 2 6 6.57 3.05
-12 2 5 12.62 4.15
-12 2 4 2.68 3.03
-12 2 4 12.45 4.19
-12 2 3 12.77 4.04
-12 2 3 18.68 5.08
-12 2 2 17.59 4.57
-13 -2 9 5.67 3.66
-13 -2 8 10.33 4.1
-13 -2 7 19.91 5.17
13 -1 -12 8.86 4.23
13 -1 -11 5.49 3.48
-13 -1 10 9.1 3.74
13 -1 -10 14.3 4.95
-13 -1 9 4.89 2.96
13 -1 -9 7.54 3.98
13 -1 -8 13.65 4.83
-13 -1 8 12.63 3.97
-13 -1 7 16.53 4.7
13 -1 -7 16.6 5.34
13 -1 -6 16.86 5.3
-13 -1 5 16.54 4.41
13 -1 -5 18.54 5.59
-13 -1 4 1.91 2.33
13 -1 -4 -3.62 3.04
-13 -1 3 -0.89 2.43
13 -1 -3 1.09 2.71
-13 -1 2 5.33 3.38
13 -1 -2 -0.19 2.44
-13 0 11 16.89 4.5
-13 0 10 4.25 2.73
-13 0 9 -4.53 2.52
-13 0 9 4.89 2.87
-13 0 8 13.62 3.53
-13 0 8 11.38 3.96
-13 0 7 -0.2 1.48
-13 0 7 1.25 2.32
-13 0 6 19.31 4.75
-13 0 5 17.91 4.63
-13 0 4 10.93 3.99
-13 0 3 3.25 3.23
13 0 -2 3.78 2.5
13 0 -1 2.88 2.87
13 0 0 6.8 3.39
13 0 1 2.42 3.48
-13 1 11 5.38 2.68
-13 1 10 4.4 2.73
-13 1 9 4.46 2.33
-13 1 8 12.69 3.44
-13 1 8 7.64 3.49
-13 1 7 13.65 4.01
-13 1 7 12.92 4.25
-13 1 6 8.31 3.21
-13 1 6 11.17 4.22
-13 1 5 14.32 3.99
-13 1 5 11.8 3.97
-13 2 10 3.37 3.15
-13 2 9 16.9 5.06
-13 2 9 12.78 3.53
-13 2 8 2.54 2.68
-13 2 8 12.81 3.72
