#------------------------------------------------------------------------------
#$Date: 2020-07-06 05:06:13 +0300 (Mon, 06 Jul 2020) $
#$Revision: 253827 $
#$URL: file:///home/coder/svn-repositories/cod/cif/7/12/65/7126511.cif $
#------------------------------------------------------------------------------
#
# This file is available in the Crystallography Open Database (COD),
# http://www.crystallography.net/
#
# All data on this site have been placed in the public domain by the
# contributors.
#
data_7126511
loop_
_publ_author_name
'Fujii, Toshiki'
'Tanaka, Susumu'
'Hayashi, Shotaro'
'Imoto, Hiroaki'
'Naka, Kensuke'
_publ_section_title
;
 Dipyridinoarsole: a new class of stable and modifiable heteroatom-bridged
 bipyridines.
;
_journal_issue                   45
_journal_name_full
'Chemical communications (Cambridge, England)'
_journal_page_first              6035
_journal_page_last               6038
_journal_paper_doi               10.1039/d0cc02389b
_journal_volume                  56
_journal_year                    2020
_chemical_formula_moiety         'C32 H22 As2 N4 O2'
_chemical_formula_sum            'C32 H22 As2 N4 O2'
_chemical_formula_weight         644.39
_space_group_crystal_system      triclinic
_space_group_IT_number           2
_space_group_name_Hall           '-P 1'
_space_group_name_H-M_alt        'P -1'
_atom_sites_solution_hydrogens   geom
_atom_sites_solution_primary     direct
_atom_sites_solution_secondary   difmap
_audit_update_record
;
2020-04-02 deposited with the CCDC.	2020-05-11 downloaded from the CCDC.
;
_cell_angle_alpha                70.613(13)
_cell_angle_beta                 73.295(15)
_cell_angle_gamma                74.157(14)
_cell_formula_units_Z            1
_cell_length_a                   8.366(3)
_cell_length_b                   8.971(3)
_cell_length_c                   9.981(4)
_cell_measurement_reflns_used    1852
_cell_measurement_temperature    273
_cell_measurement_theta_max      27.49
_cell_measurement_theta_min      3.02
_cell_volume                     663.6(4)
_computing_cell_refinement       DTREK
_computing_data_collection       DTREK
_computing_data_reduction        DTREK
_computing_molecular_graphics    'CrystalStructure 4.1'
_computing_publication_material  'CrystalStructure 4.1 (Rigaku, 2014)'
_computing_structure_refinement  'SHELXL2013 (Sheldrick, 2008)'
_computing_structure_solution    'SHELXS2013 (Sheldrick, 2008)'
_diffrn_ambient_temperature      273
_diffrn_detector_area_resol_mean 13.653
_diffrn_measured_fraction_theta_full 0.997
_diffrn_measured_fraction_theta_max 0.996
_diffrn_measurement_device_type  'Rigaku XtaLAB mini'
_diffrn_measurement_method       \w
_diffrn_radiation_type           'Mo K\a'
_diffrn_radiation_wavelength     0.71075
_diffrn_reflns_av_R_equivalents  0.0224
_diffrn_reflns_Laue_measured_fraction_full 0.997
_diffrn_reflns_Laue_measured_fraction_max 0.996
_diffrn_reflns_limit_h_max       10
_diffrn_reflns_limit_h_min       -10
_diffrn_reflns_limit_k_max       11
_diffrn_reflns_limit_k_min       -11
_diffrn_reflns_limit_l_max       12
_diffrn_reflns_limit_l_min       -12
_diffrn_reflns_number            7075
_diffrn_reflns_point_group_measured_fraction_full 0.997
_diffrn_reflns_point_group_measured_fraction_max 0.996
_diffrn_reflns_theta_full        25.242
_diffrn_reflns_theta_max         27.481
_diffrn_reflns_theta_min         3.024
_diffrn_standards_number         0
_exptl_absorpt_coefficient_mu    2.558
_exptl_absorpt_correction_T_max  0.880
_exptl_absorpt_correction_T_min  0.742
_exptl_absorpt_correction_type   multi-scan
_exptl_absorpt_process_details   'REQAB (Rigaku, 1998)'
_exptl_crystal_colour            colorless
_exptl_crystal_density_diffrn    1.613
_exptl_crystal_density_method    'not measured'
_exptl_crystal_description       chip
_exptl_crystal_F_000             324.00
_exptl_crystal_size_max          0.250
_exptl_crystal_size_mid          0.180
_exptl_crystal_size_min          0.050
_refine_diff_density_max         0.73
_refine_diff_density_min         -0.38
_refine_ls_extinction_method     none
_refine_ls_goodness_of_fit_ref   1.063
_refine_ls_hydrogen_treatment    constr
_refine_ls_number_parameters     181
_refine_ls_number_reflns         3030
_refine_ls_number_restraints     0
_refine_ls_R_factor_all          0.0373
_refine_ls_R_factor_gt           0.0311
_refine_ls_shift/su_max          0.002
_refine_ls_structure_factor_coef Fsqd
_refine_ls_weighting_details
'w = 1/[\s^2^(Fo^2^)+(0.0466P)^2^+0.1365P] where P=(Fo^2^+2Fc^2^)/3'
_refine_ls_weighting_scheme      calc
_refine_ls_wR_factor_gt          0.0779
_refine_ls_wR_factor_ref         0.0820
_reflns_number_gt                2663
_reflns_number_total             3030
_reflns_threshold_expression     F^2^>2.0\s(F^2^)
_cod_data_source_file            d0cc02389b2.cif
_cod_data_source_block           DPA-Ox_2
_cod_depositor_comments
'Adding full bibliography for 7126511--7126515.cif.'
_cod_original_cell_volume        663.5(4)
_cod_database_code               7126511
_shelxl_res_file
;

    shelxl.res created by SHELXL-2014/7

TITL Diaza_Ox_03
CELL  0.71075 8.36570 8.97060 9.98080 70.61330 73.29480 74.15690
ZERR  1 0.00321 0.00342 0.00354 0.01330 0.01520 0.01370
LATT 1
SFAC C H AS N O
UNIT 32 22 2 4 2
L.S. 5
FMAP 2
PLAN -25
WPDB -2
HTAB
BOND $H
CONF
LIST 4
TEMP 0.0
ACTA
SIZE 0.050 0.180 0.250
WGHT    0.046600    0.136500
FVAR       0.72003
AS1   3    0.393576    0.602658    0.093379    11.00000    0.03718    0.03111 =
         0.04006   -0.00875   -0.00710   -0.00547
O18   5    0.400933    0.500418   -0.070010    11.00000    0.03458    0.04126 =
         0.04476   -0.01751   -0.01177   -0.00111
N19   4    0.203735    0.996344   -0.233389    11.00000    0.08689    0.04461 =
         0.05336   -0.00399   -0.02685   -0.00384
N20   4    0.462468    0.759584    0.428558    11.00000    0.06353    0.06837 =
         0.06079   -0.02068   -0.02404   -0.01222
C2    1    0.403275    0.721125    0.224087    11.00000    0.03561    0.04173 =
         0.04853   -0.01347   -0.00770   -0.00686
C3    1    0.468490    0.665882    0.348146    11.00000    0.05075    0.05434 =
         0.05375   -0.01526   -0.01525   -0.00872
AFIX  43
H3    2    0.519096    0.557594    0.376576    11.00000   -1.20000
AFIX   0
C4    1    0.389093    0.915353    0.385501    11.00000    0.07511    0.06720 =
         0.07189   -0.03540   -0.02044   -0.01540
AFIX  43
H4    2    0.380373    0.981062    0.443383    11.00000   -1.20000
AFIX   0
C5    1    0.325269    0.984735    0.259803    11.00000    0.06384    0.04621 =
         0.06660   -0.02301   -0.01654   -0.00757
AFIX  43
H5    2    0.278607    1.094173    0.232346    11.00000   -1.20000
AFIX   0
C6    1    0.333785    0.885247    0.177539    11.00000    0.04027    0.03765 =
         0.05318   -0.01663   -0.00623   -0.00657
C7    1    0.280851    0.934916    0.036790    11.00000    0.03851    0.03513 =
         0.04987   -0.01218   -0.00452   -0.00594
C8    1    0.215260    1.089384   -0.036817    11.00000    0.06630    0.03458 =
         0.06557   -0.01580   -0.01347    0.00013
AFIX  43
H8    2    0.195542    1.175271    0.002164    11.00000   -1.20000
AFIX   0
C9    1    0.179581    1.113060   -0.170333    11.00000    0.08609    0.03850 =
         0.06211   -0.00398   -0.02412    0.00443
AFIX  43
H9    2    0.135722    1.217573   -0.219538    11.00000   -1.20000
AFIX   0
C10   1    0.268489    0.847413   -0.162277    11.00000    0.06309    0.03925 =
         0.04744   -0.00868   -0.01382   -0.01035
AFIX  43
H10   2    0.288506    0.764302   -0.204787    11.00000   -1.20000
AFIX   0
C11   1    0.307192    0.811432   -0.027514    11.00000    0.04159    0.03177 =
         0.04350   -0.00742   -0.00579   -0.00548
C12   1    0.234820    0.384494    0.349888    11.00000    0.06190    0.05203 =
         0.04423   -0.00807   -0.01232   -0.01686
AFIX  43
H12   2    0.330570    0.373397    0.384620    11.00000   -1.20000
AFIX   0
C13   1    0.105506    0.301460    0.434695    11.00000    0.09370    0.06277 =
         0.04311   -0.00606    0.00095   -0.03165
AFIX  43
H13   2    0.116060    0.231849    0.525886    11.00000   -1.20000
AFIX   0
C14   1   -0.038057    0.321952    0.384126    11.00000    0.06576    0.07920 =
         0.07824   -0.02750    0.01901   -0.04048
AFIX  43
H14   2   -0.124776    0.267556    0.442380    11.00000   -1.20000
AFIX   0
C15   1   -0.054538    0.421806    0.248661    11.00000    0.04341    0.06908 =
         0.08972   -0.02676   -0.00841   -0.01811
AFIX  43
H15   2   -0.152170    0.435473    0.215555    11.00000   -1.20000
AFIX   0
C16   1    0.074608    0.501776    0.161904    11.00000    0.04343    0.04910 =
         0.05887   -0.01281   -0.01334   -0.00769
AFIX  43
H16   2    0.065024    0.567624    0.069233    11.00000   -1.20000
AFIX   0
C17   1    0.218225    0.484376    0.212237    11.00000    0.03904    0.03256 =
         0.04216   -0.01154   -0.00325   -0.00735
HKLF 4
 
REM  Diaza_Ox_03
REM R1 =  0.0311 for    2663 Fo > 4sig(Fo)  and  0.0373 for all    3030 data
REM    181 parameters refined using      0 restraints
 
END  
     
WGHT      0.0466      0.1365 

REM Instructions for potential hydrogen bonds
HTAB C10 O18
EQIV $1 -x+1, -y+1, -z+1
HTAB C12 N20_$1

REM Highest difference peak  0.726,  deepest hole -0.382,  1-sigma level  0.067
Q1    1   0.1772  0.8121  0.2769  11.00000  0.05    0.73
Q2    1   0.5063  0.4458 -0.0645  11.00000  0.05    0.51
Q3    1   0.3199  0.5536  0.1125  11.00000  0.05    0.45
Q4    1   0.5301  0.6646 -0.0253  11.00000  0.05    0.44
Q5    1   0.4086  0.6295  0.1655  11.00000  0.05    0.41
Q6    1   0.3095  0.9179  0.0981  11.00000  0.05    0.35
Q7    1   0.2551  0.5427  0.1998  11.00000  0.05    0.33
Q8    1   0.4297  0.7245  0.2782  11.00000  0.05    0.33
Q9    1   0.4975  0.6388  0.2193  11.00000  0.05    0.33
Q10   1   0.0517  0.4273  0.2075  11.00000  0.05    0.30
Q11   1   0.0184  0.3775  0.4314  11.00000  0.05    0.30
Q12   1  -0.0321  0.4062  0.3159  11.00000  0.05    0.27
Q13   1   0.2082  1.0959 -0.0832  11.00000  0.05    0.27
Q14   1   0.1228  0.2811  0.4636  11.00000  0.05    0.26
Q15   1   0.2743  0.8725  0.0252  11.00000  0.05    0.25
Q16   1   0.1471  0.4767  0.1989  11.00000  0.05    0.24
Q17   1   0.2062  0.4384  0.2621  11.00000  0.05    0.24
Q18   1  -0.0050  0.3370  0.2612  11.00000  0.05    0.23
Q19   1   0.2781  0.8178 -0.0760  11.00000  0.05    0.23
Q20   1   0.3971  0.4914  0.0148  11.00000  0.05    0.22
Q21   1   0.2557  0.8745  0.5345  11.00000  0.05    0.21
Q22   1   0.4325  0.8569  0.4840  11.00000  0.05    0.21
Q23   1   0.3730  0.9519  0.3033  11.00000  0.05    0.21
Q24   1   0.4436  0.5222  0.4170  11.00000  0.05    0.20
Q25   1   0.2753  0.3813  0.3555  11.00000  0.05    0.19
;
_shelxl_hkl_file
;
   0   0   2    5.25    0.81
   0   0   2    4.77    0.87
   0   0   2    5.54    0.75
   0   0   3   86.21    2.47
   0   0   3   84.23    2.51
   0   0   3   85.91    2.36
   0   0   4  318.06    6.40
   0   0   4  324.19    6.60
   0   0   4  313.74    6.28
   0   0   5   10.25    1.31
   0   0   5    8.19    1.28
   0   0   5    9.45    1.04
   0   0   6  572.91   14.48
   0   0   6  568.86   14.60
   0   0   6  570.74   14.26
   0   0   7  226.72    7.81
   0   0   7  223.31    5.53
   0   0  -7  233.69    7.71
   0   0   8    3.41    1.15
   0   0   8    6.50    1.56
   0   0   9   26.51    2.60
   0   0   9   26.23    2.69
   0   0  -9   27.23    4.65
   0   0  10   16.37    2.64
   0   0 -10   15.37    3.45
   0   0  11   45.61    3.62
   0   0 -11   35.17    7.15
   0   1 -11   30.14    6.08
   0  -1  11   40.73    3.92
   0   1 -10   19.49    2.82
   0  -1  10   16.77    2.69
   0   1  -9    0.20    1.13
   0   1  -9    0.32    0.70
   0  -1   9   -0.09    1.37
   0   1  -8  128.07    6.94
   0   1  -8  130.47    6.04
   0  -1   8  125.78    5.97
   0   1  -7  489.35   14.23
   0   1  -7  449.23   13.41
   0  -1   7  483.61   14.15
   0   1  -6  447.49   12.45
   0  -1   6  471.90   13.03
   0  -1   6  471.85   12.95
   0  -1   5  473.49   12.12
   0  -1   5  459.42   11.71
   0   1  -4  296.11    5.46
   0  -1   4  305.01    5.97
   0  -1   4  314.18    5.99
   0   1  -3  181.73    3.90
   0  -1   3  179.68    4.21
   0  -1   3  177.78    4.07
   0   1  -2 1360.70   14.64
   0  -1   2 1355.07   15.17
   0  -1   2 1341.50   14.95
   0   1  -1 1443.02   15.03
   0  -1   1 1432.54   15.42
   0  -1   1 1423.58   14.88
   0  -1   1 1431.24   15.32
   0   1   2  350.65    6.40
   0   1   2  359.18    6.09
   0   1   2  344.44    6.34
   0  -1  -2  362.18    6.12
   0   1   3  562.12    6.65
   0   1   3  552.06    7.22
   0   1   3  546.68    7.06
   0   1   4 1788.45   19.47
   0   1   4 1750.23   19.78
   0   1   4 1760.78   19.63
   0   1   5 1150.02   19.27
   0   1   5 1132.01   19.46
   0   1   5 1138.35   19.39
   0   1   6  286.18    8.12
   0   1   6  284.80    7.79
   0   1   7   43.43    2.71
   0   1   7   44.25    2.49
   0  -1  -7   43.04    7.26
   0   1   8   68.52    3.31
   0   1   8   65.55    2.92
   0  -1  -8   65.96    8.06
   0   1   9  266.81   11.54
   0   1   9  261.69   11.35
   0  -1  -9  252.53   10.63
   0   1  10   86.65    4.03
   0   1  10   93.38    4.92
   0  -1 -10   83.91   11.09
   0   1  11   29.52    3.05
   0   1  11   28.63    3.23
   0  -1 -11   23.12    4.25
   0   1  12    5.23    2.69
   0   2 -11    2.07    0.96
   0  -2  11    0.79    1.49
   0   2 -10    0.83    1.12
   0  -2  10    0.56    1.35
   0   2  -9   72.90   11.99
   0  -2   9   74.03    4.39
   0   2  -8  173.19    8.75
   0   2  -8  170.35    8.24
   0  -2   8  181.84    8.36
   0   2  -7  457.45   13.53
   0   2  -7  463.70   13.03
   0  -2   7  449.65   13.09
   0   2  -6  340.85   10.18
   0  -2   6  326.25   10.50
   0  -2   6  337.65   10.55
   0   2  -5   35.13    2.39
   0  -2   5   34.00    2.39
   0  -2   5   38.27    2.71
   0   2  -4  534.93    9.77
   0  -2   4  515.67   10.18
   0  -2   4  530.09   10.18
   0   2  -3  368.42    6.83
   0  -2   3  365.60    7.50
   0  -2   3  366.95    7.44
   0   2  -2  679.99    8.00
   0  -2   2  668.76    8.62
   0  -2   2  673.46    8.75
   0   2  -1 1361.85   14.75
   0  -2   1 1347.23   15.04
   0  -2   1 1341.30   15.41
   0   2   0 1084.55   12.01
   0  -2   0 1091.08   11.93
   0   2   1 1845.69   18.98
   0   2   1 1764.34   18.97
   0  -2  -1 1815.32   19.75
   0   2   2 3319.32   34.83
   0  -2  -2 3389.27   36.02
   0   2   3  807.99   10.00
   0  -2  -3  818.52    8.74
   0  -2  -3  795.95   10.09
   0   2   4  688.85    9.17
   0  -2  -4  673.57    7.72
   0  -2  -4  690.51    9.32
   0   2   5  191.86    4.63
   0   2   5  196.08    4.53
   0  -2  -5  199.08    3.68
   0   2   6   18.89    2.08
   0   2   6   13.94    1.51
   0  -2  -6   16.03    2.62
   0   2   7   34.85    2.38
   0   2   7   41.46    2.46
   0  -2  -7   40.69    4.21
   0   2   8  337.52   10.36
   0   2   8  348.27   10.59
   0  -2  -8  337.26   10.29
   0   2   9   70.46    4.44
   0   2   9   75.78    4.66
   0  -2  -9   71.82    4.13
   0   2  10   18.89    2.74
   0   2  10   19.47    2.39
   0  -2 -10   17.54    3.17
   0   2  11    0.63    1.66
   0  -2 -11   -0.39    1.07
   0  -2 -12    2.73    1.44
   0   3 -10   17.53    4.65
   0  -3  10   19.80    2.94
   0   3  -9  111.52   16.70
   0  -3   9  130.59    5.23
   0   3  -8   87.50   14.15
   0  -3   8   84.39    3.89
   0   3  -7    5.91    1.06
   0   3  -7    7.82    1.29
   0  -3   7    9.16    2.21
   0   3  -6   45.48    2.82
   0   3  -6   46.41    2.16
   0  -3   6   46.49    2.83
   0   3  -5  143.35    2.99
   0  -3   5  138.66    4.48
   0  -3   5  141.91    4.04
   0   3  -4  551.70   13.18
   0  -3   4  535.18   13.82
   0  -3   4  544.40   13.84
   0   3  -3  669.42   11.52
   0  -3   3  656.28   12.34
   0  -3   3  648.18   12.23
   0   3  -2 1449.75   23.53
   0  -3   2 1400.77   23.42
   0  -3   2 1414.44   23.98
   0   3  -1 1155.33   13.12
   0  -3   1 1140.93   13.41
   0  -3   1 1125.93   13.96
   0   3   0   64.54    2.17
   0  -3   0   60.98    1.90
   0  -3   0   57.09    2.67
   0   3   1   29.17    1.74
   0  -3  -1   34.40    2.17
   0   3   2 1251.73   12.95
   0   3   2 1241.60   14.43
   0  -3  -2 1243.67   14.79
   0   3   3 3730.64   39.80
   0  -3  -3 3661.82   40.04
   0   3   4  414.51    8.25
   0  -3  -4  414.13    6.63
   0  -3  -4  428.36    8.59
   0   3   5   41.59    2.46
   0  -3  -5   40.73    2.28
   0  -3  -5   42.55    2.41
   0   3   6  308.78    9.05
   0  -3  -6  292.53    7.67
   0  -3  -6  314.04    9.89
   0   3   7  204.90    5.38
   0  -3  -7  194.99    3.13
   0  -3  -7  204.02   10.01
   0   3   8    2.96    1.53
   0  -3  -8    3.88    0.82
   0  -3  -8    5.68    1.76
   0   3   9    5.56    1.74
   0  -3  -9    4.61    0.97
   0  -3  -9    4.85    1.30
   0   3  10   13.66    2.09
   0  -3 -10   11.55    2.34
   0   3  11   23.46    2.94
   0  -3 -11   26.89    5.60
   0   3  12   32.50    3.58
   0  -3 -12   25.44    5.89
   0   4  -9   46.26   10.46
   0  -4   9   54.29    3.79
   0   4  -8   37.74    6.60
   0  -4   8   38.54    3.22
   0   4  -7   13.10    2.45
   0  -4   7   16.94    2.49
   0   4  -6   28.57    5.26
   0  -4   6   31.28    3.02
   0   4  -5  236.26    8.12
   0   4  -5  239.24    7.11
   0  -4   5  233.35    7.85
   0   4  -4  608.99   16.82
   0  -4   4  612.47   17.85
   0  -4   4  610.25   17.75
   0   4  -3  227.38    4.84
   0  -4   3  220.01    5.66
   0  -4   3  223.53    5.84
   0   4  -2   24.12    1.80
   0  -4   2   22.91    2.03
   0  -4   2   24.57    2.08
   0   4  -1  631.12   11.25
   0  -4   1  624.11   11.43
   0  -4   1  612.43   12.04
   0   4   0  317.04    5.90
   0  -4   0  314.26    5.63
   0  -4   0  295.68    6.49
   0   4   1  233.99    4.29
   0   4   1  241.09    4.86
   0  -4  -1  250.68    6.20
   0   4   2  316.46    5.11
   0   4   2  325.23    6.22
   0  -4  -2  333.06    7.16
   0   4   3  480.75    9.38
   0  -4  -3  480.27    9.72
   0   4   4  662.43   12.59
   0  -4  -4  677.14   13.35
   0   4   5  367.57   10.06
   0  -4  -5  375.54   10.59
   0   4   6  241.66    7.70
   0  -4  -6  237.24   10.05
   0   4   7  388.72   11.94
   0  -4  -7  399.44   12.66
   0   4   8   73.38    3.81
   0  -4  -8   73.74    5.65
   0   4   9   57.09    3.81
   0  -4  -9   61.84    7.82
   0   4  10   11.23    2.57
   0  -4 -10   15.18    2.89
   0   4  11   65.69    4.37
   0  -4 -11   60.45   13.70
   0   4  12   32.80    3.67
   0  -4 -12   25.98    4.82
   0   5  -9    8.89    3.26
   0  -5   9   10.12    2.57
   0   5  -8    0.29    0.89
   0  -5   8    2.24    1.58
   0   5  -7   35.62    7.30
   0  -5   7   39.80    3.56
   0   5  -6  210.49   11.27
   0  -5   6  204.63    6.83
   0   5  -5  403.13   15.89
   0  -5   5  403.37    7.80
   0   5  -4   52.33    2.97
   0   5  -4   47.42    2.18
   0  -5   4   49.22    2.96
   0   5  -3    9.64    1.91
   0   5  -3    6.78    1.57
   0  -5   3    4.62    1.42
   0   5  -2   73.74    2.63
   0  -5   2   76.26    3.97
   0   5  -1  177.73    4.57
   0  -5   1  166.82    5.50
   0   5   0  162.47    5.23
   0   5   0  175.32    4.39
   0  -5   0  169.56    5.68
   0   5   1  333.15    8.35
   0   5   1  332.58    8.84
   0  -5  -1  339.16   10.44
   0   5   2    2.77    0.54
   0   5   2    2.27    1.03
   0  -5  -2    4.33    2.27
   0   5   3   81.44    1.73
   0   5   3   81.40    3.37
   0  -5  -3   82.96    4.16
   0   5   4   67.20    3.49
   0  -5  -4   78.80    4.14
   0   5   5  567.81   15.48
   0  -5  -5  553.01   15.52
   0   5   6  317.09   10.51
   0  -5  -6  293.00   10.08
   0   5   7   21.72    2.45
   0  -5  -7   20.89    4.08
   0   5   8  112.85    5.90
   0  -5  -8  105.35   12.06
   0   5   9  129.52    5.44
   0  -5  -9  128.19    5.83
   0   5  10   74.54    4.60
   0  -5 -10   69.44   12.92
   0   5  11   53.03    4.12
   0  -5 -11   47.77   11.03
   0   5  12   14.77    2.70
   0  -5 -12   17.03    4.08
   0   6  -8   23.00    4.51
   0  -6   8   15.06    2.42
   0   6  -7   65.80    9.87
   0  -6   7   78.53    4.46
   0   6  -6  136.89   10.73
   0  -6   6  138.57    5.95
   0   6  -5   21.05    5.26
   0  -6   5   25.59    2.84
   0   6  -4    1.50    0.96
   0   6  -4   -0.18    0.89
   0  -6   4   -0.11    1.68
   0   6  -3  123.82    9.75
   0   6  -3  120.40    5.24
   0  -6   3  129.79    6.47
   0   6  -2  328.57   11.03
   0   6  -2  340.66   10.01
   0  -6   2  346.70   11.28
   0   6  -1  262.58   15.63
   0   6  -1  263.98    8.33
   0  -6   1  253.88    9.39
   0   6   0  134.78    7.46
   0   6   0  129.51    3.74
   0  -6   0  124.83    4.88
   0   6   1   19.80    3.65
   0   6   1   21.36    2.28
   0  -6  -1   23.02    3.89
   0   6   2    0.76    0.43
   0   6   2    1.92    1.42
   0  -6  -2    2.96    3.60
   0   6   3  256.90    6.60
   0   6   3  273.74    8.59
   0  -6  -3  267.14    9.05
   0   6   4  369.00   11.64
   0  -6  -4  364.59   11.95
   0   6   5  386.37   12.02
   0  -6  -5  380.38   12.15
   0   6   6   23.77    3.04
   0  -6  -6   29.80    3.10
   0   6   7   37.45    2.88
   0  -6  -7   38.56    8.94
   0   6   8   68.73    4.78
   0  -6  -8   58.46   11.46
   0   6   9  119.00    5.56
   0  -6  -9  126.75    9.60
   0   6  10   80.27    5.10
   0  -6 -10   68.67   13.06
   0   6  11   16.40    3.39
   0  -6 -11   14.73    3.67
   0   7  -7   14.25    3.25
   0  -7   7   11.31    2.84
   0   7  -6   18.04    3.48
   0  -7   6   15.16    2.58
   0   7  -5    1.74    1.17
   0  -7   5    3.16    2.49
   0   7  -4   21.25    3.25
   0  -7   4   22.39    2.96
   0   7  -3  106.07    6.12
   0   7  -3   92.59    3.52
   0  -7   3   99.57    5.13
   0   7  -2  162.48    9.08
   0   7  -2  163.99    6.90
   0  -7   2  164.11    7.95
   0   7  -1  140.42    8.42
   0   7  -1  132.55    5.97
   0  -7   1  128.23    7.10
   0   7   0    0.61    0.58
   0   7   0    1.80    1.53
   0  -7   0    4.92    3.99
   0   7   1  225.57    7.43
   0   7   1  222.61    7.62
   0  -7  -1  218.88    8.79
   0   7   2  831.10   22.19
   0   7   2  898.69   24.78
   0  -7  -2  875.18   25.37
   0   7   3  861.89   23.98
   0  -7  -3  798.31   23.05
   0   7   4   24.01    2.54
   0  -7  -4   26.74    3.44
   0   7   5   71.29    3.92
   0  -7  -5   79.18    5.16
   0   7   6    3.41    1.63
   0  -7  -6    3.80    2.52
   0   7   7   82.42    5.34
   0  -7  -7   86.57    5.89
   0   7   8   95.94    4.62
   0  -7  -8  103.75    5.28
   0   7   9  140.40    6.50
   0  -7  -9  143.25    6.94
   0   7  10   16.36    3.16
   0  -7 -10   18.79    3.57
   0   7  11    1.81    1.82
   0  -7 -11   -0.17    2.10
   0   8  -5   31.17    6.60
   0  -8   5   44.14    4.13
   0   8  -4   86.70   15.82
   0  -8   4   94.32    5.62
   0   8  -3  133.84   11.14
   0  -8   3  148.84    7.06
   0   8  -2  178.65   10.66
   0   8  -2  173.25    5.08
   0  -8   2  180.20    6.97
   0   8  -1    1.33    0.86
   0   8  -1    1.64    1.67
   0  -8   1    1.94    2.41
   0   8   0   97.75    6.57
   0   8   0  100.57    5.18
   0  -8   0  100.45    6.54
   0   8   1  132.77    5.97
   0   8   1  127.07    5.98
   0  -8  -1  129.27    7.33
   0   8   2   78.07    6.32
   0   8   2   78.51    4.32
   0  -8  -2   79.96    6.13
   0   8   3   -0.25    1.40
   0  -8  -3    2.34    3.03
   0   8   4   17.91    2.72
   0  -8  -4   12.70    3.20
   0   8   5   -2.45    1.78
   0  -8  -5   -1.79    2.89
   0   8   6   94.88    4.85
   0  -8  -6  100.97    6.46
   0   8   7  230.19    8.24
   0  -8  -7  238.55    9.36
   0   8   8  197.73    6.86
   0  -8  -8  186.38    8.49
   0   8   9   23.35    4.14
   0  -8  -9   33.07    4.26
   0   8  10    0.62    1.95
   0  -8 -10    0.31    2.37
   0   9  -4   45.62    8.06
   0  -9   4   54.78    4.63
   0   9  -3   18.19    3.15
   0  -9   3   21.30    3.63
   0   9  -2    1.20    0.95
   0  -9   2    0.45    2.24
   0   9  -1   35.90    6.23
   0   9  -1   43.10    2.86
   0  -9   1   41.08    4.24
   0   9   0  107.85    8.00
   0   9   0  128.11    5.08
   0  -9   0  120.55    6.54
   0   9   1  192.50   11.06
   0   9   1  215.06    7.22
   0  -9  -1  211.83    9.40
   0   9   2  178.89    6.14
   0  -9  -2  168.36    7.83
   0   9   3   18.31    2.31
   0  -9  -3   21.26    5.00
   0   9   4    5.68    2.50
   0  -9  -4    5.85    3.09
   0   9   5  106.79    5.09
   0  -9  -5   98.85    6.34
   0   9   6   62.74    4.30
   0  -9  -6   71.15    6.34
   0   9   7   80.06    5.08
   0  -9  -7   86.55    7.09
   0   9   8   30.98    3.66
   0  -9  -8   29.46    4.93
   0   9   9   -0.70    2.20
   0  -9  -9    1.44    2.77
   0  10  -2   10.40    1.60
   0 -10   2   12.13    3.28
   0  10  -1   42.83    9.21
   0 -10   1   62.43    5.39
   0  10   0  184.12    5.73
   0 -10   0  177.80    8.09
   0  10   1  103.02    4.49
   0 -10  -1   98.50    6.23
   0  10   2    2.06    2.24
   0 -10  -2    0.76    2.92
   0  10   3   16.25    2.33
   0 -10  -3   17.62    5.06
   0  10   4   53.88    4.36
   0 -10  -4   47.67    5.21
   0  10   5   83.65    4.87
   0 -10  -5   82.49    6.69
   0  10   6   76.19    4.86
   0 -10  -6   92.51    7.21
   0  10   7    2.21    2.07
   0 -10  -7    7.54    4.20
   0  10   8    0.53    1.95
   0 -10  -8    1.31    2.83
   0  11   2   23.27    2.96
   0 -11  -2   21.36    4.16
   0  11   3   27.97    3.24
   0 -11  -3   31.98    5.02
   0  11   4   54.13    4.47
   0 -11  -4   55.99    6.61
   0  11   5   29.79    3.72
   0 -11  -5   31.75    6.08
   1 -10  -7   -0.96    2.43
  -1  10   7    2.21    2.15
   1 -10  -6    5.30    3.18
  -1  10   6    4.13    1.97
   1 -10  -5   23.29    5.04
  -1  10   5   22.14    3.50
   1 -10  -4   18.55    5.33
  -1  10   4   21.80    3.15
   1 -10  -3   31.36    5.40
  -1  10   3   31.74    3.50
   1 -10  -2   19.28    4.13
  -1  10   2   22.67    2.77
   1 -10  -1    0.07    2.65
  -1  10   1    0.27    1.33
   1 -10   0   30.44    5.75
   1 -10   1   44.67    4.85
   1  -9  -9   10.26    3.79
  -1   9   9   10.57    2.46
   1  -9  -8    1.26    2.72
  -1   9   8   11.59    3.61
   1  -9  -7   54.22    5.81
  -1   9   7   50.56    4.73
   1  -9  -6  114.37    6.72
  -1   9   6  131.78    6.42
   1  -9  -5  112.94    7.32
  -1   9   5  116.38    5.36
   1  -9  -4   49.05    6.15
  -1   9   4   50.54    4.38
   1  -9  -3    1.96    2.72
  -1   9   3    1.75    1.52
   1  -9  -2    2.38    2.67
  -1   9   2    8.21    2.45
   1  -9  -1   72.37    6.26
  -1   9   1   73.60    3.90
   1  -9   0  117.12    6.45
  -1   9   0  113.51   11.09
  -1   9   0  129.82    4.65
   1  -9   1  152.23    7.78
  -1   9  -1  136.19   11.41
   1  -9   2   32.27    3.76
  -1   9  -2   29.51    4.12
   1  -9   3    5.14    3.22
  -1   9  -3   -0.10    1.60
   1  -9   4    8.80    2.93
  -1   9  -4    4.48    2.37
   1  -8 -10   16.01    4.31
  -1   8  10   13.33    3.47
   1  -8  -9    0.19    2.57
  -1   8   9    0.03    2.35
   1  -8  -8   25.56    3.49
  -1   8   8   33.71    4.14
   1  -8  -7   99.34    7.14
  -1   8   7   99.89    5.75
   1  -8  -6  270.91    8.89
  -1   8   6  265.23    9.24
   1  -8  -5   31.88    4.72
  -1   8   5   36.08    3.53
   1  -8  -4    0.24    2.57
  -1   8   4    1.70    1.62
   1  -8  -3    1.68    3.38
  -1   8   3    2.23    1.49
   1  -8  -2  133.71    8.27
  -1   8   2  138.50    6.05
  -1   8   2  145.40    6.99
   1  -8  -1  235.97   11.68
  -1   8   1  233.23   10.18
  -1   8   1  248.80   10.61
   1  -8   0  264.12    9.65
  -1   8   0  266.32   14.94
  -1   8   0  271.18    7.42
   1  -8   1   67.80    5.46
  -1   8  -1   70.29    3.94
  -1   8  -1   68.54    3.14
   1  -8   2   12.08    3.55
  -1   8  -2   13.86    2.17
   1  -8   3   48.51    4.13
  -1   8  -3   49.34    6.16
   1  -8   4   40.58    3.76
  -1   8  -4   43.42    8.65
   1  -8   5   84.52    6.17
  -1   8  -5   74.96   11.26
   1  -7 -10    2.60    2.11
  -1   7  10    2.87    2.10
   1  -7  -9   26.06    3.59
  -1   7   9   27.71    3.91
   1  -7  -8  105.81    5.93
  -1   7   8   99.83    5.47
   1  -7  -7  176.43    7.30
  -1   7   7  188.27    7.34
   1  -7  -6  256.69   12.37
  -1   7   6  264.94   11.88
   1  -7  -5    1.43    2.56
  -1   7   5    0.01    1.69
   1  -7  -4   26.84    3.47
  -1   7   4   26.20    2.51
   1  -7  -3  209.38    8.15
  -1   7   3  222.43    7.55
   1  -7  -2  371.65   12.43
  -1   7   2  380.81   10.40
  -1   7   2  391.55   11.75
   1  -7  -1   64.88    4.65
  -1   7   1   69.28    5.81
  -1   7   1   70.23    3.07
   1  -7   0   32.46    3.71
  -1   7   0   35.57    4.70
  -1   7   0   34.53    2.26
   1  -7   1    1.30    2.78
  -1   7  -1    2.04    1.10
  -1   7  -1    1.51    1.11
   1  -7   2   72.82    5.22
  -1   7  -2   80.04    4.61
  -1   7  -2   71.61    3.70
   1  -7   3  212.24    8.00
  -1   7  -3  212.38    7.63
   1  -7   4  163.42    6.67
  -1   7  -4  159.44   12.84
   1  -7   5   79.48    4.92
  -1   7  -5   83.41    4.47
   1  -7   6    4.29    2.54
  -1   7  -6    9.02    1.83
  -1   7  -7    6.78    2.14
   1  -6 -11   -0.54    2.06
  -1   6  11    5.11    2.77
   1  -6 -10   41.98    8.71
  -1   6  10   48.07    4.68
   1  -6  -9   59.26   12.47
  -1   6   9   66.30    4.57
   1  -6  -8  107.80    5.18
  -1   6   8  110.10    5.48
   1  -6  -7  106.23    6.51
  -1   6   7  101.15    5.88
   1  -6  -6   16.89    3.25
  -1   6   6   21.82    2.94
   1  -6  -5    1.94    2.42
  -1   6   5    2.13    2.02
   1  -6  -4  693.91   20.16
  -1   6   4  706.72   19.98
   1  -6  -3  960.72   27.85
  -1   6   3  998.68   27.96
   1  -6  -2  521.85   16.72
  -1   6   2  526.61   14.59
  -1   6   2  525.65   15.43
   1  -6  -1  214.72    7.13
  -1   6   1  219.16    4.67
  -1   6   1  216.63    4.66
   1  -6   0    4.13    3.13
  -1   6   0    2.15    0.80
  -1   6   0    0.48    1.27
   1  -6   1   53.67    4.74
  -1   6  -1   65.62    8.50
  -1   6  -1   55.21    2.56
   1  -6   2  252.22    9.21
  -1   6  -2  243.35    8.45
  -1   6  -2  241.57    7.11
   1  -6   3  188.63    8.99
  -1   6  -3  190.13    8.92
  -1   6  -3  193.35    7.53
   1  -6   4   45.83    4.07
  -1   6  -4   45.34    8.08
   1  -6   5    3.35    1.82
  -1   6  -5    2.77    2.11
   1  -6   6   16.80    2.59
  -1   6  -6   17.51    3.05
   1  -6   7   48.51    4.18
  -1   6  -7   51.28    8.64
   1  -6   8   21.91    3.23
  -1   6  -8   31.08    6.30
   1  -5 -11   24.25    5.96
  -1   5  11   32.08    4.12
   1  -5 -10  117.58   10.89
  -1   5  10  120.96    6.04
   1  -5  -9  105.36   18.04
  -1   5   9  108.91    5.63
   1  -5  -8   90.67    8.38
  -1   5   8   94.34    5.61
   1  -5  -7   43.05    8.53
  -1   5   7   38.32    3.24
   1  -5  -6   25.20    3.31
  -1   5   6   26.57    3.07
   1  -5  -5   73.95    3.79
  -1   5   5   73.40    3.69
   1  -5  -4 1164.27   29.73
  -1   5   4 1184.55   29.88
   1  -5  -3  601.24   15.76
  -1   5   3  614.64   14.14
  -1   5   3  618.11   15.66
   1  -5  -2   12.82    2.73
  -1   5   2    7.44    0.97
  -1   5   2    6.73    1.50
   1  -5  -1   91.59    5.57
  -1   5   1   84.78    5.13
  -1   5   1   86.40    3.13
   1  -5   0  326.28   10.17
  -1   5   0  340.63    9.03
  -1   5   0  337.31    8.78
   1  -5   1  144.35    4.89
  -1   5  -1  159.39    9.47
  -1   5  -1  146.87    3.10
   1  -5   2  400.32   12.71
  -1   5  -2  411.04   14.80
  -1   5  -2  407.55   11.56
   1  -5   3  243.66    8.88
  -1   5  -3  242.57    8.01
  -1   5  -3  248.81    7.18
   1  -5   4   47.92    3.58
  -1   5  -4   46.94    8.73
   1  -5   5  153.26    7.42
  -1   5  -5  154.82    8.47
   1  -5   6  194.39    6.80
  -1   5  -6  200.71   16.97
   1  -5   7   47.82    4.06
  -1   5  -7   49.52    8.54
   1  -5   8   34.08    3.68
  -1   5  -8   34.13    5.99
   1  -5   9    0.42    1.56
  -1   5  -9   -2.88    2.13
   1  -4 -11   50.51    9.85
  -1   4  11   62.98    4.48
   1  -4 -10   76.11   12.78
  -1   4  10   72.57    4.73
   1  -4  -9   34.43    5.95
  -1   4   9   32.53    3.44
   1  -4  -8   13.50    2.32
  -1   4   8   12.18    2.24
   1  -4  -7    9.09    1.88
  -1   4   7    4.17    2.04
   1  -4  -6  196.11    9.82
  -1   4   6  196.58    5.15
   1  -4  -5  335.76    9.98
  -1   4   5  328.39    9.80
   1  -4  -4  776.27   19.24
  -1   4   4  785.89   19.27
   1  -4  -3  540.83   11.05
  -1   4   3  502.50    8.37
  -1   4   3  521.72   10.40
   1  -4  -2  401.79    8.97
  -1   4   2  400.57    7.05
  -1   4   2  398.19    7.61
   1  -4  -1  492.36   10.46
  -1   4   1  492.74    9.03
  -1   4   1  488.63    9.25
   1  -4   0  603.22   12.14
  -1   4   0  611.05   11.05
  -1   4   0  611.16   10.94
   1  -4   1  922.77   17.31
  -1   4  -1  937.45   17.31
  -1   4  -1  951.01   16.04
   1  -4   2   12.36    1.85
  -1   4  -2   14.49    2.80
  -1   4  -2   13.39    1.15
   1  -4   3    0.37    1.88
  -1   4  -3    1.84    1.20
  -1   4  -3    0.97    0.79
   1  -4   4   94.78    4.07
  -1   4  -4   92.60    6.81
  -1   4  -4   94.70    2.05
   1  -4   5  256.51    8.65
  -1   4  -5  260.26    9.40
   1  -4   6   35.71    2.95
  -1   4  -6   38.22    7.48
   1  -4   7   34.96    2.87
  -1   4  -7   34.55    5.96
   1  -4   8    9.27    2.17
  -1   4  -8   12.31    2.29
   1  -4   9   11.92    2.76
  -1   4  -9   12.98    3.04
  -1   4 -10   18.78    5.46
   1  -3 -12   16.88    5.23
  -1   3  12   14.10    3.12
   1  -3 -11   69.10   15.78
  -1   3  11   79.30    4.46
   1  -3 -10   14.37    3.80
  -1   3  10   12.71    2.82
   1  -3  -9    0.64    0.53
   1  -3  -9    1.03    0.73
  -1   3   9    2.16    1.71
   1  -3  -8   59.27    5.22
   1  -3  -8   69.87    5.62
  -1   3   8   64.03    3.59
   1  -3  -7  339.38   13.30
  -1   3   7  310.25    8.69
  -1   3   7  331.94   10.73
   1  -3  -6  204.23    5.01
  -1   3   6  195.74    2.80
  -1   3   6  199.15    5.13
   1  -3  -5  588.59   15.22
  -1   3   5  580.97   13.38
  -1   3   5  574.74   14.59
   1  -3  -4   81.20    6.52
  -1   3   4   82.83    1.71
  -1   3   4   75.06    3.12
   1  -3  -3  162.29    4.28
  -1   3   3  156.48    2.56
  -1   3   3  163.71    4.03
   1  -3  -2  208.44    5.26
  -1   3   2  217.61    4.15
  -1   3   2  215.48    5.06
   1  -3  -1  918.89   12.10
  -1   3   1  922.26   10.48
  -1   3   1  901.02   10.95
   1  -3   0  538.00    8.54
  -1   3   0  576.29    7.33
  -1   3   0  557.03    7.11
   1  -3   1  187.48    5.17
  -1   3  -1  192.12    4.38
  -1   3  -1  188.21    3.90
   1  -3   2  230.43    5.48
  -1   3  -2  227.59    5.44
  -1   3  -2  234.95    3.97
   1  -3   3   64.02    3.14
  -1   3  -3   71.34    6.93
  -1   3  -3   68.42    1.76
   1  -3   4  390.09   10.75
  -1   3  -4  370.87   10.45
  -1   3  -4  383.77    9.05
   1  -3   5  314.69   10.22
  -1   3  -5  307.25   10.58
   1  -3   6   83.29    3.78
  -1   3  -6   81.77    5.57
   1  -3   7   13.04    2.26
  -1   3  -7   15.59    2.44
   1  -3   8   79.44    3.98
  -1   3  -8   82.95   11.18
   1  -3   9   61.76    3.85
  -1   3  -9   55.90   10.38
   1  -3  10   47.16    3.96
  -1   3 -10   43.84    7.79
   1  -2 -11    8.06    2.73
  -1   2  11   13.81    2.92
   1  -2 -10   -1.51    0.90
   1  -2 -10    1.39    0.91
  -1   2  10    0.75    1.62
   1  -2  -9    1.52    0.80
   1  -2  -9    1.33    0.80
  -1   2   9    0.19    1.47
   1  -2  -8  120.58    6.12
  -1   2   8  106.85    4.86
  -1   2   8  120.15    6.28
   1  -2  -7  207.05    7.56
  -1   2   7  193.69    6.10
  -1   2   7  198.44    7.02
   1  -2  -6  140.13    3.77
  -1   2   6  134.93    2.87
  -1   2   6  137.62    3.93
   1  -2  -5   41.25    2.52
  -1   2   5   43.57    1.78
  -1   2   5   41.79    2.56
   1  -2  -4  383.34    7.34
  -1   2   4  397.42    6.56
  -1   2   4  380.23    7.38
   1  -2  -3  219.84    5.72
  -1   2   3  215.43    4.05
  -1   2   3  213.94    4.86
   1  -2  -2  332.91    6.89
  -1   2   2  323.05    5.74
  -1   2   2  329.12    6.56
   1  -2  -1 2903.95   31.22
  -1   2   1 2868.22   29.69
  -1   2   1 2863.01   30.24
   1  -2   0   36.51    2.64
  -1   2   0   32.31    2.51
  -1   2   0   31.43    1.30
   1  -2   1  388.22    6.65
  -1   2  -1  391.92    5.52
  -1   2  -1  384.32    5.68
   1  -2   2 1264.84   15.33
  -1   2  -2 1238.92   14.44
  -1   2  -2 1244.95   13.13
   1  -2   3 1300.42   22.13
  -1   2  -3 1259.24   21.61
  -1   2  -3 1318.45   20.89
   1  -2   4  267.22    5.82
  -1   2  -4  258.34    5.61
  -1   2  -4  260.24    4.10
   1  -2   5   56.24    2.97
  -1   2  -5   61.35    5.33
  -1   2  -5   59.57    1.79
   1  -2   6    3.34    2.20
  -1   2  -6    4.39    1.07
  -1   2  -6    4.35    0.71
   1  -2   7   47.65    3.13
  -1   2  -7   47.72    7.16
   1  -2   8  124.51    6.41
  -1   2  -8  120.05   10.22
   1  -2   9   99.69    4.83
  -1   2  -9   92.46   13.53
   1  -2  10   35.48    3.65
  -1   2 -10   32.30    5.29
   1  -2  11    4.93    2.72
  -1   2 -11    1.46    0.91
   1  -1 -11    3.07    1.27
   1  -1 -11    1.69    1.19
  -1   1  11    5.65    2.29
   1  -1 -10    3.00    0.64
  -1   1  10    5.75    1.85
  -1   1  10    5.04    2.31
   1  -1  -9  157.44    5.14
  -1   1   9  157.88    5.62
  -1   1   9  157.01    6.02
  -1   1   8  222.14    9.01
  -1   1   8  229.20    9.66
  -1   1   8  234.06    9.97
  -1   1   7   48.66    2.46
  -1   1   7   49.68    2.72
  -1   1   7   46.41    2.70
  -1   1   6   12.89    1.43
  -1   1   6   15.24    1.90
  -1   1   6   14.90    1.71
  -1   1   5  374.32    6.59
  -1   1   5  376.50    7.06
  -1   1   5  388.27   10.26
  -1   1   4  123.89    2.85
  -1   1   4  124.26    3.39
   1  -1  -3  773.43    9.73
  -1   1   3  772.65    9.01
  -1   1   3  745.87    9.47
   1  -1  -2    9.33    1.40
  -1   1   2    8.86    0.80
  -1   1   2    9.69    1.19
  -1   1   1 2748.83   28.76
   1  -1   0  250.59    4.99
  -1   1   0  254.48    4.67
  -1   1   0  258.98    4.65
   1  -1   1 4714.41   62.63
   1  -1   1 4527.41   59.21
  -1   1  -1 4603.00   60.80
  -1   1  -1 4690.49   61.32
   1  -1   2 1262.06   14.71
  -1   1  -2 1209.85   13.93
   1  -1   3 1628.74   18.64
  -1   1  -3 1580.78   18.48
  -1   1  -3 1662.24   17.21
   1  -1   4   39.93    2.31
  -1   1  -4   38.61    4.51
  -1   1  -4   37.50    1.30
   1  -1   5  169.20    4.62
  -1   1  -5  174.63    5.03
  -1   1  -5  173.41    4.15
   1  -1   6  108.37    3.67
  -1   1  -6  107.62    3.56
  -1   1  -6  107.72    2.61
   1  -1   7  446.10   13.32
  -1   1  -7  445.63   13.41
  -1   1  -7  440.17   12.86
   1  -1   8  389.08   15.35
  -1   1  -8  399.00   15.55
  -1   1  -8  388.24   14.80
   1  -1   9   25.42    2.51
  -1   1  -9   23.91    4.80
   1  -1  10    0.33    1.50
  -1   1 -10   -1.26    1.74
   1  -1  11    2.21    1.73
  -1   1 -11    2.72    1.14
   1   0 -11   12.39    3.31
  -1   0  11   14.79    2.55
   1   0 -10   43.99    6.70
   1   0 -10   52.06    3.83
  -1   0  10   52.01    3.28
  -1   0   9  127.35    4.81
  -1   0   9  127.66    5.59
  -1   0   8   92.05    4.80
  -1   0   8   86.05    4.59
  -1   0   8  100.62    5.51
  -1   0   7    2.33    1.35
  -1   0   7    0.13    1.23
  -1   0   7    1.04    1.64
  -1   0   6  172.01    3.96
  -1   0   6  170.96    3.93
  -1   0   6  163.96    4.09
  -1   0   5  438.75   11.05
  -1   0   5  440.23   11.08
  -1   0   5  443.81   11.43
  -1   0   4  707.13   12.49
  -1   0   4  685.68   12.05
  -1   0   4  700.65   12.74
  -1   0   3  198.63    4.27
  -1   0   3  201.22    4.19
  -1   0   3  194.30    4.48
  -1   0   2  403.71    5.37
  -1   0   2  402.00    5.09
  -1   0   2  389.31    5.54
   1   0  -1   15.19    0.87
   1   0  -1   13.09    0.50
  -1   0   1   14.52    0.75
  -1   0   1   15.17    0.94
   1   0   1 3362.65   34.05
   1   0   1 3314.19   34.07
  -1   0  -1 3449.66   34.95
  -1   0  -1 3328.76   34.18
   1   0   2  465.43    5.10
   1   0   2  471.55    6.17
  -1   0  -2  461.95    5.08
  -1   0  -2  470.65    5.90
   1   0   3  756.50    9.52
   1   0   3  727.36    8.04
  -1   0  -3  746.32    9.17
   1   0   4  183.25    4.53
   1   0   4  177.03    3.60
  -1   0  -4  184.83    4.26
   1   0   5  492.51    9.73
   1   0   5  510.37    9.08
  -1   0  -5  514.30    9.82
   1   0   6  629.77   15.85
   1   0   6  630.56   15.08
  -1   0  -6  624.90   16.84
   1   0   7  587.28   17.29
   1   0   7  565.26   15.95
  -1   0  -7  576.06   18.21
   1   0   8  210.40    7.56
   1   0   8  193.29    6.34
  -1   0  -8  203.72    8.02
   1   0   9    3.65    2.25
   1   0   9    2.31    1.44
  -1   0  -9    3.55    1.43
   1   0  10   20.70    2.80
  -1   0 -10   22.72    3.82
   1   0  11   49.67    3.77
  -1   0 -11   43.40    7.89
   1   0  12   50.83    4.07
  -1   0 -12   33.55    8.35
   1   1 -11   19.63    3.65
  -1  -1  11   19.03    2.61
   1   1 -10   34.88    6.31
  -1  -1  10   40.31    3.27
   1   1  -9   12.24    3.15
  -1  -1   9   15.74    2.05
   1   1  -8    2.10    1.29
  -1  -1   8   -0.71    1.43
  -1  -1   8   -0.42    1.26
   1   1  -7  250.38    9.26
  -1  -1   7  244.50    7.95
  -1  -1   7  251.01    7.98
   1   1  -6  396.31   12.23
  -1  -1   6  387.59   11.84
  -1  -1   6  389.78   11.66
   1   1  -5  352.78    9.55
  -1  -1   5  359.78    9.61
  -1  -1   5  357.95    9.31
   1   1  -4  328.43    6.59
  -1  -1   4  344.10    6.55
  -1  -1   4  336.37    6.09
   1   1  -3   78.63    2.52
  -1  -1   3   79.04    2.69
  -1  -1   3   80.43    2.27
   1   1  -2   26.59    2.16
  -1  -1   2   28.06    1.71
  -1  -1   2   26.84    1.18
   1   1  -1 4208.07   55.80
   1   1  -1 4264.11   56.00
  -1  -1   1 4458.81   58.48
  -1  -1   1 4361.44   57.71
   1   1   0 1869.05   19.65
  -1  -1   0 1911.28   20.03
  -1  -1   0 1876.64   19.11
  -1  -1  -1 1953.21   20.22
   1   1   2 3239.60   33.68
   1   1   2 3325.29   34.26
  -1  -1  -2 3181.36   32.70
   1   1   3  409.26    5.95
   1   1   3  409.05    5.29
  -1  -1  -3  400.47    6.04
   1   1   4  419.12    6.44
   1   1   4  413.74    5.67
  -1  -1  -4  413.30    5.75
   1   1   5 1580.83   26.53
   1   1   5 1563.39   25.56
  -1  -1  -5 1563.22   26.10
   1   1   6  485.23   12.57
   1   1   6  487.72   11.99
  -1  -1  -6  492.78   12.19
   1   1   7  100.02    3.80
   1   1   7   96.14    2.98
  -1  -1  -7  100.06    3.14
   1   1   8   10.47    2.04
   1   1   8    6.24    1.37
  -1  -1  -8    9.79    1.76
   1   1   9   61.35    3.56
   1   1   9   65.37    3.93
  -1  -1  -9   66.01    9.62
   1   1  10  120.03    5.54
   1   1  10  108.22    4.10
  -1  -1 -10  115.47    4.62
   1   1  11   58.38    3.69
  -1  -1 -11   52.30    8.36
   1   1  12   17.76    2.82
  -1  -1 -12   12.74    2.69
   1   2 -10   24.39    5.38
  -1  -2  10   27.59    2.82
   1   2  -9    5.14    1.88
   1   2  -9    1.46    1.10
  -1  -2   9    1.45    1.20
   1   2  -8   95.34    4.56
  -1  -2   8  107.61    4.90
  -1  -2   8  101.29    4.20
   1   2  -7  305.49   12.31
  -1  -2   7  303.92   12.29
  -1  -2   7  306.15   12.09
   1   2  -6  562.63   16.36
  -1  -2   6  589.82   16.92
  -1  -2   6  576.56   16.06
   1   2  -5  327.04   10.27
  -1  -2   5  335.55    9.71
  -1  -2   5  336.27    9.39
   1   2  -4   12.06    2.45
  -1  -2   4    9.70    1.52
  -1  -2   4   10.53    1.13
   1   2  -3  312.18    5.86
  -1  -2   3  309.45    6.15
  -1  -2   3  306.37    5.53
   1   2  -2 1157.09   13.38
  -1  -2   2 1139.21   13.58
  -1  -2   2 1150.60   13.07
   1   2  -1 2398.04   25.64
  -1  -2   1 2426.06   26.01
  -1  -2   1 2412.31   25.47
   1   2   0   90.36    2.52
  -1  -2   0   97.22    2.55
  -1  -2   0   92.20    2.57
   1   2   1   44.95    2.01
  -1  -2  -1   45.07    1.42
  -1  -2  -1   47.67    2.74
   1   2   2  203.24    4.64
  -1  -2  -2  191.49    3.67
  -1  -2  -2  196.28    4.14
   1   2   3  385.25    6.59
   1   2   3  382.93    6.45
  -1  -2  -3  372.50    6.58
   1   2   4 1089.76   13.27
   1   2   4 1113.87   13.12
  -1  -2  -4 1101.59   12.20
   1   2   5 1938.05   32.14
   1   2   5 1955.06   31.98
  -1  -2  -5 1929.48   31.36
   1   2   6  450.17   11.76
   1   2   6  457.93   11.51
  -1  -2  -6  460.46   11.33
   1   2   7    5.70    2.17
   1   2   7    0.90    1.11
  -1  -2  -7    0.25    0.40
   1   2   8  205.78    7.35
   1   2   8  218.02    7.13
  -1  -2  -8  207.70    6.71
   1   2   9  112.09    5.89
   1   2   9  101.81    5.05
  -1  -2  -9  101.64    6.55
   1   2  10  104.49    4.70
   1   2  10  113.62    4.68
  -1  -2 -10  104.63   12.38
   1   2  11   76.63    4.37
  -1  -2 -11   60.40   10.49
   1   2  12    2.63    1.76
   1   3 -10    4.46    2.26
  -1  -3  10    2.42    1.99
   1   3  -9   22.43    3.34
  -1  -3   9   23.44    2.76
   1   3  -8   90.66    4.23
  -1  -3   8   83.29    5.17
  -1  -3   8   85.62    4.46
   1   3  -7   73.47    8.02
  -1  -3   7   74.66    4.80
  -1  -3   7   74.98    4.33
   1   3  -6  226.78    7.25
  -1  -3   6  210.33    7.44
  -1  -3   6  216.83    6.95
   1   3  -5    7.84    1.52
  -1  -3   5    8.67    1.94
  -1  -3   5   10.97    1.59
   1   3  -4  386.36   10.45
  -1  -3   4  359.73   10.28
  -1  -3   4  370.54   10.20
   1   3  -3  842.99   14.70
  -1  -3   3  815.91   14.85
  -1  -3   3  844.36   14.84
   1   3  -2 1985.51   32.28
  -1  -3   2 1976.92   32.47
  -1  -3   2 1974.78   32.14
   1   3  -1  903.88   11.06
  -1  -3   1  905.59   11.16
  -1  -3   1  925.56   11.30
   1   3   0  124.30    3.39
  -1  -3   0  126.28    3.10
  -1  -3   0  118.57    3.27
   1   3   1  395.20    5.89
  -1  -3  -1  397.70    5.20
  -1  -3  -1  388.09    6.74
   1   3   2  185.10    4.52
  -1  -3  -2  187.74    3.54
  -1  -3  -2  193.26    4.54
   1   3   3 1584.53   18.13
  -1  -3  -3 1643.57   17.09
  -1  -3  -3 1580.82   18.42
   1   3   5  183.51    4.38
  -1  -3  -5  182.46    3.32
  -1  -3  -5  194.66    4.88
   1   3   6  100.64    3.58
  -1  -3  -6   92.28    2.39
   1   3   7  139.33    4.41
   1   3   7  145.53    3.93
  -1  -3  -7  140.62    2.87
   1   3   8   83.63    3.71
   1   3   8   86.33    3.62
  -1  -3  -8   83.70    4.07
   1   3   9   25.29    2.57
   1   3   9   28.23    2.54
  -1  -3  -9   21.89    3.70
   1   3  10  128.63    5.73
   1   3  10  136.30    5.20
  -1  -3 -10  122.52    7.09
   1   3  11    2.57    2.15
   1   3  12    9.04    2.35
  -1  -3 -12   10.95    2.98
   1   4  -9   45.53    8.49
  -1  -4   9   48.06    3.39
   1   4  -8  155.44    6.56
  -1  -4   8  151.85    5.84
   1   4  -7   40.69    2.87
  -1  -4   7   37.32    3.48
  -1  -4   7   33.33    2.44
   1   4  -6   13.11    1.85
  -1  -4   6   14.10    2.80
  -1  -4   6   16.50    2.09
   1   4  -5   62.05    2.76
  -1  -4   5   61.64    3.30
  -1  -4   5   67.01    2.92
   1   4  -4  739.30   20.61
  -1  -4   4  722.60   20.90
  -1  -4   4  732.94   20.63
   1   4  -3  505.78   13.19
  -1  -4   3  498.81   13.54
  -1  -4   3  501.26   13.33
   1   4  -2  789.89   18.69
  -1  -4   2  795.37   19.15
  -1  -4   2  806.35   19.31
   1   4  -1   21.34    1.94
  -1  -4   1   21.83    1.79
  -1  -4   1   22.56    1.80
   1   4   0   25.50    1.95
  -1  -4   0   23.63    1.39
  -1  -4   0   27.47    2.38
   1   4   1   95.08    3.20
  -1  -4  -1   96.28    2.63
  -1  -4  -1   92.63    3.28
   1   4   2  475.26    7.28
  -1  -4  -2  482.14    5.94
  -1  -4  -2  474.03    7.29
   1   4   3  485.55    9.45
  -1  -4  -3  518.22    8.49
  -1  -4  -3  508.36   10.12
   1   4   4  256.47    5.48
  -1  -4  -4  257.24    5.60
   1   4   5   -0.28    1.56
  -1  -4  -5    0.68    0.98
   1   4   6   68.21    3.24
  -1  -4  -6   58.23    1.37
  -1  -4  -6   64.26    3.38
   1   4   7  596.96   17.55
  -1  -4  -7  548.28   14.86
  -1  -4  -7  600.15   20.42
   1   4   8  220.39    7.53
  -1  -4  -8  243.53    8.82
   1   4   9   81.20    4.57
  -1  -4  -9   84.18    5.97
   1   4  10    0.14    1.27
  -1  -4 -10    2.33    1.38
   1   4  11    9.53    2.11
  -1  -4 -11   10.41    2.55
   1   4  12   15.63    2.70
  -1  -4 -12   18.59    4.10
   1   5  -8    8.09    2.16
  -1  -5   8    5.62    1.72
   1   5  -7   16.75    2.90
  -1  -5   7   14.99    2.43
   1   5  -6    5.14    1.27
  -1  -5   6    4.19    2.37
  -1  -5   6    4.78    1.79
   1   5  -5  154.23    6.57
  -1  -5   5  144.54    6.82
  -1  -5   5  150.13    6.77
   1   5  -4  531.88   14.37
  -1  -5   4  532.88   15.27
  -1  -5   4  512.03   14.39
   1   5  -3  511.67   14.74
  -1  -5   3  520.83   15.53
  -1  -5   3  508.45   14.98
   1   5  -2    3.48    2.16
  -1  -5   2   -0.35    1.43
  -1  -5   2    0.57    1.66
   1   5  -1  115.54    3.70
  -1  -5   1  116.80    3.71
  -1  -5   1  118.87    4.40
   1   5   0  338.62    9.18
  -1  -5   0  337.22    8.78
  -1  -5   0  338.42    9.58
   1   5   1  553.21   10.81
  -1  -5  -1  553.77   10.00
  -1  -5  -1  522.28   10.73
   1   5   2  578.01   11.23
  -1  -5  -2  584.26   10.14
  -1  -5  -2  571.13   11.75
   1   5   3   66.69    2.95
  -1  -5  -3   68.72    1.72
  -1  -5  -3   70.00    3.36
   1   5   4    9.58    1.88
  -1  -5  -4    8.62    1.73
   1   5   5   82.71    3.44
  -1  -5  -5   82.88    6.57
   1   5   6  318.30   10.32
  -1  -5  -6  315.62   14.41
   1   5   7  110.08    4.43
  -1  -5  -7  119.49   12.61
   1   5   8   72.07    3.84
  -1  -5  -8   72.99    8.68
   1   5   9    1.28    1.69
  -1  -5  -9    5.22    2.25
   1   5  10   16.80    2.59
  -1  -5 -10   18.68    3.23
   1   5  11   33.69    3.54
  -1  -5 -11   32.48    7.10
   1   5  12   39.55    4.20
  -1  -5 -12   35.57    7.74
   1   6  -8    1.99    2.17
   1   6  -7    4.74    1.96
  -1  -6   7   10.16    2.28
   1   6  -6  177.43    7.40
  -1  -6   6  165.82    6.29
   1   6  -5   96.55    3.88
  -1  -6   5  100.66    5.10
  -1  -6   5   93.11    4.09
   1   6  -4   56.00    2.84
  -1  -6   4   57.58    3.31
  -1  -6   4   56.96    3.19
   1   6  -3   43.85    2.70
  -1  -6   3   43.90    3.08
  -1  -6   3   46.72    3.15
   1   6  -2   98.31    3.69
  -1  -6   2  109.66    4.25
  -1  -6   2  108.74    4.43
   1   6  -1  159.08    4.47
  -1  -6   1  166.30    4.22
  -1  -6   1  169.28    5.19
   1   6   0  669.43   17.59
  -1  -6   0  685.61   17.67
  -1  -6   0  633.06   17.30
   1   6   1  454.74   12.72
  -1  -6  -1  444.61   11.62
  -1  -6  -1  412.93   12.29
   1   6   2  129.07    4.25
  -1  -6  -2  131.08    2.66
  -1  -6  -2  126.56    4.71
   1   6   3   14.96    2.34
  -1  -6  -3   13.35    1.01
  -1  -6  -3   14.97    3.09
   1   6   4  217.31    5.38
  -1  -6  -4  217.43    5.52
   1   6   5  119.59    4.31
  -1  -6  -5  127.89    4.89
   1   6   6  200.80    7.50
  -1  -6  -6  190.13    7.14
   1   6   7   12.71    2.31
  -1  -6  -7   16.72    2.80
   1   6   8   -0.20    1.64
  -1  -6  -8    0.24    1.13
   1   6   9   40.74    3.01
  -1  -6  -9   45.08   10.40
   1   6  10  113.85    6.02
  -1  -6 -10  106.65   10.62
   1   6  11   34.69    3.63
  -1  -6 -11   29.18    7.91
   1   6  12    4.82    2.94
  -1  -6 -12    2.33    1.47
   1   7  -7   31.45    5.47
   1   7  -6   48.70    7.63
  -1  -7   6   50.79    3.44
   1   7  -5   47.25    3.69
  -1  -7   5   41.70    3.45
   1   7  -4    7.00    1.86
  -1  -7   4    7.13    1.97
   1   7  -3    0.47    1.16
  -1  -7   3    2.12    2.14
  -1  -7   3    0.13    1.52
   1   7  -2  132.70    5.95
  -1  -7   2  128.71    6.12
  -1  -7   2  129.58    6.46
   1   7  -1  304.06   11.97
  -1  -7   1  308.32   12.23
  -1  -7   1  320.89   13.24
   1   7   0   55.44    3.35
  -1  -7   0   49.26    2.61
  -1  -7   0   48.49    3.39
   1   7   1    0.37    1.71
  -1  -7  -1    2.02    1.31
  -1  -7  -1   -1.07    2.64
   1   7   2  174.79    6.56
  -1  -7  -2  173.62    5.48
  -1  -7  -2  169.98    7.77
   1   7   3  450.55   12.27
   1   7   3  483.74   14.60
  -1  -7  -3  453.73   14.20
   1   7   4  152.79    5.16
  -1  -7  -4  158.12    5.90
   1   7   5  131.06    5.64
  -1  -7  -5  126.32    5.77
   1   7   6   48.04    3.15
  -1  -7  -6   50.55    4.38
   1   7   7    3.65    2.05
  -1  -7  -7   -0.17    2.31
   1   7   8   38.34    3.71
  -1  -7  -8   34.39    6.87
   1   7   9  112.98    5.30
  -1  -7  -9  125.45   10.19
   1   7  10   96.03    5.40
  -1  -7 -10   85.11   18.23
   1   7  11    9.76    2.72
  -1  -7 -11   13.82    3.07
   1   8  -5   -0.51    1.97
  -1  -8   5    0.60    1.46
   1   8  -4   30.78    5.85
  -1  -8   4   26.20    3.07
   1   8  -3   38.40    6.67
   1   8  -3   36.24    2.81
  -1  -8   3   37.23    3.43
   1   8  -2   99.05    5.00
   1   8  -2   97.06    3.93
  -1  -8   2  103.63    4.85
   1   8  -1  230.82    6.92
   1   8  -1  229.37    6.80
  -1  -8   1  236.57    8.13
   1   8   0   23.77    2.11
   1   8   0   26.56    2.64
  -1  -8   0   24.06    3.21
   1   8   1    8.32    1.75
   1   8   1    6.56    1.94
  -1  -8  -1    9.75    2.85
   1   8   2  299.56   12.48
   1   8   2  306.98   12.35
  -1  -8  -2  305.84   13.49
   1   8   3  163.43    6.54
   1   8   3  164.24    7.49
  -1  -8  -3  158.47    8.34
   1   8   4   73.16    4.82
  -1  -8  -4   70.23    5.45
   1   8   5   36.84    3.00
  -1  -8  -5   38.06    4.28
   1   8   6   29.75    3.05
  -1  -8  -6   32.22    3.59
   1   8   7   54.90    4.10
  -1  -8  -7   55.89    4.27
   1   8   8  128.81    5.99
  -1  -8  -8  142.41    6.76
   1   8   9   52.35    4.61
  -1  -8  -9   59.86    4.92
   1   8  10    9.30    2.85
  -1  -8 -10    9.60    3.18
   1   8  11    0.45    1.84
  -1  -8 -11    6.43    2.85
   1   9  -4   28.19    4.01
  -1  -9   4   33.94    3.68
   1   9  -3   61.07   11.21
  -1  -9   3   71.06    4.73
   1   9  -2   29.48    5.43
   1   9  -2   44.32    3.12
  -1  -9   2   30.65    3.12
   1   9  -1    8.29    1.87
   1   9  -1    7.18    1.93
  -1  -9   1    9.48    2.88
   1   9   0   21.08    3.79
   1   9   0   23.63    2.66
  -1  -9   0   26.68    3.50
   1   9   1  189.15   12.09
   1   9   1  212.81    6.82
  -1  -9  -1  199.45    7.99
   1   9   2  127.77    4.49
   1   9   2  138.74    5.23
  -1  -9  -2  126.64    6.16
   1   9   3   77.89    4.37
  -1  -9  -3   77.51    6.07
   1   9   4   25.49    3.47
  -1  -9  -4   23.99    4.81
   1   9   5   13.96    2.57
  -1  -9  -5   14.19    3.60
   1   9   6   55.11    4.33
  -1  -9  -6   56.21    5.77
   1   9   7  113.36    6.05
  -1  -9  -7  115.51    6.66
   1   9   8   93.17    5.59
  -1  -9  -8   93.75    6.54
   1   9   9   10.68    3.29
  -1  -9  -9   14.58    4.04
   1   9  10   -0.26    1.88
  -1  -9 -10   -0.26    2.45
   1  10  -2    1.38    1.06
  -1 -10   2    2.47    2.28
   1  10  -1   15.66    4.22
  -1 -10   1   26.77    4.07
   1  10   0   34.75    6.77
   1  10   0   43.84    3.33
  -1 -10   0   42.12    4.16
   1  10   1  190.44    7.21
  -1 -10  -1  161.54    7.81
   1  10   2   74.70    4.28
  -1 -10  -2   65.26    5.60
   1  10   3    7.54    2.31
  -1 -10  -3    9.18    3.68
   1  10   4   25.48    3.14
  -1 -10  -4   29.14    5.26
   1  10   5  127.25    6.38
  -1 -10  -5  124.49    7.59
   1  10   6  122.63    6.22
  -1 -10  -6  125.77    6.61
   1  10   7   74.19    5.31
  -1 -10  -7   69.88    5.88
   1  10   8   12.96    3.26
  -1 -10  -8    3.08    2.66
   1  10   9    5.75    3.28
  -1 -10  -9    0.38    2.47
   1  11   1   30.18    3.22
  -1 -11  -1   32.59    4.44
   1  11   2    8.65    2.62
  -1 -11  -2   10.94    4.37
   1  11   3    1.10    1.69
  -1 -11  -3    1.19    2.89
   1  11   4   16.57    3.40
  -1 -11  -4   19.19    5.17
   1  11   5   73.34    5.31
  -1 -11  -5   69.06    6.59
   1  11   6   35.54    3.77
  -1 -11  -6   32.52    5.80
   2 -10  -5   -1.28    2.87
  -2  10   5    6.33    3.14
   2 -10  -4   23.29    5.65
  -2  10   4   21.18    2.83
   2 -10  -3   36.65    5.67
  -2  10   3   35.83    3.77
   2 -10  -2   59.86    5.92
  -2  10   2   56.34    4.08
   2 -10  -1   43.05    5.39
   2 -10   0    2.21    3.19
   2  -9  -8   33.07    5.11
  -2   9   8   24.35    3.80
   2  -9  -7    3.88    2.74
  -2   9   7    8.38    2.77
   2  -9  -6   13.99    4.16
  -2   9   6   13.06    3.00
   2  -9  -5   59.66    6.30
  -2   9   5   54.79    4.05
   2  -9  -4   68.86    5.82
  -2   9   4   73.06    4.47
   2  -9  -3   66.93    5.76
  -2   9   3   74.76    4.11
   2  -9  -2    1.95    3.28
  -2   9   2    5.12    1.78
   2  -9  -1    8.18    3.47
  -2   9   1   15.00    2.12
   2  -9   0   34.64    5.60
  -2   9   0   36.83    2.97
   2  -9   1   79.67    5.74
  -2   9  -1   83.44    4.13
   2  -9   2   47.92    4.85
  -2   9  -2   54.82    3.86
   2  -9   3   17.46    4.19
  -2   9  -3   11.86    2.54
   2  -8  -9   24.47    5.21
  -2   8   9   19.70    3.59
   2  -8  -8   -1.50    2.37
  -2   8   8    1.76    2.20
   2  -8  -7   -1.22    2.72
  -2   8   7    0.27    2.15
   2  -8  -6   55.25    5.74
  -2   8   6   57.93    4.34
   2  -8  -5  169.88    7.62
  -2   8   5  164.47    6.47
   2  -8  -4   32.02    5.06
  -2   8   4   28.87    3.20
   2  -8  -3   -1.42    2.92
  -2   8   3    0.88    1.43
   2  -8  -2   96.40    6.76
  -2   8   2   85.92    4.06
   2  -8  -1  102.31    5.79
  -2   8   1  104.97    3.80
  -2   8   1  106.19    4.05
   2  -8   0   97.97    6.46
  -2   8   0   94.10    4.10
  -2   8   0   97.14    3.80
   2  -8   1  159.49    8.27
  -2   8  -1  155.04    5.62
  -2   8  -1  162.68    5.34
   2  -8   2   61.09    5.33
  -2   8  -2   59.80    8.99
   2  -8   3    3.72    2.49
  -2   8  -3    2.75    1.34
   2  -8   4   25.05    4.20
  -2   8  -4   22.73    3.50
   2  -8   5   46.64    4.80
  -2   8  -5   37.60    7.20
   2  -7 -10   11.60    3.27
  -2   7  10    5.70    2.81
   2  -7  -9    2.95    2.21
  -2   7   9    1.49    2.35
   2  -7  -8   39.72    4.26
  -2   7   8   38.28    4.15
   2  -7  -7  116.88    6.66
  -2   7   7  126.95    6.10
   2  -7  -6  124.98    6.53
  -2   7   6  122.43    5.31
   2  -7  -5   49.42    4.63
  -2   7   5   53.14    3.77
   2  -7  -4   92.49    6.51
  -2   7   4   92.97    5.33
   2  -7  -3   15.23    3.65
  -2   7   3   12.67    2.09
   2  -7  -2   70.62    6.17
  -2   7   2   59.69    2.43
  -2   7   2   65.62    4.09
   2  -7  -1  266.40   12.30
  -2   7   1  270.19   10.42
  -2   7   1  282.93   11.08
   2  -7   0  219.30   10.66
  -2   7   0  235.98    9.47
  -2   7   0  226.36    9.13
   2  -7   1   22.69    4.37
  -2   7  -1   18.91    3.06
  -2   7  -1   15.44    1.57
   2  -7   2   14.73    3.63
  -2   7  -2   15.16    2.47
   2  -7   3   89.60    5.26
  -2   7  -3   96.47    9.94
   2  -7   4  154.18    7.00
  -2   7  -4  184.72    8.46
   2  -7   5   99.06    6.17
  -2   7  -5   96.94   12.62
   2  -7   6   21.90    3.88
  -2   7  -6   19.29    3.37
   2  -6 -10    1.86    2.11
  -2   6  10    0.73    2.07
   2  -6  -9   43.70    4.52
  -2   6   9   39.34    3.85
   2  -6  -8   47.22    4.62
  -2   6   8   46.69    4.57
   2  -6  -7   96.30    5.51
  -2   6   7   99.63    5.47
   2  -6  -6   24.83    3.03
  -2   6   6   21.24    2.60
   2  -6  -5   54.90    4.25
  -2   6   5   54.36    3.28
   2  -6  -4    4.10    2.87
  -2   6   4    2.69    1.89
   2  -6  -3  977.95   27.88
  -2   6   3 1024.68   11.25
   2  -6  -2  946.89   27.05
  -2   6   2  930.50   24.43
  -2   6   2  932.59   25.40
   2  -6  -1  606.96   18.71
  -2   6   1  592.88   16.24
  -2   6   1  615.86   17.25
   2  -6   0   27.51    3.93
  -2   6   0   32.52    2.22
  -2   6   0   31.11    2.26
   2  -6   1   19.95    3.65
  -2   6  -1   20.53    3.23
  -2   6  -1   22.34    1.86
   2  -6   2   42.04    3.69
  -2   6  -2   47.34    7.45
  -2   6  -2   40.89    1.79
   2  -6   3  144.04    7.42
  -2   6  -3  152.77    7.07
   2  -6   4  203.24    7.38
  -2   6  -4  210.32   11.53
   2  -6   5   93.69    5.60
  -2   6  -5   91.10    8.14
   2  -6   6    2.10    2.86
  -2   6  -6    1.31    0.83
   2  -6   7    1.56    1.87
  -2   6  -7    1.66    0.80
   2  -6   8   19.37    3.55
  -2   6  -8   20.14    3.32
   2  -5 -11    3.64    1.79
  -2   5  11    0.85    1.90
   2  -5 -10   34.90    7.33
  -2   5  10   43.44    4.32
   2  -5  -9   44.44   10.40
  -2   5   9   55.00    4.69
   2  -5  -8  107.80    5.43
  -2   5   8  105.41    5.42
   2  -5  -7   91.65    5.66
  -2   5   7   96.84    6.15
   2  -5  -6   11.14    2.54
  -2   5   6   13.62    2.74
   2  -5  -5   64.29    4.37
  -2   5   5   62.91    3.82
   2  -5  -4  369.01   12.07
  -2   5   4  381.93   12.03
   2  -5  -3  570.99   17.53
  -2   5   3  563.68   15.50
  -2   5   3  601.12   17.55
   2  -5  -2  423.72   12.99
  -2   5   2  439.16   11.46
  -2   5   2  427.91   11.83
   2  -5  -1  126.41    5.66
  -2   5   1  115.77    3.10
  -2   5   1  117.45    3.53
   2  -5   0    8.94    3.79
  -2   5   0    3.82    1.33
  -2   5   0    2.82    1.03
   2  -5   1  329.41   11.37
  -2   5  -1  344.51   10.69
  -2   5  -1  347.15   10.10
   2  -5   2  538.05   16.64
  -2   5  -2  565.92   16.63
  -2   5  -2  568.51   15.64
   2  -5   3  229.12    8.55
  -2   5  -3  249.48   13.61
   2  -5   4  240.94   10.59
  -2   5  -4  263.22   16.40
   2  -5   5   14.43    2.62
  -2   5  -5   16.30    3.50
   2  -5   6   69.68    4.55
  -2   5  -6   70.91    5.91
   2  -5   7   68.64    4.37
  -2   5  -7   74.42   13.58
   2  -5   8  101.24    5.46
  -2   5  -8   91.61   13.30
   2  -5   9   11.37    2.55
  -2   5  -9   17.15    3.63
   2  -4 -11   14.04    4.27
  -2   4  11   17.88    3.21
   2  -4 -10  145.62    7.30
  -2   4  10  150.75    6.85
   2  -4  -9  188.61   13.78
  -2   4   9  205.28    7.79
   2  -4  -8  194.21   11.80
  -2   4   8  209.28    7.55
   2  -4  -7    0.53    1.69
  -2   4   7   -0.00    1.67
   2  -4  -6   63.15    3.73
  -2   4   6   56.85    3.65
   2  -4  -5  161.84    4.86
  -2   4   5  151.57    4.59
   2  -4  -4  277.47    8.98
  -2   4   4  265.45    6.82
  -2   4   4  266.77    8.37
   2  -4  -3  342.40    9.94
  -2   4   3  328.97    8.17
  -2   4   3  343.25    9.47
   2  -4  -2  306.14    9.17
  -2   4   2  324.62    8.25
  -2   4   2  305.90    8.43
   2  -4  -1   12.36    2.62
  -2   4   1   14.54    1.52
  -2   4   1   13.62    1.57
   2  -4   0   27.45    3.26
  -2   4   0   26.62    2.02
  -2   4   0   24.91    1.57
   2  -4   1  649.52   17.13
  -2   4  -1  654.92   16.01
  -2   4  -1  652.87   15.36
   2  -4   2  440.88   12.32
  -2   4  -2  450.13   11.76
  -2   4  -2  464.32   11.02
   2  -4   3  214.16    5.85
  -2   4  -3  231.09   11.21
  -2   4  -3  217.72    2.49
   2  -4   4   28.55    2.95
  -2   4  -4   31.21    4.31
   2  -4   5  258.87    9.19
  -2   4  -5  269.85   16.54
   2  -4   6  274.85   11.58
  -2   4  -6  264.38   12.71
   2  -4   7  169.76    6.33
  -2   4  -7  168.65   11.68
   2  -4   8   30.32    3.19
  -2   4  -8   34.31    5.34
   2  -4   9    2.19    1.64
  -2   4  -9    5.44    2.13
   2  -3 -11   32.40    8.64
  -2   3  11   41.58    4.43
   2  -3 -10   56.80   11.86
  -2   3  10   73.84    5.38
   2  -3  -9    6.32    1.83
  -2   3   9    4.22    2.11
   2  -3  -8    4.39    1.80
  -2   3   8    2.44    1.03
  -2   3   8    1.25    1.92
   2  -3  -7   87.93    7.04
  -2   3   7   78.98    2.33
  -2   3   7   91.37    4.59
   2  -3  -6  198.03    7.36
  -2   3   6  178.44    5.39
  -2   3   6  193.75    7.11
   2  -3  -5  752.01   21.32
  -2   3   5  741.27   18.13
  -2   3   5  767.70   20.17
   2  -3  -4 1218.79   28.75
  -2   3   4 1172.22   26.57
  -2   3   4 1227.57   29.09
   2  -3  -3  117.94    4.00
  -2   3   3  112.31    2.65
  -2   3   3  114.42    3.53
   2  -3  -2   11.54    1.91
  -2   3   2    9.44    1.04
  -2   3   2    9.71    1.25
   2  -3  -1  113.64    4.31
  -2   3   1  110.86    2.91
  -2   3   1  112.40    3.06
   2  -3   0 1573.35   27.21
  -2   3   0 1571.74   25.85
  -2   3   0 1542.26   25.21
   2  -3   1 2371.70   39.60
  -2   3  -1 2445.31   39.65
  -2   3  -1 2499.93   39.75
   2  -3   2  728.95   14.20
  -2   3  -2  727.81   13.40
  -2   3  -2  762.77   12.57
   2  -3   3    0.72    1.87
  -2   3  -3    1.79    1.04
  -2   3  -3    2.58    0.38
   2  -3   4  273.59    8.59
  -2   3  -4  260.58    8.21
   2  -3   5   16.48    2.51
  -2   3  -5   18.29    2.51
   2  -3   6    9.26    2.29
  -2   3  -6   12.54    2.17
   2  -3   7   52.57    3.65
  -2   3  -7   49.57    7.27
   2  -3   8    0.40    1.67
  -2   3  -8   -0.38    1.17
   2  -3   9    6.62    2.42
  -2   3  -9    4.12    1.46
   2  -3  10   51.91    4.09
  -2   3 -10   51.21    8.37
   2  -2 -11   17.01    4.47
  -2   2  11   37.59    4.66
   2  -2 -10   31.03    5.18
  -2   2  10   29.10    3.92
   2  -2  -9   71.52    9.87
  -2   2   9   62.57    2.84
   2  -2  -8   33.65    6.07
  -2   2   8   29.19    2.09
  -2   2   8   33.25    2.82
   2  -2  -7  196.23    7.46
  -2   2   7  195.75    6.13
  -2   2   7  204.23    7.53
   2  -2  -6  597.04   18.90
  -2   2   6  557.50   15.61
  -2   2   6  589.52   17.48
   2  -2  -5  287.82    9.21
  -2   2   5  279.96    7.57
  -2   2   5  293.38    9.07
   2  -2  -4    8.30    1.56
  -2   2   4    7.14    1.04
  -2   2   4    9.13    1.68
   2  -2  -3   60.95    2.53
  -2   2   3   58.87    1.82
  -2   2   3   58.71    2.67
   2  -2  -2  155.00    4.22
  -2   2   2  159.38    3.71
  -2   2   2  163.02    4.19
   2  -2  -1  408.29    6.53
  -2   2   1  401.10    5.77
  -2   2   1  400.23    5.83
   2  -2   0  866.13   11.51
  -2   2   0  867.29   10.50
  -2   2   0  857.36   10.11
   2  -2   1   19.00    2.12
  -2   2  -1   20.52    1.78
  -2   2  -1   20.34    0.97
   2  -2   2    7.78    1.76
  -2   2  -2    3.24    0.85
  -2   2  -2    3.52    0.45
   2  -2   3  180.17    4.93
  -2   2  -3  186.69    5.10
   2  -2   4  597.39   15.25
  -2   2  -4  567.55   15.13
   2  -2   5  438.54   12.58
  -2   2  -5  412.65   12.46
   2  -2   6  433.70   13.67
  -2   2  -6  431.85   14.48
   2  -2   7   35.62    2.71
  -2   2  -7   36.23    6.55
   2  -2   8   36.01    2.88
  -2   2  -8   34.85    6.31
   2  -2   9  131.41    6.13
  -2   2  -9  131.95   14.62
   2  -2  10   35.27    3.30
  -2   2 -10   41.00    6.56
   2  -2  11    8.23    2.63
  -2   2 -11   10.37    2.60
   2  -1 -11   12.07    2.16
  -2   1  11   10.94    2.54
   2  -1 -10   11.60    2.27
  -2   1  10   11.26    2.13
  -2   1  10   13.78    2.33
   2  -1  -9    0.59    0.77
  -2   1   9    2.44    1.99
  -2   1   9    1.41    1.71
   2  -1  -8  309.15   12.28
  -2   1   8  263.31   10.48
  -2   1   8  275.64   11.38
   2  -1  -7  312.97   10.79
  -2   1   7  286.40    8.61
  -2   1   7  303.82    9.96
   2  -1  -6  278.58    9.75
  -2   1   6  257.68    7.99
  -2   1   6  271.68    9.24
   2  -1  -5   39.90    3.97
  -2   1   5   35.25    1.93
  -2   1   5   37.12    2.44
   2  -1  -4   49.42    3.15
  -2   1   4   49.80    1.98
  -2   1   4   45.34    2.65
   2  -1  -3  283.59    5.80
  -2   1   3  278.00    5.63
  -2   1   3  277.39    6.27
   2  -1  -2  375.97    7.08
  -2   1   2  365.10    6.92
  -2   1   2  362.84    7.43
   2  -1  -1    9.82    1.82
  -2   1   1    5.57    1.16
  -2   1   1    7.30    1.28
   2  -1   0   78.45    2.97
  -2   1   0   72.48    2.60
  -2   1   0   71.59    2.18
   2  -1   1   80.73    3.05
  -2   1  -1   83.10    2.96
  -2   1  -1   80.05    2.02
   2  -1   2   14.94    1.69
   2  -1   2   14.12    0.96
  -2   1  -2   15.70    1.97
   2  -1   3  999.52   12.75
  -2   1  -3 1004.59   12.64
   2  -1   4 1014.08   18.13
  -2   1  -4 1008.55   18.69
   2  -1   5   17.66    2.26
  -2   1  -5   19.97    3.67
   2  -1   6   21.44    2.19
  -2   1  -6   26.25    5.17
   2  -1   7   82.79    3.85
  -2   1  -7   74.61    5.95
   2  -1   8  184.73    8.42
  -2   1  -8  188.02    9.25
   2  -1   9  169.84    6.27
  -2   1  -9  170.28   12.53
   2  -1  10   25.99    3.14
  -2   1 -10   27.59    5.88
   2  -1  11    2.34    1.89
  -2   1 -11    0.72    1.39
   2   0 -11   -0.99    1.26
   2   0 -11   -0.95    1.55
   2   0 -10   19.56    4.66
   2   0 -10   22.96    5.95
  -2   0  10   22.53    2.38
  -2   0   9   65.36    3.84
  -2   0   8  146.04    6.90
  -2   0   8  154.99    7.20
  -2   0   8  152.82    7.55
  -2   0   7  200.54    6.73
  -2   0   7  207.33    6.69
  -2   0   7  215.13    7.74
  -2   0   6   43.79    2.62
  -2   0   6   39.89    2.07
  -2   0   6   42.29    3.19
  -2   0   5  196.12    4.93
  -2   0   5  203.86    4.77
  -2   0   5  211.82    6.16
  -2   0   4  683.32   12.42
  -2   0   4  705.69   13.45
   2   0  -3  289.75    6.11
  -2   0   3  279.75    5.84
  -2   0   3  277.54    6.42
   2   0  -2  157.73    4.07
  -2   0   2  151.15    3.58
  -2   0   2  152.34    4.15
  -2   0   1 4520.87   60.20
   2   0   0   86.73    2.31
  -2   0   0   77.74    2.66
   2   0   1  498.36    6.48
   2   0   2 1136.82   13.24
   2   0   2 1144.73   12.19
  -2   0  -2 1139.79   13.38
   2   0   3  304.89    6.43
   2   0   3  305.42    5.28
  -2   0  -3  298.75    6.11
   2   0   4   75.88    2.76
   2   0   4   78.62    1.77
  -2   0  -4   81.10    3.37
   2   0   5   43.69    2.61
   2   0   5   45.03    1.37
  -2   0  -5   48.97    7.74
   2   0   6  286.94    8.42
   2   0   6  286.14    7.10
  -2   0  -6  287.17   10.36
   2   0   7  414.47   12.94
   2   0   7  390.38   11.06
  -2   0  -7  435.54   13.59
   2   0   8  232.10    8.10
   2   0   8  215.19    6.44
  -2   0  -8  249.02   10.01
   2   0   9   27.23    2.95
  -2   0  -9   32.51    4.65
   2   0  10   -0.65    1.76
  -2   0 -10    0.17    1.11
   2   0  11   17.57    2.83
  -2   0 -11   16.90    2.91
   2   0  12   33.35    4.28
  -2   0 -12   24.39    3.73
   2   1 -10   13.25    2.93
  -2  -1  10   15.55    2.56
  -2  -1  10   16.80    2.21
   2   1  -9   45.61   12.30
  -2  -1   9   53.85    4.19
  -2  -1   9   49.21    3.58
   2   1  -8   23.07    4.29
  -2  -1   8   25.50    2.53
  -2  -1   8   24.50    2.22
   2   1  -7   40.83   10.79
  -2  -1   7   37.81    2.76
  -2  -1   7   38.80    2.22
   2   1  -6   33.03    7.73
  -2  -1   6   25.43    2.55
  -2  -1   6   29.30    2.10
   2   1  -5  116.11    5.62
  -2  -1   5  113.13    3.51
  -2  -1   5  111.70    2.94
   2   1  -4  495.20   14.80
  -2  -1   4  481.92   12.16
  -2  -1   4  488.42   11.74
   2   1  -3  353.46    9.06
  -2  -1   3  365.22    6.71
  -2  -1   3  357.70    5.74
   2   1  -2   11.57    2.54
  -2  -1   2    7.41    1.20
  -2  -1   2    9.07    0.72
   2   1  -1 3764.61   38.04
   2   1  -1 3669.68   39.12
  -2  -1   1 3779.69   50.64
   2   1   010496.38  138.12
   2   1   010997.45  143.29
  -2  -1   010992.74  143.26
  -2  -1   010828.52  142.24
   2   1   1  782.20    9.21
   2   1   2  831.07    9.77
   2   1   2  833.49    9.62
  -2  -1  -2  815.38   10.01
   2   1   3    2.89    1.25
   2   1   3    0.42    0.77
   2   1   4  141.29    3.75
   2   1   4  146.67    3.22
  -2  -1  -4  144.73    3.73
   2   1   5   32.21    2.07
   2   1   5   32.79    1.40
  -2  -1  -5   34.25    1.86
   2   1   6  798.11   19.56
   2   1   6  782.91   18.24
  -2  -1  -6  817.44   20.01
   2   1   7  412.95   11.95
   2   1   7  398.07   10.48
  -2  -1  -7  408.31   11.37
   2   1   8  140.91    4.87
   2   1   8  149.28    4.07
  -2  -1  -8  143.25    5.36
   2   1   9   15.32    2.42
   2   1   9   10.59    1.56
  -2  -1  -9   13.90    2.32
   2   1  10    1.69    1.78
  -2  -1 -10    2.48    1.27
   2   1  11   84.88    4.78
  -2  -1 -11   73.00   13.60
   2   1  12   54.24    4.90
  -2  -1 -12   41.93    6.89
   2   2  -9   15.63    3.10
  -2  -2   9   21.64    2.63
  -2  -2   9   22.95    2.87
   2   2  -8   14.91    2.42
  -2  -2   8   12.71    2.16
  -2  -2   8   12.65    1.87
  -2  -2   7   10.32    2.50
  -2  -2   7    9.56    1.58
   2   2  -6   94.81    5.45
  -2  -2   6   96.61    3.75
  -2  -2   6   99.46    3.02
   2   2  -5 1052.88   29.54
  -2  -2   5 1094.15   30.31
  -2  -2   5 1104.08   16.78
   2   2  -4  249.94    7.84
  -2  -2   4  253.35    7.43
  -2  -2   4  255.80    6.71
   2   2  -3    2.44    0.93
  -2  -2   3    2.68    0.94
  -2  -2   3    3.70    0.83
   2   2  -2  549.42    7.92
  -2  -2   2  537.02    7.69
  -2  -2   2  566.83    6.75
   2   2  -1 1349.70   15.73
  -2  -2   1 1358.02   15.67
  -2  -2   1 1386.15   14.55
   2   2   0   35.20    2.12
  -2  -2   0   31.40    1.66
  -2  -2   0   35.09    1.18
   2   2   1  733.59    9.17
  -2  -2  -1  754.21    9.36
  -2  -2  -1  743.05    8.42
   2   2   2  214.28    4.35
   2   2   2  221.74    4.99
  -2  -2  -2  204.40    4.45
   2   2   3  254.53    5.32
   2   2   3  251.12    5.23
  -2  -2  -3  246.55    5.04
   2   2   4 1352.79   16.09
   2   2   4 1343.63   15.34
   2   2   5 1342.47   22.98
   2   2   5 1343.11   22.30
  -2  -2  -5 1315.87   21.90
   2   2   6  801.79   19.62
   2   2   6  789.05   18.66
  -2  -2  -6  777.32   18.40
   2   2   7  314.91    9.62
   2   2   7  317.19    8.78
  -2  -2  -7  321.99    8.96
   2   2   8   15.55    2.29
   2   2   8   16.08    1.70
  -2  -2  -8   15.46    1.60
   2   2   9   87.15    5.25
   2   2   9   86.86    4.40
  -2  -2  -9   89.19    4.94
   2   2  10  109.93    5.59
   2   2  10  102.69    4.07
  -2  -2 -10  103.94    6.13
   2   2  11  108.17    5.02
  -2  -2 -11  115.42    4.51
   2   2  12   34.42    4.44
  -2  -2 -12   30.11    2.73
   2   3 -10    4.53    2.21
  -2  -3   9   -0.34    1.83
  -2  -3   9   -0.08    0.94
   2   3  -8   48.86    9.61
  -2  -3   8   59.30    4.65
  -2  -3   8   65.17    3.66
   2   3  -7  212.18    9.05
  -2  -3   7  208.66    7.17
  -2  -3   7  213.72    6.27
   2   3  -6  158.64    7.31
  -2  -3   6  150.99    7.25
  -2  -3   6  157.82    6.73
   2   3  -5  389.61   11.99
  -2  -3   5  376.27   11.57
  -2  -3   5  395.25   11.28
   2   3  -4    3.11    1.93
  -2  -3   4    0.21    1.47
  -2  -3   4    0.38    0.90
   2   3  -3   96.69    3.37
  -2  -3   3   93.61    3.57
  -2  -3   3   95.68    2.70
   2   3  -2  594.54   11.17
  -2  -3   2  581.67   11.02
  -2  -3   2  590.98   10.29
   2   3  -1 1975.08   22.36
  -2  -3   1 1937.48   21.90
  -2  -3   1 2020.00   21.75
   2   3   0  478.40    7.13
  -2  -3   0  474.15    6.77
  -2  -3   0  486.75    6.40
   2   3   1   55.32    2.49
  -2  -3  -1   56.69    1.98
  -2  -3  -1   58.84    2.01
   2   3   2   28.94    2.41
  -2  -3  -2   29.15    1.37
  -2  -3  -2   30.21    1.70
   2   3   3  259.58    5.69
  -2  -3  -3  251.29    5.06
  -2  -3  -3  271.83    5.66
   2   3   4 2007.12   22.79
   2   3   5  682.14   12.84
   2   3   5  681.12   12.48
  -2  -3  -5  674.39   11.71
   2   3   6  380.33   10.44
   2   3   6  386.86   10.18
  -2  -3  -6  380.76    9.46
   2   3   7   19.43    2.60
   2   3   7   19.60    1.85
  -2  -3  -7   17.93    1.57
   2   3   8  266.42    9.07
   2   3   8  268.20    8.53
  -2  -3  -8  257.06    7.79
   2   3   9   44.19    3.11
   2   3   9   40.43    2.66
  -2  -3  -9   40.44    2.47
   2   3  10  155.73    6.21
   2   3  10  152.28    5.38
  -2  -3 -10  158.57    5.01
   2   3  11   59.36    4.39
   2   3  11   60.00    4.18
  -2  -3 -11   59.10    3.94
   2   3  12   17.73    3.40
  -2  -4   9   34.17    3.69
  -2  -4   8   33.15    3.39
  -2  -4   8   27.47    2.71
   2   4  -7   20.89    2.42
  -2  -4   7   19.36    2.93
  -2  -4   7   16.23    1.96
   2   4  -6    1.41    1.28
  -2  -4   6   -1.05    1.61
  -2  -4   6    2.05    1.53
   2   4  -5   10.55    2.01
  -2  -4   5    2.60    1.31
  -2  -4   5    7.48    1.60
   2   4  -4   10.50    1.82
  -2  -4   4   13.99    2.44
  -2  -4   4    8.59    1.26
   2   4  -3 1016.51   25.53
  -2  -4   3  971.11   24.73
  -2  -4   3 1010.37   24.91
   2   4  -2 2086.56   12.37
  -2  -4   2 1985.58   45.46
  -2  -4   2 2039.42   10.32
   2   4  -1 1345.93   22.96
  -2  -4   1 1331.67   22.65
  -2  -4   1 1364.92   22.77
   2   4   0   59.05    2.56
  -2  -4   0   57.92    2.36
  -2  -4   0   57.35    2.30
   2   4   1  128.05    4.08
  -2  -4  -1  124.85    3.02
  -2  -4  -1  121.88    3.32
   2   4   2  628.40    9.18
  -2  -4  -2  617.72    7.87
  -2  -4  -2  621.06    8.66
   2   4   3 3068.90   49.59
  -2  -4  -3 3179.55   50.24
  -2  -4  -3 3134.94   51.56
   2   4   4 1589.39   26.77
  -2  -4  -4 1669.27   26.83
  -2  -4  -4 1637.00   27.89
   2   4   5  139.04    4.11
  -2  -4  -5  129.89    3.05
  -2  -4  -5  149.81    7.03
   2   4   6   -1.02    1.60
  -2  -4  -6    0.82    0.70
  -2  -4  -6    0.57    0.87
   2   4   7   30.63    2.27
  -2  -4  -7   33.82    1.90
  -2  -4  -7   33.67    7.21
   2   4   8   10.49    2.07
  -2  -4  -8    8.47    1.43
  -2  -4  -8   12.87    2.22
   2   4   9  124.99    6.13
  -2  -4  -9  125.99    5.39
   2   4  10   87.08    3.90
  -2  -4 -10  102.39   11.08
   2   4  11    4.01    1.66
  -2  -4 -11    3.72    1.38
   2   4  12    3.04    1.86
  -2  -4 -12    2.35    1.42
  -2  -5   8   44.66    4.21
  -2  -5   7   83.13    4.65
  -2  -5   7   88.43    3.98
   2   5  -6   30.64    2.71
  -2  -5   6   32.78    3.37
  -2  -5   6   36.30    2.69
   2   5  -5  129.46    6.27
  -2  -5   5  122.47    6.49
  -2  -5   5  130.28    6.18
   2   5  -4  102.20    5.19
  -2  -5   4   98.82    5.40
  -2  -5   4  103.11    4.80
   2   5  -3  578.39   16.45
  -2  -5   3  553.18   15.92
  -2  -5   3  559.22   15.50
   2   5  -2  231.04    7.55
  -2  -5   2  223.90    7.22
  -2  -5   2  233.56    7.04
   2   5  -1    1.98    1.83
  -2  -5   1    0.96    1.28
  -2  -5   1    1.14    1.31
   2   5   0    5.65    2.79
  -2  -5   0    2.07    1.21
  -2  -5   0    1.77    1.48
   2   5   1  804.63   19.51
  -2  -5  -1  818.18   19.24
  -2  -5  -1  799.87   19.36
   2   5   2  697.76   13.53
  -2  -5  -2  705.02   12.32
  -2  -5  -2  688.20   13.14
   2   5   3  215.16    5.56
  -2  -5  -3  228.13    2.94
  -2  -5  -3  230.47    4.81
   2   5   4   40.53    2.66
  -2  -5  -4   43.72    1.52
  -2  -5  -4   41.45    3.19
   2   5   5   54.88    3.43
  -2  -5  -5   57.19    1.54
  -2  -5  -5   59.66    3.92
   2   5   6  212.03    4.91
  -2  -5  -6  220.17   10.06
   2   5   7  442.13   13.31
  -2  -5  -7  456.77   14.34
   2   5   8  542.25   15.56
  -2  -5  -8  519.21   16.11
   2   5   9  221.83    9.51
  -2  -5  -9  230.57   10.16
   2   5  10    0.49    1.44
  -2  -5 -10    2.72    1.11
   2   5  11    5.30    1.73
  -2  -5 -11   -0.65    2.13
   2   5  12   15.23    2.92
  -2  -5 -12   14.49    3.50
  -2  -6   7    0.41    2.01
  -2  -6   6   60.70    4.11
  -2  -6   6   58.74    3.26
   2   6  -5  204.17    5.97
  -2  -6   5  193.83    6.64
  -2  -6   5  194.26    5.80
   2   6  -4   75.90    4.32
  -2  -6   4   76.05    4.53
  -2  -6   4   81.25    4.57
   2   6  -3  158.50    7.14
  -2  -6   3  161.50    7.37
  -2  -6   3  168.77    7.24
   2   6  -2  153.13    5.42
  -2  -6   2  147.94    5.04
  -2  -6   2  166.34    6.00
   2   6  -1    3.49    2.17
  -2  -6   1    9.18    1.93
  -2  -6   1    6.20    1.87
   2   6   0  226.38    7.77
  -2  -6   0  240.66    7.87
  -2  -6   0  240.85    8.23
   2   6   1  680.75   18.07
  -2  -6  -1  700.84   17.84
  -2  -6  -1  645.52   17.28
   2   6   2  652.85   17.44
  -2  -6  -2  670.64   16.83
  -2  -6  -2  661.94   17.91
   2   6   3  177.33    5.12
  -2  -6  -3  179.68    2.95
  -2  -6  -3  173.93    4.81
   2   6   4   11.49    2.24
  -2  -6  -4   10.81    0.84
  -2  -6  -4   11.71    2.20
   2   6   5   79.18    3.96
  -2  -6  -5   83.85    7.21
   2   6   6  412.71   12.64
  -2  -6  -6  427.28   18.17
   2   6   7  112.21    4.46
  -2  -6  -7  113.40    6.85
   2   6   8    7.03    2.06
  -2  -6  -8    8.48    1.61
   2   6   9   -0.18    1.70
  -2  -6  -9    1.92    1.02
   2   6  10   22.76    2.82
  -2  -6 -10   23.96    4.98
   2   6  11   40.70    3.84
  -2  -6 -11   38.66    6.21
   2   6  12   14.37    2.91
  -2  -6 -12   13.47    4.20
  -2  -7   6   78.59    4.88
  -2  -7   5   73.82    4.75
  -2  -7   5   66.36    3.56
   2   7  -4   40.33    3.12
  -2  -7   4   42.95    3.51
  -2  -7   4   43.66    3.41
   2   7  -3    6.78    1.85
  -2  -7   3    7.06    2.32
  -2  -7   3    7.11    2.02
   2   7  -2    1.68    1.56
  -2  -7   2    3.18    1.98
  -2  -7   2   -1.13    1.42
   2   7  -1   93.47    5.14
  -2  -7   1   90.76    5.17
  -2  -7   1   98.43    5.19
   2   7   0  378.74   11.55
  -2  -7   0  377.26   10.92
  -2  -7   0  391.15   12.00
   2   7   1  587.42   16.89
  -2  -7  -1  584.54   16.13
  -2  -7  -1  579.47   17.21
   2   7   2  433.76   13.11
  -2  -7  -2  442.58   12.32
  -2  -7  -2  429.06   13.44
   2   7   3   94.07    4.29
  -2  -7  -3   95.02    2.86
  -2  -7  -3   88.76    4.45
   2   7   4  160.35    6.67
  -2  -7  -4  155.58    3.36
  -2  -7  -4  164.42    6.77
   2   7   5  116.51    4.46
  -2  -7  -5  121.31    5.46
   2   7   6  102.55    4.40
  -2  -7  -6  108.62    4.88
   2   7   7   47.65    3.28
  -2  -7  -7   57.90    4.51
   2   7   8    1.78    1.57
  -2  -7  -8    4.81    1.94
   2   7   9   26.72    3.28
  -2  -7  -9   44.55    8.21
   2   7  10   86.10    5.29
  -2  -7 -10   75.68   15.41
   2   7  11   20.60    2.69
  -2  -7 -11   20.01    5.35
   2   7  12   -0.40    1.56
  -2  -7 -12    5.77    2.51
  -2  -8   5   17.52    3.14
  -2  -8   4    7.47    2.40
   2   8  -3    8.65    2.15
  -2  -8   3    7.98    2.11
  -2  -8   3    9.83    2.32
   2   8  -2   45.97    3.29
  -2  -8   2   42.48    3.08
  -2  -8   2   46.11    3.41
   2   8  -1  116.03    4.64
  -2  -8   1  115.47    4.70
  -2  -8   1  116.78    5.12
   2   8   0  153.20    7.40
  -2  -8   0  162.69    7.37
  -2  -8   0  162.21    8.21
   2   8   1    1.03    1.75
  -2  -8  -1   -0.41    1.05
  -2  -8  -1   -0.75    2.34
   2   8   2  189.70    8.30
  -2  -8  -2  208.32    8.35
  -2  -8  -2  200.47    9.92
   2   8   3  208.75    9.39
  -2  -8  -3  205.70    8.03
  -2  -8  -3  194.03    9.26
   2   8   4  125.23    6.52
  -2  -8  -4  124.53    7.42
   2   8   5  168.32    8.01
  -2  -8  -5  164.40    8.57
   2   8   6   46.44    3.75
  -2  -8  -6   40.52    3.42
   2   8   7   13.99    2.85
  -2  -8  -7   18.25    3.31
   2   8   8   25.96    2.94
  -2  -8  -8   29.02    3.88
   2   8   9   95.84    5.23
  -2  -8  -9   86.73   17.18
   2   8  10   36.03    3.46
  -2  -8 -10   42.29   10.17
   2   8  11   24.85    3.64
  -2  -8 -11   21.68    4.02
   2   9  -4   20.00    3.33
  -2  -9   3   93.87    4.88
   2   9  -2  120.09    5.21
  -2  -9   2  117.90    5.22
  -2  -9   2  120.75    6.37
   2   9  -1    3.39    1.75
  -2  -9   1    5.79    1.90
  -2  -9   1    6.72    2.38
   2   9   0   16.49    3.01
  -2  -9   0   15.02    2.14
  -2  -9   0   17.42    3.22
   2   9   1    0.80    1.62
  -2  -9  -1    1.44    1.03
  -2  -9  -1    0.48    1.96
   2   9   2   11.42    2.21
  -2  -9  -2    9.68    1.54
  -2  -9  -2   10.40    2.95
   2   9   3   36.33    3.67
  -2  -9  -3   25.25    3.41
   2   9   4  233.36    7.91
  -2  -9  -4  233.03    8.59
   2   9   5    5.80    2.47
  -2  -9  -5   11.58    2.98
   2   9   6   23.66    2.84
  -2  -9  -6   26.86    4.31
   2   9   7   55.75    4.31
  -2  -9  -7   69.58    6.45
   2   9   8  102.90    5.86
  -2  -9  -8  100.32    5.98
   2   9   9   55.47    4.28
  -2  -9  -9   53.56    4.80
   2   9  10    7.58    2.81
  -2  -9 -10    7.33    3.42
   2  10  -2   12.97    3.23
  -2 -10   2   12.12    2.48
   2  10  -1   -0.50    0.89
   2  10  -1    0.06    1.39
  -2 -10   1    3.09    2.53
   2  10   0    9.04    1.76
   2  10   0    7.19    2.49
  -2 -10   0    6.16    3.01
   2  10   1   33.81    7.08
   2  10   1   44.29    3.56
  -2 -10  -1   43.95    4.41
   2  10   2  110.63    5.20
  -2 -10  -2  104.62    6.42
   2  10   3   59.76    4.06
  -2 -10  -3   64.66    5.65
   2  10   4   15.30    2.89
  -2 -10  -4   10.31    3.49
   2  10   5   -1.52    1.83
  -2 -10  -5    0.84    2.58
   2  10   6   53.63    4.33
  -2 -10  -6   58.30    5.50
   2  10   7   85.65    5.43
  -2 -10  -7   85.30    6.26
   2  10   8   24.94    3.52
  -2 -10  -8   31.88    4.60
   2  10   9   14.63    3.81
  -2 -10  -9   14.20    4.67
   2  11   1   44.98    3.67
  -2 -11  -1   49.48    4.91
   2  11   2   21.29    3.11
  -2 -11  -2   23.02    3.85
   2  11   3    3.50    1.82
  -2 -11  -3    3.80    3.61
   2  11   4    5.64    2.92
  -2 -11  -4    1.26    2.86
   2  11   5   47.58    3.97
  -2 -11  -5   61.36    6.33
   2  11   6  112.98    6.59
  -2 -11  -6  118.56   37.71
   2  11   7   21.45    3.50
  -2 -11  -7   24.73    4.29
   3  -9  -6   23.33    5.02
  -3   9   6   17.84    3.45
   3  -9  -5   -0.59    2.80
  -3   9   5   -0.04    1.77
   3  -9  -4    6.40    3.07
  -3   9   4    8.05    2.26
   3  -9  -3   61.06    5.88
  -3   9   3   70.74    4.65
   3  -9  -2   83.19    6.97
  -3   9   2   71.54    3.85
   3  -9  -1   19.08    4.72
  -3   9   1   18.00    2.41
   3  -9   0    1.78    3.09
   3  -9   1    5.47    3.72
   3  -9   2   36.95    4.73
  -3   9  -2   25.97    3.06
   3  -8  -8   18.16    4.62
  -3   8   8   16.21    3.05
   3  -8  -7    2.90    2.43
  -3   8   7   -1.03    1.98
   3  -8  -6    1.38    2.55
  -3   8   6    4.35    2.61
   3  -8  -5   57.29    6.04
  -3   8   5   52.74    3.90
   3  -8  -4   40.61    4.80
  -3   8   4   48.88    3.83
   3  -8  -3   56.50    6.57
  -3   8   3   50.92    3.87
   3  -8  -2   26.74    5.60
  -3   8   2   23.89    2.83
   3  -8  -1    6.03    3.48
  -3   8   1   -0.13    0.99
  -3   8   1    0.24    1.23
   3  -8   0   36.11    5.24
  -3   8   0   39.21    3.59
  -3   8   0   38.32    2.98
   3  -8   1  111.02    6.82
  -3   8  -1  116.22    5.02
   3  -8   2   84.16    6.18
  -3   8  -2   83.21    4.62
   3  -8   3   29.36    4.70
  -3   8  -3   27.18    3.27
   3  -8   4    3.71    3.33
  -3   8  -4    2.16    1.87
   3  -7  -9   15.67    4.22
  -3   7   9   13.45    3.04
   3  -7  -8    4.73    3.43
  -3   7   8    0.90    2.32
   3  -7  -7    5.16    2.22
  -3   7   7    5.87    3.05
   3  -7  -6   53.77    5.40
  -3   7   6   52.65    4.57
   3  -7  -5   31.81    4.03
  -3   7   5   36.69    4.10
   3  -7  -4  100.97    6.24
  -3   7   4  105.10    5.02
   3  -7  -3   46.30    5.11
  -3   7   3   39.36    2.91
   3  -7  -2   16.06    3.72
  -3   7   2   17.40    1.74
  -3   7   2   16.04    2.23
   3  -7  -1  137.33    8.06
  -3   7   1  127.35    6.00
  -3   7   1  133.40    6.32
   3  -7   0  276.09   10.06
  -3   7   0  265.05    7.58
  -3   7   0  282.11    7.45
   3  -7   1   92.19    6.25
  -3   7  -1   83.24    3.94
  -3   7  -1   90.04    3.51
   3  -7   2   13.32    3.46
  -3   7  -2   15.10    2.42
   3  -7   3    2.54    3.33
  -3   7  -3    1.15    1.74
   3  -7   4   11.41    3.26
  -3   7  -4   10.24    2.45
   3  -7   5   84.31    5.51
  -3   7  -5   90.07    4.95
   3  -7   6   48.76    4.85
  -3   7  -6   47.39    4.58
   3  -6  -9   -1.46    1.94
  -3   6   9    0.46    2.39
   3  -6  -8   27.30    3.96
  -3   6   8   26.87    3.92
   3  -6  -7  103.90    6.83
  -3   6   7   93.37    6.18
   3  -6  -6   58.63    4.88
  -3   6   6   58.67    4.26
   3  -6  -5   75.78    5.53
  -3   6   5   80.35    5.27
   3  -6  -4   77.51    5.84
  -3   6   4   75.65    4.74
   3  -6  -3   25.79    4.19
  -3   6   3   27.35    1.86
  -3   6   3   30.53    2.52
   3  -6  -2   81.66    5.50
  -3   6   2   79.50    2.94
  -3   6   2   80.03    3.43
   3  -6  -1  119.42    6.69
  -3   6   1  118.59    5.48
  -3   6   1  122.66    5.65
   3  -6   0  149.13    8.43
  -3   6   0  145.63    6.50
  -3   6   0  144.84    6.25
   3  -6   1   24.77    3.57
  -3   6  -1   26.08    3.05
  -3   6  -1   25.25    1.77
   3  -6   2    2.14    2.54
  -3   6  -2    1.12    1.82
  -3   6  -2    2.41    0.96
   3  -6   3   86.29    5.79
  -3   6  -3   96.44    5.49
   3  -6   4  169.38    7.07
  -3   6  -4  189.87    6.84
   3  -6   5  188.99    7.79
  -3   6  -5  193.54   10.78
   3  -6   6   44.43    4.41
  -3   6  -6   44.92    8.61
   3  -6   7    2.07    2.21
  -3   6  -7    2.83    1.48
   3  -5 -10    2.66    2.10
  -3   5  10    2.20    2.44
   3  -5  -9    9.31    2.55
  -3   5   9   14.10    3.76
   3  -5  -8   69.73    4.95
  -3   5   8   66.01    5.04
   3  -5  -7  123.69    6.01
  -3   5   7  115.45    5.72
   3  -5  -6   33.47    3.42
  -3   5   6   32.16    3.04
   3  -5  -5   13.75    2.65
  -3   5   5   13.32    2.24
   3  -5  -4  105.59    4.99
  -3   5   4  108.40    4.30
   3  -5  -3  413.40   13.35
  -3   5   3  433.13   12.10
  -3   5   3  444.65   13.32
   3  -5  -2  705.78   20.72
  -3   5   2  727.28   19.67
  -3   5   2  736.55   20.50
   3  -5  -1  383.46   12.77
  -3   5   1  401.93   11.71
  -3   5   1  406.95   12.33
   3  -5   0   63.77    4.39
  -3   5   0   63.48    3.18
  -3   5   0   65.60    2.83
   3  -5   1    1.72    2.78
  -3   5  -1    1.49    1.46
  -3   5  -1    0.17    1.00
   3  -5   2  141.38    6.55
  -3   5  -2  143.60    5.56
  -3   5  -2  148.96    4.62
   3  -5   3  125.53    7.18
  -3   5  -3  134.03    6.53
   3  -5   4  258.89   11.55
  -3   5  -4  258.03   13.86
   3  -5   5  146.29    6.70
  -3   5  -5  148.17    8.90
   3  -5   6    3.04    1.95
  -3   5  -6    1.73    1.14
   3  -5   7   18.90    3.25
  -3   5  -7   15.15    2.75
   3  -5   8   46.64    4.90
  -3   5  -8   43.32   10.05
   3  -4 -10   13.83    3.81
  -3   4  10   18.70    3.46
   3  -4  -9   98.41    5.56
  -3   4   9   99.12    6.08
   3  -4  -8  134.18    5.93
  -3   4   8  139.60    6.43
   3  -4  -7   98.92    5.81
  -3   4   7  100.29    7.10
   3  -4  -6    1.90    1.73
  -3   4   6    2.77    1.88
   3  -4  -5   57.53    3.62
  -3   4   5   56.64    2.05
  -3   4   5   58.87    3.82
   3  -4  -4  290.19    9.80
  -3   4   4  265.67    7.64
  -3   4   4  292.49    9.52
   3  -4  -3  514.57   15.96
  -3   4   3  524.15   14.81
  -3   4   3  539.28   16.11
   3  -4  -2  468.02   13.90
  -3   4   2  444.24   11.86
  -3   4   2  439.67   12.10
   3  -4  -1   20.07    3.15
  -3   4   1   22.66    2.02
  -3   4   1   23.37    1.97
   3  -4   0    6.85    3.76
  -3   4   0    2.31    1.50
  -3   4   0    2.84    1.14
   3  -4   1  201.40    6.40
  -3   4  -1  202.77    4.59
  -3   4  -1  205.23    3.55
   3  -4   2  664.88   20.12
  -3   4  -2  706.09   20.21
  -3   4  -2  711.06   19.24
   3  -4   3  588.97   18.20
  -3   4  -3  623.77   18.21
   3  -4   4  256.37    9.24
  -3   4  -4  242.81    8.13
   3  -4   5   23.18    3.39
  -3   4  -5   30.67    4.30
   3  -4   6   34.18    3.24
  -3   4  -6   42.11    6.12
   3  -4   7   71.58    4.84
  -3   4  -7   72.45    5.72
   3  -4   8   95.67    5.28
  -3   4  -8   96.02   15.68
   3  -4   9   57.80    4.88
  -3   4  -9   49.13   12.10
   3  -3 -10   17.89    3.34
  -3   3  10   14.27    3.08
   3  -3  -9  117.30   12.45
  -3   3   9  119.10    5.93
   3  -3  -8  122.55   13.22
  -3   3   8  125.17    5.83
   3  -3  -7    6.64    1.84
  -3   3   7    6.16    1.22
  -3   3   7    8.21    2.38
   3  -3  -6   32.56    3.13
  -3   3   6   27.68    1.76
  -3   3   6   31.85    3.13
   3  -3  -5  554.70   16.12
  -3   3   5  510.08   13.83
  -3   3   5  538.14   15.84
   3  -3  -4  624.98   16.86
  -3   3   4  571.93   14.52
  -3   3   4  626.04   17.04
   3  -3  -3  291.34    8.88
  -3   3   3  268.45    7.52
  -3   3   3  292.04    8.81
   3  -3  -2   52.57    3.30
  -3   3   2   47.93    2.26
  -3   3   2   47.75    2.81
   3  -3  -1    7.41    2.19
  -3   3   1    6.07    1.34
  -3   3   1    5.04    1.15
   3  -3   0  709.32   17.93
  -3   3   0  711.83   17.21
  -3   3   0  717.29   17.01
   3  -3   1 1105.13   26.88
  -3   3  -1 1097.39   25.76
  -3   3  -1 1146.67   26.25
   3  -3   2  464.29   12.90
  -3   3  -2  496.23   13.00
  -3   3  -2  486.46   11.46
   3  -3   3  302.23    9.55
  -3   3  -3  317.56    9.41
   3  -3   4   -0.68    2.28
   3  -3   5    7.23    2.47
  -3   3  -5    3.89    1.65
   3  -3   6   71.25    4.24
  -3   3  -6   74.81    6.09
   3  -3   7  310.59   13.76
  -3   3  -7  298.10   15.33
   3  -3   8  127.24    5.95
  -3   3  -8  123.66    8.60
   3  -3   9    7.89    1.91
  -3   3  -9   11.24    2.30
   3  -3  10    4.42    2.83
  -3   3 -10    4.51    2.35
   3  -2 -10    7.12    1.79
  -3   2  10    2.90    2.12
   3  -2  -9   32.12    6.11
  -3   2   9   30.28    2.49
  -3   2   9   40.34    4.50
   3  -2  -8   11.20    1.95
  -3   2   8    7.54    1.63
  -3   2   8    9.98    3.07
   3  -2  -7   76.98    5.25
  -3   2   7   66.92    3.55
  -3   2   7   82.87    5.06
   3  -2  -6  261.80    8.97
  -3   2   6  236.13    7.06
  -3   2   6  253.17    8.76
   3  -2  -5 1121.87   18.73
  -3   2   5 1144.94   19.53
   3  -2  -4  522.67   14.01
  -3   2   4  477.67   12.47
  -3   2   4  498.68   13.95
   3  -2  -3   81.93    3.21
  -3   2   3   79.50    2.74
  -3   2   3   82.43    3.30
   3  -2  -2   22.30    2.11
  -3   2   2   22.24    1.49
  -3   2   2   23.27    1.88
   3  -2  -1  212.27    5.67
  -3   2   1  202.25    4.64
  -3   2   1  208.41    4.68
   3  -2   0 1959.53   32.82
  -3   2   0 1976.51   32.57
  -3   2   0 1936.32   31.56
   3  -2   1  881.27   16.42
  -3   2  -1  851.90   15.22
  -3   2  -1  878.32   14.85
   3  -2   2  406.91    8.96
  -3   2  -2  442.72    8.99
  -3   2  -2  416.12    7.34
   3  -2   3   42.60    2.67
   3  -2   3   44.11    1.78
  -3   2  -3   45.59    2.51
   3  -2   4  227.51    6.62
  -3   2  -4  228.69    5.00
   3  -2   5  177.28    5.16
  -3   2  -5  171.84    4.71
   3  -2   6  206.06    7.52
  -3   2  -6  213.74    8.09
   3  -2   7   44.10    3.62
  -3   2  -7   48.84    8.30
   3  -2   8    6.02    2.45
  -3   2  -8    5.56    1.29
   3  -2   9    6.08    2.30
  -3   2  -9    7.85    2.04
   3  -2  10   30.99    3.57
  -3   2 -10   31.42    6.23
   3  -2  11   42.75    4.05
  -3   2 -11   42.66    6.09
   3  -1 -10   22.66    5.29
  -3   1  10   26.30    2.60
  -3   1  10   26.12    3.22
   3  -1  -9    8.39    1.48
  -3   1   9    6.83    1.99
  -3   1   9    8.84    2.59
   3  -1  -8   -0.59    0.96
  -3   1   8    1.48    1.35
  -3   1   8   -0.84    1.88
   3  -1  -7  208.56    8.70
  -3   1   7  177.66    7.42
  -3   1   7  196.01    9.00
   3  -1  -6  591.92   17.72
  -3   1   6  560.07   15.69
  -3   1   6  604.67   18.05
   3  -1  -5  351.93   12.38
  -3   1   5  326.43    9.89
  -3   1   5  329.72   10.85
   3  -1  -4   94.32    3.29
  -3   1   4   83.97    3.03
  -3   1   4   83.45    3.58
   3  -1  -3  194.70    4.32
  -3   1   3  179.17    4.17
  -3   1   3  185.36    5.03
  -3   1   2  200.37    4.51
  -3   1   2  205.99    4.96
   3  -1  -1  394.60    6.39
  -3   1   1  387.33    7.11
  -3   1   1  378.67    7.77
   3  -1   0 1310.15   15.66
  -3   1   0 1291.63   15.52
  -3   1   0 1262.80   14.85
   3  -1   1  354.52    7.45
  -3   1  -1  347.27    7.48
  -3   1  -1  341.12    6.67
   3  -1   2   10.08    1.63
   3  -1   2   10.56    1.80
  -3   1  -2    8.52    1.78
   3  -1   3  362.46    7.34
   3  -1   3  366.71    5.28
  -3   1  -3  359.36    7.33
   3  -1   4  583.72   11.82
  -3   1  -4  573.86   11.32
   3  -1   5  313.40    9.31
  -3   1  -5  318.63    9.16
   3  -1   6  152.16    5.05
  -3   1  -6  151.66    4.86
   3  -1   7   83.08    4.45
  -3   1  -7   81.63    6.74
   3  -1   8   11.78    2.21
  -3   1  -8   14.24    2.93
   3  -1   9   86.40    4.51
  -3   1  -9   89.55   12.56
   3  -1  10   48.96    3.82
  -3   1 -10   49.89    9.17
   3  -1  11   16.56    2.91
  -3   1 -11   13.70    2.98
   3   0 -10    1.69    0.90
  -3   0  10    1.59    1.27
   3   0  -9   35.57    6.72
   3   0  -9   39.31   10.50
  -3   0   9   44.20    3.05
   3   0  -8   30.61    6.15
  -3   0   8   36.14    2.82
   3   0  -7  122.96    5.69
  -3   0   7  109.91    5.44
  -3   0   7  118.03    6.17
   3   0  -6  228.80    7.25
  -3   0   6  215.20    7.16
  -3   0   6  223.09    8.04
   3   0  -5   35.90    5.52
  -3   0   5   33.94    2.20
  -3   0   5   35.58    3.05
   3   0  -4    4.13    0.69
  -3   0   4    3.79    1.78
  -3   0   4    2.59    1.87
   3   0  -3  722.79   12.66
  -3   0   3  687.52   12.69
  -3   0   3  661.60   12.91
  -3   0   2  953.17   16.62
  -3   0   1 1888.13   21.60
  -3   0   1 1873.15   21.55
   3   0   0  341.36    6.62
   3   0   0  333.65    6.95
   3   0   1    2.34    1.02
   3   0   1    2.21    0.55
  -3   0  -1    1.25    2.01
   3   0   2  480.17    7.12
   3   0   2  473.89    6.18
  -3   0  -2  468.94    7.05
   3   0   3  871.51   11.44
   3   0   3  864.83    9.71
  -3   0  -3  889.51   11.65
   3   0   4   58.43    2.56
   3   0   4   60.65    1.41
  -3   0  -4   60.18    2.58
   3   0   5  151.99    4.55
   3   0   5  152.58    2.75
  -3   0  -5  157.14    4.63
   3   0   6    0.84    1.66
  -3   0  -6   -0.28    1.67
   3   0   7   63.74    3.76
  -3   0  -7   69.09    3.67
   3   0   8  109.79    5.70
  -3   0  -8  116.91    5.94
   3   0   9   44.83    3.91
  -3   0  -9   47.32    3.53
   3   0  10   38.65    3.69
  -3   0 -10   36.20    3.61
   3   0  11    9.73    2.51
  -3   0 -11    8.95    2.37
   3   0  12    1.81    2.52
  -3   0 -12    3.35    2.15
   3   1 -10   10.06    2.42
  -3  -1  10   13.19    2.72
   3   1  -9   72.14   15.87
  -3  -1   9   78.54    4.38
   3   1  -8  114.62   10.56
   3   1  -8  104.62   19.50
  -3  -1   8  116.17    5.13
   3   1  -7   18.57    3.55
   3   1  -7   21.01    4.47
  -3  -1   7   16.71    2.23
   3   1  -6   78.50    6.25
  -3  -1   6   75.81    3.40
   3   1  -5    6.38    0.87
   3   1  -5    5.21    1.60
  -3  -1   5    6.21    1.88
   3   1  -4  329.24    8.78
   3   1  -4  333.72   10.21
  -3  -1   4  303.74    8.82
   3   1  -3  254.49    4.66
   3   1  -3  253.11    6.33
  -3  -1   3  240.10    5.50
   3   1  -2 1417.37   22.55
   3   1  -2 1372.36   24.08
  -3  -1   2 1366.03   23.15
   3   1  -1    4.69    0.60
   3   1  -1    9.30    1.52
  -3  -1   1    6.86    1.43
   3   1   0  615.74    6.83
   3   1   0  622.30    8.84
  -3  -1   0  602.43    8.55
   3   1   1  102.26    2.38
   3   1   1  103.68    2.98
  -3  -1  -1   94.90    3.19
   3   1   2  833.31    9.95
   3   1   2  835.27   10.01
  -3  -1  -2  799.31   10.42
   3   1   3  935.72   11.51
   3   1   3  939.06   10.90
  -3  -1  -3  922.59   11.71
   3   1   4   91.41    2.87
   3   1   4   91.29    2.27
  -3  -1  -4   92.46    3.13
   3   1   5    2.16    1.03
   3   1   5    0.04    0.59
  -3  -1  -5   -0.56    1.39
   3   1   6  457.87   12.27
   3   1   6  466.40   11.13
  -3  -1  -6  477.71   12.53
   3   1   7  415.22   12.97
   3   1   7  418.78   11.74
  -3  -1  -7  443.16   13.54
   3   1   8  131.10    5.46
   3   1   8  132.73    4.29
  -3  -1  -8  139.92    5.85
   3   1   9   67.44    4.55
  -3  -1  -9   65.88    4.19
   3   1  10    4.16    2.18
  -3  -1 -10    5.29    1.98
   3   1  11   18.13    3.24
  -3  -1 -11   14.71    2.88
   3   1  12   21.54    3.50
  -3  -1 -12   20.46    3.17
  -3  -2  10   27.11    3.34
   3   2  -9   26.69    7.20
  -3  -2   9   40.42    3.38
   3   2  -8   34.83    8.44
  -3  -2   8   35.80    3.41
  -3  -2   8   33.52    2.55
   3   2  -7    7.20    1.80
  -3  -2   7    6.82    2.25
  -3  -2   7    8.41    1.50
   3   2  -6   -1.23    1.83
  -3  -2   6    0.33    1.60
  -3  -2   6    1.86    1.48
   3   2  -5   52.12   11.27
  -3  -2   5   52.34    3.18
  -3  -2   5   56.43    2.20
   3   2  -4  351.59   10.64
  -3  -2   4  361.43   10.43
  -3  -2   4  373.13    9.59
   3   2  -3  240.89    5.13
  -3  -2   3  255.52    7.47
  -3  -2   3  261.54    6.39
   3   2  -2  496.14   10.84
  -3  -2   2  510.92   10.06
  -3  -2   2  506.78    8.30
   3   2  -1  893.36   11.98
  -3  -2   1  931.03   12.06
   3   2   0 1109.95   13.71
  -3  -2   0 1117.20   13.80
   3   2   1  859.42    9.41
   3   2   1  865.58   10.91
  -3  -2  -1  845.82   10.95
   3   2   2  409.52    5.45
   3   2   2  404.26    5.99
   3   2   3  202.32    4.51
   3   2   3  188.14    4.41
  -3  -2  -3  194.28    4.88
   3   2   4    2.67    1.14
   3   2   4    4.74    1.33
  -3  -2  -4    4.52    1.68
   3   2   5  421.75    8.68
   3   2   5  435.28    8.18
  -3  -2  -5  440.93    8.89
   3   2   6  367.53   10.14
   3   2   6  377.60    9.56
  -3  -2  -6  369.89    9.82
   3   2   7  593.71   17.56
   3   2   7  603.03   16.84
  -3  -2  -7  586.72   16.89
   3   2   8   16.66    2.37
   3   2   8   12.58    1.46
  -3  -2  -8   15.89    2.42
   3   2   9    4.42    1.98
   3   2   9    3.70    0.95
  -3  -2  -9    3.87    1.60
   3   2  10    7.32    1.92
   3   2  10   11.18    1.59
  -3  -2 -10   12.43    1.86
   3   2  11   57.97    5.00
  -3  -2 -11   48.07    3.17
   3   2  12   28.90    3.68
  -3  -2 -12   35.92    3.34
   3   3  -9    4.31    1.23
  -3  -3   9    2.43    1.77
   3   3  -8   10.32    2.21
  -3  -3   8    2.81    2.50
   3   3  -7   56.75   10.73
  -3  -3   7   59.05    3.99
  -3  -3   7   62.17    3.04
   3   3  -6  186.72    9.19
  -3  -3   6  190.99    8.55
  -3  -3   6  203.56    8.10
   3   3  -5  107.18    4.93
  -3  -3   5   98.61    3.77
  -3  -3   5   97.93    2.57
   3   3  -4  196.35    5.59
  -3  -3   4  197.08    4.97
  -3  -3   4  208.12    3.27
   3   3  -3   67.36    3.25
  -3  -3   3   67.92    3.10
  -3  -3   3   68.70    1.73
   3   3  -2   46.32    2.96
  -3  -3   2   42.76    2.51
  -3  -3   2   46.20    1.34
   3   3  -1  255.65    5.80
  -3  -3   1  255.37    5.55
  -3  -3   1  258.08    3.93
   3   3   0 1193.94   20.55
  -3  -3   0 1203.73   20.56
  -3  -3   0 1187.58   19.00
   3   3   1  439.23    6.89
  -3  -3  -1  454.70    6.87
  -3  -3  -1  435.90    5.52
   3   3   2   26.76    1.98
  -3  -3  -2   24.86    1.89
  -3  -3  -2   30.86    2.66
   3   3   3   67.20    2.25
   3   3   3   66.61    2.91
  -3  -3  -3   62.81    2.58
   3   3   4  582.55   10.84
   3   3   4  585.05   10.94
   3   3   5 1348.15   23.17
   3   3   5 1347.03   22.77
  -3  -3  -5 1313.82   22.14
   3   3   6  690.51   17.31
   3   3   6  668.50   16.31
  -3  -3  -6  696.49   16.95
   3   3   7   74.09    3.75
   3   3   7   67.81    2.54
  -3  -3  -7   73.27    3.09
   3   3   8   93.92    4.41
   3   3   8  101.11    3.42
  -3  -3  -8  104.72    3.82
   3   3   9   51.06    3.54
   3   3   9   44.61    2.36
  -3  -3  -9   47.02    3.02
   3   3  10   96.05    5.07
   3   3  10   98.52    4.22
  -3  -3 -10   94.13    4.02
   3   3  11   90.64    4.98
   3   3  11   92.23    4.06
   3   3  12   43.49    4.33
   3   4  -8   13.70    2.75
  -3  -4   8   15.63    2.61
   3   4  -7   37.63    3.69
  -3  -4   7   34.16    3.51
   3   4  -6  187.78    6.69
  -3  -4   6  179.74    6.73
  -3  -4   6  191.42    5.51
   3   4  -5   19.96    2.31
  -3  -4   5   19.93    2.52
  -3  -4   5   20.86    1.63
   3   4  -4   -0.17    2.13
  -3  -4   4    0.61    1.83
  -3  -4   4    1.16    0.75
   3   4  -3   37.30    3.13
  -3  -4   3   36.97    2.57
  -3  -4   3   39.14    1.58
   3   4  -2  717.95   18.84
  -3  -4   2  699.67   18.24
  -3  -4   2  736.62   18.01
   3   4  -1  422.49   11.35
  -3  -4   1  423.95   11.16
  -3  -4   1  439.73   10.49
   3   4   0  568.30   11.13
  -3  -4   0  570.97   10.88
  -3  -4   0  584.72   10.28
   3   4   1   57.33    3.26
  -3  -4  -1   57.12    2.41
  -3  -4  -1   53.29    2.09
   3   4   2  248.69    5.73
  -3  -4  -2  248.63    4.99
  -3  -4  -2  252.63    4.91
   3   4   3 1214.68   21.08
  -3  -4  -3 1264.40   21.22
  -3  -4  -3 1209.45   20.67
   3   4   4  729.18   13.58
  -3  -4  -4  690.41   12.37
  -3  -4  -4  732.29   13.88
   3   4   5  817.94   19.81
  -3  -4  -5  801.31   19.90
   3   4   6  460.44   12.84
   3   4   6  473.89   12.93
  -3  -4  -6  454.20   11.97
   3   4   7   -2.21    1.89
   3   4   7   -1.11    1.47
  -3  -4  -7   -0.06    1.13
   3   4   8   -0.00    1.96
   3   4   8    1.21    1.54
  -3  -4  -8    0.10    1.15
   3   4   9  276.05   11.62
   3   4   9  270.93   10.88
  -3  -4  -9  261.36   10.09
   3   4  10  202.90    7.46
   3   4  10  194.25    6.47
  -3  -4 -10  182.43    5.45
   3   4  11   20.62    3.44
   3   4  11   19.08    2.61
   3   4  12    4.22    2.15
  -3  -5   8   42.78    3.98
   3   5  -7   50.29    3.82
  -3  -5   7   47.04    4.02
   3   5  -6   58.96    4.26
  -3  -5   6   51.33    4.23
   3   5  -5    5.39    1.66
  -3  -5   5    2.61    1.83
  -3  -5   5    4.87    1.22
   3   5  -4  127.10    6.16
  -3  -5   4  116.72    5.94
  -3  -5   4  133.99    5.68
   3   5  -3  171.62    6.62
  -3  -5   3  167.28    6.35
  -3  -5   3  178.03    5.62
   3   5  -2  509.59   15.24
  -3  -5   2  514.79   15.30
  -3  -5   2  548.02   15.34
   3   5  -1  217.34    5.18
  -3  -5   1  204.10    4.53
  -3  -5   1  214.84    3.67
   3   5   0  171.57    5.34
  -3  -5   0  175.27    4.83
  -3  -5   0  178.57    4.34
   3   5   1   22.98    2.39
  -3  -5  -1   21.62    1.79
  -3  -5  -1   23.51    1.87
   3   5   2  702.66   17.59
  -3  -5  -2  739.63   17.62
  -3  -5  -2  713.38   17.27
   3   5   3 1052.76   25.27
  -3  -5  -3 1088.85   25.18
  -3  -5  -3 1007.21   24.74
   3   5   4  273.48    8.16
  -3  -5  -4  301.54    7.78
  -3  -5  -4  291.94   12.90
   3   5   5  339.15   10.03
  -3  -5  -5  359.05    9.45
  -3  -5  -5  345.64   10.64
  -3  -5  -6    2.16    0.87
  -3  -5  -6    0.46    1.17
   3   5   7  220.44    7.58
  -3  -5  -7  224.91    8.40
   3   5   8  221.57    7.63
  -3  -5  -8  195.18    6.07
  -3  -5  -8  221.24    8.27
   3   5   9  349.46   13.89
  -3  -5  -9  350.07   15.45
   3   5  10   43.92    2.90
  -3  -5 -10   42.14    8.30
   3   5  11    2.10    1.42
  -3  -5 -11   -1.13    2.11
   3   5  12    1.41    1.32
  -3  -5 -12    1.93    1.39
  -3  -6   7   68.45    5.66
   3   6  -6   -1.31    1.58
  -3  -6   6    1.22    1.87
   3   6  -5   57.28    3.89
  -3  -6   5   52.67    4.17
   3   6  -4  298.81    8.51
  -3  -6   4  295.25    8.89
  -3  -6   4  312.53    7.86
   3   6  -3  249.88   10.32
  -3  -6   3  237.14   10.03
  -3  -6   3  257.48    9.92
   3   6  -2   49.66    3.69
  -3  -6   2   46.51    2.82
  -3  -6   2   51.61    2.42
   3   6  -1   49.78    3.51
  -3  -6   1   45.12    2.91
   3   6   0   21.93    2.65
  -3  -6   0   21.95    1.87
  -3  -6   0   22.66    2.11
   3   6   1  121.45    4.69
  -3  -6  -1  120.25    3.43
  -3  -6  -1  129.89    4.31
   3   6   2  720.14   19.34
  -3  -6  -2  748.20   18.95
  -3  -6  -2  729.73   19.09
   3   6   3  651.01   17.61
  -3  -6  -3  693.71   17.49
  -3  -6  -3  653.81   17.25
   3   6   4   75.11    4.04
  -3  -6  -4   75.10    2.21
  -3  -6  -4   74.28    3.23
   3   6   5    2.29    2.03
  -3  -6  -5    3.77    1.01
  -3  -6  -5    1.36    1.27
   3   6   6   60.93    3.84
  -3  -6  -6   56.12    1.87
  -3  -6  -6   60.45   10.60
   3   6   7  172.20    6.69
  -3  -6  -7  181.89   12.87
   3   6   8  288.65   11.89
  -3  -6  -8  304.89   12.64
   3   6   9  154.30    5.77
  -3  -6  -9  153.12   13.84
   3   6  10   22.88    2.84
  -3  -6 -10   25.39    3.29
   3   6  11   36.31    3.20
  -3  -6 -11   38.23   10.11
   3   6  12   30.93    3.39
  -3  -6 -12   23.79    6.60
  -3  -7   6   26.42    3.47
   3   7  -5   56.41    4.02
  -3  -7   5   54.79    3.96
   3   7  -4  113.17    5.52
  -3  -7   4   99.02    5.17
   3   7  -3   68.49    3.79
  -3  -7   3   70.09    4.10
  -3  -7   3   71.48    3.24
   3   7  -2   -0.54    1.60
  -3  -7   2    1.29    1.39
  -3  -7   2    0.59    1.04
   3   7  -1   15.24    3.13
  -3  -7   1   14.28    2.25
  -3  -7   1   17.10    2.13
   3   7   0  318.56   10.16
  -3  -7   0  314.67    9.78
  -3  -7   0  342.95   10.35
   3   7   1  529.19   15.72
  -3  -7  -1  547.52   15.51
  -3  -7  -1  567.31   16.47
   3   7   2  598.30   17.38
  -3  -7  -2  614.26   16.86
  -3  -7  -2  612.75   17.72
   3   7   3  151.92    5.30
  -3  -7  -3  161.80    5.32
  -3  -7  -3  159.75    6.71
   3   7   4    1.89    2.13
  -3  -7  -4    1.07    0.76
  -3  -7  -4    0.28    1.87
   3   7   5   97.96    4.81
  -3  -7  -5  106.49    2.50
  -3  -7  -5   99.35    4.37
   3   7   6  119.59    4.78
  -3  -7  -6  120.71    6.75
   3   7   7  101.41    5.90
  -3  -7  -7   98.37    6.14
   3   7   8  130.23    6.85
  -3  -7  -8  141.26    8.10
   3   7   9    7.45    2.74
  -3  -7  -9    5.35    1.38
   3   7  10    6.13    1.73
  -3  -7 -10    7.22    1.51
   3   7  11   22.45    3.21
  -3  -7 -11   28.79    8.70
   3   7  12   23.93    3.38
  -3  -8   5   87.18    4.97
   3   8  -4   55.36    3.88
  -3  -8   4   55.40    4.07
   3   8  -3   13.50    2.16
  -3  -8   3   13.81    2.47
   3   8  -2   22.89    3.41
  -3  -8   2   26.87    3.32
  -3  -8   2   29.33    2.57
   3   8  -1   85.05    4.37
  -3  -8   1   94.92    4.52
  -3  -8   1   92.18    4.26
   3   8   0   77.68    4.97
  -3  -8   0   73.48    4.25
  -3  -8   0   89.68    5.57
   3   8   1  146.62    7.32
  -3  -8  -1  154.46    6.93
  -3  -8  -1  151.21    7.36
   3   8   2   -0.90    2.12
  -3  -8  -2    2.81    1.57
  -3  -8  -2    2.29    2.11
   3   8   3    0.99    1.90
  -3  -8  -3   -0.51    0.95
  -3  -8  -3   -0.97    2.12
   3   8   4   25.44    3.03
  -3  -8  -4   22.91    1.66
  -3  -8  -4   23.60    3.39
   3   8   5  280.77   11.60
  -3  -8  -5  307.18   12.86
   3   8   6  123.63    6.51
  -3  -8  -6  124.79    6.97
   3   8   7   56.04    4.05
  -3  -8  -7   56.94    4.29
   3   8   8    6.41    2.58
  -3  -8  -8    6.73    2.31
   3   8   9   26.65    3.10
  -3  -8  -9   26.24    6.34
   3   8  10   48.07    3.64
  -3  -8 -10   41.76    6.92
   3   8  11   40.56    4.01
  -3  -8 -11   37.16    8.99
  -3  -9   4    0.59    1.70
   3   9  -3    4.99    2.66
  -3  -9   3    7.23    2.75
   3   9  -2   84.34    4.91
  -3  -9   2   83.59    4.68
   3   9  -1  147.60    5.68
  -3  -9   1  152.31    5.41
  -3  -9   1  166.61    6.45
   3   9   0  102.25    4.94
  -3  -9   0   89.78    4.36
  -3  -9   0  104.81    5.20
   3   9   1   22.46    3.04
  -3  -9  -1   16.95    2.14
  -3  -9  -1   16.31    2.37
   3   9   2   19.34    3.34
  -3  -9  -2   18.65    1.89
  -3  -9  -2   17.50    2.61
   3   9   3   16.25    2.79
  -3  -9  -3   15.93    1.69
  -3  -9  -3   11.08    2.76
   3   9   4  108.69    5.35
  -3  -9  -4  100.80    5.20
   3   9   5  121.67    5.47
  -3  -9  -5  130.95    6.39
   3   9   6   19.47    2.85
  -3  -9  -6   19.84    3.02
   3   9   7    1.94    2.02
  -3  -9  -7    3.46    3.41
   3   9   8   18.90    3.17
  -3  -9  -8   21.58    3.95
   3   9   9   22.75    3.52
  -3  -9  -9   14.76    3.24
   3   9  10   21.69    2.98
  -3  -9 -10   24.41    7.55
   3   9  11    1.61    1.91
  -3  -9 -11    3.23    1.60
  -3 -10   2   65.91    4.24
   3  10  -1   39.98    4.28
  -3 -10   1   39.86    3.56
   3  10   0    3.25    2.51
  -3 -10   0    3.83    2.01
  -3 -10   0    2.86    2.27
   3  10   1    8.04    2.32
  -3 -10  -1    8.41    2.02
  -3 -10  -1    8.72    2.95
   3  10   2   21.72    3.40
  -3 -10  -2   17.68    2.18
  -3 -10  -2   19.12    3.33
   3  10   3   82.38    4.75
  -3 -10  -3   85.96    5.56
   3  10   4   67.88    4.59
  -3 -10  -4   61.79    5.07
   3  10   5   25.37    3.58
  -3 -10  -5   29.24    4.58
   3  10   6    1.47    2.10
  -3 -10  -6    1.76    2.25
   3  10   7   56.82    4.92
  -3 -10  -7   60.69    5.35
   3  10   8   36.52    4.37
  -3 -10  -8   43.20    5.40
   3  10   9   15.86    3.40
  -3 -10  -9   21.25    4.61
   3  11   1   58.44    4.30
   3  11   2   34.79    3.94
  -3 -11  -2   33.23    3.96
   3  11   3   15.98    3.32
  -3 -11  -3   18.64    3.50
   3  11   4    0.98    2.06
  -3 -11  -4    6.40    3.40
   3  11   5    6.14    2.52
  -3 -11  -5   10.36    3.29
   3  11   6   43.11    4.56
  -3 -11  -6   43.05    5.31
   3  11   7   40.79    3.71
  -3 -11  -7   47.80    5.20
   3  11   8   27.64    3.40
  -3 -11  -8   41.80    5.42
   4  -9  -4    3.43    3.10
  -4   9   4   -0.41    1.71
   4  -9  -3   21.26    4.22
  -4   9   3   24.72    3.42
   4  -9  -2   89.75    7.09
   4  -9  -1   75.00    5.89
   4  -9   0   29.87    4.70
   4  -8  -6    7.48    2.94
  -4   8   6    5.85    3.27
   4  -8  -5    3.84    3.55
  -4   8   5    0.30    1.89
   4  -8  -4   35.68    4.49
  -4   8   4   38.17    3.42
   4  -8  -3  112.91    6.72
  -4   8   3  115.20    5.37
   4  -8  -2   64.70    6.10
  -4   8   2   73.14    4.34
   4  -8  -1   20.45    4.54
  -4   8   1   17.31    2.51
   4  -8   0    0.45    2.85
  -4   8   0    1.42    1.45
   4  -8   1    4.05    3.01
  -4   8  -1    5.48    1.89
   4  -8   2   22.78    4.62
  -4   8  -2   20.27    2.93
   4  -8   3   41.51    5.79
  -4   8  -3   41.44    4.58
   4  -7  -7   10.42    3.20
  -4   7   7    9.34    3.22
   4  -7  -6    9.79    3.71
  -4   7   6    6.76    2.49
   4  -7  -5   13.52    3.34
  -4   7   5   10.67    2.32
   4  -7  -4   38.37    4.79
  -4   7   4   31.16    3.80
   4  -7  -3   43.15    4.59
  -4   7   3   43.00    3.58
   4  -7  -2    3.40    2.87
  -4   7   2    5.64    2.24
   4  -7  -1    3.00    2.74
  -4   7   1   -0.47    1.19
  -4   7   1   -1.61    1.11
   4  -7   0   63.36    5.84
  -4   7   0   64.46    4.38
  -4   7   0   66.60    3.83
   4  -7   1  114.87    6.62
  -4   7  -1  113.79    5.37
   4  -7   2   67.73    5.40
  -4   7  -2   72.20    4.43
   4  -7   3   38.79    5.38
  -4   7  -3   41.47    3.86
   4  -7   4    3.81    2.71
  -4   7  -4    7.42    2.53
   4  -7   5   14.21    3.99
  -4   7  -5    2.82    2.12
   4  -6  -8    5.38    3.32
  -4   6   8    2.86    2.44
   4  -6  -7   22.34    3.27
  -4   6   7   21.01    3.50
   4  -6  -6   33.51    4.40
  -4   6   6   37.24    3.88
   4  -6  -5   38.26    4.21
  -4   6   5   41.41    3.88
   4  -6  -4  273.73    9.60
  -4   6   4  278.25    7.17
   4  -6  -3  193.88    8.33
  -4   6   3  202.51    6.84
   4  -6  -2    5.77    3.72
  -4   6   2    3.43    1.70
  -4   6   2    4.10    1.48
   4  -6  -1   77.70    5.64
  -4   6   1   87.60    4.84
  -4   6   1   90.96    5.01
   4  -6   0  194.47    9.97
  -4   6   0  198.99    8.98
  -4   6   0  209.15    8.93
   4  -6   1   71.27    6.26
  -4   6  -1   64.41    4.15
  -4   6  -1   62.96    2.64
   4  -6   2   -0.62    2.56
  -4   6  -2    0.59    1.64
   4  -6   3   -1.54    2.39
  -4   6  -3    0.48    1.71
   4  -6   4   20.93    3.83
  -4   6  -4   22.22    3.60
   4  -6   5   51.64    5.12
  -4   6  -5   56.04    4.55
   4  -6   6   26.09    4.49
  -4   6  -6   25.12    4.03
   4  -6   7   10.14    3.95
  -4   6  -7    4.70    3.55
   4  -5  -9    3.01    2.65
  -4   5   9   -0.83    2.17
   4  -5  -8    1.43    3.59
  -4   5   8    1.00    2.50
   4  -5  -7   28.30    3.41
  -4   5   7   29.91    4.17
   4  -5  -6   97.70    5.19
  -4   5   6   99.39    5.44
   4  -5  -5  135.91    6.12
  -4   5   5  143.61    6.10
   4  -5  -4   -0.57    1.98
  -4   5   4   -0.95    1.77
   4  -5  -3   69.28    4.36
  -4   5   3   64.01    2.70
  -4   5   3   68.28    3.48
   4  -5  -2  221.47   10.58
  -4   5   2  216.52    8.96
  -4   5   2  232.89    9.92
   4  -5  -1  314.10   10.89
  -4   5   1  338.35   10.25
  -4   5   1  349.05   10.48
   4  -5   0  136.08    6.96
  -4   5   0  129.50    5.44
  -4   5   0  127.67    4.86
   4  -5   1   81.51    4.59
  -4   5  -1   82.15    3.80
  -4   5  -1   88.66    4.22
   4  -5   2    9.20    2.98
  -4   5  -2    5.47    2.18
  -4   5  -2    7.25    1.19
   4  -5   3   43.85    4.50
  -4   5  -3   49.20    3.51
   4  -5   4  102.77    5.99
  -4   5  -4  106.04    5.12
   4  -5   5  133.91    6.27
  -4   5  -5  142.32    6.24
   4  -5   6   52.19    4.78
  -4   5  -6   53.35    4.16
   4  -5   7   22.12    3.73
  -4   5  -7   19.65    3.94
   4  -5   8    2.21    2.35
  -4   5  -8    1.71    2.09
   4  -4  -9    0.11    1.57
  -4   4   9    2.50    2.34
   4  -4  -8   33.05    3.64
  -4   4   8   37.35    4.11
   4  -4  -7   85.90    5.34
  -4   4   7   88.89    5.72
   4  -4  -6  120.40    5.95
  -4   4   6  114.54    5.83
   4  -4  -5    0.50    2.00
  -4   4   5    1.55    0.80
  -4   4   5   -0.63    1.82
   4  -4  -4  131.89    7.11
  -4   4   4  118.67    5.23
  -4   4   4  132.18    6.58
   4  -4  -3  148.85    6.99
  -4   4   3  137.12    4.92
  -4   4   3  143.28    5.98
   4  -4  -2  256.88    9.55
  -4   4   2  252.05    8.13
  -4   4   2  248.69    8.24
   4  -4  -1  265.68    9.62
  -4   4   1  283.77    8.98
  -4   4   1  284.44    9.12
   4  -4   0   65.21    4.69
  -4   4   0   63.37    3.29
  -4   4   0   71.00    2.93
   4  -4   1   39.01    3.95
  -4   4  -1   40.81    3.04
  -4   4  -1   42.72    2.38
   4  -4   2  226.16    8.70
  -4   4  -2  227.41    7.90
  -4   4  -2  244.93    7.21
   4  -4   3  346.85   11.47
  -4   4  -3  373.41   11.62
   4  -4   4  317.91   13.51
  -4   4  -4  331.89   13.42
   4  -4   5   49.94    4.27
  -4   4  -5   56.93    4.01
   4  -4   6    4.93    2.19
  -4   4  -6    5.28    2.93
   4  -4   7   15.16    3.08
  -4   4  -7   15.88    3.07
   4  -4   8   60.62    5.29
  -4   4  -8   62.47    4.90
   4  -4   9   34.61    4.42
  -4   4  -9   34.11    4.47
  -4   3  10   34.47    4.54
   4  -3  -9   49.88    3.76
  -4   3   9   51.52    4.24
   4  -3  -8  124.74    5.15
  -4   3   8  129.19    6.64
   4  -3  -7   40.83    3.07
  -4   3   7   37.37    2.47
  -4   3   7   43.54    4.28
   4  -3  -6   24.83    2.85
  -4   3   6   24.05    1.97
  -4   3   6   29.70    3.72
   4  -3  -5    0.01    1.79
  -4   3   5   -1.14    0.96
  -4   3   5    1.67    1.92
   4  -3  -4  268.07    9.02
  -4   3   4  250.83    7.77
  -4   3   4  281.05    9.61
   4  -3  -3  378.41   12.15
  -4   3   3  374.90   11.32
  -4   3   3  382.05   12.17
   4  -3  -2  133.91    5.35
  -4   3   2  126.53    3.64
  -4   3   2  126.30    4.29
   4  -3  -1  238.32    8.07
  -4   3   1  238.70    7.48
  -4   3   1  235.30    7.29
   4  -3   0   49.58    3.97
  -4   3   0   45.56    2.72
  -4   3   0   46.49    2.67
   4  -3   1  277.46    9.24
  -4   3  -1  282.79    8.95
  -4   3  -1  279.28    7.83
   4  -3   2  468.80   13.82
  -4   3  -2  465.00   13.03
  -4   3  -2  473.04   12.08
   4  -3   3 1043.22   29.93
  -4   3  -3 1087.56   30.49
   4  -3   4   23.95    3.15
  -4   3  -4   24.31    2.82
   4  -3   5  142.44    6.41
  -4   3  -5  148.02    6.25
   4  -3   6   72.35    5.20
  -4   3  -6   68.11    4.49
   4  -3   7  146.21    6.36
  -4   3  -7  152.67    6.26
   4  -3   8   83.43    5.34
  -4   3  -8   79.73    5.17
   4  -3   9   63.86    5.20
  -4   3  -9   62.61    5.08
   4  -3  10   25.86    3.56
  -4   3 -10   24.90    3.74
  -4   2  10   12.39    3.13
   4  -2  -9    5.42    1.74
  -4   2   9    3.34    2.13
   4  -2  -8   14.24    1.93
  -4   2   8   10.93    1.67
  -4   2   8   15.92    3.45
   4  -2  -7   10.37    1.69
  -4   2   7    8.76    1.73
  -4   2   7    9.91    2.86
   4  -2  -6   23.60    2.36
  -4   2   6   23.11    2.04
  -4   2   6   23.53    2.90
   4  -2  -5  392.88   11.37
  -4   2   5  397.42   12.58
   4  -2  -4  953.71   26.56
  -4   2   4  937.30   27.01
   4  -2  -3  497.13   13.66
  -4   2   3  443.22   12.03
  -4   2   3  483.85   13.75
   4  -2  -2   50.32    3.05
  -4   2   2   49.55    2.64
  -4   2   2   52.62    3.19
   4  -2  -1   16.40    2.07
  -4   2   1   12.23    2.15
  -4   2   1   15.88    1.83
   4  -2   0  790.13   19.59
  -4   2   0  784.07   19.41
  -4   2   0  772.11   18.57
   4  -2   1 1822.07   42.33
  -4   2  -1 1919.07   44.40
  -4   2  -1 1786.13   40.65
   4  -2   2 1129.40   27.38
  -4   2  -2 1166.86   27.88
   4  -2   3  269.47    8.71
   4  -2   3  267.98    7.06
  -4   2  -3  276.33    8.85
   4  -2   4    1.37    2.19
  -4   2  -4    0.25    2.06
   4  -2   5    1.64    2.22
  -4   2  -5    3.88    2.89
   4  -2   6   32.76    2.94
  -4   2  -6   36.57    3.26
   4  -2   7  107.47    6.33
  -4   2  -7  102.59    5.74
   4  -2   8  119.93    6.15
  -4   2  -8  106.38    4.76
   4  -2   9    7.22    2.83
  -4   2  -9   14.22    3.54
   4  -2  10   12.68    3.64
  -4   2 -10    7.76    2.71
   4  -1 -10   42.64    4.68
  -4   1   9   37.69    2.99
  -4   1   9   40.26    4.02
   4  -1  -8   -0.53    0.92
  -4   1   8    2.19    1.34
  -4   1   8    4.41    3.01
   4  -1  -7   15.06    2.37
  -4   1   7   11.92    1.97
  -4   1   7   15.71    3.00
   4  -1  -6  256.55   10.10
  -4   1   6  226.01    9.13
  -4   1   6  242.45   10.78
   4  -1  -5  253.38    7.77
  -4   1   5  230.19    7.43
  -4   1   5  236.14    8.58
   4  -1  -4  236.34    7.56
  -4   1   4  211.31    4.50
  -4   1   4  226.56    8.32
   4  -1  -3  207.69    4.01
  -4   1   3  193.53    4.35
  -4   1   3  189.34    5.27
   4  -1  -2   54.83    2.84
  -4   1   2   51.07    2.79
  -4   1   2   56.77    3.52
   4  -1  -1  665.83   16.21
  -4   1   1  653.05   16.22
  -4   1   1  634.77   15.87
   4  -1   0  552.67   10.76
  -4   1   0  529.05   10.76
  -4   1   0  537.84   10.53
   4  -1   1  420.79    8.82
   4  -1   1  441.99    8.73
  -4   1  -1  435.42    9.28
   4  -1   2  755.26   14.26
   4  -1   2  753.57   13.84
  -4   1  -2  768.79   14.61
   4  -1   3   14.38    2.01
   4  -1   3   14.49    0.98
  -4   1  -3   17.33    3.13
   4  -1   4  131.53    4.79
  -4   1  -4  134.06    4.79
   4  -1   5 1001.46   26.01
  -4   1  -5 1038.77   26.71
   4  -1   6  683.71   19.80
  -4   1  -6  696.25   19.90
   4  -1   7   95.77    5.39
  -4   1  -7   96.58    5.27
   4  -1   8   10.85    2.50
  -4   1  -8   13.46    2.51
   4  -1   9   14.32    2.79
  -4   1  -9   12.51    2.60
   4  -1  10   10.92    3.17
  -4   1 -10   11.38    2.43
   4  -1  11   21.42    3.32
  -4   1 -11   25.01    3.83
   4   0 -10   20.44    7.00
   4   0  -9    1.80    1.08
  -4   0   9    0.71    1.51
   4   0  -8   53.13   12.60
  -4   0   8   52.36    3.74
   4   0  -7  131.85   11.02
   4   0  -7  146.78    6.98
  -4   0   7  123.34    4.70
   4   0  -6  259.58   11.27
  -4   0   6  241.24   10.15
   4   0  -5  280.60    9.08
  -4   0   5  255.28    8.36
  -4   0   5  274.39    9.90
   4   0  -4   43.75    1.90
  -4   0   4   43.61    2.93
  -4   0   4   44.76    3.41
   4   0  -3   -0.13    0.74
  -4   0   3    0.47    1.50
  -4   0   3    1.02    1.88
   4   0  -2   49.84    2.08
  -4   0   2   46.86    2.68
   4   0  -1  761.09   13.20
   4   0  -1  740.60   14.24
  -4   0   1  717.72   13.66
   4   0   0  506.68    9.33
   4   0   0  496.39   10.08
  -4   0   0  479.47    9.84
   4   0   1  279.45    5.70
   4   0   1  274.15    5.83
  -4   0  -1  277.04    6.19
   4   0   2  269.55    5.59
   4   0   2  274.65    5.30
  -4   0  -2  289.96    6.57
   4   0   3  548.70   10.78
   4   0   3  533.73    9.43
  -4   0  -3  574.06   11.55
   4   0   4  516.34   13.30
   4   0   4  533.41   12.42
  -4   0  -4  524.81   13.56
   4   0   5  509.01   14.04
   4   0   5  506.25   12.28
  -4   0  -5  519.26   14.34
   4   0   6  339.30   11.21
  -4   0  -6  361.91   11.62
   4   0   7   -2.30    2.01
  -4   0  -7    0.98    2.18
   4   0   8   52.67    3.43
  -4   0  -8   54.45    3.78
   4   0   9   51.83    3.77
  -4   0  -9   55.28    3.85
   4   0  10   63.39    4.67
  -4   0 -10   65.41    4.94
   4   0  11   20.38    3.83
  -4   0 -11   23.02    3.33
   4   0  12    3.68    3.10
  -4   0 -12   -1.51    1.92
   4   1  -9   22.43    5.22
  -4  -1   9   22.22    2.95
   4   1  -8  102.53   13.64
  -4  -1   8  101.68    5.57
  -4  -1   7  110.44    4.74
   4   1  -6   11.98    2.08
   4   1  -6   19.26    4.46
  -4  -1   6   14.40    2.20
   4   1  -5   14.74    2.35
   4   1  -5   22.14    2.95
  -4  -1   5   17.70    2.40
   4   1  -4   43.65    3.78
   4   1  -4   52.41    9.02
  -4  -1   4   43.17    2.83
   4   1  -3   44.93    1.49
   4   1  -3   42.91    5.46
  -4  -1   3   41.20    2.74
   4   1  -2 1331.50   29.85
   4   1  -2 1329.48   32.72
  -4  -1   2 1282.37   30.24
   4   1  -1 4212.58   60.46
   4   1  -1 4108.56   70.03
  -4  -1   1 4047.89   65.20
   4   1   0  457.90    7.89
   4   1   0  451.92    9.52
  -4  -1   0  470.35    9.71
   4   1   1    2.40    0.60
   4   1   1    2.91    1.21
  -4  -1  -1    3.54    1.79
   4   1   2  160.58    3.59
   4   1   2  160.53    3.99
  -4  -1  -2  158.74    4.69
   4   1   3   34.54    2.00
   4   1   3   35.88    1.88
  -4  -1  -3   35.51    2.59
   4   1   4  168.72    4.66
   4   1   4  162.68    3.60
  -4  -1  -4  167.01    4.94
   4   1   5  238.14    5.07
   4   1   5  239.81    3.30
  -4  -1  -5  251.15    7.73
   4   1   6   38.36    2.56
   4   1   6   39.87    1.50
  -4  -1  -6   39.76    2.80
   4   1   7  136.06    4.98
   4   1   7  129.91    2.99
  -4  -1  -7  135.65    4.76
   4   1   8  157.85    7.39
  -4  -1  -8  170.98    8.12
   4   1   9   20.52    2.78
  -4  -1  -9   19.06    2.90
   4   1  10   29.49    3.13
  -4  -1 -10   33.47    3.54
   4   1  11   -0.94    2.08
  -4  -1 -11    0.76    1.80
   4   1  12   -0.45    1.64
  -4  -1 -12   -0.41    1.79
   4   2  -9   39.35   11.64
  -4  -2   9   53.15    4.50
   4   2  -8   61.81   15.23
  -4  -2   8   69.41    4.37
   4   2  -7   69.65   13.30
  -4  -2   7   84.82    4.91
   4   2  -6   25.95    5.55
  -4  -2   6   23.71    2.49
   4   2  -5    2.23    1.24
  -4  -2   5    1.36    1.66
   4   2  -4  140.33    5.45
  -4  -2   4  129.76    4.48
   4   2  -3  438.64   13.93
  -4  -2   3  455.17   12.88
   4   2  -2  237.00    8.11
  -4  -2   2  260.78    7.75
   4   2  -1  136.73    4.48
  -4  -2   1  141.73    4.26
   4   2   0  150.62    4.47
  -4  -2   0  152.82    4.39
   4   2   1  195.09    3.29
   4   2   1  196.12    4.99
  -4  -2  -1  183.22    4.68
   4   2   2  419.00    7.58
   4   2   2  415.28    8.32
  -4  -2  -2  420.57    8.92
   4   2   3  200.66    4.26
   4   2   3  196.10    4.43
  -4  -2  -3  204.50    5.16
   4   2   4 1082.72   18.80
   4   2   4 1077.78   18.35
  -4  -2  -4 1089.18   19.51
   4   2   5   40.01    2.27
   4   2   5   41.12    2.06
  -4  -2  -5   41.62    2.71
   4   2   6   35.68    2.46
   4   2   6   34.89    1.86
  -4  -2  -6   43.18    3.05
   4   2   7  315.76   10.50
   4   2   7  311.35    9.22
  -4  -2  -7  301.91    9.82
   4   2   8  419.12   12.97
   4   2   8  419.77   11.43
  -4  -2  -8  442.97   13.35
   4   2   9   55.35    3.40
   4   2   9   55.60    2.23
  -4  -2  -9   57.15    3.33
   4   2  10    5.75    2.60
  -4  -2 -10   -0.27    1.72
   4   2  11   19.20    3.76
  -4  -2 -11   15.20    2.84
   4   2  12   14.39    3.55
  -4  -2 -12   12.98    2.39
   4   3  -8   21.48    5.99
  -4  -3   8   30.66    3.39
   4   3  -7    8.48    2.03
  -4  -3   7   10.17    2.38
   4   3  -6   13.23    1.96
  -4  -3   6   12.51    2.40
   4   3  -5  227.87   10.52
  -4  -3   5  242.23   10.23
   4   3  -4  147.76    6.50
  -4  -3   4  150.20    5.97
   4   3  -3  220.97    5.94
  -4  -3   3  230.52    8.06
   4   3  -2    6.14    1.79
  -4  -3   2   -0.52    1.69
   4   3  -1    0.41    1.70
  -4  -3   1    0.43    1.67
   4   3   0    4.20    1.30
  -4  -3   0    2.86    1.19
   4   3   1  698.13   13.22
  -4  -3  -1  682.01   13.01
  -4  -3  -1  664.39   11.01
   4   3   2  291.83    4.91
   4   3   2  297.31    6.18
  -4  -3  -2  294.82    6.33
   4   3   3   26.57    1.38
   4   3   3   28.33    2.10
  -4  -3  -3   27.57    2.41
   4   3   4   59.31    2.35
   4   3   4   58.20    2.66
  -4  -3  -4   57.30    2.85
   4   3   5   63.17    2.93
   4   3   5   66.28    2.85
  -4  -3  -5   64.23    3.12
   4   3   6  494.97   13.63
   4   3   6  505.00   13.28
  -4  -3  -6  505.78   13.86
   4   3   7  307.39   10.09
   4   3   7  303.61    9.34
  -4  -3  -7  317.54   10.48
   4   3   8   40.42    3.22
   4   3   8   45.00    2.20
  -4  -3  -8   44.24    3.34
   4   3   9    0.50    1.66
   4   3   9   -0.27    0.96
  -4  -3  -9   -2.11    1.67
   4   3  10   79.50    4.57
   4   3  10   78.98    3.17
  -4  -3 -10   79.66    3.82
   4   3  11   42.02    4.14
  -4  -3 -11   43.74    3.38
   4   3  12   36.05    4.03
  -4  -3 -12   38.55    3.25
   4   4  -8    0.60    1.71
  -4  -4   8    2.00    2.41
   4   4  -7   35.50    3.71
  -4  -4   7   37.48    3.53
   4   4  -6  119.74    6.02
  -4  -4   6  106.55    5.16
   4   4  -5  170.46    8.61
  -4  -4   5  167.68    8.11
   4   4  -4   90.44    5.34
  -4  -4   4   81.45    3.87
   4   4  -3   71.94    4.11
  -4  -4   3   69.22    3.72
   4   4  -2   24.51    3.15
  -4  -4   2   22.09    2.75
   4   4  -1  269.39    8.82
  -4  -4   1  279.83    8.73
   4   4   0  188.65    5.74
  -4  -4   0  197.37    5.30
  -4  -4   0  200.09    3.53
   4   4   1  271.91    8.17
  -4  -4  -1  275.63    7.85
  -4  -4  -1  286.47    7.11
   4   4   2  300.74    8.50
  -4  -4  -2  302.07    8.10
   4   4   3   11.57    2.03
  -4  -4  -3   10.00    1.62
  -4  -4  -3   13.63    2.68
   4   4   4  468.40   12.21
  -4  -4  -4  450.48   11.63
  -4  -4  -4  466.58   11.93
   4   4   5  280.21    8.02
   4   4   5  277.50    8.11
  -4  -4  -5  256.93    7.57
   4   4   6  390.03   11.10
   4   4   6  393.96   11.02
  -4  -4  -6  388.76   10.89
   4   4   7    3.82    1.37
   4   4   7    2.90    1.43
  -4  -4  -7    7.53    2.02
   4   4   8    4.44    2.29
   4   4   8    0.02    1.22
  -4  -4  -8    3.56    2.43
   4   4   9    2.36    1.68
   4   4   9    4.76    1.33
  -4  -4  -9    2.73    1.56
   4   4  10  252.76    8.00
   4   4  10  250.30    6.81
  -4  -4 -10  265.09    7.17
   4   4  11   80.68    5.39
   4   4  11   73.52    3.48
  -4  -4 -11   78.45    3.92
   4   4  12   49.28    4.80
   4   5  -7    2.16    1.80
  -4  -5   7    1.21    1.86
   4   5  -6   59.57    4.73
  -4  -5   6   60.35    4.49
   4   5  -5   51.71    4.30
  -4  -5   5   45.03    3.81
   4   5  -4    4.46    2.13
  -4  -5   4    6.07    2.48
   4   5  -3  148.14    7.11
  -4  -5   3  131.47    6.28
   4   5  -2  512.11   15.47
  -4  -5   2  482.88   14.38
   4   5  -1  426.58   13.32
  -4  -5   1  436.55   13.38
   4   5   0  170.82    4.80
  -4  -5   0  174.11    4.61
  -4  -5   0  177.73    2.92
   4   5   1   45.63    3.00
  -4  -5  -1   44.44    2.81
  -4  -5  -1   47.21    2.15
   4   5   2  134.23    4.70
  -4  -5  -2  144.48    3.85
  -4  -5  -2  135.36    3.10
   4   5   3  983.39   25.17
  -4  -5  -3 1061.41   26.43
  -4  -5  -3  961.60   24.35
   4   5   4  535.38   14.84
  -4  -5  -4  528.38   13.96
  -4  -5  -4  498.08   13.32
   4   5   5  262.38    8.24
  -4  -5  -5  263.59    7.68
  -4  -5  -5  265.30    8.51
   4   5   6   57.85    3.35
  -4  -5  -6   58.92    2.99
  -4  -5  -6   60.54    4.09
   4   5   7   74.45    3.46
  -4  -5  -7   70.78    3.22
  -4  -5  -7   78.09   12.09
   4   5   8    4.09    2.20
  -4  -5  -8    0.46    1.23
   4   5   9  123.81    6.54
   4   5   9  137.32    6.72
  -4  -5  -9  130.63    6.13
   4   5  10  173.97    6.67
   4   5  10  177.42    5.79
   4   5  11   65.39    3.62
  -4  -5 -12   -0.98    2.12
   4   6  -6   69.70    4.25
  -4  -6   6   60.87    4.77
   4   6  -5    0.12    1.93
  -4  -6   5    0.72    1.94
   4   6  -4   35.33    3.57
  -4  -6   4   34.03    3.43
   4   6  -3  155.55    7.98
  -4  -6   3  146.02    7.42
   4   6  -2  105.54    5.80
  -4  -6   2  106.16    5.61
   4   6  -1  149.10    6.36
  -4  -6   1  146.92    5.81
  -4  -6   1  154.51    4.93
   4   6   0   45.23    4.26
  -4  -6   0   49.68    3.13
  -4  -6   0   46.24    2.18
   4   6   1   54.62    3.94
  -4  -6  -1   57.58    2.85
  -4  -6  -1   59.03    2.69
   4   6   2  169.92    5.28
  -4  -6  -2  187.46    4.72
  -4  -6  -2  174.80    4.13
   4   6   3  236.33    8.47
  -4  -6  -3  259.81    8.37
  -4  -6  -3  234.35    7.62
   4   6   4  283.53    9.80
  -4  -6  -4  304.09    9.39
  -4  -6  -4  284.11   12.38
   4   6   5  148.20    5.38
  -4  -6  -5  152.82    4.03
  -4  -6  -5  156.03    9.68
   4   6   6   52.00    3.70
  -4  -6  -6   55.74    2.57
  -4  -6  -6   53.45    3.34
   4   6   7  158.99    6.26
  -4  -6  -7  157.27    5.21
  -4  -6  -7  166.60   12.04
   4   6   8  394.42   15.32
  -4  -6  -8  390.57   15.99
   4   6   9  189.38    6.59
  -4  -6  -9  203.40   13.93
   4   6  10   68.49    4.09
  -4  -6 -10   71.86   10.84
   4   6  11   16.40    2.61
  -4  -6 -11   20.95    4.06
   4   6  12    6.57    2.28
  -4  -6 -12    9.90    2.55
  -4  -7   6   -0.04    1.59
   4   7  -5    9.88    2.99
  -4  -7   5   15.25    3.41
   4   7  -4  102.20    5.09
  -4  -7   4   98.75    5.45
   4   7  -3  165.88    7.27
  -4  -7   3  150.84    6.14
   4   7  -2   98.38    4.94
  -4  -7   2   92.11    4.44
   4   7  -1   15.77    2.51
  -4  -7   1   18.07    2.59
  -4  -7   1   14.77    1.55
   4   7   0   14.45    3.29
  -4  -7   0   15.11    2.04
  -4  -7   0   16.78    1.91
   4   7   1  185.87    7.27
  -4  -7  -1  197.11    6.92
  -4  -7  -1  213.84    7.13
   4   7   2  472.46   14.17
  -4  -7  -2  495.03   13.88
  -4  -7  -2  504.87   14.24
   4   7   3  349.54   11.31
  -4  -7  -3  359.65   10.27
  -4  -7  -3  354.17   10.93
   4   7   4   96.59    4.82
  -4  -7  -4  105.87    3.13
  -4  -7  -4   92.74    3.78
   4   7   5   19.53    3.33
  -4  -7  -5   13.89    1.60
  -4  -7  -5   15.64    3.43
   4   7   6  133.74    6.98
  -4  -7  -6  143.10    5.93
  -4  -7  -6  126.10    8.08
   4   7   7   79.28    4.82
  -4  -7  -7   86.09    6.89
   4   7   8   97.01    5.62
  -4  -7  -8  105.02    8.03
   4   7   9   89.94    4.67
  -4  -7  -9   83.09    6.88
   4   7  10    2.57    1.81
  -4  -7 -10    5.01    1.56
   4   7  11    1.69    1.58
  -4  -7 -11    3.35    1.55
   4   7  12   14.45    2.73
  -4  -7 -12   13.30    3.05
   4   8  -4   55.12    4.10
  -4  -8   4   47.20    3.91
   4   8  -3   36.77    3.52
  -4  -8   3   33.84    3.44
   4   8  -2    9.74    2.39
  -4  -8   2   10.94    2.49
   4   8  -1   15.53    2.59
  -4  -8   1   17.08    2.53
   4   8   0  149.78    6.03
  -4  -8   0  158.21    5.63
  -4  -8   0  172.68    5.68
   4   8   1  658.25   25.93
  -4  -8  -1  660.27   25.56
  -4  -8  -1  712.47    9.89
   4   8   2  333.26   13.55
  -4  -8  -2  338.39   12.97
  -4  -8  -2  347.47   13.74
   4   8   3   15.20    2.68
  -4  -8  -3   16.01    1.88
  -4  -8  -3   14.51    2.54
   4   8   4   -0.50    2.29
  -4  -8  -4   -0.43    0.94
  -4  -8  -4    2.19    1.71
   4   8   5   67.56    4.55
  -4  -8  -5   75.03    3.75
  -4  -8  -5   65.15    4.56
   4   8   6   85.37    5.20
  -4  -8  -6   99.64    5.81
   4   8   7  145.57    6.14
  -4  -8  -7  143.76   18.61
   4   8   8   59.31    4.17
  -4  -8  -8   59.20    7.65
   4   8   9   -1.38    1.77
  -4  -8  -9   -0.50    1.05
   4   8  10    3.42    1.83
  -4  -8 -10    5.88    2.15
   4   8  11    1.59    2.55
  -4  -8 -11    1.53    1.54
   4   9  -3   20.36    3.26
  -4  -9   3   26.63    3.67
   4   9  -2   13.08    3.19
  -4  -9   2   16.34    3.10
   4   9  -1   83.99    4.85
  -4  -9   1   86.41    4.62
   4   9   0   97.22    5.80
  -4  -9   0   97.20    5.13
   4   9   1   18.56    3.81
  -4  -9  -1   21.87    2.54
  -4  -9  -1   22.50    2.64
   4   9   2    1.00    2.14
  -4  -9  -2    3.53    1.60
  -4  -9  -2   -1.60    1.67
   4   9   3    4.51    3.13
  -4  -9  -3    0.19    0.97
  -4  -9  -3    0.15    1.79
   4   9   4   39.43    3.80
  -4  -9  -4   41.72    2.46
  -4  -9  -4   42.60    3.80
   4   9   5  183.64    6.77
  -4  -9  -5  198.57    7.09
   4   9   6  181.47    7.04
  -4  -9  -6  187.57    7.64
   4   9   7   95.20    5.66
  -4  -9  -7   92.37    5.32
   4   9   8   -0.08    2.00
  -4  -9  -8   -0.45    2.09
   4   9   9   14.69    2.62
  -4  -9  -9    8.43    3.01
   4   9  10   35.86    4.14
  -4  -9 -10   30.68    6.07
   4   9  11   38.99    4.10
  -4  -9 -11   29.80    5.87
   4  10  -1   67.02    5.05
  -4 -10   1   65.73    4.65
   4  10   0   65.66    4.46
  -4 -10   0   71.38    3.91
   4  10   1   22.90    3.21
  -4 -10  -1   27.83    2.75
   4  10   2    9.05    2.53
  -4 -10  -2    9.63    2.20
  -4 -10  -2    9.17    3.11
   4  10   3   31.63    4.25
  -4 -10  -3   26.39    3.78
   4  10   4  121.28    5.69
  -4 -10  -4  121.99    6.40
   4  10   5   53.98    4.34
  -4 -10  -5   54.17    4.38
   4  10   6   28.08    3.65
  -4 -10  -6   29.80    3.98
   4  10   7    3.23    2.27
  -4 -10  -7    5.71    3.19
   4  10   8   15.37    3.32
  -4 -10  -8   14.55    3.82
   4  10   9   34.47    4.42
  -4 -10  -9   30.38    4.06
   4  11   1    5.86    3.26
   4  11   2   22.72    3.43
   4  11   3   36.97    4.21
  -4 -11  -3   32.17    3.64
   4  11   4   42.02    3.88
  -4 -11  -4   45.67    4.55
   4  11   5   20.85    3.40
  -4 -11  -5   17.53    3.24
   4  11   6    0.79    2.03
  -4 -11  -6   -0.31    2.15
   4  11   7   16.59    3.88
  -4 -11  -7   19.10    3.95
   4  11   8   30.13    3.56
  -4 -11  -8   25.01    4.30
   5  -8  -4    6.06    5.14
  -5   8   4    4.58    2.92
   5  -8  -3   29.71    4.66
  -5   8   3   32.29    3.47
   5  -8  -2   74.93    6.67
  -5   8   2   65.01    4.38
   5  -8  -1  100.71    7.12
   5  -8   0   47.67    6.01
   5  -8   1   -0.25    2.57
   5  -8   2    2.15    2.65
  -5   8  -2    4.85    2.96
   5  -7  -6    1.55    2.54
  -5   7   6    0.93    1.98
   5  -7  -5    0.67    2.47
  -5   7   5    5.84    3.81
   5  -7  -4   11.02    4.03
  -5   7   4    8.55    2.40
   5  -7  -3   63.46    5.70
  -5   7   3   66.96    4.78
   5  -7  -2  101.72    6.41
  -5   7   2  109.92    5.31
   5  -7  -1   84.49    5.97
  -5   7   1   87.91    4.35
   5  -7   0   -2.22    2.74
  -5   7   0    0.15    1.68
   5  -7   1   64.20    5.57
  -5   7  -1   71.11    4.85
   5  -7   2   60.87    5.39
  -5   7  -2   58.69    4.12
   5  -7   3   33.65    5.29
  -5   7  -3   43.73    4.33
   5  -7   4   41.15    5.43
  -5   7  -4   38.95    4.34
   5  -6  -7    8.21    3.27
  -5   6   7   14.35    3.13
   5  -6  -6   -0.37    2.33
  -5   6   6   -0.86    1.85
   5  -6  -5   16.83    3.24
  -5   6   5   14.39    2.71
   5  -6  -4  122.53    7.25
  -5   6   4  103.72    5.59
   5  -6  -3   88.56    6.48
  -5   6   3   83.12    4.95
   5  -6  -2   41.76    5.43
  -5   6   2   35.48    3.11
  -5   6   2   43.56    4.01
   5  -6  -1    0.85    2.72
  -5   6   1    1.56    1.60
  -5   6   1    0.01    1.26
   5  -6   0   45.84    5.04
  -5   6   0   37.42    3.55
  -5   6   0   47.06    3.22
   5  -6   1  100.54    6.00
  -5   6  -1   92.05    4.59
   5  -6   2  130.17    7.04
  -5   6  -2  125.98    5.90
   5  -6   3   50.82    5.47
  -5   6  -3   45.68    4.13
   5  -6   4    5.27    3.65
  -5   6  -4    2.96    2.07
   5  -6   5    5.85    2.54
  -5   6  -5    6.61    2.41
   5  -6   6    8.40    2.59
  -5   6  -6   14.38    3.65
   5  -5  -8    2.24    2.72
  -5   5   8    0.88    2.18
   5  -5  -7    4.33    2.71
  -5   5   7   -0.83    2.32
   5  -5  -6   12.98    2.92
  -5   5   6    9.86    3.22
   5  -5  -5  180.77    8.11
  -5   5   5  188.32    7.82
   5  -5  -4  169.51    7.00
  -5   5   4  171.10    6.88
   5  -5  -3   36.83    4.65
  -5   5   3   29.23    2.24
  -5   5   3   31.94    3.05
   5  -5  -2   12.85    3.02
  -5   5   2   15.55    2.21
  -5   5   2   16.90    2.63
   5  -5  -1   11.98    3.04
  -5   5   1   11.03    2.59
  -5   5   1   14.06    2.22
   5  -5   0   74.78    5.36
  -5   5   0   77.23    4.87
  -5   5   0   90.96    4.97
   5  -5   1  123.69    6.90
  -5   5  -1  130.55    7.26
  -5   5  -1  135.32    6.28
   5  -5   2   86.68    5.70
  -5   5  -2   75.70    4.71
   5  -5   3    2.29    2.34
  -5   5  -3    3.26    2.05
   5  -5   4   65.51    5.60
  -5   5  -4   64.90    4.94
   5  -5   5   63.96    5.32
  -5   5  -5   73.40    4.85
   5  -5   6   42.22    4.80
  -5   5  -6   48.05    4.74
   5  -5   7   15.96    3.68
  -5   5  -7   14.89    4.02
   5  -4  -8    2.20    2.24
  -5   4   8    0.23    2.72
   5  -4  -7   20.29    3.08
  -5   4   7   24.91    4.45
   5  -4  -6   60.62    4.72
  -5   4   6   64.60    5.15
   5  -4  -5   96.61    5.27
  -5   4   5   85.38    4.76
  -5   4   4    5.04    1.20
  -5   4   4    4.23    2.26
   5  -4  -3   31.72    3.64
  -5   4   3   24.90    2.22
  -5   4   3   28.89    3.07
   5  -4  -2  141.24    7.32
  -5   4   2  151.41    6.88
  -5   4   2  157.92    7.48
   5  -4  -1   99.90    6.32
  -5   4   1   91.26    4.92
  -5   4   1   98.98    5.24
   5  -4   0  170.18    8.21
  -5   4   0  160.92    7.46
  -5   4   0  176.13    7.61
   5  -4   1   70.86    4.13
  -5   4  -1   72.91    4.10
  -5   4  -1   73.30    2.85
   5  -4   2   24.11    3.28
  -5   4  -2   25.68    2.80
  -5   4  -2   26.66    1.89
   5  -4   3   17.05    2.95
  -5   4  -3   15.62    3.42
   5  -4   4  409.71   17.58
  -5   4  -4  442.86   18.28
   5  -4   5  114.54    5.80
  -5   4  -5  124.60    5.89
   5  -4   6   19.14    3.40
  -5   4  -6   22.23    3.98
   5  -4   7   -0.88    2.43
  -5   4  -7   -0.44    2.31
   5  -4   8   11.40    3.53
  -5   4  -8    8.93    3.62
  -5   3   9    5.53    3.12
  -5   3   8   31.03    4.73
   5  -3  -7   54.37    3.92
  -5   3   7   55.84    5.42
   5  -3  -6   61.97    4.41
  -5   3   6   46.73    3.05
  -5   3   6   54.64    4.35
   5  -3  -5   19.14    2.79
  -5   3   5   21.18    2.11
  -5   3   5   24.49    3.49
   5  -3  -4    9.20    2.64
  -5   3   4    5.87    1.64
  -5   3   4   10.13    2.43
   5  -3  -3  163.55    7.93
  -5   3   3  153.33    6.78
  -5   3   3  157.18    7.53
   5  -3  -2  192.73    7.27
  -5   3   2  219.10    7.42
  -5   3   2  211.66    7.59
   5  -3  -1  134.35    5.73
  -5   3   1  144.74    5.24
  -5   3   1  134.76    4.70
   5  -3   0  137.34    5.27
  -5   3   0  145.15    5.69
  -5   3   0  137.99    4.48
   5  -3   1    4.04    3.38
  -5   3  -1    4.46    3.14
  -5   3  -1   -0.42    1.32
   5  -3   2   98.56    4.64
  -5   3  -2   99.96    5.12
  -5   3  -2   98.37    3.24
   5  -3   3  404.35   12.84
  -5   3  -3  429.81   13.09
   5  -3   4  286.06   12.57
  -5   3  -4  300.63   12.65
   5  -3   5    4.69    2.57
  -5   3  -5    2.64    2.08
   5  -3   6    1.53    2.09
  -5   3  -6    2.02    2.37
   5  -3   7   15.46    3.29
  -5   3  -7   21.26    3.95
   5  -3   8   57.59    5.39
  -5   3  -8   51.74    4.73
   5  -3   9   60.72    5.51
  -5   3  -9   56.22    4.40
  -5   2   9   30.68    4.49
  -5   2   8   56.93    5.51
   5  -2  -7   53.89    3.95
  -5   2   7   38.99    3.03
  -5   2   7   53.95    5.28
   5  -2  -6   13.49    2.27
  -5   2   6    8.32    1.75
  -5   2   6   15.40    2.97
   5  -2  -5   40.89    3.12
  -5   2   5   33.97    2.47
  -5   2   5   34.66    3.77
   5  -2  -4  139.12    6.72
  -5   2   4  136.45    7.22
   5  -2  -3  164.78    6.20
  -5   2   3  149.99    5.72
  -5   2   3  159.05    7.01
   5  -2  -2  161.04    6.24
  -5   2   2  157.48    4.43
  -5   2   2  158.53    5.10
   5  -2  -1   59.15    3.12
  -5   2   1   65.35    3.45
  -5   2   1   61.97    3.32
   5  -2   0  110.42    4.50
  -5   2   0  102.82    4.50
  -5   2   0  105.59    4.01
   5  -2   1  136.00    4.48
  -5   2  -1  134.19    4.93
  -5   2  -1  133.48    3.68
   5  -2   2  361.72   11.73
   5  -2   2  370.16   11.19
  -5   2  -2  385.52   12.40
   5  -2   3  368.96   12.13
   5  -2   3  341.36   10.26
  -5   2  -3  355.43   11.81
   5  -2   4  144.60    5.70
  -5   2  -4  150.54    5.80
   5  -2   5   63.15    4.11
  -5   2  -5   75.98    4.37
   5  -2   6  152.89    7.84
  -5   2  -6  167.24    8.39
   5  -2   7  241.02    8.23
  -5   2  -7  266.23    8.52
   5  -2   8  147.46    7.30
  -5   2  -8  152.31    6.78
   5  -2   9   38.95    4.52
  -5   2  -9   40.41    4.89
   5  -2  10    2.76    3.20
  -5   2 -10   -1.17    2.31
   5  -1  -9   18.43    5.16
   5  -1  -8    9.54    3.08
  -5   1   8   11.17    2.08
  -5   1   7    0.51    1.44
  -5   1   7    3.16    2.15
   5  -1  -6   38.69    2.85
  -5   1   6   33.14    2.67
  -5   1   6   39.64    4.30
   5  -1  -5  279.98   11.01
  -5   1   5  232.87    9.59
  -5   1   5  252.37   11.10
   5  -1  -4  276.66    8.46
  -5   1   4  260.63    9.33
   5  -1  -3  252.84    8.16
  -5   1   3  229.52    7.98
  -5   1   3  246.57    9.06
   5  -1  -2   71.12    2.83
  -5   1   2   68.75    3.16
  -5   1   2   78.68    4.16
   5  -1  -1   57.70    2.76
  -5   1   1   54.36    3.24
  -5   1   1   49.65    3.11
   5  -1   0  619.29   16.44
   5  -1   0  601.44   16.19
  -5   1   0  587.89   16.16
   5  -1   1  488.74   13.44
   5  -1   1  495.52   13.34
  -5   1  -1  484.35   14.01
   5  -1   2  657.05   17.65
   5  -1   2  642.20   16.69
  -5   1  -2  693.00   18.86
   5  -1   3  199.18    5.01
   5  -1   3  197.27    3.68
  -5   1  -3  209.08    6.08
   5  -1   4    5.74    2.74
   5  -1   4    2.19    0.71
  -5   1  -4    3.36    2.58
   5  -1   5   13.53    3.00
  -5   1  -5   15.16    3.05
   5  -1   6  254.55    8.85
  -5   1  -6  276.71    9.54
   5  -1   7  207.92    9.64
  -5   1  -7  211.11    9.75
   5  -1   8   82.72    5.25
  -5   1  -8   81.83    4.97
   5  -1   9    3.64    2.21
  -5   1  -9    4.35    2.26
   5  -1  10    5.40    3.08
  -5   1 -10   10.50    3.39
   5  -1  11   36.35    3.95
  -5   1 -11   39.74    4.44
   5   0  -9   21.16    4.47
  -5   0   9   16.81    2.65
   5   0  -8    2.67    2.21
  -5   0   8   -0.15    1.51
   5   0  -7   33.87    6.89
  -5   0   7   40.60    3.58
   5   0  -6  153.12    9.76
  -5   0   6  135.57    5.15
   5   0  -5  235.21   10.89
  -5   0   5  196.30    8.72
   5   0  -4  163.53    5.44
   5   0  -4  156.20    7.00
  -5   0   4  143.71    5.86
   5   0  -3   20.56    1.70
   5   0  -3   24.79    5.15
  -5   0   3   18.96    2.40
   5   0  -2    2.40    1.21
   5   0  -2    0.43    0.94
  -5   0   2    0.02    1.66
   5   0  -1  288.97    8.05
   5   0  -1  282.04    9.07
  -5   0   1  279.32    8.78
   5   0   0  734.38   17.52
   5   0   0  746.51   19.42
  -5   0   0  755.88   19.10
   5   0   1  645.10   15.75
   5   0   1  652.37   18.69
  -5   0  -1  636.82   16.59
   5   0   2  127.94    3.92
   5   0   2  127.49    9.05
  -5   0  -2  135.65    5.15
   5   0   3   16.65    2.20
   5   0   3   19.09    1.75
  -5   0  -3   19.13    3.83
   5   0   4  124.37    4.09
   5   0   4  128.89    2.71
   5   0   5  243.99    8.56
   5   0   5  245.94    7.09
  -5   0  -5  246.85    8.99
   5   0   6  536.90   16.25
  -5   0  -6  549.67   16.46
   5   0   7  464.02   18.15
  -5   0  -7  487.73    9.06
   5   0   8   -1.02    1.63
  -5   0  -8    0.58    2.24
   5   0   9   21.60    3.16
  -5   0  -9   23.11    3.18
   5   0  10   35.91    3.63
  -5   0 -10   33.85    3.93
   5   0  11   31.19    3.89
  -5   0 -11   33.28    4.26
   5   1  -9    1.04    1.06
  -5  -1   9   -0.25    1.36
   5   1  -8   19.04    4.05
  -5  -1   8   10.40    2.50
   5   1  -7   68.09   11.78
  -5  -1   7   63.28    3.95
   5   1  -6   95.75   18.15
  -5  -1   6   97.72    4.55
   5   1  -5  148.69    8.77
  -5  -1   5  135.29    6.45
   5   1  -4   33.54    6.66
  -5  -1   4   25.13    2.98
   5   1  -3   30.69    7.61
  -5  -1   3   22.65    2.69
   5   1  -2  479.31   17.72
  -5  -1   2  458.67   13.12
   5   1  -1 1603.98   19.94
  -5  -1   1 1601.08   39.79
   5   1   0  377.85    9.11
   5   1   0  379.54   10.83
  -5  -1   0  388.99   10.99
   5   1   1  194.98    4.14
   5   1   1  197.78    8.40
   5   1   2   22.96    1.82
   5   1   2   20.81    2.04
  -5  -1  -2   22.22    2.49
   5   1   3   85.98    3.04
   5   1   3   85.38    3.01
  -5  -1  -3   92.17    4.74
   5   1   4  115.77    3.97
   5   1   4  113.37    2.74
  -5  -1  -4  124.21    4.99
   5   1   5  549.07   14.98
   5   1   5  548.38   13.89
  -5  -1  -5  570.00   16.02
   5   1   6  242.94    8.52
   5   1   6  248.18    7.30
  -5  -1  -6  244.62    8.94
   5   1   7   77.60    3.62
  -5  -1  -7   88.20    4.54
   5   1   8    7.26    2.23
  -5  -1  -8   11.12    3.01
   5   1   9   50.95    3.53
  -5  -1  -9   61.24    4.12
   5   1  10   89.86    5.17
  -5  -1 -10  103.62    6.16
   5   1  11   32.00    3.61
  -5  -1 -11   43.24    3.96
   5   1  12    2.35    2.19
  -5  -1 -12    5.38    3.31
   5   2  -8   46.85   11.62
  -5  -2   8   62.75    4.30
   5   2  -7   73.83   14.73
  -5  -2   7   69.87    3.95
   5   2  -6   73.30   15.00
  -5  -2   6   81.73    4.50
   5   2  -5   14.15    3.35
  -5  -2   5   17.12    2.92
   5   2  -4    8.15    1.91
  -5  -2   4    2.04    1.37
   5   2  -3  167.44    6.91
  -5  -2   3  172.88    6.74
   5   2  -2  919.77   28.19
  -5  -2   2  955.72   27.21
   5   2  -1  329.48   10.46
  -5  -2   1  332.42   10.27
   5   2   0  212.77    9.74
  -5  -2   0  204.38    5.79
   5   2   1   20.96    0.99
   5   2   1   22.44    2.45
  -5  -2  -1   21.07    2.38
   5   2   2  224.35    4.56
   5   2   2  228.81    4.84
  -5  -2  -2  227.97    6.21
   5   2   3  397.23   10.06
   5   2   3  415.68   10.90
  -5  -2  -3  391.92   11.05
   5   2   4  413.44   10.82
   5   2   4  397.09   10.30
   5   2   5  140.06    3.88
   5   2   5  143.26    3.39
  -5  -2  -5  144.72    4.69
   5   2   6    1.49    1.50
   5   2   6    1.84    1.57
  -5  -2  -6    2.78    2.47
   5   2   7   17.00    2.24
   5   2   7   16.37    1.53
  -5  -2  -7   19.73    3.16
   5   2   8   79.14    4.32
   5   2   8   71.00    2.33
  -5  -2  -8   71.04    4.20
   5   2   9  219.10   10.46
  -5  -2  -9  209.30    9.73
   5   2  10   46.50    4.32
  -5  -2 -10   44.91    3.97
   5   2  11    1.60    2.02
  -5  -2 -11    0.22    1.90
   5   2  12    0.28    1.85
  -5  -2 -12    1.70    1.82
   5   3  -8   35.99    6.64
  -5  -3   8   45.96    4.16
   5   3  -7   61.13   13.48
  -5  -3   7   84.08    4.81
   5   3  -6   19.25    5.26
  -5  -3   6   23.84    3.39
   5   3  -5   12.09    2.51
  -5  -3   5   15.21    2.52
   5   3  -4   64.83   12.13
  -5  -3   4   66.56    4.47
   5   3  -3  351.43   11.62
  -5  -3   3  363.27   11.34
   5   3  -2  273.46    9.51
  -5  -3   2  270.89    9.12
   5   3  -1   14.86    2.88
  -5  -3   1   15.17    2.65
   5   3   0    1.94    2.77
  -5  -3   0    2.95    2.03
   5   3   1  380.33   10.91
  -5  -3  -1  356.35   10.06
   5   3   2  231.64    2.93
   5   3   2  243.58    7.47
  -5  -3  -2  246.65    7.75
   5   3   3  462.60   11.39
   5   3   3  463.53   12.13
  -5  -3  -3  474.74   12.85
   5   3   4  180.76    3.92
   5   3   4  181.69    4.81
  -5  -3  -4  183.89    5.16
   5   3   5   11.58    1.93
   5   3   5   11.85    1.61
  -5  -3  -5   15.91    2.83
   5   3   6   43.58    2.55
   5   3   6   42.76    2.27
  -5  -3  -6   47.81    3.66
   5   3   7  264.05    9.19
   5   3   7  260.06    8.04
  -5  -3  -7  242.88    8.57
   5   3   8   33.50    3.16
   5   3   8   30.62    1.89
  -5  -3  -8   33.40    3.42
   5   3   9  103.36    5.99
   5   3   9  106.04    5.03
  -5  -3  -9  103.13    5.56
   5   3  10   13.00    2.43
  -5  -3 -10   13.91    2.83
   5   3  11    4.78    3.12
  -5  -3 -11    4.03    2.33
   5   3  12   14.83    3.82
  -5  -3 -12   10.33    2.66
   5   4  -7    8.99    3.16
  -5  -4   7    6.80    2.53
   5   4  -6   12.32    3.15
  -5  -4   6   14.65    2.92
   5   4  -5  108.98    6.12
  -5  -4   5  103.81    5.25
   5   4  -4  153.88    7.97
  -5  -4   4  159.90    7.96
   5   4  -3  213.20    9.83
  -5  -4   3  216.11    9.73
   5   4  -2   87.24    4.50
  -5  -4   2   95.66    4.28
   5   4  -1   -1.50    1.90
  -5  -4   1    2.81    2.07
   5   4   0  126.51    4.64
  -5  -4   0  135.04    4.76
   5   4   1  431.50   12.62
  -5  -4  -1  424.87   12.25
   5   4   2  783.57   20.62
  -5  -4  -2  755.42   19.85
  -5  -4  -2  694.54   17.37
   5   4   3  129.99    4.57
  -5  -4  -3  123.20    3.89
  -5  -4  -3  125.71    2.89
   5   4   4   16.97    1.64
   5   4   4   17.07    2.67
  -5  -4  -4   17.07    2.45
   5   4   5  132.85    3.74
   5   4   5  130.94    4.31
  -5  -4  -5  126.10    4.08
   5   4   6  236.60    8.19
   5   4   6  213.17    4.83
  -5  -4  -6  217.27    5.60
   5   4   7    6.91    1.83
   5   4   7    9.64    1.88
  -5  -4  -7    6.25    1.64
   5   4   8    6.46    2.20
   5   4   8    6.92    1.56
  -5  -4  -8   10.08    2.52
   5   4   9   24.19    2.61
   5   4   9   27.04    2.18
  -5  -4  -9   25.34    2.95
   5   4  10    8.81    1.77
   5   4  10   11.41    1.73
   5   4  11   53.23    4.09
  -5  -4 -11   50.08    3.39
   5   4  12   53.74    4.34
   5   5  -7    4.98    3.22
  -5  -5   7    0.04    1.80
   5   5  -6   41.67    4.40
  -5  -5   6   30.96    3.31
   5   5  -5  113.70    6.11
  -5  -5   5  111.24    5.57
   5   5  -4   75.76    5.30
  -5  -5   4   74.24    4.31
   5   5  -3    1.60    2.00
  -5  -5   3    1.27    1.65
   5   5  -2   18.00    2.90
  -5  -5   2   17.10    2.34
   5   5  -1   62.41    4.20
  -5  -5   1   66.07    3.71
   5   5   0  182.84    7.21
  -5  -5   0  181.73    7.01
   5   5   1  229.19    8.61
  -5  -5  -1  247.74    8.87
   5   5   2   98.23    4.75
  -5  -5  -2   98.70    3.56
  -5  -5  -2  104.68    2.52
   5   5   3  127.17    4.56
  -5  -5  -3  134.01    4.18
  -5  -5  -3  123.89    5.05
   5   5   4  132.00    4.75
  -5  -5  -4  126.09    4.08
  -5  -5  -4  130.53    5.57
   5   5   5  350.24   11.19
  -5  -5  -5  351.86   11.17
  -5  -5  -5  356.61   10.92
   5   5   6  248.13    8.46
  -5  -5  -6  233.32    7.81
  -5  -5  -6  241.29    9.86
   5   5   7   62.77    3.44
   5   5   7   57.50    3.00
  -5  -5  -7   57.86    3.12
   5   5   8   33.29    2.60
   5   5   8   33.44    2.87
  -5  -5  -8   30.94    2.62
   5   5   9   73.22    4.18
   5   5   9   67.67    3.30
  -5  -5  -9   74.02    3.67
   5   5  10   37.83    3.36
   5   5  10   37.61    2.92
  -5  -5 -10   44.09    3.29
   5   5  11   48.64    4.19
   5   5  11   56.98    3.56
   5   5  12   16.70    3.15
   5   6  -6   16.78    3.42
  -5  -6   6   14.60    3.01
   5   6  -5   32.60    3.49
  -5  -6   5   41.40    4.28
   5   6  -4    8.85    2.63
  -5  -6   4   11.50    2.79
   5   6  -3   47.82    4.17
  -5  -6   3   45.25    3.28
   5   6  -2   88.20    5.99
  -5  -6   2   86.36    5.34
   5   6  -1  110.93    6.33
  -5  -6   1  117.23    6.08
   5   6   0  229.17    8.36
  -5  -6   0  246.80    8.46
   5   6   1   56.29    4.25
  -5  -6  -1   63.28    3.45
   5   6   2   13.14    3.32
  -5  -6  -2   12.70    2.25
  -5  -6  -2   10.34    1.57
   5   6   3  137.70    5.51
  -5  -6  -3  153.06    5.45
  -5  -6  -3  141.98    4.04
   5   6   4  428.99   13.41
  -5  -6  -4  448.82   13.24
  -5  -6  -4  392.26   13.40
   5   6   5  237.13    8.28
  -5  -6  -5  242.26    7.73
  -5  -6  -5  222.00   11.64
   5   6   6   11.34    2.89
  -5  -6  -6   10.57    1.86
  -5  -6  -6   12.10    1.90
   5   6   7    2.32    1.75
  -5  -6  -7    3.71    1.95
  -5  -6  -7    4.59    1.16
   5   6   8   64.04    4.33
  -5  -6  -8   59.92    3.09
  -5  -6  -8   64.60    5.80
   5   6   9   83.96    4.08
  -5  -6  -9   73.05    3.67
  -5  -6  -9   84.87   11.45
   5   6  10   57.74    4.19
  -5  -6 -10   46.71   12.05
   5   6  11   41.66    3.86
  -5  -6 -11   32.64    8.28
   5   6  12    0.62    1.41
  -5  -6 -12    0.82    1.26
   5   7  -5    6.19    3.42
  -5  -7   5   -0.72    1.78
   5   7  -4    8.04    3.26
  -5  -7   4    3.16    1.95
   5   7  -3   79.36    5.01
  -5  -7   3   78.19    4.71
   5   7  -2   96.35    6.19
  -5  -7   2   97.38    4.98
   5   7  -1   64.78    4.00
  -5  -7   1   69.77    4.01
   5   7   0   38.02    3.84
  -5  -7   0   41.71    3.03
   5   7   1   -2.25    2.15
  -5  -7  -1    0.15    1.52
   5   7   2  121.86    6.86
  -5  -7  -2  126.49    6.15
  -5  -7  -2  132.04    6.01
   5   7   3  180.27    8.53
  -5  -7  -3  188.10    8.15
  -5  -7  -3  191.96    8.16
   5   7   4  304.79   12.58
  -5  -7  -4  292.24   11.55
   5   7   5   35.67    3.24
  -5  -7  -5   32.75    2.53
  -5  -7  -5   31.65    6.17
   5   7   6   14.11    2.74
  -5  -7  -6   13.22    1.53
  -5  -7  -6   13.47    2.35
   5   7   7   61.30    3.91
  -5  -7  -7   66.03    3.60
  -5  -7  -7   63.49    3.49
   5   7   8  193.17    7.09
  -5  -7  -8  182.25   13.27
   5   7   9  137.94    5.72
  -5  -7  -9  132.93    8.90
   5   7  10   25.23    3.14
  -5  -7 -10   29.04    6.30
   5   7  11    1.69    1.58
  -5  -7 -11    4.58    1.52
   5   7  12    2.43    1.79
  -5  -7 -12   -1.44    2.03
   5   8  -4    5.40    2.57
  -5  -8   4    2.03    1.77
   5   8  -3   56.23    5.17
  -5  -8   3   48.03    3.81
   5   8  -2   62.19    4.86
  -5  -8   2   70.27    4.41
   5   8  -1    0.67    2.56
  -5  -8   1    0.25    1.65
   5   8   0   51.03    4.63
  -5  -8   0   51.58    3.42
   5   8   1  207.68    7.74
  -5  -8  -1  221.19    7.16
   5   8   2  316.59   10.35
  -5  -8  -2  316.09    8.57
  -5  -8  -2  333.65    6.70
   5   8   3   82.32    5.64
  -5  -8  -3   89.79    4.74
  -5  -8  -3   85.74    4.93
   5   8   4   91.24    5.87
  -5  -8  -4  101.48    5.18
  -5  -8  -4   91.92    5.43
   5   8   5    3.71    3.34
  -5  -8  -5    1.51    1.04
  -5  -8  -5    2.85    1.61
   5   8   6   59.93    4.37
  -5  -8  -6   63.83    2.77
  -5  -8  -6   54.04    3.26
   5   8   7  110.70    5.08
  -5  -8  -7  117.41    4.99
   5   8   8  166.48    7.05
  -5  -8  -8  164.31   14.21
   5   8   9   37.30    3.37
  -5  -8  -9   39.05    5.64
   5   8  10    1.93    1.59
  -5  -8 -10    0.67    1.36
   5   8  11    0.09    1.72
  -5  -8 -11    0.82    1.19
   5   9  -2    8.23    3.01
  -5  -9   2   13.44    2.93
   5   9  -1    3.94    2.18
  -5  -9   1    4.04    1.76
   5   9   0   81.86    5.20
  -5  -9   0   75.91    4.26
   5   9   1   83.34    5.03
  -5  -9  -1   85.77    4.57
   5   9   2   32.27    3.91
  -5  -9  -2   27.60    2.66
   5   9   3   37.66    3.64
  -5  -9  -3   43.88    3.21
  -5  -9  -3   45.80    3.84
   5   9   4    0.14    2.20
  -5  -9  -4    1.57    1.07
  -5  -9  -4   -1.56    1.52
   5   9   5   30.04    4.16
  -5  -9  -5   32.01    2.68
  -5  -9  -5   32.64    3.36
   5   9   6  151.74    6.80
  -5  -9  -6  142.79    5.99
   5   9   7  195.72    6.83
  -5  -9  -7  167.55    7.15
   5   9   8   27.99    3.29
  -5  -9  -8   23.28    5.39
   5   9   9    1.02    2.08
  -5  -9  -9    0.82    2.16
   5   9  10   17.90    3.00
  -5  -9 -10   18.81    3.86
   5  10  -1   39.80    4.22
  -5 -10   1   47.52    4.32
   5  10   0   96.73    6.27
  -5 -10   0  104.32    5.89
   5  10   1   27.87    4.08
  -5 -10  -1   33.13    3.22
   5  10   2    0.66    2.14
  -5 -10  -2    7.43    1.76
   5  10   3    0.12    2.12
  -5 -10  -3    2.77    1.42
   5  10   4   40.19    4.13
  -5 -10  -4   45.77    4.28
   5  10   5   36.13    4.02
  -5 -10  -5   32.68    3.47
   5  10   6   93.11    5.87
  -5 -10  -6   87.56    5.35
   5  10   7   70.43    5.61
  -5 -10  -7   62.51    4.97
   5  10   8   -2.07    2.04
  -5 -10  -8    1.81    2.08
   5  10   9   10.25    3.07
  -5 -10  -9    5.60    2.85
   5  11   2   -0.28    2.16
   5  11   3   27.79    4.11
   5  11   4   54.34    5.22
   5  11   5   65.64    5.60
  -5 -11  -5   56.94    5.20
   5  11   6   14.14    3.47
  -5 -11  -6   11.73    2.71
   5  11   7    1.80    2.06
  -5 -11  -7    3.53    2.36
   6  -7  -4    2.70    2.62
  -6   7   4    3.43    2.17
   6  -7  -3   33.29    4.86
  -6   7   3   31.73    3.48
   6  -7  -2   46.69    4.96
  -6   7   2   52.55    4.36
   6  -7  -1   59.26    5.51
   6  -7   0   47.52    5.85
   6  -7   2    8.45    3.61
   6  -6  -5    2.58    3.19
  -6   6   5    0.11    2.07
   6  -6  -4    7.39    3.25
  -6   6   4   10.70    3.06
   6  -6  -3   24.28    3.79
  -6   6   3   27.60    3.41
   6  -6  -2   58.09    5.68
  -6   6   2   55.69    4.27
   6  -6  -1   44.60    4.38
  -6   6   1   44.95    3.88
  -6   6   1   46.66    3.52
   6  -6   0    0.55    2.15
  -6   6   0    1.49    1.88
  -6   6   0   -1.54    1.38
   6  -6   1   13.41    3.59
  -6   6  -1    9.52    2.71
   6  -6   2   72.01    5.22
  -6   6  -2   78.37    4.58
   6  -6   3  134.46    7.03
  -6   6  -3  133.46    6.12
   6  -6   4   56.79    6.09
  -6   6  -4   51.39    5.29
   6  -6   5   -0.92    2.41
  -6   6  -5    0.43    2.30
   6  -5  -6    4.74    2.95
  -6   5   6    2.31    2.23
   6  -5  -5   61.00    5.20
  -6   5   5   65.76    4.91
   6  -5  -4  234.17    9.44
  -6   5   4  238.66    8.08
   6  -5  -3  189.45    8.05
  -6   5   3  197.32    6.69
   6  -5  -2   69.01    5.71
  -6   5   2   64.34    4.46
  -6   5   2   61.17    4.60
   6  -5  -1   -0.05    2.34
  -6   5   1    1.97    1.84
  -6   5   1    2.09    1.57
   6  -5   0   12.53    4.10
  -6   5   0    9.51    2.22
  -6   5   0   15.40    2.33
   6  -5   1   36.40    4.37
  -6   5  -1   28.31    3.04
  -6   5  -1   27.03    2.80
   6  -5   2   56.85    4.72
  -6   5  -2   53.58    4.72
   6  -5   3   93.85    6.45
  -6   5  -3   94.24    5.47
   6  -5   4   11.30    3.36
  -6   5  -4    5.35    2.19
   6  -5   5    2.64    3.84
  -6   5  -5    2.44    2.47
   6  -5   6   10.24    3.82
  -6   5  -6    5.35    3.40
  -6   4   7   -2.25    2.46
   6  -4  -6   33.88    3.82
  -6   4   6   37.09    5.61
   6  -4  -5  160.62    6.59
  -6   4   5  152.20    7.04
   6  -4  -4   74.92    5.35
  -6   4   4   64.17    3.52
  -6   4   4   72.21    4.94
   6  -4  -3   11.06    3.51
  -6   4   3    9.35    1.74
  -6   4   3    7.63    2.55
   6  -4  -2    5.12    2.55
  -6   4   2    2.13    1.74
  -6   4   2    5.61    2.32
   6  -4  -1   33.72    3.39
  -6   4   1   34.75    3.36
  -6   4   1   31.61    3.01
   6  -4   0   80.82    5.34
  -6   4   0   74.98    5.05
  -6   4   0   84.69    4.95
   6  -4   1  137.13    6.16
  -6   4  -1  135.19    5.96
  -6   4  -1  138.13    4.96
   6  -4   2   62.93    4.29
  -6   4  -2   64.36    4.25
   6  -4   3   47.98    4.98
  -6   4  -3   43.02    4.07
  -6   4  -4   11.93    3.67
   6  -4   5   88.18    5.86
  -6   4  -5   88.44    5.57
   6  -4   6   79.61    6.17
  -6   4  -6   82.43    5.56
   6  -4   7   58.03    6.01
  -6   4  -7   55.42    5.12
   6  -4   8    1.93    2.19
  -6   4  -8    2.60    3.62
  -6   3   7   15.43    3.79
  -6   3   6   61.95    5.44
   6  -3  -5   60.88    4.68
  -6   3   5   50.44    3.75
  -6   3   5   58.07    5.33
   6  -3  -4   22.75    3.14
  -6   3   4   19.62    2.39
  -6   3   4   27.43    3.72
   6  -3  -3   11.89    2.32
  -6   3   3   11.03    2.06
  -6   3   3   11.39    2.53
   6  -3  -2   53.44    3.81
  -6   3   2   42.57    2.89
  -6   3   2   40.97    3.41
   6  -3  -1  102.89    5.76
  -6   3   1   94.74    5.63
  -6   3   1   98.86    5.69
   6  -3   0  115.29    6.54
  -6   3   0  109.12    6.19
  -6   3   0  107.77    5.43
   6  -3   1   23.11    3.43
  -6   3  -1   18.16    2.84
   6  -3   2    9.73    2.51
   6  -3   2   11.31    2.83
  -6   3  -2    4.80    1.90
   6  -3   3   52.36    4.23
  -6   3  -3   45.32    3.73
   6  -3   4  138.79    7.87
  -6   3  -4  142.72    7.89
   6  -3   5  126.26    6.40
  -6   3  -5  135.40    6.35
   6  -3   6   69.88    4.97
  -6   3  -6   76.47    5.69
   6  -3   7    0.86    2.46
  -6   3  -7    1.91    2.72
   6  -3   8    4.93    3.38
  -6   3  -8    2.95    2.87
   6  -3   9   16.12    3.37
  -6   3  -9   21.20    4.04
  -6   2   7   34.18    4.86
  -6   2   6   88.33    4.68
  -6   2   6  100.78    6.50
   6  -2  -5   42.17    3.70
  -6   2   5   35.00    2.92
  -6   2   5   44.72    4.49
   6  -2  -4    0.59    1.49
  -6   2   4    3.46    1.68
  -6   2   4   -1.01    2.11
   6  -2  -3   62.13    3.36
  -6   2   3   59.13    3.31
  -6   2   3   63.90    4.24
   6  -2  -2  178.24    8.06
  -6   2   2  180.49    8.22
  -6   2   2  176.36    8.36
   6  -2  -1  311.05    9.90
  -6   2   1  302.60    9.98
  -6   2   1  298.14    9.88
   6  -2   0  114.00    4.33
  -6   2   0  116.25    4.68
   6  -2   1    1.97    2.78
   6  -2   1   -1.97    1.23
  -6   2  -1   -1.43    2.29
   6  -2   2  101.91    4.63
   6  -2   2   98.64    5.76
  -6   2  -2  104.12    5.02
   6  -2   3  257.89   11.05
   6  -2   3  246.29    9.68
  -6   2  -3  261.14   11.41
   6  -2   4    2.22    1.85
  -6   2  -4   -0.61    2.48
   6  -2   5    5.52    2.41
  -6   2  -5    2.73    2.58
   6  -2   6   -0.64    1.88
  -6   2  -6    2.36    2.47
   6  -2   7   24.37    3.54
  -6   2  -7   26.41    3.69
   6  -2   8   37.95    4.31
  -6   2  -8   42.82    4.68
   6  -2   9   88.98    6.24
  -6   2  -9   98.37    5.97
   6  -2  10   32.75    3.76
  -6   2 -10   38.63    4.73
   6  -1  -8   20.42    6.01
   6  -1  -7   24.99    6.29
  -6   1   7   24.79    2.88
   6  -1  -6    5.09    2.34
  -6   1   6    6.03    1.86
   6  -1  -5   32.43    3.56
  -6   1   5   25.88    2.88
   6  -1  -4   88.02    4.75
   6  -1  -4   98.62    6.60
  -6   1   4   78.03    4.76
   6  -1  -3  161.48    6.85
   6  -1  -3  163.88    8.41
  -6   1   3  145.88    6.96
   6  -1  -2  311.96    9.45
   6  -1  -2  300.91   10.23
  -6   1   2  305.22   10.04
   6  -1  -1    9.19    1.85
   6  -1  -1    9.40    1.83
  -6   1   1    9.81    2.16
   6  -1   0  147.57    4.64
   6  -1   0  149.65    5.97
  -6   1   0  144.43    5.60
   6  -1   1  278.13    9.17
   6  -1   1  266.40   10.29
  -6   1  -1  251.36    8.94
   6  -1   2  389.69   12.09
   6  -1   2  369.06   11.44
  -6   1  -2  402.21   13.04
   6  -1   3  154.49    5.47
   6  -1   3  135.84   10.03
  -6   1  -3  169.16    7.87
   6  -1   4  120.76    4.83
   6  -1   4  114.54    2.87
  -6   1  -4  127.65    6.48
   6  -1   5   69.64    4.43
  -6   1  -5   68.71    4.51
   6  -1   6    2.01    1.95
  -6   1  -6   -3.19    2.48
   6  -1   7  105.58    5.75
  -6   1  -7   99.08    5.71
   6  -1   8  153.68    7.05
  -6   1  -8  163.94    7.18
   6  -1   9   31.09    4.50
  -6   1  -9   31.93    4.86
   6  -1  10    0.95    2.28
  -6   1 -10    5.56    2.55
   6   0  -8   19.91    4.87
  -6   0   8   21.03    2.78
   6   0  -7   -1.24    2.35
  -6   0   7    0.57    1.44
   6   0  -6   15.68    4.25
  -6   0   6   11.10    2.41
   6   0  -5   37.09    7.07
  -6   0   5   37.11    3.00
   6   0  -4  129.11   10.87
  -6   0   4  118.57    6.25
   6   0  -3  106.93    9.80
  -6   0   3   87.10    4.86
   6   0  -2   84.73    2.80
   6   0  -2   86.87   12.84
  -6   0   2   82.64    3.89
   6   0  -1   34.43    2.03
   6   0  -1   37.07    7.21
  -6   0   1   32.09    2.73
   6   0   0  331.73   10.01
   6   0   0  334.81   18.96
  -6   0   0  325.65   10.95
   6   0   1  337.99   10.32
   6   0   1  344.28   16.05
  -6   0  -1  333.97   11.29
   6   0   2  497.95   14.67
   6   0   2  457.39   16.29
  -6   0  -2  498.69   15.72
   6   0   3   56.79    3.18
   6   0   3   57.30    2.52
  -6   0  -3   58.42    3.96
   6   0   4   10.40    2.15
   6   0   4    8.26    1.42
  -6   0  -4    8.86    3.64
   6   0   5  183.09    6.90
   6   0   5  188.09    5.67
  -6   0  -5  195.75    7.83
   6   0   6  197.49    8.95
  -6   0  -6  221.89   10.27
   6   0   7  216.82   10.24
  -6   0  -7  215.10   10.49
   6   0   8   76.86    4.50
  -6   0  -8   89.98    5.47
   6   0   9    4.59    2.34
  -6   0  -9    6.19    2.79
   6   0  10   -0.25    2.09
  -6   0 -10   -0.72    2.22
   6   0  11   31.20    4.62
  -6   0 -11   38.77    4.88
   6   1  -8    1.08    1.08
   6   1  -7   24.56    5.20
  -6  -1   7   24.44    3.11
   6   1  -6   88.12   18.68
  -6  -1   6   88.58    4.71
   6   1  -5   85.62   17.84
  -6  -1   5   81.86    4.28
   6   1  -4   74.30    6.91
  -6  -1   4   70.56    4.93
   6   1  -3   62.01   10.38
  -6  -1   3   55.76    3.79
   6   1  -2   24.02    5.59
  -6  -1   2   20.98    2.92
   6   1  -1  103.11    5.19
  -6  -1   1  102.85    4.61
   6   1   0  587.68   16.09
   6   1   0  574.87   17.89
  -6  -1   0  618.03   18.58
   6   1   1  584.31   16.23
   6   1   1  560.76   17.50
  -6  -1  -1  616.99   18.60
   6   1   2   47.35    2.30
   6   1   2   53.14    3.01
  -6  -1  -2   48.93    3.56
   6   1   3   59.95    2.57
   6   1   3   60.55    2.93
  -6  -1  -3   66.42    4.12
   6   1   4  161.22    5.12
   6   1   4  152.88    3.85
  -6  -1  -4  166.43    5.97
   6   1   5  324.94   10.27
   6   1   5  336.14    9.71
  -6  -1  -5  353.07   12.02
   6   1   6  335.29   10.65
   6   1   6  350.10    9.61
  -6  -1  -6  358.78   11.78
   6   1   7   76.41    4.62
  -6  -1  -7   85.44    5.62
   6   1   8    6.78    2.35
  -6  -1  -8    7.14    2.91
   6   1   9    3.86    1.76
  -6  -1  -9    7.90    3.84
   6   1  10   49.02    4.87
  -6  -1 -10   62.34    5.44
   6   1  11   37.70    4.36
  -6  -1 -11   31.46    4.31
   6   2  -7   17.55    4.55
  -6  -2   7   25.67    3.78
   6   2  -6   56.99   13.36
  -6  -2   6   68.78    4.22
   6   2  -5   31.14    7.14
  -6  -2   5   34.35    3.62
   6   2  -4   10.37    3.24
  -6  -2   4    6.06    1.70
   6   2  -3    0.30    1.15
  -6  -2   3    3.11    1.87
   6   2  -2  701.19   12.91
  -6  -2   2  695.31   19.77
   6   2  -1  710.39   25.59
  -6  -2   1  729.78   20.94
   6   2   0  664.06   20.42
  -6  -2   0  696.69   20.65
   6   2   1  288.18    8.13
   6   2   1  302.66   10.12
  -6  -2  -1  319.11   10.68
   6   2   2   27.43    1.44
   6   2   2   28.79    2.82
  -6  -2  -2   30.20    3.00
   6   2   3   17.74    1.64
   6   2   3   16.10    2.14
  -6  -2  -3   17.96    2.87
   6   2   4  263.33    8.37
   6   2   4  265.26    8.42
  -6  -2  -4  287.84   10.19
   6   2   5  332.12   10.40
   6   2   5  330.46    9.85
  -6  -2  -5  369.52   12.27
   6   2   6  132.34    5.31
   6   2   6  135.93    4.67
  -6  -2  -6  142.20    6.27
   6   2   7    2.88    2.33
   6   2   7    4.92    1.14
  -6  -2  -7    7.33    2.79
   6   2   8    1.98    1.71
  -6  -2  -8    4.44    2.41
   6   2   9   27.32    2.86
  -6  -2  -9   28.03    3.41
   6   2  10   87.11    5.45
  -6  -2 -10   84.38    5.02
   6   2  11   25.54    4.01
  -6  -2 -11   26.47    3.86
   6   2  12    9.34    3.04
  -6  -2 -12    8.95    3.34
   6   3  -7   34.80    7.40
  -6  -3   7   40.61    4.16
   6   3  -6   92.66   12.45
  -6  -3   6   95.26    5.10
   6   3  -5    8.08    1.58
  -6  -3   5   14.22    3.31
   6   3  -4   26.29    5.52
  -6  -3   4   27.52    3.70
   6   3  -3  137.53   15.79
  -6  -3   3  142.99    7.22
   6   3  -2  172.89    8.56
  -6  -3   2  170.94    8.10
   6   3  -1   31.12    5.42
  -6  -3   1   26.41    3.34
   6   3   0  115.11    5.63
  -6  -3   0  114.20    4.89
   6   3   1   43.89    3.90
  -6  -3  -1   49.23    3.63
   6   3   3  698.21   19.21
   6   3   3  743.09   21.46
  -6  -3  -3  781.65   22.93
   6   3   4  631.41   17.81
   6   3   4  654.54   18.89
  -6  -3  -4  666.90   19.95
   6   3   5  237.53    7.68
   6   3   5  236.35    7.86
  -6  -3  -5  256.10    9.20
   6   3   6   10.61    1.98
   6   3   6   13.15    2.09
   6   3   7   80.52    3.77
   6   3   7   84.77    3.20
  -6  -3  -7   79.80    4.64
   6   3   8  101.94    5.73
   6   3   8  101.81    4.87
  -6  -3  -8  108.67    6.29
   6   3   9  112.40    5.16
  -6  -3  -9  127.00    5.70
   6   3  10   62.41    5.19
  -6  -3 -10   56.81    4.89
   6   3  11    9.54    3.68
  -6  -3 -11    5.50    2.56
   6   3  12    3.47    2.71
  -6  -3 -12    2.16    2.08
   6   4  -6    8.69    2.65
  -6  -4   6    4.27    1.82
   6   4  -5    5.94    2.89
  -6  -4   5    3.94    1.96
   6   4  -4  104.58    6.27
  -6  -4   4  113.17    5.70
   6   4  -3  168.68    7.50
  -6  -4   3  179.96    7.11
   6   4  -2   81.22    5.59
  -6  -4   2   87.09    5.42
   6   4  -1  110.46    5.29
  -6  -4   1  106.51    4.61
   6   4   0    2.67    3.33
  -6  -4   0   -0.58    2.28
   6   4   1   14.33    2.77
  -6  -4  -1   15.94    2.64
   6   4   2  294.54   10.31
  -6  -4  -2  276.87    9.55
   6   4   3  677.63   19.91
  -6  -4  -3  681.47   20.22
   6   4   4   98.18    3.14
   6   4   4  104.52    4.36
  -6  -4  -4  103.59    4.43
   6   4   5   17.82    1.83
   6   4   5   18.32    2.65
  -6  -4  -5   19.69    3.21
   6   4   6  161.97    6.21
   6   4   6  160.02    5.86
  -6  -4  -6  159.80    6.57
   6   4   7   95.37    5.18
   6   4   7   99.83    5.07
  -6  -4  -7   96.25    5.43
   6   4   8   49.48    3.48
   6   4   8   47.26    2.79
  -6  -4  -8   52.28    3.87
   6   4   9   58.23    4.13
   6   4   9   63.13    3.20
  -6  -4  -9   61.16    4.22
   6   4  10    3.16    1.73
  -6  -4 -10    5.90    2.32
   6   4  11    0.28    1.94
  -6  -4 -11   -0.25    1.70
   6   4  12   22.21    3.76
   6   5  -6   -0.06    2.08
  -6  -5   6    8.75    3.42
   6   5  -5   31.05    4.29
  -6  -5   5   22.78    3.94
   6   5  -4  150.22    6.92
  -6  -5   4  161.35    6.73
   6   5  -3  193.79    7.75
  -6  -5   3  192.85    7.00
   6   5  -2   13.92    3.02
  -6  -5   2   23.39    4.07
   6   5  -1    2.26    2.18
  -6  -5   1    1.50    2.41
   6   5   0   51.80    4.12
  -6  -5   0   58.17    3.70
   6   5   1  209.35    8.24
  -6  -5  -1  208.66    7.65
   6   5   2  348.54   11.76
  -6  -5  -2  353.64   11.54
   6   5   3  296.78   10.21
  -6  -5  -3  285.66    9.57
  -6  -5  -3  278.97    8.48
   6   5   4   12.02    3.16
  -6  -5  -4   11.11    2.21
  -6  -5  -4    8.47    1.55
   6   5   5  117.63    4.75
  -6  -5  -5  113.59    4.39
  -6  -5  -5  110.40    5.69
   6   5   6   71.09    3.14
   6   5   6   67.11    3.65
  -6  -5  -6   77.40    4.10
   6   5   7   13.65    2.46
   6   5   7   13.84    2.66
  -6  -5  -7   18.02    2.79
   6   5   8   68.40    4.56
   6   5   8   71.54    4.44
  -6  -5  -8   72.93    4.78
   6   5   9   -0.18    1.69
   6   5   9   -0.85    1.48
  -6  -5  -9   -1.16    1.70
   6   5  10    8.29    2.26
   6   5  10    7.10    1.94
  -6  -5 -10    7.44    2.40
   6   5  11   22.52    3.02
  -6  -5 -11   28.63    3.74
   6   5  12   48.38    4.51
   6   6  -5   25.79    3.57
  -6  -6   5   30.47    4.48
   6   6  -4   36.31    3.90
  -6  -6   4   45.74    3.96
   6   6  -3   -0.31    1.98
  -6  -6   3    3.10    2.17
   6   6  -2   22.10    3.21
  -6  -6   2   34.40    3.70
   6   6  -1   76.01    5.26
  -6  -6   1   74.04    4.57
   6   6   0  114.12    7.00
  -6  -6   0  113.26    6.17
   6   6   1  131.77    6.91
  -6  -6  -1  149.30    7.56
   6   6   2    0.22    2.62
  -6  -6  -2    3.01    1.87
   6   6   3    1.79    2.48
  -6  -6  -3   -0.98    1.72
  -6  -6  -3   -0.40    0.77
   6   6   4    1.74    2.35
  -6  -6  -4    5.78    2.04
  -6  -6  -4    5.34    1.08
   6   6   5  264.81   11.24
  -6  -6  -5  268.73   11.12
  -6  -6  -5  244.79   14.09
   6   6   6  159.71    7.47
  -6  -6  -6  156.20    7.01
  -6  -6  -6  149.69    9.65
   6   6   7  246.33   10.75
  -6  -6  -7  240.04   10.42
  -6  -6  -7  237.21   17.34
   6   6   8   15.98    2.42
  -6  -6  -8   17.97    2.28
  -6  -6  -8   13.69    2.67
   6   6   9   30.29    2.97
  -6  -6  -9   33.30    3.06
  -6  -6  -9   28.35    6.73
   6   6  10   32.75    2.98
  -6  -6 -10   30.28    4.52
   6   6  11   29.08    2.77
  -6  -6 -11   25.09    4.84
  -6  -6 -12    1.72    1.38
   6   7  -4    2.21    2.25
  -6  -7   4    0.81    1.99
   6   7  -3    1.54    2.35
  -6  -7   3   -0.01    1.98
   6   7  -2   28.07    3.79
  -6  -7   2   22.67    3.43
   6   7  -1  135.39    6.22
  -6  -7   1  139.53    5.88
   6   7   0   72.72    4.53
  -6  -7   0   78.37    4.57
   6   7   1   29.98    3.48
  -6  -7  -1   28.37    2.87
   6   7   2    4.57    2.54
  -6  -7  -2    0.92    1.44
   6   7   3   23.46    4.02
  -6  -7  -3   20.00    2.60
  -6  -7  -3   24.08    2.04
   6   7   4   53.61    4.28
  -6  -7  -4   59.61    3.50
  -6  -7  -4   48.60    2.70
   6   7   5  176.02    8.82
  -6  -7  -5  184.52    8.32
  -6  -7  -5  166.32    7.49
   6   7   6   23.52    2.98
  -6  -7  -6   23.80    2.40
  -6  -7  -6   21.62    3.31
   6   7   7    4.06    2.32
  -6  -7  -7    6.38    1.71
  -6  -7  -7    9.56    1.65
   6   7   8   62.21    4.12
  -6  -7  -8   58.74    3.69
  -6  -7  -8   58.00    4.92
   6   7   9   93.15    5.17
  -6  -7  -9   76.32   11.46
   6   7  10   61.13    4.18
  -6  -7 -10   43.46   12.59
   6   7  11    7.16    2.33
  -6  -7 -11    4.20    1.31
   6   8  -3   14.91    3.12
  -6  -8   3   17.40    3.24
   6   8  -2   39.66    4.70
  -6  -8   2   51.43    4.06
   6   8  -1   63.84    4.88
  -6  -8   1   73.96    4.76
   6   8   0   18.81    3.27
  -6  -8   0   21.62    3.45
   6   8   1   11.57    3.00
  -6  -8  -1   13.84    2.29
   6   8   2   87.94    5.38
  -6  -8  -2   97.84    4.86
   6   8   3  116.01    5.48
  -6  -8  -3  127.60    5.04
   6   8   4   31.09    3.96
  -6  -8  -4   37.19    2.87
  -6  -8  -4   34.67    2.65
   6   8   5   15.36    3.52
  -6  -8  -5    9.34    1.63
  -6  -8  -5   10.84    2.01
   6   8   6    9.25    2.86
  -6  -8  -6   11.05    1.56
  -6  -8  -6   11.50    2.53
   6   8   7   19.19    3.08
  -6  -8  -7   19.20    2.27
  -6  -8  -7   15.01    2.92
   6   8   8   91.00    5.04
  -6  -8  -8   90.85    8.18
   6   8   9   89.11    4.94
  -6  -8  -9   87.47   17.34
   6   8  10   12.18    2.98
  -6  -8 -10    9.93    2.00
   6   8  11    2.97    2.11
  -6  -8 -11    3.06    1.57
   6   9  -2   25.78    3.48
  -6  -9   2   23.49    3.56
   6   9  -1    4.29    2.49
  -6  -9   1    5.14    2.42
   6   9   0   26.04    4.04
  -6  -9   0   22.31    2.98
   6   9   1  213.92    8.55
  -6  -9  -1  224.77    8.11
   6   9   2   77.55    5.19
  -6  -9  -2   90.82    4.52
   6   9   3   57.24    5.67
  -6  -9  -3   60.73    3.54
   6   9   4   18.34    4.03
  -6  -9  -4   19.26    2.30
   6   9   5   -0.94    2.36
  -6  -9  -5    2.42    1.66
  -6  -9  -5    1.08    1.44
   6   9   6   -0.47    2.41
  -6  -9  -6    0.11    1.60
   6   9   7   86.81    5.32
  -6  -9  -7   84.28    4.96
   6   9   8   82.66    4.69
  -6  -9  -8   67.76   10.86
   6   9   9   19.94    3.24
  -6  -9  -9   16.17    3.22
   6   9  10    2.51    2.12
  -6  -9 -10    5.23    2.39
   6  10   0   14.58    3.23
  -6 -10   0   19.53    3.34
   6  10   1   15.47    3.70
  -6 -10  -1   20.24    2.91
   6  10   2   25.77    3.63
  -6 -10  -2   24.19    2.92
   6  10   3   14.52    3.87
  -6 -10  -3   20.04    2.54
   6  10   4    4.15    2.46
  -6 -10  -4    2.74    2.11
   6  10   5   63.61    4.94
   6  10   6   64.26    5.20
  -6 -10  -6   75.64    4.70
   6  10   7   51.65    5.06
  -6 -10  -7   52.24    4.51
   6  10   8   28.58    4.01
  -6 -10  -8   30.19    3.95
   6  10   9    0.68    2.02
  -6 -10  -9    1.16    1.91
   6  11   4   26.90    4.14
   6  11   5   48.93    4.50
   6  11   6   36.47    4.53
   7  -6  -3   22.97    4.37
  -7   6   3   23.29    3.59
   7  -6  -2   69.88    5.45
  -7   6   2   82.68    5.58
   7  -6  -1   72.00    6.46
   7  -6   0   14.72    3.44
  -7   6   0   13.35    3.18
   7  -6   1   -1.29    2.20
  -7   6  -1    2.59    2.04
   7  -6   2    1.53    2.40
  -7   6  -2    5.55    3.48
   7  -6   3   34.98    5.11
  -7   6  -3   36.87    4.40
   7  -5  -4   54.61    5.20
  -7   5   4   47.02    4.83
   7  -5  -3   76.45    5.61
  -7   5   3   84.71    5.22
   7  -5  -2   66.92    5.15
  -7   5   2   63.58    4.46
   7  -5  -1    6.97    3.43
  -7   5   1    9.61    2.33
  -7   5   1    7.87    2.43
   7  -5   0   -0.99    2.04
  -7   5   0    0.60    1.95
  -7   5   0   -1.09    1.60
   7  -5   1   12.93    3.21
  -7   5  -1   12.54    3.25
   7  -5   2   58.62    5.21
  -7   5  -2   54.06    4.82
   7  -5   3   99.27    6.38
  -7   5  -3   95.90    5.81
   7  -5   4   51.83    4.84
  -7   5  -4   58.90    5.63
   7  -5   5    6.40    3.98
  -7   5  -5    7.10    3.81
  -7   4   5   39.60    4.89
   7  -4  -4  139.31    6.12
  -7   4   4  143.93    6.92
   7  -4  -3  192.80    8.23
  -7   4   3  169.90    6.75
  -7   4   3  174.28    7.72
   7  -4  -2   52.67    4.22
  -7   4   2   48.40    3.75
  -7   4   2   54.44    4.49
   7  -4  -1    4.88    2.25
  -7   4   1   -0.63    1.55
   7  -4   0   25.61    3.67
  -7   4   0   25.93    3.54
  -7   4   0   25.11    2.99
   7  -4   1   62.67    4.27
   7  -4   1   54.54    5.67
  -7   4  -1   68.89    5.20
   7  -4   2   59.30    5.45
  -7   4  -2   65.84    5.39
   7  -4   3   63.73    5.26
  -7   4  -3   50.05    4.68
   7  -4   4   11.85    3.18
  -7   4  -4    7.27    3.60
   7  -4   5    2.80    2.18
  -7   4  -5    1.34    2.77
   7  -4   6   24.98    3.81
  -7   4  -6   22.18    4.42
   7  -4   7   28.02    4.40
  -7   4  -7   19.78    4.38
  -7   3   6   20.12    3.55
  -7   3   5   38.52    4.80
   7  -3  -4   53.09    3.76
  -7   3   4   46.21    3.41
  -7   3   4   54.26    4.79
   7  -3  -3   55.85    4.39
  -7   3   3   51.69    3.99
  -7   3   3   64.38    5.18
   7  -3  -2    0.88    1.55
  -7   3   2    1.16    1.77
  -7   3   2    0.80    1.85
   7  -3  -1   28.65    3.08
  -7   3   1   35.25    3.32
   7  -3   0  136.24    5.82
   7  -3   0  131.94    5.57
  -7   3   0  132.18    5.71
   7  -3   1  138.47    5.98
   7  -3   1  129.88    7.22
  -7   3  -1  135.11    6.08
   7  -3   2  134.17    6.41
   7  -3   2  111.07    8.08
  -7   3  -2  137.52    6.11
   7  -3   3    1.15    1.88
  -7   3  -3    1.25    2.78
   7  -3   4   53.03    5.16
  -7   3  -4   45.29    4.32
   7  -3   5   36.60    3.94
  -7   3  -5   34.91    3.93
   7  -3   6   51.66    4.70
  -7   3  -6   67.10    5.96
   7  -3   7   13.15    3.38
  -7   3  -7   23.80    4.88
   7  -3   8    6.92    3.05
  -7   3  -8   17.34    4.88
   7  -2  -6   57.21    6.28
   7  -2  -5   61.51    5.78
  -7   2   5   52.55    3.69
   7  -2  -4    9.68    2.85
  -7   2   4    8.03    2.54
   7  -2  -3    8.72    2.78
  -7   2   3    9.82    1.91
   7  -2  -2   15.15    2.35
   7  -2  -2   16.83    3.23
  -7   2   2   10.79    1.95
   7  -2  -1  283.57    8.30
   7  -2  -1  252.19   15.02
  -7   2   1  293.86    9.25
   7  -2   0  209.87    9.43
   7  -2   0  212.82   12.09
  -7   2   0  225.23   10.57
   7  -2   1   93.60    5.68
   7  -2   1   90.98    8.09
  -7   2  -1   90.63    6.15
   7  -2   2   -1.74    1.49
   7  -2   2    0.33    0.71
  -7   2  -2    1.27    2.66
   7  -2   3   75.45    5.06
   7  -2   3   58.43    8.72
  -7   2  -3   82.71    6.14
   7  -2   4    8.97    1.85
  -7   2  -4   12.08    3.73
   7  -2   5   34.84    4.05
  -7   2  -5   31.64    3.81
   7  -2   6   64.92    4.46
  -7   2  -6   63.14    5.63
   7  -2   7    7.38    2.84
  -7   2  -7    4.15    3.03
   7  -2   8    1.59    2.34
  -7   2  -8    2.29    2.99
   7  -2   9   22.16    3.89
  -7   2  -9   21.97    4.49
   7  -1  -7   36.16   10.76
   7  -1  -6   29.81    9.37
  -7   1   6   27.69    3.27
   7  -1  -5    6.84    2.39
  -7   1   5   10.52    2.63
   7  -1  -4    2.46    1.48
  -7   1   4    2.55    1.60
   7  -1  -3    2.85    1.07
  -7   1   3    1.64    1.60
   7  -1  -2   58.87    2.96
   7  -1  -2   63.69    5.75
  -7   1   2   63.55    3.84
   7  -1  -1  299.23   12.29
   7  -1  -1  283.86   22.25
  -7   1   1  317.14   13.80
   7  -1   0   63.31    3.14
   7  -1   0   58.29    8.45
  -7   1   0   55.49    4.19
   7  -1   1    2.98    1.45
   7  -1   1   -1.41    1.65
  -7   1  -1    2.98    3.58
   7  -1   2   74.30    4.42
   7  -1   2   69.83    6.96
  -7   1  -2   75.69    5.20
   7  -1   3  128.06    6.49
   7  -1   3  107.00    8.20
  -7   1  -3  126.39    7.40
   7  -1   4   85.08    5.26
   7  -1   4   79.80    4.21
  -7   1  -4   95.20    6.58
   7  -1   5   46.75    3.33
  -7   1  -5   56.36    4.49
   7  -1   6    4.85    2.77
  -7   1  -6    2.50    2.74
   7  -1   7   16.50    3.19
  -7   1  -7   23.06    4.17
   7  -1   8   58.07    5.06
  -7   1  -8   55.42    5.34
   7  -1   9   27.74    4.05
  -7   1  -9   28.71    5.19
  -7   1 -10   23.42    4.41
   7   0  -7   25.04    6.59
  -7   0   7   30.32    3.61
   7   0  -6    4.03    2.36
  -7   0   6    2.31    2.17
   7   0  -5   10.31    3.64
  -7   0   5   12.23    2.50
   7   0  -4   36.76    4.99
  -7   0   4   32.72    3.47
   7   0  -3   73.45   11.47
  -7   0   3   69.73    3.93
   7   0  -2   35.13    5.85
  -7   0   2   35.57    3.37
   7   0  -1   49.29    4.48
  -7   0   1   49.86    3.77
   7   0   0    3.40    1.07
   7   0   0    3.39    1.33
  -7   0   0    0.50    2.07
   7   0   1  129.76    5.83
   7   0   1  122.90    7.03
  -7   0  -1  125.68    6.61
   7   0   2  320.41   12.45
   7   0   2  293.96   13.67
  -7   0  -2  325.91   13.79
   7   0   3  200.75    8.58
   7   0   3  193.63    8.37
  -7   0  -3  208.88    9.86
   7   0   4   65.76    3.53
   7   0   4   60.55    2.94
  -7   0  -4   69.99    5.47
   7   0   5   -0.11    1.59
  -7   0  -5    0.88    2.77
   7   0   6    5.05    1.94
  -7   0  -6    5.64    2.91
   7   0   7   66.10    4.51
  -7   0  -7   68.36    4.99
   7   0   8   94.09    5.33
  -7   0  -8  100.72    6.51
   7   0   9   21.98    3.07
  -7   0  -9   22.40    4.52
   7   0  10   -0.82    2.08
  -7   0 -10   -2.45    2.38
   7   1  -6    9.93    2.98
  -7  -1   6    5.20    2.45
   7   1  -5   43.35    7.83
  -7  -1   5   47.30    4.38
   7   1  -4   50.69    9.43
  -7  -1   4   48.90    4.40
   7   1  -3   88.26   14.75
  -7  -1   3   91.55    4.92
   7   1  -2   51.20   10.78
  -7  -1   2   49.10    4.00
   7   1  -1   -0.06    1.97
  -7  -1   1   -0.50    1.92
   7   1   0    6.71    2.06
  -7  -1   0   10.97    3.08
   7   1   1  335.89    9.40
   7   1   1  332.93   10.96
  -7  -1  -1  360.88   11.79
   7   1   2  236.06    7.31
   7   1   2  225.52    7.97
  -7  -1  -2  240.48    8.97
   7   1   3   19.74    2.39
   7   1   3   18.09    2.37
  -7  -1  -3   16.22    3.33
   7   1   4    0.62    1.22
   7   1   4   -0.92    1.32
  -7  -1  -4    6.04    4.05
   7   1   5  100.86    5.67
   7   1   5   94.41    4.49
  -7  -1  -5   98.06    5.91
   7   1   6  235.31   10.68
  -7  -1  -6  242.93   11.57
   7   1   7  125.32    5.39
  -7  -1  -7  129.71    6.27
   7   1   8   21.26    3.15
  -7  -1  -8   19.09    3.66
   7   1   9    5.46    2.20
  -7  -1  -9    7.79    3.02
   7   1  10    7.26    1.98
  -7  -1 -10   14.01    3.40
   7   1  11   14.08    3.59
  -7  -1 -11   12.32    4.06
   7   2  -6   18.72    4.52
  -7  -2   6   16.38    2.87
   7   2  -5   65.09   13.53
  -7  -2   5   64.44    4.56
   7   2  -4   50.13   10.02
  -7  -2   4   50.68    4.68
   7   2  -3   13.96    2.64
  -7  -2   3   12.11    2.64
   7   2  -2   65.30   10.13
  -7  -2   2   67.17    5.08
   7   2  -1  251.17   11.09
  -7  -2   1  252.02   11.01
   7   2   0   49.31    8.19
  -7  -2   0   49.16    3.73
   7   2   1  177.19    7.30
  -7  -2  -1  182.18    7.13
   7   2   2  122.40    4.13
   7   2   2  128.12    6.10
  -7  -2  -2  135.12    5.95
   7   2   3    6.68    1.36
   7   2   3    7.94    2.84
  -7  -2  -3    9.56    2.91
   7   2   4   59.40    2.78
   7   2   4   67.79    3.28
  -7  -2  -4   72.49    4.32
   7   2   5  357.67   14.03
   7   2   5  338.77   13.01
   7   2   6  277.59   11.39
   7   2   6  273.67   10.52
  -7  -2  -6  309.13   13.30
   7   2   7   56.47    3.33
   7   2   7   59.76    2.67
  -7  -2  -7   68.14    5.12
   7   2   8   15.81    2.48
  -7  -2  -8   17.99    3.74
   7   2   9    4.39    2.60
  -7  -2  -9    2.43    3.98
   7   2  10   67.30    4.62
  -7  -2 -10   67.62    5.77
   7   2  11   34.47    3.95
  -7  -2 -11   35.91    4.73
   7   3  -6   28.57    7.54
  -7  -3   6   34.61    4.02
   7   3  -5   28.95    5.02
  -7  -3   5   36.43    4.48
   7   3  -4   20.39    5.97
  -7  -3   4   21.40    3.33
   7   3  -3   42.53    9.19
  -7  -3   3   40.58    3.95
   7   3  -2  187.20   11.44
  -7  -3   2  183.34    7.21
   7   3  -1  182.22    9.25
  -7  -3   1  186.58    9.01
   7   3   0  182.71    9.47
  -7  -3   0  185.45    8.86
   7   3   1   13.42    3.03
  -7  -3  -1   15.48    2.81
   7   3   2   31.13    3.35
  -7  -3  -2   32.65    3.20
   7   3   3   53.32    2.18
   7   3   3   61.97    3.76
  -7  -3  -3   62.89    3.96
   7   3   4  286.62    8.52
   7   3   4  297.32    9.44
  -7  -3  -4  313.00   10.53
   7   3   5  248.07   10.03
   7   3   5  261.39   10.60
  -7  -3  -5  280.85   12.23
   7   3   6  140.35    6.47
   7   3   6  143.74    6.49
  -7  -3  -6  160.60    8.24
   7   3   7   -0.01    1.36
   7   3   7    0.88    1.25
  -7  -3  -7   -0.39    2.62
   7   3   8   21.33    2.65
   7   3   8   17.34    1.92
  -7  -3  -8   21.10    3.42
   7   3   9   59.61    4.95
  -7  -3  -9   58.06    5.27
   7   3  10   44.00    3.94
  -7  -3 -10   46.83    3.90
   7   3  11   38.19    4.31
  -7  -3 -11   36.56    3.93
   7   4  -5    4.73    2.80
  -7  -4   5    0.18    1.66
   7   4  -4    2.21    2.46
  -7  -4   4    1.79    1.99
   7   4  -3   95.22    6.26
  -7  -4   3  102.47    5.80
   7   4  -2  106.52    5.86
  -7  -4   2  125.05    6.32
   7   4  -1   90.04    6.59
  -7  -4   1   87.34    5.87
   7   4   0   36.49    4.08
  -7  -4   0   38.48    3.32
   7   4   1   26.59    3.54
  -7  -4  -1   25.59    3.27
   7   4   2   12.58    2.84
  -7  -4  -2   16.99    3.14
   7   4   3  174.13    7.96
  -7  -4  -3  181.17    8.41
   7   4   4  378.32   14.07
   7   4   4  405.63   15.92
  -7  -4  -4  426.62   16.95
   7   4   5  195.49    8.09
   7   4   5  197.64    8.73
  -7  -4  -5  219.46    9.88
   7   4   6    0.84    1.13
   7   4   6   -1.50    1.72
  -7  -4  -6   -1.89    2.20
   7   4   7   48.41    3.26
   7   4   7   49.87    3.06
  -7  -4  -7   57.29    4.14
   7   4   8   66.90    4.08
   7   4   8   70.01    3.49
  -7  -4  -8   70.51    4.99
   7   4   9   96.80    5.18
   7   4   9  102.97    4.24
  -7  -4  -9  110.20    5.99
   7   4  10   44.19    4.07
  -7  -4 -10   46.63    4.53
   7   4  11   28.12    3.85
  -7  -4 -11   28.50    4.00
   7   5  -5    1.58    2.45
  -7  -5   5    3.56    3.02
   7   5  -4   57.02    5.08
  -7  -5   4   58.62    4.58
   7   5  -3  116.76    6.96
  -7  -5   3  131.93    6.68
   7   5  -2  137.66    6.86
  -7  -5   2  141.03    6.77
   7   5  -1   26.61    4.06
  -7  -5   1   28.19    3.53
   7   5   0    0.44    2.70
  -7  -5   0    2.69    1.80
   7   5   1  160.84    8.46
  -7  -5  -1  152.44    7.57
   7   5   2  372.35   15.13
  -7  -5  -2  337.18   13.68
   7   5   3   68.58    3.91
  -7  -5  -3   73.62    4.34
   7   5   4  158.25    8.04
  -7  -5  -4  170.00    8.02
  -7  -5  -4  136.57    6.24
   7   5   5   11.45    2.76
  -7  -5  -5   18.39    2.57
  -7  -5  -5   13.85    2.57
   7   5   6    5.43    1.66
   7   5   6    2.28    1.80
  -7  -5  -6    6.18    2.63
   7   5   7    0.93    1.22
   7   5   7    0.94    1.62
  -7  -5  -7    1.83    1.97
   7   5   8  162.91    6.04
   7   5   8  177.82    6.09
  -7  -5  -8  177.09    6.86
   7   5   9   68.46    4.77
   7   5   9   52.51    3.92
  -7  -5  -9   56.17    4.65
   7   5  10    1.29    1.75
   7   5  10    0.64    1.41
  -7  -5 -10    8.49    2.69
   7   5  11    0.73    1.90
  -7  -5 -11    2.00    1.81
   7   6  -4   58.31    5.85
  -7  -6   4   62.25    5.90
   7   6  -3   36.40    4.40
  -7  -6   3   41.04    4.46
   7   6  -2   14.07    3.33
  -7  -6   2   15.36    3.21
   7   6  -1    2.35    3.28
  -7  -6   1   -1.90    1.88
   7   6   0   50.94    4.21
  -7  -6   0   66.01    4.31
   7   6   1  176.89    7.46
  -7  -6  -1  185.91    7.03
   7   6   2  141.94    7.94
  -7  -6  -2  137.29    7.14
   7   6   3    6.82    3.71
  -7  -6  -3    0.11    1.55
   7   6   4    9.27    3.13
  -7  -6  -4    4.29    1.84
   7   6   5   13.38    2.84
  -7  -6  -5   13.41    2.35
  -7  -6  -5   11.43    2.19
   7   6   6   72.52    4.35
  -7  -6  -6   69.09    3.70
  -7  -6  -6   59.27    4.20
   7   6   7  161.59    5.79
  -7  -6  -7  171.91    6.04
  -7  -6  -7  138.76   13.95
   7   6   8   96.80    4.51
  -7  -6  -8  108.60    5.06
  -7  -6  -8   77.78   15.05
   7   6   9    3.25    2.02
  -7  -6  -9    1.27    1.70
   7   6  10    2.75    1.23
  -7  -6 -10   11.56    3.40
   7   6  11   17.70    2.94
   7   7  -3    5.68    2.68
  -7  -7   3    8.38    3.73
   7   7  -2    2.08    2.14
  -7  -7   2    2.21    2.22
   7   7  -1   23.11    3.79
  -7  -7   1   25.14    3.68
   7   7   0  134.31    7.31
  -7  -7   0  132.95    6.25
   7   7   1   89.66    6.06
  -7  -7  -1   96.57    5.07
   7   7   2   30.71    4.49
  -7  -7  -2   31.69    3.55
   7   7   3    1.55    2.41
  -7  -7  -3    0.68    1.38
   7   7   4   75.60    5.39
  -7  -7  -4   75.14    4.22
   7   7   5   29.37    4.10
  -7  -7  -5   23.72    2.46
  -7  -7  -5   20.69    3.57
   7   7   6   51.49    4.35
  -7  -7  -6   43.30    3.14
  -7  -7  -6   44.12    8.25
   7   7   7   59.50    4.43
  -7  -7  -7   58.34    3.73
  -7  -7  -7   43.40    9.55
   7   7   8    3.50    2.02
  -7  -7  -8    6.52    1.98
  -7  -7  -8    7.16    1.34
   7   7   9    0.87    1.73
  -7  -7  -9   -2.53    1.44
  -7  -7  -9   -0.37    1.35
   7   7  10   48.99    3.65
  -7  -7 -10   33.90    8.41
   7   7  11   21.76    2.91
  -7  -7 -11   18.96    4.00
   7   8  -2   18.01    4.13
  -7  -8   2   18.09    3.43
   7   8  -1   72.44    4.95
  -7  -8   1   72.31    4.65
   7   8   0  103.10    5.66
  -7  -8   0  118.61    5.40
   7   8   1   53.66    5.48
  -7  -8  -1   56.49    4.21
   7   8   2    1.02    2.62
  -7  -8  -2    1.93    1.72
   7   8   3   24.60    4.61
  -7  -8  -3   24.53    3.06
   7   8   4  107.18    6.39
  -7  -8  -4  106.21    5.08
   7   8   5   18.19    3.76
  -7  -8  -5   18.38    2.55
   7   8   6    9.33    3.28
  -7  -8  -6    9.20    2.19
  -7  -8  -6    2.64    0.87
   7   8   7    5.30    2.75
  -7  -8  -7   -0.48    1.38
  -7  -8  -7    4.76    1.40
   7   8   8   13.53    2.53
  -7  -8  -8   14.85    2.73
   7   8   9   35.05    3.56
  -7  -8  -9   23.86    5.02
   7   8  10   17.69    3.08
  -7  -8 -10   13.21    3.69
   7   9   0   -2.04    2.42
  -7  -9   0    1.87    1.68
   7   9   1   11.85    3.90
  -7  -9  -1   14.66    3.05
   7   9   2   37.90    4.40
  -7  -9  -2   38.23    3.59
   7   9   3   60.22    5.62
  -7  -9  -3   55.73    4.35
   7   9   4   73.69    6.27
  -7  -9  -4   79.68    4.45
   7   9   5   15.30    3.76
  -7  -9  -5   25.08    3.14
   7   9   6   -0.32    2.31
  -7  -9  -6    0.01    1.45
   7   9   7   11.15    2.92
  -7  -9  -7    8.89    1.95
   7   9   8   47.74    4.48
  -7  -9  -8   27.66    7.24
   7   9   9   28.43    3.87
  -7  -9  -9   21.83    4.14
   7  10   2   26.42    4.33
  -7 -10  -2   17.46    3.02
   7  10   3   64.46    5.46
  -7 -10  -3   73.17    4.88
   7  10   4    7.16    2.83
  -7 -10  -4    3.72    2.08
   7  10   5    1.63    2.58
   7  10   6   34.10    4.18
   7  10   7   43.48    4.32
   7  10   8   15.86    3.98
   8  -5  -1   44.66    4.28
   8  -5   0    8.53    3.36
  -8   5   0    0.42    1.85
   8  -5   1    0.26    1.99
  -8   5  -1    0.24    1.97
   8  -5   2   17.22    3.91
  -8   5  -2   15.49    3.35
   8  -4  -2   81.45    6.60
  -8   4   2   79.63    5.35
   8  -4  -1   33.30    4.49
   8  -4  -1   19.32    4.76
  -8   4   1   21.76    2.82
   8  -4   0    2.38    2.07
   8  -4   0    1.51    0.81
  -8   4   0   -0.57    1.90
   8  -4   1   14.00    3.41
  -8   4  -1   15.16    3.23
   8  -4   2   48.89    4.56
  -8   4  -2   52.40    4.87
   8  -4   3   62.57    4.96
  -8   4  -3   75.05    6.03
   8  -4   4   28.91    3.51
  -8   4  -4   33.13    4.96
   8  -4   5   13.62    3.68
  -8   4  -5   16.19    4.66
   8  -3  -4   24.48    7.28
   8  -3  -3   21.46    5.12
  -8   3   3   20.72    2.87
   8  -3  -2   29.72    7.08
  -8   3   2   36.45    3.28
   8  -3  -1    7.91    2.62
  -8   3   1    0.79    1.76
   8  -3   0   21.08    2.64
   8  -3   0   15.98    3.96
  -8   3   0   21.14    3.80
   8  -3   1   88.89    4.91
   8  -3   1   80.47    6.96
  -8   3  -1   92.63    6.09
   8  -3   2  166.34    6.90
  -8   3  -2  169.10    7.17
   8  -3   3   62.34    4.80
  -8   3  -3   63.25    5.17
   8  -3   4    0.67    1.88
  -8   3  -4   -0.72    2.82
   8  -3   5    4.54    2.99
  -8   3  -5    5.49    3.73
   8  -3   6   32.68    4.47
  -8   3  -6   40.86    4.92
   8  -2  -5   27.94   10.00
   8  -2  -4   27.65    5.97
  -8   2   4   28.33    3.54
   8  -2  -3    1.97    1.05
  -8   2   3    6.74    2.70
   8  -2  -2    9.72    1.90
  -8   2   2    1.57    1.63
   8  -2  -1    1.61    1.75
   8  -2  -1    3.55    1.34
  -8   2   1    1.80    2.17
   8  -2   0   72.72    4.24
   8  -2   0   65.22    4.44
  -8   2   0   72.66    4.93
   8  -2   1  146.69    5.86
   8  -2   1  136.66    7.35
  -8   2  -1  149.16    6.94
   8  -2   2  145.70    6.18
  -8   2  -2  142.31    7.28
   8  -2   3    1.78    1.87
  -8   2  -3    4.00    2.91
   8  -2   4   28.55    2.88
  -8   2  -4   40.42    4.79
   8  -2   5   41.84    3.64
  -8   2  -5   41.63    4.53
   8  -2   6   63.50    5.13
  -8   2  -6   59.04    5.32
   8  -2   7   32.42    4.03
  -8   2  -7   42.67    5.65
   8  -2   8   15.02    3.95
  -8   2  -8   14.63    4.12
   8  -1  -5   38.83   10.17
  -8   1   5   45.20    4.16
   8  -1  -4   16.62    3.65
  -8   1   4   18.28    3.24
   8  -1  -3    0.10    1.28
  -8   1   3    1.81    2.53
   8  -1  -2   28.67    5.17
  -8   1   2   33.50    3.67
   8  -1  -1   74.84   13.37
  -8   1   1   89.71    5.19
   8  -1   0  166.49    5.76
   8  -1   0  147.39   16.12
  -8   1   0  173.83    7.24
   8  -1   1  122.03    4.69
   8  -1   1  109.35   11.64
  -8   1  -1  129.56    6.26
   8  -1   2    3.72    1.72
  -8   1  -2    0.77    2.71
   8  -1   3    1.40    1.53
   8  -1   3    1.59    1.24
  -8   1  -3    1.26    2.91
   8  -1   4    6.37    2.26
  -8   1  -4    5.21    3.41
   8  -1   5   29.10    3.45
  -8   1  -5   30.79    4.53
   8  -1   6   13.06    2.50
  -8   1  -6   13.19    3.31
   8  -1   7   12.34    2.87
  -8   1  -7   12.18    4.04
   8  -1   8   -1.30    2.07
  -8   1  -8   -2.80    3.14
   8   0  -5    3.83    2.86
  -8   0   5    3.71    1.78
   8   0  -4    3.18    1.71
  -8   0   4   -0.64    1.64
   8   0  -3   21.97    3.43
  -8   0   3   27.90    3.77
   8   0  -2  110.62   12.31
  -8   0   2  121.34    5.95
   8   0  -1   20.91    4.31
  -8   0   1   21.61    2.93
   8   0   0   17.48    2.90
  -8   0   0   16.94    3.09
   8   0   1    6.59    1.60
   8   0   1    9.89    1.96
  -8   0  -1   10.67    3.01
   8   0   2   17.28    2.03
   8   0   2   16.24    2.75
  -8   0  -2   18.71    4.15
   8   0   3   54.51    3.06
   8   0   3   56.19    3.53
  -8   0  -3   59.11    4.74
   8   0   4  235.11    7.44
  -8   0  -4  234.49    9.10
   8   0   5  128.19    5.67
  -8   0  -5  142.78    7.11
   8   0   6    7.15    2.22
  -8   0  -6    6.19    3.23
   8   0   7    9.78    2.98
  -8   0  -7    5.28    4.40
   8   0   8   20.84    3.15
  -8   0  -8   22.80    4.62
   8   0   9   24.78    3.58
  -8   0  -9   24.88    4.89
   8   1  -5   -0.29    2.20
  -8  -1   5    0.55    1.77
   8   1  -4   18.50    5.10
  -8  -1   4   24.47    3.45
   8   1  -3   43.82   11.66
  -8  -1   3   58.81    4.95
   8   1  -2   82.64    6.64
  -8  -1   2   96.21    5.70
   8   1  -1   10.09    2.18
  -8  -1   1    6.98    3.15
   8   1   0    5.00    1.33
  -8  -1   0    5.05    2.99
   8   1   1   22.47    3.26
  -8  -1  -1   18.86    3.24
   8   1   2   97.29    4.90
   8   1   2  100.32    6.24
  -8  -1  -2  112.65    6.96
   8   1   3   73.81    4.21
   8   1   3   71.92    5.02
  -8  -1  -3   78.68    5.85
   8   1   4   53.35    2.93
   8   1   4   53.87    3.59
  -8  -1  -4   62.13    5.57
   8   1   5    6.94    1.59
   8   1   5    3.63    1.23
  -8  -1  -5    6.49    3.36
   8   1   6   33.79    3.38
  -8  -1  -6   33.02    4.88
   8   1   7   67.97    4.11
  -8  -1  -7   73.08    5.30
   8   1   8   24.26    2.92
  -8  -1  -8   29.77    4.93
   8   1   9   35.87    4.27
  -8  -1  -9   32.28    3.96
   8   1  10    1.52    2.07
  -8  -1 -10    3.78    4.07
   8   2  -5   11.18    3.37
  -8  -2   5    7.92    2.75
   8   2  -4   42.54    8.71
  -8  -2   4   43.74    4.06
   8   2  -3  155.84   14.84
  -8  -2   3  155.22    6.78
   8   2  -2   50.28    7.53
  -8  -2   2   48.58    4.74
   8   2  -1    1.97    1.29
  -8  -2   1   -2.17    2.14
   8   2   0   82.13   14.12
  -8  -2   0   81.21    4.69
   8   2   1   91.10    6.07
  -8  -2  -1  107.43    6.69
   8   2   2   15.19    3.06
  -8  -2  -2   14.67    3.01
   8   2   3   17.34    1.57
   8   2   3   17.08    2.67
  -8  -2  -3   15.50    3.47
   8   2   4    3.96    1.45
   8   2   4   -0.07    1.76
  -8  -2  -4   -3.06    2.53
   8   2   5   27.59    2.34
   8   2   5   27.02    2.61
  -8  -2  -5   31.19    4.67
   8   2   6  130.70    4.95
   8   2   6  121.68    4.44
  -8  -2  -6  135.31    6.70
   8   2   7   63.22    4.48
  -8  -2  -7   67.08    5.22
   8   2   8   16.79    2.87
  -8  -2  -8   13.16    3.45
   8   2   9    1.15    1.79
  -8  -2  -9    4.18    2.68
   8   2  10   -0.34    1.80
  -8  -2 -10    2.93    2.75
   8   3  -5   21.41    4.08
  -8  -3   5   29.88    4.05
   8   3  -4   33.88    8.52
  -8  -3   4   40.46    4.50
   8   3  -3    2.38    1.41
  -8  -3   3    7.00    3.01
   8   3  -2   77.49   10.05
  -8  -3   2   74.80    5.02
   8   3  -1   88.93    5.58
  -8  -3   1   97.03    5.19
   8   3   0  191.18    7.74
  -8  -3   0  206.49    7.76
   8   3   1   90.97    5.22
  -8  -3  -1   93.33    4.90
   8   3   2   13.62    3.25
  -8  -3  -2   17.07    3.38
   8   3   3   10.22    2.87
  -8  -3  -3   11.87    3.44
   8   3   4   27.70    2.02
   8   3   4   26.90    2.99
  -8  -3  -4   29.11    3.38
   8   3   5   87.34    3.73
   8   3   5   81.88    4.33
  -8  -3  -5   98.76    5.87
   8   3   6  122.36    4.74
   8   3   6  129.84    5.21
  -8  -3  -6  145.83    6.96
   8   3   7   85.97    4.22
   8   3   7   76.30    3.97
  -8  -3  -7   94.65    5.67
   8   3   8    9.58    2.17
  -8  -3  -8   13.73    3.88
   8   3   9   15.56    2.99
  -8  -3  -9   13.26    3.50
   8   3  10   16.97    2.91
  -8  -3 -10   21.47    3.75
   8   4  -4    4.27    2.38
  -8  -4   4    5.31    2.97
   8   4  -3    5.76    2.67
  -8  -4   3    3.59    2.27
   8   4  -2   15.86    3.80
  -8  -4   2   18.62    3.32
   8   4  -1   72.01    6.01
  -8  -4   1   75.82    5.48
   8   4   0  100.32    6.28
  -8  -4   0  108.36    6.01
   8   4   1   48.60    4.82
  -8  -4  -1   43.61    3.66
   8   4   2   14.01    3.63
  -8  -4  -2    9.02    2.57
   8   4   3  130.56    7.59
  -8  -4  -3  139.29    7.64
   8   4   4  141.30    7.34
  -8  -4  -4  163.31    8.42
   8   4   5  182.87    5.58
   8   4   5  180.43    6.31
   8   4   6   24.79    2.31
   8   4   6   25.20    2.66
  -8  -4  -6   28.60    4.43
   8   4   7   -1.27    1.21
   8   4   7    1.47    1.67
  -8  -4  -7    2.17    2.62
   8   4   8    8.96    2.24
   8   4   8    8.15    1.63
  -8  -4  -8   12.53    3.27
   8   4   9   70.07    4.60
  -8  -4  -9   86.55    5.65
   8   4  10   35.79    3.83
  -8  -4 -10   31.22    4.39
   8   4  11   29.37    3.99
  -8  -4 -11   34.53    4.25
   8   5  -4   -1.89    2.23
   8   5  -3   36.64    4.69
  -8  -5   3   37.13    4.91
   8   5  -2   54.06    5.54
  -8  -5   2   47.32    5.33
   8   5  -1   87.76    5.68
  -8  -5   1   89.30    6.15
   8   5   0   32.00    4.82
  -8  -5   0   20.71    3.82
   8   5   1   -2.01    2.22
  -8  -5  -1    3.59    2.72
   8   5   2   85.40    5.78
  -8  -5  -2   89.06    4.84
   8   5   3  199.82    7.74
  -8  -5  -3  199.46    7.30
   8   5   4  136.98    6.03
  -8  -5  -4  158.35    6.92
   8   5   5   44.20    3.80
  -8  -5  -5   45.84    4.33
   8   5   6    5.79    1.76
   8   5   6    8.49    2.14
  -8  -5  -6   10.04    3.10
   8   5   7   -1.43    1.14
   8   5   7   -0.39    1.50
  -8  -5  -7    0.00    1.96
   8   5   8   43.61    3.31
   8   5   8   46.71    3.49
  -8  -5  -8   45.97    3.64
   8   5   9   85.68    4.97
   8   5   9   90.88    4.56
  -8  -5  -9  103.47    6.33
   8   5  10   39.09    3.85
  -8  -5 -10   39.04    4.23
   8   5  11    9.86    3.19
  -8  -5 -11    6.69    2.94
   8   6  -3   59.49    5.59
  -8  -6   3   57.25    4.88
   8   6  -2   55.62    5.85
  -8  -6   2   57.76    5.15
   8   6  -1   25.33    4.76
  -8  -6   1   27.31    4.06
   8   6   0    1.98    2.68
  -8  -6   0   -0.08    2.11
   8   6   1  112.27    6.92
  -8  -6  -1  115.39    6.25
   8   6   2  170.69    7.16
  -8  -6  -2  182.14    7.26
   8   6   3  172.57    7.46
  -8  -6  -3  149.33    6.40
   8   6   4   48.79    4.55
  -8  -6  -4   52.59    4.30
   8   6   5    5.07    2.71
  -8  -6  -5    2.02    1.79
   8   6   6    0.37    1.89
  -8  -6  -6    0.48    1.65
  -8  -6  -6    0.71    0.54
   8   6   7   23.06    3.53
  -8  -6  -7   24.61    3.06
  -8  -6  -7   14.30    2.88
   8   6   8   64.97    3.77
  -8  -6  -8   76.16    5.08
  -8  -6  -8   60.34    4.00
   8   6   9   30.83    3.18
   8   6   9   30.15    2.89
  -8  -6  -9   37.59    3.68
   8   6  10   12.28    2.65
   8   6  10    9.79    2.07
  -8  -6 -10    9.90    2.93
   8   7  -2    9.54    3.31
  -8  -7   2   21.32    4.19
   8   7  -1   -1.31    2.69
  -8  -7   1    2.34    2.16
   8   7   0   20.52    4.19
  -8  -7   0   20.65    3.82
   8   7   1   73.95    6.36
  -8  -7  -1   81.78    5.78
   8   7   2   49.69    4.93
  -8  -7  -2   61.64    4.31
   8   7   3   48.69    5.32
  -8  -7  -3   42.16    4.32
   8   7   4    2.07    2.35
  -8  -7  -4    1.51    1.78
   8   7   5   28.14    4.16
  -8  -7  -5   39.88    3.79
   8   7   6   79.68    5.28
  -8  -7  -6   96.59    5.38
   8   7   7  159.24    6.29
  -8  -7  -7  176.70    6.18
   8   7   8   33.17    3.48
  -8  -7  -8   34.21    2.90
  -8  -7  -8   21.45    5.60
   8   7   9    4.37    1.83
  -8  -7  -9    5.96    1.68
  -8  -7  -9    3.94    1.32
   8   7  10    1.92    1.71
  -8  -7 -10    0.10    0.98
   8   8   0   54.32    5.80
  -8  -8   0   65.12    5.72
   8   8   1   70.51    6.40
  -8  -8  -1   80.58    5.21
   8   8   2   52.70    5.69
  -8  -8  -2   51.68    4.55
   8   8   3   -0.22    2.89
  -8  -8  -3    0.09    1.65
   8   8   4   25.34    5.03
  -8  -8  -4   20.26    3.01
   8   8   5   39.30    4.53
  -8  -8  -5   42.27    3.65
   8   8   6   29.54    3.47
  -8  -8  -6   29.49    3.11
   8   8   7   19.62    3.01
  -8  -8  -7   22.07    3.02
   8   8   8    4.11    2.07
  -8  -8  -8    0.27    1.43
   8   8   9    5.45    1.83
  -8  -8  -9    2.70    1.58
   8   9   1    5.16    2.97
  -8  -9  -1   12.19    3.23
   8   9   2    2.28    3.00
  -8  -9  -2    4.26    2.77
   8   9   3    9.81    4.01
  -8  -9  -3    3.77    1.92
   8   9   4   36.01    5.59
  -8  -9  -4   36.44    3.83
   8   9   5   33.35    4.82
  -8  -9  -5   34.90    3.90
   8   9   6   29.25    9.82
  -8  -9  -6   35.14    3.63
   8   9   7    3.85    3.04
   8   9   8   13.88    3.04
   9  -3  -1    9.19    2.60
  -9   3   1   12.06    3.19
   9  -3   0    2.50    1.48
  -9   3   0    1.20    2.11
   9  -3   1    2.17    1.70
  -9   3  -1    3.64    2.37
   9  -3   2   38.79    3.99
  -9   3  -2   38.61    5.19
   9  -3   3   76.57    5.23
  -9   3  -3   77.56    5.81
   9  -3   4   23.50    3.95
  -9   3  -4   20.83    3.98
   9  -2  -2   13.09    3.53
  -9   2   2   14.43    3.07
   9  -2  -1    0.76    1.01
  -9   2   1    4.77    2.70
   9  -2   0   13.17    2.47
  -9   2   0   19.89    3.77
   9  -2   1   42.74   11.00
  -9   2  -1   58.98    4.48
   9  -2   2  116.68    5.48
  -9   2  -2  120.52    6.71
   9  -2   3   22.06    3.46
  -9   2  -3   18.28    4.97
   9  -2   4    1.43    1.66
  -9   2  -4    2.14    2.93
  -9   2  -5   14.00    5.18
   9  -2   6   17.52    3.05
  -9   2  -6   15.71    4.05
   9  -1  -3   12.48    2.92
  -9   1   3   20.55    3.66
   9  -1  -2    7.00    1.96
  -9   1   2    4.04    1.92
   9  -1  -1   37.18    7.98
  -9   1   1   49.76    4.68
   9  -1   0   52.87    9.80
  -9   1   0   75.37    4.74
   9  -1   1   81.70   13.12
  -9   1  -1  104.77    6.26
   9  -1   2   15.59    2.33
   9  -1   2   16.84    3.14
  -9   1  -2   25.49    3.92
   9  -1   3    3.07    1.99
  -9   1  -3    2.08    2.69
   9  -1   4    0.84    1.55
  -9   1  -4    4.63    3.95
   9  -1   5   39.11    3.40
  -9   1  -5   40.96    5.12
   9  -1   6   45.88    4.42
  -9   1  -6   67.69    6.72
   9  -1   7   35.47    4.00
  -9   1  -7   36.85    5.04
   9   0  -3    1.50    1.08
  -9   0   3   -0.77    1.85
   9   0  -2   28.88    5.59
  -9   0   2   30.53    3.38
   9   0  -1   75.44   12.63
  -9   0   1   96.74    5.26
   9   0   0   89.89    6.47
  -9   0   0   94.86    5.53
   9   0   1   49.33    8.34
  -9   0  -1   48.66    4.56
   9   0   2    2.52    1.72
  -9   0  -2    3.90    3.13
   9   0   3    0.92    1.06
   9   0   3    2.30    2.44
  -9   0  -3    1.56    2.69
   9   0   4   27.93    2.78
  -9   0  -4   35.50    4.78
   9   0   5   58.82    3.88
  -9   0  -5   52.35    5.45
   9   0   6   30.92    3.92
  -9   0  -6   25.11    4.88
   9   0   7    7.67    3.28
  -9   0  -7    9.40    4.86
   9   0   8    2.07    2.01
  -9   0  -8    4.74    4.62
   9   1  -3    8.85    2.41
  -9  -1   3   12.45    3.46
   9   1  -2   46.19    6.91
  -9  -1   2   50.00    4.07
   9   1  -1   52.21   10.34
  -9  -1   1   48.88    3.93
   9   1   0   40.98    5.54
  -9  -1   0   42.21    4.10
   9   1   1   -0.23    2.02
  -9  -1  -1   -0.05    1.96
   9   1   2   32.52    3.88
  -9  -1  -2   44.21    5.70
   9   1   3   63.06    4.30
  -9  -1  -3   75.90    6.25
   9   1   4   72.85    3.85
   9   1   4   65.09    4.30
  -9  -1  -4   77.99    5.80
   9   1   5   64.91    3.84
  -9  -1  -5   77.38    6.78
   9   1   6   14.18    2.18
  -9  -1  -6   10.80    3.89
   9   1   7    8.43    2.41
  -9  -1  -7   12.19    4.68
   9   1   8   11.97    3.11
  -9  -1  -8   16.61    4.28
   9   1   9   12.07    2.89
  -9  -1  -9   17.55    4.04
   9   2  -3   62.38   12.53
  -9  -2   3   74.37    5.97
   9   2  -2  100.99   18.17
  -9  -2   2  106.24    6.00
   9   2  -1   25.79    5.88
  -9  -2   1   33.38    3.52
   9   2   0    3.89    2.27
  -9  -2   0   -0.52    1.92
   9   2   1   27.44    4.01
  -9  -2  -1   27.60    4.02
   9   2   2   33.31    3.88
  -9  -2  -2   36.72    4.17
   9   2   3   54.91    4.40
  -9  -2  -3   52.94    4.75
   9   2   4   31.36    3.34
  -9  -2  -4   47.53    5.34
   9   2   5    0.75    1.72
  -9  -2  -5    1.73    3.00
   9   2   6   11.85    2.20
  -9  -2  -6    8.16    3.33
   9   2   7   11.52    2.08
  -9  -2  -7   22.44    5.34
   9   2   8   19.57    2.87
  -9  -2  -8   22.12    4.60
   9   2   9   11.45    2.65
  -9  -2  -9   18.58    4.16
   9   3  -3   34.67    4.79
  -9  -3   3   38.23    4.18
   9   3  -2    8.94    3.98
  -9  -3   2   13.02    3.40
   9   3  -1    1.63    2.20
  -9  -3   1   -0.38    2.18
   9   3   0   18.87    3.21
  -9  -3   0   20.35    4.55
   9   3   1   44.12    5.15
  -9  -3  -1   48.51    4.72
   9   3   2   57.06    4.66
  -9  -3  -2   69.31    5.55
   9   3   3   57.71    4.76
  -9  -3  -3   66.60    5.43
   9   3   4   -2.14    1.65
  -9  -3  -4   -1.21    2.38
   9   3   5   35.34    3.61
  -9  -3  -5   37.66    4.37
   9   3   6   56.00    3.22
   9   3   6   44.18    3.57
  -9  -3  -6   60.66    5.13
   9   3   7   44.58    3.17
  -9  -3  -7   47.55    4.58
   9   3   8   35.81    3.37
  -9  -3  -8   37.13    4.23
   9   3   9    2.23    2.38
  -9  -3  -9    0.80    2.74
   9   4  -3   -1.31    2.16
  -9  -4   3    5.42    2.87
   9   4  -2    0.27    2.82
  -9  -4   2    0.14    2.01
   9   4  -1   15.49    4.73
  -9  -4   1   11.08    3.35
   9   4   0   77.33    5.88
  -9  -4   0   75.92    5.30
   9   4   1   47.50    4.06
  -9  -4  -1   56.26    4.90
   9   4   2   25.83    4.28
  -9  -4  -2   30.04    4.40
   9   4   3   -0.18    2.10
  -9  -4  -3    3.76    2.30
   9   4   4   14.09    3.48
  -9  -4  -4   10.58    2.29
   9   4   5   97.70    5.27
  -9  -4  -5  109.86    6.35
   9   4   6   69.77    4.59
  -9  -4  -6   78.55    5.24
   9   4   7   14.52    2.17
   9   4   7   12.48    2.39
  -9  -4  -7   16.68    3.20
   9   4   8    1.64    1.51
  -9  -4  -8    7.00    2.84
   9   4   9    9.71    2.78
   9   4  10   11.67    2.59
  -9  -4 -10   17.52    4.14
   9   5  -2    9.18    2.51
  -9  -5   2    3.07    2.32
   9   5  -1   24.60    4.76
  -9  -5   1   24.62    4.24
   9   5   0   60.95    5.96
  -9  -5   0   50.18    4.85
   9   5   1   42.68    4.53
  -9  -5  -1   40.04    3.87
   9   5   2   -1.06    2.32
  -9  -5  -2   -0.54    2.30
   9   5   3   42.54    4.91
  -9  -5  -3   35.56    3.67
   9   5   4   85.17    5.52
  -9  -5  -4   94.00    5.29
   9   5   5   75.28    5.20
  -9  -5  -5   81.41    4.78
   9   5   6    5.33    2.62
  -9  -5  -6    6.43    2.78
   9   5   7    1.13    1.69
  -9  -5  -7   -0.53    2.12
   9   5   8    5.62    1.90
   9   5   8    4.90    1.97
  -9  -5  -8    7.75    3.38
   9   5   9   43.92    4.12
  -9  -5  -9   40.77    4.23
   9   6  -1   28.93    5.02
  -9  -6   1   27.20    4.52
   9   6   0    8.24    3.16
  -9  -6   0   10.90    3.80
   9   6   1   -3.23    2.89
  -9  -6  -1    0.71    2.34
   9   6   2   57.22    5.01
  -9  -6  -2   57.47    5.21
   9   6   3   73.58    5.08
  -9  -6  -3   83.66    5.32
   9   6   4   73.77    5.23
  -9  -6  -4   69.48    4.10
   9   6   5   18.49    3.20
  -9  -6  -5   24.66    3.53
   9   6   6   28.39    3.83
  -9  -6  -6   32.83    3.86
   9   6   7   -0.94    1.83
  -9  -6  -7    2.92    2.54
   9   6   8   62.91    4.34
  -9  -6  -8   75.03    5.15
   9   6   9   30.80    3.25
  -9  -6  -9   41.05    4.04
   9   7   0    2.20    2.66
  -9  -7   0    1.87    2.00
   9   7   1   16.13    4.50
  -9  -7  -1   10.61    2.97
   9   7   2   37.40    5.00
  -9  -7  -2   39.52    3.98
   9   7   3   95.97    6.07
  -9  -7  -3   91.67    5.36
   9   7   4   21.50    4.53
  -9  -7  -4   21.49    3.75
   9   7   5   -3.88    2.35
  -9  -7  -5    0.39    1.74
   9   7   6    6.33    3.03
  -9  -7  -6    3.19    2.46
   9   7   7   65.54    4.54
  -9  -7  -7   65.40    4.51
   9   7   8   43.98    4.20
  -9  -7  -8   45.61    3.96
   9   7   9   23.39    3.17
  -9  -7  -9   22.85    3.17
   9   8   2   32.46    5.10
  -9  -8  -2   28.87    3.83
   9   8   3   32.45    4.19
  -9  -8  -3   32.11    4.07
   9   8   4   -1.69    2.33
  -9  -8  -4    0.88    1.70
   9   8   5   12.32    3.40
  -9  -8  -5   12.12    3.17
   9   8   6   31.83    4.81
  -9  -8  -6   36.11    3.94
   9   8   7   45.44    4.61
  -9  -8  -7   47.35    3.71
   9   8   8   34.97    4.13
  10  -1   1   40.66    9.40
 -10   1  -1   57.16    4.67
 -10   1  -2   51.33    4.66
 -10   1  -3    4.55    3.04
 -10   1  -4   -3.42    3.02
  10   0   0   41.55    6.67
 -10   0   0   52.16    4.57
 -10   0  -1   71.04    6.15
  10   0   2   24.72    3.21
 -10   0  -2   30.12    4.42
 -10   0  -3   14.35    3.84
 -10   0  -4    7.19    3.89
 -10   0  -5   21.83    5.00
  10   1  -1   35.44    7.42
 -10  -1   1   53.29    5.17
  10   1   0   46.31    7.79
 -10  -1   0   59.68    5.37
  10   1   1   15.49    3.37
 -10  -1  -1   18.69    3.34
  10   1   2    7.71    2.81
 -10  -1  -2    4.64    2.37
  10   1   3    4.62    2.83
 -10  -1  -3    2.85    2.60
 -10  -1  -4   65.32    6.46
 -10  -1  -5   91.56    7.68
 -10  -1  -6   63.54    6.59
 -10  -1  -7    0.16    3.00
  10   2  -1   55.00    5.30
 -10  -2   1   46.77    4.10
  10   2   0   33.68    4.57
 -10  -2   0   28.48    4.04
  10   2   1   -0.57    2.05
 -10  -2  -1    0.28    2.04
  10   2   2    9.13    2.86
 -10  -2  -2    6.64    3.47
  10   2   3   20.03    3.30
 -10  -2  -3   22.59    4.59
  10   2   4   58.91    4.20
 -10  -2  -4   74.07    5.53
 -10  -2  -5   51.62    5.49
 -10  -2  -6    9.56    4.57
 -10  -2  -7    0.79    2.72
  10   3  -1   25.22    5.01
 -10  -3   1   33.06    4.60
  10   3   0    0.99    2.35
 -10  -3   0    9.69    2.98
  10   3   1    9.75    3.15
 -10  -3  -1   15.27    3.81
  10   3   2   19.12    4.02
 -10  -3  -2   11.23    3.56
  10   3   3   23.11    3.75
 -10  -3  -3   28.26    3.78
  10   3   4   22.17    3.48
 -10  -3  -4   36.21    4.29
  10   3   5    3.56    1.73
 -10  -3  -5   11.22    3.89
 -10  -3  -6    1.12    2.87
 -10  -3  -7    0.99    2.85
 -10  -3  -8   31.10    4.60
  10   4   0   -3.27    2.47
 -10  -4   0    3.96    3.79
  10   4   1   22.47    4.00
 -10  -4  -1   24.27    4.24
  10   4   2   69.27    5.37
 -10  -4  -2   77.05    5.36
  10   4   3   31.39    5.09
 -10  -4  -3   30.85    3.90
  10   4   4   -1.47    2.01
 -10  -4  -4    4.59    2.48
  10   4   5    0.90    2.04
 -10  -4  -5   -3.00    2.52
  10   4   6   20.67    3.02
 -10  -4  -6   25.79    3.72
 -10  -4  -7   33.94    4.36
 -10  -4  -8   28.85    4.07
  10   5   0   12.95    4.53
 -10  -5   0   11.99    3.23
  10   5   1   23.87    4.52
 -10  -5  -1   34.42    4.59
  10   5   2   35.81    5.25
 -10  -5  -2   30.83    4.48
  10   5   3   -2.41    2.45
 -10  -5  -3    1.70    2.24
  10   5   4   26.85    4.44
 -10  -5  -4   29.29    4.66
  10   5   5   23.53    3.30
 -10  -5  -5   31.04    4.05
  10   5   6    4.26    2.02
 -10  -5  -6    4.75    2.38
  10   5   7    7.12    2.53
 -10  -5  -7    5.98    2.98
 -10  -5  -8    5.34    2.91
  10   6   2    3.17    2.93
 -10  -6  -2    1.49    1.94
  10   6   3    6.05    3.31
 -10  -6  -3   16.09    3.17
  10   6   4   64.98    6.52
 -10  -6  -4   53.04    4.48
  10   6   5    7.15    3.58
 -10  -6  -5   15.92    3.24
  10   6   6    1.44    2.25
 -10  -6  -6    3.18    2.73
  10   6   7    0.14    2.49
 -10  -6  -7    3.99    2.39
  10   7   3   29.47    5.78
 -10  -7  -3   22.71    3.47
  10   7   4   39.47    5.50
 -10  -7  -4   41.43    3.97
  10   7   5   23.74    4.10
 -10  -7  -5   22.93    3.76
  10   7   6    5.54    3.67
 -10  -7  -6    9.94    3.20
;
loop_
_symmetry_equiv_pos_site_id
_space_group_symop_operation_xyz
1 +X,+Y,+Z
2 -X,-Y,-Z
loop_
_atom_site_label
_atom_site_type_symbol
_atom_site_fract_x
_atom_site_fract_y
_atom_site_fract_z
_atom_site_U_iso_or_equiv
_atom_site_adp_type
_atom_site_occupancy
_atom_site_site_symmetry_multiplicity
_atom_site_calc_flag
_atom_site_refinement_flags
_atom_site_disorder_assembly
_atom_site_disorder_group
As1 As 0.39358(3) 0.60266(3) 0.09338(2) 0.03693(10) Uani 1 2 d . . .
O1 O 0.4009(2) 0.50042(19) -0.07001(18) 0.0394(3) Uani 1 2 d . . .
N1 N 0.4625(3) 0.7596(3) 0.4286(3) 0.0613(6) Uani 1 2 d . . .
N2 N 0.2037(4) 0.9963(3) -0.2334(3) 0.0634(7) Uani 1 2 d . . .
C1 C 0.4033(3) 0.7211(3) 0.2241(3) 0.0422(5) Uani 1 2 d . . .
C2 C 0.3338(3) 0.8852(3) 0.1775(3) 0.0437(5) Uani 1 2 d . . .
C3 C 0.2808(3) 0.9349(3) 0.0368(3) 0.0424(5) Uani 1 2 d . . .
C4 C 0.3072(3) 0.8114(3) -0.0275(3) 0.0408(5) Uani 1 2 d . . .
C5 C 0.2182(3) 0.4844(3) 0.2122(3) 0.0388(5) Uani 1 2 d . . .
C6 C 0.4685(4) 0.6659(4) 0.3482(3) 0.0523(6) Uani 1 2 d . . .
C7 C 0.3891(4) 0.9154(4) 0.3855(4) 0.0659(8) Uani 1 2 d . . .
C8 C 0.3253(4) 0.9847(4) 0.2598(3) 0.0571(7) Uani 1 2 d . . .
C9 C 0.2685(4) 0.8474(3) -0.1623(3) 0.0503(6) Uani 1 2 d . . .
C10 C 0.1796(5) 1.1131(4) -0.1703(4) 0.0665(8) Uani 1 2 d . . .
C11 C 0.2153(4) 1.0894(3) -0.0368(3) 0.0572(7) Uani 1 2 d . . .
C12 C 0.2348(4) 0.3845(3) 0.3499(3) 0.0527(6) Uani 1 2 d . . .
C13 C 0.1055(5) 0.3015(4) 0.4347(3) 0.0688(9) Uani 1 2 d . . .
C14 C -0.0381(5) 0.3220(5) 0.3841(4) 0.0751(10) Uani 1 2 d . . .
C15 C -0.0545(4) 0.4218(4) 0.2487(4) 0.0660(8) Uani 1 2 d . . .
C16 C 0.0746(3) 0.5018(3) 0.1619(3) 0.0508(6) Uani 1 2 d . . .
H6 H 0.5191 0.55759 0.37658 0.0628 Uiso 1 2 calc R . .
H7 H 0.38037 0.98106 0.44338 0.0791 Uiso 1 2 calc R . .
H8 H 0.27861 1.09417 0.23235 0.0685 Uiso 1 2 calc R . .
H9 H 0.28851 0.7643 -0.20479 0.0604 Uiso 1 2 calc R . .
H10 H 0.13572 1.21757 -0.21954 0.0798 Uiso 1 2 calc R . .
H11 H 0.19554 1.17527 0.00216 0.0687 Uiso 1 2 calc R . .
H12 H 0.33057 0.3734 0.38462 0.0632 Uiso 1 2 calc R . .
H13 H 0.11606 0.23185 0.52589 0.0826 Uiso 1 2 calc R . .
H14 H -0.12478 0.26756 0.44238 0.0901 Uiso 1 2 calc R . .
H15 H -0.15217 0.43547 0.21555 0.0792 Uiso 1 2 calc R . .
H16 H 0.06502 0.56762 0.06923 0.0610 Uiso 1 2 calc R . .
loop_
_atom_site_aniso_label
_atom_site_aniso_U_11
_atom_site_aniso_U_22
_atom_site_aniso_U_33
_atom_site_aniso_U_12
_atom_site_aniso_U_13
_atom_site_aniso_U_23
As1 0.03718(15) 0.03111(13) 0.04006(15) -0.00547(9) -0.00710(10) -0.00875(9)
O1 0.0346(8) 0.0413(9) 0.0448(9) -0.0011(7) -0.0118(7) -0.0175(7)
N1 0.0635(16) 0.0684(16) 0.0608(14) -0.0122(13) -0.0240(12) -0.0207(13)
N2 0.0869(19) 0.0446(13) 0.0534(14) -0.0038(12) -0.0268(13) -0.0040(11)
C1 0.0356(12) 0.0417(12) 0.0485(13) -0.0069(10) -0.0077(10) -0.0135(10)
C2 0.0403(13) 0.0377(12) 0.0532(14) -0.0066(10) -0.0062(11) -0.0166(11)
C3 0.0385(12) 0.0351(11) 0.0499(13) -0.0059(9) -0.0045(10) -0.0122(10)
C4 0.0416(13) 0.0318(11) 0.0435(12) -0.0055(9) -0.0058(10) -0.0074(9)
C5 0.0390(12) 0.0326(11) 0.0422(12) -0.0073(9) -0.0032(10) -0.0115(9)
C6 0.0508(15) 0.0543(15) 0.0537(15) -0.0087(12) -0.0153(12) -0.0153(12)
C7 0.075(2) 0.0672(19) 0.072(2) -0.0154(16) -0.0204(17) -0.0354(17)
C8 0.0638(18) 0.0462(14) 0.0666(17) -0.0076(13) -0.0165(14) -0.0230(13)
C9 0.0631(17) 0.0393(13) 0.0474(14) -0.0104(12) -0.0138(12) -0.0087(11)
C10 0.086(2) 0.0385(14) 0.0621(18) 0.0044(14) -0.0241(16) -0.0040(13)
C11 0.0663(18) 0.0346(13) 0.0656(17) 0.0001(12) -0.0135(14) -0.0158(12)
C12 0.0619(17) 0.0520(15) 0.0442(13) -0.0169(13) -0.0123(12) -0.0081(12)
C13 0.094(3) 0.0628(19) 0.0431(15) -0.0316(18) 0.0010(16) -0.0061(14)
C14 0.066(2) 0.079(2) 0.078(2) -0.0405(18) 0.0190(18) -0.0275(19)
C15 0.0434(15) 0.069(2) 0.090(2) -0.0181(14) -0.0084(15) -0.0268(18)
C16 0.0434(14) 0.0491(14) 0.0589(15) -0.0077(11) -0.0133(12) -0.0128(12)
loop_
_atom_type_symbol
_atom_type_description
_atom_type_scat_dispersion_real
_atom_type_scat_dispersion_imag
_atom_type_scat_source
C C 0.0033 0.0016
;
International Tables for Crystallography
(Vol. C, Tables 4.2.6.8 and 6.1.1.4)
;
H H 0.0000 0.0000
;
International Tables for Crystallography
(Vol. C, Table 6.1.1.4)
;
As As 0.0499 2.0058
;
International Tables for Crystallography
(Vol. C, Tables 4.2.6.8 and 6.1.1.4)
;
N N 0.0061 0.0033
;
International Tables for Crystallography
(Vol. C, Tables 4.2.6.8 and 6.1.1.4)
;
O O 0.0106 0.0060
;
International Tables for Crystallography
(Vol. C, Tables 4.2.6.8 and 6.1.1.4)
;
loop_
_geom_angle_atom_site_label_1
_geom_angle_atom_site_label_2
_geom_angle_atom_site_label_3
_geom_angle
_geom_angle_publ_flag
_geom_angle_site_symmetry_1
_geom_angle_site_symmetry_2
_geom_angle_site_symmetry_3
As1 As1 O1 34.85(5) yes 2_665 . .
As1 As1 O1 44.70(7) yes 2_665 . 2_665
As1 As1 C1 142.84(7) yes 2_665 . .
As1 As1 C4 109.16(8) yes 2_665 . .
As1 As1 C5 103.55(8) yes 2_665 . .
O1 As1 O1 79.55(9) yes . . 2_665
O1 As1 C1 171.86(8) yes . . .
O1 As1 C4 88.75(10) yes . . .
O1 As1 C5 86.88(10) yes . . .
O1 As1 C1 98.80(10) yes 2_665 . .
O1 As1 C4 126.28(8) yes 2_665 . .
O1 As1 C5 118.05(9) yes 2_665 . .
C1 As1 C4 85.85(12) yes . . .
C1 As1 C5 100.84(11) yes . . .
C4 As1 C5 113.32(10) yes . . .
As1 O1 As1 100.45(10) yes . . 2_665
C6 N1 C7 117.4(3) yes . . .
C9 N2 C10 117.0(3) yes . . .
As1 C1 C2 111.8(2) yes . . .
As1 C1 C6 129.7(2) yes . . .
C2 C1 C6 118.5(3) yes . . .
C1 C2 C3 114.4(3) yes . . .
C1 C2 C8 119.2(3) yes . . .
C3 C2 C8 126.4(2) yes . . .
C2 C3 C4 115.3(2) yes . . .
C2 C3 C11 126.5(3) yes . . .
C4 C3 C11 118.1(3) yes . . .
As1 C4 C3 112.35(19) yes . . .
As1 C4 C9 128.2(2) yes . . .
C3 C4 C9 119.5(2) yes . . .
As1 C5 C12 119.7(2) yes . . .
As1 C5 C16 119.92(17) yes . . .
C12 C5 C16 120.3(2) yes . . .
N1 C6 C1 123.2(3) yes . . .
N1 C7 C8 124.1(4) yes . . .
C2 C8 C7 117.4(3) yes . . .
N2 C9 C4 122.7(3) yes . . .
N2 C10 C11 124.6(3) yes . . .
C3 C11 C10 118.2(3) yes . . .
C5 C12 C13 118.8(3) yes . . .
C12 C13 C14 120.3(3) yes . . .
C13 C14 C15 120.7(3) yes . . .
C14 C15 C16 119.6(4) yes . . .
C5 C16 C15 120.3(3) yes . . .
N1 C6 H6 118.385 no . . .
C1 C6 H6 118.388 no . . .
N1 C7 H7 117.945 no . . .
C8 C7 H7 117.943 no . . .
C2 C8 H8 121.290 no . . .
C7 C8 H8 121.284 no . . .
N2 C9 H9 118.665 no . . .
C4 C9 H9 118.664 no . . .
N2 C10 H10 117.713 no . . .
C11 C10 H10 117.723 no . . .
C3 C11 H11 120.919 no . . .
C10 C11 H11 120.917 no . . .
C5 C12 H12 120.610 no . . .
C13 C12 H12 120.617 no . . .
C12 C13 H13 119.864 no . . .
C14 C13 H13 119.861 no . . .
C13 C14 H14 119.644 no . . .
C15 C14 H14 119.636 no . . .
C14 C15 H15 120.188 no . . .
C16 C15 H15 120.189 no . . .
C5 C16 H16 119.878 no . . .
C15 C16 H16 119.866 no . . .
loop_
_geom_bond_atom_site_label_1
_geom_bond_atom_site_label_2
_geom_bond_distance
_geom_bond_publ_flag
_geom_bond_site_symmetry_1
_geom_bond_site_symmetry_2
As1 As1 2.9356(9) yes . 2_665
As1 O1 2.100(2) yes . .
As1 O1 1.7057(16) yes . 2_665
As1 C1 1.966(3) yes . .
As1 C4 1.936(2) yes . .
As1 C5 1.923(2) yes . .
N1 C6 1.325(5) yes . .
N1 C7 1.341(4) yes . .
N2 C9 1.334(3) yes . .
N2 C10 1.335(5) yes . .
C1 C2 1.398(3) yes . .
C1 C6 1.382(4) yes . .
C2 C3 1.484(4) yes . .
C2 C8 1.376(5) yes . .
C3 C4 1.395(4) yes . .
C3 C11 1.379(3) yes . .
C4 C9 1.387(4) yes . .
C5 C12 1.391(3) yes . .
C5 C16 1.383(4) yes . .
C7 C8 1.390(5) yes . .
C10 C11 1.384(5) yes . .
C12 C13 1.392(5) yes . .
C13 C14 1.377(6) yes . .
C14 C15 1.373(5) yes . .
C15 C16 1.380(4) yes . .
C6 H6 0.930 no . .
C7 H7 0.930 no . .
C8 H8 0.930 no . .
C9 H9 0.930 no . .
C10 H10 0.930 no . .
C11 H11 0.930 no . .
C12 H12 0.930 no . .
C13 H13 0.930 no . .
C14 H14 0.930 no . .
C15 H15 0.930 no . .
C16 H16 0.930 no . .
loop_
_geom_contact_atom_site_label_1
_geom_contact_atom_site_label_2
_geom_contact_distance
_geom_contact_publ_flag
_geom_contact_site_symmetry_1
_geom_contact_site_symmetry_2
O1 C6 3.353(4) no . 2_665
O1 C9 2.927(3) no . .
O1 C16 3.030(3) no . .
N1 C2 2.778(4) no . .
N2 C3 2.795(4) no . .
C1 C7 2.699(6) no . .
C1 C12 3.387(4) no . .
C4 C10 2.689(4) no . .
C4 C16 3.525(4) no . .
C5 C14 2.756(4) no . .
C6 C8 2.731(4) no . .
C6 C12 3.583(5) no . .
C8 C11 3.121(5) no . .
C9 C11 2.727(5) no . .
C12 C15 2.781(5) no . .
C13 C16 2.759(4) no . .
N1 C10 3.520(4) no . 2_675
N1 C12 3.537(5) no . 2_666
N2 C7 3.498(5) no . 2_675
C6 C6 3.521(4) no . 2_666
C7 N2 3.498(5) no . 2_675
C10 N1 3.520(4) no . 2_675
C10 C16 3.542(4) no . 2_575
C12 N1 3.537(5) no . 2_666
C16 C10 3.542(4) no . 2_575
As1 H6 3.1578 no . .
As1 H9 3.1104 no . .
As1 H12 2.9494 no . .
As1 H16 2.9351 no . .
O1 H6 3.1259 no . 2_665
O1 H9 2.3865 no . .
O1 H12 3.3407 no . 2_665
O1 H16 2.7527 no . .
N1 H8 3.2432 no . .
N2 H11 3.2343 no . .
C1 H8 3.2436 no . .
C1 H12 3.1345 no . .
C2 H6 3.2242 no . .
C2 H7 3.1971 no . .
C2 H11 2.7691 no . .
C3 H8 2.7688 no . .
C3 H9 3.2354 no . .
C3 H10 3.2010 no . .
C4 H11 3.2297 no . .
C4 H16 3.1166 no . .
C5 H13 3.2362 no . .
C5 H15 3.2355 no . .
C6 H7 3.1119 no . .
C6 H12 3.0208 no . .
C7 H6 3.1175 no . .
C8 H11 2.8957 no . .
C9 H10 3.1109 no . .
C9 H16 3.2798 no . .
C10 H9 3.1168 no . .
C11 H8 2.8996 no . .
C12 H6 3.2853 no . .
C12 H14 3.2382 no . .
C12 H16 3.2437 no . .
C13 H15 3.2289 no . .
C14 H12 3.2420 no . .
C14 H16 3.2186 no . .
C15 H13 3.2263 no . .
C16 H12 3.2470 no . .
C16 H14 3.2184 no . .
H6 H12 2.5468 no . .
H7 H8 2.3089 no . .
H8 H11 2.4131 no . .
H9 H12 3.3071 no . 2_665
H9 H16 3.1219 no . .
H10 H11 2.2948 no . .
H12 H13 2.3285 no . .
H13 H14 2.3005 no . .
H14 H15 2.3006 no . .
H15 H16 2.3110 no . .
O1 H11 3.5509 no . 1_545
O1 H15 2.7021 no . 2_565
N1 H6 2.8567 no . 2_666
N1 H9 3.5382 no . 1_556
N1 H10 3.4284 no . 2_675
N1 H12 2.6738 no . 2_666
N1 H14 2.7883 no . 2_566
N2 H7 3.1705 no . 1_554
N2 H7 3.5284 no . 2_675
N2 H13 2.7515 no . 1_564
C1 H14 3.4866 no . 2_566
C5 H8 3.3429 no . 1_545
C5 H10 3.4065 no . 2_575
C6 H6 2.8234 no . 2_666
C6 H10 3.5014 no . 2_675
C6 H12 3.4196 no . 2_666
C6 H14 3.0709 no . 2_566
C6 H15 3.4517 no . 1_655
C7 H7 3.3802 no . 2_676
C7 H13 3.5358 no . 1_565
C7 H14 2.9083 no . 2_566
C8 H14 3.3928 no . 2_566
C9 H15 3.1954 no . 2_565
C10 H13 3.0138 no . 1_564
C10 H16 3.3079 no . 2_575
C11 H16 3.3024 no . 2_575
C12 H7 3.3846 no . 1_545
C12 H8 3.0909 no . 1_545
C13 H7 3.1458 no . 1_545
C13 H8 2.9958 no . 1_545
C13 H10 3.3486 no . 1_546
C14 H8 3.2063 no . 1_545
C14 H9 3.4861 no . 2_565
C15 H6 3.4465 no . 1_455
C15 H8 3.4665 no . 1_545
C15 H9 3.0939 no . 2_565
C15 H10 3.0497 no . 2_575
C15 H16 3.1684 no . 2_565
C16 H8 3.5146 no . 1_545
C16 H10 2.7796 no . 2_575
C16 H11 3.5636 no . 1_545
C16 H11 3.4037 no . 2_575
C16 H15 3.5095 no . 2_565
C16 H16 3.1581 no . 2_565
H6 N1 2.8567 no . 2_666
H6 C6 2.8234 no . 2_666
H6 C15 3.4465 no . 1_655
H6 H6 2.2972 no . 2_666
H6 H12 3.2823 no . 2_666
H6 H14 3.4401 no . 1_655
H6 H14 3.4981 no . 2_566
H6 H15 2.8860 no . 1_655
H7 N2 3.1705 no . 1_556
H7 N2 3.5284 no . 2_675
H7 C7 3.3802 no . 2_676
H7 C12 3.3846 no . 1_565
H7 C13 3.1458 no . 1_565
H7 H7 2.7067 no . 2_676
H7 H9 3.3814 no . 1_556
H7 H12 3.2976 no . 1_565
H7 H13 2.8453 no . 1_565
H7 H14 3.2187 no . 2_566
H8 C5 3.3429 no . 1_565
H8 C12 3.0909 no . 1_565
H8 C13 2.9958 no . 1_565
H8 C14 3.2063 no . 1_565
H8 C15 3.4665 no . 1_565
H8 C16 3.5146 no . 1_565
H8 H12 3.5035 no . 1_565
H8 H13 3.3396 no . 1_565
H9 N1 3.5382 no . 1_554
H9 C14 3.4861 no . 2_565
H9 C15 3.0939 no . 2_565
H9 H7 3.3814 no . 1_554
H9 H14 3.1799 no . 2_565
H9 H15 2.4162 no . 2_565
H10 N1 3.4284 no . 2_675
H10 C5 3.4065 no . 2_575
H10 C6 3.5014 no . 2_675
H10 C13 3.3486 no . 1_564
H10 C15 3.0497 no . 2_575
H10 C16 2.7796 no . 2_575
H10 H13 2.5518 no . 1_564
H10 H15 3.1666 no . 2_575
H10 H16 2.7364 no . 2_575
H11 O1 3.5509 no . 1_565
H11 C16 3.5636 no . 1_565
H11 C16 3.4037 no . 2_575
H11 H15 3.4309 no . 2_575
H11 H16 2.7632 no . 2_575
H12 N1 2.6738 no . 2_666
H12 C6 3.4196 no . 2_666
H12 H6 3.2823 no . 2_666
H12 H7 3.2976 no . 1_545
H12 H8 3.5035 no . 1_545
H13 N2 2.7515 no . 1_546
H13 C7 3.5358 no . 1_545
H13 C10 3.0138 no . 1_546
H13 H7 2.8453 no . 1_545
H13 H8 3.3396 no . 1_545
H13 H10 2.5518 no . 1_546
H14 N1 2.7883 no . 2_566
H14 C1 3.4866 no . 2_566
H14 C6 3.0709 no . 2_566
H14 C7 2.9083 no . 2_566
H14 C8 3.3928 no . 2_566
H14 H6 3.4401 no . 1_455
H14 H6 3.4981 no . 2_566
H14 H7 3.2187 no . 2_566
H14 H9 3.1799 no . 2_565
H15 O1 2.7021 no . 2_565
H15 C6 3.4517 no . 1_455
H15 C9 3.1954 no . 2_565
H15 C16 3.5095 no . 2_565
H15 H6 2.8860 no . 1_455
H15 H9 2.4162 no . 2_565
H15 H10 3.1666 no . 2_575
H15 H11 3.4309 no . 2_575
H15 H16 2.7315 no . 2_565
H16 C10 3.3079 no . 2_575
H16 C11 3.3024 no . 2_575
H16 C15 3.1684 no . 2_565
H16 C16 3.1581 no . 2_565
H16 H10 2.7364 no . 2_575
H16 H11 2.7632 no . 2_575
H16 H15 2.7315 no . 2_565
H16 H16 2.6950 no . 2_565
loop_
_geom_torsion_atom_site_label_1
_geom_torsion_atom_site_label_2
_geom_torsion_atom_site_label_3
_geom_torsion_atom_site_label_4
_geom_torsion
_geom_torsion_publ_flag
_geom_torsion_site_symmetry_1
_geom_torsion_site_symmetry_2
_geom_torsion_site_symmetry_3
_geom_torsion_site_symmetry_4
As1 As1 O1 As1 0.0 no 2_665 . . 2_665
O1 As1 As1 O1 180.00(8) no . . 2_665 2_665
O1 As1 As1 O1 0.00(7) no . . 2_665 .
O1 As1 As1 C1 -13.30(7) no . . 2_665 2_665
O1 As1 As1 C4 -122.65(7) no . . 2_665 2_665
O1 As1 As1 C5 116.36(7) no . . 2_665 2_665
As1 As1 O1 As1 0.0 no 2_665 . 2_665 2_665
O1 As1 As1 O1 -0.00(7) no 2_665 . 2_665 2_665
O1 As1 As1 O1 -180.00(7) no 2_665 . 2_665 .
O1 As1 As1 C1 166.70(7) no 2_665 . 2_665 2_665
O1 As1 As1 C4 57.35(7) no 2_665 . 2_665 2_665
O1 As1 As1 C5 -63.64(7) no 2_665 . 2_665 2_665
As1 As1 C1 C2 121.76(11) no 2_665 . . .
As1 As1 C1 C6 -57.3(2) no 2_665 . . .
C1 As1 As1 O1 13.30(11) no . . 2_665 2_665
C1 As1 As1 O1 -166.70(11) no . . 2_665 .
C1 As1 As1 C1 -180.00(11) no . . 2_665 2_665
C1 As1 As1 C4 70.65(11) no . . 2_665 2_665
C1 As1 As1 C5 -50.34(11) no . . 2_665 2_665
As1 As1 C4 C3 -150.08(11) no 2_665 . . .
As1 As1 C4 C9 31.1(2) no 2_665 . . .
C4 As1 As1 O1 122.65(9) no . . 2_665 2_665
C4 As1 As1 O1 -57.35(9) no . . 2_665 .
C4 As1 As1 C1 -70.65(9) no . . 2_665 2_665
C4 As1 As1 C4 180.00(9) no . . 2_665 2_665
C4 As1 As1 C5 59.01(9) no . . 2_665 2_665
As1 As1 C5 C12 95.84(17) no 2_665 . . .
As1 As1 C5 C16 -85.61(16) no 2_665 . . .
C5 As1 As1 O1 -116.36(8) no . . 2_665 2_665
C5 As1 As1 O1 63.64(8) no . . 2_665 .
C5 As1 As1 C1 50.34(8) no . . 2_665 2_665
C5 As1 As1 C4 -59.01(8) no . . 2_665 2_665
C5 As1 As1 C5 -180.00(8) no . . 2_665 2_665
O1 As1 O1 As1 -0.00(6) no . . 2_665 2_665
O1 As1 O1 As1 0.00(7) no 2_665 . . 2_665
O1 As1 C4 C3 -178.84(14) no . . . .
O1 As1 C4 C9 2.36(18) no . . . .
C4 As1 O1 As1 127.29(9) no . . . 2_665
O1 As1 C5 C12 126.69(17) no . . . .
O1 As1 C5 C16 -54.77(17) no . . . .
C5 As1 O1 As1 -119.27(9) no . . . 2_665
O1 As1 C1 C2 131.18(13) no 2_665 . . .
O1 As1 C1 C6 -47.9(2) no 2_665 . . .
C1 As1 O1 As1 -171.92(8) no . . 2_665 2_665
O1 As1 C4 C3 -102.80(15) no 2_665 . . .
O1 As1 C4 C9 78.4(2) no 2_665 . . .
C4 As1 O1 As1 -80.62(15) no . . 2_665 2_665
O1 As1 C5 C12 50.3(2) no 2_665 . . .
O1 As1 C5 C16 -131.18(15) no 2_665 . . .
C5 As1 O1 As1 80.74(12) no . . 2_665 2_665
C1 As1 C4 C3 -4.93(15) no . . . .
C1 As1 C4 C9 176.3(2) no . . . .
C4 As1 C1 C2 5.09(14) no . . . .
C4 As1 C1 C6 -174.0(2) no . . . .
C1 As1 C5 C12 -55.89(18) no . . . .
C1 As1 C5 C16 122.65(18) no . . . .
C5 As1 C1 C2 -107.88(14) no . . . .
C5 As1 C1 C6 73.0(2) no . . . .
C4 As1 C5 C12 -146.03(16) no . . . .
C4 As1 C5 C16 32.5(2) no . . . .
C5 As1 C4 C3 95.10(18) no . . . .
C5 As1 C4 C9 -83.7(2) no . . . .
C6 N1 C7 C8 -2.5(5) no . . . .
C7 N1 C6 C1 -0.1(4) no . . . .
C9 N2 C10 C11 -0.7(5) no . . . .
C10 N2 C9 C4 1.2(4) no . . . .
As1 C1 C2 C3 -4.2(2) no . . . .
As1 C1 C2 C8 177.78(14) no . . . .
As1 C1 C6 N1 -178.19(16) no . . . .
C2 C1 C6 N1 2.7(4) no . . . .
C6 C1 C2 C3 175.0(2) no . . . .
C6 C1 C2 C8 -3.0(3) no . . . .
C1 C2 C3 C4 0.3(3) no . . . .
C1 C2 C3 C11 -177.2(2) no . . . .
C1 C2 C8 C7 0.7(4) no . . . .
C3 C2 C8 C7 -177.0(2) no . . . .
C8 C2 C3 C4 178.1(2) no . . . .
C8 C2 C3 C11 0.6(4) no . . . .
C2 C3 C4 As1 3.9(3) no . . . .
C2 C3 C4 C9 -177.23(19) no . . . .
C2 C3 C11 C10 177.4(2) no . . . .
C4 C3 C11 C10 -0.1(4) no . . . .
C11 C3 C4 As1 -178.4(2) no . . . .
C11 C3 C4 C9 0.5(3) no . . . .
As1 C4 C9 N2 177.60(17) no . . . .
C3 C4 C9 N2 -1.1(4) no . . . .
As1 C5 C12 C13 179.28(17) no . . . .
As1 C5 C16 C15 -177.66(17) no . . . .
C12 C5 C16 C15 0.9(4) no . . . .
C16 C5 C12 C13 0.7(4) no . . . .
N1 C7 C8 C2 2.1(5) no . . . .
N2 C10 C11 C3 0.2(5) no . . . .
C5 C12 C13 C14 -1.8(5) no . . . .
C12 C13 C14 C15 1.3(6) no . . . .
C13 C14 C15 C16 0.4(6) no . . . .
C14 C15 C16 C5 -1.4(5) no . . . .
