#------------------------------------------------------------------------------
#$Date: 2020-07-06 05:06:13 +0300 (Mon, 06 Jul 2020) $
#$Revision: 253827 $
#$URL: file:///home/coder/svn-repositories/cod/cif/7/12/65/7126514.cif $
#------------------------------------------------------------------------------
#
# This file is available in the Crystallography Open Database (COD),
# http://www.crystallography.net/
#
# All data on this site have been placed in the public domain by the
# contributors.
#
data_7126514
loop_
_publ_author_name
'Fujii, Toshiki'
'Tanaka, Susumu'
'Hayashi, Shotaro'
'Imoto, Hiroaki'
'Naka, Kensuke'
_publ_section_title
;
 Dipyridinoarsole: a new class of stable and modifiable heteroatom-bridged
 bipyridines.
;
_journal_issue                   45
_journal_name_full
'Chemical communications (Cambridge, England)'
_journal_page_first              6035
_journal_page_last               6038
_journal_paper_doi               10.1039/d0cc02389b
_journal_volume                  56
_journal_year                    2020
_chemical_formula_moiety         'C16 H11 N2 O P'
_chemical_formula_sum            'C16 H11 N2 O P'
_chemical_formula_weight         278.25
_space_group_crystal_system      triclinic
_space_group_IT_number           2
_space_group_name_Hall           '-P 1'
_space_group_name_H-M_alt        'P -1'
_atom_sites_solution_hydrogens   geom
_atom_sites_solution_primary     direct
_atom_sites_solution_secondary   difmap
_audit_update_record
;
2020-04-02 deposited with the CCDC.	2020-05-11 downloaded from the CCDC.
;
_cell_angle_alpha                88.33(2)
_cell_angle_beta                 72.47(2)
_cell_angle_gamma                67.903(14)
_cell_formula_units_Z            2
_cell_length_a                   7.692(4)
_cell_length_b                   9.588(6)
_cell_length_c                   10.081(7)
_cell_measurement_reflns_used    1666
_cell_measurement_temperature    273
_cell_measurement_theta_max      27.49
_cell_measurement_theta_min      7.74
_cell_volume                     653.9(7)
_computing_cell_refinement       DTREK
_computing_data_collection       DTREK
_computing_data_reduction        DTREK
_computing_molecular_graphics    'CrystalStructure 4.1'
_computing_publication_material  'CrystalStructure 4.1 (Rigaku, 2014)'
_computing_structure_refinement  'SHELXL2013 (Sheldrick, 2008)'
_computing_structure_solution    'SIR2011 (Burla, et al., 2012)'
_diffrn_ambient_temperature      273
_diffrn_detector_area_resol_mean 13.653
_diffrn_measured_fraction_theta_full 0.969
_diffrn_measured_fraction_theta_max 0.972
_diffrn_measurement_device_type  'Rigaku XtaLAB mini'
_diffrn_measurement_method       \w
_diffrn_radiation_type           'Mo K\a'
_diffrn_radiation_wavelength     0.71075
_diffrn_reflns_av_R_equivalents  0.0229
_diffrn_reflns_Laue_measured_fraction_full 0.969
_diffrn_reflns_Laue_measured_fraction_max 0.972
_diffrn_reflns_limit_h_max       9
_diffrn_reflns_limit_h_min       -9
_diffrn_reflns_limit_k_max       12
_diffrn_reflns_limit_k_min       -12
_diffrn_reflns_limit_l_max       13
_diffrn_reflns_limit_l_min       -13
_diffrn_reflns_number            6758
_diffrn_reflns_point_group_measured_fraction_full 0.969
_diffrn_reflns_point_group_measured_fraction_max 0.972
_diffrn_reflns_theta_full        25.242
_diffrn_reflns_theta_max         27.525
_diffrn_reflns_theta_min         7.705
_diffrn_standards_number         0
_exptl_absorpt_coefficient_mu    0.206
_exptl_absorpt_correction_T_max  0.970
_exptl_absorpt_correction_T_min  0.881
_exptl_absorpt_correction_type   multi-scan
_exptl_absorpt_process_details   'REQAB (Rigaku, 1998)'
_exptl_crystal_colour            colorless
_exptl_crystal_density_diffrn    1.413
_exptl_crystal_density_method    'not measured'
_exptl_crystal_description       chip
_exptl_crystal_F_000             288.00
_exptl_crystal_size_max          0.280
_exptl_crystal_size_mid          0.260
_exptl_crystal_size_min          0.150
_refine_diff_density_max         0.31
_refine_diff_density_min         -0.21
_refine_ls_extinction_method     none
_refine_ls_goodness_of_fit_ref   1.035
_refine_ls_hydrogen_treatment    constr
_refine_ls_number_parameters     181
_refine_ls_number_reflns         2925
_refine_ls_number_restraints     0
_refine_ls_R_factor_all          0.0523
_refine_ls_R_factor_gt           0.0411
_refine_ls_shift/su_max          0.001
_refine_ls_structure_factor_coef Fsqd
_refine_ls_weighting_details
'w = 1/[\s^2^(Fo^2^)+(0.0577P)^2^+0.1418P] where P=(Fo^2^+2Fc^2^)/3'
_refine_ls_weighting_scheme      calc
_refine_ls_wR_factor_gt          0.1027
_refine_ls_wR_factor_ref         0.1105
_reflns_number_gt                2415
_reflns_number_total             2925
_reflns_threshold_expression     F^2^>2.0\s(F^2^)
_cod_data_source_file            d0cc02389b2.cif
_cod_data_source_block           DPP-Ox_6
_cod_depositor_comments
'Adding full bibliography for 7126511--7126515.cif.'
_cod_database_code               7126514
_shelxl_res_file
;

    shelxl.res created by SHELXL-2014/7

TITL Dipyridinophosphole-Oxide_02
CELL  0.71075 7.69160 9.58850 10.08060 88.32970 72.46800 67.90300
ZERR  2 0.00424 0.00640 0.00655 0.02130 0.02040 0.01400
LATT 1
SFAC C H N O P
UNIT 32 22 4 2 2
L.S. 5
FMAP 2
PLAN -25
WPDB -2
HTAB
BOND $H
CONF
LIST 4
TEMP 0.0
ACTA
SIZE 0.280 0.260 0.150
WGHT    0.057700    0.141800
FVAR       3.95268
P1    5    0.469524    0.863436    0.713039    11.00000    0.03543    0.03382 =
         0.03421    0.00791   -0.01043   -0.01132
O1    4    0.653578    0.865228    0.611980    11.00000    0.03922    0.06046 =
         0.04707    0.01188   -0.00752   -0.02093
N5    3    0.592468    0.630424    1.046766    11.00000    0.05765    0.04163 =
         0.05006    0.01510   -0.02611   -0.01079
N19   3    0.044110    1.298221    0.812253    11.00000    0.05245    0.03298 =
         0.06353    0.01346   -0.02304   -0.01027
C1    1    0.278940    1.044100    0.794894    11.00000    0.03667    0.03088 =
         0.03969    0.00809   -0.01380   -0.01356
C2    1    0.348417    0.767498    0.646080    11.00000    0.03556    0.03400 =
         0.03173    0.00281   -0.00483   -0.01058
C3    1    0.480736    0.797060    0.881501    11.00000    0.03946    0.03344 =
         0.03772    0.00807   -0.01496   -0.01144
C6    1    0.185197    1.172128    0.735271    11.00000    0.04874    0.03639 =
         0.04722    0.01399   -0.02031   -0.01680
AFIX  43
H6    2    0.221772    1.170171    0.638387    11.00000   -1.20000
AFIX   0
C7    1    0.082362    1.177526    1.021169    11.00000    0.04519    0.03659 =
         0.04511    0.00356   -0.00827   -0.01142
AFIX  43
H7    2    0.044329    1.183620    1.118261    11.00000   -1.20000
AFIX   0
C8    1    0.602423    0.661175    0.915068    11.00000    0.04687    0.03536 =
         0.04858    0.00621   -0.01891   -0.00549
AFIX  43
H8    2    0.694655    0.588608    0.842804    11.00000   -1.20000
AFIX   0
C9    1    0.333270    0.876943    1.127355    11.00000    0.05262    0.04073 =
         0.03636    0.00546   -0.01274   -0.01533
AFIX  43
H9    2    0.244602    0.947530    1.202197    11.00000   -1.20000
AFIX   0
C10   1    0.254971    0.835507    0.548270    11.00000    0.05559    0.04744 =
         0.05273    0.01578   -0.02424   -0.02349
AFIX  43
H10   2    0.262667    0.925537    0.516019    11.00000   -1.20000
AFIX   0
C11   1    0.339485    0.631086    0.690208    11.00000    0.06312    0.03690 =
         0.05081    0.01011   -0.01744   -0.01873
AFIX  43
H11   2    0.402845    0.583273    0.754011    11.00000   -1.20000
AFIX   0
C12   1   -0.004425    1.298334    0.951628    11.00000    0.04836    0.03222 =
         0.06133    0.00447   -0.01231   -0.00474
AFIX  43
H12   2   -0.102842    1.385138    1.005434    11.00000   -1.20000
AFIX   0
C13   1    0.460634    0.737393    1.147978    11.00000    0.06296    0.04773 =
         0.04250    0.01641   -0.02339   -0.01834
AFIX  43
H13   2    0.453726    0.716576    1.239684    11.00000   -1.20000
AFIX   0
C14   1    0.151519    0.770385    0.499165    11.00000    0.06220    0.06939 =
         0.07016    0.01310   -0.03573   -0.03047
AFIX  43
H14   2    0.087847    0.817274    0.435235    11.00000   -1.20000
AFIX   0
C15   1    0.236100    0.566191    0.639132    11.00000    0.08742    0.04868 =
         0.07754    0.01249   -0.02366   -0.04002
AFIX  43
H15   2    0.230229    0.474917    0.669014    11.00000   -1.20000
AFIX   0
C16   1    0.142464    0.635652    0.544878    11.00000    0.06601    0.07055 =
         0.08520   -0.00163   -0.02566   -0.04073
AFIX  43
H16   2    0.072613    0.591723    0.511678    11.00000   -1.20000
AFIX   0
C17   1    0.226914    1.048212    0.941194    11.00000    0.03601    0.03089 =
         0.04053    0.00741   -0.01298   -0.01312
C18   1    0.343225    0.907282    0.990469    11.00000    0.03751    0.03197 =
         0.03888    0.00836   -0.01376   -0.01400
HKLF 4
 
REM  Dipyridinophosphole-Oxide_02
REM R1 =  0.0411 for    2415 Fo > 4sig(Fo)  and  0.0523 for all    2925 data
REM    181 parameters refined using      0 restraints
 
END  
     
WGHT      0.0575      0.1421 

REM Instructions for potential hydrogen bonds
EQIV $1 -x+1, -y+2, -z+1
HTAB C6 O1_$1
HTAB C10 O1_$1
EQIV $2 x-1, y+1, z
HTAB C12 N5_$2

REM Highest difference peak  0.313,  deepest hole -0.213,  1-sigma level  0.042
Q1    1   0.3599  0.9624  0.7602  11.00000  0.05    0.31
Q2    1   0.3949  0.8211  0.6782  11.00000  0.05    0.29
Q3    1   0.4708  0.8201  0.8107  11.00000  0.05    0.26
Q4    1   0.5079  0.7357  0.8976  11.00000  0.05    0.23
Q5    1   0.2845  0.9827  0.9647  11.00000  0.05    0.20
Q6    1   0.4134  0.8542  0.9409  11.00000  0.05    0.20
Q7    1   0.2332  1.0876  0.7779  11.00000  0.05    0.20
Q8    1   0.1520  1.1082  0.9787  11.00000  0.05    0.19
Q9    1   0.2535  1.0487  0.8550  11.00000  0.05    0.18
Q10   1   0.2869  0.6013  0.6574  11.00000  0.05    0.17
Q11   1   0.3832  0.8055  1.1387  11.00000  0.05    0.16
Q12   1   0.1083  0.7405  0.5657  11.00000  0.05    0.16
Q13   1   0.4759  0.6819  1.0953  11.00000  0.05    0.16
Q14   1   0.3232  0.8802  1.0599  11.00000  0.05    0.16
Q15   1   0.2058  0.6961  0.4806  11.00000  0.05    0.15
Q16   1   0.4146  0.5831  1.1404  11.00000  0.05    0.15
Q17   1   0.2457  0.7861  0.5114  11.00000  0.05    0.15
Q18   1   0.2924  0.8060  0.6277  11.00000  0.05    0.15
Q19   1   0.1104  1.2330  0.7828  11.00000  0.05    0.15
Q20   1   0.3455  0.7857  0.5848  11.00000  0.05    0.15
Q21   1   0.0333  0.9777  0.7646  11.00000  0.05    0.14
Q22   1   0.1795  0.7595  0.3598  11.00000  0.05    0.14
Q23   1   0.0195  1.2247  0.9893  11.00000  0.05    0.14
Q24   1   0.1331  0.7772  0.4727  11.00000  0.05    0.13
Q25   1   0.0050  0.9256  0.4459  11.00000  0.05    0.13
;
_shelxl_hkl_file
;
   0   0   4  897.06   32.42
   0   0  -4  884.31   35.03
   0   0  -4  901.55   27.34
   0   0   5 1433.03   47.27
   0   0  -5 1440.83   51.99
   0   0  -5 1368.96   38.03
   0   0   6  349.76   24.72
   0   0  -6  346.77   24.08
   0   0  -6  350.85   17.71
   0   0   7  785.62   44.19
   0   0  -7  750.72   39.78
   0   0  -7  765.09   23.99
   0   0   8    3.82   25.49
   0   0  -8   -8.32   18.03
   0   0  -8   21.85   10.05
   0   0   9  747.74   44.32
   0   0  -9  769.26   44.71
   0   0  10   38.50   21.18
   0   0 -10   97.79   19.75
   0   0  11  109.36   36.92
   0   0 -11   83.41   28.30
   0   0  12  842.37   58.51
   0   0 -12  929.52   65.95
   0   1 -12  -11.67   20.65
   0  -1  12   26.74   24.96
   0   1 -11 1105.10   61.07
   0  -1  11 1104.29   59.02
   0   1 -10   69.41   29.93
   0  -1  10   65.17   25.44
   0   1  -9  499.98   38.30
   0   1  -9  502.61   23.68
   0  -1   9  468.98   31.80
   0   1  -8  180.83   26.46
   0   1  -8  171.03   16.25
   0  -1   8  145.54   24.85
   0   1  -7  811.68   40.74
   0   1  -7  759.32   25.79
   0  -1   7  821.20  118.31
   0   1  -6 5340.63   91.73
   0   1  -6 5373.46   76.75
   0  -1   6 5504.53   88.28
   0   1  -5   -3.73   13.45
   0   1  -5   15.82    9.71
   0  -1   5    8.17    6.75
   0   1  -411183.87   94.53
   0   1   4  329.90   20.56
   0  -1  -4  385.26   23.41
   0  -1  -4  387.28   17.03
   0   1   5   35.03   14.81
   0  -1  -5   57.08   14.37
   0  -1  -5   60.38    9.32
   0   1   6 1842.00   59.13
   0  -1  -6 1687.71   51.07
   0  -1  -6 1728.05   35.48
   0   1   7 2287.79   61.60
   0  -1  -7 2255.51   57.75
   0  -1  -7 2281.35   39.15
   0   1   8  386.49   45.19
   0  -1  -8  263.36   27.27
   0  -1  -8  312.93   17.92
   0   1   9  -21.49   25.60
   0  -1  -9  -26.51   18.45
   0   1  10  727.73   47.56
   0  -1 -10  725.31   47.16
   0   1  11  206.34   42.03
   0  -1 -11  337.06   44.66
   0   1  12  967.91   79.27
   0  -1 -12  831.33   62.20
   0   2 -12  149.10   29.29
   0  -2  12   82.17   32.10
   0   2 -11  539.27   49.72
   0  -2  11  473.46   35.51
   0   2 -10   26.81   16.10
   0  -2  10   50.62   14.47
   0   2  -9   52.01   20.86
   0   2  -9   57.47   13.45
   0  -2   9   21.20   16.38
   0   2  -8 2119.51   74.15
   0   2  -8 2102.89   61.56
   0  -2   8 2121.81   84.70
   0   2  -7  -13.63   16.77
   0   2  -7   15.43    8.92
   0  -2   7   17.52   13.16
   0   2  -6   78.34   19.53
   0   2  -6  104.20   14.02
   0  -2   6   98.50   20.05
   0   2  -5 6477.53   76.83
   0   2  -5 6708.63   65.64
   0  -2   5 6890.33   82.43
   0   2  -4 3036.33   41.44
   0   2   3  681.90   33.50
   0  -2  -3  671.00   24.19
   0  -2  -3  674.41   23.88
   0   2   4  352.18   31.82
   0  -2  -4  275.43   19.31
   0  -2  -4  309.72   19.60
   0   2   5  -23.10   24.36
   0  -2  -5   -7.10   12.60
   0  -2  -5   -1.68    9.58
   0   2   6  425.48   42.24
   0  -2  -6  381.01   26.90
   0  -2  -6  396.09   20.81
   0   2   7  955.97   52.40
   0  -2  -7  946.25   40.90
   0  -2  -7  943.95   26.87
   0   2   8 4878.92  115.75
   0  -2  -8 5142.77  116.87
   0  -2  -8 4761.73   89.02
   0   2   9   -2.15   24.03
   0  -2  -9    5.84   16.47
   0   2  10  257.60   35.73
   0  -2 -10  247.52   32.55
   0   2  11  709.32   54.42
   0  -2 -11  748.58   52.65
   0  -2 -12   45.70   21.50
   0   3 -12  190.35   35.68
   0   3 -11   18.49   16.88
   0  -3  11   58.47   24.81
   0   3 -10 1079.82   53.08
   0   3 -10  901.56   36.21
   0  -3  10  850.28  142.42
   0   3  -9   -1.23   16.78
   0   3  -9   -2.55    9.17
   0  -3   9   -0.16    8.01
   0   3  -8  161.02   26.03
   0   3  -8  149.97   17.36
   0  -3   8  163.67   31.61
   0   3  -7 4311.22   78.43
   0   3  -7 4214.14   65.57
   0   3  -6  689.39   33.74
   0   3  -6  675.35   28.39
   0  -3   6  722.55  105.13
   0   3  -5 1392.62   38.81
   0   3  -5 1408.98   34.75
   0   3  -5 1487.56   38.19
   0   3  -4   40.13   11.49
   0   3  -4   43.21   13.49
   0   3  -4   33.89   10.31
   0   3  -310533.76   81.58
   0   3  -310736.58   89.65
   0   3  -310595.46   83.83
   0   3  -2 1213.08   38.46
   0   3  -2 1268.72   37.38
   0  -3   2 1286.65   36.19
   0   3   213773.89  108.30
   0  -3  -213716.74   90.01
   0  -3  -213985.00  102.91
   0   3   3  378.98   28.23
   0  -3  -3  309.97   18.99
   0  -3  -3  325.62   19.55
   0   3   4   75.16   18.39
   0  -3  -4   55.89   11.72
   0  -3  -4   61.33   11.55
   0   3   5  754.18   45.05
   0  -3  -5  746.14   31.65
   0  -3  -5  741.74   27.67
   0   3   6  869.56   49.46
   0  -3  -6  850.08   37.75
   0  -3  -6  834.40   29.33
   0   3   7 5086.25  108.97
   0  -3  -7 5126.10   98.53
   0  -3  -7 5135.71   84.32
   0   3   8 5684.59  128.34
   0  -3  -8 5775.31   91.69
   0   3   9  291.59   48.75
   0  -3  -9  266.05   34.10
   0   3  10   11.47   29.07
   0  -3 -10   27.05   16.70
   0   3  11  426.45   48.23
   0  -3 -11  387.31   41.24
   0   4 -12  380.43   49.98
   0   4 -11  508.92   46.38
   0  -4  11  405.00   84.69
   0   4 -10  714.42   58.33
   0   4 -10  656.39   44.23
   0  -4  10  659.83   85.61
   0   4  -9  335.39   29.84
   0   4  -9  361.72   26.14
   0  -4   9  334.87   74.65
   0   4  -8   74.17   21.08
   0   4  -8   18.47   14.48
   0  -4   8   41.48   13.82
   0   4  -7 9483.11  149.68
   0   4  -710058.70  151.32
   0  -4   710122.36  151.00
   0   4  -6   17.48   13.99
   0   4  -6   -4.61   10.62
   0   4  -6    7.35   12.37
   0   4  -5 2238.54   52.71
   0   4  -5 2186.76   52.63
   0   4  -5 2101.56   49.00
   0   4  -4 1202.75   31.45
   0   4  -4 1145.73   34.40
   0   4  -4 1204.39   31.85
   0   4  -323647.88  162.62
   0   4  -323874.22  156.10
   0  -4   323318.91  145.94
   0   4  -2 1741.60   53.57
   0   4  -2 1824.08   52.26
   0  -4   2 1902.08   50.42
   0   4  -110842.28   89.78
   0  -4   110834.27   70.72
   0  -4   020399.82  143.37
   0  -4  -113780.95   86.08
   0  -4  -113848.19  128.03
   0   4   2 1264.74   47.78
   0  -4  -2 1234.84   36.67
   0  -4  -2 1306.56   68.79
   0   4   3 2102.28   48.73
   0  -4  -3 2044.68   35.92
   0  -4  -3 2140.87   41.21
   0   4   4 1476.02   47.59
   0  -4  -4 1524.62   42.22
   0  -4  -4 1441.80   41.28
   0   4   5 1259.32   48.96
   0  -4  -5 1133.91   40.88
   0  -4  -5 1215.56   38.86
   0   4   6 2235.54   69.79
   0  -4  -6 2400.26   64.07
   0  -4  -6 2266.20   53.30
   0   4   7  750.43   45.74
   0  -4  -7  907.62   47.00
   0  -4  -7  854.49   35.26
   0   4   8  152.17   42.99
   0  -4  -8  178.43   25.54
   0  -4  -8  137.32   16.62
   0   4   9  290.91   45.67
   0  -4  -9  306.46   35.71
   0   4  10  328.42   51.63
   0  -4 -10  362.77   42.18
   0   4  11   55.22   27.69
   0  -4 -11  -18.83   17.64
   0   5 -11  609.56   56.83
   0   5 -10   38.40   22.57
   0   5 -10    9.15   13.28
   0  -5  10   24.26    9.40
   0   5  -9 2728.08  159.68
   0   5  -9 2495.06  143.05
   0  -5   9 2847.83  167.83
   0   5  -8  347.86   29.13
   0   5  -8  339.98   29.10
   0  -5   8  294.95   65.68
   0   5  -7 1543.15   60.34
   0   5  -7 1622.02   53.53
   0   5  -7 1601.70   56.98
   0   5  -6 1408.56   48.11
   0   5  -6 1436.18   46.61
   0   5  -6 1398.59   45.02
   0   5  -5 3226.97   66.67
   0   5  -5 3249.97   60.11
   0  -5   5 3374.73   60.95
   0   5  -4   63.65   16.24
   0   5  -4   62.90   13.01
   0  -5   4   72.92   15.32
   0   5  -3   46.00   21.44
   0   5  -3   37.66   12.16
   0  -5   3   45.38   12.36
   0   5  -2  809.72   34.77
   0   5  -2  859.03   31.93
   0  -5   2  747.54   18.80
   0   5  -116429.80  123.17
   0  -5   116277.19   93.41
   0   5   0   -1.87   13.59
   0  -5   0   -0.05    4.58
   0  -5   0   -1.06    5.79
   0   5   1 1556.46   43.75
   0  -5  -1 1533.97   25.23
   0  -5  -1 1626.49   72.54
   0   5   2  248.78   24.19
   0  -5  -2  321.12   17.06
   0  -5  -2  311.35   46.24
   0   5   3   31.50   30.07
   0  -5  -3   21.06    7.90
   0  -5  -3   45.37   20.41
   0   5   4   47.70   26.52
   0  -5  -4   41.67   10.41
   0  -5  -4   57.18   16.68
   0   5   5  667.49   39.84
   0  -5  -5  676.29   31.16
   0  -5  -5  660.25   31.85
   0   5   6  633.54   43.53
   0  -5  -6  757.61   36.81
   0  -5  -6  654.52   31.88
   0   5   7    9.82   26.64
   0  -5  -7    7.70   12.05
   0  -5  -7   22.83   16.65
   0   5   8  555.35   51.32
   0  -5  -8  629.64   52.80
   0   5   9  204.53   34.48
   0  -5  -9  123.77   27.22
   0   5  10  470.35   52.51
   0  -5 -10  545.61   52.36
   0  -6  11   14.52   16.23
   0   6 -10 1239.13   53.58
   0  -6  10  893.06  163.01
   0   6  -9   62.62   18.60
   0  -6   9   36.41   14.82
   0  -6   9   21.87    9.73
   0   6  -8 2643.36   67.38
   0   6  -8 2595.26   66.69
   0  -6   8 2693.43   70.36
   0   6  -7  526.69   38.77
   0   6  -7  532.39   33.11
   0  -6   7  498.52   97.08
   0   6  -6 3277.32   95.64
   0   6  -6 3153.64   88.63
   0  -6   6 3221.69   89.60
   0   6  -5 5854.60  109.04
   0   6  -5 5845.43  102.53
   0  -6   5 5744.48   97.16
   0   6  -4   84.22   19.89
   0   6  -4   85.02   18.54
   0  -6   4   81.16   18.16
   0   6  -3 2359.08   52.07
   0  -6   3 2345.30   45.27
   0   6  -2 1282.79   41.48
   0  -6   2 1290.09   29.51
   0  -6   2 1311.95   46.04
   0   6  -1  263.07   24.01
   0  -6   1  253.68   14.75
   0  -6   1  311.66   49.88
   0   6   0 1389.40   42.85
   0  -6   0 1375.62   28.05
   0  -6   0 1564.24  122.35
   0   6   1  332.65   26.22
   0  -6  -1  318.30   13.86
   0  -6  -1  361.03   76.35
   0   6   2 2919.59   69.73
   0  -6  -2 2926.79   44.95
   0  -6  -2 2788.75  106.05
   0   6   3  448.37   32.13
   0  -6  -3  410.06   18.98
   0  -6  -3  463.96   30.21
   0   6   4 2068.30   62.08
   0  -6  -4 2157.55   49.39
   0  -6  -4 2096.57   61.51
   0   6   5   93.69   21.21
   0  -6  -5   89.64   16.86
   0  -6  -5   89.52   19.98
   0   6   6  421.44   45.19
   0  -6  -6  396.25   31.22
   0  -6  -6  310.09   27.63
   0   6   7  149.00   31.36
   0  -6  -7  155.54   19.93
   0  -6  -7  158.25   22.34
   0   6   8   71.21   33.95
   0  -6  -8   16.71   15.04
   0   6   9  437.76   48.76
   0  -6  -9  485.70   47.99
   0   7 -10  401.83   35.99
   0  -7  10  304.17   64.08
   0   7  -9  240.61   32.99
   0  -7   9  173.61   43.44
   0  -7   9  205.36   43.74
   0   7  -8   39.82   22.23
   0   7  -8   11.59   13.36
   0  -7   8   45.61   12.29
   0   7  -7 1140.24   51.23
   0   7  -7 1141.98   46.22
   0  -7   7  935.72  117.67
   0   7  -6  747.81   46.96
   0   7  -6  755.79   42.34
   0  -7   6  654.38   88.67
   0   7  -5  288.56   34.21
   0   7  -5  232.74   26.58
   0  -7   5  251.79   42.63
   0   7  -4   60.57   21.19
   0   7  -4   63.14   18.77
   0  -7   4   70.87   17.77
   0   7  -3 2689.89   64.30
   0  -7   3 2550.34   50.72
   0  -7   3 2520.47   66.13
   0   7  -2  928.35   47.17
   0  -7   2  898.24   28.25
   0  -7   2  837.83   41.04
   0   7  -1 3059.69   63.93
   0  -7   1 3154.49   68.71
   0   7   0  728.50   34.31
   0  -7   0  815.05   37.96
   0   7   1   80.78   22.20
   0  -7  -1  110.00   13.12
   0   7   2 5782.06  110.93
   0  -7  -2 5614.47  119.88
   0   7   3  429.39   34.02
   0  -7  -3  398.27   21.01
   0  -7  -3  390.29   33.14
   0   7   4  164.28   34.04
   0  -7  -4  165.93   17.24
   0  -7  -4  154.99   23.38
   0   7   5   -2.38   18.87
   0  -7  -5    9.56    9.23
   0  -7  -5   25.91   17.02
   0   7   6   38.05   22.15
   0  -7  -6   25.86   14.79
   0  -7  -6   35.31   16.77
   0   7   7  799.47   52.03
   0  -7  -7  958.85   45.10
   0  -7  -7  851.30   41.37
   0   7   8  -17.78   25.92
   0  -7  -8    1.93   14.11
   0   7   9  680.72   64.44
   0   8  -9  374.29   42.43
   0  -8   9  212.86   48.99
   0   8  -8  250.21   34.50
   0   8  -8  329.11   32.17
   0  -8   8  187.32   33.64
   0   8  -7 1085.38   71.76
   0   8  -7  970.37   61.10
   0  -8   7  753.82  145.73
   0   8  -6  281.11   27.20
   0  -8   6  212.72   53.91
   0   8  -5  775.37   39.81
   0  -8   5  652.78   77.07
   0  -8   5  739.26   46.83
   0   8  -4   -1.22   12.17
   0  -8   4  -21.79   14.84
   0   8  -3   39.38   20.03
   0  -8   3   38.76   15.20
   0   8  -2 3560.00   84.68
   0  -8   2 3496.18   89.91
   0   8  -1 1994.62   64.04
   0  -8   1 2259.11  143.82
   0   8   0  266.89   27.13
   0  -8   0  234.81   48.09
   0   8   1  155.18   26.56
   0  -8  -1  152.95   30.86
   0   8   2   44.95   16.96
   0  -8  -2  113.36   22.69
   0   8   3 1017.77   59.65
   0  -8  -3  905.45   50.42
   0   8   4   12.09   18.53
   0  -8  -4   38.13   20.20
   0   8   5  894.19   66.93
   0  -8  -5  921.94   61.64
   0   8   6  261.06   40.21
   0  -8  -6  348.11   33.81
   0   8   7  321.59   43.91
   0   8   8   27.00   24.37
   0  -9   8 1228.25   79.71
   0   9  -7    1.18   12.81
   0  -9   7   -3.93    8.80
   0   9  -6  251.99   28.78
   0  -9   6  234.34   55.05
   0   9  -5   17.64   17.72
   0  -9   5   -1.99   18.71
   0   9  -4   79.70   19.01
   0  -9   4   20.15   10.81
   0   9  -3  523.47   43.19
   0  -9   3  619.49   91.38
   0   9  -2 1211.52   50.12
   0  -9   2 1182.62   62.21
   0   9  -1  356.43   33.23
   0  -9   1  363.39   76.34
   0   9   0  148.89   30.66
   0  -9   0  115.22   28.95
   0   9   1 1507.87   96.79
   0  -9  -1 1563.72  110.83
   0   9   2 1071.83   54.77
   0  -9  -2 1141.39  119.19
   0   9   3  660.47   50.97
   0  -9  -3  703.36   52.45
   0   9   4 1073.60   61.74
   0  -9  -4 1048.13   50.23
   0   9   5  269.65   39.75
   0  -9  -5  335.35   39.10
   0   9   6  281.41   38.20
   0  -9  -6  211.65   29.15
   0 -10   7   59.83   13.89
   0  10  -6   35.28   22.66
   0 -10   6   79.60   24.62
   0  10  -5  332.68   31.65
   0 -10   5  309.34   69.44
   0  10  -4  253.59   27.06
   0 -10   4  264.11   66.81
   0  10  -3  377.49   34.03
   0 -10   3  418.80   80.27
   0 -10   2   40.08   17.46
   0  10  -1 1753.67   63.42
   0 -10   1 1702.39   93.62
   0  10   0  552.21   38.78
   0 -10   0  501.05   84.29
   0  10   1    4.99   20.34
   0 -10  -1   -4.43   19.34
   0  10   2  593.33   43.54
   0 -10  -2  531.28   81.51
   0  10   3   -0.50   20.84
   0 -10  -3    1.84   19.32
   0  10   4  298.01   38.84
   0 -10  -4  270.71   38.77
   0  10   5  119.72   32.55
   0 -10  -5  132.60   32.97
   0  11  -4   13.10   15.17
   0 -11   4    0.59   14.35
   0  11  -3  115.44   27.55
   0 -11   3   71.44   21.66
   0  11  -2  296.23   34.69
   0 -11   2  308.43   61.51
   0  11  -1   39.63   27.27
   0 -11   1    3.68   12.36
   0  11   0  166.26   31.45
   0 -11   0  208.15   35.45
   0  11   1  256.51   38.15
   0 -11  -1  190.11   38.68
   0  11   2  547.63   54.01
   0 -11  -2  437.36   50.03
   1 -11   1  595.62   98.15
   1 -11   2  624.65   99.11
   1 -10  -3    7.22   17.78
  -1  10   3  -19.05   20.70
   1 -10  -2  113.99   20.15
  -1  10   2  100.82   29.47
   1 -10  -1  592.18   75.19
  -1  10   1  625.20   59.75
   1 -10   0  217.05   38.35
  -1  10   0  272.29   33.63
   1 -10   1  681.81  117.71
  -1  10  -1  717.58   45.70
   1 -10   2   30.58   21.56
  -1  10  -2   45.47   25.40
   1 -10   3   24.55   19.93
  -1  10  -3    2.02   14.12
   1 -10   4  117.20   28.73
  -1  10  -4  144.51   29.76
   1 -10   5  187.39   45.54
  -1  10  -5  116.58   23.02
   1 -10   6   -6.91   17.40
  -1   9   5  637.30   47.75
   1  -9  -4  255.01   33.14
  -1   9   4  265.53   35.89
   1  -9  -3  567.57   42.19
  -1   9   3  523.51   40.86
   1  -9  -2   35.55   20.34
  -1   9   2   80.41   23.41
   1  -9  -1  455.15   83.09
  -1   9   1  495.12   43.64
   1  -9   0  512.80   66.68
  -1   9   0  471.62   35.21
   1  -9   1  826.54   61.61
  -1   9  -1  745.23   43.58
   1  -9   2 1040.87  174.19
  -1   9  -2 1106.46   50.08
   1  -9   3  272.10   56.13
  -1   9  -3  293.55   29.71
   1  -9   4  534.62   91.39
  -1   9  -4  523.49   41.33
   1  -9   5   30.05   21.37
  -1   9  -5   12.54   14.27
  -1   9  -6  753.11   41.74
  -1   9  -7   54.42   26.56
  -1   9  -8  120.78   28.08
  -1   8   7  293.11   45.79
  -1   8   6  -26.89   26.66
   1  -8  -5  569.80   38.38
  -1   8   5  572.58   52.60
   1  -8  -4  170.18   29.48
  -1   8   4  145.12   29.98
   1  -8  -3  739.72   56.39
  -1   8   3  787.45   51.01
   1  -8  -2  170.49   33.13
  -1   8   2  138.93   28.51
   1  -8  -1  257.02   36.59
  -1   8   1  247.04   31.99
   1  -8   0 1248.60   98.04
  -1   8   0 1148.65   58.77
   1  -8   1  728.30   47.04
  -1   8  -1  768.25   48.10
   1  -8   2  501.17   97.94
  -1   8  -2  484.46   33.81
   1  -8   3   46.38   17.70
  -1   8  -3   76.95   20.18
   1  -8   4   32.64   15.09
  -1   8  -4   36.68   26.91
  -1   8  -4   12.85   12.01
   1  -8   5  107.79   17.41
  -1   8  -5  133.69   25.73
  -1   8  -5  101.64   19.87
   1  -8   6   11.48   12.33
  -1   8  -6    2.06   17.41
  -1   8  -6   15.63   12.64
   1  -8   7  341.19   60.34
  -1   8  -7  410.68   38.26
   1  -8   8   29.16   16.13
  -1   8  -8   68.40   30.99
  -1   8  -9  941.32   58.15
  -1   7   8   -8.17   27.80
   1  -7  -7  528.67   48.38
  -1   7   7  554.91   69.10
   1  -7  -6  177.72   21.02
   1  -7  -6  190.50   25.65
  -1   7   6  189.54   46.85
   1  -7  -5  198.98   25.69
   1  -7  -5  108.70   20.30
  -1   7   5  146.90   33.09
   1  -7  -4  103.95   17.29
   1  -7  -4  109.16   22.85
  -1   7   4  112.61   30.45
   1  -7  -3  736.94   32.42
   1  -7  -3  751.57   42.95
  -1   7   3  677.43   41.07
   1  -7  -2 3093.18   67.69
   1  -7  -2 3143.26  166.89
  -1   7   2 3022.84   81.83
   1  -7  -1 5223.74  124.66
   1  -7  -1 5631.20  238.95
  -1   7   1 5290.29  142.24
   1  -7   0 1921.39   55.31
   1  -7   0 1976.15   96.95
  -1   7   0 1890.78   68.05
   1  -7   1 2587.79   68.66
   1  -7   1 2555.35  116.76
  -1   7  -1 2490.09   76.73
   1  -7   2  170.55   19.52
  -1   7  -2  123.24   23.16
   1  -7   3 1389.47   47.50
  -1   7  -3 1349.91   58.44
  -1   7  -3 1258.30   48.34
   1  -7   4   14.90   14.34
  -1   7  -4  -10.28   16.82
  -1   7  -4   23.11   15.75
   1  -7   5  998.59   40.91
  -1   7  -5  956.38   47.90
  -1   7  -5  878.10   40.61
   1  -7   6   20.81    9.80
  -1   7  -6   -1.85   15.34
  -1   7  -6    8.42   12.07
   1  -7   7 1526.43   93.12
  -1   7  -7 1509.04   98.09
  -1   7  -7 1473.63   90.80
   1  -7   8   19.38    9.59
  -1   7  -8    4.16   16.41
  -1   7  -8    2.60   10.00
   1  -7   9  126.00   24.07
  -1   7  -9  125.71   25.40
   1  -7  10  104.34   32.06
  -1   7 -10  231.09   37.14
   1  -6  -9  220.40   34.43
  -1   6   9  231.78   40.54
   1  -6  -8  493.08   41.61
  -1   6   8  515.30   47.11
   1  -6  -7  176.83   27.07
  -1   6   7  128.88   39.52
   1  -6  -6  637.98   47.90
   1  -6  -6  654.88   46.16
  -1   6   6  710.55   60.76
   1  -6  -5  273.91   23.75
   1  -6  -5  246.62   25.27
  -1   6   5  234.36   35.82
   1  -6  -4    0.58   11.07
   1  -6  -4  -13.89   12.66
  -1   6   4    5.96   22.99
   1  -6  -3 1122.54   43.76
   1  -6  -3 1160.97   64.06
  -1   6   3 1139.12   54.64
   1  -6  -2  862.69   31.48
   1  -6  -2  909.44   60.45
  -1   6   2  868.76   46.15
   1  -6  -1  557.20   24.23
   1  -6  -1  538.65   36.31
  -1   6   1  591.96   32.82
   1  -6   0  461.11   21.73
   1  -6   0  484.32   32.74
  -1   6   0  423.12   27.50
   1  -6   2   10.33    9.94
  -1   6  -2    4.04   16.01
  -1   6  -2    3.36   10.88
   1  -6   3 2217.93   44.31
  -1   6  -3 2185.48   57.18
  -1   6  -3 2280.27   50.42
   1  -6   4  275.66   23.26
  -1   6  -4  276.54   29.22
  -1   6  -4  274.09   21.05
   1  -6   5 9946.02  230.10
  -1   6  -5 9156.89  220.87
  -1   6  -5 9577.48  220.42
   1  -6   6  119.72   22.29
  -1   6  -6  106.73   21.26
  -1   6  -6   70.01   13.92
   1  -6   7 1019.42   88.46
  -1   6  -7 1036.76   57.87
  -1   6  -7 1036.66   49.00
   1  -6   8 2396.14  140.79
  -1   6  -8 2562.01  150.49
  -1   6  -8 2406.73  136.84
   1  -6   9   79.52   15.92
  -1   6  -9   78.72   26.51
   1  -6  10 2231.63  672.03
  -1   6 -10 2183.90   66.74
   1  -6  11   29.51   12.47
  -1   6 -11   14.69   14.45
   1  -5  -9  141.08   30.93
  -1   5   9  143.52   43.86
   1  -5  -8  534.44   42.05
  -1   5   8  554.60   51.21
   1  -5  -7 1849.79  113.79
  -1   5   7 1810.87  115.44
   1  -5  -6 1088.80   53.58
   1  -5  -6  999.32   46.49
  -1   5   6 1071.45   62.00
   1  -5  -5  295.54   25.33
   1  -5  -5  247.47   20.92
  -1   5   5  303.56   43.85
   1  -5  -4  119.08   18.43
   1  -5  -4  114.37   17.48
  -1   5   4  139.78   31.81
   1  -5  -3  106.78   16.84
   1  -5  -3  131.54   20.39
  -1   5   3  141.73   29.95
   1  -5  -2  618.14   26.91
   1  -5  -2  618.81   30.46
  -1   5   2  570.33   33.33
   1  -5  -110444.63  132.08
   1  -5  -110277.48  153.78
  -1   5   110356.62  147.61
   1  -5   0   12.16   10.14
   1  -5   0    6.83   11.38
  -1   5   0   -5.87   13.97
   1  -5   1 7441.81   99.86
  -1   5  -1 7487.01  114.06
  -1   5  -1 7766.72  113.28
   1  -5   2 2593.51   50.81
  -1   5  -2 2495.67   58.84
  -1   5  -2 2630.87   54.34
   1  -5   3 1147.01   32.83
  -1   5  -3 1174.98   43.00
  -1   5  -3 1257.94   37.01
   1  -5   4 5486.51  106.17
  -1   5  -4 5633.33   92.27
  -1   5  -4 5490.30   76.41
   1  -5   5 1094.98   72.65
  -1   5  -5 1102.99   42.46
  -1   5  -5 1156.19   33.34
   1  -5   6 4027.44   81.73
  -1   5  -6 4055.87   86.63
  -1   5  -6 3794.07   71.19
   1  -5   7  507.20   75.31
  -1   5  -7  494.43   32.64
  -1   5  -7  498.19   26.58
   1  -5   8   -5.05   13.73
   1  -5   8   11.60    7.04
  -1   5  -8   28.57   17.75
   1  -5   9  139.85   27.28
   1  -5   9  133.44   24.67
  -1   5  -9  157.78   21.28
   1  -5  10  121.21   31.20
  -1   5 -10  105.14   20.65
   1  -5  11   73.13   18.99
  -1   5 -11   71.13   22.62
   1  -4 -10  218.65   33.99
  -1   4  10  259.41   53.84
   1  -4  -9  749.78   51.64
  -1   4   9  667.12   61.99
   1  -4  -8  247.17   36.00
  -1   4   8  285.79   43.47
   1  -4  -7  938.78   55.22
  -1   4   7  944.65   66.78
   1  -4  -6   64.89   18.92
   1  -4  -6   51.99   11.96
  -1   4   6  -11.30   30.66
   1  -4  -5   -1.88   14.93
   1  -4  -5   36.19   15.08
  -1   4   5   11.00   29.88
   1  -4  -4  616.68   30.06
   1  -4  -4  672.94   27.70
  -1   4   4  683.63   47.62
   1  -4  -3  624.43   28.23
   1  -4  -3  641.19   46.64
  -1   4   3  577.39   36.57
   1  -4  -2  -18.88    8.99
   1  -4  -2   10.35    6.28
  -1   4   2    6.46   22.25
   1  -4  -1  587.46   20.22
   1  -4  -1  688.89   76.01
  -1   4   1  548.31   26.38
   1  -4   020130.67  129.50
  -1   4   020281.69  146.96
  -1   4   019712.51  142.79
   1  -4   1  556.60   24.63
  -1   4  -1  515.75   27.78
  -1   4  -1  546.68   24.96
   1  -4   2 1013.20   25.22
  -1   4  -2 1036.01   33.37
  -1   4  -2 1116.83   27.86
   1  -4   3 2050.40   38.11
  -1   4  -3 2039.38   45.16
  -1   4  -3 2014.39   35.26
   1  -4   4   11.14   10.76
  -1   4  -4   10.11   14.14
  -1   4  -4   -3.52    8.77
   1  -4   512473.07  198.72
   1  -4   6 1051.09   37.50
  -1   4  -6 1152.02   41.10
  -1   4  -6 1062.90   33.02
   1  -4   7 5509.85  101.88
   1  -4   8 3306.87   94.98
  -1   4  -8 3146.49   79.78
   1  -4   9  728.09   87.99
  -1   4  -9  734.33   33.90
   1  -4  10  411.12   74.81
  -1   4 -10  473.95   37.42
  -1   4 -11   76.39   30.67
   1  -3 -11   17.97   20.38
  -1   3  11    9.41   29.65
   1  -3 -10  133.39   26.95
  -1   3  10  179.80   39.26
   1  -3  -9  986.83   68.03
  -1   3   9  981.40   76.89
   1  -3  -8   81.47   23.52
  -1   3   8   88.26   45.81
   1  -3  -7  284.38   28.55
  -1   3   7  304.27   50.85
   1  -3  -6 3920.14   83.05
   1  -3  -6 3946.32   65.95
  -1   3   6 3894.81   99.37
   1  -3  -5    4.13   13.61
   1  -3  -5   20.22    9.07
  -1   3   5  103.40   45.08
   1  -3  -4   11.91   17.00
   1  -3  -4    4.77    8.31
  -1   3   4    6.14   29.26
   1  -3  -3 7444.93   76.81
   1  -3  -3 7330.11   73.99
  -1   3   3 7389.45   90.75
   1  -3  -211634.90   95.26
   1  -3  -211453.32  100.73
  -1   3   211612.06  109.33
   1  -3  -1 1066.96   35.20
   1  -3  -1 1083.94   35.75
  -1   3   1 1065.18   38.25
   1  -3   0 6163.67   58.38
  -1   3   0 6106.66   63.31
  -1   3   0 6120.28   63.81
   1  -3   1 2498.41   36.30
  -1   3  -1 2498.68   40.97
   1  -3   2  240.79   16.07
  -1   3  -2  258.25   18.99
  -1   3  -2  247.47   14.46
   1  -3   3 3013.77   48.81
  -1   3  -3 3000.31   49.36
  -1   3  -3 2978.07   38.47
   1  -3   4 2807.22   50.49
  -1   3  -4 2935.40   51.35
  -1   3  -4 2737.07   37.78
   1  -3   5  581.84   28.97
  -1   3  -5  590.18   27.54
  -1   3  -5  588.63   21.76
  -1   3  -6 4018.14   73.22
   1  -3   7  159.33   32.24
  -1   3  -7  177.18   21.70
  -1   3  -7  173.80   18.71
   1  -3   8 1494.34   72.52
  -1   3  -8 1542.26   63.94
  -1   3  -8 1407.63   51.12
   1  -3   9 1040.33   99.82
  -1   3  -9 1050.47   48.57
  -1   3  -9 1070.77   41.85
   1  -3  10 1133.89   71.29
  -1   3 -10 1138.36   82.86
  -1   3 -10 1137.13   74.21
  -1   3 -11   25.83   17.49
  -1   3 -11   26.37   18.47
  -1   3 -12  983.18   62.73
   1  -2 -11   35.46   22.30
  -1   2  11   87.49   38.73
   1  -2 -10  544.74   46.62
  -1   2  10  521.10   56.87
   1  -2  -9   25.52   16.21
  -1   2   9   68.67   32.13
   1  -2  -8 1083.73   52.72
  -1   2   8 1099.26   61.69
   1  -2  -7  395.70   35.48
  -1   2   7  412.66   48.81
   1  -2  -6 5288.24   86.84
   1  -2  -6 5303.42   56.71
  -1   2   6 5224.69   98.22
   1  -2  -5   40.17   16.33
   1  -2  -5   52.55    9.00
  -1   2   5   62.14   31.40
   1  -2  -4 1789.13   41.59
   1  -2  -4 1877.82   28.76
  -1   2   4 1795.31   57.43
   1  -2  -3   -6.54   11.68
   1  -2  -3   16.16    7.76
  -1   2   3   22.04   22.71
   1  -2  -242925.52  232.56
   1  -2  -243018.75  115.59
  -1   2  -311215.00   73.43
   1  -2   5 1438.32   27.20
  -1   2  -5 1426.26   39.65
  -1   2  -5 1527.27   38.43
   1  -2   6 2632.55   67.92
  -1   2  -6 2472.81   58.59
  -1   2  -6 2402.68   54.12
   1  -2   7   54.67   15.31
  -1   2  -7   47.08   17.60
  -1   2  -7   56.14   14.44
   1  -2   8  740.38   87.65
  -1   2  -8  717.72   38.84
  -1   2  -8  757.83   30.84
   1  -2   9  226.38   24.63
  -1   2  -9  197.40   29.05
  -1   2  -9  197.24   22.00
   1  -2  10  387.77   28.83
  -1   2 -10  398.77   36.29
  -1   2 -10  377.69   28.61
   1  -2  11  334.29   34.79
  -1   2 -11  354.08   46.35
  -1   2 -11  287.63   25.40
  -1   2 -12  251.88   41.15
   1  -1 -11   20.66   21.74
  -1   1  11   33.18   28.17
   1  -1 -10  488.50   44.89
  -1   1  10  488.95   58.02
   1  -1  -9  278.61   32.96
  -1   1   9  287.86   41.37
   1  -1  -8    0.97   17.72
  -1   1   8    7.46   29.80
   1  -1  -7 3776.76   85.06
  -1   1   7 3748.62   92.67
   1  -1  -6 3558.37   72.89
  -1   1   6 3452.19   77.31
   1  -1  -5  142.93   18.04
   1  -1  -5  162.56    8.42
  -1   1   5  219.35   35.13
   1  -1  -4 1872.81   58.49
   1  -1  -4 1997.89   48.74
  -1   1   4 2023.47   67.22
   1  -1  -3  749.36   32.41
   1  -1  -3  767.48   21.91
  -1   1   3  690.87   34.40
  -1   1  -4 5745.69   63.83
  -1   1  -513376.29  106.02
   1  -1   6 1221.71   37.65
  -1   1  -6 1186.06   39.20
  -1   1  -6 1241.61   34.21
   1  -1   7  851.81   28.54
  -1   1  -7  859.47   36.84
  -1   1  -7  837.74   29.56
   1  -1   8  572.90   27.60
  -1   1  -8  634.54   40.52
  -1   1  -8  602.92   28.92
   1  -1   9   65.82   15.47
  -1   1  -9   45.52   18.95
  -1   1  -9   93.91   17.72
   1  -1  10  -16.09   15.21
  -1   1 -10    2.77   16.03
  -1   1 -10    3.56    9.10
   1  -1  11 1245.53   73.93
  -1   1 -11 1247.90   82.73
  -1   1 -12  140.39   34.38
   1   0 -11    9.86   21.72
  -1   0  11    4.52   23.34
   1   0 -10  127.64   33.77
  -1   0  10   54.26   27.75
   1   0  -9  223.31   29.36
  -1   0   9  180.45   29.85
   1   0  -8    5.19   19.52
  -1   0   8   -6.60   24.06
   1   0  -7 8342.09  116.96
  -1   0   7 8758.95  122.94
   1   0  -6  176.39   27.41
   1   0  -6  126.81    8.00
  -1   0   6  150.68   27.17
   1   0  -5  494.83   25.33
   1   0  -5  491.26   12.20
  -1   0   5  489.62   28.62
   1   0  -4  740.33   32.53
   1   0  -4  755.89   20.27
  -1   0   4  801.77   33.43
   1   0  -3 1413.31   45.15
   1   0  -3 1480.61   34.10
  -1   0   3 1521.97   46.68
  -1   0  -417092.45  115.51
  -1   0  -526161.26  176.50
   1   0   6 1245.27   35.52
  -1   0  -6 1201.30   38.79
  -1   0  -6 1152.74   29.71
   1   0   7  -17.87   15.08
  -1   0  -7    4.65   16.94
  -1   0  -7    0.72    9.37
   1   0   8  572.81   33.06
  -1   0  -8  552.76   35.92
  -1   0  -8  585.95   27.05
   1   0   9  349.22   32.92
  -1   0  -9  319.43   29.29
  -1   0  -9  312.59   21.46
   1   0  10  669.65   37.82
  -1   0 -10  696.92   46.04
  -1   0 -10  728.37   32.17
   1   0  11   91.60   31.96
  -1   0 -11   31.78   20.52
   1   0  12  938.98   71.59
  -1   0 -12  869.74   72.96
   1   1 -12   34.37   21.35
  -1  -1  12   62.44   38.18
   1   1 -11  388.81   39.78
  -1  -1  11  442.33   45.95
   1   1 -10   23.55   19.81
  -1  -1  10    7.46   22.98
   1   1  -9 3659.92  138.81
  -1  -1   9 3517.21  132.75
   1   1  -8   19.25   17.52
  -1  -1   8   33.20   22.39
   1   1  -7  249.97   24.90
   1   1  -7  205.17   12.01
  -1  -1   7  217.11   37.51
   1   1  -6 3028.55   68.22
   1   1  -6 3053.63   45.82
  -1  -1   6 3068.23   76.79
   1   1  -5 7935.82   88.81
   1   1  -5 7873.30   55.49
  -1  -1   5 7989.33   92.27
   1   1  -4 3151.64   51.17
   1   1  -4 3169.82   29.99
  -1  -1   4 3202.00   48.43
   1   1  -3 1226.66   40.90
   1   1  -3 1291.00   32.31
   1   1   4 3455.31   47.01
  -1  -1  -4 3616.96   50.80
  -1  -1  -4 3503.45   45.22
   1   1   5  364.01   25.73
  -1  -1  -5  383.61   24.89
  -1  -1  -5  345.36   19.97
   1   1   6  754.14   32.66
  -1  -1  -6  761.45   31.10
  -1  -1  -6  732.37   27.20
   1   1   7  415.82   33.41
  -1  -1  -7  395.45   30.44
  -1  -1  -7  348.65   18.75
   1   1   8   38.17   23.82
  -1  -1  -8   50.14   26.56
  -1  -1  -8   23.86    8.61
   1   1   9   29.51   22.22
  -1  -1  -9   46.80   15.39
  -1  -1  -9   49.22   12.78
   1   1  10 2514.46   68.68
  -1  -1 -10 2512.63   73.46
  -1  -1 -10 2476.59   56.45
   1   1  11   61.73   29.96
  -1  -1 -11   67.81   26.26
   1   1  12  589.76   56.78
  -1  -1 -12  638.36   59.92
   1   2 -12  -10.86   19.38
  -1  -2  12   33.49   25.35
   1   2 -11  207.53   34.01
  -1  -2  11  206.17   31.53
   1   2 -10   73.84   25.44
  -1  -2  10  105.83   25.40
   1   2  -9  522.89   44.49
  -1  -2   9  587.02   40.74
   1   2  -8  890.87   50.26
  -1  -2   8  893.41  149.91
   1   2  -7 1306.50   45.10
   1   2  -7 1290.63   28.75
  -1  -2   7 1429.46   46.42
   1   2  -6  178.53   23.66
   1   2  -6  121.53   11.22
  -1  -2   6  171.25   26.47
   1   2  -513322.96  116.81
   1   2  -513309.60   88.34
   1   2  -412883.22  107.70
   1   2  -3 3491.96   47.15
   1   2  -3 3522.42   37.17
   1   2  -3 3654.82   48.01
   1   2   4  234.12   19.80
  -1  -2  -4  294.58   18.95
  -1  -2  -4  258.27   17.66
   1   2   5  597.23   31.40
  -1  -2  -5  605.30   27.38
  -1  -2  -5  633.78   25.54
   1   2   6  240.88   27.67
  -1  -2  -6  217.07   21.47
  -1  -2  -6  142.20   17.03
   1   2   7  921.02   50.10
  -1  -2  -7  882.54   38.07
  -1  -2  -7  895.57   30.32
   1   2   8 2929.38   95.63
  -1  -2  -8 3024.62   91.57
  -1  -2  -8 3034.03   62.83
   1   2   9   83.50   24.94
  -1  -2  -9   27.17   19.11
  -1  -2  -9   36.66   12.41
   1   2  10  521.04   56.41
  -1  -2 -10  617.65   54.63
   1   2  11  659.15   48.72
  -1  -2 -11  605.54   47.90
   1   2  12   31.34   25.40
  -1  -2 -12   19.84   20.02
   1   3 -11   -8.01   15.27
  -1  -3  11   52.81   33.15
   1   3 -10  410.15   42.65
  -1  -3  10  431.20   68.87
   1   3  -9   97.42   26.11
  -1  -3   9   83.94   17.32
   1   3  -8 1165.73   52.62
   1   3  -8 1099.92   35.04
  -1  -3   8 1104.23   45.14
   1   3  -7 3987.57   86.66
   1   3  -7 4144.89   70.94
  -1  -3   7 3988.80   82.16
   1   3  -6   60.18   13.11
   1   3  -6   53.24   11.02
  -1  -3   6   65.56   12.75
   1   3  -5  479.97   27.41
   1   3  -5  417.67   19.60
  -1  -3   5  471.57   23.94
   1   3  -4   53.11   11.67
   1   3  -4   54.67    8.55
   1   3  -4   47.63   12.77
   1   3  -3 1107.23   36.06
   1   3  -3 1131.58   36.64
   1   3  -3 1184.33   41.05
   1   3  -2 5247.48   48.21
   1   3  -2 5272.62   57.72
  -1  -3   2 5295.81   53.28
   1   3   3  -28.27   14.46
  -1  -3  -3   -5.18    7.08
  -1  -3  -3  -18.25   12.82
   1   3   4  111.46   19.59
  -1  -3  -4   93.51   11.53
  -1  -3  -4  105.49   17.55
   1   3   5 1148.86   36.78
  -1  -3  -5 1149.13   33.82
  -1  -3  -5 1186.94   33.73
   1   3   6   36.74   22.76
  -1  -3  -6   43.15   13.99
  -1  -3  -6   56.71   21.39
   1   3   7 6422.82  104.06
  -1  -3  -7 6271.70   92.57
  -1  -3  -7 6421.64   86.62
   1   3   8 1673.54   73.21
  -1  -3  -8 1677.16   64.50
  -1  -3  -8 1667.68   55.71
   1   3   9  286.96   39.87
  -1  -3  -9  248.42   32.02
  -1  -3  -9  177.09   18.78
   1   3  10  358.79   40.32
  -1  -3 -10  458.18   42.52
   1   3  11  626.67   52.94
  -1  -3 -11  635.10   45.21
   1   3  12  802.40   59.54
  -1  -3 -12  895.94   69.74
   1   4 -11   80.44   28.91
  -1  -4  11   65.00   17.80
   1   4 -10  772.26   53.90
  -1  -4  10  555.79  121.73
   1   4  -9  994.19   71.61
   1   4  -9 1048.89   67.27
  -1  -4   9  920.68  160.70
   1   4  -8  338.83   27.87
   1   4  -8  310.21   22.15
  -1  -4   8  349.63   77.02
   1   4  -7 4067.15  113.28
   1   4  -7 4057.92  103.42
  -1  -4   7 4314.98  127.67
   1   4  -6 8190.44  105.42
   1   4  -6 8123.38   94.67
   1   4  -5   55.47   16.90
   1   4  -5   57.24   11.97
   1   4  -5   63.15   14.76
   1   4  -4 6811.95   71.61
   1   4  -4 6972.70   73.77
   1   4  -4 6771.15   76.92
   1   4  -3 1114.49   35.14
   1   4  -3 1079.35   37.61
   1   4  -3 1170.91   41.48
   1   4  -2 9173.72   66.99
  -1  -4   2 9165.60   83.33
   1   4  -1 1826.33   53.00
  -1  -4   1 1787.83   52.88
   1   4   0 2979.31   43.80
  -1  -4   0 3113.71   48.25
   1   4   1  428.78   21.87
  -1  -4  -1  407.32   10.71
  -1  -4  -1  391.97   23.75
   1   4   2  734.48   33.21
  -1  -4  -2  703.14   21.64
  -1  -4  -2  691.60   29.40
   1   4   323588.23  167.14
  -1  -4  -322887.56  134.60
  -1  -4  -323471.19  160.99
   1   4   4 3734.54   61.61
  -1  -4  -4 3661.06   48.46
  -1  -4  -4 3729.68   58.75
   1   4   5 3040.54   66.21
  -1  -4  -5 3228.93   61.31
  -1  -4  -5 3104.74   63.10
   1   4   6 4051.81   78.04
  -1  -4  -6 4043.29   68.36
  -1  -4  -6 4177.32   69.71
   1   4   7 2867.75   91.01
  -1  -4  -7 2715.81   83.98
  -1  -4  -7 2720.54   78.63
   1   4   8    3.52   20.18
  -1  -4  -8   36.97   17.02
  -1  -4  -8   53.54   19.99
   1   4   9  725.00   42.33
  -1  -4  -9  720.39   40.88
  -1  -4  -9  638.23   30.18
   1   4  10  889.74   50.52
  -1  -4 -10  884.28   49.38
   1   4  11    1.54   23.24
  -1  -4 -11    0.87   17.22
   1   5 -11  869.56   57.98
  -1  -5  11  593.68  140.04
   1   5 -10  185.62   28.72
  -1  -5  10  147.55   28.69
   1   5  -9 2070.65   68.17
   1   5  -9 2034.03   57.73
  -1  -5   9 2061.28   75.92
   1   5  -8 8367.09  109.71
   1   5  -8 7896.86  254.41
  -1  -5   8 8558.34  111.59
   1   5  -7  141.77   21.21
   1   5  -7  127.36   17.47
   1   5  -6 1562.84   50.44
   1   5  -6 1519.99   48.56
   1   5  -6 1516.91   49.50
   1   5  -5   82.00   13.00
   1   5  -5   76.77   13.77
   1   5  -5   99.68   16.81
   1   5  -4  652.16   25.42
   1   5  -4  664.55   30.19
   1   5  -4  637.48   27.63
   1   5  -3   75.55    8.99
   1   5  -3   82.52   16.77
  -1  -5   3   62.65   14.47
   1   5  -2  249.30   20.52
  -1  -5   2  199.08   21.23
  -1  -5   2  254.78   42.20
   1   5  -1  360.62   20.38
  -1  -5   1  379.38    9.55
  -1  -5   1  401.37   30.48
   1   5   0  365.38   21.42
  -1  -5   0  542.47   83.96
   1   5   1 4302.80   61.66
  -1  -5  -1 4346.36   65.57
   1   5   2  521.36   26.54
  -1  -5  -2  511.39   13.20
  -1  -5  -2  509.18   25.44
   1   5   317611.77  221.32
  -1  -5  -317064.87  192.08
  -1  -5  -317018.90  211.40
   1   5   4  129.64   24.77
  -1  -5  -4  131.27   13.32
  -1  -5  -4  133.74   20.82
   1   5   5   -4.08   21.69
  -1  -5  -5   -4.35    9.03
  -1  -5  -5    3.11   16.93
   1   5   6 1592.87   57.71
  -1  -5  -6 1582.49   46.56
  -1  -5  -6 1580.12   49.22
   1   5   7  230.83   29.91
  -1  -5  -7  175.19   18.78
  -1  -5  -7  204.00   25.45
   1   5   8   55.70   23.48
  -1  -5  -8   68.76   15.97
  -1  -5  -8   38.61   17.14
   1   5   9  172.82   34.75
  -1  -5  -9  112.41   23.02
  -1  -5  -9  149.98   24.93
   1   5  10  382.52   38.02
  -1  -5 -10  441.62   41.18
   1   5  11   20.74   22.21
  -1  -5 -11   24.46   18.78
   1   6 -11  243.51   34.77
   1   6 -10  598.56   53.52
  -1  -6  10  484.06  121.78
   1   6  -9   22.37   15.44
  -1  -6   9    6.02    7.45
   1   6  -8 2319.75  135.68
   1   6  -8 2139.35  124.79
  -1  -6   8 2222.44  129.39
   1   6  -7  539.06   34.46
   1   6  -7  467.80   29.72
   1   6  -7  529.91   36.27
   1   6  -6 6326.26  153.60
   1   6  -6 6497.85  162.67
   1   6  -6 6442.01  160.51
   1   6  -5 4418.80   79.78
   1   6  -5 4315.46   86.16
   1   6  -4  987.91   35.60
  -1  -6   4 1054.37   40.36
   1   6  -3    3.78   14.15
  -1  -6   3    4.73    4.47
  -1  -6   3   35.88    8.68
   1   6  -2   82.76   16.52
  -1  -6   2   79.96   13.76
  -1  -6   2   88.74   11.99
   1   6  -1   -7.38   13.09
  -1  -6   1   13.31    9.17
   1   6   0  241.68   20.79
  -1  -6   0  307.88   61.51
   1   6   1 6712.10  106.76
  -1  -6  -1 6617.72  158.96
   1   6   2 1086.34   39.07
  -1  -6  -2 1056.04   17.47
  -1  -6  -2 1005.28   37.71
   1   6   3   33.57   20.72
  -1  -6  -3   59.15    8.79
  -1  -6  -3   42.73   24.24
   1   6   4 2005.80   58.36
  -1  -6  -4 2120.21   39.46
  -1  -6  -4 2061.37   53.13
   1   6   5   48.07   18.63
  -1  -6  -5   28.00    9.90
  -1  -6  -5   56.08   25.73
   1   6   6   71.26   30.20
  -1  -6  -6   25.27   14.78
  -1  -6  -6   24.28   19.18
   1   6   7  287.56   34.27
  -1  -6  -7  262.83   23.99
  -1  -6  -7  230.02   26.90
   1   6   8   78.57   27.87
  -1  -6  -8   82.84   23.80
  -1  -6  -8   39.25   17.53
   1   6   9  300.21   38.30
  -1  -6  -9  341.22   30.24
   1   6  10   15.93   22.15
  -1  -6 -10   -3.33   15.95
   1   7 -10   55.03   28.24
  -1  -7  10   17.43   12.69
   1   7  -9  560.36   38.65
  -1  -7   9  545.44   95.15
  -1  -7   9  452.12   90.14
   1   7  -8   11.40   16.48
   1   7  -8    8.53   13.96
  -1  -7   8    1.20   11.13
   1   7  -7  706.80   38.04
  -1  -7   7  737.70   39.80
   1   7  -6  229.84   25.95
  -1  -7   6  302.96   25.15
  -1  -7   6  258.75   24.00
   1   7  -5  959.35   40.22
  -1  -7   5 1083.74   37.97
  -1  -7   5 1002.19  109.76
   1   7  -4  349.67   27.29
  -1  -7   4  284.24   49.05
  -1  -7   4  332.35   50.04
   1   7  -3  381.37   29.80
  -1  -7   3  302.84   52.94
  -1  -7   3  376.23   69.73
   1   7  -2  177.52   24.62
  -1  -7   2  183.65   28.94
   1   7  -1  366.09   28.68
  -1  -7   1  388.92   77.82
   1   7   0 4425.45   77.94
  -1  -7   0 4274.90   78.10
   1   7   1  216.91   29.34
  -1  -7  -1  205.64   36.03
   1   7   2 5360.19   92.58
  -1  -7  -2 5434.31   91.75
   1   7   3  208.08   29.92
  -1  -7  -3  194.11   26.45
   1   7   4 1606.63   64.00
  -1  -7  -4 1594.83   47.65
  -1  -7  -4 1560.70   60.84
   1   7   5  800.32   41.91
  -1  -7  -5  795.91   31.86
  -1  -7  -5  785.65   44.80
   1   7   6  122.03   21.97
  -1  -7  -6  116.03   15.45
  -1  -7  -6  121.22   22.47
   1   7   7 1087.65   57.04
  -1  -7  -7 1086.70   44.88
  -1  -7  -7 1075.48   50.53
   1   7   8   65.88   21.54
  -1  -7  -8   54.79   18.91
  -1  -7  -8   30.81   17.94
   1   7   9   87.81   34.48
  -1  -8   9 1882.36   71.93
  -1  -8   9 1799.28   67.44
   1   8  -8  323.49   34.42
  -1  -8   8  238.59   54.27
  -1  -8   8  321.54   61.96
   1   8  -7 1242.22   73.58
  -1  -8   7 1247.59   69.88
  -1  -8   7 1349.71   77.83
   1   8  -6   22.93   13.93
  -1  -8   6   -0.47    4.38
  -1  -8   6   11.59   10.06
   1   8  -5  703.49   41.62
  -1  -8   5  612.06   66.57
  -1  -8   5  813.26   74.24
   1   8  -4 2690.10   72.50
  -1  -8   4 2471.88   74.46
   1   8  -3   68.33   21.61
  -1  -8   3   92.02   19.88
   1   8  -2 2660.26   84.65
  -1  -8   2 2522.24   83.21
   1   8  -1  489.94   35.42
  -1  -8   1  515.91   96.05
   1   8   010016.50  239.91
  -1  -8   0 9862.57  241.20
   1   8   1  350.84   32.85
  -1  -8  -1  405.12   73.55
   1   8   2  -12.42   17.86
  -1  -8  -2   17.79   18.37
   1   8   3 4671.56  110.33
  -1  -8  -3 4540.44  106.99
   1   8   4   11.62   18.61
  -1  -8  -4  -14.53   17.92
   1   8   5  212.27   30.53
  -1  -8  -5  268.53   31.78
   1   8   6  667.96   54.35
  -1  -8  -6  597.17   39.38
   1   8   7   -3.60   23.51
  -1  -8  -7    1.66   18.88
   1   8   8  228.13   35.94
   1   9  -8  470.98   40.63
  -1  -9   8  402.51   81.08
   1   9  -7  300.25   34.35
  -1  -9   7  276.07   61.97
   1   9  -6  549.42   34.49
  -1  -9   6  579.99   72.27
   1   9  -5   29.19   15.80
  -1  -9   5   -1.67   18.29
   1   9  -4  832.25   60.49
  -1  -9   4  701.31   82.47
   1   9  -3  264.34   26.20
  -1  -9   3  252.27   58.09
   1   9  -2 1463.20   69.47
  -1  -9   2 1456.42  114.76
   1   9  -1  577.01   41.16
  -1  -9   1  579.93  117.93
   1   9   0  470.70   40.78
  -1  -9   0  457.09   80.35
   1   9   1  696.34   49.12
  -1  -9  -1  747.05   91.99
   1   9   2 4925.22   96.53
  -1  -9  -2 4799.95  100.49
   1   9   3 1806.75  112.73
  -1  -9  -3 1785.97  112.33
   1   9   4  580.78   42.67
  -1  -9  -4  712.90   45.07
   1   9   5  599.13   53.46
  -1  -9  -5  534.94   43.51
   1   9   6   20.01   22.55
  -1  -9  -6    0.75   18.26
   1   9   7   29.95   23.92
  -1  -9  -7   12.00   19.19
   1  10  -7   -9.82   14.61
  -1 -10   7   20.14   13.23
   1  10  -6   82.27   18.52
  -1 -10   6   46.40   28.08
   1  10  -5  101.20   23.61
  -1 -10   5  165.80   30.49
   1  10  -4   -0.25   16.05
  -1 -10   4   16.56   11.10
   1  10  -3  164.92   25.52
  -1 -10   3  196.30   31.08
   1  10  -2  635.13   52.33
  -1 -10   2  519.35  113.31
   1  10  -1   -0.58   16.07
  -1 -10   1   12.94   18.84
   1  10   0 1437.61   62.53
  -1 -10   0 1373.91   73.36
   1  10   1  123.42   25.22
  -1 -10  -1  127.63   28.39
   1  10   2  422.97   44.18
  -1 -10  -2  378.75   39.04
   1  10   3  241.76   36.61
  -1 -10  -3  257.75   31.57
   1  10   4  234.24   39.08
  -1 -10  -4  222.38   30.24
   1  10   5   84.96   34.34
  -1 -10  -5   -7.56   18.37
   1  10   6    8.38   23.67
  -1 -10  -6  -11.54   19.09
   1  11  -5  284.70   34.76
  -1 -11   5  333.55   63.27
   1  11  -4  175.41   28.28
  -1 -11   4  260.07   37.33
  -1 -11   3   73.40   31.58
   1  11  -2  545.49   41.90
  -1 -11   2  454.41  110.27
   1  11  -1   13.49   18.56
  -1 -11   1   51.72   29.65
   1  11   0  287.65   40.35
  -1 -11   0  280.67   47.34
   1  11   1    5.86   19.03
  -1 -11  -1   79.65   31.07
   1  11   2  283.43   39.06
  -1 -11  -2  296.01   40.11
   1  11   3  213.83   32.84
  -1 -11  -3  196.86   34.02
   1  11   4   34.66   24.22
  -1 -11  -4   27.78   29.45
   2 -10  -1   57.72   10.35
  -2  10   1  124.57   29.60
  -2  10   0   58.15   18.95
   2 -10   1  620.01   92.39
  -2  10  -1  701.98   49.46
   2 -10   2  -19.73   19.70
  -2  10  -2   31.52   18.43
   2 -10   3  636.76  150.79
  -2  10  -3  714.21   48.02
   2 -10   4  104.13   27.79
   2 -10   5   64.07   25.88
   2  -9  -3    5.92   18.83
  -2   9   3   44.43   31.95
   2  -9  -2  632.30  118.73
  -2   9   2  741.95   65.00
   2  -9  -1  846.44   67.86
  -2   9   1  931.32   48.85
   2  -9   0   19.78   19.61
  -2   9   0   14.07   17.06
   2  -9   1   34.01   12.69
  -2   9  -1   43.71   22.01
   2  -9   2  356.91   51.11
  -2   9  -2  330.86   31.40
   2  -9   3   36.71   12.44
  -2   9  -3   51.55   20.41
   2  -9   4  319.70   37.92
  -2   9  -4  267.90   27.64
  -2   9  -5  153.74   37.48
  -2   9  -5  171.69   23.87
  -2   9  -6  168.29   36.19
  -2   9  -7  309.08   43.43
  -2   8   5  552.79   54.08
   2  -8  -4  331.83   27.98
  -2   8   4  450.28   44.08
   2  -8  -3   79.11   29.06
  -2   8   3   75.20   35.91
   2  -8  -2  284.69   45.52
  -2   8   2  242.47   37.50
   2  -8  -1   22.20   17.34
  -2   8   1   32.34   21.56
   2  -8   0  551.90  107.97
  -2   8   0  603.97   47.99
   2  -8   1   85.05   18.85
  -2   8  -1   89.05   23.58
   2  -8   2  872.43   68.18
  -2   8  -2  759.65   53.73
   2  -8   3   13.70   12.18
  -2   8  -3   36.79   17.87
  -2   8  -3   41.54   18.76
   2  -8   4  580.13   35.68
  -2   8  -4  589.78   40.66
  -2   8  -4  535.72   35.41
   2  -8   5  962.93   57.70
  -2   8  -5 1044.55   71.89
  -2   8  -5  892.07   54.82
   2  -8   6  334.42   29.77
  -2   8  -6  348.94   37.07
   2  -8   7    7.48   16.38
  -2   8  -7   16.33   19.18
   2  -8   8   93.67   22.44
  -2   8  -8  108.18   29.42
  -2   8  -9  959.44   69.52
  -2   7   7   55.73   39.88
   2  -7  -6  409.19   44.06
  -2   7   6  404.08   50.38
   2  -7  -5   23.37   20.62
  -2   7   5   59.41   26.59
   2  -7  -4 1268.86   73.21
   2  -7  -4 1027.74   60.65
  -2   7   4 1227.36   80.00
   2  -7  -3  -11.13   11.53
   2  -7  -3   11.19    6.80
  -2   7   3    3.40   19.98
   2  -7  -2  760.05   35.25
   2  -7  -2  733.04   60.00
  -2   7   2  702.73   45.71
   2  -7  -1  245.51   22.53
   2  -7  -1  271.30   52.95
  -2   7   1  228.79   27.23
   2  -7   0  935.52   37.68
   2  -7   0  898.00   42.50
  -2   7   0  829.06   43.83
   2  -7   1  524.94   28.49
   2  -7   1  638.45   41.44
  -2   7  -1  529.49   35.44
   2  -7   2    0.18   11.09
  -2   7  -2    7.32   15.49
  -2   7  -2   51.55   20.34
   2  -7   3 1064.46   40.93
  -2   7  -3  991.42   49.25
  -2   7  -3 1045.07   44.72
   2  -7   4 2446.90   92.36
  -2   7  -4 2454.10   99.85
  -2   7  -4 2248.43   85.69
   2  -7   5  633.42   33.17
  -2   7  -5  629.41   42.28
  -2   7  -5  616.47   29.97
   2  -7   6 1250.12   78.95
  -2   7  -6 1218.69   82.64
  -2   7  -6 1227.01   74.06
   2  -7   7  230.08   27.09
  -2   7  -7  212.96   32.72
   2  -7   8  285.15   77.14
  -2   7  -8  486.68   41.06
   2  -7   9  372.11   86.02
  -2   7  -9  407.43   43.59
   2  -7  10  344.86   77.02
  -2   7 -10  384.52   44.55
   2  -6  -8  527.76   53.71
  -2   6   8  405.17   54.83
   2  -6  -7   37.36   20.81
  -2   6   7  109.64   45.89
   2  -6  -6  991.64   46.43
  -2   6   6  901.32   56.70
   2  -6  -5   24.53   14.32
  -2   6   5   22.13   26.68
   2  -6  -4   99.10   16.47
   2  -6  -4  103.10   18.62
  -2   6   4  122.58   33.38
   2  -6  -3   -5.39   12.27
   2  -6  -3   -3.64   12.66
  -2   6   3   31.08   20.79
   2  -6  -2 1149.93   44.91
   2  -6  -2 1005.40   82.79
  -2   6   2 1096.14   52.14
   2  -6  -1   95.58   19.35
   2  -6  -1  110.23   16.22
  -2   6   1   58.18   16.59
   2  -6   0   17.40   11.37
   2  -6   0   12.14    4.77
  -2   6   0    2.26   16.31
   2  -6   1   23.79   12.97
  -2   6  -1   25.95   15.19
  -2   6  -1   11.40   14.80
   2  -6   2 1044.39   39.14
  -2   6  -2  941.13   42.69
  -2   6  -2 1075.89   40.38
   2  -6   3 9368.72  140.38
  -2   6  -3 9100.95  151.28
  -2   6  -3 9231.93  139.09
   2  -6   4 2520.17   76.55
  -2   6  -4 2464.99   80.74
  -2   6  -4 2397.66   68.37
   2  -6   5   23.29   21.82
  -2   6  -5   13.36   16.78
   2  -6   6 3622.50   86.33
  -2   6  -6 3358.88   88.10
  -2   6  -6 3596.33   76.70
   2  -6   7  531.88  106.21
  -2   6  -7  562.52   37.39
  -2   6  -7  542.35   28.07
   2  -6   8 1044.99   75.08
  -2   6  -8  992.37   48.74
   2  -6   9   45.88   13.41
  -2   6  -9   41.56   16.38
   2  -6  10  192.03   46.73
  -2   6 -10  216.37   29.58
   2  -6  11   37.86   18.93
  -2   6 -11   57.32   23.83
   2  -5  -8  939.29   73.99
  -2   5   8  825.98   77.78
   2  -5  -7  475.56   39.48
  -2   5   7  434.89   51.76
   2  -5  -6  555.49   49.45
  -2   5   6  507.79   60.92
   2  -5  -5    6.08   13.39
   2  -5  -5   23.37   13.62
  -2   5   5   -2.75   26.86
   2  -5  -4   58.49   12.89
   2  -5  -4   67.59   15.56
  -2   5   4   57.29   24.61
   2  -5  -3   95.06   20.06
   2  -5  -3  153.00   27.79
  -2   5   3  176.62   37.67
   2  -5  -2 3009.79   67.53
   2  -5  -2 2909.78   73.17
  -2   5   2 2875.21   72.70
   2  -5  -1 6068.37   82.24
   2  -5  -1 6015.29   88.29
  -2   5   1 6322.41   98.12
   2  -5   0  949.01   34.26
  -2   5   0  907.30   37.63
  -2   5   0  885.83   37.48
   2  -5   1 1281.58   36.25
  -2   5  -1 1302.65   41.94
  -2   5  -1 1353.68   39.20
   2  -5   2 5496.59   81.62
  -2   5  -2 5669.51   94.65
  -2   5  -2 5590.80   81.55
   2  -5   3  161.26   22.25
  -2   5  -3  111.65   20.20
  -2   5  -3  115.17   14.26
  -2   5  -4 9436.40  120.79
  -2   5  -4 9255.13   97.03
   2  -5   5 4352.68   87.38
  -2   5  -5 4333.75   90.51
  -2   5  -5 4299.16   74.06
   2  -5   6  281.47   51.48
  -2   5  -6  267.83   26.05
  -2   5  -6  256.05   17.94
   2  -5   7  238.14   50.09
  -2   5  -7  234.82   25.84
  -2   5  -7  236.35   18.33
   2  -5   8   61.63   13.05
  -2   5  -8  106.05   27.98
   2  -5   9  251.46   57.40
  -2   5  -9  208.75   26.97
   2  -5  10   21.36   13.83
  -2   5 -10   25.93   17.20
   2  -5  11  234.19   57.16
  -2   5 -11  298.75   35.16
   2  -4  -9  624.07   51.44
  -2   4   9  598.95   61.32
   2  -4  -8  132.81   31.18
  -2   4   8  113.87   50.07
   2  -4  -7  540.88   41.73
  -2   4   7  554.21   58.45
   2  -4  -6   66.25   20.62
  -2   4   6  116.48   41.29
   2  -4  -5  350.66   30.40
   2  -4  -5  333.28   21.16
  -2   4   5  247.50   30.12
   2  -4  -4 1762.85   55.87
   2  -4  -4 1672.00   40.98
  -2   4   4 1747.45   70.27
   2  -4  -3  720.66   34.12
   2  -4  -3  716.72   49.98
  -2   4   3  705.28   46.42
   2  -4  -2 2072.77   52.12
   2  -4  -2 2190.85   45.47
  -2   4   2 2084.92   57.20
   2  -4  -1  438.28   28.55
  -2   4   1  456.02   30.28
   2  -4   0  909.29   29.75
  -2   4   0  905.53   31.53
  -2   4   0  935.65   34.21
   2  -4   1  809.96   28.92
  -2   4  -1  823.85   31.52
  -2   4  -1  806.00   28.80
   2  -4   2 1089.77   32.99
  -2   4  -2  969.76   34.28
  -2   4  -2  996.49   28.73
   2  -4   3 7387.88  108.51
  -2   4  -3 7376.56  115.11
  -2   4  -3 7046.15   94.64
   2  -4   4 1306.37   43.43
  -2   4  -4 1136.38   37.97
  -2   4  -4 1188.44   30.20
   2  -4   5 6482.06  104.76
  -2   4  -5 6712.09  104.23
  -2   4  -5 6561.49   79.23
   2  -4   6 2264.24   57.77
  -2   4  -6 2214.82   56.48
  -2   4  -6 2346.74   41.98
   2  -4   7 1388.98   54.47
  -2   4  -7 1379.21   54.91
   2  -4   8  421.12   58.90
  -2   4  -8  378.94   27.52
   2  -4   9   75.15   22.69
  -2   4  -9   87.14   19.82
   2  -4  10  192.86   38.50
  -2   4 -10  192.61   24.50
   2  -4  11  490.65  102.63
  -2   4 -11  504.38   37.31
   2  -4  12   19.60   13.02
  -2   4 -12   32.03   15.37
   2  -3 -10   28.06   20.52
  -2   3  10   10.10   33.02
   2  -3  -9  300.56   34.98
  -2   3   9  256.64   49.05
   2  -3  -8   23.69   17.51
  -2   3   8   16.45   31.68
   2  -3  -7  501.82   41.26
  -2   3   7  538.49   49.50
   2  -3  -6  311.30   30.91
  -2   3   6  241.37   41.54
   2  -3  -5  254.84   29.77
  -2   3   5  269.52   42.83
   2  -3  -4    6.10   14.85
   2  -3  -4    4.87    6.55
  -2   3   4   28.02   32.33
   2  -3  -3  -11.62   14.09
   2  -3  -3   -3.50    7.13
  -2   3   3   19.42   26.78
   2  -3  -2    3.83   13.45
   2  -3  -2    7.91    3.70
  -2   3   2   -6.56   23.69
   2  -3  -1 2477.20   46.49
  -2   3   1 2472.44   40.81
  -2   3   1 2412.50   53.14
   2  -3   0  473.82   24.35
  -2   3   0  475.26   24.40
  -2   3   0  434.81   26.99
   2  -3   1 2515.89   48.24
  -2   3  -1 2460.06   45.34
  -2   3  -1 2481.86   40.33
   2  -3   216403.87  122.80
   2  -3   3 2650.88   49.50
  -2   3  -3 2593.91   49.05
  -2   3  -3 2577.72   33.83
   2  -3   4  765.58   29.46
  -2   3  -4  781.60   29.60
  -2   3  -4  799.89   18.56
   2  -3   5 1193.59   41.35
  -2   3  -5 1146.18   36.48
   2  -3   6  294.19   69.87
  -2   3  -6  243.22   18.77
  -2   3  -6  260.12   13.17
   2  -3   7  670.66   41.41
   2  -3   7  673.44   22.38
  -2   3  -7  733.00   35.26
   2  -3   8  687.68   67.32
   2  -3   8  530.12   84.49
  -2   3  -8  619.16   34.58
   2  -3   9  114.38   21.41
  -2   3  -9  111.88   18.45
   2  -3  10  908.29   71.87
  -2   3 -10  930.24   62.92
   2  -3  11   19.90    9.71
  -2   3 -11    3.74   13.90
   2  -3  12  513.03  137.06
  -2   3 -12  562.95   39.30
   2  -2 -10   38.99   22.77
  -2   2  10   12.97   28.73
   2  -2  -9   42.88   25.61
  -2   2   9   62.42   42.66
   2  -2  -8  107.79   24.94
  -2   2   8   95.87   38.06
   2  -2  -7   63.28   19.91
  -2   2   7   50.25   33.06
   2  -2  -6  144.18   23.74
  -2   2   6   93.50   36.30
   2  -2  -5 1588.36   53.54
  -2   2   5 1567.11   63.75
   2  -2  -4 1079.30   41.02
   2  -2  -4 1102.05   21.02
  -2   2   4 1193.61   57.03
   2  -2  -3 3158.34   58.47
   2  -2  -3 3136.44   36.58
  -2   2   3 3023.48   69.17
   2  -2  -2 3840.77   57.09
   2  -2  -2 3762.90   44.80
  -2   2   2 3820.21   67.25
   2  -2  -114239.23  111.05
  -2   2   114509.52   99.32
  -2   2   114512.08  119.06
   2  -2   0  371.91   21.99
  -2   2   0  382.29   18.07
  -2   2   0  372.10   21.46
   2  -2   118039.16  125.49
  -2   2  -117890.25  122.44
  -2   2  -118123.07  116.21
   2  -2   2 8057.69   77.69
  -2   2  -2 8155.81   77.43
  -2   2  -2 8171.65   59.86
   2  -2   3  741.87   58.64
  -2   2  -3  749.53   32.75
  -2   2  -3  781.08   22.65
   2  -2   438750.31  238.79
  -2   2  -438640.42  234.97
  -2   2  -438587.63  189.75
   2  -2   5 2338.93   64.29
   2  -2   5 2340.55   29.31
  -2   2  -5 2251.06   47.48
   2  -2   6 1464.66   44.41
   2  -2   6 1473.69   30.80
  -2   2  -6 1400.30   42.74
   2  -2   7 2666.98   65.39
   2  -2   7 2702.89   48.77
  -2   2  -7 2687.80   57.88
   2  -2   8 3068.56   74.92
   2  -2   8 3318.17   60.94
  -2   2  -8 3330.50   75.00
   2  -2   9   32.73   17.33
   2  -2   9   24.93   15.15
  -2   2  -9   36.59   17.65
  -2   2 -10  476.93   32.56
  -2   2 -11 1547.36   55.84
   2  -2  12  239.01   44.44
  -2   2 -12  137.14   21.54
   2  -1 -11   40.30   28.47
  -2   1  11   49.05   45.66
   2  -1 -10   45.04   27.35
  -2   1  10   48.90   39.73
   2  -1  -9   15.98   19.47
  -2   1   9    7.71   25.17
   2  -1  -8   41.06   17.28
  -2   1   8   42.97   31.13
   2  -1  -7 8687.35  117.17
  -2   1   7 8490.64  172.15
   2  -1  -6 4348.88   95.90
  -2   1   6 4214.46   97.96
   2  -1  -5 2315.74   57.52
  -2   1   5 2420.33   68.93
   2  -1  -4 2941.79   64.34
  -2   1   4 3141.88   75.69
   2  -1  -312290.22  110.28
   2  -1  -311855.53   61.75
  -2   1   312083.11  114.26
   2  -1  -220554.51  145.11
  -2   1   220720.88  149.57
   2  -1  -1  615.73   26.23
  -2   1   1  640.11   20.15
  -2   1   1  673.25   30.38
   2  -1   3 4408.36   58.77
  -2   1  -3 4311.19   53.39
  -2   1  -3 4324.37   25.89
   2  -1   4 7081.38   86.86
   2  -1   4 6945.30   46.35
  -2   1  -4 6971.86   73.93
   2  -1   5 3188.66   61.60
   2  -1   5 3275.24   32.08
  -2   1  -5 3147.01   54.19
   2  -1   6    7.55   12.78
   2  -1   6    0.94    6.61
  -2   1  -6    4.84   13.86
   2  -1   7 1220.89   29.84
  -2   1  -7 1153.09   42.90
  -2   1  -7 1140.91   39.11
   2  -1   8 1972.23   49.12
  -2   1  -8 2064.18   64.76
  -2   1  -8 1903.76   55.24
   2  -1   9   31.53   17.85
  -2   1  -9   30.32   18.96
  -2   1  -9   52.77   19.64
   2  -1  10   64.62   16.60
  -2   1 -10   46.49   18.41
  -2   1 -10   77.13   17.80
  -2   1 -11 1219.70   81.92
  -2   1 -11 1213.71   70.54
  -2   1 -12  168.58   34.67
   2   0 -11  187.52   39.37
  -2   0  11  293.20   54.44
   2   0 -10  390.28   42.71
  -2   0  10  420.16   52.72
   2   0  -9  376.53   39.52
  -2   0   9  418.04   54.06
   2   0  -8   31.43   26.55
  -2   0   8  -26.91   28.02
   2   0  -7 7170.48  185.00
  -2   0   7 6827.99  178.23
   2   0  -6   14.52   17.95
  -2   0   6   13.20   24.89
   2   0  -5  856.81   38.79
  -2   0   5  866.74   39.93
   2   0  -4 7707.59   91.92
  -2   0   4 7525.07   90.64
   2   0  -3 1985.29   63.60
  -2   0   3 1970.85   65.99
   2   0  -2 5308.48   62.77
  -2   0   2 5331.71   30.63
  -2   0   2 5309.59   61.59
   2   0   4 7329.60   95.71
   2   0   4 7179.84   47.12
  -2   0  -4 7184.61   72.54
   2   0   5 6978.99   79.57
   2   0   5 6880.80   55.67
  -2   0  -5 6973.12   76.70
   2   0   6  403.12   20.25
  -2   0  -6  470.73   29.88
  -2   0  -6  410.17   25.32
   2   0   7  118.70   20.96
  -2   0  -7  142.87   24.79
  -2   0  -7  139.58   20.39
   2   0   8  707.02   31.00
  -2   0  -8  749.04   38.29
  -2   0  -8  709.95   34.33
   2   0   9  939.58   39.86
  -2   0  -9 1021.29   49.85
  -2   0  -9 1023.91   42.44
   2   0  10   15.96   14.65
  -2   0 -10   29.45   19.95
  -2   0 -10   20.90   15.29
   2   0  11   65.91   19.44
  -2   0 -11   95.22   28.33
  -2   0 -11  140.48   25.59
  -2   0 -12  566.37   47.63
  -2   0 -13   -5.17   21.12
   2   1 -11  349.38   45.88
  -2  -1  11  405.36   50.03
   2   1 -10   35.84   30.18
  -2  -1  10   69.51   34.31
   2   1  -9  823.35   63.11
  -2  -1   9  898.13   70.71
   2   1  -8   53.65   22.45
  -2  -1   8   60.65   26.59
   2   1  -7  255.03   30.66
  -2  -1   7  247.60   33.54
   2   1  -6 6174.51   97.65
  -2  -1   6 6129.22  103.14
   2   1  -5   45.62   17.77
  -2  -1   5   33.75   18.43
   2   1  -4  797.31   33.72
  -2  -1   4  774.44   35.60
   2   1  -3 5110.89   64.49
  -2  -1   3 5168.02   66.45
   2   1  -2 5187.01   58.44
  -2  -1   2 5155.42   32.98
  -2  -1   2 5158.79   75.89
   2   1   4 5669.89   62.46
   2   1   4 5611.77   47.09
  -2  -1  -4 5555.86   62.91
   2   1   5 7535.17   65.35
  -2  -1  -5 7395.99   80.11
  -2  -1  -5 7285.50   78.61
   2   1   6 2690.25   46.39
  -2  -1  -6 2670.59   53.50
  -2  -1  -6 2516.58   46.41
   2   1   7  382.94   29.92
  -2  -1  -7  314.30   25.68
  -2  -1  -7  322.80   24.81
   2   1   8  116.96   24.34
  -2  -1  -8  179.04   24.12
  -2  -1  -8  121.92   22.11
   2   1   9  -12.65   17.05
  -2  -1  -9   -6.79   16.62
  -2  -1  -9    2.27   12.50
   2   1  10  697.56   38.00
  -2  -1 -10  683.32   43.79
  -2  -1 -10  725.54   38.02
   2   1  11  740.82   53.17
  -2  -1 -11  640.85   51.90
  -2  -1 -11  622.68   43.98
  -2  -1 -12  359.10   40.19
   2   2 -11  161.87   33.92
  -2  -2  11   99.77   33.19
   2   2 -10   87.27   30.40
  -2  -2  10   58.40   23.46
   2   2  -9  232.91   31.23
  -2  -2   9  216.05   36.71
   2   2  -8 1632.47   64.09
  -2  -2   8 1531.37   57.33
   2   2  -7  300.62   30.56
  -2  -2   7  403.93   64.69
   2   2  -6 1053.73   41.41
  -2  -2   6 1097.30  118.45
   2   2  -5 1994.47   53.61
  -2  -2   5 2031.41   33.12
  -2  -2   5 2020.11   61.66
   2   2  -4   37.31   10.29
  -2  -2   4   45.47    6.78
  -2  -2   4   47.76    8.97
   2   2  -3 6778.92   72.72
  -2  -2   3 6840.84   56.89
  -2  -2   3 6743.17   76.85
   2   2  -2  368.28   20.15
   2   2  -2  387.18   22.98
  -2  -2   2  409.61   16.16
   2   2   4 6601.85   60.76
  -2  -2  -4 6667.14   65.87
  -2  -2  -4 6677.56   75.59
   2   2   5   31.52   14.08
  -2  -2  -5   33.41   12.37
  -2  -2  -5   53.55   19.66
   2   2   6  665.63   24.78
  -2  -2  -6  691.95   30.13
  -2  -2  -6  747.15   34.31
   2   2   7  869.48   35.91
  -2  -2  -7  902.89   41.12
  -2  -2  -7  905.15   33.75
   2   2   8 1579.85   51.46
  -2  -2  -8 1689.23   56.31
  -2  -2  -8 1586.14   48.56
   2   2   9  447.07   34.33
  -2  -2  -9  393.91   35.01
  -2  -2  -9  385.83   27.12
   2   2  10  347.40   35.42
  -2  -2 -10  332.06   35.28
  -2  -2 -10  321.89   28.01
   2   2  11  586.45   46.59
  -2  -2 -11  611.87   52.38
  -2  -2 -11  518.46   39.00
   2   2  12  173.96   26.88
  -2  -2 -12  186.03   35.71
   2   3 -11   12.95   20.55
  -2  -3  11  -13.77   25.11
   2   3 -10 1607.48  487.42
  -2  -3  10 1473.73   67.31
   2   3  -9  -18.41   15.48
  -2  -3   9  -11.99   20.42
   2   3  -8  706.85   50.76
  -2  -3   8  712.65  118.50
   2   3  -7 2799.60   88.08
  -2  -3   7 2712.14   86.99
   2   3  -6    3.32   15.75
  -2  -3   6   25.32    5.38
  -2  -3   6   18.22   11.37
   2   3  -5 6230.42   99.57
  -2  -3   5 6271.43   87.89
  -2  -3   5 6449.68  106.97
   2   3  -4 5357.84   70.29
   2   3  -4 5127.42   72.23
  -2  -3   4 5147.10   55.06
   2   3  -3 5467.91   68.32
  -2  -3   3 5539.73   56.93
   2   3  -2 4978.45   54.21
  -2  -3   2 4877.12   50.67
   2   3  -1 1618.64   44.14
   2   3  -1 1455.83   44.93
  -2  -3   1 1667.06   47.88
   2   3   2  318.12   18.01
   2   3   2  320.55   18.54
  -2  -3  -2  312.43   23.80
   2   3   3  528.34   47.84
   2   3   3  484.43   20.65
  -2  -3  -3  451.60   23.62
   2   3   4 8557.52   80.02
  -2  -3  -4 8786.58   77.39
  -2  -3  -4 8813.42   93.30
   2   3   5 8665.94   83.89
  -2  -3  -5 8727.37   83.07
  -2  -3  -5 8642.13   93.51
   2   3   6  514.58   29.19
  -2  -3  -6  501.59   27.71
  -2  -3  -6  495.12   39.03
   2   3   7 3282.01   67.84
  -2  -3  -7 3101.48   62.38
  -2  -3  -7 3191.69   63.82
   2   3   8  604.12   34.49
  -2  -3  -8  604.70   36.77
  -2  -3  -8  598.76   32.55
   2   3   9  186.54   27.24
  -2  -3  -9  166.03   21.87
  -2  -3  -9  180.36   22.85
   2   3  10 1398.01   88.49
  -2  -3 -10 1411.62   94.65
  -2  -3 -10 1347.36   83.29
   2   3  11   18.67   17.79
  -2  -3 -11   31.03   21.87
   2   3  12  438.44   36.27
  -2  -3 -12  637.72   56.68
   2   4 -11  233.69   36.74
  -2  -4  11  207.90   49.67
   2   4 -10  391.55   41.99
  -2  -4  10  375.60   68.19
   2   4  -9  990.54   54.67
  -2  -4   9  940.36  166.09
   2   4  -8 1156.21   60.63
  -2  -4   8 1198.55  113.01
   2   4  -7 1054.92   48.98
  -2  -4   7 1048.55   49.07
  -2  -4   7 1053.15   56.28
   2   4  -6  855.94   38.07
  -2  -4   6  923.77   31.35
  -2  -4   6  878.61  135.73
   2   4  -5  152.45   17.31
   2   4  -5  148.66   20.55
  -2  -4   5  156.14   30.53
   2   4  -413732.81  173.45
   2   4  -413523.92  177.61
  -2  -4   413065.15  165.17
   2   4  -3 2203.26   40.22
   2   4  -3 2073.23   47.56
  -2  -4   3 2231.21   38.56
   2   4  -2 2458.99   36.28
   2   4  -2 2322.63   43.55
  -2  -4   2 2546.15   48.28
   2   4  -1   47.11    6.64
   2   4  -1   64.18   13.45
  -2  -4   1   45.62    9.54
   2   4   0  329.25   11.12
   2   4   0  322.41   21.29
  -2  -4   0  317.72   20.42
   2   4   210063.20   66.10
   2   4   210024.93   89.32
  -2  -4  -2 9920.48   93.46
   2   4   316081.20  100.99
   2   4   315972.12  123.55
  -2  -4  -316229.28  131.67
   2   4   4  488.03   23.10
  -2  -4  -4  464.70   17.31
  -2  -4  -4  503.95   28.95
   2   4   5 2029.83   51.62
  -2  -4  -5 1970.45   44.12
  -2  -4  -5 1959.25   52.90
   2   4   6 1765.83   48.95
  -2  -4  -6 1783.88   46.40
  -2  -4  -6 1753.17   50.22
   2   4   7  769.65   42.02
  -2  -4  -7  724.76   35.22
  -2  -4  -7  698.59   40.12
   2   4   8 5647.27  122.10
  -2  -4  -8 5648.15  118.20
  -2  -4  -8 5736.32  119.71
   2   4   9  331.52   29.29
  -2  -4  -9  410.39   38.11
  -2  -4  -9  402.92   34.14
   2   4  10  167.25   28.66
  -2  -4 -10  109.55   22.95
  -2  -4 -10  149.10   27.39
   2   4  11  131.82   27.25
  -2  -4 -11  113.40   27.56
   2   4  12   74.33   26.29
  -2  -4 -12  104.62   30.44
  -2  -5  11  152.92   24.68
   2   5 -10  961.23   52.91
  -2  -5  10  774.15  127.64
   2   5  -9  236.96   26.78
  -2  -5   9  245.22   48.45
   2   5  -8  206.80   24.09
  -2  -5   8  216.97   43.62
   2   5  -7 1782.93   61.71
  -2  -5   7 1812.26   49.91
  -2  -5   7 1713.26  112.84
   2   5  -6 4996.09  129.14
   2   5  -6 5168.24  137.35
  -2  -5   6 4513.99  128.42
   2   5  -5  631.01   32.83
   2   5  -5  512.70   32.55
  -2  -5   5  577.61   82.06
   2   5  -4  359.21   23.18
   2   5  -4  327.09   24.19
  -2  -5   4  330.14   50.67
   2   5  -3 4166.84   65.61
   2   5  -3 3909.10   75.31
  -2  -5   3 4062.82   81.00
   2   5  -2  966.07   21.93
   2   5  -2  948.02   34.13
  -2  -5   2  989.66   90.85
   2   5  -1   60.60    6.36
   2   5  -1   62.44   15.22
  -2  -5   1   25.96    7.58
   2   5   0 5560.04   69.76
  -2  -5   0 5435.17   71.51
   2   5   1  783.50   29.71
  -2  -5  -1  786.37   31.74
   2   5   2 2841.14   51.15
  -2  -5  -2 2933.94   52.97
   2   5   3 7888.77   67.84
   2   5   3 8106.56   89.46
  -2  -5  -3 8091.43   95.43
   2   5   4 3457.56   69.07
  -2  -5  -4 3567.41   55.83
  -2  -5  -4 3568.49   76.58
   2   5   5  861.15   36.31
  -2  -5  -5  746.40   27.52
  -2  -5  -5  804.24   36.99
   2   5   6 1751.17   50.96
  -2  -5  -6 1646.00   41.06
  -2  -5  -6 1663.62   53.17
   2   5   7  143.41   25.18
  -2  -5  -7  193.76   21.86
  -2  -5  -7  132.40   30.41
   2   5   8 3602.42   94.60
  -2  -5  -8 3646.17   86.70
  -2  -5  -8 3538.61   89.48
   2   5   9  371.74   39.83
  -2  -5  -9  444.30   42.47
  -2  -5  -9  382.72   39.10
   2   5  10  -26.23   18.25
  -2  -5 -10  -10.91   16.97
  -2  -5 -10   -0.01   14.49
   2   5  11   40.46   24.85
  -2  -5 -11   56.95   32.04
   2   6 -10  806.93   48.82
  -2  -6  10  595.31  165.42
   2   6  -9   -5.41   14.30
  -2  -6   9   14.20   10.55
   2   6  -8  265.14   30.92
  -2  -6   8  207.18   47.31
  -2  -6   8  192.40   41.34
   2   6  -7  422.34   31.44
   2   6  -7  465.54   37.27
  -2  -6   7  433.04   96.15
   2   6  -6 3340.32   78.61
   2   6  -6 3337.81   85.46
  -2  -6   6 3378.80   97.25
   2   6  -5  864.32   36.07
   2   6  -5  835.88   40.35
  -2  -6   5  785.19  108.36
   2   6  -4   -3.23    8.74
   2   6  -4    7.62   14.23
  -2  -6   4    6.22    7.75
   2   6  -3 1361.01   32.33
   2   6  -3 1454.53   48.88
  -2  -6   3 1403.13  132.32
   2   6  -2 6022.33   77.00
   2   6  -2 5778.12   97.49
  -2  -6   2 6297.23  102.18
   2   6  -1 1904.35   49.29
  -2  -6   1 1905.83   57.60
   2   6   0 4499.95   82.12
  -2  -6   0 4457.89   98.90
   2   6   1 2705.55   60.36
  -2  -6  -1 2684.15   62.52
   2   6   2 3170.36   67.66
  -2  -6  -2 3060.14   67.36
   2   6   3 1658.65   29.18
   2   6   3 1627.27   46.25
  -2  -6  -3 1762.00   53.97
   2   6   4 4734.61   85.07
  -2  -6  -4 4682.89   59.57
  -2  -6  -4 4631.92   85.22
   2   6   5  114.35   22.80
  -2  -6  -5   89.59   12.75
  -2  -6  -5   68.97   25.57
   2   6   6 1038.25   45.02
  -2  -6  -6 1151.72   43.33
  -2  -6  -6 1080.30   52.24
   2   6   7   39.26   27.21
  -2  -6  -7   16.17   10.99
  -2  -6  -7   31.13   23.63
  -2  -6  -8   11.80   11.74
  -2  -6  -8  -18.54   18.50
   2   6   9  138.75   34.64
  -2  -6  -9  130.78   21.86
  -2  -6  -9  130.63   25.50
   2   6  10   16.40   18.82
  -2  -6 -10   43.17   20.88
   2   6  11   -6.69   21.62
  -2  -6 -11   -4.24   16.20
   2   7 -10   84.31   24.08
  -2  -7  10  113.01   37.85
   2   7  -9  340.52   33.76
  -2  -7   9  285.34   74.38
   2   7  -8  486.79   38.70
  -2  -7   8  347.32   66.03
  -2  -7   8  435.01   36.50
   2   7  -7  359.67   29.10
   2   7  -7  425.22   43.65
  -2  -7   7  331.75   52.15
   2   7  -6   85.69   17.88
   2   7  -6  100.87   20.41
  -2  -7   6   94.25   14.78
   2   7  -5   17.84   15.89
   2   7  -5   32.28   21.29
  -2  -7   5   13.33    8.89
   2   7  -4 1218.20   41.57
   2   7  -4 1238.67   54.88
  -2  -7   4 1295.52  116.97
   2   7  -3   82.17   15.19
  -2  -7   3   93.73   12.93
   2   7  -2  790.32   37.45
  -2  -7   2  812.49   93.73
   2   7  -1  117.68   21.58
  -2  -7   1  111.76   21.76
   2   7   0 2364.68   58.43
  -2  -7   0 2348.04   92.84
   2   7   1  405.50   31.04
  -2  -7  -1  395.86   30.14
   2   7   2 5520.90   91.07
  -2  -7  -2 5388.36   90.55
   2   7   3  956.13   44.50
  -2  -7  -3  864.76   43.36
   2   7   4  128.14   24.19
  -2  -7  -4  165.28   25.99
   2   7   5 2025.63   64.14
  -2  -7  -5 2026.94   48.94
  -2  -7  -5 2004.72   65.58
   2   7   6  189.26   27.55
  -2  -7  -6  206.17   18.84
  -2  -7  -6  222.69   29.65
   2   7   7  351.70   39.09
  -2  -7  -7  287.20   25.61
  -2  -7  -7  296.93   28.85
   2   7   8  219.23   35.23
  -2  -7  -8  246.43   24.56
  -2  -7  -8  182.10   26.39
   2   7   9   84.26   34.89
  -2  -7  -9   13.43   15.29
  -2  -7  -9    8.03   16.41
   2   7  10  228.69   36.80
  -2  -8   9  363.76   66.28
   2   8  -8  178.61   25.87
   2   8  -8  154.73   25.07
  -2  -8   8  150.79   32.73
   2   8  -7  596.16   46.27
   2   8  -7  582.24   51.49
  -2  -8   7  510.23   94.97
   2   8  -6    3.78   10.14
   2   8  -6    0.46   14.05
  -2  -8   6   14.15   11.08
   2   8  -5  848.29   50.05
  -2  -8   5  795.82  135.25
   2   8  -4 4612.72  107.99
  -2  -8   4 4398.33  107.16
   2   8  -3  393.11   32.94
  -2  -8   3  434.65   97.35
   2   8  -2 2677.44   83.31
  -2  -8   2 2592.79   93.50
   2   8  -1  169.53   28.30
  -2  -8   1  178.60   26.27
   2   8   0  148.41   28.24
  -2  -8   0  225.11   39.02
   2   8   1 2347.47   77.40
  -2  -8  -1 2297.49   77.46
   2   8   2   12.49   18.97
  -2  -8  -2   29.26   29.46
   2   8   3 6791.06  141.14
  -2  -8  -3 6603.95  138.35
   2   8   4 1755.13   60.66
  -2  -8  -4 1663.14   67.36
   2   8   5  190.25   29.25
  -2  -8  -5  158.04   28.76
   2   8   6   51.61   25.63
  -2  -8  -6  -27.04   19.04
   2   8   7   -1.80   16.59
  -2  -8  -7  -11.45   19.52
   2   8   8   96.97   26.47
  -2  -8  -8  131.68   29.22
   2   8   9    2.52   21.18
  -2  -8  -9   28.72   21.12
   2   9  -8   91.01   25.38
  -2  -9   8   76.62   18.46
   2   9  -7    1.86   15.68
  -2  -9   7  -18.28   18.47
   2   9  -6  638.80   48.01
  -2  -9   6  505.53   94.44
   2   9  -5  934.15   45.28
  -2  -9   5  858.20   83.36
   2   9  -4 1276.38   84.37
  -2  -9   4 1137.28   93.34
   2   9  -3 2322.82   68.25
  -2  -9   3 2115.39   64.23
   2   9  -2   37.56   16.32
  -2  -9   2   12.83   12.33
   2   9  -1 1754.60   62.95
  -2  -9   1 1601.22  117.07
   2   9   0  321.01   28.67
  -2  -9   0  326.20   48.84
   2   9   1  404.56   36.13
  -2  -9  -1  423.79   41.35
   2   9   2 1536.16   73.75
  -2  -9  -2 1382.67   71.84
   2   9   3  374.48   38.55
  -2  -9  -3  330.83   34.48
   2   9   4    1.58   18.35
  -2  -9  -4   40.99   21.36
   2   9   5    3.69   19.63
  -2  -9  -5  -14.93   18.32
   2   9   6   84.24   29.96
  -2  -9  -6  122.58   34.82
   2   9   7  173.51   32.21
  -2  -9  -7  153.22   38.48
   2   9   8  210.79   35.95
  -2  -9  -8  209.18   33.22
   2  10  -7  367.73   41.14
  -2 -10   7  284.34   78.61
   2  10  -6  378.35   42.13
  -2 -10   6  343.72   66.02
   2  10  -5 1098.92   57.17
  -2 -10   5 1139.43   93.65
   2  10  -4   31.91   23.71
  -2 -10   4   30.64   14.39
   2  10  -3    9.43   16.92
  -2 -10   3   39.28   11.58
   2  10  -2  784.00   47.92
  -2 -10   2  778.99   75.33
   2  10  -1  568.18   42.95
  -2 -10   1  508.26  100.87
   2  10   0  596.80   51.86
  -2 -10   0  642.82  126.65
   2  10   1   11.04   18.33
  -2 -10  -1   -2.77   20.14
   2  10   2   56.43   27.69
  -2 -10  -2   38.88   21.36
   2  10   3  296.27   37.90
  -2 -10  -3  334.74   42.17
   2  10   4   13.12   21.02
  -2 -10  -4   66.54   31.02
   2  10   5    8.32   21.75
  -2 -10  -5   38.51   32.34
   2  10   6  278.28   37.28
  -2 -10  -6  196.18   32.62
   2  10   7  349.88   44.53
  -2 -10  -7  283.40   43.80
   2  11  -5  233.54   32.12
  -2 -11   5  236.17   49.65
   2  11  -4   48.41   23.90
  -2 -11   4  118.73   20.78
   2  11  -3  130.56   26.53
  -2 -11   3  174.95   43.39
   2  11  -2  561.00   47.39
  -2 -11   2  607.08  119.00
   2  11  -1   55.32   27.98
  -2 -11   1   25.36   15.94
   2  11   0  112.88   26.73
  -2 -11   0  180.72   37.72
   2  11   1  137.42   32.53
  -2 -11  -1  147.80   34.33
   2  11   2  149.36   37.53
  -2 -11  -2  144.39   31.36
   2  11   3  718.17   68.46
  -2 -11  -3  652.03   59.66
   2  11   4   40.07   25.54
  -2 -11  -4   97.18   34.29
   2  11   5  629.11   57.46
  -2 -11  -5  693.74   62.64
   2  12  -2   40.20   25.95
  -2 -12   2   38.66   13.77
   2  12  -1  384.61   40.87
  -2 -12   1  390.46   80.79
   2  12   0   58.19   23.10
  -2 -12   0  165.71   42.11
   2  12   1  228.94   38.32
  -2 -12  -1  266.46   41.32
   2  12   2   33.40   20.89
  -2 -12  -2   57.82   37.17
   3  -9  -1  -10.66   16.74
  -3   9   1   -1.84   17.26
   3  -9   0   44.87   19.72
  -3   9   0  121.91   31.95
   3  -9   1   74.96   24.37
  -3   9  -1   89.93   24.20
   3  -9   2  571.72  106.72
  -3   9  -2  646.28   54.55
   3  -9   3  518.26   89.81
  -3   9  -3  561.17   42.73
  -3   9  -4  434.45   47.37
  -3   9  -5   48.11   22.50
  -3   9  -6   45.79   27.40
  -3   8   3   62.53   22.25
   3  -8  -2   95.79   23.69
  -3   8   2  103.07   27.72
   3  -8  -1  169.73   34.01
  -3   8   1  166.74   34.36
   3  -8   0  203.22   29.52
  -3   8   0  177.28   31.45
   3  -8   1   70.17   19.25
  -3   8  -1   16.16   18.57
  -3   8  -2  308.49   31.15
   3  -8   3   57.75   20.93
  -3   8  -3   93.59   27.16
  -3   8  -3   44.95   18.32
   3  -8   4  101.08   23.88
  -3   8  -4   92.51   30.11
  -3   8  -4   85.41   21.74
   3  -8   5  986.27   49.93
  -3   8  -5 1053.51   60.42
   3  -8   6   62.38   30.56
  -3   8  -6   76.16   37.86
  -3   8  -7   60.84   23.44
  -3   8  -8  751.74   61.16
  -3   7   5   16.67   25.86
   3  -7  -4  567.09   38.91
  -3   7   4  635.89   57.60
   3  -7  -3   -4.69   14.46
   3  -7  -3   10.45    7.87
  -3   7   3  -13.58   19.52
   3  -7  -2  640.77   44.92
   3  -7  -2  510.05   73.79
  -3   7   2  602.67   52.44
   3  -7  -1   -1.50   12.81
   3  -7  -1   31.85   13.52
  -3   7   1    6.14   16.33
   3  -7   0  -20.42   12.34
   3  -7   0    8.36    7.49
  -3   7   0   -0.61   15.13
   3  -7   1  306.64   27.41
  -3   7  -1  342.54   33.00
  -3   7  -1  271.25   24.29
   3  -7   2 1747.09   51.43
  -3   7  -2 1819.18   68.21
  -3   7  -2 1649.66   50.17
   3  -7   3 3994.17  227.76
  -3   7  -3 3697.15  209.22
  -3   7  -3 3565.31  198.09
   3  -7   4   19.50   19.88
  -3   7  -4   17.97   16.57
  -3   7  -4   12.10   12.49
   3  -7   5 1414.06   52.61
  -3   7  -5 1373.27   60.34
   3  -7   6  439.10   37.88
  -3   7  -6  395.14   39.96
   3  -7   7  431.54   36.89
  -3   7  -7  428.60   43.14
   3  -7   8  444.85   37.54
  -3   7  -8  408.14   42.30
   3  -7   9  130.65   35.94
  -3   7  -9   52.78   31.79
   3  -6  -6  143.57   33.09
  -3   6   6   86.39   27.54
   3  -6  -5   65.94   21.60
  -3   6   5   47.20   25.61
   3  -6  -4  604.57   50.30
  -3   6   4  624.11   54.32
   3  -6  -3  662.39   51.92
   3  -6  -3  610.80   72.71
  -3   6   3  667.48   57.31
   3  -6  -2  348.57   28.64
   3  -6  -2  310.22   56.94
  -3   6   2  361.73   38.47
   3  -6  -1  824.53   45.66
   3  -6  -1  850.33   57.87
  -3   6   1  880.92   51.54
   3  -6   0  267.78   24.87
  -3   6   0  271.70   30.81
   3  -6   1 2033.41   61.75
  -3   6  -1 1957.41   63.29
  -3   6  -1 1861.12   57.49
   3  -6   2   73.37   23.98
  -3   6  -2   83.07   21.44
  -3   6  -2   79.49   15.27
   3  -6   3 1339.23   52.64
  -3   6  -3 1286.27   52.99
  -3   6  -3 1310.80   46.37
   3  -6   4 1393.40   52.12
  -3   6  -4 1343.68   56.49
  -3   6  -4 1307.31   41.27
   3  -6   5  390.84   32.36
  -3   6  -5  357.55   32.74
  -3   6  -5  335.66   21.43
   3  -6   6  667.10   39.33
  -3   6  -6  663.75   42.99
   3  -6   7  588.59   45.59
  -3   6  -7  499.40   38.01
   3  -6   8  513.49   45.14
  -3   6  -8  451.74   47.28
   3  -6   9  764.43  142.02
  -3   6  -9  805.32   50.39
   3  -6  10  347.30   91.85
  -3   6 -10  372.36   40.79
   3  -5  -7  203.48   33.81
  -3   5   7  225.95   48.51
   3  -5  -6  261.61   32.67
  -3   5   6  313.90   48.81
   3  -5  -5  407.92   41.62
  -3   5   5  374.13   47.39
   3  -5  -4  128.49   26.64
  -3   5   4   81.55   35.66
   3  -5  -3  271.79   26.98
   3  -5  -3  242.07   39.40
  -3   5   3  259.35   34.78
   3  -5  -2 4114.23   96.87
   3  -5  -2 4019.15  191.92
  -3   5   2 3911.29   97.94
   3  -5  -1 4208.92  115.48
   3  -5  -1 4304.21  113.83
  -3   5   1 4116.31  115.52
   3  -5   0 3124.26   93.03
  -3   5   0 3173.31   92.51
  -3   5   0 3046.44   90.74
   3  -5   1 3309.63   74.05
  -3   5  -1 3112.76   72.72
  -3   5  -1 3091.73   68.05
   3  -5   2 4023.98   86.33
  -3   5  -2 4052.34   87.36
  -3   5  -2 3934.12   74.34
   3  -5   3 1655.12   56.99
  -3   5  -3 1628.39   54.89
  -3   5  -3 1580.12   42.36
   3  -5   4 1483.57   57.64
  -3   5  -4 1565.16   58.98
  -3   5  -4 1493.89   46.83
   3  -5   5 1259.39   47.35
  -3   5  -5 1333.69   53.46
  -3   5  -5 1295.82   37.64
   3  -5   6  621.04   34.71
  -3   5  -6  633.52   41.21
   3  -5   7 1034.71   56.04
  -3   5  -7 1029.05   57.95
   3  -5   8   39.21   10.45
  -3   5  -8   30.84   25.72
   3  -5   9   15.52   13.41
  -3   5  -9    4.55   17.25
   3  -5  10   92.40   18.01
  -3   5 -10   98.85   23.05
   3  -5  11   14.71   12.36
  -3   5 -11   32.63   20.79
   3  -4  -8   21.89   20.12
  -3   4   8   -8.21   32.43
   3  -4  -7  437.67   45.67
  -3   4   7  284.26   50.23
   3  -4  -6    9.37   16.90
  -3   4   6   63.96   44.68
   3  -4  -5  322.12   31.72
  -3   4   5  324.37   49.36
   3  -4  -4  449.36   35.19
  -3   4   4  422.44   50.61
   3  -4  -3   64.00   26.87
   3  -4  -3   36.20    9.94
  -3   4   3   32.26   27.49
   3  -4  -2 3786.89   83.62
   3  -4  -2 3842.02   75.99
  -3   4   2 3973.94   99.14
   3  -4  -1    9.66   17.19
  -3   4   1   35.17   17.55
  -3   4   1   33.56   33.02
   3  -4   0  109.03   25.30
  -3   4   0   95.61   16.43
  -3   4   0   68.41   19.64
   3  -4   1 3320.33   72.00
  -3   4  -1 3063.61   62.85
  -3   4  -1 3155.79   59.30
   3  -4   2 6022.40   95.33
  -3   4  -2 6033.26   93.32
  -3   4  -2 5961.20   81.78
   3  -4   3 1608.13   53.52
  -3   4  -3 1600.89   48.37
  -3   4  -3 1502.07   34.02
   3  -4   4  608.56   34.41
  -3   4  -4  539.18   30.95
  -3   4  -4  568.73   21.58
   3  -4   5 4182.43   85.39
  -3   4  -5 4185.46   89.28
  -3   4  -5 4336.90   67.20
   3  -4   6 1548.80   60.36
  -3   4  -6 1533.65   60.72
   3  -4   7  101.96   19.44
  -3   4  -7   77.48   21.52
   3  -4   8 2328.45  100.85
  -3   4  -8 2236.89   90.79
   3  -4   9  585.45  126.33
  -3   4  -9  567.28   48.96
   3  -4  10  382.51   90.50
  -3   4 -10  438.26   33.72
   3  -4  11  821.62  116.86
  -3   4 -11  914.97   71.09
   3  -4  12    8.66   13.63
  -3   4 -12   -6.57   14.98
   3  -3  -9  276.06   42.52
  -3   3   9  170.66   45.11
   3  -3  -8   -7.04   18.32
  -3   3   8    6.17   35.00
   3  -3  -7   -0.36   15.28
  -3   3   7  -40.82   34.51
   3  -3  -6 1012.41   54.63
  -3   3   6  995.54   67.85
   3  -3  -5 1686.04   61.01
  -3   3   5 1698.47   76.86
   3  -3  -4 1098.64   49.97
  -3   3   4 1197.65   69.07
   3  -3  -3  371.65   30.94
   3  -3  -3  400.11   41.57
  -3   3   3  375.26   31.66
   3  -3  -2 1045.59   39.53
   3  -3  -2 1041.75   29.47
  -3   3   2 1061.82   53.68
   3  -3  -1 1644.04   46.05
  -3   3   1 1711.43   39.03
  -3   3   1 1721.46   53.14
   3  -3   0 2147.06   54.40
  -3   3   0 2138.40   47.84
  -3   3   0 2231.84   59.60
   3  -3   1  801.94   36.22
  -3   3  -1  805.76   30.40
  -3   3  -1  812.10   29.18
   3  -3   2 1782.95   48.46
  -3   3  -2 1829.80   47.11
  -3   3  -2 1875.72   40.10
   3  -3   3 5337.06   92.58
  -3   3  -3 5253.31   90.97
  -3   3  -3 5111.50   70.74
   3  -3   4  353.47   29.70
  -3   3  -4  308.20   23.83
  -3   3  -4  317.28   13.72
   3  -3   5  911.35   37.52
  -3   3  -5  946.85   37.51
  -3   3  -5  925.31   19.42
   3  -3   6 3065.51   72.24
  -3   3  -6 3135.11   67.48
   3  -3   7 1486.86   56.99
  -3   3  -7 1531.26   59.50
   3  -3   8   -4.20   17.59
  -3   3  -8    3.96   16.11
   3  -3   9   -3.49   18.58
  -3   3  -9   50.36   23.14
   3  -3  10  406.10  101.58
  -3   3 -10  364.84   30.47
   3  -3  11   24.11   10.96
  -3   3 -11   -8.55   14.86
   3  -3  12  -15.38   19.04
  -3   3 -12   59.03   32.65
   3  -2  -9   -7.48   17.80
  -3   2   9   20.55   35.28
   3  -2  -8  519.52   50.78
  -3   2   8  448.30   68.38
   3  -2  -7  491.07   51.82
  -3   2   7  438.14   62.65
   3  -2  -6  717.55   46.64
  -3   2   6  743.73   65.04
   3  -2  -5   26.29   18.07
  -3   2   5   -6.85   30.55
   3  -2  -4 1921.82   64.22
  -3   2   4 1873.52   69.58
   3  -2  -3 9657.55  111.23
  -3   2   3 9780.74  139.56
   3  -2  -2 1915.92   54.96
  -3   2   2 1905.49   37.39
  -3   2   2 1983.16   69.50
   3  -2  -1  261.43   22.03
  -3   2   1  306.33   18.12
  -3   2   1  305.24   32.93
   3  -2   0 2321.74   46.94
  -3   2   0 2434.53   40.64
  -3   2   0 2332.89   51.88
   3  -2   112004.24  107.44
  -3   2  -112081.88   99.77
  -3   2  -112427.49   96.25
   3  -2   2   42.75   12.91
  -3   2  -2   50.53   11.08
  -3   2  -2   80.00   10.90
   3  -2   3  128.76   20.34
  -3   2  -3  155.97   17.75
  -3   2  -3  133.68    8.98
   3  -2   4  696.00   37.10
  -3   2  -4  647.83   31.12
  -3   2  -4  650.63   12.05
   3  -2   5 1303.19   43.63
  -3   2  -5 1349.85   45.40
   3  -2   6 6485.61  115.03
  -3   2  -6 6692.40  103.25
   3  -2   7 1308.73   61.07
  -3   2  -7 1315.18   46.90
   3  -2   8 1749.07   84.08
  -3   2  -8 1671.32   64.60
   3  -2   9 4761.46  136.53
  -3   2  -9 4848.44  109.49
   3  -2  10   23.78   10.52
  -3   2 -10   16.33   20.44
   3  -2  11  984.43  177.10
  -3   2 -11  996.25   46.06
   3  -2  12   71.45   23.21
  -3   2 -12   23.28   21.06
   3  -1 -10   14.02   27.22
  -3   1  10  -10.17   31.16
   3  -1  -9  283.27   47.67
  -3   1   9  284.19  107.98
   3  -1  -8  335.71   41.70
  -3   1   8  346.09   58.19
   3  -1  -7   43.39   25.86
  -3   1   7    2.75   26.18
   3  -1  -6   11.72   19.31
  -3   1   6   89.58   43.25
   3  -1  -512216.99  189.90
  -3   1   512116.52  196.32
   3  -1  -4 1216.26   45.52
  -3   1   4 1346.88   60.91
   3  -1  -3   65.66   20.60
   3  -1  -3   79.51   10.97
  -3   1   3   76.19   28.21
  -3   1   230146.50  148.45
  -3   1   230429.78  204.04
   3  -1  -1 1169.08   36.45
  -3   1   1 1196.10   23.10
  -3   1   1 1166.32   38.38
   3  -1   0  -14.25   18.28
  -3   1   0   26.96   13.64
  -3   1   0   65.51   21.84
   3  -1   1   85.88   17.93
  -3   1  -1   58.18    9.02
  -3   1  -1   67.95   14.87
   3  -1   2  404.40   24.16
  -3   1  -2  378.44   20.13
  -3   1  -2  405.20   18.52
   3  -1   3 1782.45   57.38
  -3   1  -3 1814.59   57.38
  -3   1  -3 1764.27   41.72
   3  -1   4  261.56   46.35
  -3   1  -4  251.12   25.54
   3  -1   5 1350.43   53.76
  -3   1  -5 1382.42   43.15
   3  -1   6  203.31   39.73
  -3   1  -6  198.25   26.46
   3  -1   7 7513.73  124.00
  -3   1  -7 7426.46  102.41
   3  -1   8   17.71    8.80
  -3   1  -8   -0.38   15.24
   3  -1   9 2840.31   84.69
  -3   1  -9 2697.86   74.24
   3  -1  10  273.82   65.51
  -3   1 -10  274.89   28.04
   3  -1  11  367.61   81.44
  -3   1 -11  356.17   35.80
   3  -1  12  118.97   30.19
  -3   1 -12  105.97   22.48
   3  -1  13  424.30  118.32
   3   0 -10  -15.59   21.95
  -3   0  10   35.24   33.78
   3   0  -9  648.05   54.54
  -3   0   9  602.40   57.91
   3   0  -8   95.76   27.22
  -3   0   8   86.45   35.87
   3   0  -7 1128.20   63.50
  -3   0   7 1087.62   62.42
   3   0  -6 1884.89   70.34
  -3   0   6 1810.41   71.15
   3   0  -5 5436.40   94.97
  -3   0   5 5404.14  101.25
   3   0  -4 3994.70   75.73
  -3   0   4 4183.26   84.01
   3   0  -3 6720.83  109.62
  -3   0   3 6551.04  108.79
   3   0  -2 2385.40   50.92
  -3   0   2 2336.17   24.10
  -3   0   2 2314.58   67.53
   3   0  -1 2736.11   52.09
  -3   0   1 2671.38   31.73
  -3   0   1 2788.06   64.81
   3   0   0  593.49   28.83
  -3   0   0  530.86   21.23
  -3   0   0  579.11   70.65
   3   0   1 2133.81   40.58
  -3   0  -1 2147.94   34.46
  -3   0  -1 2233.17   44.25
   3   0   2 1425.86   46.95
  -3   0  -2 1411.78   43.11
  -3   0  -2 1500.57   38.57
   3   0   3  440.74   23.72
  -3   0  -3  451.19   25.05
  -3   0  -3  451.21   12.05
   3   0   4 2736.29   56.69
  -3   0  -4 2789.56   50.69
   3   0   511624.27  114.11
  -3   0  -511771.85  111.14
   3   0   6   -1.68   13.97
   3   0   6   -2.65    2.63
  -3   0  -6   -1.69   15.40
   3   0   7 1503.32   86.95
   3   0   7 1530.51   27.36
  -3   0  -7 1520.83   47.23
   3   0   8  594.67  102.03
  -3   0  -8  559.33   33.35
   3   0   9  371.58   75.47
  -3   0  -9  305.31   26.16
   3   0  10   41.10   18.99
   3   0  11   26.83   17.62
  -3   0 -11   -0.08   13.89
   3   0  12  154.03   44.44
  -3   0 -12  145.22   22.30
   3   0  13    0.67   21.60
   3   1 -10   13.47   21.98
  -3  -1  10  -11.30   26.05
   3   1  -9  489.61   50.67
  -3  -1   9  399.21   42.70
   3   1  -8   30.41   24.63
  -3  -1   8   14.74   22.21
   3   1  -7  146.01   24.28
  -3  -1   7  143.82   29.78
   3   1  -6 5107.25  138.13
  -3  -1   6 5024.47  139.60
   3   1  -5  331.31   30.01
  -3  -1   5  417.70   73.97
   3   1  -4 2670.44   63.94
  -3  -1   4 2650.84   63.60
   3   1  -3  338.13   27.77
  -3  -1   3  293.21   60.48
   3   1  -2 1148.85   43.08
  -3  -1   2 1141.18   29.32
  -3  -1   2 1165.31   41.44
   3   1  -1 2111.82   41.95
  -3  -1   1 2102.24   25.68
  -3  -1   1 2092.31   58.61
   3   1   0  162.96   17.80
  -3  -1   0  152.48   12.40
  -3  -1   0  199.45   23.70
   3   1   1 2963.23   45.89
  -3  -1  -1 2972.96   42.07
  -3  -1  -1 2991.65   38.52
   3   1   2  804.89   32.94
   3   1   2  788.70   23.72
  -3  -1  -2  788.52   30.52
   3   1   3 6452.36   69.58
   3   1   3 6506.53   43.75
  -3  -1  -3 6478.56   72.36
   3   1   4   11.88    6.68
   3   1   4    3.86    2.62
  -3  -1  -4   33.04   24.60
   3   1   5  257.57   45.02
   3   1   5  228.38    9.14
  -3  -1  -5  231.56   22.31
   3   1   6 3760.04   81.00
   3   1   6 3919.10   54.60
  -3  -1  -6 3827.12   75.21
   3   1   7  -23.16   14.66
   3   1   7   13.16   10.73
  -3  -1  -7   25.16   17.55
   3   1   8 3818.61   87.02
   3   1   8 3525.16   61.79
  -3  -1  -8 3526.27   76.88
   3   1   9   14.82   16.19
   3   1   9   26.44   14.72
  -3  -1  -9   41.41   14.95
   3   1  10   58.54   24.34
   3   1  10   29.20   14.52
  -3  -1 -10   67.60   18.62
   3   1  11  325.03   38.83
  -3  -1 -11  333.81   35.69
   3   1  12  204.68   38.83
  -3  -1 -12  174.93   26.10
   3   1  13  145.71   39.43
   3   2 -10  167.97   31.14
  -3  -2  10  170.51   37.17
   3   2  -9   34.28   27.02
  -3  -2   9   22.29   22.31
   3   2  -8  252.70   29.76
  -3  -2   8  208.88   49.08
   3   2  -7  446.53   32.51
  -3  -2   7  454.46   71.11
   3   2  -6 4845.46  131.06
  -3  -2   6 4881.64  136.83
   3   2  -5 1578.62   53.58
  -3  -2   5 1574.83   50.17
   3   2  -4  137.36   19.12
  -3  -2   4  154.41   30.40
   3   2  -3 1335.98   41.99
  -3  -2   3 1330.49   19.59
  -3  -2   3 1334.64   39.90
   3   2  -2 8663.80   87.54
  -3  -2   2 8712.60   63.10
   3   2  -1 1748.86   51.19
   3   2  -1 1777.13   52.05
  -3  -2   1 1784.70   48.13
   3   2   010422.00   86.96
   3   2   010267.57   83.45
  -3  -2   010111.24   79.57
   3   2   1 4373.65   50.67
   3   2   1 4422.25   47.56
  -3  -2  -1 4451.18   53.42
   3   2   2  150.95   17.21
   3   2   2  153.21   10.54
  -3  -2  -2   96.58   21.08
   3   2   3 6795.07   67.62
   3   2   3 6845.21   54.94
  -3  -2  -3 6757.34   77.40
   3   2   4 7215.95   98.22
   3   2   4 7342.21   58.05
  -3  -2  -4 7311.76   82.27
   3   2   5 7269.14   93.12
   3   2   5 7200.58   60.07
  -3  -2  -5 7195.50   86.78
   3   2   618907.71  136.95
   3   2   618995.20   96.32
  -3  -2  -618648.96  233.76
   3   2   7   25.56   14.73
   3   2   7   11.76   10.01
  -3  -2  -7   20.17   15.40
   3   2   8 1177.08   45.27
   3   2   8 1237.27   35.94
  -3  -2  -8 1205.34   43.71
   3   2   9 1523.60   44.50
  -3  -2  -9 1530.90   53.62
   3   2  10  920.28   36.88
  -3  -2 -10  874.70   39.83
  -3  -2 -11  172.85   26.82
  -3  -2 -12   88.87   24.32
   3   3 -10  470.45   49.46
  -3  -3  10  447.02   49.46
   3   3  -9 1488.22   63.34
  -3  -3   9 1268.16  186.25
   3   3  -8  802.38   66.05
  -3  -3   8  707.73  114.83
   3   3  -7  194.48   28.72
  -3  -3   7  158.33   22.78
   3   3  -6   -5.53   17.14
  -3  -3   6   23.01   18.44
   3   3  -5 1864.80   56.72
  -3  -3   5 1802.65   66.11
   3   3  -415176.70  196.61
  -3  -3   415182.40  171.44
  -3  -3   415018.01  203.76
   3   3  -3  258.16   20.98
   3   3  -3  230.01   20.45
  -3  -3   3  218.20   11.67
   3   3  -2 2876.96   49.25
   3   3  -2 2933.76   53.42
  -3  -3   2 2912.23   37.74
   3   3  -1  979.97   36.04
   3   3  -1 1041.01   39.90
  -3  -3   1 1045.00   36.19
   3   3   0 7016.89   65.03
   3   3   0 7186.75   71.64
  -3  -3   0 7059.59   69.64
   3   3   1 7786.33   67.81
   3   3   1 7697.75   70.91
  -3  -3  -1 7456.64   77.30
   3   3   231826.57  178.08
   3   3   231318.97  179.68
  -3  -3  -231401.95  196.74
   3   3   3  842.02   51.46
   3   3   3  765.37   27.93
  -3  -3  -3  886.31   41.89
   3   3   4 4245.47   72.60
   3   3   4 4322.61   50.51
  -3  -3  -4 4295.86   67.72
   3   3   5 3632.31   57.58
   3   3   5 3707.01   50.21
  -3  -3  -5 3659.52   67.56
   3   3   6  726.39   38.90
   3   3   6  694.12   24.18
  -3  -3  -6  633.11   32.93
   3   3   7 2821.04   60.76
   3   3   7 2896.67   53.88
  -3  -3  -7 2741.46   65.56
   3   3   8 1610.77   54.80
  -3  -3  -8 1611.46   60.67
  -3  -3  -8 1619.09   62.17
   3   3   9   54.80   18.41
  -3  -3  -9   55.92   14.55
  -3  -3  -9   51.39   21.72
   3   3  10 1249.31   77.77
  -3  -3 -10 1169.01   81.54
  -3  -3 -10 1133.99   74.48
   3   3  11   55.69   20.47
  -3  -3 -11   50.92   23.31
  -3  -3 -11   44.61   18.19
  -3  -3 -12   63.73   21.89
   3   4 -10   92.68   30.82
  -3  -4  10   26.03   15.55
   3   4  -9  177.99   32.37
  -3  -4   9  182.42   32.34
   3   4  -8   31.67   16.04
  -3  -4   8   20.70   14.58
   3   4  -7   68.10   15.83
  -3  -4   7   49.65   16.71
   3   4  -6 1524.78   59.45
  -3  -4   6 1497.53   58.27
   3   4  -5  222.75   26.41
  -3  -4   5  174.64   12.75
  -3  -4   5  226.50   39.59
   3   4  -410835.28  131.22
   3   4  -410706.83  137.89
  -3  -4   410728.19  115.03
   3   4  -3 1211.31   39.09
   3   4  -3 1122.16   41.76
  -3  -4   3 1169.13   29.20
   3   4  -2   31.26   13.10
   3   4  -2   -6.27   14.32
  -3  -4   2   -3.50    9.16
   3   4  -1  107.86   10.18
   3   4  -1  106.52   16.51
  -3  -4   1  156.54   18.85
   3   4   0   12.54    9.33
   3   4   0    4.98   11.33
  -3  -4   0   28.24   13.85
   3   4   1 2232.42   31.28
   3   4   1 2071.49   59.32
  -3  -4  -1 2042.22   63.20
   3   4   2 2480.79   33.86
   3   4   2 2472.02   42.01
  -3  -4  -2 2514.54   51.66
   3   4   3 4573.36   48.54
   3   4   3 4616.85   58.57
  -3  -4  -3 4661.29   70.84
   3   4   4   -1.15    8.39
   3   4   4    9.63   10.13
  -3  -4  -4   -4.80   22.68
   3   4   5   38.27    8.22
   3   4   5   25.93   12.61
  -3  -4  -5   39.28   24.54
   3   4   6 1061.48   54.29
   3   4   6 1093.55   36.34
  -3  -4  -6 1048.92   44.25
   3   4   7   30.90   20.33
  -3  -4  -7   60.46   29.92
   3   4   8 4080.62   90.37
  -3  -4  -8 3959.44   93.39
  -3  -4  -8 3956.75   99.03
   3   4   9   22.49   15.06
  -3  -4  -9   22.01   19.48
  -3  -4  -9   -4.69   16.63
   3   4  10  139.16   20.67
  -3  -4 -10  176.61   31.76
   3   4  11  -11.18   15.29
  -3  -4 -11   -2.02   15.84
  -3  -4 -11   27.44   21.98
  -3  -4 -12    8.61   19.10
   3   5 -10  342.99   40.67
  -3  -5  10  309.05   72.41
   3   5  -9   11.49   15.45
  -3  -5   9   39.75   19.78
   3   5  -8   37.79   20.18
  -3  -5   8   38.36   12.78
   3   5  -7   17.84   13.53
  -3  -5   7   19.51   13.88
   3   5  -6 1221.56   51.38
  -3  -5   6 1294.40   39.53
  -3  -5   6 1262.54  112.45
   3   5  -5  205.70   22.10
   3   5  -5  212.48   26.44
  -3  -5   5  195.37   35.50
   3   5  -4  203.35   16.56
   3   5  -4  194.51   22.92
  -3  -5   4  181.84   30.46
   3   5  -3  767.49   31.34
   3   5  -3  721.80   34.03
  -3  -5   3  746.83   28.08
   3   5  -2   71.62   10.67
   3   5  -2   62.55   17.53
  -3  -5   2   50.81   10.50
   3   5  -1 3654.50   42.61
   3   5  -1 3722.60   62.70
  -3  -5   1 3821.33   61.21
   3   5   0  159.80   10.84
   3   5   0  130.52   16.63
  -3  -5   0  144.03   17.89
   3   5   1  388.47   11.89
   3   5   1  406.94   21.50
  -3  -5  -1  404.59   25.40
   3   5   2  153.96    9.26
   3   5   2  179.63   18.95
  -3  -5  -2  156.70   23.33
   3   5   3  701.31   19.30
   3   5   3  689.71   27.76
  -3  -5  -3  668.80   34.40
   3   5   4  160.07   33.95
   3   5   4  156.00   17.70
  -3  -5  -4  189.58   29.37
   3   5   5   48.55   10.52
   3   5   5   33.15   14.61
  -3  -5  -5   57.00   34.19
   3   5   6  997.34   44.22
   3   5   6  966.92   39.40
  -3  -5  -6 1030.49   45.88
   3   5   7 2276.84   72.82
  -3  -5  -7 2443.37   82.01
   3   5   8 2972.82   76.56
  -3  -5  -8 2899.52   73.03
  -3  -5  -8 2909.87   81.96
   3   5   9   53.57   18.63
  -3  -5  -9   60.48   23.27
  -3  -5  -9   39.51   18.76
   3   5  10   10.82   17.09
  -3  -5 -10   20.63   17.34
  -3  -5 -10  -18.90   17.94
   3   5  11  159.29   30.19
  -3  -5 -11  125.65   23.87
  -3  -5 -11  139.66   23.42
  -3  -5 -12   79.14   28.56
   3   6 -10  108.54   26.74
  -3  -6  10   81.78   20.48
   3   6  -9   -6.65   14.47
  -3  -6   9   22.41   17.07
   3   6  -8   -1.98   14.04
  -3  -6   8  -14.57   18.73
   3   6  -7  690.61   51.72
  -3  -6   7  590.21   62.43
  -3  -6   7  611.74  138.83
   3   6  -6  387.96   27.43
   3   6  -6  357.70   32.70
  -3  -6   6  293.79   54.72
   3   6  -5 3279.46   77.47
   3   6  -5 3135.70   81.36
  -3  -6   5 3127.87   71.87
   3   6  -4   18.51    9.71
   3   6  -4    3.69   15.74
  -3  -6   4    4.95    9.52
   3   6  -3 6541.50   78.39
  -3  -6   3 6601.94  102.70
   3   6  -2  440.33   19.65
   3   6  -2  429.78   27.32
  -3  -6   2  502.57   88.50
   3   6  -1  622.13   17.43
   3   6  -1  641.43   33.53
  -3  -6   1  627.11   33.64
   3   6   0   81.28    6.07
   3   6   0   80.90   13.75
  -3  -6   0  100.51   20.99
   3   6   1 3145.34   66.55
  -3  -6  -1 3176.21   73.15
   3   6   2  585.42   29.66
  -3  -6  -2  616.67   35.12
   3   6   3 2319.24   32.93
   3   6   3 2259.30   53.72
  -3  -6  -3 2331.64   65.64
   3   6   410681.64  114.86
   3   6   411139.97  141.46
  -3  -6  -410642.96  146.01
   3   6   5    7.77    8.05
   3   6   5   24.54   16.46
  -3  -6  -5   22.86   25.26
   3   6   6  539.93   36.12
   3   6   6  562.82   36.31
  -3  -6  -6  529.81   45.31
   3   6   7 3956.69   93.31
  -3  -6  -7 4060.70  102.47
   3   6   8  406.64   34.24
  -3  -6  -8  415.38   28.70
  -3  -6  -8  362.11   38.17
   3   6   9  204.27   34.35
  -3  -6  -9  185.84   24.54
  -3  -6  -9  159.67   31.97
   3   6  10   12.19   17.72
  -3  -6 -10   14.86   14.34
  -3  -6 -10   -2.10   18.13
   3   6  11  214.15   33.13
  -3  -6 -11  231.44   34.54
   3   7  -9  281.04   33.33
  -3  -7   9  273.18   54.58
   3   7  -8   11.95   15.06
  -3  -7   8   18.77   13.31
   3   7  -7 2209.87   65.17
   3   7  -7 2372.09   74.36
  -3  -7   7 2194.05   84.12
   3   7  -6  820.05   40.41
   3   7  -6  822.46   48.48
  -3  -7   6  737.61  100.67
   3   7  -5 1466.06   47.28
   3   7  -5 1396.30   57.85
  -3  -7   5 1501.82   55.36
   3   7  -4  875.18   33.72
   3   7  -4  924.60   49.19
  -3  -7   4  903.37   96.39
   3   7  -3  796.12   25.09
   3   7  -3  780.67   39.29
  -3  -7   3  762.15  128.44
   3   7  -2  644.89   19.94
   3   7  -2  697.44   36.56
  -3  -7   2  711.50  131.55
   3   7  -1   27.09   17.84
  -3  -7   1    9.83   16.64
   3   7   0  997.15   41.29
  -3  -7   0  925.92   38.67
   3   7   1  863.56   39.11
  -3  -7  -1  796.16   38.26
   3   7   2 3071.71   64.92
  -3  -7  -2 3237.91   72.03
   3   7   3 5764.13   93.20
  -3  -7  -3 5557.94   96.49
   3   7   4  688.72   34.94
  -3  -7  -4  709.34   40.27
   3   7   5  113.96   22.15
   3   7   5  142.10   22.60
  -3  -7  -5  141.23   31.43
   3   7   6   28.39    8.01
  -3  -7  -6    7.09   25.33
   3   7   7  704.29   31.01
   3   7   7  772.53   41.97
  -3  -7  -7  727.02   47.98
   3   7   8   27.33   18.16
  -3  -7  -8   21.20   21.84
   3   7   9  123.57   24.40
  -3  -7  -9   71.63   18.56
   3   7  10  139.72   28.20
  -3  -7 -10   87.78   25.56
  -3  -8   9   43.67   22.99
   3   8  -8    5.74   13.19
  -3  -8   8   -4.98   15.47
   3   8  -7 1538.90   64.00
   3   8  -7 1563.28  473.83
  -3  -8   7 1302.52  139.88
   3   8  -6  495.96   32.35
   3   8  -6  461.89   40.57
  -3  -8   6  393.39   62.94
   3   8  -5 1274.07   41.97
   3   8  -5 1115.56   53.11
  -3  -8   5 1077.17  158.75
   3   8  -4 6469.42  218.81
  -3  -8   4 6434.94  216.23
   3   8  -3  538.21   38.24
  -3  -8   3  576.54  108.26
   3   8  -2  214.85   28.12
  -3  -8   2  188.81   41.03
   3   8  -1  666.06   39.32
  -3  -8   1  606.17   36.33
   3   8   0   29.09   18.61
  -3  -8   0   21.07   18.37
   3   8   1 4092.70  114.28
  -3  -8  -1 3946.40  113.19
   3   8   2 1002.46   43.37
  -3  -8  -2 1024.16   52.92
   3   8   3   60.38   26.10
  -3  -8  -3   17.84   23.64
   3   8   4  208.23   30.71
  -3  -8  -4  120.35   22.48
   3   8   5  321.21   33.07
  -3  -8  -5  349.41   36.49
   3   8   6   15.91   20.63
  -3  -8  -6   11.35   33.90
   3   8   7   54.06   28.51
  -3  -8  -7   26.67   22.81
   3   8   8  264.58   31.66
  -3  -8  -8  214.75   38.89
   3   8   9  -11.68   17.80
  -3  -8  -9   53.92   35.53
   3   9  -8  127.87   28.75
   3   9  -7    6.47   16.57
  -3  -9   7    7.14   10.64
   3   9  -6  801.71   48.86
  -3  -9   6  805.00   80.60
   3   9  -5 1054.79   70.31
  -3  -9   5  991.38  110.80
   3   9  -4   -4.09   16.93
  -3  -9   4   23.80   12.04
   3   9  -3 1754.81   62.43
  -3  -9   3 1483.82   94.97
   3   9  -2  291.80   35.15
  -3  -9   2  233.81   40.13
   3   9  -1  161.10   24.92
  -3  -9   1  149.55   27.14
   3   9   0 1353.85   54.33
  -3  -9   0 1278.10   52.86
   3   9   1  197.40   24.61
  -3  -9  -1  188.38   32.69
   3   9   2  522.00   38.83
  -3  -9  -2  554.16   44.17
   3   9   3  301.18   35.64
  -3  -9  -3  264.34   33.72
   3   9   4   10.39   16.69
  -3  -9  -4  -23.98   22.46
   3   9   5  832.37   61.31
  -3  -9  -5  783.41   61.78
   3   9   6  274.38   33.20
  -3  -9  -6  325.24   40.93
   3   9   7  238.86   34.35
  -3  -9  -7  247.35   37.10
   3   9   8  274.17   35.98
  -3  -9  -8  269.51   37.95
   3  10  -7  257.79   39.65
   3  10  -6  442.39   51.72
  -3 -10   6  327.80   60.72
   3  10  -5  119.21   26.50
  -3 -10   5  117.33   21.36
   3  10  -4 1110.14   54.53
  -3 -10   4  957.58  161.00
   3  10  -3  674.35   54.33
  -3 -10   3  652.08  102.88
   3  10  -2  273.63   34.08
  -3 -10   2  253.03   52.94
   3  10  -1  506.28   47.14
  -3 -10   1  436.36   40.97
   3  10   0 1386.39   91.67
  -3 -10   0 1244.44   85.73
   3  10   1 2359.91  141.66
  -3 -10  -1 2433.28  148.70
   3  10   2  522.19   43.87
  -3 -10  -2  519.14   45.87
   3  10   3   34.69   20.79
  -3 -10  -3   62.89   32.07
   3  10   4 1710.50  100.23
  -3 -10  -4 1517.07   91.33
   3  10   5   13.59   20.82
  -3 -10  -5    6.06   23.33
   3  10   6   24.14   21.44
  -3 -10  -6    9.35   23.00
   3  10   7  247.89   34.64
  -3 -10  -7  236.28   38.11
   3  11  -5  646.91   55.17
  -3 -11   5  511.79  118.71
   3  11  -4  490.33   48.19
  -3 -11   4  450.66   88.97
   3  11  -3  -12.82   18.20
  -3 -11   3  -19.24   19.43
   3  11  -2  459.19   39.39
  -3 -11   2  468.92   43.59
   3  11  -1   54.12   31.66
  -3 -11   1   63.01   34.71
   3  11   0  187.20   33.32
  -3 -11   0  169.65   34.12
   3  11   1   -5.68   22.11
  -3 -11  -1   21.19   24.92
   3  11   2  852.24   56.80
  -3 -11  -2  814.23   62.81
   3  11   3 1532.28   70.32
  -3 -11  -3 1605.80   68.42
   3  11   4  139.32   34.76
  -3 -11  -4  185.65   43.79
   3  11   5  262.13   40.78
  -3 -11  -5  176.11   38.63
  -3 -11  -6  106.55   34.22
   3  12  -3  312.30   38.30
  -3 -12   3  366.41   55.62
   3  12  -2   75.00   22.25
  -3 -12   2   14.29   21.76
   3  12  -1  294.28   36.69
  -3 -12   1  374.05   47.51
   3  12   0  157.33   30.40
  -3 -12   0  181.52   37.51
   3  12   1  396.64   38.70
  -3 -12  -1  386.12   45.25
   3  12   2   36.61   23.25
  -3 -12  -2   42.28   23.33
   3  12   3   14.46   20.06
  -3 -12  -3   54.82   36.10
   4  -8  -1   19.74   10.54
  -4   8   1   26.60   18.56
   4  -8   0   29.30   14.43
  -4   8   0   30.67   25.03
   4  -8   1   57.09   22.41
  -4   8  -1   66.36   23.15
  -4   8  -2 1028.86   72.22
  -4   8  -3  162.55   33.21
  -4   8  -4  544.08   55.11
  -4   8  -5   81.39   35.18
  -4   8  -6   39.18   21.48
   4  -7  -3   33.36   21.07
  -4   7   3    3.47   22.24
   4  -7  -2  -29.77   16.54
  -4   7   2  -20.71   18.11
   4  -7  -1  891.94   51.43
  -4   7   1  932.37   51.75
   4  -7   0 1324.04   61.34
   4  -7   0 1118.28   78.10
  -4   7   0 1185.85   56.71
   4  -7   1  251.91   28.34
  -4   7  -1  299.67   31.69
  -4   7  -1  261.30   31.13
   4  -7   2   33.55   16.12
  -4   7  -2   32.55   18.76
  -4   7  -2   34.53   14.67
   4  -7   3 1151.18   47.90
  -4   7  -3 1021.96   50.67
  -4   7  -3 1097.00   44.96
   4  -7   4  181.44   28.07
  -4   7  -4  174.64   31.38
   4  -7   5  189.24   29.39
  -4   7  -5  256.85   42.07
   4  -7   6  631.55   41.97
  -4   7  -6  602.73   47.52
   4  -7   7   25.30   20.11
  -4   7  -7   45.14   25.71
   4  -7   8  631.73   48.83
  -4   7  -8  489.21   40.88
   4  -6  -5  138.70   28.35
  -4   6   5  135.13   36.48
   4  -6  -4  270.58   38.57
  -4   6   4  291.28   47.39
   4  -6  -3  957.65   55.97
  -4   6   3  948.18   53.62
   4  -6  -2   35.73   19.33
   4  -6  -2   42.34    9.78
  -4   6   2   26.94   19.07
   4  -6  -1 1035.60   67.08
   4  -6  -1  892.26   91.03
  -4   6   1  992.79   67.47
   4  -6   0  272.88   30.39
  -4   6   0  217.93   30.43
  -4   6   0  287.53   30.42
   4  -6   1 1674.64  104.89
  -4   6  -1 1462.03   91.63
  -4   6  -1 1524.92   93.68
   4  -6   2 1722.95  106.79
  -4   6  -2 1657.77  104.38
  -4   6  -2 1671.36  100.74
   4  -6   3  140.35   23.15
  -4   6  -3  189.07   28.63
  -4   6  -3  156.20   18.69
   4  -6   4  243.25   30.67
  -4   6  -4  225.31   27.15
  -4   6  -4  272.60   23.96
   4  -6   5   84.57   33.76
  -4   6  -5    7.92   15.88
   4  -6   6 1344.72   80.99
  -4   6  -6 1065.66   70.05
   4  -6   7   26.17   20.16
  -4   6  -7    4.23   20.89
   4  -6   8    9.27   21.39
  -4   6  -8   65.95   40.66
   4  -6   9  863.88   53.94
  -4   6  -9  896.05   56.46
   4  -6  10  186.74   32.00
   4  -5  -6  -13.53   19.54
  -4   5   6   85.23   35.10
   4  -5  -5  295.83   39.20
  -4   5   5  216.23   34.74
   4  -5  -4  211.78   34.05
  -4   5   4  162.39   36.92
   4  -5  -3 1766.94   66.63
  -4   5   3 1531.08   65.46
   4  -5  -2  630.10   51.58
   4  -5  -2  579.06   47.95
  -4   5   2  613.28   51.90
   4  -5  -1 1214.38   51.69
  -4   5   1 1319.09   49.69
   4  -5   0  299.67   27.26
  -4   5   0  257.04   22.11
  -4   5   0  277.05   29.44
   4  -5   1  185.64   27.57
  -4   5  -1  151.64   22.80
  -4   5  -1  171.31   21.13
   4  -5   2  224.12   31.90
  -4   5  -2  165.06   22.32
  -4   5  -2  184.19   23.10
   4  -5   3  922.37   44.02
  -4   5  -3  964.23   45.86
  -4   5  -3  986.12   37.43
   4  -5   4  927.09   45.97
  -4   5  -4  912.12   46.71
  -4   5  -4  937.97   33.16
   4  -5   5  191.74   30.52
  -4   5  -5  207.96   31.23
   4  -5   6   26.19   17.38
  -4   5  -6   14.99   17.50
   4  -5   7 1093.67   76.83
  -4   5  -7 1110.33   78.33
   4  -5   8   11.02   20.47
  -4   5  -8   -9.78   19.81
   4  -5   9  527.95   43.59
  -4   5  -9  486.91   39.19
   4  -5  10  -20.79   20.42
  -4   5 -10   14.46   20.22
   4  -4  -7   67.70   29.13
  -4   4   7   17.29   29.59
  -4   4   6   -7.56   33.00
   4  -4  -5  994.14   51.10
  -4   4   5 1037.17   67.79
   4  -4  -4  234.93   37.06
  -4   4   4  161.62   48.74
   4  -4  -3  106.98   25.68
  -4   4   3  139.30   42.10
   4  -4  -2  824.44   45.34
   4  -4  -2  729.28   68.19
  -4   4   2  882.60   52.92
   4  -4  -1   58.25   20.67
  -4   4   1   51.00   17.36
  -4   4   1    2.58   21.10
   4  -4   0    3.13   20.70
  -4   4   0    2.58   11.57
  -4   4   0   27.72   25.86
   4  -4   1  863.27   40.96
  -4   4  -1  897.42   40.67
  -4   4  -1  951.14   41.40
   4  -4   2  816.10   45.15
  -4   4  -2  808.88   42.12
  -4   4  -2  785.29   32.83
   4  -4   3 3636.38  105.74
  -4   4  -3 3628.99  103.64
  -4   4  -3 3654.29   92.12
   4  -4   4  560.90   39.76
  -4   4  -4  529.45   35.05
  -4   4  -4  551.80   23.67
   4  -4   5  767.05   41.71
  -4   4  -5  751.20   41.55
   4  -4   6   77.35   22.24
  -4   4  -6   42.62   15.35
   4  -4   7  917.61   53.43
  -4   4  -7  902.80   51.51
   4  -4   8  682.26   54.86
  -4   4  -8  663.28   56.36
   4  -4   9  558.89  126.64
  -4   4  -9  673.53   53.56
   4  -4  10  343.50   83.29
  -4   4 -10  320.81   33.86
   4  -4  11   38.88   18.46
  -4   4 -11   51.89   24.72
   4  -3  -8  276.36   43.08
  -4   3   8  325.63   67.09
   4  -3  -7  352.63   46.74
  -4   3   7  263.68   53.86
   4  -3  -6  407.95   40.87
  -4   3   6  419.48   63.24
   4  -3  -5  873.28   55.21
  -4   3   5  790.91   61.37
   4  -3  -4  851.56   52.56
  -4   3   4  889.31   67.12
   4  -3  -3 1127.41   53.50
  -4   3   3 1051.85   59.07
   4  -3  -2  -15.48   17.33
  -4   3   2    0.54    8.75
  -4   3   2  -15.21   28.98
   4  -3  -1 8635.53  144.97
  -4   3   1 8527.66  126.79
  -4   3   1 8389.01  143.96
   4  -3   0 1040.12   47.50
  -4   3   0  978.26   34.22
  -4   3   0 1022.56   48.79
   4  -3   1 3914.64   78.97
  -4   3  -1 3789.67   69.24
  -4   3  -1 3827.73   65.60
   4  -3   2  744.34   36.23
  -4   3  -2  717.62   31.77
  -4   3  -2  743.17   26.41
   4  -3   3  518.80   37.84
  -4   3  -3  481.32   31.48
  -4   3  -3  438.01   18.40
   4  -3   4  435.44   31.69
  -4   3  -4  426.40   30.29
  -4   3  -4  405.83   15.29
   4  -3   5 1771.52   57.78
  -4   3  -5 1747.10   56.66
   4  -3   6 1501.80   65.03
  -4   3  -6 1572.47   61.54
   4  -3   7 1285.46   53.15
  -4   3  -7 1347.61   54.90
   4  -3   8 1744.10   77.06
  -4   3  -8 1858.44   84.47
   4  -3   9   42.48   20.90
  -4   3  -9   81.98   26.31
   4  -3  10  325.47   68.94
  -4   3 -10  272.93   34.83
   4  -3  11  206.18   53.74
  -4   3 -11  232.48   30.65
   4  -3  12  270.62   61.54
  -4   3 -12  324.08   43.13
   4  -2  -8  397.48   42.24
  -4   2   8  337.64   55.10
   4  -2  -7   30.45   20.06
  -4   2   7   37.90   36.68
   4  -2  -6 1544.68   61.80
  -4   2   6 1622.93   80.45
   4  -2  -5 1009.69   53.69
  -4   2   5  978.46   65.16
   4  -2  -4   81.60   23.76
  -4   2   4   54.06   28.69
   4  -2  -3 4396.94  124.03
  -4   2   3 4666.02  141.16
   4  -2  -2  119.62   28.21
  -4   2   2  103.33   12.25
  -4   2   2  137.01   39.53
   4  -2  -1 2764.45   65.74
  -4   2   1 2853.64   48.49
  -4   2   1 2734.98   67.99
   4  -2   0 1883.55   54.91
  -4   2   0 1831.05   41.12
  -4   2   0 1845.30   53.04
   4  -2   1   21.13   23.37
  -4   2  -1   19.24    9.45
  -4   2  -1   45.48   24.46
   4  -2   2   92.45   23.33
  -4   2  -2   79.94   18.26
  -4   2  -2   76.58   13.14
   4  -2   3  606.69   39.91
  -4   2  -3  520.01   30.92
  -4   2  -3  539.66   17.16
   4  -2   4 1191.34   42.19
  -4   2  -4 1327.75   44.34
   4  -2   5  444.25   36.76
  -4   2  -5  360.32   31.96
   4  -2   6 9598.12  157.24
  -4   2  -6 9435.63  154.48
   4  -2   7 1287.18  114.54
  -4   2  -7 1364.87   59.10
   4  -2   8  106.12   17.97
  -4   2  -8  112.96   19.03
   4  -2   9 1848.22  178.70
  -4   2  -9 1955.95   64.32
   4  -2  10  310.35   53.54
  -4   2 -10  297.55   31.20
   4  -2  11  457.80   64.99
  -4   2 -11  495.05   38.94
   4  -2  12   30.91   22.77
  -4   2 -12    8.17   16.87
   4  -1  -9  216.82   41.27
  -4   1   9  144.84   48.37
   4  -1  -8  103.01   32.96
  -4   1   8  217.95   58.91
   4  -1  -7  283.35   42.43
  -4   1   7  326.97   61.23
   4  -1  -6  123.04   26.03
  -4   1   6  115.53   38.38
   4  -1  -5  776.60   49.25
  -4   1   5  630.83   54.29
   4  -1  -4 1682.58   65.41
  -4   1   4 1735.74   75.83
   4  -1  -3   36.24   21.98
  -4   1   3   45.76   25.36
   4  -1  -2 1458.84   51.78
  -4   1   2 1411.43   28.74
  -4   1   2 1470.84   54.28
   4  -1  -1 1047.60   42.34
  -4   1   1 1080.88   25.60
  -4   1   1 1078.31   47.33
   4  -1   0 5188.54   94.68
  -4   1   0 5260.80   79.41
  -4   1   0 5293.27   91.09
   4  -1   1 3026.93   70.17
  -4   1  -1 2857.74   55.81
  -4   1  -1 3012.30   63.63
   4  -1   2 1153.64   41.72
  -4   1  -2 1135.77   34.62
  -4   1  -2 1179.55   32.37
   4  -1   3 5184.62   92.59
  -4   1  -3 5374.66   91.57
  -4   1  -3 5361.04   68.66
   4  -1   4  167.92   25.98
  -4   1  -4  186.04   25.03
   4  -1   5  542.77   35.42
  -4   1  -5  514.37   32.95
   4  -1   6  656.82  107.43
  -4   1  -6  695.13   38.62
   4  -1   7  822.06   93.29
  -4   1  -7  840.13   41.61
   4  -1   8 1980.54  157.60
  -4   1  -8 2155.17   69.94
   4  -1   9  567.07   53.01
  -4   1  -9  463.05   39.52
   4  -1  10 1237.34  115.49
  -4   1 -10 1221.12   80.85
   4  -1  11  112.60   25.91
  -4   1 -11   79.90   25.01
   4  -1  12  283.28   63.54
  -4   1 -12  344.89   41.38
   4   0  -9   35.25   25.22
  -4   0   9   82.89   43.29
   4   0  -8  106.63   35.66
  -4   0   8  -15.98   29.94
   4   0  -7    7.45   18.87
  -4   0   7   27.92   28.22
   4   0  -6  899.28   55.99
  -4   0   6  851.67   56.06
   4   0  -5   14.11   20.68
  -4   0   5   41.65   26.63
   4   0  -4 2774.26   78.36
  -4   0   4 2469.89   69.54
   4   0  -3   68.04   21.46
  -4   0   3   55.38   19.60
   4   0  -2 5643.68   96.45
  -4   0   2 5287.31   59.14
  -4   0   2 5460.05   90.33
   4   0  -1 2424.52   58.79
  -4   0   1 2497.75   43.18
  -4   0   1 2597.17   59.09
   4   0   0  576.18   29.18
  -4   0   0  554.49   20.08
  -4   0   0  573.41   26.94
   4   0   1  306.34   24.75
  -4   0  -1  251.09   17.25
  -4   0  -1  285.55   15.94
   4   0   2 2501.79   51.48
  -4   0  -2 2568.31   47.41
  -4   0  -2 2606.53   36.15
   4   0   3 2031.26   48.68
  -4   0  -3 2037.73   44.57
  -4   0  -3 2000.92   25.99
   4   0   4 3106.75   60.69
  -4   0  -4 3094.74   59.35
   4   0   5 6088.88  104.22
  -4   0  -5 6191.67  106.71
   4   0   6  227.96   37.81
  -4   0  -6  274.03   25.85
   4   0   7 2324.81   59.94
  -4   0  -7 2375.41   63.63
   4   0   8 6176.29  174.52
  -4   0  -8 6087.50  158.45
   4   0   9  817.07   53.18
  -4   0  -9  746.66   42.48
   4   0  10   95.19   13.89
  -4   0 -10  113.72   25.93
   4   0  11  102.05   31.47
  -4   0 -11   74.78   26.55
   4   0  12  710.74  145.71
  -4   0 -12  727.86   60.00
   4   1  -9   -4.36   21.71
  -4  -1   9   52.63   46.39
   4   1  -8    5.70   21.19
  -4  -1   8   19.27   29.77
   4   1  -7  667.80   57.49
  -4  -1   7  573.81   54.09
   4   1  -6 6789.37  232.10
  -4  -1   6 6631.25  229.33
   4   1  -5  479.82   37.74
  -4  -1   5  395.42   78.18
   4   1  -4 2298.90   60.98
  -4  -1   4 2295.44   60.93
   4   1  -3  461.75   33.37
  -4  -1   3  472.14   84.44
   4   1  -2   28.87   18.90
  -4  -1   2   33.10    6.53
  -4  -1   2   32.20   12.21
   4   1  -1 3527.50   63.55
  -4  -1   1 3445.19   41.44
  -4  -1   1 3431.49   60.03
   4   1   0   37.73   13.77
  -4  -1   0   24.60    9.37
  -4  -1   0   23.17    9.08
   4   1   1  164.83   20.34
  -4  -1  -1  219.16   16.89
  -4  -1  -1  207.55   27.95
   4   1   2  199.29   21.75
  -4  -1  -2  227.09   19.65
  -4  -1  -2  219.68   33.92
   4   1   3 4315.73   65.06
  -4  -1  -3 4330.55   64.48
  -4  -1  -3 4267.53   41.51
   4   1   4   99.62   24.48
  -4  -1  -4   97.47   20.75
  -4  -1  -4   78.59    8.59
   4   1   5 4366.24   94.86
  -4  -1  -5 4330.85   82.92
   4   1   6 3066.18   75.83
  -4  -1  -6 2942.72   66.74
   4   1   7  103.70   24.93
  -4  -1  -7  172.62   26.23
   4   1   8 5806.07  184.77
  -4  -1  -8 6039.59  157.62
   4   1   9  353.79   72.94
  -4  -1  -9  362.31   29.34
   4   1  10   30.64    9.87
  -4  -1 -10   37.03   18.93
   4   1  11  295.78   54.85
  -4  -1 -11  383.04   40.48
   4   1  12   45.59   24.59
  -4  -1 -12  117.56   29.22
   4   1  13  200.69   47.32
   4   2  -9   10.85   19.62
  -4  -2   9   -2.75   28.81
   4   2  -8  121.66   31.79
  -4  -2   8   35.93   28.63
   4   2  -7  509.51   46.66
  -4  -2   7  593.40   60.93
   4   2  -6 1907.03   67.74
  -4  -2   6 1784.46   97.98
   4   2  -5  488.65   36.94
  -4  -2   5  601.96   91.83
   4   2  -4   54.57   20.89
  -4  -2   4   23.00   22.35
   4   2  -3 1371.02   48.09
  -4  -2   3 1247.96   48.01
   4   2  -2 1071.86   41.12
  -4  -2   2 1032.54   20.76
  -4  -2   2 1081.94   44.36
   4   2  -1  785.28   33.00
  -4  -2   1  825.42   25.31
  -4  -2   1  814.67   37.82
   4   2   0  609.29   28.61
  -4  -2   0  647.21   23.21
  -4  -2   0  659.14   32.99
   4   2   1 6661.55   77.63
   4   2   1 6661.56   67.02
  -4  -2  -1 6572.09   72.85
   4   2   2   -3.86   16.41
   4   2   2   10.23   12.48
  -4  -2  -2   10.17   16.51
   4   2   3  999.45   33.10
   4   2   3 1049.27   21.79
  -4  -2  -3 1053.71   35.88
   4   2   4   67.67   12.31
   4   2   4   66.63    8.15
  -4  -2  -4   33.42   22.75
   4   2   5 1548.43  132.57
   4   2   5 1408.30   26.64
  -4  -2  -5 1359.89   46.83
   4   2   612814.08  174.92
   4   2   612414.83  117.35
  -4  -2  -612970.06  125.67
   4   2   7 4608.34   90.26
   4   2   7 4695.43   53.21
  -4  -2  -7 4902.21   88.02
   4   2   8  526.40   42.99
   4   2   8  525.21   20.20
  -4  -2  -8  566.35   40.65
   4   2   9 1221.13  175.23
  -4  -2  -9 1234.16   49.68
   4   2  10   45.18   18.72
  -4  -2 -10   35.94   18.66
   4   2  11   26.62   15.20
  -4  -2 -11   33.07   23.25
   4   2  12  331.04   71.12
  -4  -2 -12  378.79   39.22
   4   3  -9  260.44   37.44
  -4  -3   9  265.03   43.98
   4   3  -8   -3.27   15.71
  -4  -3   8   23.95   25.22
   4   3  -7   44.32   25.90
  -4  -3   7   24.63   18.85
   4   3  -6 1262.74   56.63
  -4  -3   6 1044.37  174.59
   4   3  -5 1314.05   54.19
  -4  -3   5 1436.55   88.51
   4   3  -4   34.38   14.08
  -4  -3   4   24.03   17.65
   4   3  -3  111.64   19.14
  -4  -3   3  165.17   13.77
  -4  -3   3  186.75   42.99
   4   3  -2 2212.01   52.99
  -4  -3   2 2260.42   42.77
  -4  -3   2 2292.76   56.63
   4   3  -1   84.85   11.88
   4   3  -1  112.73   20.31
  -4  -3   1   97.55   18.87
   4   3   0   20.16   18.52
   4   3   0    0.06   10.40
  -4  -3   0  -15.49   14.10
   4   3   133439.63  189.98
  -4  -3  -133041.22  197.29
   4   3   2 6885.02   73.95
   4   3   2 6905.78   67.21
  -4  -3  -2 7094.73   84.88
   4   3   3 4423.59   60.22
   4   3   3 4450.23   51.31
  -4  -3  -3 4434.99   71.83
   4   3   4  268.16   21.22
   4   3   4  300.67   15.60
  -4  -3  -4  340.64   33.10
   4   3   5 5875.60   99.73
   4   3   5 6200.64   84.88
  -4  -3  -5 6179.01  107.73
   4   3   6  394.68   70.76
   4   3   6  395.37   17.43
  -4  -3  -6  408.30   32.78
   4   3   7 2789.09  125.57
   4   3   7 2743.20   46.07
  -4  -3  -7 2806.56   67.88
   4   3   8 1012.79   71.48
   4   3   8  930.73   31.02
  -4  -3  -8  949.32   45.13
   4   3   9  297.34   61.38
   4   3   9  273.11   20.75
  -4  -3  -9  354.61   34.54
   4   3  10   45.05   14.39
  -4  -3 -10   19.63   15.98
   4   3  11   30.05   23.14
  -4  -3 -11   13.88   16.83
   4   3  12  306.84  108.73
  -4  -3 -12  387.63   42.66
   4   4  -9   57.06   34.71
  -4  -4   9   -0.56   20.81
   4   4  -8   43.72   19.24
  -4  -4   8   80.24   12.84
   4   4  -7   28.70   16.91
  -4  -4   7   15.21   10.07
   4   4  -6  180.07   24.49
  -4  -4   6  218.68   40.43
   4   4  -5   16.46   13.61
  -4  -4   5    4.01   13.43
   4   4  -4 1177.08   42.19
  -4  -4   4 1249.30   31.65
  -4  -4   4 1228.99   64.97
   4   4  -3   68.97   15.95
   4   4  -3   88.45   22.07
  -4  -4   3   70.86   16.02
   4   4  -2 4775.38   82.00
   4   4  -2 4677.79   85.00
  -4  -4   2 5004.18   78.04
   4   4  -1 2420.09   52.91
   4   4  -1 2431.01   57.51
  -4  -4   1 2480.38   51.26
   4   4   0 3735.57   53.10
   4   4   0 3723.83   59.71
  -4  -4   0 3733.06   56.74
   4   4   157685.29  186.29
   4   4   157227.95  296.36
  -4  -4  -157208.22  306.65
   4   4   217817.50  120.50
   4   4   218027.38  127.78
  -4  -4  -218291.59  148.15
   4   4   3 4276.00   56.58
   4   4   3 4241.71   55.86
  -4  -4  -3 4144.05   72.61
   4   4   4  555.74   27.17
   4   4   4  587.09   22.01
  -4  -4  -4  600.08   37.46
   4   4   5 1944.30   81.65
   4   4   5 1960.69   40.74
  -4  -4  -5 1886.88   58.68
   4   4   6  429.75   29.92
   4   4   6  424.06   21.00
  -4  -4  -6  415.66   35.34
   4   4   7   34.31    9.40
   4   4   7   56.90   13.98
  -4  -4  -7   38.89   25.08
   4   4   8  797.66   83.63
   4   4   8  785.52   34.39
  -4  -4  -8  730.12   45.09
   4   4   9  215.59   34.05
   4   4   9  233.63   20.96
  -4  -4  -9  222.12   28.42
   4   4  10  207.34   45.56
   4   4  10  234.41   25.50
  -4  -4 -10  179.86   28.79
   4   4  11    5.48    8.63
  -4  -4 -11   -2.79   16.10
   4   4  12   65.34   18.72
  -4  -4 -12   63.69   25.42
   4   5  -9   29.81   21.60
  -4  -5   9   57.48   29.31
   4   5  -8   18.94   16.05
  -4  -5   8   10.82   22.49
   4   5  -7   13.46   13.86
  -4  -5   7   -8.94   17.97
   4   5  -6  344.84   28.64
  -4  -5   6  295.19   53.30
   4   5  -5  -17.80   14.86
  -4  -5   5    7.81   12.20
  -4  -5   5   29.12   13.44
   4   5  -4 1674.16   53.10
   4   5  -4 1725.64   60.83
  -4  -5   4 1712.28   44.75
   4   5  -3 3956.70   67.66
   4   5  -3 3820.56   73.79
  -4  -5   3 3833.23   62.30
   4   5  -2  592.16   25.08
   4   5  -2  554.58   32.32
  -4  -5   2  628.94   31.87
   4   5  -1 2299.14   48.97
   4   5  -1 2340.08   56.98
  -4  -5   1 2411.87   59.63
   4   5   0  292.39   16.58
   4   5   0  286.16   25.67
  -4  -5   0  301.23   27.57
   4   5   1  232.27   14.90
   4   5   1  237.51   21.96
  -4  -5  -1  264.84   26.66
   4   5   2    8.73    8.74
   4   5   2   12.26   12.33
  -4  -5  -2   11.78   21.57
   4   5   3   16.54    9.44
   4   5   3   -0.45   10.56
   4   5   4   23.72   13.17
   4   5   4   37.08   16.22
  -4  -5  -4   49.15   38.60
   4   5   5  358.47   62.48
   4   5   5  461.58   28.43
  -4  -5  -5  382.07   39.33
   4   5   6 1884.55   57.32
   4   5   6 2025.98   53.11
  -4  -5  -6 1905.19   64.13
   4   5   7  644.41   56.77
   4   5   7  664.37   31.90
  -4  -5  -7  728.02   50.20
   4   5   8 1056.58   71.08
   4   5   8 1065.42   41.46
  -4  -5  -8  999.90   55.08
   4   5   9   -0.04   11.38
   4   5   9   27.43   16.48
  -4  -5  -9  -16.34   22.79
   4   5  10    2.57    7.14
   4   5  10   -9.02   11.79
  -4  -5 -10   -9.16   19.00
   4   5  11  277.90   60.29
  -4  -5 -11  285.19   31.54
   4   5  12   29.36   17.56
  -4  -5 -12   16.11   17.25
   4   6  -9    5.45   16.86
  -4  -6   9    4.76   19.44
   4   6  -8   42.79   24.72
  -4  -6   8   45.70   23.61
   4   6  -7   97.37   24.92
  -4  -6   7   92.48   19.02
   4   6  -6  259.19   27.78
  -4  -6   6  210.70   33.18
   4   6  -5  471.33   31.98
   4   6  -5  491.67   41.65
  -4  -6   5  449.80   26.15
   4   6  -4  224.18   19.66
   4   6  -4  263.10   35.84
  -4  -6   4  251.04   21.42
   4   6  -3 3879.46   73.73
   4   6  -3 3895.75   87.06
  -4  -6   3 3903.90   77.28
   4   6  -2  367.54   21.11
   4   6  -2  402.84   27.67
  -4  -6   2  344.04   30.35
   4   6  -1 1007.45   29.72
   4   6  -1 1009.24   40.34
  -4  -6   1  956.11   38.14
   4   6   0 3408.41   49.84
   4   6   0 3565.83   70.49
  -4  -6   0 3406.98   70.40
   4   6   1  437.92   15.88
   4   6   1  471.78   29.69
  -4  -6  -1  442.72   31.22
   4   6   2 3434.97   47.35
   4   6   2 3306.99   65.54
  -4  -6  -2 3404.71   77.88
   4   6   3  614.15   20.88
   4   6   3  580.18   29.81
  -4  -6  -3  635.46   40.79
   4   6   4 1286.50   30.35
   4   6   4 1321.91   42.56
  -4  -6  -4 1344.15   63.17
   4   6   5  281.14   44.72
   4   6   5  273.49   26.63
  -4  -6  -5  357.58   44.60
   4   6   6  208.16   42.08
   4   6   6  228.85   24.49
  -4  -6  -6  236.28   35.10
   4   6   7  703.08   95.91
   4   6   7  736.66   34.33
  -4  -6  -7  763.47   52.53
   4   6   8 1278.14   81.70
   4   6   8 1245.63   44.80
  -4  -6  -8 1248.58   55.10
   4   6   9 2163.91  113.65
   4   6   9 2309.14   60.13
  -4  -6  -9 2342.05   74.37
   4   6  10   27.01    7.36
   4   6  10   38.37   21.58
  -4  -6 -10   31.87   19.58
   4   6  11   97.54   23.05
   4   6  11  127.53   26.20
   4   7  -8   66.71   21.00
  -4  -7   8   47.78   21.87
   4   7  -7   15.93   14.82
  -4  -7   7   12.77   16.35
   4   7  -6  986.22   44.72
   4   7  -6  990.63   47.66
  -4  -7   6 1006.71   40.51
   4   7  -5 2993.41   68.32
   4   7  -5 2975.47   79.72
  -4  -7   5 3153.88   65.71
   4   7  -4 1391.69   45.91
   4   7  -4 1461.08   59.55
  -4  -7   4 1422.15   47.87
   4   7  -3  116.97   13.86
   4   7  -3  153.00   27.58
  -4  -7   3  163.38   24.97
   4   7  -2 6237.56   93.59
   4   7  -2 6448.56  120.44
  -4  -7   2 6146.54  111.31
   4   7  -1   46.53    8.22
   4   7  -1   64.64   15.87
  -4  -7   1   49.46   15.09
   4   7   0 3122.33   67.27
  -4  -7   0 3119.15   76.81
   4   7   1 4349.78   79.53
  -4  -7  -1 4272.88   80.45
   4   7   2 2470.66   59.50
  -4  -7  -2 2502.23   66.56
   4   7   3 1271.07   46.87
  -4  -7  -3 1169.34   50.29
   4   7   4  441.98   29.89
  -4  -7  -4  513.83   51.86
   4   7   5  634.05   26.69
   4   7   5  638.60   37.22
  -4  -7  -5  575.46   45.01
   4   7   6  323.64   62.18
   4   7   6  445.67   32.06
  -4  -7  -6  412.89   42.12
   4   7   7  490.09   90.75
   4   7   7  563.15   32.30
  -4  -7  -7  592.36   43.74
   4   7   8  293.68   53.94
   4   7   8  396.03   32.11
  -4  -7  -8  416.83   39.11
   4   7   9 1034.79   61.80
   4   7   9 1032.71   47.75
  -4  -7  -9 1152.97   64.63
   4   7  10   27.13   25.99
  -4  -7 -10    5.68   20.65
  -4  -7 -11   -3.46   18.97
  -4  -8   8   66.24   19.10
   4   8  -7  219.08   27.56
   4   8  -6 1347.29   51.27
   4   8  -6 1261.39   57.31
  -4  -8   6 1369.49   48.02
   4   8  -5  105.50   18.27
   4   8  -5  119.40   25.89
  -4  -8   5  171.83   26.34
   4   8  -4  564.85   30.06
   4   8  -4  500.89   41.83
  -4  -8   4  550.86   34.46
   4   8  -3  513.82   39.28
  -4  -8   3  495.46   35.84
   4   8  -2 1674.90   62.78
  -4  -8   2 1705.57   59.38
   4   8  -1  105.61   17.47
  -4  -8   1   81.23   22.82
   4   8   0 5322.12  143.20
  -4  -8   0 5216.70  140.06
   4   8   1  810.07   39.67
  -4  -8  -1  855.69   49.62
   4   8   2  178.89   23.05
  -4  -8  -2  141.88   23.05
   4   8   3    3.46   16.16
  -4  -8  -3    8.64   27.42
   4   8   4  326.26   32.60
  -4  -8  -4  334.54   48.34
   4   8   5 1190.60   59.33
  -4  -8  -5 1089.56   60.53
   4   8   6  211.40   27.09
  -4  -8  -6  189.81   38.66
   4   8   7  222.72   29.92
  -4  -8  -7  310.62   41.25
   4   8   8   -0.95   16.21
  -4  -8  -8   20.73   23.81
   4   8   9   24.85   20.60
  -4  -8  -9   27.11   25.17
   4   8  10  138.96   27.99
  -4  -8 -10  179.43   39.12
   4   9  -7  -24.83   18.46
   4   9  -6  144.80   29.70
  -4  -9   6  120.72   27.07
   4   9  -5   11.15   16.23
  -4  -9   5   30.00   16.49
   4   9  -4  152.80   27.55
  -4  -9   4  200.26   29.32
   4   9  -3  480.03   42.98
  -4  -9   3  413.23   40.84
   4   9  -2   51.16   24.51
  -4  -9   2   67.85   20.33
   4   9  -1  354.02   35.63
  -4  -9   1  362.81   35.73
   4   9   0  953.56   51.18
  -4  -9   0 1101.32   62.33
   4   9   1   25.14   16.66
  -4  -9  -1   -4.21   21.83
   4   9   2   56.50   19.59
  -4  -9  -2   10.98   22.97
   4   9   3  961.11   56.56
  -4  -9  -3  968.73   66.09
   4   9   4  502.71   38.89
  -4  -9  -4  440.09   40.42
   4   9   5   28.07   18.81
  -4  -9  -5   20.55   27.12
   4   9   6  364.97   40.08
  -4  -9  -6  362.16   45.67
   4   9   7   89.94   29.50
  -4  -9  -7  106.06   34.91
   4   9   8  189.79   29.94
  -4  -9  -8  196.96   38.97
   4   9   9  187.99   31.58
  -4  -9  -9  161.46   40.04
   4  10  -6  100.73   27.95
  -4 -10   6   77.55   23.96
   4  10  -5    6.39   17.78
  -4 -10   5   41.67   28.19
   4  10  -4  771.94   47.08
  -4 -10   4  821.55   49.08
   4  10  -3  823.44   45.80
  -4 -10   3  828.02   45.05
   4  10  -2  977.37   66.96
  -4 -10   2  985.16   64.59
   4  10  -1  357.99   38.04
  -4 -10   1  338.09   33.47
   4  10   0  808.40   63.10
  -4 -10   0  829.42   67.88
   4  10   1   79.74   24.15
  -4 -10  -1   88.18   27.88
   4  10   2  501.98   37.34
  -4 -10  -2  484.87   46.59
   4  10   3  256.83   37.38
  -4 -10  -3  334.62   48.80
   4  10   4 1075.86   70.53
  -4 -10  -4 1094.71   80.27
   4  10   5  278.37   31.21
  -4 -10  -5  269.97   38.26
   4  10   6  293.65   34.44
  -4 -10  -6  248.82   42.90
   4  10   7  156.39   30.54
  -4 -10  -7  139.31   46.25
   4  10   8   49.80   22.01
  -4 -10  -8   12.43   24.68
   4  11  -5    8.11   18.45
  -4 -11   5   -0.68   19.39
   4  11  -4 1067.02   56.27
  -4 -11   4 1124.15   61.59
   4  11  -3   19.53   20.26
  -4 -11   3   33.40   31.77
   4  11  -2  937.52   56.75
  -4 -11   2  801.87   49.28
   4  11  -1  506.29   48.36
  -4 -11   1  461.45   45.84
   4  11   0  692.92   52.72
  -4 -11   0  782.66   60.90
   4  11   1   30.44   21.11
  -4 -11  -1   26.31   24.80
   4  11   2   16.71   20.94
  -4 -11  -2   59.38   27.31
   4  11   3  289.76   42.36
  -4 -11  -3  279.54   45.58
   4  11   4  207.18   35.98
  -4 -11  -4  276.90   52.87
   4  11   5   31.48   23.68
  -4 -11  -5   80.33   27.19
   4  11   6   -3.26   20.90
  -4 -11  -6    3.25   25.43
   4  12  -2   28.78   21.81
  -4 -12   2   58.25   33.80
   4  12  -1  499.51   46.30
  -4 -12   1  496.35   48.07
   4  12   0   23.15   25.03
  -4 -12   0   22.28   24.61
   4  12   1  182.75   33.80
  -4 -12  -1  185.09   38.70
   4  12   2   28.31   23.83
  -4 -12  -2   37.54   28.90
   4  12   3   -6.79   21.99
  -4 -12  -3  -14.64   23.57
   5  -7   0    6.16   18.52
   5  -7   0   28.46   13.92
  -5   7   0   28.18   17.02
   5  -7   1  667.81   50.57
   5  -7   2  645.38   47.86
  -5   7  -2  699.56   48.17
   5  -7   3  733.96   60.99
  -5   7  -3  749.01   50.00
   5  -7   4   18.95   21.35
  -5   7  -4  -11.83   17.52
   5  -7   5  171.53   30.65
  -5   7  -5  195.49   31.36
   5  -7   6   -1.16   19.42
  -5   7  -6    4.52   17.66
   5  -6  -3  477.13   42.85
  -5   6   3  513.32   50.56
   5  -6  -2    8.02   19.83
  -5   6   2   76.80   28.42
   5  -6  -1  534.81   50.49
  -5   6   1  515.13   52.17
   5  -6   0  781.49   45.86
  -5   6   0  745.92   45.73
   5  -6   1  119.87   25.97
  -5   6  -1  138.41   27.61
  -5   6  -1  120.64   22.72
   5  -6   2  434.40   35.22
  -5   6  -2  521.69   38.77
  -5   6  -2  474.50   33.51
   5  -6   3   -1.89   21.36
  -5   6  -3   -7.93   16.62
   5  -6   4    7.83   21.55
  -5   6  -4   22.77   15.92
   5  -6   5  271.49   38.44
  -5   6  -5  209.93   30.55
   5  -6   6  404.69   36.54
  -5   6  -6  409.58   48.21
   5  -6   7   17.92   22.32
  -5   6  -7   -1.52   19.78
   5  -6   8   20.41   23.60
  -5   6  -8   19.19   20.68
   5  -5  -4  100.20   22.23
  -5   5   4  173.70   39.78
   5  -5  -3  614.11   59.77
  -5   5   3  637.06   66.48
   5  -5  -2  293.58   35.62
  -5   5   2  284.99   37.94
   5  -5  -1  464.52   37.65
   5  -5  -1  457.76   31.61
  -5   5   1  477.39   35.93
   5  -5   0  624.72   48.36
  -5   5   0  675.86   46.26
  -5   5   0  687.80   52.63
   5  -5   1  365.96   35.29
  -5   5  -1  402.50   32.76
  -5   5  -1  405.51   32.08
   5  -5   2  927.19   67.92
  -5   5  -2  900.05   65.96
  -5   5  -2  876.06   60.85
   5  -5   3  109.36   29.34
  -5   5  -3   87.56   22.46
  -5   5  -3   84.96   15.72
   5  -5   4  529.21   39.35
  -5   5  -4  590.54   43.21
   5  -5   5   44.71   27.84
  -5   5  -5    5.21   16.49
   5  -5   6  223.74   37.00
  -5   5  -6  166.85   34.22
   5  -5   7  283.88   33.01
  -5   5  -7  251.46   35.16
   5  -5   8   57.51   27.93
  -5   5  -8   89.58   31.02
   5  -5   9  161.60   37.97
  -5   5  -9  120.99   31.57
   5  -5  10  152.57   27.28
   5  -4  -5   91.50   27.17
  -5   4   5   69.91   30.63
   5  -4  -4  544.29   48.10
  -5   4   4  413.35   52.56
   5  -4  -3  192.54   36.20
  -5   4   3  103.94   36.32
   5  -4  -2 1193.29   64.61
  -5   4   2 1197.70   61.92
   5  -4  -1   41.90   24.15
  -5   4   1   60.06   15.49
  -5   4   1   11.09   18.26
   5  -4   0 1668.14   56.89
  -5   4   0 1715.34   50.13
  -5   4   0 1638.84   54.80
   5  -4   1  344.15   36.43
  -5   4  -1  296.11   26.63
  -5   4  -1  256.70   28.14
   5  -4   2  -45.85   17.60
  -5   4  -2   12.69   13.66
  -5   4  -2   23.92   15.22
   5  -4   3   27.12   18.79
  -5   4  -3   24.53   19.23
  -5   4  -3    5.28    7.94
   5  -4   4   26.58   21.05
  -5   4  -4   -8.17   15.10
   5  -4   5    1.03   20.06
  -5   4  -5   -2.58   16.10
   5  -4   6  -18.03   21.92
  -5   4  -6   23.31   16.88
   5  -4   7  584.30   47.44
  -5   4  -7  626.28   45.23
   5  -4   8  975.78   65.91
  -5   4  -8  941.00   68.36
   5  -4   9  165.14   30.64
  -5   4  -9  142.87   31.71
   5  -4  10  827.44   67.06
  -5   4 -10  841.17   66.62
   5  -3  -6  856.12   62.97
  -5   3   6  741.30   62.92
   5  -3  -5    8.75   19.01
  -5   3   5  -37.10   31.54
   5  -3  -4  305.43   32.09
  -5   3   4  389.74   59.41
   5  -3  -3   -1.19   18.88
  -5   3   3   34.94   24.85
   5  -3  -2    4.69   19.29
  -5   3   2  -16.24   24.66
   5  -3  -1 6979.45  235.47
  -5   3   1 6993.94  224.49
  -5   3   1 6598.24  223.77
   5  -3   0 1147.23   53.53
  -5   3   0 1120.34   42.10
  -5   3   0 1054.25   49.59
   5  -3   1 1462.21   57.24
  -5   3  -1 1380.52   46.05
  -5   3  -1 1438.35   48.14
   5  -3   2 6211.92  132.39
  -5   3  -2 6518.15  131.72
  -5   3  -2 6270.33  118.55
   5  -3   3  114.90   21.67
  -5   3  -3   83.58   18.41
  -5   3  -3  125.54   13.80
   5  -3   4  783.64   45.24
  -5   3  -4  826.82   42.82
   5  -3   5  558.42   42.51
  -5   3  -5  578.29   37.66
   5  -3   6 1842.04   79.36
  -5   3  -6 1995.98   85.85
   5  -3   7  348.60   40.89
  -5   3  -7  347.67   37.19
   5  -3   8 1582.38  102.08
  -5   3  -8 1645.99  106.71
   5  -3   9  100.12   31.22
  -5   3  -9  107.97   27.34
   5  -3  10   43.08   27.14
  -5   3 -10   44.13   22.24
   5  -3  11  550.27  108.33
  -5   3 -11  616.89   50.16
   5  -2  -7  208.99   40.46
  -5   2   7  124.87   44.29
   5  -2  -6  123.54   35.08
  -5   2   6  105.34   47.41
   5  -2  -5  503.80   48.30
  -5   2   5  461.99   52.97
   5  -2  -4  -12.91   19.09
  -5   2   4   31.88   28.39
   5  -2  -3  393.22   36.13
  -5   2   3  555.84   61.61
   5  -2  -2  852.83   46.79
  -5   2   2  810.93   50.56
   5  -2  -1 2651.16   80.22
  -5   2   1 2647.81   60.92
  -5   2   1 2515.43   80.79
   5  -2   0 1337.97   61.44
  -5   2   0 1418.77   50.20
  -5   2   0 1344.75   55.36
   5  -2   1  600.98   41.39
  -5   2  -1  532.64   29.29
  -5   2  -1  619.83   34.49
   5  -2   2 2788.62   75.67
  -5   2  -2 2923.02   69.87
  -5   2  -2 2960.80   62.65
   5  -2   3  234.69   31.31
  -5   2  -3  225.39   25.53
  -5   2  -3  195.51   14.54
   5  -2   4 1190.41   53.01
  -5   2  -4 1221.56   47.92
   5  -2   5  106.52   34.28
  -5   2  -5    1.43   15.49
   5  -2   6 4651.75  110.64
  -5   2  -6 4620.06  108.41
   5  -2   7  -21.48   23.29
  -5   2  -7   16.85   19.19
   5  -2   8  317.71   38.21
  -5   2  -8  271.52   30.39
   5  -2   9 1944.98  140.19
  -5   2  -9 2197.89   75.40
   5  -2  10   -7.30   26.20
  -5   2 -10    7.74   18.48
   5  -2  11  983.87  168.02
  -5   2 -11 1269.35   94.26
   5  -2  12   40.86   22.66
  -5   2 -12   17.54   19.43
   5  -1  -7  233.97   35.52
  -5   1   7  172.24   49.76
   5  -1  -6  620.71   59.78
  -5   1   6  652.49   63.55
   5  -1  -5  666.89   48.65
  -5   1   5  617.93   55.13
   5  -1  -4   88.43   31.18
  -5   1   4   90.98   36.97
   5  -1  -3  146.46   27.74
  -5   1   3  177.40   33.76
   5  -1  -2 1027.88   48.68
  -5   1   2 1057.24   54.94
   5  -1  -1   32.71   32.93
  -5   1   1   21.47   11.68
  -5   1   1   60.06   25.01
   5  -1   0 1734.41   55.81
  -5   1   0 1759.89   41.69
  -5   1   0 1748.62   57.83
   5  -1   1   51.11   34.04
  -5   1  -1   27.70   19.80
  -5   1  -1   48.11   24.35
   5  -1   2  878.72   45.11
  -5   1  -2  873.35   34.82
  -5   1  -2  873.75   32.81
   5  -1   3  160.11   31.96
  -5   1  -3  120.59   20.19
  -5   1  -3  118.80   14.39
   5  -1   4  526.21   42.41
  -5   1  -4  455.92   33.65
   5  -1   5   50.03   26.97
  -5   1  -5   84.79   22.44
   5  -1   6  128.80   28.97
  -5   1  -6  127.31   24.92
   5  -1   7 3373.07   93.29
  -5   1  -7 3460.71   90.28
   5  -1   8  258.59   48.06
  -5   1  -8  289.71   35.02
   5  -1   9   -4.53   18.63
  -5   1  -9   31.47   19.44
   5  -1  10  279.66   59.28
  -5   1 -10  273.61   39.00
   5  -1  11   70.68   30.36
   5  -1  12   94.00   18.02
  -5   1 -12  119.98   33.13
   5   0  -8  233.58   41.09
  -5   0   8  226.88   47.07
   5   0  -7  151.80   33.49
  -5   0   7  138.48   47.82
   5   0  -6  -22.84   18.98
  -5   0   6   -1.98   30.40
   5   0  -5   16.42   17.32
  -5   0   5   23.38   27.79
   5   0  -4   50.04   17.22
  -5   0   4   63.51   24.83
   5   0  -3   60.20   30.35
  -5   0   3  109.14   35.77
   5   0  -2  821.91   44.08
  -5   0   2  749.29   40.25
   5   0  -1  953.57   44.81
  -5   0   1  935.88   25.67
  -5   0   1  991.42   41.71
   5   0   0  383.76   35.68
  -5   0   0  318.75   22.24
  -5   0   0  292.12   25.43
   5   0   1 5955.78  103.84
  -5   0  -1 5792.18   82.68
  -5   0  -1 5780.73   83.18
   5   0   2 1162.57   50.10
  -5   0  -2 1162.77   40.30
  -5   0  -2 1157.76   32.12
   5   0   3  223.04   29.50
  -5   0  -3  211.86   25.97
  -5   0  -3  222.73   15.34
   5   0   4   23.67   25.19
  -5   0  -4   26.27   16.04
   5   0   5  276.47   31.46
  -5   0  -5  300.61   28.17
   5   0   6 1458.59   56.28
  -5   0  -6 1425.56   54.03
   5   0   7 3637.62  112.11
  -5   0  -7 3342.26  101.19
   5   0   8   -8.70   21.02
  -5   0  -8   64.90   34.67
   5   0   9 1696.25  178.89
  -5   0  -9 1719.11   63.33
   5   0  10 2119.22  122.91
  -5   0 -10 2250.88   78.70
   5   0  11  319.52   65.14
  -5   0 -11  358.36   38.25
   5   0  12  270.69   52.51
  -5   0 -12  212.49   37.50
   5   1  -8  517.01   50.91
  -5  -1   8  490.91   52.50
   5   1  -7   49.83   31.51
  -5  -1   7   70.08   43.70
   5   1  -6    4.13   19.45
  -5  -1   6   28.97   26.21
   5   1  -5 1699.05   64.81
  -5  -1   5 1649.93   63.46
   5   1  -4 1407.77   58.83
  -5  -1   4 1442.58   59.70
   5   1  -3    1.32   19.03
  -5  -1   3   16.28   12.96
   5   1  -2   51.63   27.91
  -5  -1   2   38.69    8.93
  -5  -1   2   49.82    9.51
   5   1  -110821.47  135.33
  -5  -1   110933.40   76.70
  -5  -1   110741.37  193.54
   5   1   0 1609.28   50.55
  -5  -1   0 1667.32   37.92
  -5  -1   0 1604.15   43.17
   5   1   1 2361.30   67.09
  -5  -1  -1 2295.11   52.18
  -5  -1  -1 2275.27   61.22
   5   1   2 2321.49   60.49
  -5  -1  -2 2403.75   56.46
  -5  -1  -2 2439.67   83.47
   5   1   3   12.63   23.47
  -5  -1  -3    9.60   17.19
  -5  -1  -3    3.75    4.67
   5   1   4  706.73   34.81
  -5  -1  -4  715.13   34.63
  -5  -1  -4  619.67   29.41
   5   1   5  964.74   44.65
  -5  -1  -5  886.70   38.89
   5   1   6 6748.89  106.24
  -5  -1  -6 6658.20  106.28
   5   1   7 2413.93  113.60
  -5  -1  -7 2740.10   88.76
   5   1   8 1824.85  103.91
  -5  -1  -8 1855.90   67.61
   5   1   9  518.37   39.87
  -5  -1  -9  538.29   40.59
   5   1  10  611.65  125.62
  -5  -1 -10  585.10   44.50
   5   1  11  797.87   71.45
  -5  -1 -11  788.15   51.02
   5   1  12    7.84   10.00
  -5  -1 -12   -4.39   18.08
   5   2  -8  149.92   35.06
  -5  -2   8  164.16   42.59
   5   2  -7  800.02   60.11
  -5  -2   7  722.37   63.58
   5   2  -6  127.27   27.49
  -5  -2   6   59.67   28.03
   5   2  -5 1020.53   58.20
  -5  -2   5 1042.51  169.75
   5   2  -4  872.63   48.03
  -5  -2   4  919.76  121.14
   5   2  -3  417.93   35.45
  -5  -2   3  429.39   61.83
   5   2  -2  213.70   26.88
  -5  -2   2  198.38   12.36
  -5  -2   2  233.22   36.62
   5   2  -1 9819.81  132.76
  -5  -2   1 9665.13  107.45
  -5  -2   1 9507.88  234.03
   5   2   0 3048.72   68.03
  -5  -2   0 3218.03   56.39
  -5  -2   0 3158.09   65.71
   5   2   1  386.33   29.50
  -5  -2  -1  396.32   26.61
  -5  -2  -1  353.74   47.83
   5   2   2 3570.90   73.95
  -5  -2  -2 3715.77   71.91
  -5  -2  -2 3515.38   66.90
   5   2   3   94.77   21.74
  -5  -2  -3   67.49   21.41
   5   2   4 2051.88   57.54
   5   2   4 2106.38   37.62
  -5  -2  -4 2157.78   59.53
   5   2   5 1704.54   51.55
   5   2   5 1757.77   28.43
  -5  -2  -5 1754.63   53.58
   5   2   6 1141.55   45.92
  -5  -2  -6 1143.67   52.03
   5   2   7  976.33  107.55
  -5  -2  -7  874.59   42.71
   5   2   8   95.61   17.62
  -5  -2  -8   84.07   19.64
   5   2   9  229.75   36.35
  -5  -2  -9  180.83   28.31
   5   2  10   86.41   21.99
  -5  -2 -10   47.27   19.20
   5   2  11   40.89   17.63
  -5  -2 -11   47.39   26.41
   5   2  12  191.13   41.04
  -5  -2 -12  204.77   31.29
   5   3  -8    0.79   17.07
  -5  -3   8    4.79   16.43
   5   3  -7   87.74   29.74
  -5  -3   7   14.45   22.83
   5   3  -6 1082.13   80.26
  -5  -3   6 1065.37  165.92
   5   3  -5  916.49   52.12
  -5  -3   5  856.89  151.66
   5   3  -4   52.46   18.36
  -5  -3   4   39.41   18.99
   5   3  -3 2206.79   67.24
  -5  -3   3 2000.36   95.72
   5   3  -2  807.48   36.83
  -5  -3   2  776.33   24.05
  -5  -3   2  716.80   34.51
   5   3  -1  383.58   30.21
  -5  -3   1  445.17   24.75
  -5  -3   1  418.19   52.63
   5   3   0 4645.74   84.03
  -5  -3   0 4841.12   81.12
   5   3   1 3932.94   79.31
   5   3   1 3831.92   69.65
  -5  -3  -1 3861.70   73.07
   5   3   2 2097.00   53.15
   5   3   2 2144.00   45.95
  -5  -3  -2 2259.92   60.64
   5   3   3  672.17   35.29
   5   3   3  666.01   23.92
  -5  -3  -3  721.44   36.24
   5   3   4   70.90   20.27
   5   3   4   86.16   12.22
  -5  -3  -4   96.68   26.71
   5   3   5  413.72   31.38
   5   3   5  397.34   17.20
  -5  -3  -5  432.58   36.59
   5   3   6 2000.71   55.54
   5   3   6 1991.94   34.93
  -5  -3  -6 1967.53   64.00
   5   3   7   52.73   17.90
   5   3   7   38.54    9.28
  -5  -3  -7   46.63   25.39
   5   3   8   -5.36   15.96
  -5  -3  -8    1.18   21.39
   5   3   9 1126.45  100.59
  -5  -3  -9 1187.14   61.35
   5   3  10  104.24   24.12
  -5  -3 -10   91.21   27.45
   5   3  11   43.71   18.18
  -5  -3 -11   15.38   19.60
   5   3  12  181.27   34.30
  -5  -3 -12  172.44   29.79
   5   4  -8  265.97   35.85
  -5  -4   8  270.93   47.14
   5   4  -7   47.28   24.23
  -5  -4   7   25.42    8.69
   5   4  -6  274.21   30.19
  -5  -4   6  343.81   47.10
   5   4  -5  608.67   45.63
  -5  -4   5  577.51  109.33
   5   4  -4  230.80   23.31
  -5  -4   4  280.22   47.08
   5   4  -3    8.85   13.85
  -5  -4   3   31.15   16.05
  -5  -4   3  -15.86   15.53
   5   4  -2  422.78   26.34
  -5  -4   2  385.97   22.34
  -5  -4   2  389.18   25.71
   5   4  -1 2580.56   57.01
   5   4  -1 2528.99   60.94
  -5  -4   1 2547.21   54.80
   5   4   0 1893.85   50.11
   5   4   0 1875.48   49.60
  -5  -4   0 1880.83   49.57
   5   4   1 9868.41  137.72
   5   4   110020.78  139.05
  -5  -4  -1 9987.52  146.02
   5   4   2  200.82   24.80
   5   4   2  152.38   15.85
  -5  -4  -2  142.16   30.27
   5   4   3  891.83   35.95
   5   4   3  862.25   27.66
  -5  -4  -3  873.64   50.79
   5   4   4   14.70   13.69
   5   4   4   43.84   11.72
   5   4   5   73.64   21.11
   5   4   5   62.35   12.02
  -5  -4  -5   38.28   26.95
   5   4   6 2996.67   69.78
   5   4   6 3092.46   59.63
  -5  -4  -6 3085.27   84.70
   5   4   7 2858.72  145.57
   5   4   7 2881.53   75.98
  -5  -4  -7 2904.10   94.81
   5   4   8  193.56   32.92
   5   4   8  193.60   17.27
  -5  -4  -8  187.18   31.75
   5   4   9  151.03   27.51
  -5  -4  -9  282.15   41.23
   5   4  10  319.11   52.02
  -5  -4 -10  304.52   40.70
   5   4  11  347.04   75.24
  -5  -4 -11  404.24   38.97
   5   4  12   81.23   14.12
  -5  -4 -12   20.57   21.01
   5   5  -8  661.84   55.50
  -5  -5   8  505.02   82.51
   5   5  -7   62.81   22.65
  -5  -5   7   72.08   18.84
   5   5  -6   24.00   14.97
  -5  -5   6   30.56   19.92
   5   5  -5   61.31   18.05
  -5  -5   5   59.49   16.47
   5   5  -4    8.05   15.70
  -5  -5   4   -0.62   16.50
   5   5  -3 3296.57   95.73
   5   5  -3 3270.30   99.26
  -5  -5   3 3242.16   85.52
   5   5  -2 1336.55   47.89
   5   5  -2 1218.98   46.07
  -5  -5   2 1231.37   43.76
   5   5  -1 5677.46   82.70
   5   5  -1 5620.55   89.10
  -5  -5   1 5706.20   82.45
   5   5   0 2873.27   55.13
   5   5   0 2977.43   64.54
  -5  -5   0 2885.19   65.01
   5   5   1 4371.15   69.03
   5   5   1 4335.34   75.64
  -5  -5  -1 4358.55   81.65
   5   5   2 1081.82   33.87
   5   5   2  985.06   35.13
  -5  -5  -2 1093.09   45.70
   5   5   3 1345.94   39.79
   5   5   3 1337.26   40.27
  -5  -5  -3 1359.41   56.90
   5   5   4  652.50   29.48
   5   5   4  665.06   27.61
  -5  -5  -4  675.01   40.05
   5   5   5   50.05   15.31
   5   5   5   68.77   14.32
  -5  -5  -5   75.89   23.74
   5   5   6  767.18   37.37
   5   5   6  675.97   30.33
  -5  -5  -6  715.61   51.24
   5   5   7    1.11    8.13
   5   5   7    5.15   10.03
  -5  -5  -7   11.46   27.33
   5   5   8  409.45   67.55
   5   5   8  388.92   27.27
  -5  -5  -8  427.02   39.99
   5   5   9  280.98   46.91
   5   5   9  280.42   23.82
  -5  -5  -9  292.41   42.37
   5   5  10    8.45    5.67
  -5  -5 -10  -15.83   20.08
   5   5  11  490.19  126.50
  -5  -5 -11  662.23   59.97
   5   5  12  -10.75   17.26
  -5  -5 -12    8.00   19.30
   5   6  -8  110.43   32.38
  -5  -6   8   97.10   25.88
   5   6  -7   39.73   24.72
  -5  -6   7   40.77   20.60
   5   6  -6    5.80   14.92
  -5  -6   6   19.95   12.23
   5   6  -5  489.69   43.35
  -5  -6   5  453.26   91.16
   5   6  -4  222.11   23.70
   5   6  -4  263.35   34.51
  -5  -6   4  210.88   20.65
   5   6  -3 5504.49  110.21
   5   6  -3 5694.46  126.41
  -5  -6   3 5767.64  112.46
   5   6  -2  -10.27    9.05
   5   6  -2    7.13   16.50
  -5  -6   2   23.31   16.20
   5   6  -1 1407.54   42.48
   5   6  -1 1391.47   53.14
  -5  -6   1 1510.18   54.05
   5   6   0 4493.99   64.57
   5   6   0 4781.00   85.05
  -5  -6   0 4639.96   84.03
   5   6   1 3479.84   56.38
   5   6   1 3523.83   70.04
  -5  -6  -1 3495.24   74.92
   5   6   2  391.75   19.86
   5   6   2  413.64   27.25
  -5  -6  -2  400.65   35.48
   5   6   3  115.05   14.91
   5   6   3  146.13   19.15
  -5  -6  -3  102.86   32.85
   5   6   4  411.80   25.02
   5   6   4  449.06   30.46
  -5  -6  -4  358.28   44.57
   5   6   5   44.87   17.43
   5   6   5   45.34   18.70
  -5  -6  -5  163.99   45.77
   5   6   6  121.59   17.97
   5   6   6  145.70   17.23
  -5  -6  -6   95.63   25.71
   5   6   7   53.10   11.21
   5   6   7   55.47   14.44
  -5  -6  -7   30.54   29.97
   5   6   8  206.96   49.95
   5   6   8  237.87   23.21
  -5  -6  -8  204.02   37.30
   5   6   9 1403.08  118.14
   5   6   9 1627.57   85.73
  -5  -6  -9 1525.69   89.15
   5   6  10    3.06    8.77
  -5  -6 -10    3.09   21.45
   5   6  11   53.70   24.11
  -5  -6 -11   39.55   25.23
   5   7  -8   -9.70   15.74
  -5  -7   8   33.07   12.87
   5   7  -7  105.81   26.06
  -5  -7   7   35.27   18.80
   5   7  -6  691.52   42.41
  -5  -7   6  569.79  107.11
   5   7  -5   10.63   15.76
   5   7  -5   36.59   19.67
   5   7  -4  498.75   34.62
   5   7  -4  457.49   35.35
  -5  -7   4  501.40   30.68
   5   7  -3   72.50   16.40
   5   7  -3   19.45   18.85
  -5  -7   3   48.07   23.21
   5   7  -2 3206.21   71.60
   5   7  -2 3359.95   87.45
  -5  -7   2 3232.72   79.40
   5   7  -1 4142.14  103.47
   5   7  -1 4353.96  122.05
  -5  -7   1 4203.31  116.58
   5   7   0   22.48    8.46
   5   7   0   33.46   18.92
  -5  -7   0   43.89   22.39
   5   7   1 1102.93   32.73
   5   7   1 1045.47   43.45
  -5  -7  -1 1061.19   47.24
   5   7   2  149.17   14.40
   5   7   2  121.99   20.07
  -5  -7  -2  153.38   33.01
   5   7   3   45.98   11.12
   5   7   3   27.49   14.76
  -5  -7  -3   33.63   36.84
   5   7   4   30.07   11.20
   5   7   4   19.31   15.70
  -5  -7  -4   22.54   29.35
   5   7   5  129.22   17.04
   5   7   5  116.05   19.32
  -5  -7  -5  103.67   24.46
   5   7   6   42.24   15.33
   5   7   6   50.29   14.55
  -5  -7  -6   36.62   27.02
   5   7   7    8.51    6.92
   5   7   7   26.25   13.40
  -5  -7  -7   17.44   28.66
   5   7   8 1255.10  108.00
   5   7   8 1508.86   55.54
  -5  -7  -8 1521.55   72.47
   5   7   9 1127.03   99.51
   5   7   9 1467.81   53.79
  -5  -7  -9 1290.16   60.35
   5   7  10   95.79   22.43
  -5  -7 -10  131.86   35.00
  -5  -8   7  154.58   31.50
   5   8  -6  839.94   43.96
   5   8  -5  222.97   24.86
   5   8  -5  230.98   33.98
  -5  -8   5  240.22   26.46
   5   8  -4  528.36   28.66
   5   8  -4  617.10   43.31
  -5  -8   4  586.94   33.09
   5   8  -3  414.87   27.19
   5   8  -3  476.64   38.88
  -5  -8   3  392.34   31.13
   5   8  -2  811.39   49.44
  -5  -8   2  805.07   48.52
   5   8  -1  627.23   37.53
  -5  -8   1  721.81   44.40
   5   8   0  189.37   30.60
  -5  -8   0  186.62   27.37
   5   8   1   23.58   22.78
  -5  -8  -1  -15.51   23.14
   5   8   2  345.79   31.54
  -5  -8  -2  301.76   34.33
   5   8   3  156.30   23.33
  -5  -8  -3  167.96   33.38
   5   8   4 2457.03   70.13
  -5  -8  -4 2370.46   82.45
   5   8   5 1058.36   53.55
  -5  -8  -5 1155.38   73.71
   5   8   6    7.00   13.92
  -5  -8  -6    2.15   29.36
   5   8   7   19.74   16.36
  -5  -8  -7   24.20   27.76
   5   8   8 1899.01   65.45
  -5  -8  -8 1792.61   68.55
   5   8   9   21.64   18.51
  -5  -8  -9   -3.37   24.10
   5   8  10  128.11   26.57
  -5  -8 -10   38.58   23.79
   5   9  -6  658.35   54.58
   5   9  -5   54.21   27.41
  -5  -9   5  172.64   31.73
   5   9  -4   21.49   20.53
  -5  -9   4   15.40   17.06
   5   9  -3  464.41   45.10
  -5  -9   3  471.94   43.14
   5   9  -2   60.37   25.54
  -5  -9   2  119.38   28.58
   5   9  -1   99.62   25.37
  -5  -9   1  137.83   31.89
   5   9   0   92.46   24.08
  -5  -9   0   76.82   30.18
   5   9   1  236.87   28.85
  -5  -9  -1  243.52   35.62
   5   9   2 1241.43   51.96
  -5  -9  -2 1311.21   59.83
   5   9   3   14.63   18.70
  -5  -9  -3   20.36   39.48
   5   9   4  981.48   70.70
  -5  -9  -4 1032.30   81.22
   5   9   5  112.16   26.22
  -5  -9  -5  147.71   46.26
   5   9   6  307.34   37.37
  -5  -9  -6  261.21   40.52
   5   9   7   86.53   22.21
  -5  -9  -7  114.59   29.05
   5   9   8  177.28   27.93
  -5  -9  -8  171.37   51.20
   5   9   9   57.25   20.87
  -5  -9  -9   48.16   39.86
   5  10  -5  225.53   33.30
  -5 -10   5  278.88   30.05
   5  10  -4  904.94   73.75
  -5 -10   4  725.40   58.98
   5  10  -3  822.67   58.97
  -5 -10   3  786.24   51.68
   5  10  -2  630.24   44.42
  -5 -10   2  624.01   43.15
   5  10  -1   36.56   21.57
  -5 -10   1    6.08   22.81
   5  10   0  410.04   41.35
  -5 -10   0  316.28   39.37
   5  10   1  498.99   42.63
  -5 -10  -1  542.42   46.03
   5  10   2  415.10   35.39
  -5 -10  -2  312.99   40.23
   5  10   3  344.10   40.00
  -5 -10  -3  284.39   44.51
   5  10   4   47.32   17.30
  -5 -10  -4   20.50   30.09
   5  10   5  390.40   36.04
  -5 -10  -5  326.16   46.19
   5  10   6   92.87   26.51
  -5 -10  -6  143.48   38.12
   5  10   7  178.30   30.41
  -5 -10  -7  140.80   50.26
   5  10   8  280.93   38.75
  -5 -10  -8  168.77   41.85
   5  11  -4  142.40   30.88
  -5 -11   4  162.82   33.34
   5  11  -3  117.84   29.20
  -5 -11   3   79.76   27.89
   5  11  -2  398.48   47.04
  -5 -11   2  431.55   50.80
   5  11  -1  391.45   39.29
  -5 -11   1  331.29   42.97
   5  11   0   10.24   19.83
  -5 -11   0   21.66   22.92
   5  11   1  701.76   53.14
  -5 -11  -1  727.04   61.69
   5  11   2  112.59   32.66
  -5 -11  -2  109.57   29.52
   5  11   3  449.59   43.61
  -5 -11  -3  443.09   47.67
   5  11   4   -2.26   16.65
  -5 -11  -4   15.75   32.21
   5  11   5  528.93   50.70
  -5 -11  -5  471.02   56.33
   5  11   6   45.10   29.40
  -5 -11  -6   17.70   32.14
   5  12  -1  240.02   44.09
  -5 -12   1  279.65   39.59
   5  12   0   34.26   21.40
  -5 -12   0   27.33   24.85
   5  12   1  867.14   67.17
  -5 -12  -1  883.38   72.85
   5  12   2  443.39   47.05
  -5 -12  -2  468.83   64.00
   5  12   3   33.06   20.87
  -5 -12  -3   50.32   27.24
   6  -6   1   26.72   21.11
  -6   6  -1   15.29   15.75
   6  -6   2  580.39   56.69
  -6   6  -2  582.63   52.58
   6  -6   3    4.84   20.95
  -6   6  -3   -2.26   16.84
  -6   6  -4  147.33   33.29
   6  -6   5   39.27   32.98
  -6   6  -5   21.88   18.86
   6  -6   6   39.42   31.87
  -6   6  -6    6.62   19.42
   6  -5  -2    6.59   21.14
  -6   5   2   53.96   28.47
   6  -5  -1   85.78   30.66
  -6   5   1   58.20   30.70
   6  -5   0 1297.98  395.07
  -6   5   0 1107.59   77.87
   6  -5   1   10.42   19.30
  -6   5  -1    2.02   14.36
  -6   5  -1    1.77   11.49
   6  -5   2   -5.80   18.47
  -6   5  -2    9.33   15.69
   6  -5   3  483.04   40.75
  -6   5  -3  556.67   40.40
   6  -5   4   25.08   22.58
  -6   5  -4  110.69   28.13
   6  -5   5  112.03   30.93
  -6   5  -5   47.30   28.50
   6  -5   6   -8.23   20.49
  -6   5  -6    1.94   16.29
   6  -5   7  488.42   46.62
  -6   5  -7  416.10   43.57
   6  -5   8   48.28   39.66
  -6   5  -8   12.69   20.45
   6  -4  -3   14.05   20.93
  -6   4   3   12.70   22.92
   6  -4  -2  836.52   71.23
  -6   4   2  804.95   71.34
   6  -4  -1  166.73   31.17
  -6   4   1  138.37   29.44
   6  -4   0  203.24   33.86
  -6   4   0  167.51   27.88
   6  -4   1  971.86   68.30
  -6   4  -1  919.90   56.34
  -6   4  -1  919.40   57.68
   6  -4   2  144.50   32.18
  -6   4  -2  137.55   27.48
  -6   4  -2  132.69   20.09
   6  -4   3  597.51   52.31
  -6   4  -3  584.78   47.88
   6  -4   4   89.17   34.95
  -6   4  -4   38.32   19.61
   6  -4   5  393.90   45.02
  -6   4  -5  461.70   42.66
   6  -4   6   90.12   27.45
  -6   4  -6   75.66   25.96
   6  -4   7  456.67   44.73
  -6   4  -7  441.10   42.95
   6  -4   8   15.52   22.67
  -6   4  -8    3.08   22.04
   6  -4   9    1.63   24.16
  -6   4  -9    4.48   20.78
   6  -3  -4   16.32   23.69
  -6   3   4  105.71   39.32
   6  -3  -3  690.36   53.63
  -6   3   3  565.47   51.62
   6  -3  -2  166.59   29.13
  -6   3   2  225.85   44.99
   6  -3  -1 1112.64   74.53
  -6   3   1 1143.81   76.17
   6  -3   0  245.97   39.25
  -6   3   0  283.42   27.01
  -6   3   0  271.69   27.97
   6  -3   1  213.34   36.20
  -6   3  -1  187.91   22.07
  -6   3  -1  114.36   24.62
   6  -3   2   53.61   32.75
  -6   3  -2   46.37   17.34
  -6   3  -2   63.42   17.03
   6  -3   3  145.76   26.15
  -6   3  -3  211.21   27.83
   6  -3   4 1575.81   61.37
  -6   3  -4 1672.57   58.37
   6  -3   5  462.03   50.50
  -6   3  -5  408.13   42.61
   6  -3   6   80.28   30.66
  -6   3  -6   30.58   22.31
   6  -3   7  636.46   55.77
  -6   3  -7  698.21   57.86
   6  -3   8  451.25   45.28
  -6   3  -8  575.29   49.69
  -6   3  -9  115.54   32.68
   6  -3  10  436.70   42.23
  -6   3 -10  531.82   48.86
   6  -2  -5  337.02   43.24
  -6   2   5  334.45   51.73
   6  -2  -4   35.91   25.74
  -6   2   4   43.49   38.71
   6  -2  -3   27.47   22.58
  -6   2   3   30.20   25.71
   6  -2  -2  100.57   30.74
  -6   2   2  120.89   35.89
   6  -2  -1  177.66   30.87
  -6   2   1  132.70   26.87
   6  -2   0   19.22   22.68
  -6   2   0   29.00   15.21
  -6   2   0   13.65   20.84
   6  -2   1   43.27   25.44
  -6   2  -1   30.83   12.81
  -6   2  -1   59.97   25.24
   6  -2   2  686.93   43.29
  -6   2  -2  692.39   35.38
  -6   2  -2  752.34   35.91
   6  -2   3 1543.73   65.53
  -6   2  -3 1694.75   61.31
   6  -2   4 2453.80  102.48
  -6   2  -4 2463.77   96.70
   6  -2   5  242.17   41.23
  -6   2  -5  209.99   26.96
   6  -2   6  119.28   31.65
  -6   2  -6  105.74   25.01
   6  -2   7  398.45   43.05
  -6   2  -7  428.26   43.34
   6  -2   8   31.29   25.94
  -6   2  -8   -2.14   20.36
   6  -2   9  719.98   54.83
  -6   2  -9  670.79   51.80
   6  -2  10   15.28   26.12
  -6   2 -10   -0.50   21.37
   6  -2  11  351.48   47.23
  -6   2 -11  312.69   46.83
   6  -1  -6  104.04   31.80
  -6   1   6  186.31   50.63
   6  -1  -5  141.01   42.47
  -6   1   5   81.27   34.70
   6  -1  -4    4.83   24.27
  -6   1   4  -10.50   26.98
   6  -1  -3   21.47   22.30
  -6   1   3   10.81   22.59
   6  -1  -2  134.81   33.88
  -6   1   2  126.63   31.24
   6  -1  -1  113.12   26.93
  -6   1   1  123.33   14.86
  -6   1   1  132.59   31.38
   6  -1   0 4589.22  114.75
  -6   1   0 4566.24   92.27
  -6   1   0 4439.95  103.73
   6  -1   1   24.25   23.59
  -6   1  -1   46.94   19.42
  -6   1  -1    6.66   17.06
   6  -1   2 1022.77   49.11
  -6   1  -2 1004.40   41.15
  -6   1  -2  995.02   43.11
   6  -1   3  445.01   36.38
  -6   1  -3  557.43   36.11
  -6   1  -3  504.34   25.44
   6  -1   4   34.69   25.39
  -6   1  -4  101.09   19.96
   6  -1   5 1743.46   65.93
  -6   1  -5 1860.63   65.04
   6  -1   6   10.09   25.97
  -6   1  -6    3.04   18.50
   6  -1   7 1113.73   57.47
  -6   1  -7 1009.09   51.37
   6  -1   8  161.47   35.67
  -6   1  -8  135.07   31.48
   6  -1   9  634.16   58.03
  -6   1  -9  640.72   52.24
   6  -1  10  336.41   49.69
  -6   1 -10  330.61   36.21
   6  -1  11   -7.36   23.85
  -6   1 -11  -19.23   20.28
   6   0  -6  212.79   40.60
  -6   0   6  327.37   45.79
   6   0  -5   17.28   22.33
  -6   0   5   -0.89   26.82
   6   0  -4   33.13   29.75
  -6   0   4   50.99   35.23
   6   0  -3   20.65   18.53
  -6   0   3   74.27   32.57
   6   0  -2  855.32   55.21
  -6   0   2  912.80   53.20
   6   0  -1   23.70   22.09
  -6   0   1   -8.42    7.71
  -6   0   1    3.75   21.96
   6   0   0 1242.43   54.74
  -6   0   0 1294.55   43.46
  -6   0   0 1198.66   45.84
   6   0   1 1650.44   64.31
  -6   0  -1 1670.96   56.14
  -6   0  -1 1694.01   61.38
   6   0   2   25.08   23.67
  -6   0  -2   24.88   15.60
  -6   0  -2   28.78   19.52
   6   0   3  705.75   42.89
  -6   0  -3  731.98   39.30
  -6   0  -3  807.92   32.86
   6   0   4  386.29   43.20
  -6   0  -4  340.79   32.23
   6   0   5 1735.47   71.34
  -6   0  -5 1961.69   70.86
   6   0   6 2218.32   71.27
  -6   0  -6 2371.88   72.06
   6   0   7 1610.22   65.85
  -6   0  -7 1696.77   63.63
   6   0   8  708.62   46.34
  -6   0  -8  662.74   42.93
   6   0   9  156.73   33.48
  -6   0  -9  194.74   32.44
   6   0  10  487.73   64.61
  -6   0 -10  599.03   45.86
   6   0  11  705.55  116.30
  -6   0 -11  819.01   72.49
   6   0  12   43.23   22.01
  -6   0 -12   75.73   28.51
   6   1  -7   80.03   32.28
  -6  -1   7   64.28   29.23
   6   1  -6   -5.00   24.45
  -6  -1   6   -4.56   28.58
   6   1  -5  -11.56   21.98
  -6  -1   5  -18.90   24.63
   6   1  -4   30.70   19.00
  -6  -1   4  -17.11   22.45
   6   1  -3   98.16   29.22
  -6  -1   3   75.50   31.87
   6   1  -2  321.14   32.57
  -6  -1   2  273.97   29.49
   6   1  -1 2171.87   71.42
  -6  -1   1 2141.54   52.52
  -6  -1   1 1984.50   85.43
   6   1   0 1353.17   60.74
  -6  -1   0 1371.91   46.35
  -6  -1   0 1330.82   83.54
   6   1   1 2291.83   67.42
  -6  -1  -1 2401.66   56.87
  -6  -1  -1 2257.65   54.28
   6   1   2 2440.68   72.48
  -6  -1  -2 2493.79   64.14
  -6  -1  -2 2314.43  132.79
   6   1   3 3572.26   86.26
  -6  -1  -3 3540.39   78.93
  -6  -1  -3 3637.96   63.66
   6   1   4  833.26   47.15
  -6  -1  -4  865.07   40.71
   6   1   5 2274.93   77.64
  -6  -1  -5 2490.79   81.65
   6   1   6  206.40   30.04
  -6  -1  -6  191.08   28.75
   6   1   7  235.95   36.40
  -6  -1  -7  220.82   28.18
   6   1   8   17.70   22.09
  -6  -1  -8   48.07   25.85
   6   1   9 1347.75   91.19
  -6  -1  -9 1227.54   84.77
   6   1  10   23.21   13.22
  -6  -1 -10   60.25   29.47
   6   1  11  687.63  129.36
  -6  -1 -11  851.17   60.61
   6   1  12   33.58   16.38
  -6  -1 -12   36.38   28.96
   6   2  -7  188.86   32.64
  -6  -2   7  135.47   41.05
   6   2  -6  473.38   51.11
  -6  -2   6  477.01   46.88
   6   2  -5  309.01   44.18
  -6  -2   5  298.14   56.85
   6   2  -4   73.94   26.94
  -6  -2   4   90.95   21.09
   6   2  -3 1223.24   64.84
  -6  -2   3 1351.92  152.57
   6   2  -2  723.20   46.03
  -6  -2   2  713.39   84.88
   6   2  -1 1968.52   71.48
  -6  -2   1 2012.36   57.23
  -6  -2   1 2013.03   75.69
   6   2   0 4054.67   92.33
  -6  -2   0 3994.60   74.36
  -6  -2   0 3997.03   99.07
   6   2   1   -0.46   22.92
  -6  -2  -1    9.38   14.46
  -6  -2  -1  -21.33   12.72
   6   2   2 2491.36   62.80
  -6  -2  -2 2567.08   59.08
  -6  -2  -2 2542.51   94.50
   6   2   3  324.63   37.59
  -6  -2  -3  199.98   24.63
  -6  -2  -3  215.78   26.31
   6   2   4  109.81   32.37
  -6  -2  -4  115.05   25.95
  -6  -2  -4   83.35   12.41
   6   2   5 7215.92  131.40
  -6  -2  -5 7112.14  130.47
   6   2   6  228.25   28.81
  -6  -2  -6  257.08   31.29
   6   2   7  -13.60   21.07
  -6  -2  -7  -12.42   20.42
   6   2   8  152.79   23.23
  -6  -2  -8  201.81   34.68
   6   2   9 2537.24  214.15
  -6  -2  -9 2801.33  167.08
   6   2  10   34.95   12.90
  -6  -2 -10   37.24   20.30
   6   2  11   23.68   17.36
  -6  -2 -11   10.78   22.35
   6   2  12  152.10   26.79
  -6  -2 -12  251.82   41.16
   6   3  -7   10.55   19.68
  -6  -3   7   24.79   30.83
   6   3  -6 1347.12   66.25
  -6  -3   6 1349.81  211.32
   6   3  -5 1553.35   91.18
  -6  -3   5 1463.91  126.37
   6   3  -4   13.27   18.23
  -6  -3   4    7.34   23.77
   6   3  -3  451.43   41.48
  -6  -3   3  418.05   78.71
   6   3  -2  666.59   41.48
  -6  -3   2  697.56  112.16
   6   3  -1  224.47   26.48
  -6  -3   1  216.32   17.82
  -6  -3   1  213.57   27.95
   6   3   0 1274.78   51.36
  -6  -3   0 1321.70   41.86
  -6  -3   0 1252.39   40.87
   6   3   1  490.51   34.33
  -6  -3  -1  516.39   33.02
  -6  -3  -1  475.00   64.91
   6   3   2  391.30   29.65
  -6  -3  -2  382.79   33.45
  -6  -3  -2  359.78   54.62
   6   3   3 2436.93   60.70
   6   3   3 2559.26   48.55
  -6  -3  -3 2581.87   63.02
   6   3   4  209.71   34.95
   6   3   4  127.20   13.80
  -6  -3  -4  184.45   28.11
   6   3   5    6.56   19.22
   6   3   5   -6.99    6.30
  -6  -3  -5    5.62   21.13
   6   3   6   67.84   24.33
  -6  -3  -6   32.43   24.71
   6   3   7  302.79   28.63
  -6  -3  -7  302.05   31.80
   6   3   8    3.39   18.95
  -6  -3  -8   27.86   23.74
   6   3   9 1024.83   74.38
  -6  -3  -9 1035.89   77.71
   6   3  10   86.40   18.04
  -6  -3 -10  128.41   30.94
   6   3  11   -8.27   18.97
  -6  -3 -11  -10.94   20.95
   6   3  12  246.04   40.36
  -6  -3 -12  235.80   36.29
   6   4  -7   24.68   29.04
  -6  -4   7  -10.66   25.50
   6   4  -6  580.06   46.63
  -6  -4   6  492.10   70.19
   6   4  -5   30.25   19.13
  -6  -4   5   27.80   16.62
   6   4  -4  100.32   24.00
  -6  -4   4  117.70   18.68
   6   4  -3   33.77   22.32
  -6  -4   3   33.08    9.57
   6   4  -2  516.48   38.50
  -6  -4   2  461.98   25.32
  -6  -4   2  478.87   72.82
   6   4  -1 1117.14   48.12
  -6  -4   1 1095.27   41.61
  -6  -4   1 1094.48  121.74
   6   4   0  162.86   27.22
  -6  -4   0  158.70   19.61
   6   4   1 1418.62   51.83
   6   4   1 1342.52   47.59
  -6  -4  -1 1437.02   54.53
   6   4   2   -5.49   16.57
   6   4   2    9.32   12.48
  -6  -4  -2    0.33   22.61
   6   4   3   95.51   21.85
   6   4   3   94.66   15.12
  -6  -4  -3   77.81   27.48
   6   4   4 1574.58   54.27
  -6  -4  -4 1499.30   55.19
   6   4   5  421.48   35.88
   6   4   5  388.04   19.68
  -6  -4  -5  437.87   43.98
   6   4   6 1390.54   52.11
   6   4   6 1452.34   39.28
  -6  -4  -6 1460.84   63.30
   6   4   7  781.59   41.35
  -6  -4  -7  802.54   51.25
   6   4   8  640.54   40.25
  -6  -4  -8  822.19   55.69
   6   4   9   68.04   17.75
  -6  -4  -9   41.88   21.75
   6   4  10  511.00  114.35
  -6  -4 -10  553.27   41.63
   6   4  11   40.02   24.06
  -6  -4 -11   24.68   23.40
   6   4  12    5.36   10.44
  -6  -4 -12   43.21   28.96
  -6  -5   7   51.54   27.76
   6   5  -6    7.85   15.97
  -6  -5   6  -13.91   24.80
   6   5  -5  605.13   50.91
  -6  -5   5  556.85  114.34
   6   5  -4  297.58   32.81
  -6  -5   4  321.48   55.41
   6   5  -3  321.81   26.45
  -6  -5   3  347.81   51.12
   6   5  -2   20.21   15.82
  -6  -5   2   -4.06   13.23
  -6  -5   2  -10.91   16.40
   6   5  -1 2696.06   75.31
   6   5  -1 2573.63   74.16
  -6  -5   1 2604.74   66.32
   6   5   0  722.15   39.11
   6   5   0  659.23   34.47
  -6  -5   0  597.39   32.85
   6   5   1  722.49   36.30
   6   5   1  755.49   39.01
  -6  -5  -1  696.34   44.37
   6   5   213525.50  230.87
   6   5   213219.33  189.77
  -6  -5  -213128.19  201.29
   6   5   3  383.44   31.67
   6   5   3  362.69   23.37
  -6  -5  -3  361.75   36.34
   6   5   4 1802.97   62.89
   6   5   4 1833.44   57.87
  -6  -5  -4 1768.48   75.83
   6   5   5  651.15   33.28
   6   5   5  662.64   29.24
  -6  -5  -5  710.64   45.96
   6   5   6  780.00   39.10
   6   5   6  783.66   30.83
  -6  -5  -6  893.60   47.85
   6   5   7   39.14   22.64
   6   5   7    1.75    8.31
  -6  -5  -7  -10.23   24.61
   6   5   8  412.85   30.29
  -6  -5  -8  411.19   41.95
   6   5   9  122.19   27.69
  -6  -5  -9  138.64   32.18
   6   5  10   26.29   13.90
  -6  -5 -10    7.42   23.12
   6   5  11  465.95   87.87
  -6  -5 -11  612.00   61.96
   6   6  -7  442.47   44.98
  -6  -6   7  332.12   69.52
   6   6  -6   79.50   32.40
  -6  -6   6   74.47   32.66
   6   6  -5  149.68   27.40
  -6  -6   5  228.70   43.86
   6   6  -4  261.26   28.00
  -6  -6   4  306.19   65.16
   6   6  -3 1003.50   42.68
  -6  -6   3  980.93   36.27
   6   6  -2 3081.72  114.26
   6   6  -2 3091.30  117.81
  -6  -6   2 3162.93  112.42
   6   6  -1   -2.45   11.40
   6   6  -1   11.21   15.49
  -6  -6   1   38.04   20.22
   6   6   0  216.00   17.71
   6   6   0  241.90   25.67
  -6  -6   0  290.97   31.98
   6   6   1 2772.43   78.99
   6   6   1 2865.50   87.19
  -6  -6  -1 2856.15   93.57
   6   6   212279.32  277.26
   6   6   212836.86  128.06
  -6  -6  -212669.19  145.52
   6   6   3  652.06   30.38
   6   6   3  696.55   34.65
  -6  -6  -3  727.65   45.38
   6   6   4  168.21   20.29
   6   6   4  199.28   22.81
  -6  -6  -4  195.25   36.59
   6   6   5   31.83   10.28
  -6  -6  -5   26.12   28.57
   6   6   6   26.08   26.21
   6   6   6   32.41   11.76
  -6  -6  -6   12.19   28.82
   6   6   7   17.56   18.05
   6   6   7   15.05   10.04
  -6  -6  -7   22.98   25.98
   6   6   8  -12.52   16.77
   6   6   8    0.37   10.13
  -6  -6  -8   23.51   26.52
   6   6   9 1041.22   86.01
  -6  -6  -9 1192.94   64.84
   6   6  10   56.43   23.21
  -6  -6 -10   86.85   38.81
   6   6  11   22.80   15.32
  -6  -6 -11   28.51   23.64
   6   7  -6  493.84   50.08
  -6  -7   6  420.31   95.02
   6   7  -5    3.00   15.16
  -6  -7   5  -10.74   19.95
   6   7  -4  327.84   33.20
   6   7  -3  253.77   25.70
   6   7  -3  336.16   35.73
  -6  -7   3  258.51   23.01
   6   7  -2  391.92   26.96
   6   7  -2  432.12   37.31
  -6  -7   2  372.27   30.31
   6   7  -1   74.67   18.43
   6   7  -1   39.91   19.93
  -6  -7   1  114.59   23.45
   6   7   0   35.84   11.73
   6   7   0   54.05   23.20
  -6  -7   0   -3.68   22.81
   6   7   1   28.70   10.61
   6   7   1   24.41   14.96
  -6  -7  -1  -28.43   24.48
   6   7   2  241.56   19.78
   6   7   2  256.98   26.05
  -6  -7  -2  205.81   38.36
   6   7   3  456.53   25.82
   6   7   3  487.49   31.70
  -6  -7  -3  394.20   41.60
   6   7   4  242.99   20.23
   6   7   4  251.21   24.09
  -6  -7  -4  169.20   37.72
   6   7   5   22.17   11.61
   6   7   5    9.63   11.35
  -6  -7  -5   33.62   29.97
   6   7   6   -5.30   11.77
   6   7   6    5.60   12.13
  -6  -7  -6    7.03   28.18
   6   7   7  231.43   23.95
   6   7   7  246.59   22.30
  -6  -7  -7  230.38   40.51
   6   7   8  590.42   46.37
   6   7   8  551.94   40.81
  -6  -7  -8  517.58   54.16
   6   7   9   74.98   33.92
  -6  -7  -9   87.57   39.03
  -6  -7 -10   63.11   28.93
  -6  -8   6    5.17    9.70
   6   8  -4  -11.38   14.88
   6   8  -4  -12.92   19.94
   6   8  -3  532.36   38.51
   6   8  -3  575.23   54.43
  -6  -8   3  488.46   39.73
   6   8  -2   11.62   10.67
   6   8  -2    4.55   15.91
  -6  -8   2   36.71   27.70
   6   8  -1    7.06   16.89
  -6  -8   1   18.28   23.26
   6   8   0  419.79   32.65
  -6  -8   0  377.68   33.27
   6   8   1 1453.45   67.86
  -6  -8  -1 1355.98   67.17
   6   8   2  597.51   39.58
  -6  -8  -2  624.19   48.58
   6   8   3  133.81   20.34
  -6  -8  -3  169.08   37.74
   6   8   4  595.10   35.52
  -6  -8  -4  631.58   48.20
   6   8   5  175.68   26.63
  -6  -8  -5  142.19   39.38
   6   8   6  295.64   29.96
  -6  -8  -6  293.25   44.31
   6   8   7   24.96   21.20
  -6  -8  -7   20.88   29.67
   6   8   8   95.71   23.74
  -6  -8  -8  143.81   42.74
   6   8   9  809.39   61.27
  -6  -8  -9  930.82   84.67
  -6  -8 -10  590.47   59.59
   6   9  -5  955.43   67.11
   6   9  -4  171.00   36.75
   6   9  -3  370.25   42.45
  -6  -9   3  393.11   31.99
   6   9  -2   77.78   29.51
  -6  -9   2   92.74   25.96
   6   9  -1 1388.19   56.39
  -6  -9   1 1469.99   60.18
   6   9   0   22.92   17.36
  -6  -9   0    3.46   22.45
   6   9   1  159.81   24.99
  -6  -9  -1  247.60   38.92
   6   9   2  731.55   59.48
  -6  -9  -2  777.89   63.67
   6   9   3  469.52   46.42
  -6  -9  -3  513.18   51.80
   6   9   4 1308.06   57.16
  -6  -9  -4 1087.45   59.34
   6   9   5   31.80   16.15
  -6  -9  -5   -4.66   31.11
   6   9   6  145.73   26.26
  -6  -9  -6  138.66   50.61
   6   9   7  489.76   43.41
  -6  -9  -7  473.08   51.88
   6   9   8  128.12   28.63
  -6  -9  -8   96.10   41.80
   6   9   9  442.41   43.97
  -6  -9  -9  366.89   48.45
   6  10  -4   -6.40   21.06
   6  10  -3  -11.21   20.29
  -6 -10   3   -5.55   18.47
   6  10  -2  288.41   35.20
  -6 -10   2  278.94   37.98
   6  10  -1   58.17   28.94
  -6 -10   1  125.36   29.06
   6  10   0    8.97   20.41
  -6 -10   0    4.61   24.48
   6  10   1  622.86   46.43
  -6 -10  -1  685.48   52.40
   6  10   2  599.62   44.86
  -6 -10  -2  614.86   47.59
   6  10   3  378.88   34.44
  -6 -10  -3  324.43   48.54
   6  10   4  136.41   26.18
  -6 -10  -4  208.85   55.30
   6  10   5  461.75   41.64
  -6 -10  -5  454.36   51.87
   6  10   6    5.83   16.59
  -6 -10  -6   47.45   36.51
   6  10   7   38.17   23.18
  -6 -10  -7   73.45   32.81
   6  11  -3  212.27   40.08
  -6 -11   3  233.78   34.13
   6  11  -2    1.95   20.73
  -6 -11   2  -19.25   22.10
   6  11  -1    7.11   22.87
  -6 -11   1   76.29   38.92
   6  11   0   84.76   29.56
  -6 -11   0  114.90   34.65
   6  11   1  421.02   51.20
  -6 -11  -1  457.48   55.05
   6  11   2   26.12   20.58
  -6 -11  -2  -44.45   28.12
   6  11   3  630.20   56.16
  -6 -11  -3  634.11   69.23
   6  11   4  289.02   37.20
  -6 -11  -4  426.66   63.53
   6  11   5    8.22   19.68
  -6 -11  -5  -11.17   32.46
   6  11   6   98.17   32.78
  -6 -11  -6   93.87   29.15
   6  12   1  596.18   57.38
  -6 -12  -1  499.61   50.23
   6  12   2  335.27   43.33
  -6 -12  -2  322.53   47.62
   7  -4   0    6.48   21.74
   7  -4   1  238.63   39.99
   7  -4   2   61.42   32.71
  -7   4  -2   60.87   27.29
   7  -4   3  597.59   60.70
  -7   4  -3  578.88   51.27
   7  -4   4    5.02   24.97
  -7   4  -4   13.87   16.97
   7  -4   5  167.21   36.21
  -7   4  -5  101.67   26.99
   7  -4   6  732.89   55.91
  -7   4  -6  655.95   49.45
   7  -4   7  144.76   35.92
  -7   4  -7  119.21   31.77
   7  -3  -2   32.95   24.69
  -7   3   2   24.68   22.53
   7  -3  -1  218.51   44.98
  -7   3   1  148.04   29.02
   7  -3   0   44.26   23.80
  -7   3   0   30.74   19.06
   7  -3   1  231.40   32.97
  -7   3  -1  266.02   30.79
   7  -3   2  279.96   35.30
  -7   3  -2  316.62   31.87
   7  -3   3  720.75   56.11
  -7   3  -3  701.20   44.80
   7  -3   4  938.13   59.52
  -7   3  -4  956.52   52.16
   7  -3   5   -2.24   22.58
  -7   3  -5   30.37   18.18
   7  -3   6   53.06   30.25
  -7   3  -6   37.37   20.05
   7  -3   7   26.35   25.82
  -7   3  -7   76.26   32.85
   7  -3   8  121.79   37.29
  -7   3  -8  117.96   29.82
   7  -3   9   64.16   31.27
  -7   3  -9   36.25   20.08
   7  -2  -3  143.18   32.00
  -7   2   3   45.70   25.45
   7  -2  -2   58.51   46.18
  -7   2   2   37.33   26.63
   7  -2  -1  116.40   35.23
  -7   2   1   80.81   33.41
   7  -2   0  208.99   40.76
  -7   2   0  153.96   30.06
   7  -2   1  786.53   60.69
  -7   2  -1  821.27   53.49
  -7   2  -1  682.77   55.72
   7  -2   2  110.70   36.64
  -7   2  -2   67.49   21.16
   7  -2   3   33.62   25.87
  -7   2  -3   18.36   16.84
   7  -2   4  380.98   47.93
  -7   2  -4  328.28   35.48
   7  -2   5  461.79   51.24
  -7   2  -5  383.66   42.56
   7  -2   6   57.89   25.52
  -7   2  -6  102.45   25.56
   7  -2   7  252.94   48.09
  -7   2  -7  134.64   29.46
   7  -2   8   30.17   30.80
  -7   2  -8   -2.17   20.64
   7  -2   9  598.18   54.77
  -7   2  -9  603.97   49.56
   7  -2  10   50.72   26.73
  -7   2 -10   42.07   23.84
   7  -1  -4    6.11   20.94
  -7   1   4   58.87   28.91
   7  -1  -3    9.19   22.22
  -7   1   3   19.18   25.29
   7  -1  -2   23.21   25.54
  -7   1   2   56.32   32.05
   7  -1  -1  327.24   44.91
  -7   1   1  284.10   38.38
   7  -1   0 2260.17   82.40
  -7   1   0 2218.34   80.69
   7  -1   1  913.12   71.42
  -7   1  -1  832.30   55.42
  -7   1  -1  942.94   68.41
   7  -1   2  221.27   33.28
  -7   1  -2  270.25   26.25
  -7   1  -2  186.14   22.87
   7  -1   3 3392.14  196.36
  -7   1  -3 3758.85  217.05
   7  -1   4    4.42   21.72
  -7   1  -4   -2.79   15.20
   7  -1   5 1840.60  117.35
  -7   1  -5 1818.98  114.23
   7  -1   6  411.53   42.25
  -7   1  -6  373.06   32.52
   7  -1   7  674.15   61.19
  -7   1  -7  668.94   57.78
   7  -1   8  -15.05   24.69
  -7   1  -8   13.95   21.30
   7  -1   9  180.68   46.07
  -7   1  -9  189.28   38.64
   7  -1  10  183.26   38.56
  -7   1 -10  160.83   41.20
   7   0  -5   39.84   22.93
  -7   0   5   52.20   28.43
   7   0  -4  168.78   35.06
  -7   0   4  130.87   37.45
   7   0  -3  -13.86   21.50
  -7   0   3  -20.14   21.40
   7   0  -2   68.25   29.88
  -7   0   2   90.68   34.97
   7   0  -1  817.27   52.35
  -7   0   1  827.39   48.23
   7   0   0  553.02   51.92
  -7   0   0  542.91   40.84
  -7   0   0  560.04   51.15
   7   0   1  548.03   40.22
  -7   0  -1  554.98   31.79
  -7   0  -1  478.48   37.65
   7   0   2  -19.17   21.55
  -7   0  -2   15.88   14.42
  -7   0  -2   -3.67   11.12
   7   0   3 5010.04  182.10
  -7   0  -3 5158.03  177.04
   7   0   4 2041.99   92.22
  -7   0  -4 2309.29   93.69
   7   0   5   54.52   33.41
  -7   0  -5   43.81   19.07
   7   0   6  944.99   54.27
  -7   0  -6  875.62   48.42
   7   0   7  558.83   50.65
  -7   0  -7  572.59   43.62
   7   0   8    6.62   26.19
  -7   0  -8   14.49   21.10
   7   0   9  389.66   43.87
  -7   0  -9  482.67   50.67
   7   0  10  275.47   42.87
  -7   0 -10  295.04   39.36
   7   0  11   87.15   36.04
  -7   0 -11   38.89   31.06
   7   1  -5  385.41   49.27
  -7  -1   5  291.50   44.43
   7   1  -4  425.43   54.70
  -7  -1   4  310.02   49.21
   7   1  -3   78.70   34.25
  -7  -1   3  108.16   32.53
   7   1  -2   21.99   21.27
  -7  -1   2   39.05   29.37
   7   1  -1  371.13   43.38
  -7  -1   1  353.49   30.83
   7   1   0  153.26   35.25
  -7  -1   0  174.57   22.72
  -7  -1   0  121.06   24.66
   7   1   1 1334.48   68.97
  -7  -1  -1 1375.07   60.32
  -7  -1  -1 1319.42   61.25
   7   1   2 1943.29   71.62
  -7  -1  -2 1981.09   60.88
  -7  -1  -2 1876.94   53.09
   7   1   3  119.66   22.79
  -7  -1  -3  115.33   20.82
  -7  -1  -3  153.87   18.58
   7   1   4 1551.43   63.76
  -7  -1  -4 1602.44   56.99
   7   1   5  766.07   55.93
  -7  -1  -5  766.28   48.24
   7   1   6   59.08   22.75
  -7  -1  -6  112.92   26.38
   7   1   7   97.81   25.31
  -7  -1  -7   99.57   25.32
   7   1   8  808.52   50.46
  -7  -1  -8  829.30   52.73
   7   1   9   36.14   24.05
  -7  -1  -9   66.61   34.58
   7   1  10  168.68   35.76
  -7  -1 -10  220.13   41.79
   7   1  11   83.17   32.59
  -7  -1 -11  105.63   35.25
   7   2  -5   26.25   21.83
  -7  -2   5   71.19   28.20
   7   2  -4  275.69   42.10
  -7  -2   4  227.69   35.82
   7   2  -3   68.95   28.48
  -7  -2   3   29.07   18.04
   7   2  -2  537.67   49.56
  -7  -2   2  519.42   65.94
   7   2  -1   48.57   21.40
  -7  -2   1   52.27   10.69
   7   2   0  776.21   52.88
  -7  -2   0  736.32   38.90
  -7  -2   0  693.21   95.81
   7   2   1    0.58   20.02
  -7  -2  -1    3.24   13.70
  -7  -2  -1    6.20    9.35
   7   2   2 4392.79  112.17
  -7  -2  -2 4316.04   96.19
  -7  -2  -2 3953.55  137.74
   7   2   3  235.15   35.58
  -7  -2  -3  257.55   27.52
  -7  -2  -3  190.60   31.27
   7   2   4  607.64   39.61
  -7  -2  -4  610.61   38.94
   7   2   5   34.35   32.77
  -7  -2  -5   12.89   19.25
   7   2   6  102.49   31.10
  -7  -2  -6   76.73   26.36
   7   2   7  846.89   52.38
  -7  -2  -7  766.54   44.09
   7   2   8  143.68   33.91
  -7  -2  -8  163.43   34.99
   7   2   9   31.37   19.79
  -7  -2  -9   76.18   32.41
   7   2  10  537.07   51.08
  -7  -2 -10  652.38   47.91
   7   2  11  303.75   44.79
  -7  -2 -11  341.24   39.21
   7   3  -6  216.92   42.40
  -7  -3   6  257.97   48.07
   7   3  -5   46.14   31.01
  -7  -3   5   34.51   26.34
   7   3  -4 1629.26  493.66
  -7  -3   4 1461.59   96.54
   7   3  -3   54.18   20.34
  -7  -3   3   52.14   13.99
   7   3  -2   42.46   20.12
  -7  -3   2   39.47   13.81
   7   3  -1  794.08   49.27
  -7  -3   1  775.02  116.43
   7   3   0 2576.64   79.33
  -7  -3   0 2548.97   92.58
  -7  -3   0 2557.26  104.34
   7   3   1   25.44   19.09
  -7  -3  -1   18.43   17.06
  -7  -3  -1   -6.56   12.78
   7   3   2  168.33   23.54
  -7  -3  -2  159.76   21.70
  -7  -3  -2  140.37   24.41
   7   3   3 1324.51   57.42
  -7  -3  -3 1380.56   52.71
  -7  -3  -3 1288.47   65.12
   7   3   4  263.70   30.25
  -7  -3  -4  320.61   31.06
  -7  -3  -4  225.06   35.46
   7   3   5  371.81   39.30
  -7  -3  -5  333.24   40.02
   7   3   6  122.56   28.84
  -7  -3  -6  136.57   29.88
   7   3   7  447.83   39.83
  -7  -3  -7  513.45   39.22
   7   3   8  864.06   52.09
  -7  -3  -8  838.47   47.56
   7   3   9  247.80   33.90
  -7  -3  -9  267.53   38.43
   7   3  10  316.44   45.84
  -7  -3 -10  303.99   39.74
   7   3  11   59.13   23.36
  -7  -3 -11   48.52   27.75
   7   4  -6  368.82   44.73
  -7  -4   6  265.40   41.63
   7   4  -5  278.25   40.67
  -7  -4   5  157.33   23.58
   7   4  -4 1051.54   57.89
  -7  -4   4  985.62  137.25
   7   4  -3   50.59   18.85
  -7  -4   3   48.19   13.57
   7   4  -2   -9.24   14.83
  -7  -4   2   28.52   11.09
   7   4  -1  743.31   47.40
  -7  -4   1  744.03   37.56
  -7  -4   1  625.47   87.06
   7   4   0  503.21   34.42
  -7  -4   0  564.43   35.07
  -7  -4   0  490.22   70.21
   7   4   1  885.76   46.38
  -7  -4  -1  905.67   42.77
  -7  -4  -1  821.75   38.13
   7   4   2  205.53   28.20
  -7  -4  -2  196.18   25.11
  -7  -4  -2  178.67   19.77
   7   4   3  845.31   40.15
   7   4   3  958.16   39.62
  -7  -4  -3  890.10   46.68
   7   4   4  750.83   41.87
   7   4   4  774.20   33.17
  -7  -4  -4  711.42   48.72
   7   4   5   33.98   17.27
   7   4   5   -5.17    7.91
  -7  -4  -5   15.88   21.08
   7   4   6  759.47   47.58
  -7  -4  -6  808.55   58.49
   7   4   7  -10.02   17.46
  -7  -4  -7   -8.67   24.28
   7   4   8  148.12   27.44
  -7  -4  -8  192.53   31.03
   7   4   9   15.20   19.63
  -7  -4  -9   11.94   25.17
   7   4  10  572.21   43.47
  -7  -4 -10  621.17   46.89
   7   4  11   38.15   32.95
  -7  -4 -11  106.48   34.45
   7   5  -6    9.71   18.28
  -7  -5   6  -25.09   22.75
   7   5  -5 1408.13  428.61
  -7  -5   5 1141.45  192.51
   7   5  -4  117.66   26.43
  -7  -5   4   88.45   21.00
   7   5  -3  715.67   53.18
  -7  -5   3  651.98  120.08
   7   5  -2  204.58   28.46
  -7  -5   2  184.02   32.60
   7   5  -1   61.01   22.22
  -7  -5   1   34.68   15.63
  -7  -5   1   27.48   11.33
   7   5   0  129.96   22.50
  -7  -5   0  105.19   18.38
  -7  -5   0  136.21   24.19
   7   5   1  274.50   28.98
   7   5   1  228.88   24.53
  -7  -5  -1  248.47   27.88
   7   5   2 1015.97   44.51
   7   5   2 1055.93   42.63
  -7  -5  -2 1095.62   53.65
   7   5   3  715.16   42.24
   7   5   3  628.87   32.71
  -7  -5  -3  724.26   46.65
   7   5   4  483.92   33.40
   7   5   4  547.56   29.47
  -7  -5  -4  453.64   36.84
   7   5   5  260.26   31.23
  -7  -5  -5  193.52   39.08
   7   5   6   -0.61   15.32
   7   5   6   -9.57    8.98
  -7  -5  -6  -11.54   23.14
   7   5   7  579.77   50.25
  -7  -5  -7  532.81   55.22
   7   5   8  204.69   29.06
  -7  -5  -8  184.34   38.17
   7   5   9  563.56   38.02
  -7  -5  -9  640.51   51.30
   7   5  10  -28.50   17.29
  -7  -5 -10   37.64   33.65
   7   5  11   85.54   29.03
  -7  -5 -11   73.29   40.90
   7   6  -5  659.87   47.91
  -7  -6   5  547.35  120.75
   7   6  -4  545.59   41.63
  -7  -6   4  428.12   67.69
   7   6  -3  239.23   29.17
  -7  -6   3  236.95   38.41
   7   6  -2   65.26   18.41
  -7  -6   2   63.90   11.90
   7   6  -1  243.67   26.61
   7   6  -1  244.55   33.83
  -7  -6   1  241.24   26.91
   7   6   0   22.18   13.60
   7   6   0   -9.47   13.86
  -7  -6   0    8.52   19.72
   7   6   1 1054.66   54.96
   7   6   1 1096.76   57.24
  -7  -6  -1 1030.11   56.61
   7   6   2 2754.00  102.93
   7   6   2 2833.65  105.70
  -7  -6  -2 2730.90  108.15
   7   6   3  761.00   43.48
   7   6   3  746.06   42.78
  -7  -6  -3  756.29   51.06
   7   6   4  164.99   28.68
   7   6   4  140.87   18.88
  -7  -6  -4  130.85   30.30
   7   6   5  174.77   24.72
   7   6   5  164.36   18.97
  -7  -6  -5  160.47   35.74
   7   6   6  -26.29   19.74
   7   6   6   21.92   15.66
  -7  -6  -6   30.75   24.10
   7   6   7 1810.35   59.30
  -7  -6  -7 1897.34   80.57
   7   6   8   14.01   20.58
  -7  -6  -8   32.33   29.05
   7   6   9  121.84   25.88
  -7  -6  -9   74.97   44.16
   7   6  10   39.01   26.15
  -7  -6 -10   73.38   35.44
   7   7  -5   81.72   22.96
  -7  -7   5   75.17   18.00
   7   7  -4  100.58   21.69
  -7  -7   4   88.47   28.66
   7   7  -3 1039.88   55.25
  -7  -7   3 1084.84   71.55
   7   7  -2   67.65   19.94
   7   7  -2   69.96   23.09
  -7  -7   2   37.25   22.07
   7   7  -1  172.23   25.35
   7   7  -1  209.41   32.44
  -7  -7   1  251.69   33.06
   7   7   0  853.75   60.10
   7   7   0  827.14   63.11
  -7  -7   0  821.88   63.62
   7   7   1 1354.77   46.28
   7   7   1 1330.50   51.51
  -7  -7  -1 1341.85   56.19
   7   7   2  402.68   29.37
   7   7   2  404.66   34.85
  -7  -7  -2  385.32   34.61
   7   7   3  628.87   34.23
   7   7   3  680.58   36.27
  -7  -7  -3  622.06   47.37
   7   7   4   76.95   16.95
  -7  -7  -4  104.80   41.57
   7   7   5  522.50   42.02
   7   7   5  537.89   42.37
  -7  -7  -5  560.15   59.25
   7   7   6  226.79   30.20
   7   7   6  205.89   24.41
  -7  -7  -6  184.13   42.57
   7   7   7   70.53   25.59
   7   7   7   45.63   16.53
  -7  -7  -7   54.00   31.16
   7   7   8   27.82   25.12
  -7  -7  -8   83.45   44.98
   7   7   9   -1.59   14.40
  -7  -7  -9  -21.86   26.27
  -7  -7 -10   18.57   25.62
  -7  -8   5  185.76   45.73
  -7  -8   4   -1.00    8.46
   7   8  -3  317.78   46.00
   7   8  -2  438.56   41.18
  -7  -8   2  454.44   36.82
   7   8  -1   17.50   21.08
  -7  -8   1   78.86   30.10
   7   8   0   79.85   23.73
  -7  -8   0   55.98   34.77
   7   8   1  410.59   37.62
  -7  -8  -1  366.81   38.79
   7   8   2  425.28   38.27
  -7  -8  -2  404.99   51.11
   7   8   3  434.04   33.60
  -7  -8  -3  429.45   45.57
   7   8   4  563.11   37.71
  -7  -8  -4  518.27   44.77
   7   8   5   13.73   14.33
  -7  -8  -5    1.22   28.89
   7   8   6   94.83   20.89
  -7  -8  -6   41.52   32.14
   7   8   7  125.36   26.91
  -7  -8  -7  124.63   43.06
  -7  -8  -8   -3.38   30.53
  -7  -8  -9  561.87   56.72
   7   9  -4  189.59   42.42
   7   9  -3  102.36   27.99
   7   9  -2  170.95   38.87
  -7  -9   2   82.55   19.53
   7   9  -1  103.60   27.01
  -7  -9   1  118.21   28.21
   7   9   0  412.69   37.19
  -7  -9   0  355.83   41.81
   7   9   1   87.16   22.46
  -7  -9  -1   82.92   27.73
   7   9   2  539.36   44.38
  -7  -9  -2  656.79   62.29
   7   9   3   35.97   17.16
  -7  -9  -3    4.65   26.79
   7   9   4  339.89   33.54
  -7  -9  -4  317.78   44.13
   7   9   5  725.03   43.93
  -7  -9  -5  796.10   61.50
   7   9   6   14.30   16.22
  -7  -9  -6  -11.96   31.18
   7   9   7  114.95   28.50
  -7  -9  -7  186.11   53.13
  -7  -9  -8  161.34   45.23
   7  10  -3   21.90   23.29
   7  10  -2   53.99   31.16
  -7 -10   2   84.15   31.52
   7  10  -1  200.64   35.84
  -7 -10   1  124.60   30.73
   7  10   0  159.59   28.55
  -7 -10   0  180.60   32.93
   7  10   1   20.11   17.97
  -7 -10  -1   -9.18   26.95
   7  10   2  337.25   38.49
  -7 -10  -2  331.41   40.84
   7  10   3  647.23   47.20
  -7 -10  -3  610.93   53.08
   7  10   4  265.74   33.03
  -7 -10  -4  374.65   54.82
   7  10   5  781.05   63.13
  -7 -10  -5  731.38   71.28
   7  10   6  -14.50   18.11
  -7 -10  -6   41.07   34.69
   7  10   7   53.63   20.33
  -7 -10  -7   18.63   32.44
   7  11  -1   14.93   19.79
  -7 -11   1  -15.93   24.82
   7  11   0   75.26   30.32
  -7 -11   0  121.74   38.36
   7  11   1  392.15   39.52
  -7 -11  -1  342.01   42.94
   7  11   2  166.07   36.53
  -7 -11  -2  173.12   41.27
   7  11   3  178.44   33.10
  -7 -11  -3  217.64   43.37
   7  11   4  194.04   34.86
  -7 -11  -4  165.86   41.11
  -7 -11  -5   38.08   33.07
   8  -3   3   22.34   24.26
  -8   3  -3   -1.63   15.28
   8  -3   4  782.01   64.14
  -8   3  -4  689.47   52.74
   8  -3   5   50.14   25.42
  -8   3  -5    1.75   17.18
   8  -2   0   46.21   23.08
   8  -2   1   84.54   32.27
   8  -2   2  923.31   63.81
   8  -2   3    4.32   25.86
  -8   2  -3   -0.15   15.63
   8  -2   4  293.90   50.47
  -8   2  -4  311.20  100.21
   8  -2   5  116.31   39.62
  -8   2  -5  147.91   32.15
   8  -2   6  -21.46   24.37
  -8   2  -6   91.59   27.33
   8  -2   7  260.96   41.31
  -8   2  -7  182.08   28.88
   8  -1  -1  -23.95   21.59
  -8   1   1  -10.20   19.52
   8  -1   0  549.70   58.81
  -8   1   0  574.23   57.80
   8  -1   1  138.17   35.66
   8  -1   2  355.20   46.60
  -8   1  -2  371.97   32.76
   8  -1   3  114.43   26.65
  -8   1  -3  115.52   26.07
   8  -1   4  588.96   50.03
  -8   1  -4  661.83   42.37
   8  -1   5  886.05   67.73
  -8   1  -5  899.25   52.00
   8  -1   6    4.89   27.69
  -8   1  -6   53.72   31.16
   8  -1   7   22.51   39.72
  -8   1  -7   23.09   19.65
   8  -1   8  839.16   64.69
  -8   1  -8  790.12   60.44
   8  -1   9   16.14   23.53
   8   0  -2   18.82   22.58
  -8   0   2   -7.68   20.94
   8   0  -1  159.87   36.12
  -8   0   1  175.54   38.50
   8   0   0   37.14   26.40
  -8   0   0   22.74   18.66
   8   0   1  294.94   39.18
  -8   0  -1  277.07   32.65
   8   0   2  592.75   54.05
  -8   0  -2  589.36   37.28
   8   0   3  133.77   40.89
  -8   0  -3  112.76   22.23
   8   0   4 2118.21   77.88
  -8   0  -4 2211.14   65.15
   8   0   5  114.70   39.02
  -8   0  -5  113.32   26.98
   8   0   6  424.10   55.51
  -8   0  -6  558.01   44.67
   8   0   7   13.28   26.81
  -8   0  -7   15.10   19.81
   8   0   8  160.62   42.45
  -8   0  -8  142.44   34.28
   8   0   9  130.67   39.59
  -8   0  -9  184.68   36.45
   8   1  -3  144.41   34.61
  -8  -1   3  113.85   35.20
   8   1  -2  321.62   49.47
  -8  -1   2  322.01   48.01
   8   1  -1    4.02   23.53
  -8  -1   1   13.88   20.42
   8   1   0  759.28   55.45
  -8  -1   0  712.47   50.40
   8   1   1  755.12   61.84
  -8  -1  -1  786.66   50.54
  -8  -1  -1  795.12   59.35
   8   1   2  752.07   55.95
  -8  -1  -2  768.47   52.40
  -8  -1  -2  739.28   51.55
   8   1   3   10.86   21.92
  -8  -1  -3   50.14   14.75
   8   1   4   86.24   24.56
  -8  -1  -4   59.28   20.95
   8   1   5    7.03   23.15
  -8  -1  -5   42.69   29.70
   8   1   6  665.40   58.79
  -8  -1  -6  635.03   52.53
   8   1   7  495.02   54.20
  -8  -1  -7  584.57   49.35
   8   1   8  167.83   47.90
  -8  -1  -8  122.69   36.15
   8   1   9   33.69   36.13
  -8  -1  -9   -0.40   23.12
   8   1  10   18.75   23.75
  -8  -1 -10   77.23   31.76
   8   2  -3  -12.82   20.79
  -8  -2   3   25.32   24.07
   8   2  -2  310.47   43.51
  -8  -2   2  257.19   32.85
   8   2  -1   54.32   28.81
  -8  -2   1    8.95   16.58
   8   2   0  163.89   33.20
  -8  -2   0  139.66   25.42
   8   2   1   39.88   20.15
  -8  -2  -1   65.30   18.95
  -8  -2  -1   26.90   15.39
   8   2   2  121.62   31.14
  -8  -2  -2  126.90   20.39
  -8  -2  -2  170.84   25.66
   8   2   3   49.95   33.09
  -8  -2  -3   -5.67   16.97
   8   2   4  124.21   26.17
  -8  -2  -4  123.74   24.42
   8   2   5  305.76   37.82
  -8  -2  -5  323.31   40.22
   8   2   6   38.46   22.23
  -8  -2  -6   -0.25   17.48
   8   2   7 1095.71   57.92
  -8  -2  -7 1049.70   51.83
   8   2   8  385.92   44.52
  -8  -2  -8  404.83   49.87
   8   2   9  324.78   43.18
  -8  -2  -9  259.99   39.10
   8   2  10  208.64   43.52
  -8  -2 -10  138.65   42.56
   8   3  -4  244.83   43.90
  -8  -3   4  187.14   36.75
   8   3  -3  302.99   98.83
  -8  -3   3  296.84   60.18
   8   3  -2   17.35   20.56
  -8  -3   2  108.39   18.43
   8   3  -1  209.13   31.94
  -8  -3   1  194.04   24.69
   8   3   0   -2.96   18.83
  -8  -3   0   30.49   11.21
   8   3   1  677.31   46.99
  -8  -3  -1  694.88   34.49
  -8  -3  -1  629.82   89.04
   8   3   2   75.92   23.51
  -8  -3  -2   62.77   18.15
  -8  -3  -2   44.79    8.26
   8   3   3  879.94   69.72
  -8  -3  -3  851.44   63.22
  -8  -3  -3  652.10  104.54
   8   3   4  352.14   42.46
  -8  -3  -4  360.72   31.43
   8   3   5  101.66   37.16
  -8  -3  -5   36.70   19.23
   8   3   6  885.84   52.98
  -8  -3  -6  914.17   51.76
   8   3   7   53.53   33.06
  -8  -3  -7   40.61   23.22
   8   3   8   70.73   33.22
  -8  -3  -8  112.47   34.76
   8   3   9   96.16   34.52
  -8  -3  -9   22.88   25.87
   8   3  10  611.97   51.36
  -8  -3 -10  578.66   50.21
   8   4  -4  282.89   37.80
  -8  -4   4  268.22   50.92
   8   4  -3  957.16   75.78
  -8  -4   3  855.97  156.27
   8   4  -2   31.07   19.38
  -8  -4   2   11.80   19.36
   8   4  -1  330.43   33.95
  -8  -4   1  342.08   65.04
   8   4   0    4.97   18.53
  -8  -4   0   21.74   13.34
  -8  -4   0   11.76   13.15
   8   4   1  679.16   42.24
  -8  -4  -1  589.84   32.36
  -8  -4  -1  528.04   92.93
   8   4   2  195.93   38.24
  -8  -4  -2   92.50   20.68
  -8  -4  -2  119.37   16.55
   8   4   3  313.61   34.04
  -8  -4  -3  312.39   31.22
  -8  -4  -3  254.65   36.90
   8   4   4   85.41   25.72
  -8  -4  -4  138.50   26.09
  -8  -4  -4   80.16   19.56
   8   4   5   79.70   30.75
  -8  -4  -5   61.56   29.98
   8   4   6 1311.33   57.80
  -8  -4  -6 1376.95   60.11
   8   4   7   30.97   20.11
  -8  -4  -7   40.15   25.06
   8   4   8  388.54   41.62
  -8  -4  -8  444.07   42.91
   8   4   9  423.28   49.97
  -8  -4  -9  479.73   55.17
   8   4  10  329.68   43.45
  -8  -4 -10  336.08   47.71
   8   5  -4    3.87   19.05
  -8  -5   4  -21.80   20.20
   8   5  -3    8.85   19.88
   8   5  -2   57.22   24.69
  -8  -5   2   72.36   20.05
   8   5  -1   -3.62   17.70
  -8  -5   1   -1.25   11.26
   8   5   0  168.45   31.25
  -8  -5   0  161.62   21.51
  -8  -5   0  108.12   21.24
   8   5   1   72.68   24.39
  -8  -5  -1   53.39   18.00
  -8  -5  -1   57.20   11.22
   8   5   2  148.61   24.48
  -8  -5  -2  166.31   30.05
  -8  -5  -2  160.33   29.64
   8   5   3   31.51   22.66
  -8  -5  -3   25.48   20.95
  -8  -5  -3   -4.17   10.21
   8   5   4  451.82   44.25
   8   5   4  407.16   36.86
  -8  -5  -4  440.59   49.78
   8   5   5  -12.59   17.17
  -8  -5  -5   32.60   24.56
   8   5   6  255.08   35.51
  -8  -5  -6  276.37   44.16
   8   5   7  558.10   41.38
  -8  -5  -7  523.69   57.96
   8   5   8    5.26   17.98
  -8  -5  -8    2.61   23.93
   8   5   9  259.53   32.91
  -8  -5  -9  285.01   42.28
   8   5  10   15.68   20.14
  -8  -5 -10   15.06   23.08
   8   6  -4  280.79   38.99
  -8  -6   4  194.07   54.31
   8   6  -3   62.15   23.79
  -8  -6   3   64.91   16.53
   8   6  -2   10.49   16.14
   8   6  -1    5.59   15.38
  -8  -6   1   15.93   10.90
   8   6   0  138.88   21.58
  -8  -6   0  161.70   27.53
  -8  -6   0  139.82   23.49
   8   6   1   22.67   13.96
   8   6   1   27.47   16.70
  -8  -6  -1   74.83   28.20
   8   6   2   24.98   18.49
   8   6   2    1.31   13.62
  -8  -6  -2   47.26   22.81
   8   6   3   22.70   18.44
   8   6   3   -1.89   11.01
  -8  -6  -3   17.99   31.27
   8   6   4  148.54   29.42
   8   6   4   69.49   15.55
  -8  -6  -4  153.80   43.43
   8   6   5  905.58   60.39
   8   6   5  856.47   53.35
  -8  -6  -5  834.19   59.83
   8   6   6  485.41   43.88
  -8  -6  -6  455.61   42.61
   8   6   7  845.65   50.47
  -8  -6  -7  962.55   69.39
   8   6   8  148.17   31.62
  -8  -6  -8  128.21   29.75
   8   6   9    8.70   17.69
  -8  -6  -9   11.22   28.02
   8   7  -3   13.48   16.56
  -8  -7   3  -15.00   21.00
   8   7  -2   20.84   22.66
  -8  -7   2   33.07   13.51
   8   7  -1  159.13   25.90
  -8  -7   1  147.13   26.96
   8   7   0   63.17   21.10
   8   7   0   46.02   22.06
  -8  -7   0   40.87   26.53
   8   7   1   15.63   19.06
   8   7   1   33.07   15.14
  -8  -7  -1  -24.43   21.15
   8   7   2  398.54   37.20
   8   7   2  437.16   43.60
  -8  -7  -2  378.65   45.05
   8   7   3 3480.58  166.02
   8   7   3 3724.60   80.65
  -8  -7  -3 3792.32  100.77
   8   7   4   21.48   18.85
  -8  -7  -4   -1.77   24.84
   8   7   5  342.18   38.25
   8   7   5  364.91   31.87
  -8  -7  -5  340.90   41.85
   8   7   6  662.01   41.27
  -8  -7  -6  690.79   58.02
   8   7   7   45.84   21.42
  -8  -7  -7  143.39   38.63
   8   7   8   60.50   27.94
  -8  -7  -8  143.78   39.18
  -8  -7  -9    1.32   28.11
  -8  -8   3  248.29   51.19
   8   8  -1  351.86   42.72
   8   8   0   25.98   20.43
  -8  -8   0   -2.35   19.61
   8   8   1   67.60   21.72
  -8  -8  -1   55.10   24.92
   8   8   2 1213.07   61.03
  -8  -8  -2 1119.28   62.75
   8   8   3 2414.35   68.97
  -8  -8  -3 2420.47   84.98
   8   8   4   24.54   15.00
  -8  -8  -4  -13.51   25.19
   8   8   5   19.32   23.45
  -8  -8  -5    4.65   27.94
   8   8   6  145.79   26.24
  -8  -8  -6  129.40   35.40
  -8  -8  -7   15.14   32.95
  -8  -8  -8    7.93   27.41
   8   9  -2  141.43   30.98
   8   9  -1   93.39   33.31
   8   9   0   75.47   28.27
  -8  -9   0   33.73   25.57
   8   9   1   62.74   24.12
  -8  -9  -1  117.00   39.56
   8   9   2  466.06   40.24
  -8  -9  -2  371.30   46.32
   8   9   3  153.46   31.79
  -8  -9  -3  129.30   38.58
   8   9   4   28.03   18.58
  -8  -9  -4   96.04   40.25
   8   9   5  139.90   24.35
  -8  -9  -5  130.43   40.75
   8   9   6    5.95   15.13
  -8  -9  -6   59.54   42.99
  -8  -9  -7  342.91   50.02
   8  10   0  275.36   41.17
  -8 -10   0  305.29   40.04
   8  10   1  204.08   35.79
  -8 -10  -1  229.15   39.74
   8  10   2   15.63   18.08
  -8 -10  -2   -8.92   26.38
   8  10   3  134.15   26.95
  -8 -10  -3  206.62   42.00
   8  10   4   49.19   25.60
  -8 -10  -4  102.04   42.34
   8  10   5  214.91   36.32
  -8 -10  -5  197.51   42.01
   9   0   2   15.07   22.15
   9   0   3  118.36   35.33
  -9   0  -3  120.59   23.87
   9   0   4   53.88   33.40
  -9   0  -4   31.84   20.10
   9   0   5   41.40   28.03
  -9   0  -5   11.46   17.39
   9   0   6  245.95   51.61
  -9   0  -6  221.51   38.90
   9   1   0  930.03   69.30
   9   1   1   60.09   31.39
   9   1   2  298.45   45.89
   9   1   3  369.00   50.80
  -9  -1  -3  410.54   43.56
   9   1   4  581.88   60.33
  -9  -1  -4  519.21   48.50
   9   1   5   29.31   26.08
  -9  -1  -5   82.56   30.90
   9   1   6  233.03   37.06
  -9  -1  -6  296.05   38.79
   9   1   7  341.09   48.69
  -9  -1  -7  354.86   47.33
   9   1   8   45.11   26.28
   9   2  -1   69.53   26.14
  -9  -2   1   93.08   27.78
   9   2   0  425.81   52.01
  -9  -2   0  320.58   38.09
   9   2   1    8.45   20.65
   9   2   2   25.24   20.90
   9   2   3    8.05   21.01
  -9  -2  -3   68.31   32.37
   9   2   4  488.56   45.19
  -9  -2  -4  463.50   41.22
   9   2   5  512.80   44.94
  -9  -2  -5  521.14   42.85
   9   2   6   13.17   20.63
  -9  -2  -6   -2.94   20.50
   9   2   7  655.86   55.26
  -9  -2  -7  642.54   51.08
   9   2   8   67.04   37.27
  -9  -2  -8   72.49   32.11
   9   3  -1  218.37   40.15
  -9  -3   1  206.84   32.77
   9   3   0   82.70   38.67
  -9  -3   0   23.37   18.46
   9   3   1  245.56   44.48
  -9  -3  -1  106.88   24.27
   9   3   2   -1.73   21.82
  -9  -3  -2    7.45   15.92
   9   3   3  298.21   38.23
  -9  -3  -3  298.14   28.72
   9   3   4   38.48   35.38
  -9  -3  -4   34.05   30.49
   9   3   5  276.89   47.47
  -9  -3  -5  216.43   28.89
   9   3   6   49.15   30.29
  -9  -3  -6   92.90   32.16
   9   3   7    8.41   24.61
  -9  -3  -7   58.79   33.05
   9   3   8  708.72   56.89
  -9  -3  -8  664.65   56.87
   9   4  -1  181.53   33.75
  -9  -4   1  142.06   29.17
   9   4   0  549.20   54.97
  -9  -4   0  350.18   76.49
   9   4   1   90.52   27.78
  -9  -4  -1   39.43   18.15
   9   4   2  114.17   30.22
  -9  -4  -2  111.69   23.55
  -9  -4  -2   87.39   13.77
   9   4   3  433.82   41.93
  -9  -4  -3  423.97   36.62
   9   4   4   -7.40   19.85
  -9  -4  -4   19.39   20.46
   9   4   5  -27.72   18.24
  -9  -4  -5   12.88   29.46
   9   4   6  438.99   43.13
  -9  -4  -6  418.78   38.54
   9   4   7  431.44   52.52
  -9  -4  -7  450.76   46.93
   9   4   8  218.89   42.11
  -9  -4  -8  265.22   36.72
   9   4   9   60.01   32.33
   9   5  -1   16.55   19.60
  -9  -5   1   27.39   17.42
   9   5   0  597.42   55.21
  -9  -5   0  479.99   87.79
   9   5   1   89.43   26.42
  -9  -5  -1   32.93   15.83
   9   5   2   -4.09   17.57
  -9  -5  -2   -1.72   16.57
  -9  -5  -2   28.18   12.80
   9   5   3   27.70   26.51
  -9  -5  -3   32.09   20.22
   9   5   4  394.02   37.81
  -9  -5  -4  505.60   44.79
   9   5   5  269.50   36.27
  -9  -5  -5  275.68   43.12
   9   5   6  124.53   27.37
  -9  -5  -6   69.87   30.25
   9   5   7  755.42   65.38
  -9  -5  -7  798.22   69.72
   9   5   8   95.48   36.34
  -9  -5  -8  118.19   32.49
   9   6  -1   34.96   18.80
  -9  -6   1   32.64   17.56
   9   6   0   58.21   30.58
  -9  -6   0   70.78   16.71
   9   6   1   -0.63   15.70
  -9  -6  -1    7.60   16.92
  -9  -6  -1    2.79    8.48
   9   6   2  167.47   32.91
  -9  -6  -2  145.04   29.68
  -9  -6  -2   74.15   27.00
   9   6   3  131.15   31.79
  -9  -6  -3  163.18   34.73
  -9  -6  -3   68.10   23.96
   9   6   4   38.57   23.36
  -9  -6  -4   90.83   27.05
   9   6   5  303.55   38.39
  -9  -6  -5  407.22   46.30
  -9  -6  -6  102.29   36.47
   9   6   7  132.50   27.77
  -9  -6  -7  144.70   36.08
   9   6   8   58.45   21.20
  -9  -6  -8  112.44   34.15
   9   7  -1   56.02   23.70
  -9  -7   1   42.20   15.31
   9   7   0   23.35   17.83
  -9  -7   0   30.68   16.26
   9   7   1   70.19   22.34
  -9  -7  -1   35.10   28.25
  -9  -7  -1   48.47   20.51
   9   7   2   23.61   18.21
   9   7   2   30.30   19.22
  -9  -7  -2   -3.13   20.71
   9   7   3  122.53   25.76
   9   7   3  172.80   28.59
  -9  -7  -3  150.54   38.24
   9   7   4  301.28   34.41
  -9  -7  -4  246.79   36.21
   9   7   5  163.00   32.46
  -9  -7  -5  114.49   34.29
   9   7   6  272.30   33.67
  -9  -7  -6  268.88   38.40
  -9  -7  -7   -3.89   24.78
  -9  -8   0   61.67   19.99
   9   8   1   -3.71   17.10
  -9  -8  -1   -2.26   20.60
   9   8   2 1160.29   56.37
  -9  -8  -2 1283.21   66.42
   9   8   3   62.16   20.87
  -9  -8  -4  305.20   41.58
  -9  -8  -5    8.19   27.29
  -9  -8  -6  299.81   45.06
   9   9   2  167.49   30.23
  -9  -9  -2  136.20   37.12
   9   9   3   19.16   17.25
  -9  -9  -3   39.00   25.95
   9   9   4  170.24   32.33
  -9  -9  -4  161.53   38.66
;
loop_
_symmetry_equiv_pos_site_id
_space_group_symop_operation_xyz
1 +X,+Y,+Z
2 -X,-Y,-Z
loop_
_atom_site_label
_atom_site_type_symbol
_atom_site_fract_x
_atom_site_fract_y
_atom_site_fract_z
_atom_site_U_iso_or_equiv
_atom_site_adp_type
_atom_site_occupancy
_atom_site_site_symmetry_multiplicity
_atom_site_calc_flag
_atom_site_refinement_flags
_atom_site_disorder_assembly
_atom_site_disorder_group
P1 P 0.46952(6) 0.86344(4) 0.71304(4) 0.03533(15) Uani 1 2 d . . .
O1 O 0.65358(17) 0.86523(15) 0.61198(13) 0.0500(3) Uani 1 2 d . . .
N1 N 0.5925(2) 0.63042(17) 1.04677(17) 0.0504(4) Uani 1 2 d . . .
N2 N 0.0441(2) 1.29822(16) 0.81225(18) 0.0506(4) Uani 1 2 d . . .
C1 C 0.4807(2) 0.79706(17) 0.88150(16) 0.0371(3) Uani 1 2 d . . .
C2 C 0.3432(2) 0.90728(17) 0.99047(17) 0.0356(3) Uani 1 2 d . . .
C3 C 0.2269(2) 1.04821(17) 0.94119(17) 0.0356(3) Uani 1 2 d . . .
C4 C 0.2789(2) 1.04410(17) 0.79489(17) 0.0352(3) Uani 1 2 d . . .
C5 C 0.3484(2) 0.76750(17) 0.64608(16) 0.0360(3) Uani 1 2 d . . .
C6 C 0.6024(3) 0.66118(19) 0.91507(19) 0.0459(4) Uani 1 2 d . . .
C7 C 0.4606(3) 0.7374(2) 1.1480(2) 0.0506(4) Uani 1 2 d . . .
C8 C 0.3333(3) 0.8769(2) 1.12735(18) 0.0444(4) Uani 1 2 d . . .
C9 C 0.1852(3) 1.17213(18) 0.73527(19) 0.0429(4) Uani 1 2 d . . .
C10 C -0.0044(3) 1.29833(19) 0.9516(2) 0.0518(5) Uani 1 2 d . . .
C11 C 0.0824(3) 1.17753(19) 1.02117(19) 0.0450(4) Uani 1 2 d . . .
C12 C 0.3395(3) 0.6311(2) 0.6902(2) 0.0507(4) Uani 1 2 d . . .
C13 C 0.2361(4) 0.5662(3) 0.6391(3) 0.0676(6) Uani 1 2 d . . .
C14 C 0.1425(4) 0.6357(3) 0.5449(3) 0.0688(6) Uani 1 2 d . . .
C15 C 0.1515(3) 0.7704(3) 0.4992(3) 0.0622(5) Uani 1 2 d . . .
C16 C 0.2550(3) 0.8355(2) 0.5483(2) 0.0493(4) Uani 1 2 d . . .
H6 H 0.69466 0.58861 0.8428 0.0551 Uiso 1 2 calc R . .
H7 H 0.45373 0.71658 1.23968 0.0607 Uiso 1 2 calc R . .
H8 H 0.2446 0.94753 1.2022 0.0533 Uiso 1 2 calc R . .
H9 H 0.22177 1.17017 0.63839 0.0515 Uiso 1 2 calc R . .
H10 H -0.10284 1.38514 1.00543 0.0622 Uiso 1 2 calc R . .
H11 H 0.04433 1.18362 1.11826 0.0541 Uiso 1 2 calc R . .
H12 H 0.40284 0.58327 0.75401 0.0608 Uiso 1 2 calc R . .
H13 H 0.23023 0.47492 0.66901 0.0811 Uiso 1 2 calc R . .
H14 H 0.07261 0.59172 0.51168 0.0825 Uiso 1 2 calc R . .
H15 H 0.08785 0.81727 0.43524 0.0746 Uiso 1 2 calc R . .
H16 H 0.26267 0.92554 0.51602 0.0591 Uiso 1 2 calc R . .
loop_
_atom_site_aniso_label
_atom_site_aniso_U_11
_atom_site_aniso_U_22
_atom_site_aniso_U_33
_atom_site_aniso_U_12
_atom_site_aniso_U_13
_atom_site_aniso_U_23
P1 0.0354(2) 0.0338(2) 0.0342(2) -0.01132(16) -0.01043(17) 0.00791(15)
O1 0.0392(7) 0.0605(8) 0.0471(7) -0.0209(6) -0.0075(6) 0.0119(6)
N1 0.0577(9) 0.0416(8) 0.0501(9) -0.0108(7) -0.0261(8) 0.0151(7)
N2 0.0524(9) 0.0330(7) 0.0635(10) -0.0103(6) -0.0230(8) 0.0135(7)
C1 0.0395(8) 0.0334(8) 0.0377(8) -0.0114(6) -0.0150(7) 0.0081(6)
C2 0.0375(8) 0.0320(7) 0.0389(8) -0.0140(6) -0.0138(7) 0.0084(6)
C3 0.0360(8) 0.0309(7) 0.0405(8) -0.0131(6) -0.0130(7) 0.0074(6)
C4 0.0367(8) 0.0309(7) 0.0397(8) -0.0136(6) -0.0138(7) 0.0081(6)
C5 0.0356(8) 0.0340(8) 0.0317(7) -0.0106(6) -0.0048(6) 0.0028(6)
C6 0.0469(10) 0.0354(8) 0.0486(10) -0.0055(7) -0.0189(8) 0.0062(7)
C7 0.0630(12) 0.0477(10) 0.0425(9) -0.0183(9) -0.0234(9) 0.0164(8)
C8 0.0526(10) 0.0407(9) 0.0364(8) -0.0153(7) -0.0127(8) 0.0055(7)
C9 0.0487(9) 0.0364(8) 0.0472(9) -0.0168(7) -0.0203(8) 0.0140(7)
C10 0.0484(10) 0.0322(8) 0.0613(12) -0.0047(7) -0.0123(9) 0.0045(8)
C11 0.0452(9) 0.0366(8) 0.0451(9) -0.0114(7) -0.0083(8) 0.0036(7)
C12 0.0631(12) 0.0369(9) 0.0508(10) -0.0187(8) -0.0174(9) 0.0101(7)
C13 0.0874(16) 0.0487(11) 0.0775(15) -0.0400(11) -0.0237(13) 0.0125(10)
C14 0.0660(14) 0.0706(14) 0.0852(16) -0.0407(12) -0.0257(13) -0.0016(12)
C15 0.0622(13) 0.0694(14) 0.0702(13) -0.0305(11) -0.0357(11) 0.0131(11)
C16 0.0556(11) 0.0474(10) 0.0527(10) -0.0235(8) -0.0242(9) 0.0158(8)
loop_
_atom_type_symbol
_atom_type_description
_atom_type_scat_dispersion_real
_atom_type_scat_dispersion_imag
_atom_type_scat_source
C C 0.0033 0.0016
;
International Tables for Crystallography
(Vol. C, Tables 4.2.6.8 and 6.1.1.4)
;
H H 0.0000 0.0000
;
International Tables for Crystallography
(Vol. C, Table 6.1.1.4)
;
N N 0.0061 0.0033
;
International Tables for Crystallography
(Vol. C, Tables 4.2.6.8 and 6.1.1.4)
;
O O 0.0106 0.0060
;
International Tables for Crystallography
(Vol. C, Tables 4.2.6.8 and 6.1.1.4)
;
P P 0.1023 0.0942
;
International Tables for Crystallography
(Vol. C, Tables 4.2.6.8 and 6.1.1.4)
;
loop_
_geom_angle_atom_site_label_1
_geom_angle_atom_site_label_2
_geom_angle_atom_site_label_3
_geom_angle
_geom_angle_publ_flag
_geom_angle_site_symmetry_1
_geom_angle_site_symmetry_2
_geom_angle_site_symmetry_3
O1 P1 C1 117.54(9) yes . . .
O1 P1 C4 117.15(9) yes . . .
O1 P1 C5 114.85(9) yes . . .
C1 P1 C4 91.38(8) yes . . .
C1 P1 C5 107.43(9) yes . . .
C4 P1 C5 105.60(9) yes . . .
C6 N1 C7 117.19(16) yes . . .
C9 N2 C10 117.45(16) yes . . .
P1 C1 C2 110.94(12) yes . . .
P1 C1 C6 130.46(12) yes . . .
C2 C1 C6 118.59(16) yes . . .
C1 C2 C3 113.41(15) yes . . .
C1 C2 C8 118.97(14) yes . . .
C3 C2 C8 127.59(13) yes . . .
C2 C3 C4 113.17(12) yes . . .
C2 C3 C11 127.72(16) yes . . .
C4 C3 C11 119.10(15) yes . . .
P1 C4 C3 111.08(11) yes . . .
P1 C4 C9 130.18(13) yes . . .
C3 C4 C9 118.74(13) yes . . .
P1 C5 C12 122.80(16) yes . . .
P1 C5 C16 118.35(15) yes . . .
C12 C5 C16 118.8(2) yes . . .
N1 C6 C1 122.83(14) yes . . .
N1 C7 C8 125.14(19) yes . . .
C2 C8 C7 117.28(14) yes . . .
N2 C9 C4 122.54(17) yes . . .
N2 C10 C11 124.44(14) yes . . .
C3 C11 C10 117.71(17) yes . . .
C5 C12 C13 120.0(2) yes . . .
C12 C13 C14 120.5(2) yes . . .
C13 C14 C15 120.2(3) yes . . .
C14 C15 C16 119.9(2) yes . . .
C5 C16 C15 120.6(2) yes . . .
N1 C6 H6 118.584 no . . .
C1 C6 H6 118.584 no . . .
N1 C7 H7 117.428 no . . .
C8 C7 H7 117.430 no . . .
C2 C8 H8 121.366 no . . .
C7 C8 H8 121.359 no . . .
N2 C9 H9 118.731 no . . .
C4 C9 H9 118.729 no . . .
N2 C10 H10 117.774 no . . .
C11 C10 H10 117.785 no . . .
C3 C11 H11 121.141 no . . .
C10 C11 H11 121.146 no . . .
C5 C12 H12 120.013 no . . .
C13 C12 H12 119.997 no . . .
C12 C13 H13 119.774 no . . .
C14 C13 H13 119.773 no . . .
C13 C14 H14 119.895 no . . .
C15 C14 H14 119.898 no . . .
C14 C15 H15 120.028 no . . .
C16 C15 H15 120.038 no . . .
C5 C16 H16 119.713 no . . .
C15 C16 H16 119.717 no . . .
loop_
_geom_bond_atom_site_label_1
_geom_bond_atom_site_label_2
_geom_bond_distance
_geom_bond_publ_flag
_geom_bond_site_symmetry_1
_geom_bond_site_symmetry_2
P1 O1 1.4801(15) yes . .
P1 C1 1.811(2) yes . .
P1 C4 1.8096(16) yes . .
P1 C5 1.797(2) yes . .
N1 C6 1.337(3) yes . .
N1 C7 1.333(2) yes . .
N2 C9 1.342(2) yes . .
N2 C10 1.341(3) yes . .
C1 C2 1.403(2) yes . .
C1 C6 1.391(2) yes . .
C2 C3 1.481(2) yes . .
C2 C8 1.387(3) yes . .
C3 C4 1.405(3) yes . .
C3 C11 1.380(2) yes . .
C4 C9 1.393(2) yes . .
C5 C12 1.389(3) yes . .
C5 C16 1.397(3) yes . .
C7 C8 1.383(3) yes . .
C10 C11 1.390(3) yes . .
C12 C13 1.387(4) yes . .
C13 C14 1.371(4) yes . .
C14 C15 1.378(4) yes . .
C15 C16 1.377(4) yes . .
C6 H6 0.930 no . .
C7 H7 0.930 no . .
C8 H8 0.930 no . .
C9 H9 0.930 no . .
C10 H10 0.930 no . .
C11 H11 0.930 no . .
C12 H12 0.930 no . .
C13 H13 0.930 no . .
C14 H14 0.930 no . .
C15 H15 0.930 no . .
C16 H16 0.930 no . .
loop_
_geom_contact_atom_site_label_1
_geom_contact_atom_site_label_2
_geom_contact_distance
_geom_contact_publ_flag
_geom_contact_site_symmetry_1
_geom_contact_site_symmetry_2
O1 C6 3.581(3) no . .
O1 C9 3.567(2) no . .
O1 C16 3.428(3) no . .
N1 C2 2.790(3) no . .
N2 C3 2.792(3) no . .
C1 C7 2.701(3) no . .
C1 C12 3.190(3) no . .
C4 C10 2.710(2) no . .
C4 C16 3.325(3) no . .
C5 C14 2.776(4) no . .
C6 C8 2.741(3) no . .
C6 C12 3.543(4) no . .
C8 C11 3.171(3) no . .
C9 C11 2.746(3) no . .
C9 C16 3.564(4) no . .
C12 C15 2.767(4) no . .
C13 C16 2.755(4) no . .
O1 C9 3.323(3) no . 2_676
O1 C14 3.431(3) no . 1_655
O1 C15 3.407(3) no . 1_655
O1 C16 3.450(3) no . 2_676
N1 N1 3.576(3) no . 2_667
N1 C6 3.599(3) no . 2_667
N1 C10 3.410(3) no . 1_645
N1 C10 3.488(4) no . 2_677
N1 C11 3.532(3) no . 2_677
N2 C13 3.587(4) no . 1_565
C2 C2 3.541(3) no . 2_677
C3 C8 3.581(4) no . 2_677
C4 C7 3.558(4) no . 2_677
C6 N1 3.599(3) no . 2_667
C6 C11 3.536(4) no . 2_677
C7 C4 3.558(4) no . 2_677
C7 C15 3.566(4) no . 1_556
C8 C3 3.581(4) no . 2_677
C9 O1 3.323(3) no . 2_676
C10 N1 3.410(3) no . 1_465
C10 N1 3.488(4) no . 2_677
C11 N1 3.532(3) no . 2_677
C11 C6 3.536(4) no . 2_677
C11 C12 3.536(3) no . 2_577
C12 C11 3.536(3) no . 2_577
C13 N2 3.587(4) no . 1_545
C14 O1 3.431(3) no . 1_455
C15 O1 3.407(3) no . 1_455
C15 C7 3.566(4) no . 1_554
C16 O1 3.450(3) no . 2_676
P1 H6 3.0634 no . .
P1 H9 3.0604 no . .
P1 H12 2.9146 no . .
P1 H16 2.8200 no . .
O1 H6 3.4643 no . .
O1 H9 3.4435 no . .
O1 H16 3.2745 no . .
N1 H8 3.2389 no . .
N2 H11 3.2446 no . .
C1 H8 3.2549 no . .
C1 H12 2.7847 no . .
C2 H6 3.2382 no . .
C2 H7 3.1979 no . .
C2 H11 2.7924 no . .
C3 H8 2.8004 no . .
C3 H9 3.2429 no . .
C3 H10 3.2027 no . .
C4 H11 3.2506 no . .
C4 H16 3.1170 no . .
C5 H13 3.2411 no . .
C5 H15 3.2480 no . .
C6 H7 3.1125 no . .
C6 H12 2.8259 no . .
C7 H6 3.1188 no . .
C8 H11 2.9639 no . .
C9 H10 3.1275 no . .
C9 H16 3.0466 no . .
C10 H9 3.1330 no . .
C11 H8 2.9695 no . .
C12 H6 3.4136 no . .
C12 H14 3.2316 no . .
C12 H16 3.2380 no . .
C13 H15 3.2216 no . .
C14 H12 3.2300 no . .
C14 H16 3.2234 no . .
C15 H13 3.2211 no . .
C16 H9 3.2559 no . .
C16 H12 3.2410 no . .
C16 H14 3.2244 no . .
H6 H12 2.6723 no . .
H7 H8 2.2960 no . .
H8 H11 2.5027 no . .
H9 H16 2.5500 no . .
H10 H11 2.3045 no . .
H12 H13 2.3133 no . .
H13 H14 2.2962 no . .
H14 H15 2.3074 no . .
H15 H16 2.3039 no . .
P1 H9 3.5658 no . 2_676
O1 H8 3.0795 no . 2_677
O1 H9 2.3983 no . 2_676
O1 H14 3.1812 no . 1_655
O1 H15 3.1384 no . 1_655
O1 H16 2.5348 no . 2_676
N1 H6 3.5213 no . 2_667
N1 H10 2.5533 no . 1_645
N1 H12 2.8250 no . 2_667
N1 H13 3.4983 no . 2_667
N2 H6 2.9988 no . 1_465
N2 H13 2.7280 no . 1_565
N2 H15 3.3186 no . 2_576
C4 H7 3.5618 no . 2_677
C5 H11 3.1088 no . 2_577
C6 H10 3.0926 no . 1_645
C6 H11 3.4889 no . 2_677
C7 H12 3.0905 no . 2_667
C7 H13 3.4617 no . 2_667
C7 H15 3.2662 no . 1_556
C8 H15 3.2715 no . 1_556
C9 H7 3.4034 no . 2_677
C9 H13 3.0821 no . 1_565
C9 H15 3.0626 no . 2_576
C10 H6 3.2883 no . 1_465
C10 H10 3.5007 no . 2_587
C10 H12 3.4037 no . 2_577
C12 H7 3.2700 no . 2_667
C12 H10 3.0938 no . 2_577
C12 H11 2.9016 no . 2_577
C13 H7 3.3514 no . 2_667
C13 H10 3.4105 no . 2_577
C13 H11 3.1080 no . 2_577
C14 H7 3.5525 no . 1_554
C14 H11 3.4827 no . 2_577
C14 H14 3.3419 no . 2_566
C15 H7 2.8328 no . 1_554
C15 H8 3.4186 no . 1_554
C15 H9 3.4078 no . 2_576
C15 H16 3.4573 no . 2_576
C16 H7 3.0569 no . 1_554
C16 H11 3.5004 no . 2_577
C16 H15 3.3509 no . 2_576
H6 N1 3.5213 no . 2_667
H6 N2 2.9988 no . 1_645
H6 C10 3.2883 no . 1_645
H6 H10 2.8259 no . 1_645
H6 H11 3.5746 no . 2_677
H7 C4 3.5618 no . 2_677
H7 C9 3.4034 no . 2_677
H7 C12 3.2700 no . 2_667
H7 C13 3.3514 no . 2_667
H7 C14 3.5525 no . 1_556
H7 C15 2.8328 no . 1_556
H7 C16 3.0569 no . 1_556
H7 H9 3.5895 no . 2_677
H7 H12 2.6707 no . 2_667
H7 H13 2.8318 no . 2_667
H7 H15 2.7318 no . 1_556
H7 H16 3.0948 no . 1_556
H8 O1 3.0795 no . 2_677
H8 C15 3.4186 no . 1_556
H8 H15 2.7907 no . 1_556
H8 H16 3.2055 no . 1_556
H9 P1 3.5658 no . 2_676
H9 O1 2.3983 no . 2_676
H9 C15 3.4078 no . 2_576
H9 H7 3.5895 no . 2_677
H9 H13 2.9742 no . 1_565
H9 H14 3.2559 no . 2_576
H9 H15 2.6610 no . 2_576
H9 H16 3.5520 no . 2_676
H10 N1 2.5533 no . 1_465
H10 C6 3.0926 no . 1_465
H10 C10 3.5007 no . 2_587
H10 C12 3.0938 no . 2_577
H10 C13 3.4105 no . 2_577
H10 H6 2.8259 no . 1_465
H10 H10 3.1416 no . 2_587
H10 H12 2.7281 no . 2_577
H10 H13 3.2956 no . 2_577
H11 C5 3.1088 no . 2_577
H11 C6 3.4889 no . 2_677
H11 C12 2.9016 no . 2_577
H11 C13 3.1080 no . 2_577
H11 C14 3.4827 no . 2_577
H11 C16 3.5004 no . 2_577
H11 H6 3.5746 no . 2_677
H11 H12 3.1937 no . 2_577
H11 H13 3.5010 no . 2_577
H12 N1 2.8250 no . 2_667
H12 C7 3.0905 no . 2_667
H12 C10 3.4037 no . 2_577
H12 H7 2.6707 no . 2_667
H12 H10 2.7281 no . 2_577
H12 H11 3.1937 no . 2_577
H13 N1 3.4983 no . 2_667
H13 N2 2.7280 no . 1_545
H13 C7 3.4617 no . 2_667
H13 C9 3.0821 no . 1_545
H13 H7 2.8318 no . 2_667
H13 H9 2.9742 no . 1_545
H13 H10 3.2956 no . 2_577
H13 H11 3.5010 no . 2_577
H13 H14 3.5910 no . 2_566
H14 O1 3.1812 no . 1_455
H14 C14 3.3419 no . 2_566
H14 H9 3.2559 no . 2_576
H14 H13 3.5910 no . 2_566
H14 H14 2.4612 no . 2_566
H15 O1 3.1384 no . 1_455
H15 N2 3.3186 no . 2_576
H15 C7 3.2662 no . 1_554
H15 C8 3.2715 no . 1_554
H15 C9 3.0626 no . 2_576
H15 C16 3.3509 no . 2_576
H15 H7 2.7318 no . 1_554
H15 H8 2.7907 no . 1_554
H15 H9 2.6610 no . 2_576
H15 H15 3.3840 no . 2_576
H15 H16 2.8039 no . 2_576
H16 O1 2.5348 no . 2_676
H16 C15 3.4573 no . 2_576
H16 H7 3.0948 no . 1_554
H16 H8 3.2055 no . 1_554
H16 H9 3.5520 no . 2_676
H16 H15 2.8039 no . 2_576
loop_
_geom_torsion_atom_site_label_1
_geom_torsion_atom_site_label_2
_geom_torsion_atom_site_label_3
_geom_torsion_atom_site_label_4
_geom_torsion
_geom_torsion_publ_flag
_geom_torsion_site_symmetry_1
_geom_torsion_site_symmetry_2
_geom_torsion_site_symmetry_3
_geom_torsion_site_symmetry_4
O1 P1 C1 C2 123.01(12) no . . . .
O1 P1 C1 C6 -55.6(2) no . . . .
O1 P1 C4 C3 -123.69(12) no . . . .
O1 P1 C4 C9 55.3(2) no . . . .
O1 P1 C5 C12 110.62(11) no . . . .
O1 P1 C5 C16 -71.15(11) no . . . .
C1 P1 C4 C3 -1.54(13) no . . . .
C1 P1 C4 C9 177.50(18) no . . . .
C4 P1 C1 C2 1.18(14) no . . . .
C4 P1 C1 C6 -177.47(18) no . . . .
C1 P1 C5 C12 -22.19(11) no . . . .
C1 P1 C5 C16 156.04(8) no . . . .
C5 P1 C1 C2 -105.65(13) no . . . .
C5 P1 C1 C6 75.70(19) no . . . .
C4 P1 C5 C12 -118.73(11) no . . . .
C4 P1 C5 C16 59.51(11) no . . . .
C5 P1 C4 C3 106.99(13) no . . . .
C5 P1 C4 C9 -73.97(18) no . . . .
C6 N1 C7 C8 0.3(4) no . . . .
C7 N1 C6 C1 -0.9(3) no . . . .
C9 N2 C10 C11 0.5(3) no . . . .
C10 N2 C9 C4 0.6(3) no . . . .
P1 C1 C2 C3 -0.5(2) no . . . .
P1 C1 C2 C8 -178.91(12) no . . . .
P1 C1 C6 N1 179.33(15) no . . . .
C2 C1 C6 N1 0.8(3) no . . . .
C6 C1 C2 C3 178.28(17) no . . . .
C6 C1 C2 C8 -0.1(3) no . . . .
C1 C2 C3 C4 -0.6(2) no . . . .
C1 C2 C3 C11 -179.37(17) no . . . .
C1 C2 C8 C7 -0.4(3) no . . . .
C3 C2 C8 C7 -178.54(18) no . . . .
C8 C2 C3 C4 177.56(19) no . . . .
C8 C2 C3 C11 -1.2(3) no . . . .
C2 C3 C4 P1 1.5(2) no . . . .
C2 C3 C4 C9 -177.65(16) no . . . .
C2 C3 C11 C10 178.45(18) no . . . .
C4 C3 C11 C10 -0.2(3) no . . . .
C11 C3 C4 P1 -179.64(16) no . . . .
C11 C3 C4 C9 1.2(3) no . . . .
P1 C4 C9 N2 179.60(14) no . . . .
C3 C4 C9 N2 -1.4(3) no . . . .
P1 C5 C12 C13 177.08(9) no . . . .
P1 C5 C16 C15 -176.66(9) no . . . .
C12 C5 C16 C15 1.6(2) no . . . .
C16 C5 C12 C13 -1.2(2) no . . . .
N1 C7 C8 C2 0.4(4) no . . . .
N2 C10 C11 C3 -0.7(3) no . . . .
C5 C12 C13 C14 0.1(3) no . . . .
C12 C13 C14 C15 0.5(3) no . . . .
C13 C14 C15 C16 0.0(3) no . . . .
C14 C15 C16 C5 -1.1(3) no . . . .
