#------------------------------------------------------------------------------
#$Date: 2020-07-06 04:42:50 +0300 (Mon, 06 Jul 2020) $
#$Revision: 253771 $
#$URL: file:///home/coder/svn-repositories/cod/cif/7/12/65/7126560.cif $
#------------------------------------------------------------------------------
#
# This file is available in the Crystallography Open Database (COD),
# http://www.crystallography.net/
#
# All data on this site have been placed in the public domain by the
# contributors.
#
data_7126560
loop_
_publ_author_name
'Ai, Yong'
'Wu, Dong-Ji'
'Yang, Meng-Juan'
'Wang, Pan'
'He, Wen-Hui'
'Liao, Wei-Qiang'
_publ_section_title
;
 Highest-T<sub>c</sub> organic enantiomeric ferroelectrics obtained by F/H
 substitution.
;
_journal_issue                   51
_journal_name_full
'Chemical communications (Cambridge, England)'
_journal_page_first              7033
_journal_page_last               7036
_journal_paper_doi               10.1039/d0cc02547j
_journal_volume                  56
_journal_year                    2020
_chemical_absolute_configuration rm
_chemical_formula_moiety         'C6 H13 F N, I'
_chemical_formula_sum            'C6 H13 F I N'
_chemical_formula_weight         245.07
_space_group_crystal_system      monoclinic
_space_group_IT_number           4
_space_group_name_Hall           'P 2yb'
_space_group_name_H-M_alt        'P 1 21 1'
_atom_sites_solution_hydrogens   geom
_audit_creation_method           SHELXL-2014/7
_audit_update_record
;
2020-04-07 deposited with the CCDC.	2020-05-18 downloaded from the CCDC.
;
_cell_angle_alpha                90
_cell_angle_beta                 105.571(4)
_cell_angle_gamma                90
_cell_formula_units_Z            2
_cell_length_a                   5.9585(2)
_cell_length_b                   7.6205(3)
_cell_length_c                   10.1558(4)
_cell_measurement_reflns_used    3240
_cell_measurement_temperature    293(2)
_cell_measurement_theta_max      30.5840
_cell_measurement_theta_min      2.6610
_cell_volume                     444.22(3)
_computing_cell_refinement       'CrysAlisPro 1.171.39.46 (Rigaku OD, 2018)'
_computing_data_collection       'CrysAlisPro 1.171.39.46 (Rigaku OD, 2018)'
_computing_data_reduction        'CrysAlisPro 1.171.39.46 (Rigaku OD, 2018)'
_computing_molecular_graphics    'DIAMOND (Brandenburg & Putz, 2005)'
_computing_publication_material  'SHELXL-2014/7 (Sheldrick, 2014)'
_computing_structure_refinement  'SHELXL-2014/7 (Sheldrick, 2014)'
_computing_structure_solution    'SHELXL-2014/7 (Sheldrick, 2014)'
_diffrn_ambient_temperature      293(2)
_diffrn_measured_fraction_theta_full 0.999
_diffrn_measured_fraction_theta_max 0.999
_diffrn_measurement_device_type  'XtaLAB Synergy R, DW system, HyPix'
_diffrn_measurement_method       'four-circle diffractometer'
_diffrn_radiation_type           MoK\a
_diffrn_radiation_wavelength     0.71073
_diffrn_reflns_av_R_equivalents  0.0082
_diffrn_reflns_av_unetI/netI     0.0104
_diffrn_reflns_Laue_measured_fraction_full 0.999
_diffrn_reflns_Laue_measured_fraction_max 0.999
_diffrn_reflns_limit_h_max       6
_diffrn_reflns_limit_h_min       -7
_diffrn_reflns_limit_k_max       8
_diffrn_reflns_limit_k_min       -9
_diffrn_reflns_limit_l_max       9
_diffrn_reflns_limit_l_min       -12
_diffrn_reflns_number            3005
_diffrn_reflns_point_group_measured_fraction_full 0.999
_diffrn_reflns_point_group_measured_fraction_max 0.999
_diffrn_reflns_theta_full        25.242
_diffrn_reflns_theta_max         25.999
_diffrn_reflns_theta_min         3.389
_diffrn_source                   'Rotating-anode X-ray tube'
_exptl_absorpt_coefficient_mu    3.547
_exptl_absorpt_correction_T_max  0.475
_exptl_absorpt_correction_T_min  0.463
_exptl_absorpt_correction_type   multi-scan
_exptl_absorpt_process_details   'CrysAlisPro 1.171.39.46 (Rigaku OD, 2018)'
_exptl_crystal_colour            colourless
_exptl_crystal_density_diffrn    1.832
_exptl_crystal_description       block
_exptl_crystal_F_000             236
_exptl_crystal_size_max          0.220
_exptl_crystal_size_mid          0.210
_exptl_crystal_size_min          0.210
_refine_diff_density_max         0.437
_refine_diff_density_min         -0.732
_refine_diff_density_rms         0.102
_refine_ls_abs_structure_details
;
 Refined as an inversion twin.
;
_refine_ls_abs_structure_Flack   0.03(6)
_refine_ls_extinction_method     none
_refine_ls_goodness_of_fit_ref   1.002
_refine_ls_hydrogen_treatment    constr
_refine_ls_matrix_type           full
_refine_ls_number_parameters     85
_refine_ls_number_reflns         1746
_refine_ls_number_restraints     1
_refine_ls_restrained_S_all      1.002
_refine_ls_R_factor_all          0.0186
_refine_ls_R_factor_gt           0.0184
_refine_ls_shift/su_max          0.000
_refine_ls_shift/su_mean         0.000
_refine_ls_structure_factor_coef Fsqd
_refine_ls_weighting_details
'w=1/[\s^2^(Fo^2^)+(0.0283P)^2^+0.3793P] where P=(Fo^2^+2Fc^2^)/3'
_refine_ls_weighting_scheme      calc
_refine_ls_wR_factor_gt          0.0473
_refine_ls_wR_factor_ref         0.0474
_reflns_Friedel_coverage         0.852
_reflns_Friedel_fraction_full    1.000
_reflns_Friedel_fraction_max     1.000
_reflns_number_gt                1556
_reflns_number_total             1746
_reflns_threshold_expression     'I > 2\s(I)'
_cod_data_source_file            d0cc02547j2.cif
_cod_data_source_block           S_P21
_cod_depositor_comments
'Adding full bibliography for 7126557--7126560.cif.'
_cod_original_sg_symbol_H-M      'P 21'
_cod_database_code               7126560
_shelx_shelxl_version_number     2014/7
_shelx_space_group_comment
;
The symmetry employed for this shelxl refinement is uniquely defined
by the following loop, which should always be used as a source of
symmetry information in preference to the above space-group names.
They are only intended as comments.
;
_shelx_estimated_absorpt_t_min   0.509
_shelx_estimated_absorpt_t_max   0.523
_shelx_res_file
;

    S_P21.res created by SHELXL-2014/7

TITL P21 in P2(1)
CELL 0.71073   5.9585   7.6205  10.1558  90.000 105.571  90.000
ZERR    2.00   0.0002   0.0003   0.0004   0.000   0.004   0.000
LATT -1
SYMM -X, 0.5+Y, -Z
SFAC C  H  N  F  I
UNIT 12 26 2 2 2
OMIT   0.00  52.00
L.S. 15
ACTA
BOND
FMAP 2
PLAN 2
HTAB C6 I1_$1
HTAB C6 I1_$3
HTAB C5 I1_$3
EQIV $3 -x+1, y-1/2, -z+1
HTAB C5 F1
HTAB C3 I1_$1
HTAB C3 I1_$2
EQIV $2 x+1, y, z+1
HTAB C1 I1_$1
EQIV $1 -x+1, y+1/2, -z+1
TWIN
SIZE 0.22 0.21 0.21
CONF
TEMP 20
WGHT    0.028300    0.379300
BASF   0.02792
FVAR       0.33237
MOLE 1
I1    5    0.033690    0.717880    0.323652    11.00000    0.04043    0.03826 =
         0.04702    0.00167    0.01020    0.00316
N1    3    0.597932    0.707968    0.718720    11.00000    0.03002    0.03180 =
         0.03412    0.00090    0.00651    0.00268
F1    4    0.372144    0.835094    0.933687    11.00000    0.09179    0.10123 =
         0.07171    0.01140    0.05635    0.01195
C1    1    0.464396    0.878127    0.719489    11.00000    0.03944    0.03257 =
         0.03753    0.00262    0.01369    0.00663
AFIX  23
H1A   2    0.298567    0.860156    0.680851    11.00000   -1.20000
H1B   2    0.517090    0.968349    0.667352    11.00000   -1.20000
AFIX   0
C2    1    0.516986    0.929474    0.869662    11.00000    0.07705    0.04898 =
         0.04233   -0.00453    0.02432    0.00246
AFIX  13
H2    2    0.500427    1.056288    0.880068    11.00000   -1.20000
AFIX   0
C3    1    0.763654    0.872520    0.927086    11.00000    0.07555    0.07698 =
         0.03353   -0.00303    0.00092   -0.01791
AFIX  23
H3A   2    0.796030    0.851330    1.024570    11.00000   -1.20000
H3B   2    0.870238    0.961496    0.911679    11.00000   -1.20000
AFIX   0
C4    1    0.788532    0.704907    0.852283    11.00000    0.04232    0.07995 =
         0.05080    0.01117   -0.00863    0.00436
AFIX  23
H4A   2    0.770849    0.603433    0.906287    11.00000   -1.20000
H4B   2    0.940634    0.699667    0.834799    11.00000   -1.20000
AFIX   0
C5    1    0.440169    0.553186    0.712070    11.00000    0.05773    0.04646 =
         0.08531    0.00444    0.02371   -0.01126
AFIX 137
H5A   2    0.317058    0.557687    0.628785    11.00000   -1.50000
H5B   2    0.374759    0.555823    0.788744    11.00000   -1.50000
H5C   2    0.527619    0.446887    0.714419    11.00000   -1.50000
AFIX   0
C6    1    0.695565    0.713892    0.597445    11.00000    0.05764    0.04988 =
         0.04976    0.00002    0.02825    0.01051
AFIX 137
H6A   2    0.570888    0.728079    0.515706    11.00000   -1.50000
H6B   2    0.776951    0.606496    0.592219    11.00000   -1.50000
H6C   2    0.801450    0.810899    0.606658    11.00000   -1.50000
AFIX   0
HKLF 4

REM  P21 in P2(1)
REM R1 =  0.0184 for    1556 Fo > 4sig(Fo)  and  0.0186 for all    1576 data
REM     85 parameters refined using      1 restraints

END

WGHT      0.0277      0.1537

REM Highest difference peak  0.437,  deepest hole -0.732,  1-sigma level  0.102
Q1    1   0.0769  0.7167  0.2583  11.00000  0.05    0.44
Q2    1   0.9204  0.5950  0.8259  11.00000  0.05    0.24
;
_shelx_res_checksum              47713
_shelx_hkl_file
;
   0 -10  -1    3.81    0.33
   0 -10  -2    6.06    0.40
   0 -10  -3   12.65    0.55
   0 -10  -4    1.45    0.21
   0  -9   0    0.04    0.12
   0  -9  -1   25.74    0.77
   0  -9  -2   20.26    0.68
   0  -9  -3    2.42    0.25
   0  -9  -4   23.32    0.73
   0  -9  -5    6.47    0.39
   0  -9  -6    1.55    0.21
   0  -8   0   79.98    1.28
   0  -8  -1   13.80    0.54
   0  -8   1   13.85    0.54
   0  -8  -2   21.18    0.66
   0  -8  -3   50.07    1.01
   0  -8  -4    3.24    0.27
   0  -8  -5   15.38    0.57
   0  -7   0    0.04    0.09
   0  -7  -1   53.04    0.97
   0  -7  -1   53.44    1.01
   0  -7   1   53.96    1.00
   0  -7  -2   46.20    0.96
   0  -7  -2   44.74    0.90
   0  -7  -3    1.31    0.17
   0  -7  -3    1.67    0.21
   0  -7   4   47.59    0.43
   0  -7  -4   47.66    0.45
   0  -7  -5   34.39    0.51
   0  -7   5   34.30    0.49
   0  -7   6    3.78    0.20
   0  -7  -6    3.73    0.21
   0  -7  -7   30.09    0.62
   0  -7  -8   10.20    0.40
   0  -6   0  303.92    2.24
   0  -6   0  303.07    2.21
   0  -6  -1   42.11    0.80
   0  -6   1   42.82    0.82
   0  -6  -1   44.10    0.86
   0  -6   2   93.69    1.23
   0  -6  -2   90.65    1.19
   0  -6  -2   93.25    1.28
   0  -6  -3  159.63    0.80
   0  -6   3  159.15    0.77
   0  -6  -3  158.28    1.74
   0  -6   4    5.16    0.18
   0  -6  -4    5.51    0.20
   0  -6  -5   66.15    0.79
   0  -6   5   67.23    0.77
   0  -6   6   44.81    0.70
   0  -6  -6   44.95    0.73
   0  -6  -7    0.58    0.12
   0  -6   7    0.94    0.14
   0  -6   8   23.44    0.61
   0  -6  -8   23.72    0.63
   0  -6   9    7.84    0.38
   0  -6  -9    8.00    0.39
   0  -6 -10    0.48    0.16
   0  -6 -11    5.03    0.35
   0  -5   0    0.01    0.06
   0  -5   0   -0.01    0.07
   0  -5  -1  128.74    1.30
   0  -5   1  130.83    1.32
   0  -5  -1  133.42    1.38
   0  -5   2  142.73    0.60
   0  -5  -2  141.71    0.62
   0  -5  -3    4.19    0.15
   0  -5   3    4.49    0.15
   0  -5   4  172.90    1.15
   0  -5  -4  172.56    1.19
   0  -5   5   55.93    0.74
   0  -5  -5   54.64    0.75
   0  -5  -6    3.67    0.23
   0  -5   6    3.38    0.21
   0  -5  -7   84.63    1.12
   0  -5   7   84.81    1.10
   0  -5  -8   26.69    0.68
   0  -5   8   26.31    0.66
   0  -5   9    9.76    0.44
   0  -5  -9   10.01    0.45
   0  -5 -10   21.42    0.68
   0  -5 -11    3.22    0.31
   0  -4   0  424.10    2.21
   0  -4   0  431.74    2.28
   0  -4   1  143.31    1.25
   0  -4  -1  144.50    1.30
   0  -4   2  194.15    0.86
   0  -4  -2  194.09    0.90
   0  -4   3  244.86    1.23
   0  -4  -3  244.75    1.30
   0  -4   4   32.43    0.50
   0  -4  -4   32.82    0.54
   0  -4  -5   93.25    1.01
   0  -4   5   92.97    0.97
   0  -4  -6  148.86    1.42
   0  -4   6  151.78    1.38
   0  -4   7    1.86    0.19
   0  -4  -7    1.88    0.19
   0  -4  -8   32.05    0.74
   0  -4   8   31.86    0.72
   0  -4  -9   32.56    0.80
   0  -4   9   31.63    0.77
   0  -4 -10    0.25    0.13
   0  -4 -11   15.81    0.62
   0  -3   0    0.92    0.09
   0  -3   0    0.25    0.06
   0  -3   1  534.39    1.31
   0  -3  -1  534.94    1.32
   0  -3  -2  246.95    1.11
   0  -3   2  248.08    1.06
   0  -3  -3   11.43    0.27
   0  -3   3   11.89    0.27
   0  -3   4  483.18    2.11
   0  -3  -4  465.98    2.18
   0  -3  -5   80.02    0.93
   0  -3   5   83.74    0.93
   0  -3  -6   25.77    0.58
   0  -3   6   26.15    0.56
   0  -3   7  141.89    1.45
   0  -3  -7  141.76    1.50
   0  -3   8   37.20    0.79
   0  -3  -8   37.00    0.81
   0  -3  -9   19.34    0.62
   0  -3   9   19.30    0.60
   0  -3 -10   28.88    0.80
   0  -3 -11    3.77    0.32
   0  -2   0  887.78    2.73
   0  -2  -1  307.04    0.96
   0  -2   1  302.54    0.91
   0  -2  -2  283.40    1.23
   0  -2   2  281.41    1.16
   0  -2  -3  495.26    2.03
   0  -2   3  504.56    1.96
   0  -2   4   36.07    0.55
   0  -2  -4   35.44    0.57
   0  -2  -5  142.33    1.27
   0  -2   5  144.29    1.23
   0  -2   6  203.83    1.62
   0  -2  -6  204.22    1.67
   0  -2   7    4.68    0.27
   0  -2  -7    2.68    0.21
   0  -2  -8   76.80    1.16
   0  -2   8   77.68    1.13
   0  -2  -9   35.78    0.85
   0  -2   9   35.40    0.81
   0  -2 -10    0.86    0.19
   0  -2 -11   19.87    0.70
   0  -2 -12    8.05    0.47
   0  -1   0    0.08    0.02
   0  -1   1  167.83    0.65
   0  -1  -1  168.59    0.67
   0  -1   2  565.43    1.82
   0  -1  -2  562.62    1.85
   0  -1   3  117.10    0.89
   0  -1  -3  120.18    0.91
   0  -1   4  357.90    1.85
   0  -1  -4  365.14    1.88
   0  -1   5  242.73    1.63
   0  -1  -5  240.51    1.69
   0  -1  -6   19.14    0.51
   0  -1   6   18.65    0.48
   0  -1   7  203.60    1.73
   0  -1  -7  204.22    1.80
   0  -1   8   69.34    1.07
   0  -1  -8   66.85    1.07
   0  -1   9   14.35    0.52
   0  -1  -9   14.59    0.55
   0  -1 -10   65.10    1.20
   0  -1 -11    4.29    0.34
   0  -1 -12    4.66    0.37
   0   0  -2  469.88    1.66
   0   0   2  469.98    1.65
   0   0  -3  810.07    2.72
   0   0   3  808.68    2.68
   0   0  -4   84.34    0.86
   0   0   4   81.89    0.85
   0   0  -5  447.57    2.37
   0   0   5  452.56    2.30
   0   0  -6  144.35    1.42
   0   0   6  148.27    1.38
   0   0  -7    1.46    0.17
   0   0   7    1.47    0.17
   0   0   8  101.33    1.31
   0   0  -8   98.87    1.31
   0   0  -9   22.05    0.67
   0   0   9   22.74    0.66
   0   0 -10    0.66    0.18
   0   0 -11   22.39    0.75
   0   0 -12    6.71    0.44
   0   1   0    0.18    0.02
   0   1  -1  161.22    0.83
   0   2   0  895.66    2.75
   0   2   1  298.20    0.95
   0   2  -1  297.74    0.97
   0   2   2  275.48    1.21
   0   2  -2  279.65    1.52
   0   2  -2  276.11    1.25
   0   2  -3  504.04    2.10
   0   2   3  506.58    2.02
   0   2  -3  507.42    2.33
   0   2  -4   36.13    0.59
   0   2   4   36.53    0.57
   0   2   5  151.93    1.30
   0   2  -5  147.93    1.34
   0   2  -6  201.49    1.71
   0   2   6  204.97    1.65
   0   2   7    3.01    0.23
   0   2  -7    5.35    0.30
   0   2   8   80.35    1.19
   0   2  -8   78.68    1.21
   0   2  -9   34.67    0.85
   0   2   9   35.18    0.83
   0   2 -10    0.65    0.17
   0   2 -11   19.77    0.71
   0   2 -12    8.24    0.48
   0   3   1  535.42    1.35
   0   3  -1  535.05    1.37
   0   3  -1  536.95    2.36
   0   3   2  248.33    1.11
   0   3  -2  246.89    1.16
   0   3  -3   11.82    0.37
   0   3  -3   11.48    0.28
   0   3  -4  489.54    2.67
   0   3   4  483.91    2.23
   0   3  -5   87.43    1.17
   0   3   5   89.99    1.00
   0   3   6   27.71    0.60
   0   3  -6   27.48    0.62
   0   3   7  143.35    1.52
   0   3  -7  140.94    1.54
   0   3   8   38.48    0.83
   0   3  -8   37.13    0.84
   0   3  -9   19.44    0.65
   0   3   9   18.24    0.61
   0   3 -10   31.95    0.86
   0   3 -11    4.11    0.34
   0   4   2  194.06    0.90
   0   4  -2  195.73    1.58
   0   4  -2  193.31    0.93
   0   4  -3  250.81    1.92
   0   4   3  248.19    1.30
   0   4  -4   31.32    0.55
   0   4   4   31.85    0.53
   0   4  -5   92.83    1.27
   0   4   5   90.61    1.01
   0   4   6  152.83    1.45
   0   4  -6  150.89    1.49
   0   4  -6  151.78    1.74
   0   4  -7    2.13    0.21
   0   4   7    2.16    0.20
   0   4   8   33.03    0.77
   0   4  -8   34.27    0.81
   0   4  -9   33.67    0.85
   0   4   9   32.99    0.82
   0   4 -10    0.27    0.15
   0   4 -11   16.20    0.65
   0   5  -2  140.21    0.65
   0   5   2  142.74    0.66
   0   5   3    4.02    0.15
   0   5  -3    3.64    0.15
   0   5  -3    3.77    0.26
   0   5   4  174.97    1.22
   0   5  -4  172.01    1.25
   0   5  -4  169.92    1.67
   0   5   5   52.93    0.76
   0   5  -5   54.08    1.05
   0   5  -6    3.60    0.30
   0   5   6    3.22    0.22
   0   5  -6    3.09    0.22
   0   5  -7   87.40    1.45
   0   5  -7   83.78    1.17
   0   5   7   84.38    1.15
   0   5  -8   25.79    0.70
   0   5   8   26.54    0.69
   0   5  -9   10.06    0.47
   0   5   9    9.81    0.46
   0   5 -10   20.61    0.70
   0   5 -11    3.45    0.32
   0   6   3  158.50    0.85
   0   6  -3  157.45    0.84
   0   6  -4    5.51    0.35
   0   6   4    5.29    0.20
   0   6  -4    5.08    0.19
   0   6  -4    5.19    0.33
   0   6  -5   63.96    0.81
   0   6  -5   64.40    1.13
   0   6   5   64.69    0.80
   0   6  -6   42.22    0.93
   0   6  -6   43.63    0.75
   0   6   6   43.69    0.73
   0   6   7    0.75    0.14
   0   6  -7    0.90    0.15
   0   6   8   21.45    0.61
   0   6  -8   24.29    0.67
   0   6  -9    9.41    0.45
   0   6   9    8.52    0.42
   0   6 -10    0.51    0.16
   0   6 -11    5.21    0.37
   0   7  -3    1.50    0.20
   0   7  -4   47.51    0.48
   0   7   4   49.42    0.50
   0   7  -5   36.09    0.92
   0   7   5   35.41    0.54
   0   7  -6    4.09    0.33
   0   7  -6    3.52    0.21
   0   7   6    3.90    0.21
   0   7  -7   28.99    0.85
   0   7  -7   28.93    0.63
   0   7   7   29.62    0.63
   0   7   8   10.20    0.41
   0   7  -8    9.34    0.50
   0   7  -8   10.04    0.41
   0   7  -9    2.10    0.22
   0   7 -10   13.17    0.54
   0   8  -3   56.29    1.19
   0   8  -4    2.91    0.30
   0   8   5   15.32    0.26
   0   8  -5   15.53    0.26
   0   8  -6   16.18    0.36
   0   8  -6   18.00    0.70
   0   8  -7    0.30    0.16
  -1 -10   0   15.69    0.66
  -1 -10  -1    9.27    0.51
  -1 -10  -2    1.92    0.26
  -1 -10  -3   13.30    0.60
  -1 -10  -4    1.91    0.26
   1  -9  -5    5.51    0.32
   1  -9  -4   23.51    0.67
   1  -9  -3    2.05    0.23
  -1  -9   2   14.27    0.61
  -1  -9   1   25.43    0.79
  -1  -9   0    0.50    0.16
  -1  -9  -1   21.75    0.74
  -1  -9  -2   16.34    0.65
  -1  -9  -3    0.18    0.14
  -1  -9  -4   11.79    0.55
  -1  -9  -5    8.83    0.48
   1  -8  -7    0.78    0.14
   1  -8  -6   16.06    0.52
   1  -8  -5   24.11    0.64
   1  -8  -4    0.47    0.13
   1  -8  -3   36.51    0.78
  -1  -8   3   40.18    0.96
  -1  -8   2   36.53    0.91
   1  -8  -2   37.42    0.83
  -1  -8   1    1.33    0.21
  -1  -8   0   51.80    1.08
  -1  -8  -1   24.93    0.76
  -1  -8  -2    6.36    0.40
  -1  -8  -3   36.29    0.93
   1  -7  -8    0.85    0.14
   1  -7  -7   33.99    0.66
   1  -7  -6   17.75    0.42
   1  -7  -6   17.75    0.52
  -1  -7   6   18.47    0.41
  -1  -7   5    6.44    0.21
   1  -7  -5    6.91    0.23
   1  -7  -4   76.92    1.07
  -1  -7   4   77.27    0.54
   1  -7  -3   21.54    0.57
  -1  -7   3   22.42    0.68
   1  -7  -2   55.96    0.92
  -1  -7   2   56.46    1.06
   1  -7  -1  113.14    1.33
  -1  -7   1  112.94    1.51
  -1  -7   0    2.19    0.22
  -1  -7   0    1.37    0.20
  -1  -7  -1   80.95    1.26
  -1  -7  -1   75.43    1.24
  -1  -7  -2   92.65    1.39
  -1  -7  -3    0.99    0.07
  -1  -7  -4   60.75    0.64
   1  -7   4   61.31    0.63
  -1  -7  -5   21.05    0.44
   1  -7   5   21.73    0.44
  -1  -7  -6    1.20    0.14
  -1  -7  -7   18.85    0.51
   1  -6 -11   11.35    0.53
   1  -6 -10    0.17    0.13
  -1  -6   9   16.90    0.53
   1  -6  -9   17.26    0.58
  -1  -6   8   27.18    0.63
   1  -6  -8   27.23    0.68
  -1  -6   7    0.75    0.12
   1  -6  -7    0.64    0.12
  -1  -6   6   58.68    0.78
   1  -6  -6   60.32    0.84
  -1  -6   5   48.32    0.63
   1  -6  -5   47.20    1.00
   1  -6  -5   48.27    0.66
   1  -6  -4    4.28    0.24
   1  -6  -4    4.47    0.31
   1  -6  -4    4.63    0.18
  -1  -6   4    4.51    0.17
  -1  -6   3  110.32    0.65
   1  -6  -3  111.79    1.19
  -1  -6   2   55.48    0.99
   1  -6  -2   54.69    0.83
  -1  -6   1    5.87    0.33
   1  -6  -1    2.09    0.18
  -1  -6   0  107.54    1.31
  -1  -6   0  104.75    1.36
  -1  -6  -1   63.32    1.03
  -1  -6  -2   12.48    0.21
  -1  -6  -2   12.71    0.48
  -1  -6  -3   78.16    1.24
  -1  -6  -3   78.32    0.71
   1  -6   3   78.54    0.69
   1  -6   4   34.71    0.53
  -1  -6  -4   33.07    0.53
   1  -6   5   16.98    0.42
  -1  -6  -5   18.02    0.44
  -1  -6  -6   63.72    0.92
   1  -6   6   61.90    0.90
   1  -6   7    6.21    0.32
  -1  -6  -7    6.76    0.33
  -1  -6  -8   15.80    0.52
   1  -6   8   15.22    0.52
  -1  -6  -9   22.78    0.66
  -1  -6 -10    0.27    0.14
   1  -5 -11    0.19    0.15
   1  -5 -10   19.72    0.66
  -1  -5   9   20.76    0.60
   1  -5  -9   21.52    0.65
   1  -5  -8    2.52    0.23
  -1  -5   8    2.79    0.22
   1  -5  -7   73.05    1.05
  -1  -5   7   71.74    0.96
   1  -5  -6   64.39    0.90
  -1  -5   6   62.34    0.82
   1  -5  -5   39.61    0.63
  -1  -5   5   40.18    0.60
  -1  -5   4  166.69    1.12
   1  -5  -4  167.52    1.15
   1  -5  -3   46.04    0.69
  -1  -5   3   46.19    0.49
   1  -5  -3   46.86    0.50
   1  -5  -2  121.02    1.12
  -1  -5   2  120.55    0.65
  -1  -5   1  326.77    2.28
  -1  -5   1  326.02    0.92
   1  -5  -1  327.72    1.95
  -1  -5   1  327.81    0.90
  -1  -5   0    0.91    0.13
  -1  -5   0    1.25    0.05
  -1  -5  -1  201.20    1.72
  -1  -5  -1  200.36    0.88
  -1  -5  -1  202.28    0.85
   1  -5   2  203.32    1.05
  -1  -5  -2  206.68    1.09
  -1  -5  -3    1.46    0.11
   1  -5   3    0.82    0.09
  -1  -5  -4  146.14    1.18
   1  -5   4  141.70    1.15
  -1  -5  -5   72.07    0.92
   1  -5   5   72.30    0.90
  -1  -5  -6    4.98    0.27
   1  -5   6    4.96    0.27
  -1  -5  -7   37.91    0.77
   1  -5   7   37.69    0.77
   1  -5   8   13.05    0.50
  -1  -5  -8   13.26    0.49
  -1  -5  -9    1.04    0.19
  -1  -5 -10   13.20    0.54
  -1  -5 -11    1.74    0.24
   1  -4 -12    4.31    0.36
   1  -4 -11   14.85    0.61
   1  -4 -10    1.94    0.24
  -1  -4   9   23.85    0.64
   1  -4  -9   23.39    0.69
   1  -4  -8   55.61    1.00
  -1  -4   8   55.25    0.92
   1  -4  -7    0.83    0.14
  -1  -4   7    0.72    0.13
   1  -4  -6   90.13    1.08
  -1  -4   6   87.20    0.99
  -1  -4   5  152.01    1.22
   1  -4  -5  155.57    1.29
  -1  -4   4    1.00    0.10
  -1  -4   4    0.86    0.12
  -1  -4   3  291.46    1.38
   1  -4  -3  292.95    1.42
   1  -4  -2  205.56    1.00
   1  -4  -2  204.52    1.30
  -1  -4   2  205.57    0.99
  -1  -4   1    0.92    0.05
  -1  -4   1    0.98    0.05
   1  -4  -1    0.89    0.09
  -1  -4   0  382.36    1.22
  -1  -4   0  381.48    1.23
  -1  -4   0  378.74    2.11
   1  -4   1  204.91    0.95
  -1  -4  -1  206.53    1.61
  -1  -4  -1  204.39    0.94
  -1  -4  -2   47.80    0.51
   1  -4   2   47.59    0.52
  -1  -4  -3  283.17    1.51
   1  -4   3  278.42    1.51
   1  -4   4   46.83    0.66
  -1  -4  -4   48.11    0.67
   1  -4   5   58.35    0.83
  -1  -4  -5   59.38    0.82
   1  -4   6  130.53    1.37
  -1  -4  -6  133.30    1.34
   1  -4   7    8.98    0.40
  -1  -4  -7    9.93    0.41
  -1  -4  -8   47.05    0.92
   1  -4   8   49.02    0.96
  -1  -4  -9   26.83    0.72
  -1  -4 -10    0.72    0.18
  -1  -4 -11    9.60    0.50
   1  -3 -12    9.86    0.53
   1  -3 -11    1.35    0.23
   1  -3 -10   39.72    0.94
   1  -3  -9   49.91    1.01
  -1  -3   9   46.37    0.89
   1  -3  -8   11.27    0.46
  -1  -3   8   11.42    0.42
  -1  -3   7  181.44    1.57
   1  -3  -7  181.46    1.71
   1  -3  -6   60.92    0.91
  -1  -3   6   57.17    0.80
  -1  -3   5   77.96    0.87
   1  -3  -5   78.57    0.93
   1  -3  -4  288.15    1.63
  -1  -3   4  289.77    1.56
  -1  -3   3   59.73    0.80
   1  -3  -3   59.93    0.62
  -1  -3   2  377.93    1.41
   1  -3  -2  374.38    1.53
   1  -3  -2  379.16    1.47
  -1  -3   1  329.47    1.16
  -1  -3   1  328.13    1.67
   1  -3  -1  325.89    1.47
  -1  -3   0    7.02    0.15
  -1  -3   0    6.65    0.15
  -1  -3  -1  290.96    1.21
   1  -3   1  285.35    1.21
  -1  -3  -2  343.29    1.51
   1  -3   2  346.87    1.52
   1  -3   3    0.36    0.07
  -1  -3  -3    0.65    0.08
   1  -3   4  207.70    1.46
  -1  -3  -4  207.08    1.43
   1  -3   5  145.68    1.33
  -1  -3  -5  149.36    1.31
   1  -3   6    3.83    0.25
  -1  -3  -6    2.95    0.22
  -1  -3  -7   65.89    1.03
   1  -3   7   60.56    1.00
  -1  -3  -8   43.14    0.89
   1  -3   8   43.06    0.90
  -1  -3  -9    2.78    0.26
  -1  -3 -10   22.35    0.70
  -1  -3 -11    4.34    0.35
   1  -2 -12    4.31    0.36
   1  -2 -11   28.13    0.84
   1  -2 -10    1.79    0.24
   1  -2  -9   51.67    1.02
  -1  -2   9   49.20    0.91
   1  -2  -8   58.62    1.02
  -1  -2   8   60.18    0.94
   1  -2  -7    2.63    0.22
  -1  -2   7    3.15    0.21
   1  -2  -6  179.66    1.56
  -1  -2   6  175.93    1.43
   1  -2  -5  308.20    1.91
  -1  -2   5  306.45    1.79
   1  -2  -4   25.29    0.47
  -1  -2   4   26.20    0.45
   1  -2  -3  407.32    1.77
  -1  -2   3  409.45    1.98
   1  -2  -2  537.96    1.83
  -1  -2   2  534.17    1.76
  -1  -2   2  536.25    2.24
   1  -2  -1   13.06    0.22
  -1  -2   1   13.01    0.21
  -1  -2   1   12.61    0.25
  -1  -2   0  780.34    2.13
  -1  -2  -1  372.57    1.41
   1  -2   1  365.80    1.44
   1  -2   2   94.65    0.76
  -1  -2  -2   94.52    0.74
   1  -2   3  426.40    1.97
  -1  -2  -3  424.04    1.91
  -1  -2  -4   92.99    0.94
   1  -2   4   91.76    0.96
  -1  -2  -5   91.51    1.02
   1  -2   5   90.36    1.05
   1  -2   6  233.19    1.87
  -1  -2  -6  239.99    1.82
  -1  -2  -7    7.53    0.35
   1  -2   7    8.46    0.38
  -1  -2  -8   63.52    1.06
   1  -2   8   67.21    1.13
  -1  -2  -9   48.41    1.00
  -1  -2 -10    1.00    0.19
  -1  -2 -11   15.37    0.62
   1  -1 -12    9.21    0.51
   1  -1 -11    0.65    0.18
   1  -1 -10   39.87    0.95
   1  -1  -9   60.92    1.11
  -1  -1   9   59.34    1.00
   1  -1  -8    3.67    0.27
  -1  -1   8    3.38    0.24
  -1  -1   7  237.71    1.80
   1  -1  -7  237.61    1.97
  -1  -1   6  128.02    1.21
   1  -1  -6  126.88    1.32
   1  -1  -5   29.92    0.58
  -1  -1   5   29.14    0.52
   1  -1  -4  594.46    2.52
  -1  -1   4  616.77    2.41
   1  -1  -3  190.66    1.16
  -1  -1   3  196.19    1.11
   1  -1  -2  469.37    1.70
  -1  -1   2  467.30    1.62
  -1  -1   2  466.72    1.76
  -1  -1   1  998.12    2.31
  -1  -1   1 1000.00    2.56
   1  -1  -1  994.04    2.62
   1  -1   0    2.40    0.09
  -1  -1   0    2.78    0.10
   1  -1   1  814.66    2.42
  -1  -1  -1  822.87    2.36
  -1  -1  -2  638.12    2.24
   1  -1   2  633.35    2.25
  -1  -1  -3    7.73    0.24
   1  -1   3    7.14    0.24
   1  -1   4  552.44    2.54
  -1  -1  -4  556.04    2.45
   1  -1   5  157.84    1.42
  -1  -1  -5  158.61    1.36
  -1  -1  -6   13.15    0.42
   1  -1   6   12.93    0.44
   1  -1   7   97.67    1.30
  -1  -1  -7   96.16    1.23
   1  -1   8   37.32    0.85
  -1  -1  -8   38.79    0.84
  -1  -1  -9    4.93    0.34
  -1  -1 -10   24.74    0.75
  -1  -1 -11    3.78    0.32
   1   0 -12    9.46    0.52
   1   0 -11   34.77    0.93
   1   0 -10    2.35    0.26
   1   0  -9   73.05    1.22
  -1   0   9   72.02    1.11
   1   0  -8   91.69    1.30
  -1   0   8   91.87    1.17
  -1   0   7    4.89    0.26
   1   0  -7    4.81    0.29
   1   0  -6  245.21    1.87
  -1   0   6  245.94    1.71
  -1   0   5  183.56    1.35
   1   0  -5  186.21    1.47
   1   0  -4   49.27    0.67
  -1   0   4   48.28    0.60
   1   0  -3  531.09    1.88
  -1   0   3  535.65    1.96
   1   0  -3  533.08    2.09
  -1   0   2  273.36    0.97
   1   0  -2  274.09    1.22
   1   0  -2  270.34    1.03
  -1   0   2  272.59    1.16
   1   0  -1   13.42    0.22
  -1   0   1   13.27    0.21
  -1   0   0  180.27    0.87
   1   0   0  183.18    0.86
  -1   0  -1  573.65    1.88
   1   0   1  575.48    1.89
  -1   0  -2   51.28    0.55
   1   0   2   52.32    0.57
   1   0   3  313.91    1.66
  -1   0  -3  312.35    1.59
   1   0   4  102.34    1.03
  -1   0  -4  100.05    0.96
   1   0   5   23.86    0.55
  -1   0  -5   23.89    0.52
  -1   0  -6  311.38    2.09
   1   0   6  310.72    2.22
   1   0   7   24.63    0.66
  -1   0  -7   24.21    0.62
   1   0   8   68.62    1.17
  -1   0  -8   69.94    1.12
   1   0   9   78.97    1.31
  -1   0  -9   73.88    1.24
  -1   0 -10    0.69    0.17
  -1   0 -11   12.57    0.56
   1   1 -10   42.38    0.95
   1   1  -6  129.00    1.32
   1   1  -5   30.13    0.59
   1   1  -4  600.58    2.57
   1   1  -1  996.96    2.36
   1   2 -12    4.61    0.39
   1   2 -11   30.53    0.90
   1   2 -10    2.29    0.27
   1   2 -10    1.84    0.24
  -1   2   9   50.75    0.94
   1   2  -9   52.88    1.06
   1   2  -9   53.57    1.12
  -1   2   8   60.04    0.95
   1   2  -8   59.85    1.06
   1   2  -7    2.54    0.22
   1   2  -7    2.69    0.24
  -1   2   7    2.77    0.21
   1   2  -6  185.22    1.71
  -1   2   6  182.84    1.49
   1   2  -6  182.54    1.62
   1   2  -5  307.88    2.11
  -1   2   5  308.80    1.83
   1   2  -5  308.99    1.97
  -1   2   4   26.49    0.46
   1   2  -4   25.41    0.48
   1   2  -3  407.47    1.80
  -1   2   3  413.58    1.72
   1   2  -2  537.18    1.96
   1   2  -2  536.47    1.85
  -1   2   2  534.65    1.77
  -1   2   1   16.79    0.23
   1   2  -1   16.78    0.30
  -1   2   1   17.08    0.23
   1   2  -1   17.07    0.25
  -1   2   0  766.48    2.30
  -1   2   0  773.62    2.13
  -1   2  -1  368.63    1.41
   1   2   1  374.60    1.46
  -1   2  -2   94.22    0.74
   1   2   2   96.13    0.78
  -1   2  -3  424.93    1.92
   1   2   3  434.24    2.03
   1   2   4   91.35    0.99
  -1   2  -4   93.23    0.95
   1   2   5   89.93    1.08
  -1   2  -5   90.24    1.02
  -1   2  -6  246.63    1.86
   1   2   6  238.21    1.96
   1   2   7    8.53    0.40
  -1   2  -7   10.17    0.40
   1   2   8   68.12    1.18
  -1   2  -8   64.30    1.08
  -1   2  -9   50.49    1.03
  -1   2 -10    1.06    0.20
  -1   2 -11   15.45    0.62
   1   3 -12   10.65    0.57
   1   3 -11    1.47    0.24
   1   3 -10   38.67    0.97
   1   3  -9   48.42    1.03
   1   3  -9   46.35    1.08
  -1   3   9   49.70    0.95
   1   3  -8   11.75    0.53
  -1   3   8   12.20    0.45
   1   3  -8   11.61    0.49
   1   3  -7  189.43    1.97
  -1   3   7  190.02    1.65
   1   3  -7  184.98    1.79
  -1   3   6   56.52    0.82
   1   3  -6   57.04    1.02
   1   3  -6   58.48    0.92
   1   3  -5   75.27    0.94
  -1   3   5   75.70    0.87
  -1   3   4  293.74    1.61
   1   3  -4  297.48    1.70
   1   3  -3   58.69    0.62
   1   3  -3   60.36    0.87
   1   3  -2  377.46    1.49
   1   3  -2  382.28    1.93
  -1   3   2  380.32    1.42
  -1   3   1  326.76    1.15
  -1   3   0    9.07    0.25
  -1   3   0    8.83    0.28
  -1   3   0    8.95    0.17
  -1   3   0    9.59    0.17
  -1   3  -1  284.30    1.19
  -1   3  -1  282.31    1.69
  -1   3  -1  284.74    1.58
   1   3   1  286.74    1.24
   1   3   2  344.25    1.57
  -1   3  -2  345.64    1.89
   1   3   3    0.46    0.07
  -1   3  -3    0.40    0.07
   1   3   4  210.96    1.53
  -1   3  -4  208.37    1.45
   1   3   5  144.89    1.39
  -1   3  -5  151.21    1.34
  -1   3  -6    2.71    0.21
   1   3   6    4.08    0.26
   1   3   7   62.63    1.07
  -1   3  -7   66.42    1.03
   1   3   8   45.78    0.97
  -1   3  -8   42.89    0.91
  -1   3  -9    2.97    0.27
  -1   3 -10   22.18    0.71
  -1   3 -11    4.93    0.38
   1   4 -12    4.30    0.37
   1   4 -11   14.48    0.63
   1   4 -10    1.78    0.24
   1   4  -9   24.05    0.73
  -1   4   9   24.52    0.66
  -1   4   8   55.05    0.94
   1   4  -8   54.57    1.18
   1   4  -8   52.00    1.01
  -1   4   7    0.94    0.15
   1   4  -7    1.10    0.16
   1   4  -7    1.01    0.19
  -1   4   6   89.76    1.03
   1   4  -6   87.64    1.11
  -1   4   5  154.80    1.27
   1   4  -5  155.26    1.33
   1   4  -4    1.25    0.16
   1   4  -4    1.04    0.10
  -1   4   4    1.16    0.11
   1   4  -3  291.78    1.44
  -1   4   3  291.15    1.44
  -1   4   2  207.24    0.98
   1   4  -2  202.91    0.99
   1   4  -2  205.20    1.57
  -1   4   1    1.87    0.08
  -1   4   1    3.73    0.10
  -1   4   0  380.04    1.22
  -1   4   0  383.26    1.96
  -1   4   0  381.67    1.20
   1   4   1  203.08    0.99
  -1   4  -1  205.85    1.49
  -1   4  -1  202.94    1.59
  -1   4  -2   45.09    0.75
  -1   4  -2   47.30    0.52
  -1   4  -2   47.03    0.75
   1   4   2   46.03    0.52
  -1   4  -3  281.36    1.53
  -1   4  -3  278.00    1.95
   1   4   3  281.46    1.57
  -1   4  -4   49.10    0.69
  -1   4  -4   47.77    0.85
   1   4   4   46.85    0.69
   1   4   5   59.12    0.88
  -1   4  -5   60.87    0.85
  -1   4  -5   60.36    1.04
   1   4   6  129.10    1.43
  -1   4  -6  125.69    1.56
  -1   4  -7    8.39    0.43
   1   4   7    8.56    0.40
  -1   4  -7    9.24    0.41
   1   4   8   47.73    1.00
  -1   4  -8   47.93    0.96
  -1   4  -9   27.08    0.75
  -1   4 -10    0.70    0.18
  -1   4 -11    9.71    0.51
   1   5 -11    0.27    0.16
   1   5 -10   21.12    0.72
  -1   5   9   20.51    0.61
   1   5  -9   19.78    0.66
   1   5  -8    2.52    0.24
  -1   5   8    2.65    0.22
  -1   5   7   73.48    1.01
   1   5  -7   71.90    1.08
   1   5  -6   63.36    0.93
  -1   5   6   63.99    0.88
  -1   5   5   40.51    0.64
   1   5  -5   37.99    0.78
   1   5  -5   38.89    0.64
   1   5  -4  164.57    1.17
  -1   5   4  166.34    1.17
   1   5  -4  167.46    1.62
  -1   5   3   46.61    0.52
   1   5  -3   46.22    0.83
   1   5  -3   45.15    0.50
   1   5  -2  124.86    1.34
  -1   5   2  119.06    0.68
  -1   5   0    1.82    0.18
  -1   5  -1  200.95    0.87
  -1   5  -1  202.08    1.62
  -1   5  -1  200.01    0.86
  -1   5  -2  206.42    1.83
  -1   5  -2  201.19    1.08
  -1   5  -2  206.01    1.73
   1   5   2  204.24    1.10
  -1   5  -3    0.99    0.15
  -1   5  -3    1.21    0.11
  -1   5  -3    0.77    0.14
   1   5   3    0.76    0.09
  -1   5  -4  141.60    1.57
   1   5   4  139.11    1.20
  -1   5  -5   75.37    1.20
  -1   5  -5   74.66    0.99
   1   5   5   73.03    0.95
   1   5   6    5.18    0.29
  -1   5  -6    5.28    0.29
  -1   5  -6    5.05    0.34
   1   5   7   36.90    0.81
  -1   5  -7   38.14    0.81
   1   5   8   13.48    0.53
  -1   5  -8   14.59    0.53
  -1   5  -9    1.25    0.20
  -1   5 -10   13.71    0.58
   1   6 -11   11.05    0.55
   1   6 -10    0.24    0.14
   1   6  -9   15.91    0.58
  -1   6   9   15.96    0.53
   1   6  -8   27.14    0.70
  -1   6   8   28.48    0.67
   1   6  -7    0.71    0.16
   1   6  -7    0.62    0.13
  -1   6   7    0.73    0.13
  -1   6   6   56.80    0.80
   1   6  -6   56.77    1.08
   1   6  -6   55.95    0.82
  -1   6   5   46.66    0.65
   1   6  -5   47.20    0.67
   1   6  -4    4.43    0.30
   1   6  -4    4.22    0.17
  -1   6   4    4.54    0.18
  -1   6   3  112.08    0.70
   1   6  -3  119.00    1.47
  -1   6  -1   66.47    1.10
  -1   6  -2   13.01    0.50
  -1   6  -2   12.51    0.23
  -1   6  -3   85.00    1.24
   1   6   3   79.99    0.73
  -1   6  -3   81.96    1.25
  -1   6  -3   76.82    0.74
   1   6   4   33.22    0.55
  -1   6  -4   35.06    0.83
  -1   6  -5   18.20    0.63
   1   6   5   17.80    0.46
  -1   6  -5   18.67    0.48
  -1   6  -6   61.46    0.95
   1   6   6   59.52    0.92
  -1   6  -7    6.49    0.34
   1   6   7    6.38    0.34
  -1   6  -8   16.68    0.57
   1   6   8   14.52    0.54
  -1   6  -9   23.14    0.70
  -1   6 -10    0.31    0.15
   1   7 -10    5.84    0.37
   1   7  -9    9.45    0.52
   1   7  -9   10.27    0.45
  -1   7   8    0.94    0.15
   1   7  -8    0.92    0.19
   1   7  -8    1.30    0.17
   1   7  -7   30.33    0.63
  -1   7   7   30.18    0.62
   1   7  -7   31.10    0.88
   1   7  -6   17.68    0.43
  -1   7   6   18.44    0.43
   1   7  -6   18.76    0.67
  -1   7   5    6.90    0.23
   1   7  -5    7.47    0.42
   1   7  -5    7.06    0.23
  -1   7   4   76.85    0.59
   1   7  -4   82.12    1.34
  -1   7  -2   93.81    1.43
  -1   7  -3    0.90    0.07
  -1   7  -3    0.98    0.19
  -1   7  -4   59.77    0.66
   1   7   4   60.99    0.68
  -1   7  -5   20.72    0.46
   1   7   5   21.20    0.46
  -1   7  -6    1.21    0.15
   1   7   6    0.86    0.13
  -1   7  -7   20.65    0.56
   1   7   7   20.45    0.56
  -1   7  -8    4.67    0.30
  -1   7  -9    1.15    0.19
   1   8  -7    0.14    0.14
   1   8  -6   17.80    0.69
   1   8  -6   16.06    0.34
   1   8  -5   25.60    0.82
  -1   8   5   23.21    0.29
  -1   8  -2    7.37    0.45
  -1   8  -4    8.48    0.16
  -1   8  -5    8.76    0.25
  -1   8  -6   20.82    0.45
  -2  -9   3   12.40    0.59
  -2  -9   2    5.68    0.41
  -2  -9   1   35.30    0.98
  -2  -9   0    8.01    0.49
  -2  -9  -1   10.04    0.54
  -2  -9  -2   28.44    0.89
  -2  -9  -3    0.95    0.21
  -2  -8   4    1.70    0.24
  -2  -8   3   34.19    0.91
  -2  -8   2   28.74    0.85
  -2  -8   1    0.41    0.16
  -2  -8   0   32.19    0.91
  -2  -8  -1   19.86    0.73
   2  -7  -8    0.86    0.15
   2  -7  -7   20.64    0.53
   2  -7  -7   21.29    0.43
   2  -7  -6   15.94    0.42
  -2  -7   6   15.40    0.38
   2  -7  -6   16.22    0.39
  -2  -7   5    9.16    0.26
   2  -7  -5    9.74    0.31
  -2  -7   4   47.41    0.52
  -2  -7   4   49.06    0.55
  -2  -7   3   13.64    0.55
   2  -7  -3   13.96    0.54
  -2  -7   3   13.18    0.23
  -2  -7   3   13.55    0.23
  -2  -7   2   10.73    0.14
  -2  -7   2   10.24    0.14
  -2  -7   1   95.84    1.48
  -2  -7   0   13.59    0.57
  -2  -7   0   12.75    0.17
  -2  -7  -1   24.51    0.31
  -2  -7  -1   24.72    0.29
  -2  -7  -2   56.39    0.58
  -2  -7  -2   54.52    0.55
  -2  -7  -2   53.93    1.07
  -2  -7  -3   10.69    0.29
  -2  -7  -4   22.67    0.47
   2  -7   4   22.97    0.47
  -2  -7  -5   32.35    0.61
  -2  -7  -6    0.96    0.14
   2  -6 -11    7.07    0.44
   2  -6 -10    4.63    0.35
   2  -6  -9    7.59    0.40
  -2  -6   9    7.26    0.35
  -2  -6   8   36.39    0.71
   2  -6  -8   35.98    0.80
   2  -6  -8   34.61    0.54
   2  -6  -7   10.64    0.41
  -2  -6   7   10.27    0.35
   2  -6  -7   10.18    0.28
  -2  -6   6   28.67    0.55
   2  -6  -6   28.43    0.47
   2  -6  -6   27.89    0.78
   2  -6  -6   30.04    0.62
   2  -6  -5   99.90    1.41
   2  -6  -5  101.80    0.91
  -2  -6   5   98.56    0.96
   2  -6  -5  102.72    1.03
  -2  -6   4   10.72    0.28
  -2  -6   4   10.51    0.46
   2  -6  -3   91.57    1.28
  -2  -6   3   90.53    0.75
  -2  -6   3   89.94    0.78
  -2  -6   2  122.37    0.80
  -2  -6   2  121.34    0.81
  -2  -6   1    1.39    0.09
  -2  -6   1    1.46    0.17
  -2  -6   1    1.72    0.09
  -2  -6   1    1.32    0.20
  -2  -6   0  116.09    0.76
  -2  -6   0  118.15    1.39
  -2  -6   0  116.91    0.77
  -2  -6  -1   77.98    0.69
  -2  -6  -1   79.00    1.17
  -2  -6  -1   77.33    0.66
  -2  -6  -2   17.22    0.35
  -2  -6  -2   16.15    0.56
  -2  -6  -3  105.44    0.97
   2  -6   3  102.65    0.97
   2  -6   4   17.69    0.44
  -2  -6  -4   18.40    0.44
  -2  -6  -5   11.86    0.39
   2  -6   5   11.29    0.38
  -2  -6  -6   42.31    0.78
   2  -6   6   39.18    0.77
   2  -6   7    5.59    0.32
  -2  -6  -7    5.44    0.31
  -2  -6  -8    4.56    0.31
  -2  -6  -9    9.33    0.44
   2  -5 -12    7.20    0.47
   2  -5 -11    0.13    0.15
   2  -5 -10   15.59    0.62
  -2  -5   9   18.38    0.55
   2  -5  -9   18.76    0.64
  -2  -5   8    0.83    0.14
   2  -5  -8    0.87    0.17
   2  -5  -7   64.73    1.02
  -2  -5   7   62.04    0.89
   2  -5  -6   23.26    0.56
   2  -5  -6   21.88    0.36
  -2  -5   6   22.28    0.49
  -2  -5   5   10.50    0.44
   2  -5  -5    9.69    0.42
   2  -5  -5   10.02    0.24
   2  -5  -5   10.03    0.34
  -2  -5   5   11.01    0.33
   2  -5  -4  130.09    1.11
   2  -5  -4  128.38    1.45
  -2  -5   4  126.79    1.50
   2  -5  -4  126.43    0.90
  -2  -5   4  127.44    1.02
  -2  -5   3   62.29    0.65
   2  -5  -3   62.98    0.98
  -2  -5   3   62.36    1.04
   2  -5  -2   55.91    0.90
  -2  -5   2   54.49    0.56
  -2  -5   2   55.60    0.61
  -2  -5   1  187.98    1.56
  -2  -5   1  186.91    1.08
  -2  -5   1  183.83    1.04
  -2  -5   0   68.46    0.64
  -2  -5   0   68.78    0.65
  -2  -5   0   67.68    0.96
  -2  -5  -1   66.71    0.67
  -2  -5  -1   64.54    0.99
  -2  -5  -2  168.85    1.17
   2  -5   2  168.52    1.20
  -2  -5  -3   20.03    0.43
   2  -5   3   19.69    0.44
  -2  -5  -4   56.30    0.78
   2  -5   4   55.02    0.79
  -2  -5  -5   83.69    1.04
   2  -5   5   81.67    1.05
  -2  -5  -6    0.20    0.11
   2  -5   6    0.13    0.11
  -2  -5  -7   35.47    0.77
   2  -5   7   34.46    0.80
  -2  -5  -8   20.59    0.62
  -2  -5  -8   18.51    0.59
  -2  -5  -9    1.32    0.20
  -2  -5 -10   10.74    0.50
   2  -4 -12    2.25    0.28
   2  -4 -11   18.37    0.70
   2  -4 -10   10.68    0.52
  -2  -4   9   25.01    0.64
   2  -4  -9   26.70    0.76
   2  -4  -8   95.02    1.35
  -2  -4   8   90.11    1.14
  -2  -4   7    8.36    0.33
   2  -4  -7    9.92    0.41
   2  -4  -6   77.91    1.05
  -2  -4   6   80.15    0.96
   2  -4  -5  258.94    1.78
  -2  -4   5  253.38    1.60
  -2  -4   5  257.96    2.03
  -2  -4   4    0.59    0.09
   2  -4  -4    0.57    0.09
  -2  -4   4    0.42    0.11
   2  -4  -3  171.27    1.21
   2  -4  -3  172.82    1.49
  -2  -4   3  170.67    1.61
  -2  -4   3  173.09    1.11
  -2  -4   2  183.36    1.10
  -2  -4   2  182.57    1.66
  -2  -4   1   11.93    0.35
  -2  -4   1   12.19    0.27
  -2  -4   1   11.93    0.28
  -2  -4   0  248.97    1.35
  -2  -4   0  247.25    1.70
  -2  -4   0  245.97    1.33
  -2  -4  -1   83.08    0.78
   2  -4   2   15.12    0.36
  -2  -4  -2   15.62    0.36
  -2  -4  -3  191.26    1.37
   2  -4   3  186.26    1.38
  -2  -4  -4   39.16    0.66
   2  -4   4   38.67    0.68
  -2  -4  -5   13.08    0.41
   2  -4   5   13.04    0.43
  -2  -4  -6   70.86    1.02
   2  -4   6   71.38    1.09
   2  -4   7   23.29    0.67
  -2  -4  -7   22.84    0.62
  -2  -4  -8    9.00    0.42
  -2  -4  -9   21.44    0.67
  -2  -4  -9   19.72    0.64
  -2  -4 -10    3.43    0.31
   2  -3 -12    9.53    0.53
   2  -3 -11    0.21    0.16
   2  -3 -10   29.92    0.86
  -2  -3   9   16.90    0.52
   2  -3  -9   18.31    0.64
  -2  -3   8    3.25    0.23
   2  -3  -8    2.04    0.22
  -2  -3   7   92.65    1.08
   2  -3  -7   96.53    1.26
   2  -3  -6   87.92    1.12
  -2  -3   6   89.70    1.01
  -2  -3   5   18.29    0.42
   2  -3  -5   18.01    0.47
  -2  -3   5   18.46    0.50
  -2  -3   4  212.27    1.34
  -2  -3   4  208.81    1.64
   2  -3  -4  211.19    1.48
   2  -3  -3  234.62    1.58
  -2  -3   3  236.91    1.74
  -2  -3   3  240.03    1.34
   2  -3  -3  235.49    1.45
  -2  -3   2   83.67    0.75
   2  -3  -2   84.02    0.89
  -2  -3   1  596.72    2.21
  -2  -3   1  594.02    2.34
  -2  -3   1  597.26    2.26
  -2  -3   0  217.78    1.27
   2  -3   1  213.47    1.32
  -2  -3  -1  212.59    1.30
  -2  -3  -2  380.82    1.88
   2  -3   2  379.30    1.91
  -2  -3  -3   35.44    0.58
   2  -3   3   35.05    0.60
  -2  -3  -4  136.62    1.23
   2  -3   4  138.99    1.32
  -2  -3  -5  186.80    1.56
   2  -3   5  189.30    1.68
  -2  -3  -6    3.71    0.24
   2  -3   6    3.49    0.26
  -2  -3  -7   61.25    1.01
   2  -3   7   60.97    1.08
  -2  -3  -8   24.39    0.68
  -2  -3  -9    1.25    0.20
  -2  -3 -10   21.27    0.71
   2  -2 -12    3.65    0.35
   2  -2 -12    4.29    0.29
   2  -2 -11   25.82    0.83
   2  -2 -10   14.99    0.60
  -2  -2   9   34.00    0.74
   2  -2  -9   33.77    0.85
   2  -2  -8  167.96    1.81
  -2  -2   8  161.13    1.55
   2  -2  -7   10.43    0.42
  -2  -2   7   10.25    0.37
   2  -2  -6  132.46    1.39
  -2  -2   6  129.74    1.21
  -2  -2   5  355.47    2.01
   2  -2  -5  356.23    1.24
   2  -2  -5  358.81    2.16
   2  -2  -4   29.77    0.55
  -2  -2   4   29.19    0.54
  -2  -2   4   29.35    0.49
   2  -2  -3  422.92    1.92
  -2  -2   3  426.65    2.18
  -2  -2   3  429.64    1.89
   2  -2  -3  428.55    2.05
  -2  -2   2  241.61    1.32
   2  -2  -2  238.80    1.40
   2  -2  -2  238.46    1.31
  -2  -2   1   16.15    0.33
  -2  -2   1   16.30    0.34
  -2  -2   1   15.48    0.28
  -2  -2   0  264.45    1.42
   2  -2   1  234.08    1.41
  -2  -2  -1  235.25    1.39
  -2  -2  -2   49.18    0.65
   2  -2   2   49.35    0.66
  -2  -2  -3  325.85    1.89
   2  -2   3  321.89    1.92
  -2  -2  -4   53.63    0.78
   2  -2   4   56.35    0.84
  -2  -2  -5   17.81    0.48
   2  -2   5   18.07    0.52
  -2  -2  -6  110.90    1.29
   2  -2   6  109.62    1.36
   2  -2   7   41.01    0.88
  -2  -2  -7   42.57    0.84
   2  -2   8   18.18    0.63
  -2  -2  -8   18.28    0.59
  -2  -2  -9   30.66    0.80
  -2  -2 -10    3.36    0.31
   2  -1 -12   20.94    0.67
   2  -1 -12   18.87    0.74
   2  -1 -11    0.93    0.17
   2  -1 -11    0.51    0.18
   2  -1 -10   35.96    0.94
   2  -1 -10   38.26    0.81
   2  -1  -9   60.92    1.15
  -2  -1   9   59.17    0.97
   2  -1  -8   10.93    0.47
   2  -1  -8   10.92    0.38
  -2  -1   8   10.00    0.38
  -2  -1   7  110.33    1.20
   2  -1  -7  114.15    1.12
   2  -1  -7  113.01    1.40
  -2  -1   6   99.41    1.06
   2  -1  -6   97.51    0.89
   2  -1  -6   97.48    1.19
  -2  -1   5   63.68    0.77
   2  -1  -5   62.34    0.60
   2  -1  -5   64.27    0.89
   2  -1  -4  311.99    1.84
  -2  -1   4  313.00    1.67
  -2  -1   4  307.91    1.59
   2  -1  -3   81.24    0.84
  -2  -1   3   81.69    0.78
  -2  -1   3   81.05    0.77
   2  -1  -2   78.78    0.78
  -2  -1   2   78.86    0.73
   2  -1  -2   79.66    0.55
  -2  -1   1  891.53    2.94
  -2  -1   1  890.74    2.88
  -2  -1   0   85.26    0.79
   2  -1   0   85.31    0.78
   2  -1   1  153.92    1.12
  -2  -1  -1  153.84    1.11
  -2  -1  -2  478.07    2.19
   2  -1   2  475.94    2.23
  -2  -1  -3   96.82    1.00
   2  -1   3   95.27    1.02
  -2  -1  -4  171.14    1.41
   2  -1   4  172.82    1.50
  -2  -1  -5  208.27    1.66
   2  -1   5  214.05    1.81
   2  -1   6    5.45    0.32
  -2  -1  -6    4.71    0.27
   2  -1   7   86.50    1.30
  -2  -1  -7   87.06    1.21
   2  -1   8   40.73    0.95
  -2  -1  -8   41.04    0.88
  -2  -1  -9    1.33    0.20
  -2  -1 -10   26.06    0.78
   2   0 -12    0.19    0.15
   2   0 -12    0.30    0.17
   2   0 -11   37.12    1.00
   2   0 -11   39.01    0.91
   2   0 -10    9.78    0.50
   2   0 -10    9.46    0.45
   2   0  -9   24.28    0.74
   2   0  -9   25.11    0.67
  -2   0   9   23.35    0.62
   2   0  -8  132.10    1.61
   2   0  -8  133.69    1.43
   2   0  -7   72.10    0.97
   2   0  -7   71.06    1.11
  -2   0   7   71.21    0.96
  -2   0   6  214.15    1.58
   2   0  -6  209.31    1.53
   2   0  -6  209.43    1.78
  -2   0   5  432.16    2.14
   2   0  -5  427.73    2.04
   2   0  -5  432.10    2.40
   2   0  -4  126.63    1.14
  -2   0   4  125.47    1.02
   2   0  -3  562.32    2.40
  -2   0   3  560.53    1.87
  -2   0   3  560.96    2.22
  -2   0   2  565.26    2.18
   2   0  -2  563.04    2.29
  -2   0   1    0.10    0.04
  -2   0   0  595.75    2.34
   2   0   0  599.11    2.30
   2   0   1  512.12    2.20
  -2   0  -1  509.78    2.17
  -2   0  -2  214.87    1.40
   2   0   2  214.08    1.43
  -2   0  -3  344.82    1.94
   2   0   3  341.09    1.99
  -2   0  -4   97.80    1.06
   2   0   4  100.15    1.14
  -2   0  -5   69.79    0.94
   2   0   5   71.41    1.04
   2   0   6  154.58    1.66
  -2   0  -6  152.41    1.52
   2   0   7   16.04    0.57
  -2   0  -7   15.89    0.52
   2   0   8   12.10    0.53
  -2   0  -8   11.78    0.48
  -2   0  -9   41.56    0.93
  -2   0 -10    1.82    0.24
   2   1 -11    0.43    0.17
   2   1 -10   34.79    0.88
   2   1  -9   67.08    1.16
   2   1  -8   11.69    0.46
   2   1  -7  109.38    1.32
   2   1  -6  100.03    1.17
   2   1  -5   63.01    0.84
  -2   1   1  886.40    2.41
  -2   1 -10   24.92    0.76
   2   2 -12    3.56    0.36
   2   2 -11   26.68    0.86
   2   2 -10   15.92    0.65
   2   2 -10   14.84    0.62
   2   2  -9   33.49    0.87
  -2   2   9   32.59    0.73
   2   2  -9   34.18    0.89
   2   2  -8  169.09    1.89
   2   2  -8  166.01    1.85
   2   2  -7   11.80    0.46
   2   2  -7   12.12    0.48
  -2   2   7   12.01    0.40
   2   2  -6  136.36    1.50
   2   2  -6  137.07    1.43
  -2   2   6  137.67    1.25
  -2   2   5  356.46    1.93
   2   2  -5  354.64    2.17
  -2   2   4   30.86    0.49
   2   2  -4   30.85    0.56
   2   2  -3  433.75    2.06
  -2   2   3  431.34    1.89
  -2   2   2  238.86    0.73
   2   2  -2  240.06    1.40
  -2   2   1   15.97    0.34
  -2   2   1   16.17    0.33
  -2   2   1   16.01    0.32
  -2   2   0  263.78    1.44
   2   2   1  243.97    1.45
  -2   2  -1  240.34    1.42
  -2   2  -2   51.76    0.67
   2   2   2   51.77    0.69
  -2   2  -3  312.29    1.85
   2   2   3  314.24    1.93
  -2   2  -4   56.90    0.80
   2   2   4   58.21    0.88
   2   2   5   19.54    0.55
  -2   2  -5   19.05    0.50
  -2   2  -6  112.66    1.30
   2   2   6  110.43    1.41
   2   2   7   40.35    0.90
  -2   2  -7   41.75    0.84
   2   2   8   17.12    0.64
  -2   2  -8   17.28    0.58
  -2   2  -9   31.35    0.81
  -2   2 -10    3.34    0.31
   2   3 -12   10.60    0.59
   2   3 -11    0.13    0.15
   2   3 -10   29.53    0.89
   2   3  -9   20.11    0.74
   2   3  -9   18.61    0.67
  -2   3   9   17.98    0.55
   2   3  -8    2.20    0.26
  -2   3   8    2.36    0.21
   2   3  -8    2.41    0.25
   2   3  -7   96.84    1.43
  -2   3   7   91.90    1.09
   2   3  -7   94.42    1.29
   2   3  -6   91.88    1.32
   2   3  -6   91.26    1.18
  -2   3   6   92.89    1.03
  -2   3   5   20.51    0.45
   2   3  -5   19.65    0.50
  -2   3   4  212.60    1.34
   2   3  -4  211.00    1.50
   2   3  -3  234.85    1.46
   2   3  -3  233.94    1.45
  -2   3   3  235.96    1.33
  -2   3   2   79.26    0.72
  -2   3   1  593.89    2.20
  -2   3   1  597.47    2.56
  -2   3   1  596.12    2.00
  -2   3   1  598.08    2.29
  -2   3   0  219.43    1.51
  -2   3   0  215.76    1.28
   2   3   1  210.93    1.33
  -2   3  -1  209.37    1.29
  -2   3  -2  373.34    1.85
   2   3   2  378.18    1.94
  -2   3  -3   35.41    0.58
   2   3   3   35.19    0.61
  -2   3  -4  137.24    1.23
   2   3   4  141.79    1.37
  -2   3  -5  186.18    1.57
   2   3   5  189.91    1.74
  -2   3  -6    3.92    0.26
   2   3   6    4.04    0.28
  -2   3  -7   61.61    1.02
   2   3   7   60.35    1.12
  -2   3  -8   23.59    0.67
  -2   3  -9    1.21    0.21
  -2   3 -10   20.72    0.71
   2   4 -12    2.64    0.32
   2   4 -11   18.65    0.74
   2   4 -10   10.24    0.53
  -2   4   9   25.42    0.65
   2   4  -9   25.65    0.78
   2   4  -8   98.32    1.61
  -2   4   8   93.31    1.18
   2   4  -8   96.64    1.42
  -2   4   7    7.78    0.32
   2   4  -7    8.46    0.40
   2   4  -6   78.63    1.09
  -2   4   6   79.94    0.97
   2   4  -5  255.35    1.79
  -2   4   5  257.83    1.61
  -2   4   4    1.07    0.10
   2   4  -4    0.84    0.11
  -2   4   3  175.53    1.11
   2   4  -3  174.45    1.44
   2   4  -3  173.21    1.22
  -2   4   2  183.16    1.09
  -2   4   1   12.07    0.27
  -2   4   1   12.08    0.29
  -2   4   1   12.25    0.29
  -2   4   1   12.23    0.39
  -2   4   0  244.07    1.33
  -2   4   0  249.11    1.79
  -2   4   0  250.91    1.50
  -2   4   0  246.09    1.32
  -2   4  -1   84.22    0.78
  -2   4  -1   82.68    1.04
  -2   4  -1   85.45    0.93
   2   4   1   84.08    0.82
  -2   4  -2   14.64    0.35
  -2   4  -2   14.30    0.40
   2   4   2   14.46    0.36
  -2   4  -3  189.69    1.36
   2   4   3  189.62    1.45
  -2   4  -4   41.40    0.68
   2   4   4   39.59    0.71
  -2   4  -5   12.70    0.40
   2   4   5   12.69    0.44
  -2   4  -6   72.62    1.04
   2   4   6   74.34    1.17
  -2   4  -7   24.98    0.66
   2   4   7   24.27    0.72
  -2   4  -8    9.81    0.45
  -2   4  -9   19.19    0.64
  -2   4 -10    3.45    0.32
   2   5 -11    0.15    0.15
   2   5 -10   15.96    0.65
   2   5  -9   18.24    0.66
  -2   5   9   19.11    0.57
  -2   5   8    0.70    0.14
   2   5  -8    1.08    0.18
   2   5  -7   63.90    1.04
  -2   5   7   63.18    0.91
   2   5  -6   22.16    0.56
  -2   5   6   22.02    0.50
   2   5  -6   22.16    0.61
   2   5  -5   10.04    0.40
   2   5  -5   10.03    0.34
  -2   5   5    9.47    0.31
  -2   5   5   10.56    0.33
   2   5  -4  129.31    1.38
  -2   5   4  129.27    1.02
   2   5  -4  126.36    1.09
  -2   5   3   63.98    0.64
  -2   5   2   57.16    0.61
  -2   5   2   55.77    0.55
  -2   5   1  184.39    1.08
  -2   5   1  182.79    1.04
  -2   5   0   69.25    0.64
  -2   5   0   67.43    0.64
  -2   5   0   70.26    1.04
  -2   5   0   69.02    0.85
  -2   5  -1   67.66    0.67
  -2   5  -1   68.92    1.06
  -2   5  -1   68.46    0.91
  -2   5  -2  165.16    1.16
  -2   5  -2  169.17    1.69
  -2   5  -2  168.27    1.52
   2   5   2  166.44    1.23
  -2   5  -3   19.60    0.43
  -2   5  -3   19.14    0.53
   2   5   3   19.28    0.45
  -2   5  -4   56.33    0.78
  -2   5  -4   56.65    0.98
   2   5   4   54.78    0.82
  -2   5  -5   83.70    1.25
  -2   5  -5   86.44    1.06
   2   5   6    0.24    0.12
  -2   5  -6    0.16    0.11
  -2   5  -7   36.05    0.79
   2   5   7   33.17    0.82
  -2   5  -8   18.12    0.60
  -2   5  -9    1.23    0.20
  -2   5 -10   11.61    0.53
   2   6 -11    6.97    0.45
   2   6 -10    4.60    0.36
   2   6  -9    6.96    0.40
  -2   6   9    7.24    0.35
   2   6  -9    6.83    0.41
   2   6  -8   34.40    0.80
  -2   6   8   35.84    0.72
   2   6  -7   10.27    0.41
  -2   6   7   10.15    0.36
   2   6  -7    9.91    0.46
  -2   6   6   29.67    0.57
   2   6  -6   28.45    0.60
   2   6  -6   28.13    0.75
  -2   6   5   99.62    0.97
   2   6  -5   98.60    1.02
   2   6  -4   10.36    0.44
  -2   6   4    9.74    0.28
  -2   6   3   87.37    0.78
  -2   6   3   88.84    0.75
  -2   6   2  124.92    0.79
  -2   6   2  123.30    0.81
  -2   6   1    1.43    0.09
  -2   6   1    1.30    0.08
  -2   6   0  114.17    0.74
  -2   6   0  115.42    0.75
  -2   6  -1   79.36    1.06
  -2   6  -1   77.93    1.21
  -2   6  -1   77.91    0.67
  -2   6  -2   17.71    0.53
  -2   6  -2   17.32    0.35
  -2   6  -2   16.99    0.59
  -2   6  -3  105.94    1.48
  -2   6  -3  105.87    1.35
  -2   6  -3  109.07    0.99
  -2   6  -4   17.09    0.61
   2   6   4   17.87    0.46
  -2   6  -4   18.44    0.59
  -2   6  -5   12.30    0.40
   2   6   5   10.99    0.40
  -2   6  -6   43.69    0.80
   2   6   6   38.84    0.80
  -2   6  -7    5.10    0.32
   2   6   7    4.95    0.32
  -2   6  -8    4.73    0.33
  -2   6  -9    9.19    0.45
   2   7 -10    8.30    0.49
   2   7 -10    7.99    0.44
   2   7  -9    7.43    0.39
   2   7  -9    7.33    0.45
   2   7  -8    0.96    0.20
  -2   7   8    1.27    0.15
   2   7  -8    0.92    0.15
   2   7  -7   21.76    0.73
  -2   7   7   21.27    0.50
   2   7  -7   20.24    0.53
  -2   7   6   14.71    0.38
   2   7  -6   15.17    0.41
   2   7  -6   15.79    0.61
  -2   7   5    9.10    0.27
   2   7  -5    9.59    0.47
  -2   7   4   50.13    0.56
  -2   7   4   48.21    0.54
  -2   7   3   13.80    0.23
  -2   7   3   13.22    0.23
  -2   7   2   10.63    0.13
  -2   7   2   10.58    0.13
  -2   7   0   12.66    0.14
  -2   7  -1   23.76    0.29
  -2   7  -1   25.90    0.76
  -2   7  -2   56.38    1.13
  -2   7  -2   56.61    1.00
  -2   7  -3   10.62    0.51
  -2   7  -3   10.67    0.47
  -2   7  -4   23.35    0.76
  -2   7  -4   23.14    0.50
   2   7   4   22.63    0.49
  -2   7  -5   31.45    0.89
   2   7   5   31.87    0.64
  -2   7  -5   32.66    0.64
  -2   7  -6    0.30    0.15
   2   7   6    0.22    0.11
  -2   7  -7   13.03    0.47
  -2   7  -8    9.29    0.43
  -2   7  -9    0.11    0.13
   2   8  -8   16.33    0.68
   2   8  -7    2.29    0.28
   2   8  -6   16.06    0.65
  -2   8   5   26.59    0.37
  -2   8  -2    4.17    0.35
  -2   8  -3   25.21    0.33
  -2   8  -3   25.87    0.34
  -2   8  -4    7.84    0.25
  -2   8  -4    9.17    0.51
  -3  -8   2   36.99    1.01
  -3  -8   1    1.40    0.24
  -3  -8   0   26.38    0.87
   3  -7  -7   20.30    0.56
  -3  -7   6   23.34    0.76
  -3  -7   5    0.90    0.19
  -3  -7   5    0.58    0.10
  -3  -7   4   52.44    1.12
  -3  -7   4   51.52    0.70
  -3  -7   4   52.26    0.65
  -3  -7   3   35.10    0.50
  -3  -7   3   34.09    0.52
  -3  -7   2    5.20    0.19
  -3  -7   2    5.42    0.20
  -3  -7   1   50.57    0.59
  -3  -7   1   48.74    1.12
  -3  -7   1   49.97    0.57
  -3  -7   0   26.23    0.44
  -3  -7   0   26.02    0.43
  -3  -7  -1   11.21    0.30
  -3  -7  -1   11.66    0.32
  -3  -7  -1   11.52    0.49
  -3  -7  -2   40.16    0.60
  -3  -7  -2   41.22    0.64
  -3  -7  -3    5.16    0.24
  -3  -7  -4   10.29    0.36
  -3  -7  -5   21.33    0.55
   3  -6 -11   10.11    0.53
   3  -6 -10    6.16    0.41
   3  -6  -9    4.06    0.32
  -3  -6   8   28.56    0.63
   3  -6  -8   29.93    0.76
   3  -6  -7   10.43    0.42
  -3  -6   7   10.23    0.37
   3  -6  -6   14.42    0.46
  -3  -6   6   15.27    0.59
  -3  -6   6   15.30    0.43
   3  -6  -6   14.77    0.56
   3  -6  -5   50.86    1.00
  -3  -6   5   51.69    1.06
  -3  -6   5   51.07    0.72
  -3  -6   4    6.90    0.40
  -3  -6   4    6.87    0.28
   3  -6  -4    6.84    0.37
  -3  -6   3   37.13    0.55
  -3  -6   3   36.95    0.91
  -3  -6   3   37.17    0.61
  -3  -6   2   82.06    0.81
  -3  -6   2   82.07    0.86
  -3  -6   1    0.27    0.07
  -3  -6   1    0.23    0.07
  -3  -6   0   58.14    0.72
  -3  -6   0   57.16    0.72
  -3  -6   0   58.73    0.98
  -3  -6  -1   67.61    0.80
  -3  -6  -1   66.33    1.08
  -3  -6  -1   66.94    0.83
  -3  -6  -2    0.33    0.09
  -3  -6  -3   57.61    0.81
  -3  -6  -4   32.95    0.65
   3  -6   4   32.39    0.67
  -3  -6  -5    1.26    0.16
   3  -6   5    0.70    0.14
  -3  -6  -6   23.59    0.62
   3  -6   6   23.20    0.64
  -3  -6  -7    9.40    0.42
  -3  -6  -8    1.39    0.20
   3  -5 -11    0.96    0.22
   3  -5 -10   11.85    0.56
   3  -5  -9   23.57    0.74
  -3  -5   9   21.39    0.58
  -3  -5   8    0.27    0.11
   3  -5  -8    0.22    0.13
  -3  -5   7   49.52    0.81
   3  -5  -7   50.47    0.95
  -3  -5   6   75.36    1.24
   3  -5  -6   72.75    1.06
  -3  -5   6   72.28    0.92
  -3  -5   5    4.97    0.24
   3  -5  -5    4.89    0.27
  -3  -5   5    4.56    0.31
   3  -5  -4  136.08    1.47
  -3  -5   4  135.44    1.63
  -3  -5   4  136.64    1.15
  -3  -5   3   64.19    1.12
  -3  -5   3   64.34    0.76
  -3  -5   3   65.97    0.86
  -3  -5   2    5.79    0.25
  -3  -5   2    5.69    0.23
  -3  -5   1  167.84    1.48
  -3  -5   1  168.39    1.27
  -3  -5   1  167.41    1.28
  -3  -5   0   46.37    0.81
  -3  -5   0   46.29    0.68
  -3  -5   0   45.49    0.66
  -3  -5  -1   32.94    0.58
  -3  -5  -2   82.23    0.95
   3  -5   3   15.00    0.44
  -3  -5  -3   15.46    0.43
  -3  -5  -4   22.11    0.54
   3  -5   4   22.37    0.58
  -3  -5  -5   48.93    0.86
   3  -5   5   46.56    0.87
  -3  -5  -6    2.35    0.22
   3  -5   6    2.49    0.24
  -3  -5  -7   14.20    0.52
  -3  -5  -8   14.09    0.54
  -3  -5  -9    1.06    0.21
   3  -4 -12    1.32    0.25
   3  -4 -11   13.51    0.64
   3  -4 -10   10.46    0.53
   3  -4  -9    3.51    0.31
  -3  -4   9    2.71    0.23
  -3  -4   8   49.06    0.86
   3  -4  -8   51.13    1.03
   3  -4  -7   31.48    0.76
  -3  -4   7   29.20    0.62
  -3  -4   6   16.55    0.44
   3  -4  -6   15.38    0.50
  -3  -4   6   17.41    0.55
   3  -4  -6   16.62    0.52
   3  -4  -5   84.19    1.08
  -3  -4   5   84.41    1.19
  -3  -4   5   84.77    0.95
   3  -4  -4   68.18    0.95
  -3  -4   4   68.59    1.08
  -3  -4   4   68.14    0.82
   3  -4  -4   70.58    0.95
  -3  -4   3   92.12    1.25
  -3  -4   3   95.34    0.95
  -3  -4   2  210.98    1.43
  -3  -4   2  212.08    1.43
  -3  -4   2  213.85    1.53
  -3  -4   1    9.93    0.31
  -3  -4   1    9.77    0.32
  -3  -4   1    9.67    0.32
  -3  -4   0  139.70    1.22
  -3  -4   0  134.70    1.19
  -3  -4  -1  235.83    1.60
  -3  -4  -2    0.50    0.10
   3  -4   2    0.41    0.10
  -3  -4  -3  147.75    1.37
   3  -4   3  149.51    1.44
  -3  -4  -4   83.15    1.07
   3  -4   4   83.48    1.12
  -3  -4  -5    7.93    0.35
   3  -4   5    8.52    0.38
  -3  -4  -6   49.75    0.91
   3  -4   6   48.32    0.97
  -3  -4  -7   15.55    0.55
  -3  -4  -8    4.73    0.33
  -3  -4  -9   14.67    0.58
   3  -3 -12   16.10    0.72
   3  -3 -11    1.45    0.13
   3  -3 -11    1.62    0.26
   3  -3 -10   25.17    0.83
   3  -3 -10   21.29    0.40
   3  -3  -9   63.00    1.22
  -3  -3   9   58.76    0.97
   3  -3  -8    3.57    0.29
  -3  -3   8    3.58    0.24
  -3  -3   7  103.47    1.18
   3  -3  -7  108.94    1.42
  -3  -3   6  110.23    1.14
  -3  -3   6  111.27    1.28
   3  -3  -6  112.50    1.35
   3  -3  -5   24.72    0.59
  -3  -3   5   23.94    0.51
  -3  -3   5   24.18    0.59
   3  -3  -5   22.45    0.51
   3  -3  -4  277.93    1.75
  -3  -3   4  277.75    2.03
  -3  -3   4  283.56    1.75
   3  -3  -4  283.30    1.94
  -3  -3   3   74.18    0.86
   3  -3  -3   73.50    0.84
  -3  -3   2   25.23    0.40
  -3  -3   2   25.08    0.49
  -3  -3   2   23.80    0.51
  -3  -3   1  239.32    1.41
  -3  -3   1  236.70    1.63
  -3  -3   0   45.65    0.69
   3  -3   1   28.29    0.56
  -3  -3  -1   27.71    0.55
  -3  -3  -2  141.78    1.30
   3  -3   2  139.56    1.32
  -3  -3  -3   20.42    0.51
   3  -3   3   20.50    0.54
  -3  -3  -4   21.81    0.55
   3  -3   4   20.41    0.55
  -3  -3  -5   71.04    1.04
   3  -3   5   71.10    1.11
  -3  -3  -6   14.21    0.50
   3  -3   6   14.54    0.54
  -3  -3  -7   28.66    0.73
  -3  -3  -8   22.75    0.68
  -3  -3  -9    2.24    0.26
   3  -2 -12    1.87    0.28
   3  -2 -11   22.81    0.56
   3  -2 -11   25.21    0.86
   3  -2 -10   13.31    0.40
   3  -2 -10   14.01    0.62
  -3  -2   9    5.11    0.30
   3  -2  -9    5.01    0.22
   3  -2  -9    5.19    0.37
   3  -2  -8   81.09    1.32
  -3  -2   8   76.93    1.05
  -3  -2   7   56.19    0.86
   3  -2  -7   56.53    1.02
  -3  -2   6   28.80    0.58
   3  -2  -6   29.15    0.69
  -3  -2   6   29.16    0.59
  -3  -2   5  195.22    1.47
  -3  -2   5  194.59    1.54
   3  -2  -5  199.01    1.71
   3  -2  -4   67.41    0.72
  -3  -2   4   68.32    0.91
   3  -2  -4   70.24    0.94
  -3  -2   4   68.20    0.83
  -3  -2   3  114.51    1.06
   3  -2  -3  115.55    1.17
  -3  -2   2  400.89    1.41
  -3  -2   2  401.50    2.08
  -3  -2   1   18.57    0.43
  -3  -2   1   18.42    0.45
  -3  -2   0  322.12    1.92
   3  -2   1  308.52    1.93
  -3  -2  -1  306.81    1.90
  -3  -2  -2    4.71    0.24
   3  -2   2    5.02    0.26
  -3  -2  -3  249.48    1.82
   3  -2   3  246.21    1.86
  -3  -2  -4  137.03    1.39
   3  -2   4  142.85    1.51
  -3  -2  -5   18.14    0.53
   3  -2   5   17.88    0.56
  -3  -2  -6   71.19    1.09
   3  -2   6   73.71    1.21
  -3  -2  -7   21.55    0.64
  -3  -2  -8    5.13    0.34
  -3  -2  -9   23.30    0.73
   3  -1 -12   14.77    0.54
   3  -1 -12   15.08    0.70
   3  -1 -11    3.03    0.24
   3  -1 -11    3.27    0.34
   3  -1 -10   30.77    0.68
   3  -1 -10   33.36    0.95
   3  -1  -9   42.90    0.75
  -3  -1   9   43.09    0.84
   3  -1  -8    4.20    0.32
   3  -1  -8    3.79    0.21
  -3  -1   8    3.84    0.25
  -3  -1   7  144.67    1.39
   3  -1  -7  146.03    1.66
  -3  -1   6  159.03    1.38
   3  -1  -6  157.81    1.62
  -3  -1   5   15.31    0.41
  -3  -1   5   14.74    0.36
   3  -1  -5   15.16    0.47
   3  -1  -4  325.00    1.36
  -3  -1   4  329.59    1.84
  -3  -1   4  327.18    1.89
  -3  -1   3  264.52    1.66
   3  -1  -3  270.55    1.83
  -3  -1   2   46.28    0.67
  -3  -1   1  334.36    1.95
  -3  -1   1  336.03    1.92
  -3  -1   0  209.72    1.53
   3  -1   1  115.37    1.16
  -3  -1  -1  115.48    1.15
  -3  -1  -2  213.90    1.61
   3  -1   2  220.38    1.68
  -3  -1  -3   30.02    0.62
   3  -1   3   29.94    0.64
  -3  -1  -4   43.15    0.79
   3  -1   4   42.51    0.82
  -3  -1  -5  134.70    1.45
   3  -1   5  139.38    1.59
  -3  -1  -6    4.88    0.30
   3  -1   6    6.26    0.36
  -3  -1  -7   37.34    0.84
  -3  -1  -8   32.83    0.83
  -3  -1  -9    0.52    0.16
   3   0 -12    6.05    0.39
   3   0 -12    6.29    0.47
   3   0 -11   21.05    0.66
   3   0 -11   22.00    0.82
   3   0 -10   28.86    0.73
   3   0 -10   31.32    0.92
   3   0  -9   14.60    0.49
  -3   0   9   14.37    0.49
   3   0  -9   14.67    0.61
   3   0  -8  143.87    1.43
  -3   0   8  146.29    1.47
  -3   0   7   16.84    0.47
   3   0  -7   15.74    0.55
  -3   0   6   17.85    0.46
   3   0  -6   18.32    0.55
  -3   0   5  267.33    1.76
   3   0  -5  270.05    2.02
  -3   0   4   21.84    0.37
   3   0  -4   22.80    0.54
  -3   0   4   23.04    0.48
   3   0  -3  133.95    1.27
  -3   0   3  131.72    1.15
  -3   0   2  356.40    1.96
  -3   0   1    0.44    0.08
  -3   0   1    0.40    0.08
  -3   0   0  226.06    1.59
   3   0   1  278.47    1.84
  -3   0  -1  275.57    1.80
   3   0   2   13.18    0.41
  -3   0  -2   12.31    0.38
  -3   0  -3  317.64    2.09
   3   0   3  308.53    2.10
  -3   0  -4  102.71    1.21
   3   0   4  100.58    1.27
  -3   0  -5    1.11    0.16
   3   0   5    4.91    0.31
  -3   0  -6   79.99    1.16
   3   0   6   85.06    1.32
  -3   0  -7   39.94    0.86
  -3   0  -8    6.34    0.37
  -3   0  -9   21.77    0.70
   3   1 -12   15.59    0.65
   3   1 -11    3.23    0.31
   3   1 -10   32.55    0.85
   3   1  -9   40.87    0.90
  -3   1   9   39.08    0.80
   3   1  -4  327.05    1.01
  -3   1   4  326.90    1.19
  -3   1  -9    0.55    0.18
   3   2 -12    2.01    0.31
   3   2 -11   24.63    0.84
   3   2 -11   24.76    0.88
   3   2 -10   14.13    0.61
   3   2 -10   15.95    0.68
   3   2  -9    6.44    0.40
  -3   2   9    5.39    0.31
   3   2  -9    5.45    0.39
   3   2  -8   85.94    1.39
  -3   2   8   82.08    1.09
  -3   2   7   55.12    0.85
   3   2  -7   54.99    1.02
   3   2  -6   28.22    0.69
  -3   2   6   27.01    0.56
  -3   2   5  201.55    1.49
   3   2  -5  206.37    1.76
   3   2  -4   65.59    0.57
   3   2  -4   66.78    0.93
  -3   2   4   65.90    0.81
   3   2  -3  111.99    1.16
  -3   2   3  110.19    1.04
  -3   2   2  398.48    2.06
  -3   2   1   18.00    0.42
  -3   2   1   18.80    0.37
  -3   2   1   19.48    0.46
  -3   2   0  320.56    1.94
   3   2   1  307.63    1.93
  -3   2  -1  301.97    1.90
  -3   2  -2    4.73    0.24
   3   2   2    4.75    0.25
  -3   2  -3  253.63    1.84
   3   2   3  252.42    1.90
  -3   2  -4  136.38    1.38
   3   2   4  139.67    1.53
  -3   2  -5   16.92    0.52
   3   2   5   16.88    0.56
  -3   2  -6   71.17    1.09
   3   2   6   76.77    1.27
  -3   2  -7   21.97    0.65
  -3   2  -8    5.00    0.34
  -3   2  -9   23.52    0.73
   3   3 -12   15.52    0.73
   3   3 -11    1.69    0.27
   3   3 -10   25.50    0.87
  -3   3   9   58.68    0.97
  -3   3   9   60.64    0.99
   3   3  -8    3.97    0.32
  -3   3   8    3.57    0.24
  -3   3   7  109.94    1.21
   3   3  -7  110.16    1.46
  -3   3   6  111.11    1.14
   3   3  -6  109.85    1.35
   3   3  -5   24.71    0.60
   3   3  -5   23.38    0.46
  -3   3   5   24.30    0.51
  -3   3   4  281.00    1.72
   3   3  -4  281.77    1.94
   3   3  -4  276.48    1.56
  -3   3   3   77.38    0.86
  -3   3   2   27.14    0.32
  -3   3   2   27.03    0.50
  -3   3   2   27.20    0.54
  -3   3   1  239.82    1.59
  -3   3   1  237.25    1.57
  -3   3   1  240.02    1.64
  -3   3   0   48.35    0.72
  -3   3   0   49.19    0.73
   3   3   1   27.68    0.56
  -3   3  -1   28.17    0.56
  -3   3  -2  143.22    1.31
   3   3   2  142.43    1.36
  -3   3  -3   19.64    0.50
   3   3   3   19.54    0.53
  -3   3  -4   21.37    0.54
   3   3   4   20.43    0.57
  -3   3  -5   71.46    1.05
   3   3   5   73.16    1.16
  -3   3  -6   14.88    0.51
   3   3   6   14.81    0.56
  -3   3  -7   28.60    0.73
  -3   3  -8   22.91    0.69
  -3   3  -9    2.02    0.25
   3   4 -12    1.38    0.27
   3   4 -11   14.52    0.69
   3   4 -10    9.56    0.53
   3   4  -9    2.82    0.29
  -3   4   9    4.03    0.27
   3   4  -8   49.28    1.04
  -3   4   8   49.58    0.86
   3   4  -7   31.56    0.78
  -3   4   7   31.36    0.64
  -3   4   6   16.96    0.45
   3   4  -6   16.10    0.46
   3   4  -6   16.48    0.52
   3   4  -5   83.94    0.99
   3   4  -5   85.94    1.10
  -3   4   4   68.11    0.81
   3   4  -4   68.18    0.93
  -3   4   3   93.20    0.92
  -3   4   2  211.87    1.11
  -3   4   2  213.54    1.53
  -3   4   1   10.14    0.31
  -3   4   1   10.08    0.36
  -3   4   1    9.93    0.32
  -3   4   0  140.18    1.38
  -3   4   0  137.68    1.09
  -3   4   0  137.93    1.20
  -3   4   0  137.76    1.21
  -3   4  -1  231.89    1.59
  -3   4  -1  240.87    1.87
  -3   4  -2    0.55    0.11
   3   4   2    0.45    0.10
  -3   4  -3  147.03    1.37
   3   4   3  146.72    1.45
  -3   4  -4   85.64    1.08
   3   4   4   82.04    1.14
  -3   4  -5    8.33    0.36
   3   4   5    8.39    0.40
  -3   4  -6   49.09    0.91
   3   4   6   48.14    1.00
  -3   4  -7   14.73    0.53
  -3   4  -8    4.72    0.33
  -3   4  -9   14.66    0.58
   3   5 -11    0.63    0.20
   3   5 -10   12.29    0.59
   3   5  -9   23.43    0.76
  -3   5   9   22.66    0.60
   3   5  -8    0.00    0.10
  -3   5   8    0.02    0.10
   3   5  -8    0.06    0.13
   3   5  -7   49.79    0.95
  -3   5   7   50.60    0.81
   3   5  -6   71.21    1.04
   3   5  -6   70.06    1.05
  -3   5   5    4.85    0.23
   3   5  -5    4.77    0.26
   3   5  -5    4.87    0.28
  -3   5   4  137.02    1.14
  -3   5   3   65.89    0.76
  -3   5   3   64.19    0.83
  -3   5   2    4.75    0.21
  -3   5   2    4.96    0.23
  -3   5   1  172.25    1.25
  -3   5   1  171.77    1.30
  -3   5   0   45.46    0.86
  -3   5   0   46.39    0.70
  -3   5   0   44.88    0.67
  -3   5   0   44.71    0.66
  -3   5  -1   32.44    0.57
  -3   5  -1   32.02    0.74
  -3   5  -1   31.22    0.60
  -3   5  -2   81.99    0.95
  -3   5  -2   84.48    1.23
  -3   5  -2   84.24    1.07
   3   5   2   82.67    1.01
  -3   5  -3   16.47    0.45
  -3   5  -3   15.22    0.47
   3   5   3   15.21    0.46
  -3   5  -4   22.13    0.54
   3   5   4   21.34    0.58
  -3   5  -5   50.31    0.86
   3   5   5   47.21    0.91
  -3   5  -6    2.96    0.24
   3   5   6    2.26    0.24
  -3   5  -7   13.99    0.52
  -3   5  -8   14.24    0.54
  -3   5  -9    0.60    0.17
   3   6 -11    8.78    0.49
   3   6 -11    9.58    0.54
   3   6 -10    5.54    0.38
   3   6 -10    5.35    0.39
   3   6  -9    3.97    0.32
   3   6  -9    4.09    0.32
   3   6  -8   27.73    0.77
  -3   6   8   28.96    0.64
   3   6  -8   27.76    0.74
   3   6  -7    9.72    0.45
   3   6  -7    9.55    0.40
  -3   6   7   10.97    0.38
   3   6  -6   15.60    0.55
  -3   6   6   16.37    0.43
  -3   6   5   52.21    0.72
  -3   6   4    8.28    0.27
  -3   6   4    6.97    0.28
  -3   6   3   38.25    0.54
  -3   6   3   37.67    0.61
  -3   6   2   79.63    0.78
  -3   6   2   81.66    0.86
  -3   6   1    0.58    0.09
  -3   6   1    0.47    0.09
  -3   6   0   56.06    0.70
  -3   6   0   56.97    0.83
  -3   6   0   53.98    0.68
  -3   6   0   58.92    1.06
  -3   6  -1   68.46    0.80
  -3   6  -1   69.72    1.18
  -3   6  -1   69.73    0.98
  -3   6  -2    0.23    0.12
  -3   6  -2    0.61    0.13
  -3   6  -2    0.33    0.09
  -3   6  -3   57.54    0.81
  -3   6  -3   56.93    1.11
  -3   6  -3   57.51    0.97
   3   6   3   54.96    0.85
  -3   6  -4   31.84    0.85
  -3   6  -4   33.10    0.66
   3   6   4   31.02    0.68
  -3   6  -5    1.87    0.18
   3   6   5    0.72    0.15
  -3   6  -6   24.30    0.64
   3   6   6   22.13    0.67
  -3   6  -7   10.11    0.44
  -3   6  -8    1.50    0.21
   3   7 -10    3.40    0.33
   3   7 -10    3.90    0.32
   3   7  -9   10.49    0.47
   3   7  -9   10.42    0.53
   3   7  -8    0.08    0.10
   3   7  -8    0.11    0.13
  -3   7   8    0.12    0.10
   3   7  -7   21.20    0.71
   3   7  -7   20.14    0.55
  -3   7   7   21.22    0.50
  -3   7   6   21.09    0.47
  -3   7   5    0.48    0.10
  -3   7   5    0.59    0.10
  -3   7   4   51.61    0.69
  -3   7   4   53.67    0.65
  -3   7   3   35.45    0.50
  -3   7   3   34.05    0.52
  -3   7   2    5.54    0.19
  -3   7   2    5.10    0.20
  -3   7   1   50.93    0.59
  -3   7   1   50.54    0.56
  -3   7   0   24.97    0.42
  -3   7   0   25.97    0.43
  -3   7  -1   12.59    0.55
  -3   7  -1   11.89    0.31
  -3   7  -1   11.75    0.44
  -3   7  -1   11.04    0.30
  -3   7  -2   42.06    1.00
  -3   7  -2   41.06    0.61
  -3   7  -2   40.98    0.84
  -3   7  -3    5.67    0.39
  -3   7  -3    5.59    0.25
  -3   7  -4   10.48    0.53
  -3   7  -4   10.71    0.37
  -3   7  -5   18.86    0.71
   3   7   5   19.69    0.56
  -3   7  -6    0.95    0.16
  -3   7  -7    6.52    0.36
   3   8  -9    0.73    0.20
   3   8  -8   10.23    0.55
  -3   8   5   20.93    0.41
  -3   8   4    4.61    0.17
  -3   8   3   11.51    0.22
  -3   8   3   12.15    0.23
  -3   8   2   34.08    0.33
  -3   8   2   32.79    0.32
  -3   8   1    1.31    0.07
  -3   8   1    1.33    0.07
  -3   8   0   26.42    0.32
  -3   8   0   26.87    0.31
  -3   8  -1   30.20    0.39
  -3   8  -1   34.28    0.96
  -3   8  -2    0.21    0.15
  -3   8  -2    0.64    0.09
  -3   8  -3   26.72    0.86
  -4  -7   7   12.30    0.58
  -4  -7   6   26.13    0.82
  -4  -7   6   24.87    0.61
  -4  -7   5    0.71    0.19
  -4  -7   5    0.51    0.12
  -4  -7   4   25.47    0.83
  -4  -7   4   24.63    0.55
  -4  -7   3   27.66    0.87
  -4  -7   3   26.41    0.55
  -4  -7   2    0.23    0.15
  -4  -7   2    0.26    0.10
  -4  -7   1   34.11    0.61
  -4  -7   1   35.65    0.79
  -4  -7   0   17.45    0.44
  -4  -7   0   18.79    0.60
  -4  -7  -1    4.77    0.24
  -4  -7  -2   26.77    0.57
  -4  -7  -3    6.12    0.30
   4  -6 -11    5.10    0.41
   4  -6 -10    6.52    0.43
   4  -6  -9    0.35    0.16
   4  -6  -8   16.09    0.58
  -4  -6   7    9.67    0.49
  -4  -6   7    9.68    0.37
  -4  -6   6    3.81    0.23
   4  -6  -6    3.97    0.30
  -4  -6   6    3.83    0.32
  -4  -6   5   39.97    0.69
  -4  -6   5   41.98    1.00
  -4  -6   5   40.03    0.78
  -4  -6   4   14.57    0.41
  -4  -6   4   14.01    0.59
  -4  -6   4   14.51    0.46
  -4  -6   3   14.24    0.60
  -4  -6   3   14.75    0.41
  -4  -6   3   14.96    0.45
  -4  -6   2   68.37    0.93
  -4  -6   2   67.75    0.88
  -4  -6   1   14.99    0.48
  -4  -6   1   14.30    0.42
  -4  -6   1   14.90    0.44
  -4  -6   0   28.69    0.60
  -4  -6   0   28.72    0.69
  -4  -6   0   28.86    0.61
  -4  -6  -1   48.95    0.79
  -4  -6  -1   50.35    0.96
  -4  -6  -1   49.67    0.84
  -4  -6  -2    4.92    0.27
  -4  -6  -2    4.82    0.28
  -4  -6  -3   22.24    0.57
  -4  -6  -4   26.40    0.64
  -4  -6  -5   -0.02    0.11
  -4  -6  -6   10.95    0.45
  -4  -6  -7    7.34    0.40
   4  -5 -11    1.69    0.27
   4  -5 -10    7.53    0.48
   4  -5  -9   25.31    0.80
   4  -5  -9   21.89    0.70
   4  -5  -8    1.86    0.22
   4  -5  -8    1.86    0.23
  -4  -5   8    1.90    0.19
  -4  -5   7   22.01    0.56
   4  -5  -7   23.77    0.69
   4  -5  -7   21.94    0.65
  -4  -5   7   22.09    0.69
  -4  -5   6   57.84    0.87
   4  -5  -6   56.93    0.99
  -4  -5   6   58.15    1.11
  -4  -5   5    2.96    0.20
  -4  -5   5    3.93    0.31
  -4  -5   4   50.62    1.05
  -4  -5   4   51.57    0.79
  -4  -5   4   52.40    0.91
  -4  -5   3   77.24    1.05
  -4  -5   3   74.36    0.94
  -4  -5   2    2.25    0.18
  -4  -5   2    1.50    0.17
  -4  -5   1   66.63    0.92
  -4  -5   1   65.21    0.92
  -4  -5   1   66.74    0.95
  -4  -5   0   48.13    0.83
  -4  -5   0   49.40    0.83
  -4  -5   0   49.27    0.81
  -4  -5  -1    6.11    0.30
  -4  -5  -1    5.80    0.30
  -4  -5  -2   81.99    1.08
  -4  -5  -3   12.01    0.43
   4  -5   3   11.70    0.44
   4  -5   4    8.61    0.40
  -4  -5  -4    8.61    0.38
  -4  -5  -5   32.49    0.75
  -4  -5  -6    5.87    0.35
  -4  -5  -7    6.88    0.39
   4  -4 -11   18.46    0.78
   4  -4 -10   12.38    0.61
   4  -4  -9    1.61    0.24
  -4  -4   8   53.14    0.91
   4  -4  -8   52.59    1.10
  -4  -4   7   16.51    0.48
   4  -4  -7   17.75    0.61
  -4  -4   7   17.71    0.58
   4  -4  -6   23.22    0.58
   4  -4  -6   23.88    0.66
  -4  -4   6   23.49    0.66
  -4  -4   6   23.56    0.57
   4  -4  -5   88.44    1.08
  -4  -4   5   87.02    1.29
  -4  -4   5   87.70    1.06
  -4  -4   4   13.55    0.51
  -4  -4   4   14.39    0.43
  -4  -4   3   45.23    0.74
  -4  -4   3   46.58    0.83
  -4  -4   2  121.22    1.05
  -4  -4   2  118.46    1.23
  -4  -4   2  121.07    1.32
  -4  -4   1   15.40    0.40
  -4  -4   1   15.23    0.45
  -4  -4   1   15.72    0.47
  -4  -4   0   55.73    0.89
  -4  -4   0   56.51    0.88
  -4  -4  -1   70.33    0.99
  -4  -4  -2   10.34    0.40
  -4  -4  -3   25.88    0.64
   4  -4   3   24.95    0.65
  -4  -4  -4   51.26    0.91
   4  -4   4   49.97    0.96
  -4  -4  -5    0.98    0.17
  -4  -4  -6   17.69    0.59
  -4  -4  -7   12.79    0.52
   4  -3 -11    2.15    0.30
   4  -3 -10   10.26    0.56
   4  -3  -9   31.91    0.92
  -4  -3   8    7.84    0.35
   4  -3  -8    8.38    0.46
   4  -3  -7   23.10    0.70
  -4  -3   7   22.80    0.57
   4  -3  -7   24.49    0.57
  -4  -3   7   22.63    0.60
   4  -3  -6  124.06    1.21
  -4  -3   6  128.01    1.32
  -4  -3   6  125.39    1.41
   4  -3  -6  128.83    1.57
   4  -3  -5   14.73    0.51
   4  -3  -5   13.63    0.38
  -4  -3   5   14.13    0.48
  -4  -3   5   13.88    0.43
  -4  -3   4   84.70    1.19
  -4  -3   4   86.57    1.04
  -4  -3   3  166.89    1.46
  -4  -3   3  166.57    1.58
  -4  -3   2    1.88    0.11
  -4  -3   2    2.14    0.20
  -4  -3   2    1.84    0.17
  -4  -3   1  177.80    1.57
  -4  -3   1  175.76    1.58
  -4  -3   0  125.91    1.34
  -4  -3  -1   19.89    0.54
  -4  -3  -2  167.85    1.60
   4  -3   2  169.98    1.65
  -4  -3  -3   30.99    0.70
   4  -3   3   31.47    0.73
  -4  -3  -4   31.51    0.73
   4  -3   4   31.30    0.77
  -4  -3  -5   58.25    1.02
  -4  -3  -6    6.62    0.37
  -4  -3  -7   13.34    0.53
  -4  -3  -8   12.25    0.53
   4  -2 -12    0.08    0.18
   4  -2 -11   20.05    0.81
   4  -2 -10   24.86    0.86
   4  -2  -9    3.40    0.33
  -4  -2   8   71.79    1.05
   4  -2  -8   74.05    1.33
   4  -2  -7   27.53    0.76
  -4  -2   7   26.78    0.63
  -4  -2   7   26.83    0.59
   4  -2  -6   32.51    0.53
   4  -2  -6   34.51    0.81
  -4  -2   6   32.78    0.66
  -4  -2   6   33.22    0.66
   4  -2  -5  123.49    0.96
  -4  -2   5  122.55    1.30
  -4  -2   5  123.53    1.27
   4  -2  -5  125.60    1.47
  -4  -2   4   28.43    0.60
  -4  -2   3   69.92    0.95
  -4  -2   2  196.76    1.63
  -4  -2   2  200.03    0.90
  -4  -2   2  195.44    1.69
  -4  -2   1   17.87    0.50
  -4  -2   1   18.29    0.52
  -4  -2   0   59.59    0.93
  -4  -2  -1  142.72    1.47
  -4  -2  -2   15.38    0.48
   4  -2   2   15.37    0.50
  -4  -2  -3   45.53    0.85
   4  -2   3   46.63    0.90
  -4  -2  -4   75.04    1.13
   4  -2   4   72.66    1.17
  -4  -2  -5    1.56    0.20
   4  -2   5    1.43    0.21
  -4  -2  -6   29.23    0.76
  -4  -2  -7   20.29    0.66
  -4  -2  -8    0.08    0.14
   4  -1 -12   11.93    0.65
   4  -1 -11    2.13    0.29
   4  -1 -10   14.18    0.65
   4  -1  -9   63.36    1.30
  -4  -1   8    4.93    0.29
   4  -1  -8    4.79    0.35
  -4  -1   7   64.69    0.97
   4  -1  -7   67.16    1.20
   4  -1  -6  126.33    0.89
   4  -1  -6  134.02    1.59
  -4  -1   6  133.36    1.35
  -4  -1   6  129.30    1.16
   4  -1  -5   18.38    0.56
  -4  -1   5   17.99    0.45
  -4  -1   5   17.85    0.49
  -4  -1   4  183.07    1.55
  -4  -1   3  161.68    1.45
  -4  -1   2    1.16    0.14
  -4  -1   2    1.22    0.15
  -4  -1   1  187.41    1.62
  -4  -1   1  189.77    1.67
  -4  -1   0  143.63    1.45
   4  -1   1   25.39    0.62
  -4  -1  -1   24.76    0.61
   4  -1   2  178.59    1.72
  -4  -1  -2  179.83    1.68
  -4  -1  -3   33.86    0.75
   4  -1   3   33.89    0.78
  -4  -1  -4   24.83    0.66
   4  -1   4   23.40    0.68
  -4  -1  -5   69.27    1.13
   4  -1   5   69.37    1.19
  -4  -1  -6   12.47    0.50
  -4  -1  -7   12.96    0.53
  -4  -1  -8   19.20    0.67
   4   0 -12    0.05    0.17
   4   0 -11   20.95    0.84
   4   0 -10   23.79    0.84
   4   0  -9    2.12    0.27
  -4   0   8   41.00    0.79
   4   0  -8   41.57    1.00
  -4   0   7   65.73    0.98
   4   0  -7   69.10    1.22
   4   0  -6   32.24    0.78
  -4   0   6   32.32    0.66
  -4   0   6   33.08    0.51
  -4   0   5  146.95    1.11
  -4   0   5  145.43    1.38
   4   0  -5  146.99    1.61
  -4   0   4   38.62    0.70
  -4   0   3   35.47    0.67
  -4   0   2  331.52    2.12
  -4   0   2  331.33    2.24
  -4   0   1   35.96    0.70
  -4   0   1   35.90    0.72
  -4   0   0  121.89    1.36
   4   0   1  187.84    1.69
  -4   0  -1  187.92    1.71
   4   0   2   20.46    0.58
  -4   0  -2   20.98    0.57
  -4   0  -3   81.89    1.16
   4   0   3   79.30    1.19
  -4   0  -4  105.16    1.36
   4   0   4  107.12    1.45
   4   0   5    0.21    0.13
  -4   0  -5    0.22    0.12
  -4   0  -6   38.03    0.86
  -4   0  -7   19.30    0.64
  -4   0  -8    0.44    0.16
  -4   1   8    4.52    0.28
   4   1  -6  124.00    0.59
  -4   1   5   17.95    0.29
  -4   1   2    1.22    0.08
  -4   1  -8   19.48    0.68
   4   2 -12   -0.02    0.20
   4   2 -11   20.93    0.85
   4   2 -10   26.23    0.91
   4   2  -9    3.05    0.33
  -4   2   8   69.80    1.03
   4   2  -8   72.83    1.34
   4   2  -7   29.19    0.80
  -4   2   7   28.52    0.64
   4   2  -7   27.51    0.44
   4   2  -6   33.31    0.40
   4   2  -6   35.17    0.82
  -4   2   6   34.78    0.68
   4   2  -5  123.83    1.47
  -4   2   5  122.26    1.26
  -4   2   4   27.79    0.59
  -4   2   4   28.00    0.28
  -4   2   3   69.75    0.94
  -4   2   2  199.19    1.63
  -4   2   2  197.19    1.71
  -4   2   1   17.22    0.48
  -4   2   1   17.78    0.38
  -4   2   1   17.69    0.51
  -4   2   0   61.61    0.95
  -4   2  -1  145.24    1.49
  -4   2  -2   15.12    0.49
   4   2   2   15.55    0.51
  -4   2  -3   46.40    0.86
   4   2   3   46.99    0.92
  -4   2  -4   73.59    1.13
   4   2   4   72.69    1.19
  -4   2  -5    1.34    0.19
   4   2   5    1.21    0.19
  -4   2  -6   29.07    0.76
  -4   2  -7   19.69    0.65
  -4   2  -8    0.10    0.15
   4   3 -11    1.89    0.29
   4   3 -10    9.49    0.56
   4   3  -9   31.86    0.95
  -4   3   8    8.14    0.36
   4   3  -8    7.46    0.30
   4   3  -8    8.30    0.46
   4   3  -7   23.62    0.72
  -4   3   7   23.03    0.57
   4   3  -7   22.24    0.46
   4   3  -6  125.45    1.01
  -4   3   6  127.69    1.31
   4   3  -6  129.10    1.58
  -4   3   5   13.82    0.42
   4   3  -5   14.83    0.51
  -4   3   4   86.75    1.04
  -4   3   3  163.22    1.43
  -4   3   3  161.53    1.54
  -4   3   2    1.89    0.19
  -4   3   2    1.70    0.17
  -4   3   1  174.27    1.58
  -4   3   1  174.48    1.54
  -4   3   0  127.04    1.24
  -4   3   0  124.86    1.36
  -4   3  -1   20.95    0.56
  -4   3  -2  167.17    1.61
   4   3   2  169.76    1.70
  -4   3  -3   32.12    0.72
   4   3   3   31.86    0.74
  -4   3  -4   32.10    0.74
   4   3   4   32.25    0.80
  -4   3  -5   60.53    1.05
  -4   3  -6    6.70    0.37
  -4   3  -7   14.66    0.56
  -4   3  -8   12.44    0.54
   4   4 -11   18.82    0.81
   4   4 -10   10.74    0.44
   4   4 -10   12.87    0.64
   4   4  -9    0.87    0.15
   4   4  -9    1.04    0.22
  -4   4   8   52.35    0.89
   4   4  -8   52.50    1.12
  -4   4   7   16.94    0.49
   4   4  -7   17.17    0.46
   4   4  -7   17.65    0.61
   4   4  -6   22.86    0.65
  -4   4   6   23.50    0.56
  -4   4   5   87.79    1.04
  -4   4   4   14.76    0.42
  -4   4   3   45.12    0.74
  -4   4   3   45.29    0.81
  -4   4   2  119.17    0.85
  -4   4   2  121.38    1.31
  -4   4   1   15.44    0.46
  -4   4   1   14.84    0.44
  -4   4   1   15.46    0.47
  -4   4   0   56.15    0.90
  -4   4   0   56.14    0.89
  -4   4  -1   74.35    1.07
  -4   4  -1   74.80    1.04
  -4   4  -2    9.33    0.38
   4   4   2    8.83    0.38
  -4   4  -3   26.19    0.65
   4   4   3   24.46    0.66
  -4   4  -4   50.75    0.92
   4   4   4   49.89    0.99
  -4   4  -5    1.06    0.17
  -4   4  -6   18.27    0.59
  -4   4  -7   12.91    0.53
  -4   4  -8    0.01    0.14
   4   5 -11    1.56    0.22
   4   5 -11    1.63    0.27
   4   5 -10    6.73    0.38
   4   5 -10    7.39    0.49
   4   5  -9   24.44    0.81
   4   5  -9   22.35    0.65
   4   5  -8    1.85    0.20
   4   5  -8    2.07    0.25
  -4   5   8    1.95    0.19
   4   5  -7   21.77    0.66
  -4   5   7   22.96    0.56
   4   5  -7   22.72    0.60
   4   5  -6   57.71    1.02
  -4   5   6   57.73    0.85
  -4   5   5    2.61    0.19
  -4   5   4   52.33    0.78
  -4   5   4   50.59    0.87
  -4   5   3   74.89    1.03
  -4   5   3   72.54    0.91
  -4   5   2    1.53    0.15
  -4   5   2    1.77    0.12
  -4   5   2    1.56    0.17
  -4   5   1   66.04    0.77
  -4   5   1   67.15    0.95
  -4   5   1   64.60    0.90
  -4   5   0   49.98    0.92
  -4   5   0   50.32    0.73
  -4   5   0   48.62    0.81
  -4   5   0   49.56    0.82
  -4   5  -1    6.13    0.30
  -4   5  -1    6.05    0.30
  -4   5  -1    6.33    0.35
  -4   5  -1    6.14    0.28
  -4   5  -2   81.12    1.08
  -4   5  -2   85.11    1.28
  -4   5  -3   11.67    0.42
   4   5   3   11.20    0.45
  -4   5  -4    9.08    0.39
   4   5   4    8.62    0.41
  -4   5  -5   33.67    0.76
  -4   5  -6    5.89    0.34
  -4   5  -7    6.89    0.39
   4   6 -11    5.81    0.44
   4   6 -10    6.12    0.39
   4   6 -10    5.96    0.42
   4   6  -9    0.21    0.13
   4   6  -9    0.21    0.15
   4   6  -8   15.67    0.58
   4   6  -8   17.06    0.59
  -4   6   8   17.01    0.50
   4   6  -7    9.16    0.42
  -4   6   7    9.79    0.36
  -4   6   6    3.75    0.23
  -4   6   5   41.86    0.69
  -4   6   5   42.01    0.80
  -4   6   4   14.50    0.40
  -4   6   4   14.15    0.44
  -4   6   3   14.41    0.39
  -4   6   3   14.97    0.44
  -4   6   2   66.98    0.86
  -4   6   2   67.14    0.91
  -4   6   1   15.51    0.40
  -4   6   1   14.25    0.40
  -4   6   1   14.85    0.44
  -4   6   0   29.44    0.60
  -4   6   0   30.83    0.79
  -4   6   0   29.64    0.60
  -4   6  -1   49.25    0.79
  -4   6  -1   48.98    0.81
  -4   6  -1   46.86    0.79
  -4   6  -2    4.85    0.27
  -4   6  -2    5.72    0.37
  -4   6  -2    5.24    0.29
  -4   6  -3   22.00    0.57
  -4   6  -3   22.16    0.72
  -4   6  -4   27.46    0.66
  -4   6  -4   25.85    0.79
   4   6   4   26.19    0.70
  -4   6  -5    0.07    0.11
  -4   6  -6   10.73    0.45
  -4   6  -7    7.23    0.39
   4   7 -10    3.66    0.32
   4   7  -9    8.79    0.45
  -4   7   6   26.17    0.64
  -4   7   6   27.34    0.55
  -4   7   5    0.57    0.11
  -4   7   5    0.62    0.12
  -4   7   4   25.09    0.49
  -4   7   4   23.63    0.54
  -4   7   3   27.24    0.51
  -4   7   3   26.69    0.55
  -4   7   2    0.26    0.09
  -4   7   2    0.23    0.09
  -4   7   1   31.66    0.57
  -4   7   1   32.20    0.59
  -4   7   0   17.19    0.43
  -4   7   0   18.40    0.51
  -4   7   0   17.11    0.43
  -4   7  -1    4.80    0.25
  -4   7  -1    4.66    0.24
  -4   7  -1    5.12    0.37
  -4   7  -1    4.73    0.29
  -4   7  -2   27.07    0.57
  -4   7  -2   27.51    0.83
  -4   7  -2   26.85    0.67
  -4   7  -3    6.80    0.44
  -4   7  -3    6.42    0.30
  -4   7  -4    4.06    0.35
  -4   7  -4    4.38    0.27
  -4   7  -5   14.57    0.49
  -4   7  -6    1.89    0.21
  -4   8  -1   17.84    0.70
  -5  -7   3   17.38    0.73
  -5  -7   3   18.08    0.53
  -5  -7   2    0.51    0.18
  -5  -7   2    0.58    0.13
  -5  -7   1   12.20    0.43
   5  -6 -10    6.97    0.47
  -5  -6   8   15.81    0.63
  -5  -6   7   14.27    0.60
  -5  -6   6    2.27    0.27
  -5  -6   6    2.16    0.23
  -5  -6   5   36.37    0.72
  -5  -6   5   36.10    0.99
  -5  -6   5   34.94    0.81
  -5  -6   4   14.83    0.64
  -5  -6   4   14.43    0.46
  -5  -6   4   14.90    0.52
  -5  -6   3    6.31    0.43
  -5  -6   3    5.76    0.33
  -5  -6   3    5.98    0.31
  -5  -6   2   35.01    0.72
  -5  -6   2   36.64    0.78
  -5  -6   1   10.07    0.39
  -5  -6   1    9.61    0.39
  -5  -6   1    8.99    0.39
  -5  -6   0   10.25    0.41
  -5  -6   0   10.79    0.43
  -5  -6   0   10.10    0.41
  -5  -6  -1   20.79    0.59
  -5  -6  -1   20.47    0.61
  -5  -6  -1   19.87    0.59
  -5  -6  -2    2.02    0.21
  -5  -6  -3    5.29    0.31
  -5  -6  -4   12.39    0.49
  -5  -6  -5    0.41    0.14
   5  -5 -10    2.95    0.33
   5  -5  -9   14.80    0.64
   5  -5  -8    6.06    0.34
  -5  -5   8    6.11    0.39
  -5  -5   7    8.18    0.44
  -5  -5   6   25.13    0.62
  -5  -5   6   23.91    0.74
  -5  -5   5    4.33    0.34
  -5  -5   5    4.62    0.27
  -5  -5   5    4.29    0.30
  -5  -5   4   18.37    0.68
  -5  -5   4   18.96    0.60
  -5  -5   4   19.22    0.54
  -5  -5   3   38.52    0.76
  -5  -5   3   39.66    0.84
  -5  -5   2    1.23    0.17
  -5  -5   2    1.33    0.19
  -5  -5   1   34.76    0.65
  -5  -5   1   33.87    0.75
  -5  -5   1   34.76    0.78
  -5  -5   0   38.06    0.74
  -5  -5   0   38.59    0.82
  -5  -5   0   38.62    0.81
  -5  -5  -1    0.04    0.11
  -5  -5  -1    0.05    0.10
  -5  -5  -2   32.75    0.76
  -5  -5  -3   23.59    0.67
  -5  -5  -4    1.48    0.20
  -5  -5  -5   14.50    0.55
   5  -4 -10   12.12    0.63
   5  -4  -9    0.14    0.10
   5  -4  -9    0.08    0.14
   5  -4  -8   15.84    0.49
   5  -4  -8   16.47    0.65
  -5  -4   8   17.01    0.59
  -5  -4   7   30.74    0.78
  -5  -4   6    0.51    0.13
  -5  -4   6    0.64    0.16
  -5  -4   5   68.58    1.20
  -5  -4   5   64.55    1.12
  -5  -4   5   66.59    1.00
  -5  -4   4   40.42    0.88
  -5  -4   4   40.22    0.79
  -5  -4   3    3.63    0.25
  -5  -4   3    3.74    0.28
  -5  -4   2   97.92    0.89
  -5  -4   2   94.68    1.24
  -5  -4   2   97.23    1.32
  -5  -4   1   26.86    0.67
  -5  -4   1   27.37    0.52
  -5  -4   1   28.25    0.70
  -5  -4   0   16.61    0.55
  -5  -4   0   17.56    0.57
  -5  -4  -1   62.50    1.04
  -5  -4  -2    4.82    0.31
  -5  -4  -3   18.82    0.60
  -5  -4  -4   23.53    0.67
  -5  -4  -5    0.68    0.17
  -5  -4  -6   12.81    0.54
   5  -3 -11    4.39    0.42
   5  -3 -10    4.94    0.30
   5  -3 -10    6.11    0.46
   5  -3  -9   35.58    0.71
   5  -3  -9   38.89    1.06
   5  -3  -8    6.50    0.43
   5  -3  -8    6.69    0.29
  -5  -3   8    6.81    0.35
  -5  -3   7   27.38    0.69
   5  -3  -7   29.03    0.84
  -5  -3   6   33.02    0.77
  -5  -3   6   33.95    0.73
  -5  -3   5    5.53    0.33
  -5  -3   5    5.49    0.30
  -5  -3   4   48.24    0.86
  -5  -3   4   48.52    0.96
  -5  -3   3   52.41    0.91
  -5  -3   3   53.06    1.00
  -5  -3   2    0.24    0.06
  -5  -3   2    0.35    0.13
  -5  -3   2    0.36    0.12
  -5  -3   1   39.25    0.56
  -5  -3   1   40.53    0.85
  -5  -3   0   56.39    1.02
  -5  -3   0   57.61    1.02
  -5  -3  -1    0.54    0.14
  -5  -3  -2   43.28    0.90
  -5  -3  -3   35.50    0.83
  -5  -3  -4    0.85    0.17
  -5  -3  -5   20.20    0.66
  -5  -3  -6   12.01    0.52
   5  -2 -11    7.18    0.52
   5  -2 -10   12.56    0.65
   5  -2  -9    0.86    0.22
   5  -2  -9    1.04    0.13
   5  -2  -8   26.66    0.49
   5  -2  -8   29.30    0.89
   5  -2  -7   55.97    1.16
  -5  -2   7   55.22    0.94
  -5  -2   7   53.39    0.87
  -5  -2   6    2.01    0.20
  -5  -2   6    2.07    0.20
  -5  -2   5  105.73    1.30
  -5  -2   5  105.70    1.28
  -5  -2   4   60.09    0.96
  -5  -2   4   58.71    1.04
  -5  -2   3    7.18    0.35
  -5  -2   3    7.23    0.38
  -5  -2   2  148.49    1.58
  -5  -2   2  147.35    1.64
  -5  -2   1   50.51    0.95
  -5  -2   1   49.77    0.93
  -5  -2   0   38.90    0.84
  -5  -2   0   41.56    0.88
  -5  -2  -1   89.95    1.29
  -5  -2  -2    6.61    0.36
  -5  -2  -3   25.69    0.71
  -5  -2  -4   42.02    0.94
  -5  -2  -5    0.30    0.14
  -5  -2  -6   16.72    0.62
   5  -1 -11    6.86    0.51
   5  -1 -10    7.46    0.51
   5  -1  -9   38.55    1.06
   5  -1  -9   34.32    0.54
   5  -1  -8    6.62    0.20
   5  -1  -8    7.38    0.46
   5  -1  -7   11.74    0.54
  -5  -1   7   11.65    0.44
  -5  -1   7   12.29    0.38
  -5  -1   6   71.40    0.93
  -5  -1   6   70.88    1.06
  -5  -1   5    7.64    0.32
  -5  -1   5    7.88    0.36
  -5  -1   4   34.31    0.73
  -5  -1   3  102.77    1.36
  -5  -1   3  105.24    1.31
  -5  -1   2    2.46    0.22
  -5  -1   2    2.48    0.24
  -5  -1   1   83.39    1.19
  -5  -1   1   82.23    1.21
  -5  -1   0   83.62    1.23
  -5  -1  -1    1.71    0.20
  -5  -1  -2   90.60    1.30
   5  -1   2   92.39    1.35
  -5  -1  -3   50.82    1.01
  -5  -1  -4    2.32    0.24
  -5  -1  -5   32.16    0.83
  -5  -1  -6   15.03    0.59
   5   0 -11   13.14    0.70
   5   0 -10   15.94    0.73
   5   0  -9    0.74    0.20
   5   0  -8   68.37    1.35
   5   0  -7   42.27    1.01
  -5   0   7   40.29    0.81
   5   0  -6    5.56    0.37
  -5   0   6    5.31    0.22
  -5   0   6    5.16    0.30
  -5   0   5  120.44    1.12
  -5   0   5  121.29    1.39
  -5   0   4   76.63    1.09
  -5   0   3   35.85    0.80
  -5   0   3   35.97    0.77
  -5   0   2  102.84    1.30
  -5   0   2  106.09    1.39
  -5   0   1   47.97    0.90
  -5   0   1   50.40    0.96
  -5   0   0   38.73    0.85
  -5   0  -1   87.21    1.29
   5   0   2    4.62    0.32
  -5   0  -2    4.55    0.31
  -5   0  -3   16.56    0.58
  -5   0  -4   43.40    0.95
  -5   0  -5    0.78    0.17
  -5   0  -6   12.96    0.55
  -5   1   7   11.03    0.43
  -5   1   6   75.22    0.65
  -5   1   6   71.35    1.06
  -5   1   5    6.91    0.23
  -5   1   2    2.83    0.12
  -5   1  -6   14.57    0.59
   5   2 -11    7.27    0.54
   5   2 -10   12.17    0.65
   5   2 -10   10.27    0.31
   5   2  -9    0.74    0.08
   5   2  -9    0.97    0.22
   5   2  -8   32.06    0.95
   5   2  -7   54.70    1.15
  -5   2   7   52.49    0.91
  -5   2   6    2.09    0.20
  -5   2   5  106.60    0.58
  -5   2   5  105.14    1.28
  -5   2   4   62.50    0.98
  -5   2   4   58.94    1.03
  -5   2   3    8.12    0.37
  -5   2   3    7.70    0.39
  -5   2   2  143.40    1.55
  -5   2   2  147.65    1.07
  -5   2   2  142.64    1.60
  -5   2   1   53.11    0.69
  -5   2   1   52.62    0.97
  -5   2   1   51.54    0.93
  -5   2   0   38.56    0.83
  -5   2   0   42.06    0.90
  -5   2  -1   89.32    1.30
  -5   2  -2    7.21    0.38
  -5   2  -3   25.07    0.70
  -5   2  -4   44.43    0.97
  -5   2  -5    0.33    0.15
  -5   2  -6   16.28    0.61
   5   3 -10    6.11    0.47
   5   3 -10    5.43    0.25
   5   3  -9   35.47    0.54
   5   3  -9   38.65    1.08
   5   3  -8    6.50    0.44
   5   3  -7   27.57    0.83
  -5   3   6   34.87    0.73
  -5   3   5    5.45    0.30
  -5   3   4   48.66    0.86
  -5   3   4   46.48    0.93
  -5   3   3   53.64    0.91
  -5   3   3   52.99    0.98
  -5   3   2    0.23    0.11
  -5   3   2    0.21    0.12
  -5   3   1   41.52    0.69
  -5   3   1   39.87    0.83
  -5   3   1   42.20    0.88
  -5   3   0   57.53    0.86
  -5   3   0   58.37    1.03
  -5   3   0   56.48    1.00
  -5   3  -1    0.31    0.12
  -5   3  -2   45.33    0.93
  -5   3  -3   35.51    0.84
  -5   3  -4    0.76    0.17
  -5   3  -5   20.46    0.67
  -5   3  -6   12.72    0.54
   5   4 -10   11.73    0.63
   5   4  -9    0.22    0.16
   5   4  -8   16.06    0.65
  -5   4   6    0.68    0.14
  -5   4   5   66.49    0.99
  -5   4   4   38.91    0.85
  -5   4   4   40.85    0.78
  -5   4   3    3.58    0.25
  -5   4   3    3.60    0.13
  -5   4   3    3.49    0.27
  -5   4   2   95.50    1.23
  -5   4   2   96.96    1.30
  -5   4   1   28.24    0.64
  -5   4   1   27.48    0.69
  -5   4   0   16.50    0.53
  -5   4   0   17.48    0.52
  -5   4   0   17.77    0.57
  -5   4  -1   64.86    1.04
  -5   4  -1   65.30    1.08
  -5   4  -2    5.14    0.33
  -5   4  -3   19.24    0.61
  -5   4  -4   23.76    0.69
  -5   4  -5    0.60    0.16
  -5   4  -6   12.85    0.54
   5   5 -10    3.07    0.34
   5   5  -9   13.85    0.63
   5   5  -8    6.14    0.41
  -5   5   6   25.10    0.61
  -5   5   5    4.32    0.26
  -5   5   5    4.36    0.31
  -5   5   4   18.78    0.60
  -5   5   4   19.38    0.53
  -5   5   3   36.92    0.73
  -5   5   3   38.84    0.83
  -5   5   2    1.43    0.17
  -5   5   2    1.40    0.11
  -5   5   2    1.55    0.19
  -5   5   1   34.73    0.76
  -5   5   1   34.48    0.57
  -5   5   1   34.73    0.77
  -5   5   1   33.01    0.72
  -5   5   0   41.33    0.86
  -5   5   0   39.32    0.82
  -5   5  -1    0.00    0.11
  -5   5  -1   -0.02    0.12
  -5   5  -1    0.07    0.11
  -5   5  -2   32.31    0.76
  -5   5  -2   31.75    0.81
  -5   5  -3   24.54    0.68
  -5   5  -3   23.18    0.71
  -5   5  -4    1.45    0.20
  -5   5  -5   14.41    0.54
   5   6 -10    6.07    0.44
  -5   6   6    2.39    0.20
  -5   6   6    2.37    0.25
  -5   6   5   35.21    0.69
  -5   6   5   34.98    0.80
  -5   6   4   14.05    0.44
  -5   6   4   14.68    0.51
  -5   6   3    6.07    0.33
  -5   6   3    6.02    0.30
  -5   6   2   34.83    0.70
  -5   6   2   36.26    0.77
  -5   6   1    9.08    0.37
  -5   6   1    8.63    0.38
  -5   6   0   10.08    0.41
  -5   6   0   10.19    0.41
  -5   6   0   10.68    0.48
  -5   6  -1   21.52    0.60
  -5   6  -1   22.33    0.71
  -5   6  -1   22.47    0.62
  -5   6  -2    2.15    0.21
  -5   6  -2    1.81    0.24
  -5   6  -3    5.44    0.32
  -5   6  -3    5.90    0.40
  -5   6  -4   13.19    0.50
  -5   6  -4   11.81    0.56
  -5   6  -5    0.41    0.14
  -5   7   7    2.82    0.26
  -5   7   6    9.73    0.42
  -5   7   5    2.13    0.20
  -5   7   4    6.26    0.32
  -5   7   3   17.42    0.46
  -5   7   3   17.76    0.52
  -5   7   2    0.45    0.11
  -5   7   2    0.51    0.12
  -5   7   1   11.72    0.41
  -5   7   0   17.46    0.51
  -5   7  -1    0.18    0.14
  -5   7  -1    0.13    0.11
  -5   7  -2   17.60    0.53
  -5   7  -2   18.44    0.70
  -5   7  -3    9.37    0.40
  -6  -6   8    3.05    0.29
  -6  -6   7    7.75    0.42
  -6  -6   6    0.66    0.17
  -6  -6   5    7.47    0.42
  -6  -6   4   14.13    0.55
  -6  -6   3    0.20    0.15
  -6  -6   2   13.93    0.53
  -6  -6   1   13.53    0.53
  -6  -6   0    0.60    0.16
  -6  -6  -1   20.02    0.63
  -6  -6  -2    4.48    0.32
  -6  -5   8    3.94    0.33
  -6  -5   7    4.08    0.33
  -6  -5   7    3.42    0.30
  -6  -5   6   18.82    0.69
  -6  -5   6   18.91    0.66
  -6  -5   5    3.55    0.33
  -6  -5   5    3.32    0.31
  -6  -5   4   13.13    0.61
  -6  -5   4   12.92    0.54
  -6  -5   3   26.72    0.77
  -6  -5   2    1.60    0.23
  -6  -5   1   15.82    0.59
  -6  -5   0   16.64    0.59
  -6  -5  -1    0.79    0.18
  -6  -5  -2    8.82    0.44
  -6  -5  -3    9.77    0.47
  -6  -4   8   11.56    0.50
  -6  -4   7   19.65    0.66
  -6  -4   6    0.52    0.16
  -6  -4   6    0.25    0.14
  -6  -4   5   18.89    0.67
  -6  -4   5   18.27    0.65
  -6  -4   4   21.01    0.70
  -6  -4   3    0.30    0.14
  -6  -4   2   23.88    0.73
  -6  -4   1   18.89    0.65
  -6  -4   0    2.57    0.26
  -6  -4  -1   27.47    0.77
  -6  -4  -2    7.71    0.42
  -6  -4  -3    3.78    0.32
   6  -3  -9   11.81    0.62
  -6  -3   8    9.75    0.43
  -6  -3   7    3.14    0.26
  -6  -3   6   35.07    0.83
  -6  -3   6   31.82    0.84
  -6  -3   5    8.07    0.42
  -6  -3   5    7.57    0.43
  -6  -3   4   12.82    0.54
  -6  -3   3   61.89    1.17
  -6  -3   2    6.51    0.39
  -6  -3   1   31.63    0.83
  -6  -3   0   40.18    0.94
  -6  -3  -1    1.79    0.23
  -6  -3  -2   20.47    0.68
  -6  -3  -3   18.34    0.65
  -6  -3  -4    0.16    0.14
   6  -2  -9    0.06    0.16
  -6  -2   8   19.01    0.54
  -6  -2   7   21.70    0.59
  -6  -2   6    0.74    0.14
  -6  -2   5   29.79    0.82
  -6  -2   4   33.74    0.85
  -6  -2   3    0.85    0.18
  -6  -2   2   32.70    0.84
  -6  -2   1   28.90    0.79
  -6  -2   0    2.46    0.26
  -6  -2  -1   44.64    0.99
  -6  -2  -2   12.02    0.53
  -6  -2  -3    5.29    0.37
  -6  -2  -4   21.36    0.72
   6  -1  -9   20.86    0.83
  -6  -1   8   14.75    0.42
  -6  -1   7   13.06    0.41
  -6  -1   6   45.90    0.80
  -6  -1   5    8.18    0.43
  -6  -1   4   26.32    0.75
  -6  -1   3   71.20    1.24
  -6  -1   2    2.51    0.26
  -6  -1   1   37.23    0.91
  -6  -1   0   40.79    0.95
  -6  -1  -1    0.83    0.18
  -6  -1  -2   18.69    0.66
  -6  -1  -3   20.44    0.69
  -6  -1  -4    0.28    0.16
   6   0  -9    0.14    0.17
   6   0  -8   10.92    0.59
  -6   0   7   30.09    0.53
  -6   0   6    2.88    0.19
  -6   0   5   28.19    0.77
  -6   0   4   35.34    0.87
  -6   0   3    0.94    0.18
  -6   0   2   47.15    1.00
  -6   0   1   45.52    1.00
  -6   0   0    3.08    0.29
  -6   0  -1   64.18    1.20
  -6   0  -2   15.66    0.61
  -6   0  -3    8.01    0.45
  -6   0  -4   31.23    0.88
  -6   1   6   44.82    0.57
  -6   1   1   37.16    0.51
  -6   1  -3   19.82    0.69
  -6   1  -4    0.25    0.15
   6   2  -9    0.05    0.16
  -6   2   5   33.02    0.43
  -6   2   5   30.34    0.82
  -6   2   4   29.60    0.79
  -6   2   3    0.63    0.17
  -6   2   2   34.14    0.86
  -6   2   1   29.69    0.53
  -6   2   1   30.35    0.82
  -6   2   0    2.60    0.18
  -6   2   0    2.79    0.28
  -6   2  -1   45.25    1.01
  -6   2  -2   12.40    0.54
  -6   2  -3    5.70    0.38
  -6   2  -4   21.34    0.73
   6   3  -9   10.62    0.60
  -6   3   6   30.92    0.83
  -6   3   5    8.03    0.44
  -6   3   4   12.29    0.53
  -6   3   3   63.27    1.18
  -6   3   2    6.28    0.39
  -6   3   1   30.69    0.60
  -6   3   1   31.83    0.84
  -6   3   0   38.97    0.73
  -6   3   0   41.08    0.96
  -6   3  -1    1.21    0.16
  -6   3  -1    1.17    0.20
  -6   3  -2   20.28    0.69
  -6   3  -3   17.60    0.64
  -6   3  -4    0.27    0.16
  -6   4   6    0.16    0.13
  -6   4   5   20.70    0.68
  -6   4   4   21.31    0.69
  -6   4   3    0.35    0.15
  -6   4   2   23.51    0.71
  -6   4   1   18.85    0.53
  -6   4   1   18.67    0.63
  -6   4   0    2.68    0.22
  -6   4   0    2.56    0.26
  -6   4  -1   26.66    0.76
  -6   4  -1   26.69    0.69
  -6   4  -2    7.67    0.43
  -6   4  -2    7.66    0.39
  -6   4  -3    3.96    0.33
  -6   5   7    3.64    0.32
  -6   5   6   20.52    0.70
  -6   5   5    3.88    0.32
  -6   5   4   13.13    0.55
  -6   5   3   27.26    0.76
  -6   5   2    1.45    0.21
  -6   5   1   15.55    0.58
  -6   5   0   18.12    0.59
  -6   5   0   18.15    0.62
  -6   5  -1    1.26    0.20
  -6   5  -1    0.68    0.16
  -6   5  -2    9.21    0.45
  -6   5  -2    9.23    0.46
  -6   5  -3    9.36    0.46
  -6   5  -3    8.87    0.46
  -6   6   8    3.65    0.34
  -6   6   7    8.82    0.48
  -6   6   6    0.73    0.18
  -6   6   5    7.31    0.41
  -6   6   4   14.08    0.54
  -6   6   3    0.11    0.13
  -6   6   2   13.58    0.52
  -6   6   1   13.12    0.51
  -6   6   0    1.05    0.18
  -6   6   0    0.66    0.17
  -6   6  -1   18.60    0.60
  -6   6  -1   19.81    0.67
  -6   6  -2    4.55    0.32
  -6   6  -2    4.48    0.35
  -6   7   5    1.14    0.18
  -6   7   4    5.96    0.34
  -6   7   3   11.94    0.47
  -6   7   2    0.68    0.15
  -6   7   1    8.18    0.39
  -6   7   0    6.84    0.35
  -7  -5   4    0.62    0.19
  -7  -5   3   14.81    0.61
  -7  -4   8    4.71    0.34
  -7  -4   7    7.66    0.43
  -7  -4   6    1.27    0.21
  -7  -4   5    8.58    0.48
  -7  -4   5    8.95    0.50
  -7  -4   4   11.67    0.55
  -7  -4   3    0.12    0.14
  -7  -4   2   10.37    0.52
  -7  -4   1   10.32    0.53
  -7  -3   8    5.69    0.34
  -7  -3   7    1.28    0.19
  -7  -3   6   18.19    0.63
  -7  -3   6   16.02    0.64
  -7  -3   5    7.40    0.44
  -7  -3   5    6.93    0.44
  -7  -3   4    2.43    0.28
  -7  -3   3   22.55    0.76
  -7  -3   2    6.51    0.42
  -7  -3   1    5.85    0.40
  -7  -3   0   16.27    0.65
  -7  -2   7   15.80    0.53
  -7  -2   7   12.84    0.58
  -7  -2   6    1.14    0.18
  -7  -2   6    0.80    0.18
  -7  -2   5   11.37    0.54
  -7  -2   4   17.66    0.68
  -7  -2   3    0.05    0.14
  -7  -2   2   18.40    0.69
  -7  -2   1   14.90    0.62
  -7  -2   0    0.38    0.17
  -7  -1   7    0.33    0.15
  -7  -1   6   19.79    0.57
  -7  -1   6   15.38    0.62
  -7  -1   5   12.48    0.56
  -7  -1   4    1.53    0.24
  -7  -1   3   25.84    0.80
  -7  -1   2   15.68    0.64
  -7  -1   1    6.99    0.44
  -7  -1   0   28.07    0.86
  -7   0   7   16.44    0.64
  -7   0   6    0.16    0.14
  -7   0   5   14.95    0.61
  -7   0   4   19.45    0.69
  -7   0   3    1.03    0.20
  -7   0   2   21.21    0.73
  -7   0   1    8.83    0.48
  -7   0   0    0.11    0.15
  -7   1   1    6.81    0.44
  -7   1   0   27.88    0.86
  -7   2   7   12.83    0.58
  -7   2   6    1.08    0.20
  -7   2   5   10.91    0.53
  -7   2   4   17.42    0.67
  -7   2   3    0.26    0.15
  -7   2   2   17.97    0.68
  -7   2   1   13.82    0.60
  -7   2   0    0.36    0.17
  -7   3   6   16.53    0.66
  -7   3   5    6.82    0.43
  -7   3   4    2.47    0.28
  -7   3   3   21.57    0.74
  -7   3   2    6.35    0.42
  -7   3   1    5.29    0.39
  -7   3   0   16.08    0.65
  -7   4   5    8.14    0.47
  -7   4   4   11.29    0.54
  -7   4   3    0.16    0.14
  -7   4   2   10.66    0.53
  -7   4   1   10.13    0.52
  -7   5   4    0.53    0.18
  -7   5   3   14.56    0.60
  -7   5   2    6.10    0.40
   0   0   0    0.00    0.00
;
_shelx_hkl_checksum              89311
loop_
_space_group_symop_operation_xyz
'x, y, z'
'-x, y+1/2, -z'
loop_
_atom_site_label
_atom_site_type_symbol
_atom_site_fract_x
_atom_site_fract_y
_atom_site_fract_z
_atom_site_U_iso_or_equiv
_atom_site_adp_type
_atom_site_occupancy
_atom_site_site_symmetry_order
_atom_site_calc_flag
_atom_site_refinement_flags_posn
_atom_site_refinement_flags_adp
_atom_site_refinement_flags_occupancy
_atom_site_disorder_assembly
_atom_site_disorder_group
I1 I 0.03369(4) 0.7179(2) 0.32365(3) 0.04220(11) Uani 1 1 d . . . . .
N1 N 0.5979(6) 0.7080(12) 0.7187(3) 0.0324(8) Uani 1 1 d . . . . .
F1 F 0.3721(9) 0.8351(7) 0.9337(5) 0.0816(13) Uani 1 1 d . . . . .
C1 C 0.4644(17) 0.8781(10) 0.7195(9) 0.0359(19) Uani 1 1 d . . . . .
H1A H 0.2986 0.8602 0.6809 0.043 Uiso 1 1 calc R U . . .
H1B H 0.5171 0.9683 0.6674 0.043 Uiso 1 1 calc R U . . .
C2 C 0.5170(12) 0.9295(9) 0.8697(6) 0.0545(14) Uani 1 1 d . . . . .
H2 H 0.5004 1.0563 0.8801 0.065 Uiso 1 1 calc R U . . .
C3 C 0.7637(13) 0.8725(10) 0.9271(6) 0.0647(18) Uani 1 1 d . . . . .
H3A H 0.7960 0.8513 1.0246 0.078 Uiso 1 1 calc R U . . .
H3B H 0.8702 0.9615 0.9117 0.078 Uiso 1 1 calc R U . . .
C4 C 0.7885(9) 0.705(3) 0.8523(6) 0.062(2) Uani 1 1 d . . . . .
H4A H 0.7708 0.6034 0.9063 0.074 Uiso 1 1 calc R U . . .
H4B H 0.9406 0.6997 0.8348 0.074 Uiso 1 1 calc R U . . .
C5 C 0.440(2) 0.5532(15) 0.7121(15) 0.062(3) Uani 1 1 d . . . . .
H5A H 0.3171 0.5577 0.6288 0.093 Uiso 1 1 calc R U . . .
H5B H 0.3748 0.5558 0.7887 0.093 Uiso 1 1 calc R U . . .
H5C H 0.5276 0.4469 0.7144 0.093 Uiso 1 1 calc R U . . .
C6 C 0.6956(9) 0.714(2) 0.5974(5) 0.0498(11) Uani 1 1 d . . . . .
H6A H 0.5709 0.7281 0.5157 0.075 Uiso 1 1 calc R U . . .
H6B H 0.7770 0.6065 0.5922 0.075 Uiso 1 1 calc R U . . .
H6C H 0.8015 0.8109 0.6067 0.075 Uiso 1 1 calc R U . . .
loop_
_atom_site_aniso_label
_atom_site_aniso_U_11
_atom_site_aniso_U_22
_atom_site_aniso_U_33
_atom_site_aniso_U_23
_atom_site_aniso_U_13
_atom_site_aniso_U_12
I1 0.04043(16) 0.03826(16) 0.04702(17) 0.0017(3) 0.01020(11) 0.0032(3)
N1 0.0300(14) 0.032(2) 0.0341(15) 0.001(3) 0.0065(12) 0.003(3)
F1 0.092(3) 0.101(4) 0.072(3) 0.011(2) 0.056(3) 0.012(2)
C1 0.039(4) 0.033(5) 0.038(4) 0.003(3) 0.014(3) 0.007(3)
C2 0.077(4) 0.049(3) 0.042(3) -0.005(2) 0.024(3) 0.002(3)
C3 0.076(5) 0.077(5) 0.034(3) -0.003(3) 0.001(3) -0.018(4)
C4 0.042(2) 0.080(6) 0.051(3) 0.011(6) -0.009(2) 0.004(6)
C5 0.058(7) 0.046(7) 0.085(8) 0.004(5) 0.024(6) -0.011(4)
C6 0.058(3) 0.050(3) 0.050(2) 0.000(7) 0.028(2) 0.011(7)
loop_
_atom_type_symbol
_atom_type_description
_atom_type_scat_dispersion_real
_atom_type_scat_dispersion_imag
_atom_type_scat_source
C C 0.0033 0.0016 'International Tables Vol C Tables 4.2.6.8 and 6.1.1.4'
H H 0.0000 0.0000 'International Tables Vol C Tables 4.2.6.8 and 6.1.1.4'
N N 0.0061 0.0033 'International Tables Vol C Tables 4.2.6.8 and 6.1.1.4'
F F 0.0171 0.0103 'International Tables Vol C Tables 4.2.6.8 and 6.1.1.4'
I I -0.4742 1.8119 'International Tables Vol C Tables 4.2.6.8 and 6.1.1.4'
loop_
_geom_angle_atom_site_label_1
_geom_angle_atom_site_label_2
_geom_angle_atom_site_label_3
_geom_angle
_geom_angle_site_symmetry_1
_geom_angle_site_symmetry_3
_geom_angle_publ_flag
C6 N1 C5 111.4(9) . . ?
C6 N1 C4 111.9(4) . . ?
C5 N1 C4 109.8(10) . . ?
C6 N1 C1 107.3(8) . . ?
C5 N1 C1 110.4(4) . . ?
C4 N1 C1 106.0(9) . . ?
N1 C1 C2 104.9(6) . . ?
F1 C2 C3 109.4(5) . . ?
F1 C2 C1 110.1(6) . . ?
C3 C2 C1 103.5(6) . . ?
C2 C3 C4 105.5(5) . . ?
C3 C4 N1 106.6(10) . . ?
loop_
_geom_bond_atom_site_label_1
_geom_bond_atom_site_label_2
_geom_bond_distance
_geom_bond_site_symmetry_2
_geom_bond_publ_flag
N1 C6 1.497(5) . ?
N1 C5 1.498(13) . ?
N1 C4 1.518(6) . ?
N1 C1 1.522(11) . ?
F1 C2 1.409(8) . ?
C1 C2 1.523(10) . ?
C2 C3 1.493(10) . ?
C3 C4 1.514(18) . ?
loop_
_geom_hbond_atom_site_label_D
_geom_hbond_atom_site_label_H
_geom_hbond_atom_site_label_A
_geom_hbond_distance_DH
_geom_hbond_distance_HA
_geom_hbond_distance_DA
_geom_hbond_angle_DHA
_geom_hbond_site_symmetry_A
C6 H6C I1 0.96 3.27 4.159(16) 154.4 2_656
C6 H6B I1 0.96 3.20 4.103(15) 157.0 2_646
C5 H5C I1 0.96 3.25 4.135(14) 153.9 2_646
C5 H5B F1 0.96 2.59 3.215(15) 122.9 .
C3 H3B I1 0.97 3.25 4.064(7) 142.2 2_656
C3 H3A I1 0.97 3.16 4.089(6) 162.0 1_656
C1 H1B I1 0.97 3.26 4.067(10) 141.3 2_656
loop_
_geom_torsion_atom_site_label_1
_geom_torsion_atom_site_label_2
_geom_torsion_atom_site_label_3
_geom_torsion_atom_site_label_4
_geom_torsion
_geom_torsion_site_symmetry_1
_geom_torsion_site_symmetry_2
_geom_torsion_site_symmetry_3
_geom_torsion_site_symmetry_4
_geom_torsion_publ_flag
C6 N1 C1 C2 -141.1(7) . . . . ?
C5 N1 C1 C2 97.4(8) . . . . ?
C4 N1 C1 C2 -21.4(8) . . . . ?
N1 C1 C2 F1 -81.5(7) . . . . ?
N1 C1 C2 C3 35.4(8) . . . . ?
F1 C2 C3 C4 81.6(7) . . . . ?
C1 C2 C3 C4 -35.8(8) . . . . ?
C2 C3 C4 N1 22.7(9) . . . . ?
C6 N1 C4 C3 116.2(11) . . . . ?
C5 N1 C4 C3 -119.6(10) . . . . ?
C1 N1 C4 C3 -0.4(9) . . . . ?
