#------------------------------------------------------------------------------
#$Date: 2020-06-05 12:55:46 +0300 (Fri, 05 Jun 2020) $
#$Revision: 252718 $
#$URL: file:///home/coder/svn-repositories/cod/cif/7/12/62/7126247.cif $
#------------------------------------------------------------------------------
#
# This file is available in the Crystallography Open Database (COD),
# http://www.crystallography.net/
#
# All data on this site have been placed in the public domain by the
# contributors.
#
data_7126247
loop_
_publ_author_name
'Liu, Gongyi'
'Zhang, Xianghe'
'Wang, Heng'
'Cong, Hengjiang'
'Zhang, Xumu'
'Dong, Xiu-Qin'
_publ_section_title
;
 Synthesis of chiral \a-substituted \a-amino acid and amine derivatives
 through Ni-catalyzed asymmetric hydrogenation.
;
_journal_issue                   36
_journal_name_full
'Chemical communications (Cambridge, England)'
_journal_page_first              4934
_journal_page_last               4937
_journal_paper_doi               10.1039/d0cc01220c
_journal_volume                  56
_journal_year                    2020
_chemical_absolute_configuration ad
_chemical_formula_moiety         'C14 H13 N O4 S'
_chemical_formula_sum            'C14 H13 N O4 S'
_chemical_formula_weight         291.31
_space_group_crystal_system      monoclinic
_space_group_IT_number           4
_space_group_name_Hall           'P 2yb'
_space_group_name_H-M_alt        'P 1 21 1'
_atom_sites_solution_hydrogens   geom
_atom_sites_solution_primary     direct
_atom_sites_solution_secondary   difmap
_audit_creation_date             2020-01-15
_audit_creation_method
; 
Olex2 1.2 
(compiled 2018.05.29 svn.r3508 for OlexSys, GUI svn.r5506) 
;
_audit_update_record
;
2020-01-20 deposited with the CCDC.	2020-03-19 downloaded from the CCDC.
;
_cell_angle_alpha                90.00
_cell_angle_beta                 101.782(3)
_cell_angle_gamma                90.00
_cell_formula_units_Z            2
_cell_length_a                   7.7349(14)
_cell_length_b                   9.6402(17)
_cell_length_c                   9.3298(16)
_cell_measurement_reflns_used    4278
_cell_measurement_temperature    296(2)
_cell_measurement_theta_max      31.44
_cell_measurement_theta_min      2.23
_cell_volume                     681.0(2)
_computing_cell_refinement       'SAINT v7.68A (Bruker, 2009)'
_computing_data_collection       'Bruker APEX2'
_computing_data_reduction        'SAINT v7.68A (Bruker, 2009)'
_computing_molecular_graphics    'Olex2 (Dolomanov et al., 2009)'
_computing_publication_material  'Olex2 (Dolomanov et al., 2009)'
_computing_structure_refinement  'XH (Sheldrick, 2008)'
_computing_structure_solution    'XS (Sheldrick, 2008)'
_diffrn_ambient_temperature      296(2)
_diffrn_measured_fraction_theta_full 0.994
_diffrn_measured_fraction_theta_max 0.994
_diffrn_measurement_device_type  'Bruker APEX-II CCD'
_diffrn_measurement_method       '\f and \w scans'
_diffrn_radiation_monochromator  graphite
_diffrn_radiation_type           MoK\a
_diffrn_radiation_wavelength     0.71073
_diffrn_reflns_av_R_equivalents  0.0169
_diffrn_reflns_av_unetI/netI     0.0232
_diffrn_reflns_limit_h_max       8
_diffrn_reflns_limit_h_min       -9
_diffrn_reflns_limit_k_max       10
_diffrn_reflns_limit_k_min       -11
_diffrn_reflns_limit_l_max       11
_diffrn_reflns_limit_l_min       -11
_diffrn_reflns_number            4701
_diffrn_reflns_theta_full        25.00
_diffrn_reflns_theta_max         25.00
_diffrn_reflns_theta_min         2.23
_diffrn_source                   'fine-focus sealed tube'
_diffrn_standards_number         0
_exptl_absorpt_coefficient_mu    0.250
_exptl_absorpt_correction_T_max  0.7463
_exptl_absorpt_correction_T_min  0.6682
_exptl_absorpt_correction_type   multi-scan
_exptl_absorpt_process_details   'SADABS-2008/1 (Bruker,2008)'
_exptl_crystal_colour            colourless
_exptl_crystal_colour_primary    colourless
_exptl_crystal_density_diffrn    1.421
_exptl_crystal_density_method    'not measured'
_exptl_crystal_description       block
_exptl_crystal_F_000             304
_exptl_crystal_size_max          0.3
_exptl_crystal_size_mid          0.2
_exptl_crystal_size_min          0.2
_refine_diff_density_max         0.131
_refine_diff_density_min         -0.159
_refine_diff_density_rms         0.032
_refine_ls_abs_structure_details 'Flack H D (1983), Acta Cryst. A39, 876-881'
_refine_ls_abs_structure_Flack   0.03(6)
_refine_ls_extinction_coef       0.022(4)
_refine_ls_extinction_expression Fc^*^=kFc[1+0.001xFc^2^\l^3^/sin(2\q)]^-1/4^
_refine_ls_extinction_method     SHELXL
_refine_ls_goodness_of_fit_ref   1.142
_refine_ls_hydrogen_treatment    mixed
_refine_ls_matrix_type           full
_refine_ls_number_parameters     186
_refine_ls_number_reflns         2238
_refine_ls_number_restraints     1
_refine_ls_restrained_S_all      1.142
_refine_ls_R_factor_all          0.0248
_refine_ls_R_factor_gt           0.0241
_refine_ls_shift/su_max          0.000
_refine_ls_shift/su_mean         0.000
_refine_ls_structure_factor_coef Fsqd
_refine_ls_weighting_details
'calc w=1/[\s^2^(Fo^2^)+(0.0404P)^2^+0.0725P] where P=(Fo^2^+2Fc^2^)/3'
_refine_ls_weighting_scheme      calc
_refine_ls_wR_factor_gt          0.0721
_refine_ls_wR_factor_ref         0.0729
_reflns_number_gt                2195
_reflns_number_total             2238
_reflns_threshold_expression     >2sigma(I)
_iucr_refine_instructions_details
; 
TITL mo_200109B_0m in P21 #4 
REM reset to P21 #4 
CELL 0.71073 7.7349 9.6402 9.3298 90 101.782 90 
ZERR 2 0.0014 0.0017 0.0016 0 0.003 0 
LATT -1 
SYMM -X,0.5+Y,-Z 
SFAC C H N O S 
UNIT 28 26 2 8 2 
EQIV $1 1+X,+Y,+Z 
  
L.S. 10 
PLAN  10 
SIZE 0.3 0.2 0.2 
TEMP 23(2) 
HTAB N1 O4_$1 
HTAB 
CONF 
fmap 2 53 
acta 
OMIT -3 50 
REM <olex2.extras> 
REM <HklSrc "%.\\mo_200109B_0m.hkl"> 
REM </olex2.extras> 
  
WGHT    0.040400    0.072500 
EXTI    0.021982 
FVAR       0.38840 
C1    1    0.659587    0.802988    0.874635    11.00000    0.03101    0.04441 = 
         0.03948   -0.00607    0.00733    0.00144 
C2    1    0.777971    0.829058    1.004566    11.00000    0.04304    0.07394 = 
         0.04532   -0.01396    0.00455    0.00082 
AFIX  43 
H2    2    0.797958    0.762776    1.078538    11.00000   -1.20000 
AFIX   0 
C3    1    0.867149    0.956004    1.023444    11.00000    0.04939    0.09862 = 
         0.07617   -0.05111    0.01043   -0.01958 
AFIX  43 
H3    2    0.947399    0.974176    1.110116    11.00000   -1.20000 
AFIX   0 
C4    1    0.836591    1.053598    0.914628    11.00000    0.06946    0.05944 = 
         0.10838   -0.03897    0.04323   -0.02374 
AFIX  43 
H4    2    0.895947    1.137994    0.928021    11.00000   -1.20000 
AFIX   0 
C5    1    0.720148    1.028160    0.787097    11.00000    0.05991    0.03867 = 
         0.08974   -0.00733    0.02985   -0.00271 
AFIX  43 
H5    2    0.699777    1.095087    0.713787    11.00000   -1.20000 
AFIX   0 
C6    1    0.631982    0.902461    0.766584    11.00000    0.04494    0.03977 = 
         0.05365   -0.00148    0.01107   -0.00030 
AFIX  43 
H6    2    0.553287    0.885072    0.678869    11.00000   -1.20000 
AFIX   0 
C7    1    0.571152    0.662074    0.850729    11.00000    0.03617    0.03724 = 
         0.03499    0.00369    0.00598    0.00286 
AFIX  13 
H7    2    0.571503    0.620861    0.946809    11.00000   -1.20000 
AFIX   0 
C8    1    0.381795    0.666221    0.765580    11.00000    0.03390    0.03296 = 
         0.03595    0.00236    0.00859   -0.00044 
C9    1    0.315567    0.576724    0.651081    11.00000    0.03537    0.03309 = 
         0.04102   -0.00057    0.01108    0.00327 
C10   1    0.143117    0.580510    0.572854    11.00000    0.03973    0.03968 = 
         0.03951   -0.00381    0.00412   -0.00204 
AFIX  43 
H10   2    0.104212    0.518628    0.496620    11.00000   -1.20000 
AFIX   0 
C11   1    0.030235    0.678606    0.610941    11.00000    0.03098    0.04143 = 
         0.04377    0.00718    0.00809   -0.00099 
C12   1    0.088674    0.767844    0.727725    11.00000    0.03519    0.03953 = 
         0.04968   -0.00092    0.01530    0.00286 
AFIX  43 
H12   2    0.011696    0.832177    0.754875    11.00000   -1.20000 
AFIX   0 
C13   1    0.261236    0.760529    0.803087    11.00000    0.04000    0.03591 = 
         0.04125   -0.00497    0.01277   -0.00248 
AFIX  43 
H13   2    0.298709    0.820325    0.881499    11.00000   -1.20000 
AFIX   0 
C14   1   -0.196586    0.628851    0.401164    11.00000    0.05296    0.09778 = 
         0.05470   -0.00552   -0.01154    0.01032 
AFIX 137 
H14A  2   -0.121542    0.659555    0.337241    11.00000   -1.50000 
H14B  2   -0.316691    0.653549    0.359980    11.00000   -1.50000 
H14C  2   -0.187474    0.529963    0.412337    11.00000   -1.50000 
AFIX   0 
N1    3    0.684956    0.574909    0.775200    11.00000    0.03449    0.03743 = 
         0.05556    0.00295    0.00792    0.00675 
H1    2    0.722993    0.624816    0.697943    11.00000   -1.20000 
O1    4    0.422196    0.475081    0.601784    11.00000    0.04362    0.04684 = 
         0.05529   -0.01443    0.00539    0.01054 
O2    4    0.702194    0.366894    0.622459    11.00000    0.05540    0.04596 = 
         0.08505   -0.00672    0.02490    0.01266 
O3    4    0.548805    0.355800    0.829214    11.00000    0.07668    0.04286 = 
         0.07268    0.01368    0.02257    0.00465 
O4    4   -0.142906    0.693782    0.541430    11.00000    0.03395    0.06179 = 
         0.05368    0.00030    0.00009    0.00473 
S1    5    0.598033    0.429869    0.712888    11.00000    0.04198    0.03292 = 
         0.05982    0.00209    0.01158    0.00741 
HKLF 4 
  
REM  mo_200109B_0m in P21 #4 
REM R1 =  0.0241 for   2195 Fo > 4sig(Fo)  and  0.0248 for all   2238 data 
REM    186 parameters refined using      1 restraints 
  
END 
  
WGHT      0.0403      0.0727 
REM Highest difference peak  0.131,  deepest hole -0.159,  1-sigma level  0.032 
Q1    1   0.0679  0.5974  0.6283  11.00000  0.05    0.13 
Q2    1   0.7146  0.9408  0.7557  11.00000  0.05    0.13 
Q3    1   0.6292  0.5241  0.7442  11.00000  0.05    0.12 
Q4    1   0.8828  0.9658  0.9570  11.00000  0.05    0.12 
Q5    1   0.6129  0.7430  0.8513  11.00000  0.05    0.11 
Q6    1   0.7164  0.4208  0.6749  11.00000  0.05    0.11 
Q7    1   0.8726  0.8772  1.0255  11.00000  0.05    0.10 
Q8    1   0.7404  0.4064  0.5730  11.00000  0.05    0.10 
Q9    1   0.3822  0.5380  0.6159  11.00000  0.05    0.10 
Q10   1  -0.4722  0.6576  0.3790  11.00000  0.05    0.10 
  
  REM The information below was added by Olex2. 
  REM 
  REM R1 = 0.0241 for 2195 Fo > 4sig(Fo) and 0.0248 for all 7327 data 
  REM n/a parameters refined using n/a restraints 
  REM Highest difference peak 0.13, deepest hole -0.16 
  REM Mean Shift 0, Max Shift 0.000. 
  
  REM +++ Tabular Listing of Refinement Information +++ 
  REM R1_all = 0.0248 
  REM R1_gt = 0.0241 
  REM wR_ref = 0.0729 
  REM GOOF = 1.142 
  REM Shift_max = 0.000 
  REM Shift_mean = 0 
  REM Reflections_all = 7327 
  REM Reflections_gt = 2195 
  REM Parameters = n/a 
  REM Hole = -0.16 
  REM Peak = 0.13 
  REM Flack = 0.03(6) 
  
  
;
_cod_data_source_file            d0cc01220c2.cif
_cod_data_source_block           mo_200109b_0m
_cod_depositor_comments
'Adding full bibliography for 7126247--7126248.cif.'
_cod_database_code               7126247
_olex2_refinement_description
; 
1. Fixed Uiso 
 At 1.2 times of: 
  All C(H) groups, All N(H) groups 
 At 1.5 times of: 
  All C(H,H,H) groups 
2.a Ternary CH refined with riding coordinates: 
 C7(H7) 
2.b Aromatic/amide H refined with riding coordinates: 
 C2(H2), C3(H3), C4(H4), C5(H5), C6(H6), C10(H10), C12(H12), C13(H13) 
2.c Idealised Me refined as rotating group: 
 C14(H14A,H14B,H14C) 
;
_olex2_submission_special_instructions 'No special instructions were received'
loop_
_space_group_symop_id
_space_group_symop_operation_xyz
1 'x, y, z'
2 '-x, y+1/2, -z'
loop_
_atom_site_label
_atom_site_type_symbol
_atom_site_fract_x
_atom_site_fract_y
_atom_site_fract_z
_atom_site_U_iso_or_equiv
_atom_site_adp_type
_atom_site_occupancy
_atom_site_calc_flag
_atom_site_disorder_assembly
_atom_site_disorder_group
_atom_site_refinement_flags_posn
C1 C 0.6596(2) 0.8030(2) 0.87463(18) 0.0383(4) Uani 1 d . . .
C2 C 0.7780(3) 0.8291(3) 1.0046(2) 0.0547(5) Uani 1 d . . .
H2 H 0.7980 0.7628 1.0785 0.066 Uiso 1 calc . . R
C3 C 0.8671(3) 0.9560(3) 1.0234(3) 0.0751(9) Uani 1 d . . .
H3 H 0.9474 0.9742 1.1101 0.090 Uiso 1 calc . . R
C4 C 0.8366(4) 1.0536(3) 0.9146(4) 0.0755(8) Uani 1 d . . .
H4 H 0.8959 1.1380 0.9280 0.091 Uiso 1 calc . . R
C5 C 0.7201(3) 1.0282(2) 0.7871(3) 0.0607(6) Uani 1 d . . .
H5 H 0.6998 1.0951 0.7138 0.073 Uiso 1 calc . . R
C6 C 0.6320(3) 0.9025(2) 0.7666(2) 0.0460(5) Uani 1 d . . .
H6 H 0.5533 0.8851 0.6789 0.055 Uiso 1 calc . . R
C7 C 0.5712(2) 0.66207(19) 0.85073(18) 0.0363(4) Uani 1 d . . .
H7 H 0.5715 0.6209 0.9468 0.044 Uiso 1 calc . . R
C8 C 0.3818(2) 0.6662(2) 0.76558(18) 0.0341(4) Uani 1 d . . .
C9 C 0.3156(2) 0.57672(18) 0.65108(19) 0.0360(4) Uani 1 d . . .
C10 C 0.1431(3) 0.5805(2) 0.5729(2) 0.0402(4) Uani 1 d . . .
H10 H 0.1042 0.5186 0.4966 0.048 Uiso 1 calc . . R
C11 C 0.0302(2) 0.6786(2) 0.61094(19) 0.0387(4) Uani 1 d . . .
C12 C 0.0887(2) 0.7678(2) 0.7277(2) 0.0405(4) Uani 1 d . . .
H12 H 0.0117 0.8322 0.7549 0.049 Uiso 1 calc . . R
C13 C 0.2612(2) 0.76053(19) 0.80309(19) 0.0384(4) Uani 1 d . . .
H13 H 0.2987 0.8203 0.8815 0.046 Uiso 1 calc . . R
C14 C -0.1966(3) 0.6289(3) 0.4012(2) 0.0717(7) Uani 1 d . . .
H14A H -0.1215 0.6596 0.3372 0.108 Uiso 1 calc . . GR
H14B H -0.3167 0.6535 0.3600 0.108 Uiso 1 calc . . GR
H14C H -0.1875 0.5300 0.4123 0.108 Uiso 1 calc . . GR
N1 N 0.6850(2) 0.57491(17) 0.77520(19) 0.0427(4) Uani 1 d . . .
H1 H 0.723(3) 0.625(2) 0.698(2) 0.051 Uiso 1 d . . R
O1 O 0.42220(18) 0.47508(14) 0.60178(15) 0.0493(4) Uani 1 d . . .
O2 O 0.7022(2) 0.36689(16) 0.62246(18) 0.0606(4) Uani 1 d . . .
O3 O 0.5488(2) 0.35580(16) 0.82921(17) 0.0630(4) Uani 1 d . . .
O4 O -0.14291(17) 0.69378(16) 0.54143(15) 0.0511(4) Uani 1 d . . .
S1 S 0.59803(6) 0.42987(5) 0.71289(5) 0.04474(15) Uani 1 d . . .
loop_
_atom_site_aniso_label
_atom_site_aniso_U_11
_atom_site_aniso_U_22
_atom_site_aniso_U_33
_atom_site_aniso_U_23
_atom_site_aniso_U_13
_atom_site_aniso_U_12
C1 0.0310(8) 0.0444(10) 0.0395(8) -0.0061(8) 0.0073(7) 0.0014(8)
C2 0.0430(11) 0.0739(15) 0.0453(10) -0.0140(10) 0.0046(8) 0.0008(11)
C3 0.0494(12) 0.099(2) 0.0762(15) -0.0511(17) 0.0104(11) -0.0196(13)
C4 0.0695(17) 0.0594(15) 0.108(2) -0.0390(16) 0.0432(15) -0.0237(13)
C5 0.0599(14) 0.0387(11) 0.0897(16) -0.0073(11) 0.0299(12) -0.0027(10)
C6 0.0449(10) 0.0398(12) 0.0537(10) -0.0015(8) 0.0111(8) -0.0003(8)
C7 0.0362(9) 0.0372(9) 0.0350(8) 0.0037(7) 0.0060(7) 0.0029(7)
C8 0.0339(8) 0.0330(8) 0.0359(8) 0.0024(7) 0.0086(7) -0.0004(7)
C9 0.0354(9) 0.0331(9) 0.0410(9) -0.0006(7) 0.0111(7) 0.0033(7)
C10 0.0397(9) 0.0397(10) 0.0395(8) -0.0038(7) 0.0041(7) -0.0020(8)
C11 0.0310(8) 0.0414(10) 0.0438(9) 0.0072(8) 0.0081(7) -0.0010(8)
C12 0.0352(9) 0.0395(10) 0.0497(10) -0.0009(8) 0.0153(8) 0.0029(8)
C13 0.0400(9) 0.0359(9) 0.0412(9) -0.0050(7) 0.0128(7) -0.0025(7)
C14 0.0530(13) 0.098(2) 0.0547(12) -0.0055(13) -0.0115(10) 0.0103(13)
N1 0.0345(8) 0.0374(9) 0.0556(9) 0.0029(7) 0.0079(7) 0.0068(7)
O1 0.0436(8) 0.0468(8) 0.0553(8) -0.0144(6) 0.0054(6) 0.0105(6)
O2 0.0554(9) 0.0460(8) 0.0851(10) -0.0067(8) 0.0249(8) 0.0127(7)
O3 0.0767(11) 0.0429(8) 0.0727(9) 0.0137(7) 0.0226(8) 0.0046(8)
O4 0.0340(7) 0.0618(10) 0.0537(7) 0.0003(7) 0.0001(6) 0.0047(7)
S1 0.0420(2) 0.0329(2) 0.0598(3) 0.0021(2) 0.01158(19) 0.0074(2)
loop_
_atom_type_symbol
_atom_type_description
_atom_type_scat_dispersion_real
_atom_type_scat_dispersion_imag
_atom_type_scat_source
C C 0.0033 0.0016 'International Tables Vol C Tables 4.2.6.8 and 6.1.1.4'
H H 0.0000 0.0000 'International Tables Vol C Tables 4.2.6.8 and 6.1.1.4'
N N 0.0061 0.0033 'International Tables Vol C Tables 4.2.6.8 and 6.1.1.4'
O O 0.0106 0.0060 'International Tables Vol C Tables 4.2.6.8 and 6.1.1.4'
S S 0.1246 0.1234 'International Tables Vol C Tables 4.2.6.8 and 6.1.1.4'
loop_
_geom_angle_atom_site_label_1
_geom_angle_atom_site_label_2
_geom_angle_atom_site_label_3
_geom_angle
_geom_angle_site_symmetry_1
_geom_angle_site_symmetry_3
_geom_angle_publ_flag
C2 C1 C7 119.27(19) . . ?
C6 C1 C2 119.39(19) . . ?
C6 C1 C7 121.23(16) . . ?
C1 C2 C3 119.3(2) . . ?
C4 C3 C2 120.1(2) . . ?
C5 C4 C3 120.5(2) . . ?
C4 C5 C6 119.9(2) . . ?
C1 C6 C5 120.7(2) . . ?
C1 C7 C8 114.30(15) . . ?
N1 C7 C1 106.36(14) . . ?
N1 C7 C8 111.51(14) . . ?
C9 C8 C7 123.50(15) . . ?
C9 C8 C13 115.92(16) . . ?
C13 C8 C7 120.55(16) . . ?
C8 C9 O1 122.16(15) . . ?
C10 C9 C8 123.66(16) . . ?
C10 C9 O1 114.16(15) . . ?
C11 C10 C9 118.29(16) . . ?
C10 C11 C12 120.26(16) . . ?
O4 C11 C10 123.96(17) . . ?
O4 C11 C12 115.77(16) . . ?
C13 C12 C11 119.65(17) . . ?
C12 C13 C8 122.15(17) . . ?
C7 N1 S1 114.62(12) . . ?
C9 O1 S1 117.02(11) . . ?
C11 O4 C14 117.26(17) . . ?
O1 S1 N1 103.63(8) . . ?
O2 S1 N1 109.96(9) . . ?
O2 S1 O1 104.09(9) . . ?
O3 S1 N1 108.64(9) . . ?
O3 S1 O1 108.03(9) . . ?
O3 S1 O2 121.03(10) . . ?
loop_
_geom_bond_atom_site_label_1
_geom_bond_atom_site_label_2
_geom_bond_distance
_geom_bond_site_symmetry_2
_geom_bond_publ_flag
C1 C2 1.385(3) . ?
C1 C6 1.376(3) . ?
C1 C7 1.517(3) . ?
C2 C3 1.398(4) . ?
C3 C4 1.369(4) . ?
C4 C5 1.360(4) . ?
C5 C6 1.384(3) . ?
C7 C8 1.517(2) . ?
C7 N1 1.494(2) . ?
C8 C9 1.387(2) . ?
C8 C13 1.397(2) . ?
C9 C10 1.384(3) . ?
C9 O1 1.417(2) . ?
C10 C11 1.382(3) . ?
C11 C12 1.389(3) . ?
C11 O4 1.371(2) . ?
C12 C13 1.378(3) . ?
C14 O4 1.433(3) . ?
N1 S1 1.6079(18) . ?
O1 S1 1.5933(14) . ?
O2 S1 1.4167(15) . ?
O3 S1 1.4147(16) . ?
loop_
_geom_hbond_atom_site_label_D
_geom_hbond_atom_site_label_H
_geom_hbond_atom_site_label_A
_geom_hbond_distance_DH
_geom_hbond_distance_HA
_geom_hbond_distance_DA
_geom_hbond_angle_DHA
_geom_hbond_site_symmetry_A
N1 H1 O4 0.96(2) 2.07(2) 3.005(2) 165(2) 1_655
loop_
_geom_torsion_atom_site_label_1
_geom_torsion_atom_site_label_2
_geom_torsion_atom_site_label_3
_geom_torsion_atom_site_label_4
_geom_torsion
_geom_torsion_site_symmetry_1
_geom_torsion_site_symmetry_2
_geom_torsion_site_symmetry_3
_geom_torsion_site_symmetry_4
_geom_torsion_publ_flag
C1 C2 C3 C4 0.4(3) . . . . ?
C1 C7 C8 C9 133.97(17) . . . . ?
C1 C7 C8 C13 -48.0(2) . . . . ?
C1 C7 N1 S1 -169.38(12) . . . . ?
C2 C1 C6 C5 -0.5(3) . . . . ?
C2 C1 C7 C8 144.50(17) . . . . ?
C2 C1 C7 N1 -92.01(19) . . . . ?
C2 C3 C4 C5 -0.3(4) . . . . ?
C3 C4 C5 C6 -0.2(4) . . . . ?
C4 C5 C6 C1 0.6(3) . . . . ?
C6 C1 C2 C3 0.0(3) . . . . ?
C6 C1 C7 C8 -39.2(2) . . . . ?
C6 C1 C7 N1 84.3(2) . . . . ?
C7 C1 C2 C3 176.39(18) . . . . ?
C7 C1 C6 C5 -176.81(17) . . . . ?
C7 C8 C9 C10 -179.77(17) . . . . ?
C7 C8 C9 O1 -1.5(3) . . . . ?
C7 C8 C13 C12 179.59(16) . . . . ?
C7 N1 S1 O1 59.21(14) . . . . ?
C7 N1 S1 O2 169.98(12) . . . . ?
C7 N1 S1 O3 -55.49(15) . . . . ?
C8 C7 N1 S1 -44.16(18) . . . . ?
C8 C9 C10 C11 -0.2(3) . . . . ?
C8 C9 O1 S1 20.9(2) . . . . ?
C9 C8 C13 C12 -2.3(2) . . . . ?
C9 C10 C11 C12 -1.8(3) . . . . ?
C9 C10 C11 O4 179.46(16) . . . . ?
C9 O1 S1 N1 -46.34(15) . . . . ?
C9 O1 S1 O2 -161.36(13) . . . . ?
C9 O1 S1 O3 68.81(15) . . . . ?
C10 C9 O1 S1 -160.69(13) . . . . ?
C10 C11 C12 C13 1.7(3) . . . . ?
C10 C11 O4 C14 -15.9(3) . . . . ?
C11 C12 C13 C8 0.4(3) . . . . ?
C12 C11 O4 C14 165.31(19) . . . . ?
C13 C8 C9 C10 2.2(2) . . . . ?
C13 C8 C9 O1 -179.58(16) . . . . ?
N1 C7 C8 C9 13.3(2) . . . . ?
N1 C7 C8 C13 -168.72(15) . . . . ?
O1 C9 C10 C11 -178.54(15) . . . . ?
O4 C11 C12 C13 -179.49(16) . . . . ?
loop_
_refln_index_h
_refln_index_k
_refln_index_l
_refln_F_squared_meas
_refln_F_squared_sigma
1 0 0 248.39 6.78
1 0 0 241.26 6.56
2 0 0 109.48 2.89
2 0 0 110.55 2.99
3 0 0 15.23 0.45
3 0 0 16.44 0.44
4 0 0 138.44 3.76
5 0 0 8.5 0.28
6 0 0 3.91 0.17
7 0 0 21.64 0.65
8 0 0 0.14 0.07
0 -1 0 0.01 0.01
0 -1 0 -0.02 0.01
0 1 0 0.01 0.01
1 -1 0 28.66 0.76
1 -1 0 30 0.77
-1 -1 0 28.92 0.76
1 1 0 28.03 0.78
2 -1 0 121.33 3.29
2 -1 0 121.02 3.19
2 -1 0 122.02 3.3
2 1 0 122.3 3.29
4 -1 0 28.22 0.73
4 -1 0 28.4 0.76
4 1 0 23.05 0.74
5 -1 0 32.84 0.9
5 -1 0 32.82 0.93
5 1 0 32.68 0.92
6 -1 0 0.28 0.06
6 -1 0 0.22 0.06
6 1 0 0.42 0.06
7 -1 0 3.38 0.17
7 1 0 3.38 0.17
8 -1 0 5.3 0.22
-8 -1 0 5.28 0.2
8 1 0 4.66 0.21
-9 -1 0 4.8 0.21
-10 1 0 1.34 0.13
0 -2 0 25.99 0.68
0 -2 0 24.56 0.68
0 2 0 25.9 0.7
1 -2 0 321.32 8.66
-1 -2 0 323.42 8.69
1 -2 0 321.09 8.51
1 2 0 313.8 8.75
-2 -2 0 27.75 0.74
2 -2 0 26.83 0.74
2 -2 0 27.71 0.73
2 2 0 27.81 0.75
-3 -2 0 13.99 0.4
3 -2 0 14.33 0.42
3 -2 0 14.39 0.41
3 2 0 14.38 0.4
-4 -2 0 21.42 0.6
4 -2 0 22.14 0.63
4 -2 0 21.94 0.61
5 -2 0 11.31 0.35
5 -2 0 11.47 0.37
-5 -2 0 11.31 0.34
5 2 0 11.69 0.35
6 -2 0 24.06 0.7
-6 -2 0 24.11 0.68
6 -2 0 24.36 0.72
6 2 0 24.6 0.7
7 -2 0 7.97 0.29
-7 -2 0 8.28 0.28
7 -2 0 8.33 0.3
7 2 0 8.54 0.28
-8 -2 0 1.39 0.1
8 -2 0 1.43 0.12
-9 -2 0 0.64 0.09
-10 -2 0 2.48 0.16
-10 2 0 2.35 0.17
-11 2 0 1.07 0.14
0 -3 0 -0.01 0.02
0 -3 0 0.02 0.01
0 3 0 -0.02 0.01
1 -3 0 134.17 3.53
-1 -3 0 132.14 3.47
1 3 0 129.1 3.58
-2 -3 0 29.87 0.81
2 -3 0 29.92 0.8
2 -3 0 30.09 0.85
2 3 0 31.28 0.82
3 -3 0 16.52 0.46
3 -3 0 16.06 0.44
-3 -3 0 16.2 0.45
3 3 0 16.27 0.45
4 -3 0 38.42 1.07
-4 -3 0 39.01 1.06
4 -3 0 40.12 1.11
4 3 0 39.96 1.08
5 -3 0 9.47 0.31
5 -3 0 9.84 0.32
-5 -3 0 9.42 0.28
5 3 0 8.89 0.29
-6 -3 0 54.22 1.46
6 -3 0 53.15 1.48
6 -3 0 54.96 1.53
6 3 0 53.89 1.5
7 -3 0 0.98 0.1
7 -3 0 0.77 0.09
-7 -3 0 0.72 0.07
-8 -3 0 9.22 0.33
8 -3 0 9.31 0.33
-9 -3 0 1.23 0.12
-9 3 0 1.35 0.13
-10 -3 0 0.37 0.09
-10 3 0 0.33 0.09
0 -4 0 79.21 2.07
0 -4 0 79.26 2.07
0 4 0 76.84 2.13
1 -4 0 84.81 2.13
1 -4 0 78.34 2.14
-1 -4 0 79.83 2.14
1 4 0 81.33 2.19
-2 -4 0 156.17 4.11
2 -4 0 149.24 4.1
2 -4 0 158.71 4.24
2 -4 0 158.91 4.1
2 4 0 157.71 4.22
3 -4 0 6.15 0.21
3 -4 0 5.89 0.17
-3 -4 0 6.35 0.19
3 -4 0 6.27 0.21
3 4 0 6.02 0.18
-4 -4 0 52.74 1.42
4 -4 0 53.41 1.44
4 4 0 52.85 1.45
5 -4 0 79.1 2.12
-5 -4 0 78.7 2.1
6 -4 0 25.88 0.77
-6 -4 0 25.07 0.71
6 -4 0 25.76 0.74
-7 -4 0 3.97 0.16
7 -4 0 3.83 0.19
7 -4 0 3.89 0.19
8 -4 0 5.93 0.25
-8 -4 0 6.13 0.25
-8 4 0 5.78 0.25
-9 -4 0 4.98 0.24
9 -4 0 5.32 0.24
-9 4 0 5.25 0.25
-10 -4 0 0.7 0.11
-10 4 0 0.77 0.11
0 -5 0 0.01 0.03
0 -5 0 0 0.02
0 5 0 -0.04 0.02
1 -5 0 44.54 1.18
-1 -5 0 45.03 1.19
1 -5 0 45.16 1.2
-1 -5 0 43.64 1.19
-1 5 0 43.81 1.22
1 5 0 44.03 1.21
-2 -5 0 80.8 2.18
-2 -5 0 82.8 2.16
2 -5 0 83.15 2.15
-2 5 0 81.04 2.24
2 5 0 80.75 2.21
3 -5 0 1.03 0.08
-3 -5 0 1.15 0.07
3 5 0 0.79 0.04
4 -5 0 9.94 0.32
-4 -5 0 9.31 0.29
5 -5 0 10.84 0.36
-5 -5 0 10.76 0.33
-6 -5 0 4.05 0.18
6 -5 0 4.77 0.2
-6 -5 0 4.3 0.17
-7 -5 0 5.59 0.23
7 -5 0 4.97 0.22
-7 -5 0 5.56 0.2
-7 5 0 5.25 0.22
8 -5 0 1.9 0.14
-8 -5 0 1.78 0.14
-8 5 0 1.66 0.13
9 -5 0 2.3 0.16
-9 -5 0 2.32 0.17
-9 5 0 2.09 0.16
10 -5 0 0.66 0.11
-10 -5 0 0.58 0.11
-10 5 0 0.54 0.11
0 -6 0 5.43 0.17
0 -6 0 4.94 0.18
-1 -6 0 4.3 0.15
-1 -6 0 4.38 0.16
1 -6 0 4.22 0.14
1 -6 0 4.4 0.16
1 6 0 4.27 0.14
-1 6 0 4.3 0.16
2 -6 0 14.64 0.4
-2 -6 0 14.86 0.42
-2 -6 0 14.46 0.43
-2 6 0 14.51 0.44
2 6 0 14.08 0.4
-3 -6 0 5.18 0.19
-3 -6 0 5.14 0.18
-3 6 0 4.79 0.2
-4 -6 0 17.05 0.49
4 -6 0 17.16 0.52
-4 -6 0 16.96 0.51
-4 6 0 17.3 0.53
5 -6 0 9.66 0.33
-5 -6 0 9.39 0.3
-5 -6 0 9.65 0.33
-5 6 0 10.24 0.34
-6 -6 0 7.36 0.25
-6 -6 0 7.3 0.27
6 -6 0 7.05 0.28
-6 6 0 7.28 0.28
-7 -6 0 1.97 0.13
7 -6 0 1.98 0.14
-7 6 0 2.04 0.13
-8 -6 0 0.14 0.07
8 -6 0 0.19 0.08
-8 6 0 0.15 0.06
9 -6 0 0.61 0.11
-9 -6 0 0.7 0.11
-9 6 0 0.71 0.11
10 -6 0 1.47 0.15
0 -7 0 -0.02 0.04
0 -7 0 -0.06 0.03
0 7 0 -0.03 0.03
1 -7 0 4.87 0.18
-1 -7 0 5.28 0.18
-1 -7 0 4.96 0.18
1 7 0 4.3 0.15
-1 7 0 4.82 0.17
-2 -7 0 7.84 0.25
-2 -7 0 7.45 0.25
-2 7 0 7.65 0.26
-3 -7 0 12.37 0.37
-3 -7 0 12.83 0.39
3 -7 0 11.67 0.39
-3 7 0 12.24 0.39
-4 -7 0 3.14 0.14
4 -7 0 3.42 0.17
-4 -7 0 3.23 0.16
-4 7 0 2.99 0.16
-5 -7 0 1.83 0.13
5 -7 0 1.86 0.13
-5 -7 0 1.71 0.11
-5 7 0 1.85 0.13
6 -7 0 8.61 0.32
-6 -7 0 8.95 0.29
-6 -7 0 9.02 0.32
-6 7 0 8.79 0.33
-7 -7 0 10.98 0.38
7 -7 0 10.77 0.38
-7 7 0 10.19 0.38
8 -7 0 1.85 0.15
-8 -7 0 1.91 0.15
-8 7 0 1.64 0.14
9 -7 0 0.89 0.13
-9 -7 0 0.54 0.11
-9 7 0 0.84 0.11
0 -8 0 34.6 0.95
0 -8 0 33.74 0.93
0 8 0 33.66 0.95
-1 -8 0 2.24 0.12
1 -8 0 2.19 0.13
-1 -8 0 2.13 0.12
-1 8 0 2.05 0.11
2 -8 0 1.11 0.1
-2 -8 0 0.89 0.08
-2 -8 0 0.91 0.08
-2 8 0 0.86 0.08
-3 -8 0 4.94 0.19
3 -8 0 5.17 0.21
-3 -8 0 4.97 0.2
-3 8 0 4.83 0.2
-4 -8 0 19.26 0.6
4 -8 0 19.91 0.6
-4 -8 0 19.71 0.58
-4 8 0 19.99 0.61
5 -8 0 9.88 0.35
-5 -8 0 9.62 0.32
-5 -8 0 9.64 0.35
-5 8 0 10.33 0.36
-6 -8 0 5.02 0.22
6 -8 0 5.42 0.24
-6 8 0 4.73 0.23
7 -8 0 0.64 0.11
-7 -8 0 0.65 0.1
-7 8 0 0.69 0.1
8 -8 0 0.67 0.11
-8 -8 0 0.48 0.09
-8 8 0 0.56 0.1
9 -8 0 0.76 0.13
0 -9 0 0.1 0.06
0 -9 0 0.04 0.05
-1 -9 0 1.72 0.11
-1 -9 0 1.59 0.11
1 -9 0 1.66 0.13
-1 9 0 1.91 0.12
2 -9 0 15.61 0.5
-2 -9 0 16.31 0.49
-2 -9 0 15.67 0.49
-2 9 0 16.87 0.5
3 -9 0 15.62 0.5
-3 -9 0 15.32 0.48
-3 -9 0 15.87 0.48
-3 9 0 15.41 0.49
4 -9 0 12.55 0.43
-4 -9 0 13.36 0.41
-4 -9 0 12.63 0.42
-4 9 0 12.91 0.43
-5 -9 0 0.31 0.07
-5 -9 0 0.5 0.09
5 -9 0 0.44 0.09
-5 9 0 0.26 0.08
6 -9 0 1.9 0.15
-6 -9 0 2.2 0.15
-6 9 0 1.8 0.15
-7 -9 0 0.31 0.09
7 -9 0 0.54 0.11
-7 9 0 0.36 0.1
-8 -9 0 1.96 0.15
8 -9 0 1.74 0.17
-8 9 0 1.47 0.15
0 -10 0 9.21 0.33
-1 -10 0 4.08 0.18
-1 -10 0 4.05 0.19
1 -10 0 3.86 0.19
-2 -10 0 0.41 0.08
-2 -10 0 0.35 0.08
2 -10 0 0.26 0.07
-2 10 0 0.36 0.08
-3 -10 0 0.17 0.07
-3 -10 0 0.12 0.07
3 -10 0 0.21 0.08
-3 10 0 0.14 0.07
4 -10 0 0.07 0.07
-4 -10 0 0.2 0.07
-4 -10 0 0.12 0.07
-4 10 0 0.2 0.07
5 -10 0 4.04 0.22
-5 -10 0 4.47 0.21
-5 10 0 4.23 0.21
6 -10 0 3.57 0.21
-6 -10 0 3.4 0.2
-6 10 0 3.53 0.2
-7 -10 0 0.47 0.11
7 -10 0 0.7 0.12
-7 10 0 0.56 0.12
0 -11 0 0 0.07
-1 -11 0 8.73 0.32
1 -11 0 9.08 0.33
-2 -11 0 5.19 0.22
-2 -11 0 4.91 0.22
2 -11 0 4.79 0.23
-3 -11 0 9.14 0.33
3 -11 0 8.89 0.34
-3 -11 0 9.04 0.33
-4 -11 0 2.91 0.17
4 -11 0 3.25 0.19
-4 -11 0 2.9 0.17
-4 11 0 3.34 0.18
-5 -11 0 0.69 0.11
5 -11 0 0.92 0.12
-5 11 0 0.95 0.11
6 -11 0 1.14 0.15
-6 -11 0 1.26 0.15
-6 11 0 1.62 0.15
0 -12 0 9.12 0.35
1 -12 0 1.57 0.15
-1 -12 0 1.53 0.14
2 -12 0 0.76 0.11
-2 -12 0 0.51 0.1
-3 -12 0 0.43 0.09
3 -12 0 0.38 0.1
-4 -12 0 0.43 0.09
4 -12 0 0.32 0.1
5 -12 0 1.02 0.14
-5 -12 0 1.16 0.13
-6 12 0 1.89 0.17
0 -13 0 0.13 0.1
-1 -13 0 2.1 0.17
1 -13 0 1.85 0.17
-2 -13 0 4.22 0.22
2 -13 0 4.14 0.24
-3 -13 0 3.09 0.19
3 -13 0 2.83 0.2
0 -14 0 1.33 0.15
-1 -14 0 1.68 0.16
-2 -14 0 0.12 0.1
-10 0 1 -0.04 0.06
-9 0 1 -0.05 0.06
-8 0 1 4.4 0.19
6 0 -1 3.62 0.15
5 0 -1 2.9 0.13
4 0 -1 -0.06 0.03
3 0 -1 8.66 0.24
3 0 -1 7.34 0.24
-2 0 1 536.04 14.41
2 0 -1 502 14.04
1 0 -1 45.71 1.21
-1 0 1 45.64 1.24
0 0 1 38.88 0.95
0 0 -1 32.69 0.95
-1 0 -1 212.41 5.57
1 0 1 206.55 5.6
1 0 1 216.62 5.74
2 0 1 346.48 9.45
2 0 1 340.72 9.13
-2 0 -1 360.16 9.18
3 0 1 13.91 0.41
4 0 1 21.97 0.6
5 0 1 1.25 0.1
-6 0 -1 0.16 0.04
6 0 1 0.22 0.06
7 0 1 4.25 0.19
-7 0 -1 4.08 0.17
8 0 1 1.43 0.12
-8 0 -1 1.46 0.11
9 0 1 4.89 0.23
-10 1 1 4.67 0.23
-9 -1 1 0.76 0.09
-9 1 1 0.74 0.09
-8 -1 1 2.64 0.14
-8 -1 1 2.58 0.14
-8 1 1 2.73 0.16
6 -1 -1 3.95 0.17
6 1 -1 4.3 0.16
5 -1 -1 13.29 0.41
5 -1 -1 13.56 0.4
5 1 -1 13.13 0.4
4 -1 -1 65.65 1.72
4 -1 -1 63.45 1.77
3 -1 -1 55.49 1.47
3 1 -1 55.03 1.51
-2 -1 1 250.71 6.82
2 -1 -1 255.36 6.65
2 -1 -1 242.49 6.63
-2 1 1 260.33 6.84
2 1 -1 254.25 6.66
-1 -1 1 45.83 1.22
1 -1 -1 45.42 1.19
1 -1 -1 43.87 1.19
0 -1 -1 474.33 12.66
0 -1 -1 485.74 12.79
0 -1 1 460.23 12.77
0 -1 1 476.35 13.14
0 1 1 489.16 13.15
0 1 -1 482.61 12.74
-1 -1 -1 542.78 14.44
1 -1 1 566.75 14.67
-1 -1 -1 524.87 14.8
-1 1 -1 552.95 14.51
1 1 1 552.54 15.1
2 -1 1 57.07 1.42
2 -1 1 47.51 1.47
-2 -1 -1 54.5 1.43
-2 1 -1 55.3 1.42
2 1 1 54.76 1.47
-3 -1 -1 111.29 2.8
3 -1 1 92.45 2.78
3 -1 1 108.6 2.88
-3 1 -1 111.18 2.79
4 -1 1 26.42 0.75
4 -1 1 25.83 0.72
4 1 1 26.61 0.75
5 -1 1 30.26 0.84
-5 -1 -1 29.4 0.84
5 -1 1 30.93 0.88
-5 1 -1 31.62 0.83
5 1 1 29.87 0.86
-6 -1 -1 15.63 0.48
6 -1 1 16.02 0.5
6 -1 1 16.31 0.48
6 1 1 17.01 0.5
-6 1 -1 16.39 0.47
7 -1 1 12.81 0.43
-7 -1 -1 13.27 0.41
7 1 1 13.11 0.43
-7 1 -1 13.62 0.4
8 -1 1 0.49 0.08
-8 -1 -1 0.56 0.08
8 1 1 0.58 0.09
9 -1 1 0.26 0.08
10 -1 1 2.47 0.17
-11 2 1 0.82 0.13
-10 -2 1 3.73 0.19
-10 2 1 3.39 0.2
-9 -2 1 2.2 0.14
-9 2 1 2.41 0.16
-8 -2 1 10.41 0.35
-8 2 1 10.55 0.37
7 -2 -1 9.55 0.33
-7 -2 1 9.73 0.31
-7 2 1 9.61 0.33
-6 -2 1 56.12 1.49
6 -2 -1 54.61 1.5
6 2 -1 54.69 1.52
-5 -2 1 2.38 0.11
5 -2 -1 2.51 0.13
5 2 -1 2.29 0.1
4 -2 -1 10.37 0.31
-4 -2 1 10.56 0.3
4 2 -1 9.79 0.3
3 -2 -1 18.15 0.51
-3 -2 1 18.13 0.5
3 -2 -1 18.31 0.49
-3 2 1 17.69 0.52
-1 -2 1 778.17 22.11
1 -2 -1 843.4 22.16
1 -2 -1 837.54 22.03
-1 2 1 819.13 22.74
1 2 -1 851.42 22.23
0 -2 1 123.62 3.27
0 -2 -1 121.46 3.17
0 -2 -1 121.91 3.19
0 -2 1 118.59 3.17
0 2 1 119.18 3.28
0 2 -1 120.19 3.17
1 -2 1 5.67 0.17
-1 -2 -1 5.71 0.16
1 -2 1 5.63 0.17
-1 -2 -1 5.21 0.17
1 2 1 5.57 0.17
2 -2 1 82.79 2.16
-2 -2 -1 81.55 2.15
-2 2 -1 81.58 2.15
2 2 1 82.38 2.23
3 -2 1 140.62 3.97
-3 -2 -1 148.9 3.86
-3 -2 -1 145.61 3.83
3 -2 1 140.87 3.84
-3 2 -1 155.67 3.84
3 2 1 146.43 3.96
-4 -2 -1 18.2 0.5
4 -2 1 18.8 0.55
-4 -2 -1 18.84 0.52
4 -2 1 18.41 0.52
4 2 1 17.64 0.53
-4 2 -1 18.29 0.5
5 -2 1 12.77 0.41
-5 -2 -1 13.04 0.37
5 -2 1 12.97 0.39
-5 -2 -1 11.87 0.39
-5 2 -1 13.6 0.37
5 2 1 13.35 0.39
6 -2 1 0.5 0.07
-6 -2 -1 0.43 0.06
6 -2 1 0.55 0.08
-6 -2 -1 0.4 0.05
6 2 1 0.39 0.07
-6 2 -1 0.4 0.05
7 -2 1 11.11 0.36
-7 -2 -1 10.76 0.34
7 -2 1 10.12 0.37
-7 -2 -1 10.66 0.36
7 2 1 11.57 0.36
8 -2 1 0.54 0.09
-8 -2 -1 0.37 0.08
9 -2 1 0.29 0.08
-9 -2 -1 0.35 0.08
-11 -3 1 0.21 0.09
-11 3 1 0.07 0.09
-10 -3 1 1.65 0.14
-10 3 1 1.47 0.14
-9 -3 1 2.29 0.14
-9 3 1 2.12 0.15
8 -3 -1 4.72 0.21
-8 -3 1 5.03 0.2
-8 3 1 4.96 0.22
-7 -3 1 2.26 0.12
7 -3 -1 2.01 0.14
-7 3 1 2.09 0.14
-6 -3 1 69.05 1.86
6 -3 -1 69.83 1.88
-6 3 1 69.51 1.94
5 -3 -1 11.67 0.37
-5 -3 1 12.04 0.36
-5 3 1 12.82 0.39
-4 -3 1 6.02 0.2
4 -3 -1 5.93 0.21
4 -3 -1 6.15 0.19
-4 3 1 6.53 0.21
-3 -3 1 13.36 0.36
3 -3 -1 13.42 0.36
3 -3 -1 13.4 0.38
-3 -3 1 13.31 0.37
-3 3 1 12.27 0.39
2 -3 -1 13 0.35
-2 -3 1 12.84 0.36
-1 -3 1 34.22 0.92
1 -3 -1 34.32 0.92
1 -3 -1 34.18 0.92
1 3 -1 35.4 0.94
-1 3 1 34.59 0.95
0 -3 -1 216.91 5.67
0 -3 1 221.74 5.83
0 -3 -1 211.89 5.64
0 3 1 210.84 5.83
-1 -3 -1 142.67 3.87
1 -3 1 150.92 3.87
1 -3 1 152.61 3.99
1 3 1 143.93 4
-2 -3 -1 5.21 0.16
2 -3 1 5.22 0.17
2 -3 1 5.39 0.18
2 3 1 5.09 0.16
3 -3 1 11.89 0.37
3 -3 1 11.95 0.35
-3 -3 -1 12.11 0.34
-3 -3 -1 12.05 0.36
3 3 1 12.17 0.35
4 -3 1 15.27 0.52
-4 -3 -1 18.25 0.51
-4 -3 -1 17.37 0.48
4 -3 1 18.29 0.5
-4 3 -1 17.9 0.47
-5 -3 -1 32.42 0.9
5 -3 1 33.88 0.92
5 -3 1 33.73 0.96
-5 -3 -1 33.54 0.92
-5 3 -1 32.12 0.88
5 3 1 32.77 0.93
-6 -3 -1 7.24 0.24
6 -3 1 7.21 0.26
-6 -3 -1 7.4 0.26
6 -3 1 7.84 0.28
6 3 1 7.36 0.25
-7 -3 -1 7.51 0.27
7 -3 1 7.37 0.27
7 -3 1 7.19 0.28
8 -3 1 0.87 0.1
8 -3 1 0.85 0.11
-8 -3 -1 0.88 0.1
9 -3 1 3.24 0.19
-9 -3 -1 3.57 0.19
-10 -3 -1 0.23 0.09
-10 -4 1 0.11 0.07
-10 4 1 -0.02 0.08
9 -4 -1 0.56 0.09
-9 4 1 0.53 0.1
8 -4 -1 1.52 0.13
-8 -4 1 1.56 0.11
-8 4 1 1.47 0.12
7 -4 -1 12.25 0.42
-7 -4 1 12.92 0.4
-7 4 1 13.38 0.43
6 -4 -1 13.54 0.43
-6 -4 1 13.22 0.41
-6 4 1 14.1 0.44
5 -4 -1 32.49 0.9
-5 -4 1 31.58 0.88
-4 -4 1 23.59 0.62
4 -4 -1 22.68 0.61
-4 -4 1 22.57 0.61
4 -4 -1 22.67 0.64
-4 4 1 20.15 0.65
-3 -4 1 33.22 0.9
3 -4 -1 33.19 0.89
-3 4 1 33.66 0.94
2 -4 -1 2.18 0.08
2 -4 -1 2.06 0.09
-2 -4 1 2.25 0.09
-2 4 1 2.34 0.1
1 -4 -1 3.4 0.11
1 -4 -1 3.41 0.12
-1 -4 1 3.63 0.12
1 4 -1 3.2 0.1
0 -4 -1 74.98 1.99
0 -4 1 75.33 2.05
0 4 1 76.28 2.05
-1 -4 -1 99.72 2.61
-1 -4 -1 98.09 2.59
1 -4 1 100.46 2.59
1 -4 1 98.88 2.6
1 -4 1 98.37 2.68
1 4 1 96.85 2.67
2 -4 1 123.65 3.28
2 -4 1 127.18 3.39
-2 -4 -1 125.41 3.3
-2 -4 -1 122.6 3.27
2 4 1 123.94 3.37
-3 -4 -1 46.71 1.34
3 -4 1 52.25 1.39
3 -4 1 50.76 1.34
-3 -4 -1 49.39 1.32
3 4 1 49.55 1.36
4 -4 1 9.23 0.3
-4 -4 -1 8.95 0.29
5 -4 1 10.86 0.35
-5 -4 -1 11.14 0.36
-5 -4 -1 11.01 0.33
5 4 1 11.14 0.34
-6 -4 -1 0.78 0.08
6 -4 1 0.9 0.1
6 -4 1 0.93 0.1
-6 -4 -1 0.97 0.08
7 -4 1 11.03 0.4
7 -4 1 11.76 0.38
-7 -4 -1 11.23 0.38
-8 -4 -1 2.31 0.15
8 -4 1 2.48 0.15
8 -4 1 2.32 0.16
9 -4 1 3.24 0.18
-9 -4 -1 3 0.18
-10 -4 -1 0.11 0.08
-10 4 -1 0.02 0.07
10 -5 -1 0.45 0.11
-10 -5 1 0.4 0.1
-10 5 1 0.51 0.1
9 -5 -1 2.43 0.16
-9 -5 1 2.22 0.15
-9 5 1 2.35 0.17
8 -5 -1 0.81 0.1
-8 -5 1 0.85 0.09
-8 5 1 0.83 0.1
-7 -5 1 1.39 0.11
7 -5 -1 1.54 0.12
-7 5 1 1.21 0.11
-6 -5 1 8.94 0.29
6 -5 -1 8.7 0.32
-6 5 1 9.23 0.32
-5 -5 1 23.19 0.66
5 -5 -1 22.64 0.68
-5 5 1 23.89 0.7
-4 -5 1 22.09 0.63
-4 5 1 22.72 0.66
-3 -5 1 21.29 0.6
3 -5 -1 21.6 0.58
-3 5 1 21.09 0.62
-2 -5 1 95.89 2.5
2 -5 -1 93.95 2.49
2 -5 -1 95.71 2.5
-2 5 1 92.09 2.58
-1 -5 1 47.91 1.24
1 -5 -1 39.48 1.22
1 -5 -1 48.94 1.24
1 5 -1 47.45 1.25
-1 5 1 46.35 1.27
0 -5 1 37.54 1.02
0 -5 -1 37.81 1.02
0 -5 1 38.18 1.01
0 -5 -1 37.94 1.02
0 5 -1 37.92 1.04
-1 -5 -1 11.73 0.34
1 -5 1 11.65 0.32
-1 -5 -1 11.21 0.34
1 -5 1 11.94 0.35
1 5 1 12.06 0.34
-2 -5 -1 4.79 0.16
2 -5 1 4.97 0.18
-2 -5 -1 4.74 0.17
2 -5 1 4.85 0.18
2 5 1 5.08 0.16
3 -5 1 4.27 0.17
3 -5 1 4.72 0.18
-3 -5 -1 4.59 0.15
-3 -5 -1 4.72 0.17
3 5 1 4.41 0.15
-4 -5 -1 13.2 0.39
4 -5 1 13.22 0.42
4 -5 1 13.66 0.41
5 -5 1 104.95 2.95
5 -5 1 106.09 2.85
-5 -5 -1 109.54 2.87
-5 -5 -1 106.83 2.82
-6 -5 -1 7.73 0.28
6 -5 1 7.33 0.28
6 -5 1 7.82 0.29
-7 -5 -1 3.47 0.18
7 -5 1 3.51 0.18
7 -5 1 3.43 0.19
8 -5 1 3.53 0.2
-8 -5 -1 3.66 0.19
8 -5 1 3.77 0.19
9 -5 1 3.31 0.19
-9 -5 -1 3.25 0.19
-9 5 -1 3.02 0.19
-10 -5 -1 1.03 0.13
10 -6 -1 0.03 0.08
-9 -6 1 0.9 0.11
9 -6 -1 0.82 0.12
-9 6 1 0.82 0.11
8 -6 -1 3.43 0.19
-8 -6 1 3.57 0.18
-8 6 1 3.7 0.19
-7 -6 1 1.56 0.11
7 -6 -1 1.71 0.13
-7 6 1 1.77 0.13
6 -6 -1 33.82 0.96
-6 -6 1 33.38 0.93
-6 6 1 32.93 0.98
-5 -6 1 13.91 0.42
5 -6 -1 13.99 0.44
-5 6 1 13.87 0.45
-4 -6 1 2.26 0.11
4 -6 -1 1.5 0.11
-4 6 1 2.18 0.13
-3 -6 1 29.24 0.81
-3 6 1 29.66 0.85
2 -6 -1 35.69 0.99
2 -6 -1 37.8 1.02
-2 -6 1 37.25 1.01
-2 6 1 36.94 1.04
1 -6 -1 13.01 0.38
1 -6 -1 13.11 0.39
-1 -6 1 13.82 0.39
1 6 -1 13.08 0.38
-1 6 1 13.39 0.4
0 -6 1 5.6 0.19
0 -6 -1 5.48 0.19
0 -6 -1 5.37 0.18
0 6 1 5.26 0.18
-1 -6 -1 40.96 1.11
1 -6 1 42.19 1.09
-1 -6 -1 40.1 1.11
-1 6 -1 40.84 1.14
-2 -6 -1 45.21 1.18
-2 -6 -1 43.83 1.2
2 -6 1 43.6 1.23
2 -6 1 43.61 1.2
2 6 1 42.98 1.2
3 -6 1 15.98 0.47
-3 -6 -1 15.39 0.45
-3 -6 -1 15.57 0.47
3 -6 1 15.93 0.48
-4 -6 -1 8.21 0.28
-4 -6 -1 7.59 0.25
4 -6 1 8.02 0.28
4 -6 1 8.02 0.29
5 -6 1 2.17 0.14
5 -6 1 2.13 0.14
-5 -6 -1 2.2 0.11
-5 -6 -1 2.13 0.14
6 -6 1 8.07 0.3
-6 -6 -1 7.77 0.29
6 -6 1 7.86 0.29
7 -6 1 2.97 0.17
-7 -6 -1 2.97 0.17
7 -6 1 3.32 0.18
8 -6 1 2.79 0.17
-8 -6 -1 2.61 0.17
-8 6 -1 2.52 0.16
-9 -6 -1 0.16 0.08
9 -6 1 0.03 0.07
-9 6 -1 -0.02 0.06
9 -7 -1 0.34 0.1
-9 -7 1 0.46 0.1
-9 7 1 0.41 0.09
8 -7 -1 0.07 0.07
-8 -7 1 0.15 0.07
-8 7 1 0 0.06
-7 -7 1 0.25 0.07
-7 -7 1 0.37 0.07
7 -7 -1 0.3 0.08
-7 7 1 0.29 0.08
6 -7 -1 0.28 0.08
-6 -7 1 0.2 0.06
-6 7 1 0.35 0.08
5 -7 -1 5.13 0.22
-5 -7 1 5.24 0.2
-5 7 1 5.11 0.22
4 -7 -1 20.83 0.63
-4 -7 1 21.37 0.61
-4 7 1 21.12 0.64
3 -7 -1 29.25 0.82
-3 -7 1 27.97 0.8
-3 7 1 28.82 0.83
2 -7 -1 7.22 0.25
-2 -7 1 6.97 0.24
-2 -7 1 7.15 0.24
-2 7 1 7.12 0.25
1 -7 -1 3.66 0.15
1 -7 -1 3.71 0.14
-1 -7 1 3.68 0.15
-1 -7 1 3.28 0.14
-1 7 1 3.88 0.15
0 -7 1 6.9 0.24
0 -7 -1 6.67 0.23
0 -7 -1 6.9 0.23
0 -7 1 6.7 0.22
0 7 1 7.27 0.23
0 7 -1 7.24 0.22
-1 -7 -1 0.54 0.06
-1 -7 -1 0.6 0.06
1 -7 1 0.6 0.05
1 7 1 0.57 0.05
-1 7 -1 0.5 0.05
-2 -7 -1 2.49 0.11
-2 -7 -1 2.52 0.13
-2 7 -1 2.41 0.12
3 -7 1 4.01 0.17
-3 -7 -1 3.87 0.17
-3 -7 -1 4.08 0.16
4 -7 1 0.69 0.09
-4 -7 -1 0.64 0.07
-4 -7 -1 0.53 0.08
-5 -7 -1 7.32 0.27
5 -7 1 6.68 0.27
-5 -7 -1 7.18 0.24
-6 -7 -1 4.81 0.21
6 -7 1 4.61 0.21
-7 -7 -1 1.9 0.14
7 -7 1 2.03 0.15
-7 7 -1 2 0.14
-8 -7 -1 0.88 0.12
8 -7 1 1 0.12
-8 7 -1 0.79 0.11
9 -7 1 0.62 0.11
-9 -7 -1 0.48 0.11
-9 7 -1 0.48 0.1
9 -8 -1 0.11 0.1
-8 -8 1 0.48 0.09
8 -8 -1 0.47 0.1
-8 8 1 0.49 0.1
7 -8 -1 5.17 0.24
-7 -8 1 4.87 0.23
-7 8 1 5.64 0.25
6 -8 -1 0.84 0.11
-6 -8 1 0.88 0.09
-6 -8 1 0.81 0.1
-6 8 1 0.78 0.1
-5 -8 1 0.65 0.09
5 -8 -1 0.71 0.1
-5 -8 1 0.78 0.09
-5 8 1 0.64 0.09
-4 -8 1 8.61 0.31
4 -8 -1 8.68 0.31
-4 -8 1 9.05 0.3
-4 8 1 8.39 0.31
-3 -8 1 9.05 0.31
3 -8 -1 9.21 0.31
-3 -8 1 8.9 0.3
-3 8 1 8.79 0.31
-2 -8 1 21.49 0.63
2 -8 -1 21.59 0.64
-2 -8 1 21.8 0.63
-2 8 1 21.77 0.64
1 -8 -1 3.61 0.16
-1 -8 1 3.71 0.16
1 -8 -1 3.9 0.15
-1 -8 1 3.8 0.15
-1 8 1 3.96 0.16
0 -8 1 3.17 0.15
0 -8 -1 3.48 0.16
0 -8 1 3.34 0.13
0 -8 -1 3.57 0.14
0 8 -1 3.32 0.14
0 8 1 3.23 0.14
-1 -8 -1 13.44 0.41
-1 -8 -1 13.59 0.41
1 -8 1 13.2 0.42
-1 8 -1 13.44 0.41
-2 -8 -1 3.3 0.15
2 -8 1 3.1 0.16
-2 -8 -1 2.97 0.14
-2 8 -1 3.01 0.14
-3 -8 -1 5.05 0.19
3 -8 1 4.78 0.2
-3 -8 -1 4.79 0.2
-3 8 -1 4.98 0.2
4 -8 1 4.15 0.19
-4 -8 -1 4.26 0.19
-4 -8 -1 4.88 0.18
-4 8 -1 4.21 0.2
-5 -8 -1 0.15 0.07
5 -8 1 0.06 0.06
-5 8 -1 0.13 0.06
6 -8 1 0.84 0.11
-6 -8 -1 0.61 0.1
-6 8 -1 0.5 0.09
-7 -8 -1 1.24 0.13
7 -8 1 1.22 0.13
-7 8 -1 0.85 0.11
-8 -8 -1 1.9 0.15
8 -8 1 2 0.17
-8 8 -1 1.65 0.14
9 -8 1 1.8 0.17
8 -9 -1 0.71 0.13
-8 -9 1 0.94 0.13
-8 9 1 0.81 0.12
7 -9 -1 0.34 0.1
-7 -9 1 0.38 0.09
-7 9 1 0.47 0.1
6 -9 -1 6.04 0.26
-6 -9 1 5.9 0.25
-6 -9 1 6.32 0.24
-6 9 1 5.71 0.26
-5 -9 1 9.11 0.31
5 -9 -1 8.4 0.33
-5 -9 1 9.2 0.33
-5 9 1 8.77 0.33
4 -9 -1 11.96 0.41
-4 -9 1 11.82 0.4
-4 -9 1 12.13 0.39
-4 9 1 12.53 0.41
-3 -9 1 3.53 0.17
-3 -9 1 3.74 0.18
3 -9 -1 3.87 0.18
-3 9 1 3.81 0.18
-2 -9 1 1.85 0.12
2 -9 -1 1.87 0.13
-2 -9 1 1.62 0.12
-2 9 1 1.63 0.13
-1 -9 1 8.47 0.3
1 -9 -1 8.93 0.31
-1 -9 1 8.57 0.29
-1 9 1 8.89 0.29
0 -9 1 36.91 1.06
0 -9 -1 39 1.05
0 -9 -1 37.71 1.06
-1 -9 -1 12.02 0.38
1 -9 1 11.73 0.39
-1 -9 -1 11.6 0.38
-1 9 -1 12.24 0.38
2 -9 1 11.63 0.39
-2 -9 -1 11.57 0.38
-2 -9 -1 12.2 0.38
-2 9 -1 11.9 0.38
3 -9 1 9.64 0.34
-3 -9 -1 9.27 0.33
-3 -9 -1 9.66 0.32
-3 9 -1 9.4 0.33
-4 -9 -1 1.94 0.14
-4 -9 -1 2.12 0.12
4 -9 1 2.05 0.14
5 -9 1 6.85 0.28
-5 -9 -1 6.82 0.28
-5 9 -1 6.86 0.28
6 -9 1 8.63 0.35
-6 -9 -1 9.9 0.35
-6 9 -1 9.25 0.35
-7 -9 -1 0.08 0.08
7 -9 1 0.02 0.08
-7 9 -1 0.08 0.08
8 -9 1 0.46 0.11
-8 9 -1 0.53 0.11
7 -10 -1 3.4 0.21
-7 -10 1 3.31 0.2
-7 10 1 2.96 0.2
6 -10 -1 2.42 0.17
-6 -10 1 2.6 0.17
-6 10 1 2.35 0.17
-5 -10 1 0.44 0.09
-5 -10 1 0.5 0.09
5 -10 -1 0.42 0.09
-5 10 1 0.48 0.09
4 -10 -1 0.97 0.12
-4 -10 1 1.01 0.11
-4 -10 1 0.93 0.1
-4 10 1 1.05 0.11
-3 -10 1 10.71 0.37
-3 -10 1 11.07 0.37
3 -10 -1 11.05 0.39
-3 10 1 11.03 0.37
2 -10 -1 6.82 0.27
-2 -10 1 6.89 0.26
-2 -10 1 6.96 0.27
-2 10 1 7.23 0.26
-1 -10 1 11.9 0.39
1 -10 -1 11.57 0.39
0 -10 -1 3.41 0.17
0 -10 1 3.05 0.17
-1 -10 -1 3.41 0.16
1 -10 1 2.98 0.16
-1 -10 -1 3.19 0.17
-2 -10 -1 3.42 0.17
-2 -10 -1 3.39 0.17
2 -10 1 3.25 0.18
-3 -10 -1 10.26 0.34
-3 -10 -1 10.25 0.36
3 -10 1 10.01 0.37
-3 10 -1 10.83 0.36
-4 -10 -1 1.63 0.13
4 -10 1 1.45 0.14
-4 10 -1 1.55 0.13
5 -10 1 1.25 0.13
-5 -10 -1 1.29 0.13
-5 10 -1 1.17 0.12
6 -10 1 0.17 0.09
-6 -10 -1 0.2 0.09
-6 10 -1 0.23 0.09
-7 -10 -1 3.86 0.22
7 -10 1 4.06 0.23
-7 10 -1 4.1 0.23
-6 -11 1 0.37 0.1
6 -11 -1 0.46 0.11
-6 11 1 0.44 0.11
5 -11 -1 3.65 0.21
-5 -11 1 3.61 0.19
-5 -11 1 3.71 0.2
-5 11 1 3.73 0.2
-4 -11 1 4.94 0.22
4 -11 -1 4.53 0.23
-4 -11 1 4.68 0.22
-4 11 1 5.29 0.23
-3 -11 1 0.7 0.1
3 -11 -1 0.43 0.1
-3 -11 1 0.4 0.08
-3 11 1 0.4 0.09
-2 -11 1 1.37 0.12
2 -11 -1 1.23 0.13
-1 -11 1 0.18 0.07
1 -11 -1 0.31 0.09
0 -11 -1 1.15 0.12
0 -11 1 1.35 0.13
-1 -11 -1 5.81 0.24
1 -11 1 5.55 0.24
-2 -11 -1 3.57 0.18
-2 -11 -1 3.24 0.18
2 -11 1 3.11 0.18
-3 -11 -1 1.56 0.13
3 -11 1 1.69 0.15
-3 -11 -1 1.66 0.13
-4 -11 -1 1.4 0.13
4 -11 1 1.27 0.14
-4 11 -1 1.55 0.13
5 -11 1 1.91 0.16
-5 -11 -1 2.14 0.16
-5 11 -1 2.22 0.16
6 -11 1 0.46 0.11
-6 -11 -1 0.52 0.11
-6 11 -1 0.36 0.1
-6 12 1 0.33 0.11
-5 -12 1 0.05 0.09
5 -12 -1 0.33 0.1
-5 12 1 0.29 0.1
-4 -12 1 1.03 0.12
4 -12 -1 1.03 0.13
-4 -12 1 0.99 0.11
3 -12 -1 1.49 0.15
-3 -12 1 1.63 0.14
-2 -12 1 3.5 0.19
2 -12 -1 3.16 0.19
-1 -12 1 0.51 0.1
1 -12 -1 0.43 0.1
0 -12 -1 0.48 0.1
0 -12 1 0.58 0.1
-1 -12 -1 0.74 0.11
1 -12 1 0.75 0.12
-2 -12 -1 2.41 0.16
2 -12 1 2.76 0.18
-3 -12 -1 2.42 0.16
3 -12 1 2.39 0.17
4 -12 1 5.31 0.27
-4 -12 -1 5.63 0.26
-5 -12 -1 0.43 0.11
5 -12 1 0.05 0.09
-4 -13 1 1.77 0.16
3 -13 -1 1.43 0.16
-3 -13 1 1.46 0.15
-2 -13 1 0.23 0.1
2 -13 -1 -0.05 0.09
-1 -13 1 8 0.33
1 -13 -1 7.64 0.33
0 -13 1 7.47 0.33
0 -13 -1 8.36 0.33
-1 -13 -1 3.07 0.19
1 -13 1 2.84 0.19
2 -13 1 1.05 0.13
-2 -13 -1 1 0.13
3 -13 1 0.99 0.14
0 -14 -1 0.22 0.1
-1 -14 -1 0.69 0.12
-10 0 2 0.24 0.08
-9 0 2 2.84 0.16
-8 0 2 0.8 0.09
-7 0 2 25.86 0.76
-6 0 2 24.91 0.72
-5 0 2 0.08 0.03
5 0 -2 0.13 0.04
-4 0 2 4.39 0.15
4 0 -2 4.12 0.15
-3 0 2 93.43 2.54
2 0 -2 28.21 0.75
-2 0 2 27.1 0.76
-1 0 2 1000 27.39
0 0 -2 244.19 6.42
0 0 2 243.67 6.48
1 0 2 147.11 3.81
-1 0 -2 149.23 4.1
1 0 2 141.59 3.97
2 0 2 0.47 0.03
-2 0 -2 0.52 0.04
-3 0 -2 469.22 12.41
3 0 2 482.64 12.79
3 0 2 463.88 12.34
-4 0 -2 17.56 0.5
4 0 2 17.92 0.53
5 0 2 3.2 0.15
-5 0 -2 3.56 0.13
6 0 2 14.71 0.46
-6 0 -2 14.31 0.43
-7 0 -2 8.71 0.29
7 0 2 8.78 0.32
8 0 2 1.26 0.12
9 0 2 3.42 0.19
-10 -1 2 1.69 0.14
-10 1 2 1.89 0.15
-9 -1 2 0.09 0.06
-9 1 2 0.02 0.06
-8 -1 2 3.69 0.17
-8 -1 2 3.64 0.17
-8 1 2 3.48 0.17
-7 -1 2 22.08 0.64
-7 1 2 21.57 0.65
-6 -1 2 4.22 0.16
-6 1 2 3.73 0.16
5 -1 -2 0.53 0.06
5 -1 -2 0.45 0.05
-5 -1 2 0.39 0.04
-5 1 2 0.49 0.05
4 -1 -2 9.49 0.3
4 -1 -2 9.89 0.29
-4 -1 2 9.61 0.29
4 1 -2 9.5 0.3
-4 1 2 10.1 0.3
-3 -1 2 16.55 0.48
-3 1 2 17.52 0.49
3 1 -2 17.12 0.48
2 -1 -2 126.17 3.34
2 -1 -2 128.78 3.32
-2 -1 2 123.6 3.42
-2 1 2 127.58 3.43
1 -1 -2 607.03 16.75
-1 -1 2 614.25 17.02
-1 -1 2 613.86 16.63
1 -1 -2 632.73 16.64
1 1 -2 628.75 16.53
0 -1 2 238.13 6.58
0 -1 -2 242.24 6.31
0 -1 2 240.54 6.54
0 1 2 242.91 6.54
0 1 -2 243.4 6.35
1 -1 2 19.72 0.52
-1 -1 -2 19.95 0.53
1 -1 2 17.36 0.55
-1 1 -2 20.77 0.52
1 1 2 19.72 0.55
-2 -1 -2 35.48 0.93
2 -1 2 35.12 0.92
-2 1 -2 33.3 0.92
-3 -1 -2 190.45 5.01
3 -1 2 187.61 5.27
3 -1 2 188.78 4.95
-3 1 -2 190.36 4.97
3 1 2 187.76 5.12
-4 -1 -2 63.34 1.65
4 -1 2 60.5 1.64
4 -1 2 62.04 1.71
4 1 2 61.24 1.7
-4 1 -2 60.49 1.63
-5 -1 -2 4.67 0.17
5 -1 2 4.62 0.19
5 -1 2 4.64 0.17
-5 1 -2 4.68 0.16
5 1 2 4.86 0.19
6 -1 2 1.28 0.1
-6 -1 -2 1.24 0.09
6 -1 2 1.36 0.11
-6 1 -2 1.28 0.08
6 1 2 1.34 0.11
7 -1 2 7.48 0.29
-7 -1 -2 6.94 0.25
7 1 2 7.51 0.28
8 -1 2 1.9 0.14
-8 -1 -2 2.01 0.12
8 1 2 2.36 0.15
9 -1 2 2.4 0.16
10 -1 2 1.18 0.14
-10 -2 2 1.65 0.14
-10 2 2 1.4 0.14
-9 -2 2 6.92 0.27
-9 2 2 6.61 0.28
-8 -2 2 12.65 0.41
-8 2 2 12.4 0.42
-7 -2 2 5.2 0.2
-7 -2 2 4.87 0.19
-7 2 2 5.2 0.21
-6 -2 2 15.63 0.46
6 -2 -2 14.81 0.46
6 -2 -2 15.51 0.45
-6 -2 2 14.89 0.45
-6 2 2 15.17 0.47
-5 -2 2 26.86 0.74
5 -2 -2 27.19 0.73
5 -2 -2 26.25 0.75
-5 -2 2 25.12 0.74
-5 2 2 27.28 0.77
4 -2 -2 9.99 0.31
-4 -2 2 10.07 0.29
4 -2 -2 9.95 0.29
-4 -2 2 10.29 0.3
4 2 -2 9.63 0.31
-4 2 2 9.53 0.31
-3 -2 2 112.27 2.94
-3 -2 2 109.07 3.01
-3 2 2 113.4 3.03
-2 -2 2 101.76 2.78
2 -2 -2 102.21 2.71
2 -2 -2 104.07 2.72
2 2 -2 103.93 2.72
1 -2 -2 307.39 7.89
-1 -2 2 291.99 8.28
1 -2 -2 302.58 7.86
-1 -2 2 284.66 7.86
1 2 -2 300.67 7.89
-1 2 2 308.88 8.12
0 -2 2 43.95 1.2
0 -2 -2 44.44 1.17
0 -2 2 44.76 1.16
0 -2 -2 44.23 1.16
0 2 2 42.87 1.2
0 2 -2 43.38 1.16
1 -2 2 180.13 4.67
-1 -2 -2 174.34 4.64
1 -2 2 181.34 4.84
-1 2 -2 174.84 4.67
1 2 2 178.19 4.83
-2 -2 -2 40.1 1.02
2 -2 2 39.42 1.08
2 -2 2 39.28 1.04
-2 -2 -2 38.58 1.05
-2 2 -2 39.12 1.03
2 2 2 36.87 1.07
3 -2 2 4.75 0.17
-3 -2 -2 5.67 0.16
-3 -2 -2 5.5 0.18
-3 2 -2 5.67 0.16
3 2 2 5.61 0.19
4 -2 2 30.61 0.86
4 -2 2 30.21 0.82
-4 -2 -2 30.7 0.83
-4 -2 -2 29.31 0.8
4 2 2 29.99 0.84
-4 2 -2 28.44 0.8
5 -2 2 10.04 0.34
-5 -2 -2 9.69 0.29
-5 -2 -2 9.69 0.31
5 -2 2 9.76 0.31
-5 2 -2 10.02 0.29
5 2 2 9.9 0.32
-6 -2 -2 3.14 0.14
6 -2 2 3.21 0.17
6 -2 2 3.06 0.15
6 2 2 3.38 0.16
7 -2 2 0.24 0.07
-7 -2 -2 0.23 0.06
7 -2 2 0.28 0.08
7 2 2 0.29 0.07
-8 -2 -2 0.83 0.09
8 -2 2 1.04 0.11
9 -2 2 0.05 0.07
-9 -2 -2 0.16 0.07
10 -2 2 1 0.14
-11 3 2 0.69 0.12
-10 3 2 1.12 0.13
-9 -3 2 0.93 0.1
-9 3 2 0.68 0.1
8 -3 -2 9.26 0.34
-8 -3 2 9.54 0.33
-8 3 2 9.82 0.35
7 -3 -2 6.87 0.27
-7 -3 2 7.06 0.26
-7 3 2 7.77 0.28
-6 -3 2 41.16 1.14
6 -3 -2 42.04 1.13
6 -3 -2 40.39 1.15
-6 3 2 42.05 1.18
5 -3 -2 89.41 2.29
-5 -3 2 83.49 2.34
5 -3 -2 84.6 2.3
-5 -3 2 86.37 2.29
-5 3 2 87.08 2.37
-4 -3 2 15.3 0.44
-4 -3 2 16 0.45
4 -3 -2 15.49 0.46
-4 3 2 16 0.47
-3 -3 2 167.82 4.4
3 -3 -2 144.01 4.28
-3 -3 2 171.02 4.28
3 -3 -2 168.9 4.28
2 -3 -2 120.58 3.22
2 -3 -2 122.86 3.22
-2 -3 2 121.71 3.21
-2 3 2 122.88 3.32
2 3 -2 123.07 3.23
1 -3 -2 147 3.93
1 -3 -2 151.67 3.97
-1 -3 2 151.09 4.06
1 3 -2 150.93 3.95
0 -3 2 16.92 0.46
0 -3 -2 15.78 0.45
0 3 2 16.39 0.47
0 3 -2 16.74 0.45
1 -3 2 87.57 2.31
-1 -3 -2 83.32 2.25
-1 -3 -2 84.39 2.23
-1 3 -2 84.39 2.23
1 3 2 84.89 2.31
2 -3 2 31.25 0.82
-2 -3 -2 31.69 0.8
2 -3 2 31.35 0.85
2 3 2 26.38 0.83
3 -3 2 23.98 0.65
3 -3 2 23.83 0.67
-3 -3 -2 23.2 0.62
-3 -3 -2 23.49 0.65
3 3 2 21 0.65
-3 3 -2 23.94 0.62
-4 -3 -2 31.33 0.85
4 -3 2 32.21 0.88
-4 -3 -2 32.01 0.89
-4 3 -2 32.26 0.85
4 3 2 31.63 0.9
-5 -3 -2 23.2 0.68
5 -3 2 23.31 0.71
5 -3 2 23.54 0.67
-5 -3 -2 23.92 0.65
5 3 2 24.2 0.69
6 -3 2 6.57 0.27
6 -3 2 6.9 0.25
-6 -3 -2 6.63 0.25
6 3 2 6.59 0.24
7 -3 2 2.13 0.14
-7 -3 -2 1.83 0.13
7 -3 2 2.09 0.15
8 -3 2 1.49 0.13
-8 -3 -2 1.35 0.12
9 -3 2 2.75 0.18
-9 -3 -2 2.7 0.17
10 -3 2 1.81 0.17
-10 4 2 0.4 0.1
9 -4 -2 2.64 0.17
-9 -4 2 2.89 0.16
-9 4 2 2.42 0.17
8 -4 -2 1.9 0.14
-8 -4 2 1.64 0.12
-8 4 2 1.79 0.14
7 -4 -2 1.79 0.13
-7 -4 2 1.57 0.11
-7 4 2 1.32 0.12
6 -4 -2 20.55 0.62
-6 -4 2 20.94 0.61
-6 4 2 21.3 0.64
-5 -4 2 13.29 0.4
5 -4 -2 13.47 0.38
5 -4 -2 12.82 0.41
-4 4 2 7.61 0.25
3 -4 -2 2.17 0.11
-3 -4 2 2.24 0.1
-3 4 2 2.29 0.11
2 -4 -2 7.64 0.24
-2 -4 2 7.63 0.24
-2 4 2 7.63 0.24
1 -4 -2 36.88 1
-1 -4 2 38.14 1.02
-1 4 2 36.83 1.03
0 -4 2 13.71 0.39
0 -4 2 13.79 0.39
0 -4 -2 13.48 0.38
0 -4 -2 13.63 0.39
-1 -4 -2 220.54 5.9
-1 -4 -2 221.81 5.87
1 -4 2 225.8 5.9
1 -4 2 227.74 6.06
-2 -4 -2 43.55 1.18
2 -4 2 42.65 1.17
2 -4 2 44.75 1.21
-2 -4 -2 42.91 1.15
3 -4 2 0.29 0.05
3 -4 2 0.2 0.05
-3 -4 -2 0.36 0.03
3 4 2 0.28 0.04
-4 -4 -2 33.77 0.94
-4 -4 -2 33.38 0.9
4 -4 2 33.25 0.93
4 4 2 34.1 0.94
-5 -4 -2 121.79 3.17
5 -4 2 114.21 3.26
-5 -4 -2 119.87 3.12
5 -4 2 118.81 3.15
5 4 2 118.17 3.23
-6 -4 -2 4.6 0.19
6 -4 2 3.87 0.19
6 -4 2 4.09 0.19
-7 -4 -2 2.67 0.16
7 -4 2 2.97 0.17
7 -4 2 2.84 0.16
8 -4 2 1.99 0.14
-8 -4 -2 1.58 0.14
8 -4 2 2.07 0.15
-9 -4 -2 1.68 0.14
9 -4 2 1.47 0.15
-10 -4 -2 0.69 0.11
10 -4 2 0.53 0.12
-10 5 2 0.18 0.09
9 -5 -2 0.31 0.09
-9 -5 2 0.33 0.08
-9 5 2 0.21 0.09
-8 -5 2 4.81 0.2
8 -5 -2 4.56 0.22
-8 5 2 4.7 0.22
-7 -5 2 6.91 0.25
7 -5 -2 6.54 0.26
-7 5 2 7.03 0.27
-6 -5 2 4.48 0.18
6 -5 -2 4.45 0.21
-6 5 2 5 0.2
-5 -5 2 1.87 0.11
5 -5 -2 2.14 0.13
-5 5 2 1.74 0.13
4 -5 -2 0.02 0.02
-4 -5 2 0 0.04
4 -5 -2 -0.02 0.02
-4 5 2 0.04 0.05
3 -5 -2 8.95 0.29
-3 -5 2 9.06 0.28
-3 5 2 8.82 0.29
-2 -5 2 50.61 1.36
2 -5 -2 51.01 1.36
-2 5 2 49.85 1.4
-1 -5 2 35.45 0.98
-1 -5 2 34.7 0.97
1 -5 -2 36.73 0.97
1 -5 -2 36.13 0.97
-1 5 2 36.43 1
0 -5 -2 3.77 0.13
0 -5 -2 3.91 0.14
0 -5 2 3.64 0.13
0 -5 2 3.61 0.14
0 5 2 3.8 0.14
-1 -5 -2 4.07 0.14
-1 -5 -2 4.28 0.15
1 -5 2 4.2 0.15
1 -5 2 3.8 0.15
-2 -5 -2 16.28 0.49
2 -5 2 17.37 0.49
-2 -5 -2 16.84 0.47
2 -5 2 17.08 0.5
3 -5 2 13.65 0.41
-3 -5 -2 13.69 0.37
3 -5 2 12.84 0.39
3 5 2 12.16 0.38
4 -5 2 4.81 0.2
4 -5 2 5.03 0.19
-4 -5 -2 4.85 0.16
4 5 2 4.48 0.17
-5 -5 -2 15.5 0.47
5 -5 2 14.67 0.46
5 -5 2 14.42 0.48
6 -5 2 6.35 0.26
-6 -5 -2 6.33 0.25
6 -5 2 6.67 0.25
-7 -5 -2 4.57 0.21
7 -5 2 4.6 0.22
7 -5 2 4.74 0.21
-8 -5 -2 6.61 0.28
8 -5 2 6.81 0.27
8 -5 2 6.99 0.29
-9 -5 -2 1.88 0.16
9 -5 2 2.04 0.17
10 -6 -2 1 0.14
-10 -6 2 1.06 0.13
9 -6 -2 0 0.08
-9 6 2 -0.02 0.07
8 -6 -2 2.05 0.15
-8 -6 2 2 0.13
-8 6 2 2.2 0.15
7 -6 -2 0.79 0.1
-7 -6 2 0.83 0.09
-7 6 2 0.6 0.09
6 -6 -2 1.38 0.12
-6 -6 2 1.23 0.11
-6 6 2 0.9 0.1
5 -6 -2 28.72 0.82
-5 -6 2 28.05 0.8
-5 6 2 28.26 0.83
-4 -6 2 31.82 0.89
4 -6 -2 31.44 0.9
-4 6 2 32.9 0.93
-3 -6 2 31.85 0.88
3 -6 -2 32.79 0.89
3 -6 -2 30.5 0.86
-3 6 2 31.88 0.91
2 -6 -2 28.67 0.78
2 -6 -2 29.34 0.8
-2 -6 2 28.62 0.8
-2 6 2 28.38 0.82
-1 -6 2 2.09 0.11
1 -6 -2 2.31 0.11
1 -6 -2 2.24 0.1
1 6 -2 1.97 0.08
-1 6 2 1.82 0.1
0 -6 2 54.4 1.53
0 -6 -2 56.26 1.5
0 -6 -2 56.67 1.5
0 6 2 56.44 1.54
1 -6 2 11.2 0.34
-1 -6 -2 11.37 0.33
1 -6 2 10.99 0.34
-1 -6 -2 11.19 0.34
1 -6 2 11.2 0.31
1 6 2 10.23 0.33
-2 -6 -2 4.05 0.16
-2 -6 -2 4.12 0.14
2 -6 2 4.03 0.16
2 -6 2 4.06 0.16
2 6 2 3.8 0.14
-3 -6 -2 3.01 0.14
3 -6 2 2.71 0.14
-3 -6 -2 2.75 0.11
3 -6 2 2.91 0.14
3 6 2 2.68 0.11
-4 -6 -2 2.78 0.12
-4 -6 -2 3.08 0.16
4 -6 2 3.08 0.16
4 -6 2 2.87 0.15
5 -6 2 5.67 0.23
5 -6 2 5.55 0.24
-5 -6 -2 5.92 0.23
6 -6 2 5.97 0.26
6 -6 2 6.36 0.25
-6 -6 -2 6.61 0.26
7 -6 2 1.67 0.13
-7 -6 -2 1.58 0.13
7 -6 2 1.91 0.15
8 -6 2 1.46 0.15
8 -6 2 1.3 0.13
-8 -6 -2 1.25 0.13
-9 -6 -2 1 0.13
9 -7 -2 0.55 0.11
-9 -7 2 0.61 0.1
-9 7 2 0.72 0.1
-8 -7 2 3.03 0.16
8 -7 -2 2.8 0.17
-8 7 2 2.79 0.18
7 -7 -2 5.03 0.23
-7 -7 2 5.32 0.21
-7 7 2 4.97 0.23
6 -7 -2 2.01 0.14
-6 -7 2 2.05 0.13
-6 7 2 2.22 0.15
5 -7 -2 12.11 0.4
-5 -7 2 12.05 0.38
-5 7 2 11.59 0.4
4 -7 -2 6.89 0.25
-4 -7 2 6.43 0.24
-4 7 2 6.42 0.25
3 -7 -2 13.37 0.42
-3 -7 2 13.46 0.41
-3 7 2 13.04 0.42
2 -7 -2 25.43 0.7
2 -7 -2 24.94 0.72
-2 -7 2 24.39 0.71
-2 7 2 25.82 0.73
-1 -7 2 71.66 1.93
1 -7 -2 71.08 1.93
1 -7 -2 73.58 1.92
-1 7 2 71.5 1.98
0 -7 -2 27.95 0.78
0 -7 2 27.88 0.76
0 -7 -2 27.98 0.78
0 7 2 28.38 0.79
0 7 -2 27.75 0.79
-1 -7 -2 1.35 0.09
1 -7 2 1.28 0.09
-1 -7 -2 1.34 0.09
1 7 2 1.33 0.08
2 -7 2 3.7 0.17
-2 -7 -2 3.8 0.17
-2 -7 -2 3.71 0.15
2 -7 2 3.61 0.16
2 7 2 4.02 0.14
3 -7 2 1.75 0.12
-3 -7 -2 2.08 0.1
-3 -7 -2 1.96 0.13
3 -7 2 1.98 0.13
4 -7 2 11.42 0.39
-4 -7 -2 12.38 0.39
4 -7 2 11.89 0.4
5 -7 2 3.58 0.18
5 -7 2 3.8 0.19
-5 -7 -2 3.82 0.19
6 -7 2 1.24 0.12
6 -7 2 1.01 0.12
-6 -7 -2 1.02 0.11
7 -7 2 1.55 0.13
7 -7 2 1.68 0.14
-7 -7 -2 1.63 0.13
8 -7 2 1 0.12
-8 -7 -2 0.79 0.11
9 -8 -2 1.31 0.15
8 -8 -2 1.77 0.15
-8 -8 2 1.73 0.14
-8 8 2 1.63 0.15
7 -8 -2 2.1 0.15
-7 -8 2 2.05 0.14
-7 8 2 1.96 0.14
6 -8 -2 5.13 0.23
-6 -8 2 4.8 0.21
-6 8 2 4.72 0.22
5 -8 -2 10.79 0.37
-5 -8 2 10.43 0.35
-5 8 2 10.8 0.37
4 -8 -2 36.62 1.02
-4 -8 2 34.75 0.99
-4 8 2 35.28 1.03
-3 -8 2 29.73 0.83
3 -8 -2 29.51 0.84
-3 8 2 28.74 0.85
2 -8 -2 2.74 0.15
-2 -8 2 2.44 0.14
-2 8 2 2.52 0.14
1 -8 -2 33.58 0.95
1 -8 -2 36.03 0.93
-1 -8 2 33.09 0.94
-1 -8 2 32.96 0.93
-1 8 2 33.31 0.96
0 -8 -2 21.5 0.61
0 -8 -2 21.91 0.62
0 -8 2 21.06 0.62
0 8 2 20.73 0.62
-1 -8 -2 9.45 0.31
-1 -8 -2 9.2 0.3
1 -8 2 9.65 0.32
-1 8 -2 9.63 0.31
2 -8 2 2.84 0.16
-2 -8 -2 3.09 0.14
-2 -8 -2 2.62 0.15
3 -8 2 0.73 0.09
3 -8 2 0.59 0.09
-3 -8 -2 0.59 0.07
-3 -8 -2 0.47 0.08
-4 -8 -2 1.43 0.12
4 -8 2 1.59 0.12
4 -8 2 1.5 0.13
-5 -8 -2 3.02 0.17
5 -8 2 2.98 0.17
5 -8 2 3.06 0.16
6 -8 2 3.56 0.19
-6 -8 -2 3.48 0.18
-7 -8 -2 2.52 0.17
7 -8 2 2.52 0.16
-7 8 -2 2.56 0.17
8 -8 2 0.51 0.1
-8 -8 -2 0.32 0.09
-8 8 -2 0.35 0.09
8 -9 -2 0.27 0.1
-8 -9 2 0.14 0.08
-8 9 2 0.1 0.08
-7 -9 2 0.03 0.07
-7 -9 2 0.02 0.06
7 -9 -2 -0.02 0.07
-7 9 2 0.01 0.07
6 -9 -2 1.7 0.14
-6 -9 2 1.6 0.13
-6 -9 2 1.72 0.13
-6 9 2 1.26 0.13
-5 -9 2 2.08 0.13
5 -9 -2 1.9 0.14
-5 -9 2 1.67 0.13
-5 9 2 2.1 0.15
-4 -9 2 1.56 0.12
4 -9 -2 1.78 0.14
-4 -9 2 1.68 0.13
-4 9 2 1.67 0.13
-3 -9 2 2.74 0.15
-3 -9 2 2.76 0.15
3 -9 -2 3.17 0.17
-3 9 2 2.63 0.16
-2 -9 2 6.75 0.24
2 -9 -2 6.98 0.26
-2 -9 2 6.64 0.25
-2 9 2 7.04 0.25
-1 -9 2 0.54 0.08
1 -9 -2 0.6 0.07
1 -9 -2 0.43 0.08
-1 -9 2 0.47 0.06
-1 9 2 0.58 0.07
0 -9 -2 1.83 0.13
0 -9 2 1.69 0.13
0 -9 -2 1.69 0.12
-1 -9 -2 11.43 0.37
-1 -9 -2 11.41 0.37
1 -9 2 12.08 0.39
-2 -9 -2 2.2 0.12
-2 -9 -2 2.03 0.14
2 -9 2 2.14 0.14
-2 9 -2 2.54 0.14
-3 -9 -2 6.19 0.22
-3 -9 -2 5.57 0.24
3 -9 2 6.05 0.25
-3 9 -2 5.86 0.24
4 -9 2 7.21 0.29
-4 -9 -2 7.93 0.3
-4 9 -2 7.85 0.3
5 -9 2 0.06 0.06
-5 -9 -2 0.18 0.07
-5 9 -2 0.07 0.06
6 -9 2 1.23 0.13
-6 -9 -2 1.2 0.12
-6 9 -2 0.95 0.12
7 -9 2 1.95 0.16
-7 -9 -2 1.94 0.16
-7 9 -2 1.55 0.15
8 -9 2 0.9 0.13
7 -10 -2 2.16 0.17
-7 -10 2 2.01 0.16
-7 10 2 2.13 0.18
6 -10 -2 0.18 0.08
-6 -10 2 0.28 0.09
-6 -10 2 0.28 0.08
-6 10 2 0.1 0.09
-5 -10 2 4.12 0.2
-5 -10 2 4.47 0.21
5 -10 -2 4.49 0.22
-5 10 2 4.18 0.21
4 -10 -2 5.86 0.26
-4 -10 2 6.6 0.26
-4 -10 2 6.49 0.25
-4 10 2 5.95 0.26
3 -10 -2 5.99 0.26
-3 -10 2 6.69 0.25
-3 -10 2 6.29 0.25
-3 10 2 6.1 0.25
-2 -10 2 0.27 0.08
-2 -10 2 0.28 0.07
2 -10 -2 0.35 0.08
-2 10 2 0.36 0.08
1 -10 -2 -0.02 0.07
-1 -10 2 0.07 0.06
0 -10 2 4.05 0.19
0 -10 -2 4.3 0.2
0 -10 -2 4.28 0.18
-1 -10 -2 7.77 0.28
-1 -10 -2 7.5 0.28
1 -10 2 7.3 0.28
-2 -10 -2 5.81 0.23
2 -10 2 6 0.24
-2 -10 -2 5.62 0.23
3 -10 2 9.14 0.34
-3 -10 -2 8.81 0.32
-3 10 -2 8.86 0.32
-4 -10 -2 2.81 0.17
4 -10 2 2.69 0.17
-4 10 -2 3.12 0.17
5 -10 2 2.43 0.16
-5 -10 -2 2.58 0.17
-5 10 -2 2.51 0.17
6 -10 2 1.29 0.14
-6 -10 -2 1.18 0.14
-6 10 -2 1.26 0.13
7 -10 2 0.53 0.12
-7 10 -2 0.69 0.12
-6 -11 2 6.41 0.29
-6 -11 2 6.76 0.28
6 -11 -2 6.63 0.3
-6 11 2 7.31 0.31
-5 -11 2 0.32 0.09
-5 -11 2 0.27 0.09
5 -11 -2 0.27 0.1
-5 11 2 0.21 0.09
-4 -11 2 0.42 0.09
-4 -11 2 0.49 0.1
4 -11 -2 0.55 0.11
-4 11 2 0.45 0.09
-3 -11 2 3.19 0.18
3 -11 -2 3.22 0.19
-3 11 2 3.33 0.18
-2 -11 2 7.44 0.29
2 -11 -2 7.42 0.3
1 -11 -2 3.31 0.18
-1 -11 2 3.52 0.18
0 -11 2 0.67 0.1
0 -11 -2 0.88 0.11
1 -11 2 0.13 0.07
-1 -11 -2 0.27 0.08
-1 -11 -2 0.22 0.07
-2 -11 -2 3.67 0.19
-2 -11 -2 4.12 0.2
2 -11 2 3.97 0.2
3 -11 2 3.87 0.21
-3 -11 -2 4.13 0.2
-4 -11 -2 1.14 0.12
4 -11 2 1.14 0.13
-5 -11 -2 1.23 0.14
5 -11 2 1.27 0.15
-5 11 -2 1.4 0.14
-6 -11 -2 0.01 0.09
6 -11 2 0.07 0.1
-6 11 -2 0.04 0.09
-6 -12 2 1.79 0.17
-6 12 2 2.05 0.18
-5 -12 2 0.55 0.1
-5 -12 2 0.34 0.1
5 -12 -2 0.39 0.11
-5 12 2 0.69 0.11
4 -12 -2 2.77 0.2
-4 -12 2 2.71 0.18
3 -12 -2 1.04 0.13
-3 -12 2 0.89 0.12
2 -12 -2 0.76 0.12
-2 -12 2 0.71 0.11
1 -12 -2 2.72 0.18
-1 -12 2 2.73 0.18
0 -12 2 6.36 0.28
0 -12 -2 6.34 0.27
1 -12 2 5.53 0.25
-1 -12 -2 5.56 0.25
2 -12 2 2.56 0.18
-3 -12 -2 0.32 0.09
3 -12 2 0.24 0.1
-4 -12 -2 0.36 0.1
4 -12 2 0.39 0.11
-5 -12 -2 1.41 0.16
-4 -13 2 0.16 0.09
-3 -13 2 0.87 0.12
3 -13 -2 0.75 0.13
-2 -13 2 0.2 0.09
2 -13 -2 0.12 0.1
1 -13 -2 2.12 0.18
-1 -13 2 2.36 0.18
0 -13 2 0.09 0.08
0 -13 -2 0.05 0.09
1 -13 2 2.37 0.18
2 -13 2 1.62 0.16
-4 -13 -2 0.13 0.1
1 -14 -2 1.08 0.15
0 -14 -2 0.84 0.13
-11 0 3 4.19 0.23
-10 0 3 0.38 0.09
-9 0 3 0.27 0.07
-8 0 3 8.54 0.3
-7 0 3 -0.07 0.05
6 0 -3 15.42 0.46
-6 0 3 15.37 0.46
-5 0 3 0.37 0.05
5 0 -3 0.32 0.06
4 0 -3 6.18 0.21
-4 0 3 6.25 0.2
-3 0 3 2 0.08
3 0 -3 1.89 0.09
-1 0 3 6.11 0.17
-1 0 3 5.66 0.18
0 0 3 3.7 0.13
0 0 3 4.02 0.12
0 0 -3 4.03 0.13
-1 0 -3 93.42 2.43
1 0 3 90.57 2.41
2 0 3 67.73 1.76
-2 0 -3 66.26 1.78
2 0 3 67.4 1.84
3 0 3 31.11 0.82
-3 0 -3 30.23 0.84
3 0 3 31.31 0.88
-4 0 -3 14.25 0.41
4 0 3 14.34 0.43
4 0 3 13.8 0.39
-5 0 -3 11.04 0.34
5 0 3 11.79 0.37
-6 0 -3 0.15 0.05
6 0 3 0.08 0.06
7 0 3 0.38 0.08
-7 0 -3 0.53 0.07
8 0 3 2.4 0.16
9 0 3 1.06 0.12
-11 -1 3 1.57 0.15
-10 -1 3 0.01 0.07
-9 -1 3 1.64 0.13
-9 1 3 1.59 0.13
-8 -1 3 2.84 0.15
-8 -1 3 2.66 0.15
-8 1 3 2.87 0.16
7 -1 -3 27.81 0.79
-7 -1 3 27.9 0.8
-7 1 3 27.72 0.81
-6 -1 3 6.56 0.22
6 -1 -3 6.41 0.23
-6 1 3 6.58 0.23
6 1 -3 6.54 0.24
-5 -1 3 11.32 0.35
5 -1 -3 11.67 0.36
5 1 -3 11.68 0.36
-5 1 3 12.56 0.36
4 -1 -3 9.2 0.29
-4 -1 3 9.03 0.28
4 1 -3 9.43 0.29
-4 1 3 10.01 0.29
3 -1 -3 13.11 0.38
3 -1 -3 13.85 0.38
-3 -1 3 12.96 0.37
3 1 -3 12.62 0.38
-3 1 3 12.86 0.38
-2 -1 3 28.65 0.81
2 -1 -3 29.6 0.79
-2 1 3 29.97 0.82
-1 1 3 10.72 0.31
0 -1 3 21.52 0.6
0 -1 3 21.66 0.58
0 1 -3 21.6 0.58
1 -1 3 6.66 0.21
-1 -1 -3 6.52 0.2
1 -1 3 6.61 0.19
-1 1 -3 6.37 0.19
2 -1 3 52.2 1.33
-2 -1 -3 49.88 1.34
2 1 3 50.08 1.39
-2 1 -3 48.73 1.33
3 -1 3 33.52 0.95
3 -1 3 34.63 0.91
-3 -1 -3 35.09 0.92
3 1 3 33.14 0.95
-3 1 -3 32.45 0.91
-4 -1 -3 15.56 0.45
4 -1 3 15.78 0.48
4 1 3 15.54 0.47
-4 1 -3 15.33 0.44
-5 -1 -3 21.03 0.59
5 -1 3 21.02 0.62
5 -1 3 20.08 0.58
-5 1 -3 20.43 0.57
5 1 3 20.27 0.61
-6 -1 -3 6.09 0.23
6 -1 3 6.18 0.25
-6 1 -3 6.86 0.22
6 1 3 6.63 0.25
-7 -1 -3 1.07 0.09
7 -1 3 0.96 0.11
7 1 3 0.91 0.11
8 -1 3 1.69 0.14
8 1 3 1.78 0.14
9 -1 3 0.75 0.11
9 1 3 0.88 0.11
10 -1 3 5.66 0.28
-11 -2 3 0.53 0.11
-10 -2 3 3.18 0.18
-10 2 3 2.68 0.18
-9 -2 3 0.89 0.1
-9 2 3 1.05 0.11
-8 -2 3 0.88 0.1
-8 2 3 0.89 0.1
7 -2 -3 63.11 1.68
-7 -2 3 60.63 1.68
-7 2 3 62.01 1.74
-6 -2 3 32.83 0.9
-6 -2 3 31.79 0.9
6 -2 -3 33.07 0.9
6 -2 -3 31.71 0.91
-6 2 3 31.26 0.92
-5 -2 3 16.82 0.48
5 -2 -3 16.23 0.48
-5 -2 3 17.39 0.49
5 2 -3 16.75 0.5
-5 2 3 17.08 0.5
4 -2 -3 38.77 1.06
-4 -2 3 40.8 1.06
-4 -2 3 38.16 1.07
-4 2 3 38.61 1.09
4 2 -3 38.78 1.07
3 -2 -3 206.17 5.42
3 -2 -3 208.26 5.38
-3 -2 3 199.41 5.54
-3 2 3 206.36 5.55
-2 -2 3 76.62 2.08
-2 -2 3 77.44 2.03
2 -2 -3 77.91 2.03
2 2 -3 74.92 2.04
1 -2 -3 400.92 10.25
-1 -2 3 377.64 10.91
1 2 -3 395.5 10.31
0 -2 3 111.69 3.09
0 -2 3 117.52 3
0 -2 -3 112.75 2.99
0 2 -3 114.56 3
-1 -2 -3 52.38 1.35
1 -2 3 51.96 1.37
1 -2 3 51.88 1.42
-1 -2 -3 51.41 1.38
-1 2 -3 50.42 1.37
2 -2 3 84.52 2.31
-2 -2 -3 85.93 2.24
2 2 3 83.02 2.3
-2 2 -3 83.54 2.22
3 -2 3 55.24 1.64
-3 -2 -3 64.21 1.62
-3 -2 -3 63.18 1.66
3 2 3 63.76 1.71
-3 2 -3 63.63 1.64
-4 -2 -3 80.88 2.18
4 -2 3 83.38 2.3
-4 -2 -3 84.22 2.23
4 -2 3 86.55 2.21
-4 2 -3 82.02 2.2
4 2 3 82.49 2.29
-5 -2 -3 1.75 0.11
5 -2 3 1.66 0.11
5 -2 3 1.86 0.13
-5 2 -3 1.9 0.09
5 2 3 1.39 0.12
6 -2 3 2.41 0.13
6 -2 3 2.23 0.14
-6 -2 -3 2.17 0.13
6 2 3 2.61 0.15
7 -2 3 2.64 0.16
-7 -2 -3 2.7 0.15
7 2 3 2.86 0.17
-8 -2 -3 3.75 0.18
8 -2 3 3.3 0.19
8 2 3 3.79 0.19
9 -2 3 0.76 0.12
10 -2 3 0.05 0.09
-11 3 3 0.23 0.1
-10 -3 3 0.72 0.11
-10 3 3 0.79 0.12
-9 -3 3 4.66 0.21
-9 3 3 4.65 0.22
-8 -3 3 6.25 0.25
-8 3 3 6.63 0.27
7 -3 -3 0.44 0.08
7 -3 -3 0.42 0.07
-7 -3 3 0.47 0.07
-7 3 3 0.29 0.08
6 -3 -3 13.64 0.4
-6 -3 3 12.92 0.41
6 -3 -3 13.37 0.42
-6 3 3 13.34 0.43
5 -3 -3 12.61 0.37
-5 -3 3 12.22 0.37
-5 -3 3 11.69 0.35
-5 3 3 12.25 0.38
-4 -3 3 17.68 0.51
-4 -3 3 16.89 0.49
4 -3 -3 17.65 0.51
4 -3 -3 17.56 0.5
-4 3 3 18.87 0.53
-3 -3 3 14.65 0.47
3 -3 -3 17.29 0.48
3 -3 -3 16.73 0.47
-3 -3 3 16.98 0.46
3 3 -3 17.37 0.48
-2 -3 3 27.02 0.75
2 -3 -3 27.67 0.74
2 -3 -3 27.9 0.75
-2 -3 3 26.86 0.74
2 3 -3 26.86 0.75
-2 3 3 26.99 0.77
-1 -3 3 74.13 2.03
1 -3 -3 74.67 1.97
1 -3 -3 76.49 1.98
-1 -3 3 75 1.97
1 3 -3 72.25 1.98
-1 3 3 75.29 2.04
0 -3 -3 2.35 0.1
0 -3 -3 2.55 0.09
0 -3 3 2.43 0.1
0 -3 3 2.37 0.1
0 3 3 2.75 0.1
0 3 -3 2.81 0.09
1 -3 3 33.58 0.9
1 -3 3 33.05 0.86
-1 -3 -3 30.35 0.87
-1 -3 -3 33 0.85
1 3 3 31.19 0.89
-1 3 -3 31.02 0.85
-2 -3 -3 109.57 2.9
2 -3 3 109.9 2.98
-2 -3 -3 107.26 2.86
2 -3 3 110.71 2.88
-2 3 -3 108.55 2.87
2 3 3 109.77 2.97
-3 -3 -3 2.92 0.09
3 -3 3 2.9 0.12
-3 -3 -3 2.86 0.13
3 -3 3 3.04 0.14
-3 3 -3 3.15 0.1
3 3 3 3.36 0.13
-4 -3 -3 17.19 0.5
4 -3 3 16.96 0.49
4 3 3 16.48 0.5
-5 -3 -3 13.12 0.39
5 -3 3 12.46 0.38
5 -3 3 12.13 0.41
5 3 3 11.92 0.39
-6 -3 -3 15.08 0.48
6 -3 3 15.24 0.5
6 -3 3 16.09 0.47
6 3 3 15.75 0.49
-7 -3 -3 3.3 0.17
7 -3 3 3.24 0.18
7 3 3 3.24 0.17
-8 -3 -3 0.22 0.08
8 -3 3 0.14 0.08
9 -3 3 0.05 0.09
-9 -3 -3 0.15 0.08
-10 -4 3 0.06 0.08
-10 4 3 0.16 0.09
-9 -4 3 0.68 0.1
-9 4 3 0.52 0.1
8 -4 -3 1.53 0.13
-8 -4 3 1.41 0.12
-8 4 3 1.61 0.14
-7 -4 3 5.19 0.2
7 -4 -3 4.94 0.22
-7 4 3 4.84 0.22
6 -4 -3 21.44 0.65
-6 -4 3 21.52 0.63
6 -4 -3 22.22 0.62
-6 4 3 21.74 0.65
5 -4 -3 0.05 0.03
-5 -4 3 0.14 0.05
5 -4 -3 0.08 0.04
-5 4 3 0.08 0.05
4 -4 -3 3.43 0.14
4 -4 -3 3.63 0.15
-4 -4 3 3.68 0.14
3 -4 -3 19.84 0.58
3 -4 -3 20.53 0.57
-3 -4 3 20.03 0.57
3 4 -3 20.98 0.58
-3 4 3 20.52 0.59
2 -4 -3 157.98 4.13
-2 -4 3 153.54 4.23
2 -4 -3 158.3 4.14
-2 4 3 154.89 4.26
2 4 -3 160.13 4.14
-1 -4 3 15.8 0.44
1 -4 -3 15.75 0.44
-1 -4 3 14.91 0.44
1 -4 -3 15.77 0.44
-1 4 3 15.65 0.45
1 4 -3 15.38 0.44
0 -4 3 15.77 0.45
0 -4 3 16.21 0.46
0 -4 -3 16.4 0.45
0 -4 -3 15.48 0.44
0 4 3 15.82 0.46
0 4 -3 15.57 0.44
1 -4 3 18.12 0.51
1 -4 3 18.17 0.52
-1 -4 -3 17.35 0.51
-1 -4 -3 17.76 0.49
1 4 3 18.48 0.52
-1 4 -3 17.77 0.49
2 -4 3 4.87 0.18
-2 -4 -3 4.71 0.14
-2 -4 -3 4.23 0.17
2 -4 3 4.91 0.17
-2 4 -3 4.6 0.13
2 4 3 4.55 0.17
3 -4 3 47.58 1.29
3 -4 3 48.02 1.34
-3 -4 -3 47.55 1.26
3 4 3 48.1 1.33
-4 -4 -3 12.32 0.39
4 -4 3 12.11 0.41
4 -4 3 12.35 0.38
4 4 3 13.43 0.39
5 -4 3 9.36 0.32
5 -4 3 9.61 0.34
-5 -4 -3 9.39 0.32
5 4 3 9.75 0.32
6 -4 3 3.84 0.19
6 -4 3 4.03 0.18
-6 -4 -3 3.76 0.18
6 4 3 3.45 0.17
-7 -4 -3 0.35 0.08
7 -4 3 0.37 0.09
-8 -4 -3 1.01 0.12
8 -4 3 1.14 0.13
9 -4 3 1.14 0.14
-9 -4 -3 1.22 0.13
-10 -5 3 1.78 0.15
-10 5 3 1.6 0.15
-9 -5 3 3.99 0.2
9 -5 -3 4.5 0.22
-9 5 3 4.2 0.22
8 -5 -3 0.64 0.1
-8 -5 3 0.5 0.09
-8 5 3 0.48 0.09
-7 -5 3 0.06 0.06
7 -5 -3 0.13 0.07
-7 5 3 0.22 0.07
-6 -5 3 3.88 0.17
6 -5 -3 3.99 0.19
-6 5 3 3.82 0.18
5 -5 -3 10.39 0.31
5 -5 -3 10.55 0.34
-5 -5 3 10.54 0.33
-5 5 3 9.87 0.34
4 -5 -3 18.43 0.54
4 -5 -3 18.94 0.52
-4 -5 3 18.56 0.53
-4 5 3 17.67 0.55
3 -5 -3 25.46 0.72
3 -5 -3 25.19 0.7
-3 -5 3 25.48 0.71
-3 5 3 25.91 0.74
-2 -5 3 32.75 0.88
2 -5 -3 32.62 0.89
2 -5 -3 31.83 0.88
-2 5 3 32.47 0.92
-1 -5 3 15.24 0.44
1 -5 -3 15.54 0.45
-1 -5 3 15.73 0.45
1 -5 -3 15.84 0.45
-1 5 3 15.96 0.46
0 -5 3 14.87 0.44
0 -5 -3 15.98 0.45
0 -5 -3 15.85 0.44
0 -5 3 15.31 0.44
0 5 3 14.79 0.45
1 -5 3 17.86 0.52
-1 -5 -3 18.26 0.52
1 -5 3 18.07 0.53
-1 -5 -3 18.11 0.5
1 5 3 18.15 0.52
-2 -5 -3 2.44 0.12
2 -5 3 2.4 0.12
2 -5 3 2.13 0.11
-2 -5 -3 2.29 0.09
2 5 3 2.4 0.11
3 -5 3 9.71 0.32
-3 -5 -3 9.81 0.28
3 -5 3 9.82 0.31
3 5 3 9.76 0.3
4 -5 3 17.9 0.52
-4 -5 -3 16.81 0.53
4 -5 3 17.49 0.55
4 5 3 18.11 0.52
5 -5 3 5 0.21
5 -5 3 4.8 0.22
-5 -5 -3 4.81 0.21
6 -5 3 8.43 0.3
-6 -5 -3 8.07 0.3
6 -5 3 8.1 0.31
-7 -5 -3 5.31 0.24
7 -5 3 6.08 0.24
7 -5 3 5.85 0.26
8 -5 3 7.79 0.32
-8 -5 -3 7.68 0.31
9 -5 3 0.09 0.1
-9 -5 -3 0.22 0.09
10 -6 -3 0.12 0.1
-10 6 3 0.14 0.1
9 -6 -3 -0.05 0.07
-9 -6 3 0.2 0.08
-9 6 3 0.08 0.08
8 -6 -3 3.71 0.2
-8 -6 3 3.68 0.18
-8 6 3 3.73 0.19
7 -6 -3 6.59 0.26
-7 -6 3 6.09 0.24
-7 6 3 6.08 0.25
6 -6 -3 4.94 0.22
-6 -6 3 5.09 0.2
-6 6 3 4.76 0.22
-5 -6 3 24.92 0.71
5 -6 -3 24.6 0.72
-5 6 3 24.33 0.73
4 -6 -3 5.37 0.22
-4 -6 3 5.51 0.21
4 -6 -3 5.79 0.19
-4 6 3 5.68 0.22
3 -6 -3 23.95 0.68
3 -6 -3 23.38 0.66
-3 -6 3 23.25 0.67
-3 6 3 23.75 0.69
2 -6 -3 69.38 1.86
2 -6 -3 69.41 1.85
-2 6 3 69.49 1.92
-1 -6 3 86.86 2.38
1 -6 -3 88.69 2.34
1 -6 -3 88.85 2.33
-1 6 3 86.71 2.4
0 -6 3 27.44 0.77
0 -6 3 27.9 0.78
0 -6 -3 27.62 0.76
0 -6 -3 27.72 0.77
0 6 3 27.37 0.78
1 -6 3 1.33 0.1
1 -6 3 1.21 0.09
-1 -6 -3 1.48 0.08
-1 -6 -3 1.39 0.09
1 6 3 1.42 0.09
2 -6 3 4.55 0.18
2 -6 3 4.55 0.18
-2 -6 -3 4.69 0.15
-2 -6 -3 4.49 0.18
2 6 3 4.07 0.16
3 -6 3 10.38 0.34
3 -6 3 10.28 0.33
-3 -6 -3 10.54 0.34
3 6 3 9.83 0.32
-4 -6 -3 37.84 1.05
4 -6 3 36.35 1.04
4 -6 3 36.93 1.07
5 -6 3 5.15 0.21
5 -6 3 4.7 0.22
-5 -6 -3 4.8 0.21
6 -6 3 0.84 0.1
6 -6 3 0.98 0.11
-6 -6 -3 0.89 0.1
7 -6 3 0.1 0.08
-7 -6 -3 0.18 0.08
7 -6 3 0.18 0.07
8 -6 3 2.23 0.17
-8 -6 -3 1.92 0.16
-9 -6 -3 0.46 0.11
-9 -7 3 0.44 0.09
9 -7 -3 0.33 0.1
-9 7 3 0.42 0.09
-8 -7 3 1.19 0.12
8 -7 -3 1.04 0.13
-8 7 3 1.11 0.12
-7 -7 3 0.12 0.07
7 -7 -3 0.1 0.07
-7 7 3 0 0.06
-6 -7 3 0.42 0.08
6 -7 -3 0.5 0.09
-6 7 3 0.38 0.08
-5 -7 3 9.67 0.32
5 -7 -3 9.44 0.34
-5 7 3 9.63 0.34
-4 -7 3 21.2 0.62
4 -7 -3 21.54 0.64
-4 7 3 21.54 0.65
-3 -7 3 60.32 1.66
3 -7 -3 62.98 1.68
3 -7 -3 62.4 1.65
-3 7 3 60.43 1.72
2 -7 -3 4.96 0.18
2 -7 -3 4.85 0.19
-2 -7 3 4.29 0.18
-2 7 3 4.53 0.19
1 -7 -3 23.11 0.66
1 -7 -3 23.43 0.66
-1 7 3 23.36 0.68
0 -7 -3 12.96 0.38
0 -7 3 12.64 0.38
0 -7 -3 12.85 0.39
0 -7 3 11.9 0.39
0 7 3 13.17 0.39
-1 -7 -3 21.91 0.61
-1 -7 -3 21.6 0.59
1 -7 3 20.28 0.61
1 -7 3 20.77 0.61
1 7 3 20.69 0.61
-2 -7 -3 9.11 0.27
-2 -7 -3 8.5 0.3
2 -7 3 8.57 0.3
2 -7 3 8.74 0.3
2 7 3 8.7 0.28
3 -7 3 4.13 0.19
3 -7 3 4.07 0.18
-3 -7 -3 4.09 0.19
-4 -7 -3 10.67 0.36
4 -7 3 9.97 0.36
4 -7 3 10.21 0.35
-5 -7 -3 0.71 0.09
5 -7 3 0.72 0.09
5 -7 3 0.83 0.1
-6 -7 -3 2.91 0.17
6 -7 3 2.75 0.16
6 -7 3 2.61 0.17
-7 -7 -3 2.95 0.18
7 -7 3 2.83 0.17
7 -7 3 2.97 0.19
-8 -7 -3 1.53 0.15
8 -7 3 1.19 0.14
9 -8 -3 0.06 0.09
-8 -8 3 0.39 0.09
8 -8 -3 0.43 0.1
-8 8 3 0.32 0.09
7 -8 -3 1.16 0.13
-7 -8 3 1.19 0.11
-7 8 3 1.22 0.13
6 -8 -3 2.98 0.17
-6 -8 3 3.08 0.16
-6 8 3 3.05 0.17
5 -8 -3 0.52 0.08
-5 -8 3 0.62 0.08
-5 8 3 0.6 0.09
-4 -8 3 1.53 0.12
4 -8 -3 1.44 0.13
-4 8 3 1.11 0.11
3 -8 -3 0.7 0.09
-3 -8 3 0.78 0.09
-3 8 3 0.7 0.09
2 -8 -3 14.62 0.43
-2 -8 3 14.53 0.45
2 -8 -3 14.43 0.45
-2 8 3 13.73 0.45
-1 -8 3 16.17 0.5
1 -8 -3 16.49 0.49
1 -8 -3 16.43 0.5
-1 8 3 16.63 0.5
0 -8 -3 4.8 0.19
0 -8 3 4.46 0.2
0 -8 -3 5.18 0.2
0 8 3 4.84 0.19
1 -8 3 0.32 0.06
1 -8 3 0.33 0.07
-1 -8 -3 0.32 0.07
-1 -8 -3 0.29 0.06
1 8 3 0.33 0.06
2 -8 3 2.49 0.14
-2 -8 -3 2.54 0.14
-2 -8 -3 2.33 0.12
2 -8 3 2.38 0.15
3 -8 3 6.28 0.25
3 -8 3 6.56 0.25
-3 -8 -3 6.58 0.25
4 -8 3 1.52 0.13
4 -8 3 1.68 0.13
-4 -8 -3 1.69 0.13
-5 -8 -3 4.28 0.21
5 -8 3 4.59 0.21
5 -8 3 4.49 0.22
6 -8 3 2.33 0.15
-6 -8 -3 1.98 0.15
6 -8 3 2.07 0.17
7 -8 3 0.36 0.1
-7 -8 -3 0.32 0.09
7 -8 3 0.36 0.09
8 -9 -3 1.45 0.15
-8 -9 3 1.18 0.13
-8 -9 3 1.8 0.14
-8 9 3 1.59 0.14
7 -9 -3 2.63 0.18
-7 -9 3 2.07 0.15
-7 9 3 2.52 0.17
6 -9 -3 1.02 0.12
-6 -9 3 1.2 0.11
-6 9 3 1.17 0.12
-5 -9 3 1.91 0.13
5 -9 -3 2.08 0.15
-5 9 3 1.71 0.14
-4 -9 3 9.91 0.34
4 -9 -3 9.76 0.35
-4 9 3 10 0.35
3 -9 -3 1.79 0.14
-3 -9 3 1.92 0.13
-3 9 3 2.08 0.14
2 -9 -3 3.55 0.18
-2 -9 3 3.86 0.17
-2 9 3 3.53 0.18
1 -9 -3 12.58 0.41
1 -9 -3 13.1 0.4
-1 -9 3 12.52 0.41
-1 9 3 12.9 0.41
0 -9 3 26.65 0.77
0 -9 -3 26.39 0.76
0 -9 -3 26.83 0.76
0 9 3 26.21 0.77
-1 -9 -3 13.65 0.43
1 -9 3 14.03 0.44
-1 -9 -3 13.24 0.42
-2 -9 -3 9.37 0.33
2 -9 3 10.12 0.35
3 -9 3 2.52 0.15
3 -9 3 2.83 0.16
-3 -9 -3 2.86 0.16
-4 -9 -3 3.88 0.2
4 -9 3 3.8 0.19
4 -9 3 3.9 0.2
-5 -9 -3 2.31 0.16
5 -9 3 2.55 0.17
5 -9 3 2.23 0.15
6 -9 3 2.01 0.15
-6 -9 -3 2.23 0.16
7 -9 3 1.01 0.13
-7 -9 -3 1.09 0.13
-7 9 -3 0.7 0.12
-7 -10 3 4.03 0.21
7 -10 -3 4.06 0.23
-7 -10 3 3.85 0.21
-7 10 3 4.03 0.23
6 -10 -3 3.41 0.2
-6 -10 3 3.16 0.18
-6 -10 3 3.53 0.19
-6 10 3 3.45 0.2
-5 -10 3 2.32 0.15
5 -10 -3 1.9 0.16
-5 -10 3 1.98 0.14
-5 10 3 1.89 0.15
4 -10 -3 1.53 0.14
-4 -10 3 1.7 0.13
-4 -10 3 1.67 0.14
-4 10 3 1.87 0.14
-3 -10 3 3.46 0.18
3 -10 -3 3.28 0.18
-3 -10 3 3.53 0.17
-3 10 3 3.42 0.18
2 -10 -3 5.09 0.23
-2 -10 3 5.41 0.22
-2 10 3 4.91 0.21
1 -10 -3 10.87 0.38
-1 -10 3 11.45 0.38
0 -10 -3 1.75 0.13
0 -10 3 1.91 0.14
0 -10 -3 1.78 0.13
-1 -10 -3 -0.02 0.06
-1 -10 -3 -0.01 0.06
1 -10 3 0.09 0.07
-2 -10 -3 1.5 0.13
2 -10 3 1.57 0.13
3 -10 3 0.28 0.08
-3 -10 -3 0.24 0.08
-3 10 -3 0.17 0.07
-4 -10 -3 4.13 0.2
4 -10 3 4.28 0.21
-4 10 -3 3.98 0.2
-5 -10 -3 3.78 0.21
5 -10 3 3.7 0.21
-5 10 -3 3.51 0.2
6 -10 3 0.45 0.11
-6 -10 -3 0.3 0.1
-6 10 -3 0.34 0.09
-7 -11 3 0.56 0.11
-6 -11 3 1.88 0.16
6 -11 -3 1.76 0.17
-6 -11 3 1.85 0.16
-6 11 3 2.12 0.18
-5 -11 3 3.44 0.19
5 -11 -3 3.43 0.21
-5 -11 3 3.43 0.19
-5 11 3 3.5 0.2
4 -11 -3 2.1 0.17
-4 -11 3 2.01 0.14
-4 -11 3 1.86 0.15
-4 11 3 1.82 0.15
3 -11 -3 2.28 0.17
-3 -11 3 2.32 0.16
-3 11 3 2.25 0.15
2 -11 -3 1.12 0.12
-2 -11 3 1.12 0.11
-1 -11 3 0.84 0.1
1 -11 -3 1.04 0.12
0 -11 3 0.95 0.11
0 -11 -3 1.01 0.11
-1 -11 -3 3.77 0.2
1 -11 3 4.06 0.2
2 -11 3 7.93 0.32
-2 -11 -3 8.4 0.31
-3 -11 -3 2.07 0.15
3 -11 3 2.34 0.17
-4 -11 -3 1.19 0.13
4 -11 3 1.18 0.14
5 -11 3 1.76 0.17
-5 -11 -3 1.47 0.15
-5 11 -3 1.84 0.16
-6 11 -3 1.18 0.14
-6 -12 3 1.23 0.14
-6 -12 3 1.09 0.14
5 -12 -3 0.42 0.12
-5 -12 3 0.48 0.11
-5 12 3 0.42 0.1
4 -12 -3 0.31 0.11
-4 -12 3 0.29 0.09
3 -12 -3 0.12 0.1
-3 -12 3 0.18 0.09
-2 -12 3 1.46 0.14
2 -12 -3 1.22 0.14
1 -12 -3 0.85 0.12
-1 -12 3 0.83 0.12
0 -12 3 0.5 0.1
0 -12 -3 0.35 0.1
1 -12 3 0.47 0.1
2 -12 3 -0.05 0.07
-2 -12 -3 0.03 0.08
3 -12 3 2.08 0.17
-3 -12 -3 1.81 0.16
4 -12 3 1.56 0.16
-4 -12 -3 1.74 0.16
3 -13 -3 2.56 0.2
-3 -13 3 2.73 0.19
2 -13 -3 0.1 0.1
-2 -13 3 0.35 0.11
1 -13 -3 1.75 0.17
-1 -13 3 1.76 0.16
0 -13 3 1.18 0.14
1 -13 3 3.95 0.22
-11 0 4 0.14 0.09
-10 0 4 0.49 0.1
-8 0 4 41.08 1.17
-7 0 4 22.48 0.67
7 0 -4 22.67 0.67
-6 0 4 0.88 0.08
6 0 -4 1.02 0.09
5 0 -4 5.08 0.19
-5 0 4 4.89 0.18
4 0 -4 110.53 2.93
-4 0 4 110.04 3
3 0 -4 0.98 0.08
-3 0 4 0.97 0.06
-2 0 4 18.16 0.52
-1 0 4 7.95 0.24
-1 0 4 8.12 0.23
1 0 -4 7.97 0.24
0 0 4 0.18 0.03
0 0 4 0.13 0.02
0 0 -4 0.21 0.03
1 0 4 0.58 0.03
-1 0 -4 0.55 0.05
2 0 4 0.86 0.04
-2 0 -4 0.88 0.06
2 0 4 0.89 0.07
3 0 4 5.11 0.2
3 0 4 5.04 0.15
-3 0 -4 5.1 0.17
-4 0 -4 0.05 0.04
4 0 4 0.09 0.06
5 0 4 0.04 0.07
-5 0 -4 0.18 0.05
6 0 4 22.37 0.69
-6 0 -4 22.39 0.64
7 0 4 1.16 0.12
8 0 4 0.25 0.09
9 0 4 1.38 0.14
-11 -1 4 -0.03 0.08
-11 1 4 0.04 0.08
-10 -1 4 0.03 0.08
-9 -1 4 0.03 0.07
-9 1 4 0 0.06
-8 -1 4 5.58 0.24
8 -1 -4 5.91 0.24
-8 1 4 5.6 0.23
-7 -1 4 23.61 0.67
7 -1 -4 23.44 0.67
-7 -1 4 23.84 0.68
-7 1 4 22.49 0.68
7 1 -4 21.39 0.67
-6 -1 4 14.15 0.42
6 -1 -4 13.36 0.41
-6 -1 4 13.27 0.4
6 1 -4 12.96 0.42
-6 1 4 13.12 0.41
5 -1 -4 9.43 0.3
-5 -1 4 9.61 0.29
5 1 -4 9.61 0.31
-5 1 4 9.32 0.3
-4 -1 4 1.06 0.08
-4 -1 4 1.36 0.07
4 -1 -4 0.96 0.08
-4 1 4 0.99 0.07
4 1 -4 0.91 0.08
-3 -1 4 28.07 0.76
3 -1 -4 27.17 0.76
-3 -1 4 27.8 0.77
-3 1 4 27.37 0.78
-2 -1 4 1.43 0.07
-2 -1 4 1.43 0.07
2 -1 -4 1.36 0.07
2 1 -4 1.41 0.07
-2 1 4 1.49 0.07
-1 -1 4 12.69 0.38
1 1 -4 13.61 0.38
-1 1 4 12.99 0.38
0 -1 4 59.58 1.62
0 -1 4 60.49 1.56
0 -1 -4 58.28 1.57
0 1 -4 58.06 1.57
0 1 4 58.28 1.55
-1 -1 -4 4.86 0.16
1 -1 4 4.96 0.15
1 -1 4 4.77 0.17
1 1 4 5.12 0.17
-1 1 -4 4.93 0.16
-2 -1 -4 57.01 1.53
2 -1 4 58.05 1.51
2 1 4 56.46 1.58
-2 1 -4 57.67 1.53
-3 -1 -4 57.99 1.54
3 -1 4 57.97 1.6
3 -1 4 58.71 1.52
3 1 4 56.42 1.59
-3 1 -4 55.77 1.53
4 -1 4 16.42 0.5
-4 -1 -4 16.51 0.47
4 1 4 16.1 0.5
-4 1 -4 15.94 0.46
-5 -1 -4 3.79 0.16
5 -1 4 3.77 0.19
-5 1 -4 3.95 0.15
5 1 4 3.79 0.18
-6 -1 -4 2.37 0.12
6 -1 4 2.06 0.14
6 1 4 2.03 0.15
-7 -1 -4 0.28 0.06
7 -1 4 0.23 0.07
7 1 4 0.21 0.07
8 -1 4 2.08 0.15
8 1 4 1.87 0.15
9 -1 4 3.38 0.21
9 1 4 3.17 0.19
-11 -2 4 0.66 0.11
-10 -2 4 1.05 0.12
-10 2 4 1.04 0.12
-9 -2 4 3.11 0.18
-9 2 4 3.01 0.17
-8 -2 4 4.16 0.2
8 -2 -4 4.33 0.2
-8 2 4 4.12 0.2
7 -2 -4 4.02 0.18
-7 -2 4 3.86 0.18
-7 2 4 3.64 0.18
-6 -2 4 5.66 0.2
6 -2 -4 6.1 0.22
-6 -2 4 6.37 0.23
-6 2 4 5.78 0.22
6 2 -4 6.08 0.24
-5 -2 4 28.44 0.8
5 -2 -4 29.03 0.81
5 2 -4 29.12 0.82
-5 2 4 28.87 0.83
4 -2 -4 47.02 1.26
4 -2 -4 46.06 1.25
-4 -2 4 45.08 1.27
-4 2 4 46.91 1.29
3 -2 -4 178.49 4.65
3 -2 -4 178.51 4.62
-3 -2 4 173.07 4.62
-3 -2 4 170.76 4.75
-3 2 4 177.66 4.77
3 2 -4 177.39 4.64
2 -2 -4 10.63 0.31
-2 -2 4 10.37 0.3
-2 -2 4 10.48 0.31
2 -2 -4 10.48 0.31
2 2 -4 10.15 0.31
-2 2 4 10.1 0.31
-1 -2 4 15.98 0.44
1 -2 -4 15.68 0.44
1 -2 -4 15.48 0.45
-1 -2 4 15.78 0.45
1 2 -4 15.94 0.44
0 -2 4 12.57 0.36
0 2 -4 12.39 0.35
0 2 4 11.98 0.36
-1 -2 -4 19.32 0.55
1 -2 4 19.25 0.57
1 2 4 20.18 0.57
-1 2 -4 19.8 0.54
2 -2 4 42.4 1.16
-2 -2 -4 42.25 1.12
-2 2 -4 40.46 1.1
2 2 4 40.12 1.15
-3 -2 -4 19.77 0.56
3 -2 4 19.48 0.54
3 2 4 19.81 0.58
-3 2 -4 19.03 0.54
4 -2 4 14.23 0.41
-4 -2 -4 13.82 0.42
4 2 4 13.99 0.44
-4 2 -4 14.31 0.4
-5 -2 -4 11.9 0.37
5 -2 4 11.25 0.39
5 2 4 11.33 0.38
-6 -2 -4 1.69 0.12
6 -2 4 1.6 0.13
6 2 4 1.5 0.12
-7 -2 -4 1.52 0.12
7 -2 4 1.37 0.13
7 2 4 1.61 0.14
8 -2 4 1.52 0.15
-8 -2 -4 1.48 0.13
8 2 4 1.73 0.15
9 -2 4 1.48 0.16
-11 -3 4 1.08 0.13
-11 3 4 1.35 0.15
-10 -3 4 0.39 0.1
-10 3 4 0.68 0.11
-9 -3 4 1.59 0.14
-9 3 4 1.34 0.13
-8 -3 4 3.02 0.16
-8 3 4 2.94 0.17
7 -3 -4 11.58 0.37
-7 -3 4 11.32 0.38
-7 3 4 11.47 0.39
-6 -3 4 10.31 0.34
6 -3 -4 10.39 0.35
6 -3 -4 10.92 0.34
6 3 -4 9.88 0.35
-6 3 4 10.76 0.35
5 -3 -4 3.89 0.17
-5 -3 4 4.65 0.14
-5 -3 4 4.24 0.17
5 -3 -4 4.19 0.16
-5 3 4 4.01 0.17
4 -3 -4 9.99 0.3
4 -3 -4 10.21 0.31
-4 -3 4 9.91 0.28
-4 3 4 10.17 0.31
4 3 -4 8.48 0.31
3 -3 -4 9.24 0.28
3 -3 -4 8.7 0.28
-3 -3 4 8.79 0.28
-3 -3 4 8.7 0.26
3 3 -4 9.58 0.29
-2 -3 4 102.57 2.88
2 -3 -4 105.91 2.81
-2 -3 4 105.35 2.8
2 -3 -4 107.28 2.8
2 3 -4 109.03 2.82
-2 3 4 106.9 2.9
1 -3 -4 51.82 1.41
1 -3 -4 52.06 1.4
-1 -3 4 51.43 1.44
-1 -3 4 53.75 1.4
-1 3 4 52.56 1.45
1 3 -4 53.43 1.41
0 -3 -4 47.67 1.27
0 -3 4 47.52 1.33
0 -3 4 48.33 1.29
0 -3 -4 47.77 1.3
0 3 -4 48.57 1.29
0 3 4 49 1.33
1 -3 4 32.63 0.89
1 -3 4 30.97 0.85
-1 -3 -4 31.3 0.83
-1 3 -4 30.36 0.84
1 3 4 32.06 0.89
2 -3 4 24.48 0.66
2 -3 4 24.29 0.7
-2 -3 -4 24.18 0.68
2 3 4 24.33 0.69
-2 3 -4 23.2 0.65
-3 -3 -4 5.67 0.21
3 -3 4 5.99 0.2
3 -3 4 6.07 0.22
3 3 4 6.02 0.21
-3 3 -4 5.81 0.18
-4 -3 -4 103.05 2.78
4 -3 4 106.05 2.75
4 3 4 102.63 2.85
5 -3 4 12.65 0.42
5 -3 4 12.64 0.39
-5 -3 -4 12.35 0.4
5 3 4 12.7 0.41
-6 -3 -4 1.16 0.11
6 -3 4 1.52 0.13
6 3 4 1.5 0.12
-7 -3 -4 0.65 0.09
7 -3 4 0.93 0.11
7 3 4 0.84 0.1
-8 -3 -4 2.64 0.16
8 -3 4 2.68 0.18
9 -3 4 2.01 0.18
-10 -4 4 0.08 0.08
-10 4 4 0.16 0.09
-9 -4 4 8.9 0.34
-9 4 4 9.41 0.35
8 -4 -4 4.47 0.21
-8 -4 4 4.81 0.21
-8 4 4 4.36 0.21
-7 -4 4 3.64 0.18
7 -4 -4 3.49 0.18
-7 4 4 3.63 0.18
6 -4 -4 11.74 0.36
6 -4 -4 11.67 0.39
-6 -4 4 11.55 0.37
-6 4 4 11.45 0.38
5 -4 -4 17.73 0.54
-5 -4 4 18.58 0.54
5 -4 -4 18.6 0.53
-5 4 4 18.32 0.55
5 4 -4 17.56 0.54
4 -4 -4 30.97 0.88
4 -4 -4 30.97 0.86
4 4 -4 31.87 0.88
3 -4 -4 9.79 0.3
3 -4 -4 10.05 0.31
-3 -4 4 9.88 0.28
-3 4 4 9.01 0.31
3 4 -4 10.11 0.31
-2 -4 4 145.62 3.84
-2 -4 4 142.23 3.94
2 -4 -4 145.24 3.83
2 -4 -4 145.05 3.85
-2 4 4 145.21 3.96
2 4 -4 150.54 3.85
-1 -4 4 15.49 0.46
1 -4 -4 16.66 0.46
1 -4 -4 15.85 0.45
-1 -4 4 16.22 0.46
1 4 -4 15.89 0.45
-1 4 4 15.96 0.47
0 -4 4 19.32 0.55
0 -4 -4 19.49 0.55
0 -4 -4 18.74 0.53
0 -4 4 20.21 0.55
0 4 4 18.84 0.56
0 4 -4 19.46 0.53
1 -4 4 25.95 0.73
1 -4 4 26.04 0.71
-1 -4 -4 25.56 0.69
-1 -4 -4 26.05 0.72
-1 4 -4 24.9 0.69
1 4 4 25.22 0.73
-2 -4 -4 44.95 1.21
2 -4 4 45.7 1.24
2 -4 4 47.05 1.29
2 4 4 45.66 1.28
-2 4 -4 45.93 1.22
-3 -4 -4 2.93 0.14
3 -4 4 3.19 0.15
3 -4 4 2.95 0.13
3 4 4 3.18 0.14
4 -4 4 33.04 0.92
4 -4 4 32.88 0.96
-4 -4 -4 32.18 0.93
4 4 4 33.95 0.95
-5 -4 -4 10.87 0.35
5 -4 4 10.49 0.34
5 -4 4 9.97 0.36
5 4 4 10.18 0.35
-6 -4 -4 1.89 0.13
6 -4 4 1.67 0.14
6 4 4 1.72 0.13
-7 -4 -4 0.26 0.08
7 -4 4 0.27 0.08
-8 -4 -4 1.09 0.12
8 -4 4 1.1 0.14
-9 -4 -4 0.34 0.1
9 -4 4 0.29 0.11
-10 -5 4 0.07 0.08
-10 5 4 0.09 0.09
-9 -5 4 1.47 0.13
-9 5 4 1.17 0.13
-8 -5 4 0.62 0.1
8 -5 -4 0.69 0.1
-8 5 4 0.56 0.1
7 -5 -4 6.15 0.25
-7 -5 4 5.86 0.24
-7 5 4 6.29 0.25
-6 -5 4 1.38 0.11
6 -5 -4 1.23 0.11
-6 5 4 1.47 0.11
5 -5 -4 7.49 0.27
-5 -5 4 7.05 0.25
5 -5 -4 7.35 0.24
-5 5 4 6.78 0.26
4 -5 -4 5.24 0.21
-4 -5 4 5.46 0.2
4 -5 -4 5.5 0.19
-4 5 4 5.65 0.21
3 -5 -4 9.25 0.31
3 -5 -4 9.31 0.3
3 5 -4 9.39 0.31
-3 5 4 10.06 0.32
-2 -5 4 12.08 0.34
-2 -5 4 11.25 0.36
2 -5 -4 12.31 0.36
2 -5 -4 12.05 0.36
2 5 -4 11.68 0.36
-2 5 4 12.33 0.37
1 -5 -4 19.78 0.56
-1 -5 4 19.06 0.55
1 -5 -4 19.33 0.55
-1 -5 4 19.41 0.56
-1 5 4 19.46 0.57
1 5 -4 19.79 0.55
0 -5 4 38.14 1.06
0 -5 -4 39.54 1.07
0 -5 -4 39.27 1.05
0 -5 4 39.37 1.09
0 5 4 39.03 1.09
0 5 -4 38.71 1.05
1 -5 4 4.23 0.16
1 -5 4 4.28 0.17
-1 -5 -4 4.33 0.14
-1 -5 -4 4.17 0.17
-1 5 -4 4.12 0.14
1 5 4 4.25 0.16
2 -5 4 4.04 0.16
2 -5 4 3.95 0.17
2 5 4 4.16 0.16
-3 -5 -4 0.58 0.07
3 -5 4 0.67 0.08
3 -5 4 0.64 0.07
3 5 4 0.75 0.07
4 -5 4 12.8 0.4
-4 -5 -4 12.88 0.41
4 -5 4 12.49 0.42
4 5 4 12.59 0.4
5 -5 4 13.5 0.45
-5 -5 -4 13.23 0.44
5 -5 4 13.56 0.43
5 5 4 13.67 0.43
6 -5 4 2.03 0.14
6 -5 4 2.21 0.14
-6 -5 -4 2.11 0.15
-7 -5 -4 0.12 0.09
7 -5 4 0.17 0.08
8 -5 4 1.39 0.15
-8 -5 -4 1.3 0.14
-9 -5 -4 1.06 0.13
-10 -6 4 0.29 0.09
9 -6 -4 0.97 0.12
-9 -6 4 0.92 0.11
-9 6 4 0.92 0.12
8 -6 -4 1.82 0.15
-8 -6 4 1.9 0.14
-8 6 4 1.88 0.14
-7 -6 4 0.55 0.09
7 -6 -4 0.58 0.09
-7 6 4 0.67 0.09
-6 -6 4 4.65 0.2
6 -6 -4 4.85 0.21
-6 6 4 4.61 0.21
5 -6 -4 2.92 0.16
-5 -6 4 3.38 0.16
-5 6 4 3.05 0.16
4 -6 -4 25.14 0.72
4 -6 -4 24.7 0.69
-4 -6 4 24.64 0.71
-4 6 4 24.12 0.73
3 -6 -4 18.2 0.52
3 -6 -4 17.98 0.5
-3 -6 4 14.71 0.5
-3 6 4 17.74 0.53
2 -6 -4 11.45 0.35
2 -6 -4 11.12 0.34
-2 6 4 11.07 0.36
-1 -6 4 15.35 0.45
1 -6 -4 16.12 0.46
1 -6 -4 16 0.47
-1 -6 4 15.56 0.47
-1 6 4 15.72 0.48
0 -6 4 17.53 0.51
0 -6 -4 17.4 0.5
0 -6 -4 17.15 0.49
0 -6 4 16.76 0.5
0 6 4 16.55 0.51
-1 -6 -4 25.85 0.74
1 -6 4 25.54 0.73
1 -6 4 25.51 0.75
-1 -6 -4 26.55 0.71
1 6 4 26.29 0.75
-2 -6 -4 22.56 0.66
2 -6 4 22.22 0.67
2 -6 4 22.9 0.66
2 6 4 23.29 0.66
3 -6 4 1.09 0.1
3 -6 4 1.24 0.11
-3 -6 -4 1.04 0.11
3 6 4 1.22 0.1
4 -6 4 6.05 0.24
4 -6 4 6.38 0.26
-4 -6 -4 6.05 0.24
5 -6 4 0.25 0.08
5 -6 4 0.14 0.07
-5 -6 -4 0.1 0.07
6 -6 4 1.54 0.14
-6 -6 -4 1.39 0.13
6 -6 4 1.44 0.12
-7 -6 -4 3.47 0.2
7 -6 4 3.69 0.21
8 -6 4 3.64 0.22
-8 -6 -4 3.55 0.21
-9 -7 4 0.67 0.1
9 -7 -4 0.73 0.12
-9 7 4 0.54 0.1
8 -7 -4 0.57 0.1
-8 -7 4 0.8 0.11
-8 7 4 0.72 0.1
-7 -7 4 0.11 0.07
7 -7 -4 0.23 0.08
-7 7 4 0.2 0.07
6 -7 -4 4.65 0.22
-6 -7 4 4.77 0.21
-6 7 4 4.96 0.22
5 -7 -4 12.51 0.42
-5 -7 4 12.67 0.4
-5 7 4 12.55 0.42
-4 -7 4 3.24 0.15
4 -7 -4 3.42 0.17
-4 7 4 3.19 0.17
3 -7 -4 3.66 0.17
-3 -7 4 3.89 0.17
3 -7 -4 4.05 0.16
-3 7 4 3.86 0.18
2 -7 -4 71 1.87
-2 -7 4 68.31 1.88
2 -7 -4 69.51 1.88
-2 7 4 69.31 1.93
1 -7 -4 121.49 3.18
1 -7 -4 118.58 3.16
-1 -7 4 119.33 3.17
-1 7 4 118.24 3.27
0 -7 -4 11.19 0.35
0 -7 4 10.51 0.35
0 -7 -4 10.7 0.34
0 -7 4 10.97 0.34
0 7 4 11.24 0.35
-1 -7 -4 6.88 0.22
1 -7 4 6.71 0.25
-1 -7 -4 6.7 0.24
1 -7 4 6.78 0.24
1 7 4 6.65 0.24
-2 -7 -4 15.08 0.47
2 -7 4 15.37 0.48
2 -7 4 14.84 0.47
2 7 4 15.38 0.46
-3 -7 -4 7.03 0.26
3 -7 4 6.9 0.27
3 -7 4 7.03 0.26
4 -7 4 1.68 0.14
4 -7 4 1.58 0.12
-4 -7 -4 1.66 0.13
-5 -7 -4 1.55 0.13
5 -7 4 1.4 0.13
5 -7 4 1.32 0.12
6 -7 4 4.71 0.24
-6 -7 -4 4.78 0.23
6 -7 4 4.5 0.21
-7 -7 -4 0.82 0.12
7 -7 4 0.72 0.12
-8 -7 -4 0.16 0.1
8 -7 4 0.11 0.09
-9 -8 4 1.04 0.12
8 -8 -4 1.02 0.13
-8 -8 4 1.19 0.12
-8 8 4 1.09 0.13
-7 -8 4 0.18 0.08
7 -8 -4 0.17 0.07
-7 8 4 0.1 0.07
6 -8 -4 0.84 0.11
-6 -8 4 0.84 0.1
-6 8 4 0.85 0.1
-5 -8 4 0.93 0.1
5 -8 -4 0.81 0.1
-5 8 4 1.01 0.1
4 -8 -4 8.1 0.3
-4 -8 4 7.73 0.28
-4 8 4 8.13 0.3
3 -8 -4 9.42 0.3
-3 -8 4 9.41 0.32
3 -8 -4 9.49 0.33
-3 8 4 9.59 0.33
-2 -8 4 4.62 0.19
2 -8 -4 4.66 0.19
2 -8 -4 4.32 0.2
-2 8 4 4.79 0.2
1 -8 -4 7.42 0.26
-1 -8 4 7.27 0.27
1 -8 -4 7.48 0.26
-1 8 4 7.2 0.26
0 -8 -4 7.43 0.26
0 -8 4 7.31 0.27
0 -8 -4 7.66 0.26
0 8 4 7.64 0.26
-1 -8 -4 11.1 0.34
1 -8 4 10.9 0.37
1 -8 4 10.81 0.35
-1 -8 -4 11.08 0.36
1 8 4 10.81 0.35
2 -8 4 2.41 0.15
2 -8 4 2.6 0.15
-2 -8 -4 2.79 0.15
3 -8 4 7.93 0.29
-3 -8 -4 8.01 0.3
3 -8 4 7.81 0.3
4 -8 4 1.02 0.11
-4 -8 -4 0.84 0.1
4 -8 4 1.07 0.11
5 -8 4 1.08 0.11
5 -8 4 0.94 0.12
-5 -8 -4 1.05 0.11
6 -8 4 5.05 0.25
6 -8 4 4.64 0.22
-6 -8 -4 4.66 0.23
7 -8 4 1.17 0.14
-7 -8 -4 0.93 0.13
8 -9 -4 0.66 0.12
-8 -9 4 0.69 0.11
-8 9 4 0.76 0.12
-7 -9 4 2.25 0.16
7 -9 -4 2.31 0.17
-7 9 4 2.23 0.17
-6 -9 4 2.3 0.15
6 -9 -4 1.91 0.16
-6 9 4 2.35 0.16
-5 -9 4 2.17 0.15
5 -9 -4 2.39 0.16
-5 9 4 2.37 0.15
-4 -9 4 3.12 0.16
4 -9 -4 2.68 0.17
-4 9 4 2.77 0.16
3 -9 -4 0.68 0.1
-3 -9 4 1 0.1
-3 9 4 0.76 0.09
2 -9 -4 6.06 0.23
-2 -9 4 5.84 0.23
2 -9 -4 5.94 0.24
-2 9 4 5.58 0.23
1 -9 -4 1 0.1
-1 -9 4 1.19 0.11
1 -9 -4 1.2 0.1
-1 9 4 1.29 0.1
0 -9 -4 13.72 0.43
0 -9 4 13.63 0.44
0 -9 -4 14.09 0.43
0 9 4 12.93 0.42
-1 -9 -4 4.46 0.2
1 -9 4 4.49 0.2
2 -9 4 0.08 0.07
-2 -9 -4 0.04 0.06
2 -9 4 0 0.06
-3 -9 -4 0.18 0.08
3 -9 4 0.22 0.08
3 -9 4 0.27 0.08
-4 -9 -4 3.94 0.2
4 -9 4 3.94 0.2
4 -9 4 3.93 0.2
5 -9 4 0.91 0.12
-5 -9 -4 0.9 0.11
5 -9 4 0.78 0.11
-6 -9 -4 0.06 0.08
6 -9 4 0.15 0.08
6 -9 4 0.03 0.09
7 -9 4 0.13 0.1
-7 -10 4 2.62 0.18
7 -10 -4 3.07 0.21
-7 10 4 3.16 0.21
-6 -10 4 0.49 0.1
6 -10 -4 0.51 0.1
-6 10 4 0.62 0.11
-5 -10 4 1.69 0.14
5 -10 -4 1.63 0.15
-5 10 4 1.6 0.14
-4 -10 4 0.08 0.07
4 -10 -4 0.07 0.08
-4 10 4 0.02 0.07
3 -10 -4 3.97 0.21
-3 -10 4 4.12 0.2
-3 10 4 4.35 0.2
2 -10 -4 1.34 0.13
-2 -10 4 1.55 0.12
-2 10 4 1.44 0.12
1 -10 -4 1.65 0.14
-1 -10 4 1.84 0.13
1 -10 -4 1.85 0.14
-1 10 4 1.68 0.14
0 -10 4 6.52 0.26
0 -10 -4 6.37 0.25
0 -10 -4 6.31 0.25
1 -10 4 4.11 0.2
-1 -10 -4 4.07 0.19
-2 -10 -4 4.41 0.21
2 -10 4 4.49 0.21
-3 -10 -4 2.5 0.15
3 -10 4 2.04 0.15
3 -10 4 2.24 0.15
-4 -10 -4 0.33 0.1
4 -10 4 0.33 0.09
4 -10 4 0.46 0.1
-5 -10 -4 1.4 0.14
5 -10 4 1.56 0.15
-6 -10 -4 0.63 0.11
6 -10 4 0.87 0.13
6 -11 -4 3.98 0.23
-6 -11 4 3.85 0.21
-6 -11 4 3.81 0.21
-6 11 4 3.79 0.23
-5 -11 4 0.85 0.11
-5 -11 4 0.88 0.1
5 -11 -4 0.91 0.13
-5 11 4 0.95 0.12
-4 -11 4 0.8 0.11
4 -11 -4 0.88 0.12
-4 11 4 0.79 0.11
3 -11 -4 1.26 0.13
-3 -11 4 1.27 0.13
-3 11 4 1.5 0.13
-2 -11 4 1.22 0.12
2 -11 -4 1.04 0.12
1 -11 -4 2.69 0.17
-1 -11 4 2.57 0.16
0 -11 4 6.48 0.27
1 -11 4 2.07 0.16
-1 -11 -4 2.16 0.16
2 -11 4 0.8 0.12
-2 -11 -4 0.97 0.11
-3 -11 -4 3.77 0.2
3 -11 4 3.84 0.21
-4 -11 -4 2.74 0.19
4 -11 4 2.75 0.19
-5 -11 -4 1.54 0.16
5 -11 4 1.41 0.15
5 -12 -4 0.81 0.13
-5 -12 4 0.52 0.11
-5 12 4 0.57 0.11
4 -12 -4 1.45 0.16
-4 -12 4 1.77 0.16
-4 12 4 1.72 0.15
-3 -12 4 1.24 0.13
3 -12 -4 0.97 0.13
2 -12 -4 2.16 0.17
-2 -12 4 1.86 0.15
-1 -12 4 0.27 0.08
1 -12 -4 0.14 0.09
0 -12 4 2.49 0.17
1 -12 4 3.03 0.19
2 -12 4 1.45 0.15
-2 -12 -4 1.45 0.14
3 -12 4 0.33 0.1
-3 -12 -4 0.13 0.09
-4 -12 -4 0.79 0.13
3 -13 -4 0.16 0.1
-2 -13 4 -0.04 0.08
2 -13 -4 -0.12 0.08
-1 -13 4 1.37 0.14
0 -13 4 0.08 0.07
-11 0 5 0.5 0.11
-10 0 5 0.18 0.09
-9 0 5 0.12 0.08
-8 0 5 2.38 0.15
8 0 -5 2.63 0.17
-7 0 5 2.34 0.13
7 0 -5 2.51 0.15
6 0 -5 2.88 0.16
-6 0 5 2.97 0.14
-5 0 5 17.07 0.5
5 0 -5 16.87 0.51
4 0 -5 71.26 1.9
-4 0 5 70.08 1.94
3 0 -5 3.34 0.13
-3 0 5 2.95 0.13
-3 0 5 3.13 0.12
-2 0 5 27.87 0.74
2 0 -5 23.94 0.73
-2 0 5 27.01 0.72
1 0 -5 1.94 0.09
-1 0 5 1.98 0.09
0 0 -5 71.68 1.92
0 0 5 70.66 1.98
0 0 5 73.88 1.9
-1 0 -5 0.45 0.05
1 0 5 0.42 0.03
2 0 5 11.05 0.3
-2 0 -5 10.7 0.33
2 0 5 10.97 0.35
-3 0 -5 0.84 0.07
3 0 5 0.88 0.09
-4 0 -5 6.56 0.22
4 0 5 6.36 0.25
5 0 5 0.58 0.09
-5 0 -5 0.51 0.06
-6 0 -5 0.45 0.07
6 0 5 0.41 0.09
7 0 5 0.02 0.07
8 0 5 1.21 0.13
9 0 5 0.24 0.1
-11 -1 5 0.08 0.09
-10 -1 5 0.26 0.09
-9 -1 5 1.46 0.13
-9 1 5 1.93 0.14
8 -1 -5 17.5 0.55
-8 -1 5 17.1 0.55
8 1 -5 18.17 0.56
-8 1 5 17.52 0.55
-7 -1 5 14.78 0.44
-7 -1 5 14.49 0.46
7 -1 -5 14.11 0.45
-7 1 5 14.2 0.45
7 1 -5 14.11 0.46
-6 -1 5 4.08 0.18
6 -1 -5 3.99 0.18
-6 -1 5 3.9 0.16
6 1 -5 3.84 0.18
-6 1 5 4 0.17
-5 -1 5 7.35 0.24
5 -1 -5 7.17 0.25
-5 1 5 7.3 0.25
5 1 -5 6.99 0.26
-4 -1 5 51.37 1.4
4 -1 -5 51.83 1.38
-4 -1 5 53.15 1.37
-4 1 5 52.12 1.4
4 1 -5 44.43 1.37
3 -1 -5 36.6 1
-3 -1 5 37.01 1.02
-3 -1 5 36.06 1
-3 1 5 36.68 1.02
-2 -1 5 17.31 0.5
-2 -1 5 17.73 0.51
2 -1 -5 17.76 0.51
-2 1 5 18.3 0.52
2 1 -5 18.31 0.51
1 -1 -5 25.4 0.73
-1 -1 5 27.12 0.75
-1 -1 5 26.47 0.72
-1 1 5 26.78 0.75
1 1 -5 26.98 0.73
0 -1 5 14.62 0.43
0 -1 -5 14.42 0.42
0 1 -5 14.58 0.42
0 1 5 15.08 0.4
1 -1 5 5.28 0.16
1 -1 5 5.06 0.18
-1 -1 -5 5 0.17
1 1 5 5.28 0.19
1 1 5 4.92 0.14
-1 1 -5 5.07 0.17
-2 -1 -5 9.46 0.3
2 -1 5 9.68 0.28
-2 1 -5 9.94 0.29
2 1 5 9.93 0.32
3 -1 5 44.62 1.21
-3 -1 -5 45.66 1.24
3 1 5 44.81 1.28
-3 1 -5 46.48 1.23
-4 -1 -5 15.62 0.47
4 -1 5 15.69 0.5
-4 1 -5 16.31 0.46
4 1 5 15.48 0.5
-5 -1 -5 1.59 0.1
5 -1 5 1.37 0.12
5 1 5 1.27 0.12
-5 1 -5 1.26 0.09
-6 -1 -5 2.84 0.14
6 -1 5 3.09 0.18
6 1 5 2.83 0.17
7 -1 5 6.34 0.27
7 1 5 6.39 0.27
8 -1 5 0.5 0.11
8 1 5 0.45 0.09
9 -1 5 4.93 0.26
9 1 5 4.65 0.25
-11 -2 5 0.57 0.11
-10 -2 5 1.99 0.16
-10 2 5 2.45 0.16
-9 -2 5 0.8 0.11
-9 2 5 0.81 0.1
8 -2 -5 3.39 0.18
-8 -2 5 3.49 0.18
-8 2 5 3.62 0.18
7 -2 -5 10.48 0.35
-7 -2 5 10.8 0.35
-7 2 5 10.03 0.35
7 2 -5 9.84 0.36
6 -2 -5 21.16 0.61
-6 -2 5 20.84 0.62
-6 -2 5 20.91 0.6
-6 2 5 20.4 0.62
6 2 -5 21.08 0.63
5 -2 -5 16.1 0.48
-5 -2 5 15.78 0.46
-5 2 5 16.03 0.48
4 -2 -5 1.8 0.11
-4 -2 5 1.72 0.09
-4 -2 5 1.9 0.11
-4 2 5 1.92 0.1
-3 -2 5 1.83 0.1
3 -2 -5 1.86 0.11
-3 -2 5 1.78 0.09
3 2 -5 1.98 0.1
-3 2 5 1.97 0.1
-2 -2 5 64.47 1.76
-2 -2 5 66.44 1.81
2 -2 -5 65.33 1.78
2 2 -5 67.83 1.78
-2 2 5 67.26 1.82
-1 -2 5 24.48 0.68
1 -2 -5 24.15 0.69
-1 -2 5 24.21 0.7
1 2 -5 25.75 0.68
0 -2 5 8.33 0.25
0 -2 5 8.64 0.26
0 -2 -5 8.54 0.26
0 2 5 7.94 0.27
0 2 -5 8.13 0.25
-1 -2 -5 14.88 0.42
1 -2 5 15.09 0.43
1 -2 5 12.34 0.4
1 2 5 14.47 0.43
-1 2 -5 14.45 0.4
2 -2 5 28.78 0.82
-2 -2 -5 27.36 0.79
-2 2 -5 29.03 0.77
2 2 5 28.08 0.81
3 -2 5 22.63 0.61
-3 -2 -5 21.73 0.63
-3 2 -5 21.75 0.61
3 2 5 22.43 0.66
-4 -2 -5 28.86 0.82
4 -2 5 29.44 0.86
4 2 5 28.63 0.85
-4 2 -5 28.82 0.79
-5 -2 -5 11.3 0.36
5 -2 5 11.42 0.39
5 2 5 11.03 0.38
6 -2 5 3.16 0.18
-6 -2 -5 3.29 0.16
6 2 5 3.39 0.18
7 -2 5 3.02 0.18
-7 -2 -5 2.56 0.15
7 2 5 2.86 0.18
8 -2 5 0.18 0.1
8 2 5 0.22 0.08
9 -2 5 3.32 0.22
-11 3 5 0.26 0.1
-10 -3 5 1.86 0.16
-10 3 5 1.98 0.16
-9 -3 5 0.5 0.1
-9 3 5 0.56 0.1
-8 -3 5 3.08 0.17
8 -3 -5 3.29 0.18
-8 3 5 3.07 0.17
7 -3 -5 1.17 0.1
-7 -3 5 0.95 0.1
-7 3 5 0.89 0.1
7 3 -5 0.99 0.11
-6 -3 5 14.12 0.45
6 -3 -5 14.36 0.44
6 3 -5 14.52 0.46
-6 3 5 14.08 0.45
-5 -3 5 0.57 0.05
5 -3 -5 0.56 0.07
-5 -3 5 0.46 0.07
5 -3 -5 0.45 0.07
-5 3 5 0.55 0.07
5 3 -5 0.66 0.08
4 -3 -5 18.55 0.56
-4 -3 5 19.91 0.55
4 -3 -5 18.9 0.56
4 3 -5 19.78 0.57
-4 3 5 19.25 0.57
3 -3 -5 5.15 0.19
-3 -3 5 4.91 0.18
-3 -3 5 5.2 0.17
3 -3 -5 5.34 0.19
3 3 -5 5.47 0.19
-3 3 5 4.94 0.18
-2 -3 5 25.9 0.73
-2 -3 5 26.13 0.74
2 -3 -5 26 0.74
2 -3 -5 26.99 0.73
2 3 -5 27.32 0.74
1 -3 -5 56.62 1.52
-1 -3 5 55.73 1.57
1 -3 -5 55 1.54
-1 -3 5 59.37 1.53
1 3 -5 57.97 1.53
-1 3 5 57.87 1.58
0 -3 5 0.48 0.05
0 -3 -5 0.51 0.04
0 -3 -5 0.42 0.06
0 -3 5 0.45 0.05
0 3 -5 0.48 0.05
0 3 5 0.54 0.06
-1 -3 -5 31.67 0.88
1 -3 5 32.21 0.9
1 -3 5 31.2 0.86
1 3 5 31.94 0.9
-1 3 -5 31.91 0.86
-2 -3 -5 61.27 1.69
2 -3 5 63.01 1.67
2 -3 5 63.34 1.75
-2 3 -5 61.73 1.67
2 3 5 64.63 1.74
-3 -3 -5 9.49 0.32
3 -3 5 10.24 0.33
3 -3 5 9.87 0.3
3 3 5 9.54 0.32
-3 3 -5 9.5 0.28
4 -3 5 8.17 0.26
-4 -3 -5 7.84 0.28
4 -3 5 7.66 0.29
4 3 5 7.92 0.29
5 -3 5 0.37 0.08
-5 -3 -5 0.42 0.08
5 3 5 0.4 0.08
-6 -3 -5 4.73 0.21
6 -3 5 5.2 0.23
6 3 5 5.27 0.23
7 -3 5 1.75 0.15
-7 -3 -5 1.69 0.13
7 3 5 1.72 0.14
8 -3 5 2.18 0.18
-8 -3 -5 2.16 0.15
-10 -4 5 1.18 0.13
-10 4 5 1.21 0.14
-9 -4 5 2.32 0.16
-9 4 5 2.25 0.17
-8 -4 5 1.75 0.14
-8 4 5 1.89 0.15
7 -4 -5 8.35 0.29
7 -4 -5 7.5 0.3
-7 -4 5 8.46 0.3
-7 4 5 8.43 0.31
-6 -4 5 21.41 0.63
6 -4 -5 21.01 0.64
6 -4 -5 22.26 0.62
-6 4 5 20.89 0.65
6 4 -5 21.05 0.64
-5 -4 5 6.32 0.23
5 -4 -5 6.4 0.24
5 -4 -5 5.84 0.22
5 4 -5 6.09 0.23
-5 4 5 5.67 0.23
4 -4 -5 2.6 0.13
4 4 -5 2.5 0.14
-3 -4 5 8.45 0.25
3 -4 -5 7.74 0.27
-3 -4 5 9.04 0.28
3 -4 -5 8.15 0.27
3 4 -5 8.29 0.28
-2 -4 5 10.69 0.33
2 -4 -5 10.77 0.33
-2 -4 5 10.74 0.32
2 -4 -5 10.74 0.33
-2 4 5 11.14 0.35
2 4 -5 11.22 0.34
-1 -4 5 20.37 0.57
1 -4 -5 19.78 0.58
-1 -4 5 19.95 0.58
1 -4 -5 20.34 0.56
1 4 -5 20.43 0.57
-1 4 5 20.23 0.59
0 -4 -5 9.65 0.29
0 -4 5 9.98 0.31
0 -4 5 9.93 0.31
0 -4 -5 9.77 0.31
0 4 -5 10.1 0.3
0 4 5 10.32 0.32
-1 -4 -5 9.57 0.28
1 -4 5 10.07 0.32
1 -4 5 10.12 0.31
-1 4 -5 10.08 0.29
1 4 5 10.1 0.32
2 -4 5 0.88 0.07
2 -4 5 0.8 0.08
-2 4 -5 0.79 0.06
2 4 5 0.77 0.08
-3 -4 -5 1.62 0.11
3 -4 5 1.69 0.1
3 -4 5 1.8 0.12
3 4 5 1.69 0.12
4 -4 5 4.87 0.21
4 -4 5 4.76 0.19
-4 -4 -5 4.74 0.2
4 4 5 5.61 0.22
5 -4 5 0.02 0.06
-5 -4 -5 -0.02 0.06
5 4 5 0.12 0.07
6 -4 5 0.7 0.1
-6 -4 -5 0.72 0.09
6 4 5 0.88 0.1
7 -4 5 1.83 0.15
-7 -4 -5 1.63 0.14
-8 -4 -5 0.14 0.09
8 -4 5 0.31 0.11
-10 -5 5 0.61 0.11
-10 5 5 0.6 0.11
-9 -5 5 4.54 0.23
-9 5 5 4.73 0.24
8 -5 -5 4.47 0.21
-8 -5 5 4.09 0.21
-8 5 5 4.07 0.21
-7 -5 5 0.19 0.07
7 -5 -5 0.32 0.08
-7 5 5 0.18 0.07
-6 -5 5 1.12 0.1
6 -5 -5 1.34 0.11
6 -5 -5 1.04 0.11
-6 5 5 1.23 0.11
5 -5 -5 0.94 0.08
5 -5 -5 0.81 0.09
-5 -5 5 0.88 0.09
5 5 -5 1.01 0.1
-5 5 5 0.99 0.09
4 -5 -5 2.88 0.14
4 -5 -5 3.1 0.16
-4 -5 5 2.97 0.14
-4 5 5 3.27 0.16
4 5 -5 3.24 0.15
-3 -5 5 51.75 1.43
3 -5 -5 53.28 1.43
3 -5 -5 50.92 1.43
3 5 -5 54.06 1.44
-3 5 5 53.57 1.48
-2 -5 5 27.1 0.76
2 -5 -5 26.6 0.76
-2 -5 5 26.63 0.76
2 -5 -5 27.68 0.77
2 5 -5 27.81 0.77
-2 5 5 27.28 0.79
1 -5 -5 0.22 0.05
1 -5 -5 0.28 0.05
-1 -5 5 0.16 0.04
-1 -5 5 0.28 0.06
1 5 -5 0.25 0.05
-1 5 5 0.13 0.05
0 -5 5 9.78 0.3
0 -5 -5 9.43 0.28
0 -5 5 9.21 0.3
0 -5 -5 9.73 0.31
0 5 5 9.25 0.3
0 5 -5 9.15 0.28
-1 -5 -5 16.85 0.5
1 -5 5 16.94 0.51
1 -5 5 16.45 0.49
-1 5 -5 16.99 0.47
1 5 5 16.89 0.51
-2 -5 -5 19.23 0.55
2 -5 5 18.5 0.54
2 -5 5 18.18 0.56
2 5 5 18.2 0.55
3 -5 5 25.66 0.72
3 -5 5 25.04 0.76
-3 -5 -5 25.19 0.74
3 5 5 25.8 0.74
-4 -5 -5 1.12 0.11
4 -5 5 1.18 0.1
4 -5 5 1.17 0.11
4 5 5 1.17 0.1
5 -5 5 1.54 0.13
-5 -5 -5 1.42 0.12
5 5 5 1.48 0.12
-6 -5 -5 1.8 0.14
6 -5 5 1.74 0.14
7 -5 5 2.46 0.18
-7 -5 -5 2.16 0.16
8 -5 5 0.44 0.11
-8 -5 -5 0.3 0.1
-10 -6 5 1.02 0.13
9 -6 -5 0.38 0.09
-9 -6 5 0.17 0.09
-9 6 5 0.28 0.09
-8 -6 5 0.3 0.08
8 -6 -5 0.54 0.1
-8 6 5 0.41 0.09
-7 -6 5 0.15 0.07
7 -6 -5 0.04 0.06
-7 6 5 0.17 0.07
-6 -6 5 7.91 0.29
6 -6 -5 7.84 0.3
-6 6 5 7.74 0.29
5 -6 -5 16.17 0.51
5 -6 -5 16.37 0.48
-5 -6 5 15.8 0.49
-5 6 5 15.66 0.51
-4 -6 5 1.59 0.1
4 -6 -5 1.56 0.12
4 -6 -5 1.56 0.12
-4 6 5 1.26 0.11
3 -6 -5 13.23 0.41
3 -6 -5 13.1 0.41
-3 -6 5 13.28 0.41
3 6 -5 13.39 0.42
-3 6 5 13.12 0.42
2 -6 -5 102 2.73
-2 -6 5 102.52 2.72
2 -6 -5 101.61 2.72
2 6 -5 102 2.73
-2 6 5 102.4 2.81
1 -6 -5 24.77 0.7
1 -6 -5 26.02 0.72
-1 -6 5 24.67 0.72
-1 -6 5 25.57 0.72
1 6 -5 25.09 0.71
-1 6 5 25.18 0.74
0 -6 -5 25.35 0.72
0 -6 -5 26.04 0.74
0 -6 5 26.43 0.74
0 -6 5 26.38 0.75
0 6 5 25.19 0.75
0 6 -5 26.2 0.72
1 -6 5 9.4 0.32
1 -6 5 9.25 0.31
-1 -6 -5 9.48 0.32
1 6 5 9.44 0.31
2 -6 5 12.82 0.42
2 -6 5 13.12 0.41
-2 -6 -5 13.56 0.42
2 6 5 13.5 0.42
-3 -6 -5 7.53 0.28
3 -6 5 7.57 0.29
3 -6 5 7.49 0.27
3 6 5 8.08 0.28
4 -6 5 2.32 0.14
-4 -6 -5 2.28 0.14
4 -6 5 2.26 0.15
4 6 5 2.45 0.14
-5 -6 -5 9.09 0.33
5 -6 5 8.6 0.33
5 -6 5 8.43 0.31
6 -6 5 0.87 0.12
-6 -6 -5 0.86 0.11
7 -6 5 0.74 0.12
-7 -6 -5 0.69 0.11
-8 -6 -5 0.16 0.09
-9 -7 5 0.37 0.1
9 -7 -5 0.25 0.09
-9 7 5 0.28 0.09
-8 -7 5 0.65 0.1
8 -7 -5 0.86 0.12
-8 7 5 0.71 0.1
-7 -7 5 0.62 0.1
7 -7 -5 0.73 0.1
-7 7 5 0.7 0.1
-6 -7 5 0.78 0.09
6 -7 -5 0.75 0.1
-6 7 5 0.9 0.1
5 -7 -5 0.3 0.08
-5 -7 5 0.23 0.06
-5 7 5 0.12 0.07
-4 -7 5 8.44 0.3
4 -7 -5 8.46 0.31
4 -7 -5 8.55 0.29
-4 7 5 8.5 0.31
3 -7 -5 6.15 0.22
-3 -7 5 5.75 0.22
3 -7 -5 5.93 0.23
-3 7 5 5.86 0.24
2 -7 -5 1.39 0.12
-2 -7 5 1.43 0.12
2 -7 -5 1.48 0.12
-2 7 5 1.57 0.13
1 -7 -5 0.55 0.08
1 -7 -5 0.38 0.07
-1 -7 5 0.42 0.08
-1 7 5 0.43 0.08
0 -7 5 11.89 0.38
0 -7 5 12.19 0.39
0 -7 -5 12.39 0.37
0 -7 -5 12.25 0.39
0 7 5 11.99 0.39
1 -7 5 4.11 0.18
-1 -7 -5 4.31 0.19
1 -7 5 4.35 0.19
1 7 5 4.35 0.18
2 -7 5 1.55 0.12
-2 -7 -5 1.65 0.13
2 -7 5 1.78 0.13
2 7 5 1.51 0.12
3 -7 5 14.08 0.45
3 -7 5 14.1 0.47
-3 -7 -5 14.42 0.46
3 7 5 14.14 0.45
4 -7 5 1.07 0.11
-4 -7 -5 0.96 0.11
4 -7 5 0.89 0.11
-5 -7 -5 0.11 0.07
5 -7 5 0.07 0.09
5 -7 5 0.15 0.07
6 -7 5 0.52 0.11
-6 -7 -5 0.54 0.1
-7 -7 -5 4.21 0.22
7 -7 5 4.36 0.24
-9 -8 5 0.01 0.08
-8 -8 5 2.07 0.16
8 -8 -5 2.48 0.18
-8 8 5 2.08 0.16
-7 -8 5 0.59 0.09
7 -8 -5 0.41 0.09
-7 8 5 0.39 0.09
6 -8 -5 0.6 0.1
-6 -8 5 0.61 0.09
-6 8 5 0.76 0.1
-5 -8 5 1.34 0.11
5 -8 -5 1.45 0.13
-5 8 5 1.28 0.12
-4 -8 5 2.72 0.14
4 -8 -5 2.59 0.16
-4 8 5 2.79 0.16
3 -8 -5 0.56 0.09
3 -8 -5 0.62 0.08
-3 -8 5 0.56 0.08
-3 8 5 0.63 0.09
-2 -8 5 0.33 0.07
2 -8 -5 0.2 0.07
2 -8 -5 0.17 0.06
-2 8 5 0.04 0.06
1 -8 -5 19.75 0.58
-1 -8 5 18.75 0.58
1 -8 -5 19.44 0.57
-1 8 5 19.79 0.59
0 -8 5 13.57 0.45
0 -8 -5 14.56 0.45
0 8 5 14.59 0.45
1 -8 5 3.72 0.18
1 -8 5 3.65 0.18
-1 -8 -5 4.06 0.19
1 8 5 3.85 0.18
2 -8 5 3.66 0.18
-2 -8 -5 3.36 0.18
2 -8 5 3.34 0.18
3 -8 5 1.43 0.12
3 -8 5 1.44 0.13
-3 -8 -5 1.73 0.13
-4 -8 -5 3.42 0.18
4 -8 5 3.07 0.17
4 -8 5 3.11 0.18
5 -8 5 1.82 0.16
5 -8 5 1.7 0.13
-5 -8 -5 1.71 0.15
6 -8 5 1.37 0.15
-6 -8 -5 1.35 0.13
7 -8 5 0.71 0.13
-8 -9 5 3.59 0.2
-7 -9 5 4.92 0.23
7 -9 -5 5.01 0.25
-7 9 5 4.77 0.24
-6 -9 5 1.18 0.12
6 -9 -5 1.16 0.13
-6 9 5 1.42 0.13
5 -9 -5 1.13 0.13
-5 -9 5 1.26 0.12
-5 9 5 1.14 0.11
-4 -9 5 2.86 0.15
4 -9 -5 3.11 0.18
-4 9 5 2.98 0.17
-3 -9 5 1.6 0.12
3 -9 -5 1.55 0.13
-3 9 5 1.75 0.13
2 -9 -5 5.68 0.24
2 -9 -5 5.85 0.23
-2 -9 5 5.88 0.23
-2 9 5 5.67 0.23
1 -9 -5 1.53 0.13
-1 -9 5 1.56 0.12
1 -9 -5 1.44 0.12
-1 9 5 1.45 0.12
0 -9 -5 1.39 0.12
0 -9 5 1.47 0.12
0 9 5 1.4 0.11
1 -9 5 6.85 0.26
-1 -9 -5 6.41 0.25
2 -9 5 7.84 0.3
-2 -9 -5 7.83 0.3
2 -9 5 7.74 0.29
3 -9 5 1.82 0.15
-3 -9 -5 1.87 0.14
3 -9 5 1.73 0.13
4 -9 5 0.98 0.11
-4 -9 -5 1.11 0.12
4 -9 5 1.02 0.13
-5 -9 -5 0.3 0.09
5 -9 5 0.4 0.1
5 -9 5 0.23 0.08
-6 -9 -5 1.15 0.13
6 -9 5 1.26 0.15
7 -10 -5 6.4 0.31
-7 -10 5 6.03 0.28
-7 10 5 6.71 0.3
6 -10 -5 1.09 0.13
-6 -10 5 0.89 0.11
-6 10 5 0.82 0.12
-5 -10 5 1.67 0.13
5 -10 -5 1.57 0.15
-5 10 5 1.62 0.14
-4 -10 5 0.58 0.1
4 -10 -5 0.66 0.11
-4 10 5 0.59 0.09
-3 -10 5 0.95 0.1
3 -10 -5 0.81 0.11
-3 10 5 0.85 0.1
-2 -10 5 1.77 0.13
2 -10 -5 1.64 0.14
-2 10 5 1.88 0.14
1 -10 -5 6.56 0.27
-1 -10 5 6.91 0.27
-1 10 5 6.92 0.27
0 -10 -5 7.96 0.3
0 -10 5 7.88 0.3
1 -10 5 0.83 0.1
-1 -10 -5 0.88 0.11
2 -10 5 0.55 0.1
-2 -10 -5 0.64 0.1
-3 -10 -5 6.3 0.27
3 -10 5 6.46 0.28
-4 -10 -5 4.51 0.23
4 -10 5 3.76 0.21
4 -10 5 4.42 0.23
5 -10 5 1.36 0.15
5 -10 5 1.38 0.15
-5 -10 -5 1.42 0.15
6 -11 -5 0.2 0.1
-6 -11 5 0.03 0.09
-6 11 5 -0.18 0.08
5 -11 -5 0.02 0.09
-5 -11 5 0.03 0.08
-5 11 5 0 0.08
4 -11 -5 0.7 0.12
-4 -11 5 0.61 0.1
-4 11 5 0.48 0.1
-3 -11 5 0.23 0.08
3 -11 -5 0.23 0.09
-3 11 5 0.3 0.08
-2 -11 5 0.99 0.11
2 -11 -5 0.67 0.11
-1 -11 5 1.03 0.12
0 -11 5 1.68 0.14
0 -11 -5 1.75 0.15
1 -11 5 2.57 0.18
-1 -11 -5 2.64 0.17
2 -11 5 1.68 0.16
-2 -11 -5 1.53 0.14
-3 -11 -5 0.46 0.11
3 -11 5 0.55 0.11
-4 -11 -5 0.13 0.1
4 -11 5 0.12 0.1
-5 12 5 1.01 0.13
4 -12 -5 1.63 0.16
-4 -12 5 2.18 0.17
-4 12 5 1.78 0.16
3 -12 -5 0.02 0.09
-3 -12 5 0.19 0.08
-2 -12 5 1.24 0.13
-1 -12 5 1.02 0.12
0 -12 5 0.25 0.09
1 -12 5 0.81 0.12
-1 -12 -5 0.76 0.11
-2 -12 -5 0.19 0.09
2 -12 5 0.12 0.09
-3 -12 -5 0.59 0.12
-10 0 6 3.07 0.2
-9 0 6 0.77 0.11
9 0 -6 0.89 0.11
8 0 -6 9.77 0.35
-8 0 6 9.39 0.35
-8 0 6 10.04 0.34
7 0 -6 4.03 0.19
-7 0 6 4.1 0.19
-7 0 6 4.03 0.18
-6 0 6 11.24 0.35
6 0 -6 10.21 0.36
-5 0 6 3.55 0.16
5 0 -6 3.04 0.17
-5 0 6 3.4 0.15
-4 0 6 95.25 2.57
4 0 -6 90.14 2.52
-4 0 6 96.3 2.51
-3 0 6 61.29 1.62
-3 0 6 59.49 1.67
-2 0 6 8.56 0.26
-2 0 6 8.55 0.28
2 0 -6 8.71 0.28
-1 0 6 47.3 1.26
-1 0 6 48.12 1.31
1 0 -6 46.06 1.28
0 0 6 14.26 0.42
0 0 6 13.89 0.39
0 0 -6 13.46 0.41
1 0 6 13.45 0.38
-1 0 -6 14.12 0.41
-3 0 -6 11.62 0.36
3 0 6 11.58 0.38
4 0 6 0.61 0.1
-4 0 -6 0.73 0.08
5 0 6 2.01 0.14
-5 0 -6 1.91 0.11
6 0 6 0.77 0.11
7 0 6 0.49 0.1
8 0 6 1.17 0.14
9 0 6 1.22 0.16
-10 -1 6 0.14 0.09
-10 1 6 -0.02 0.07
9 -1 -6 1.47 0.13
-9 -1 6 1.2 0.13
-9 1 6 1.63 0.13
-8 -1 6 5.51 0.24
8 -1 -6 5.57 0.24
-8 1 6 5.68 0.23
8 1 -6 5.07 0.23
-7 -1 6 0.97 0.1
7 -1 -6 1.02 0.1
-7 -1 6 1.07 0.09
7 1 -6 0.94 0.1
-7 1 6 0.85 0.09
-6 -1 6 13.77 0.42
6 -1 -6 14.03 0.44
-6 -1 6 13.98 0.44
-6 1 6 13.81 0.43
6 1 -6 13.63 0.45
5 -1 -6 25.27 0.71
-5 -1 6 24.23 0.71
-5 -1 6 24.79 0.7
5 1 -6 24.08 0.71
-5 1 6 24.29 0.71
-4 -1 6 28.87 0.81
4 -1 -6 28.65 0.81
-4 -1 6 28.61 0.81
-4 1 6 28.7 0.82
3 -1 -6 6.12 0.21
-3 -1 6 5.7 0.2
-3 -1 6 5.66 0.2
-3 1 6 5.91 0.21
3 1 -6 5.1 0.2
-2 -1 6 0.41 0.05
-2 -1 6 0.43 0.05
-2 1 6 0.36 0.04
-2 1 6 0.52 0.06
2 1 -6 0.62 0.06
1 -1 -6 9.96 0.3
-1 -1 6 10.2 0.29
-1 -1 6 9.48 0.3
1 1 -6 9.7 0.3
-1 1 6 9.32 0.31
0 -1 6 3.28 0.14
0 -1 -6 3.15 0.13
0 -1 6 2.89 0.12
0 1 -6 3.69 0.14
0 1 6 3.65 0.11
1 -1 6 1.71 0.08
1 -1 6 1.74 0.1
-1 -1 -6 1.9 0.1
-1 1 -6 1.96 0.1
-2 -1 -6 7.93 0.26
-2 1 -6 7.71 0.25
2 1 6 8.01 0.27
-3 -1 -6 33.66 0.94
3 -1 6 34.19 0.98
3 1 6 33.09 0.98
-3 1 -6 34.43 0.93
4 -1 6 0.84 0.1
-4 -1 -6 0.82 0.08
4 1 6 0.9 0.1
-4 1 -6 0.92 0.08
5 -1 6 7.14 0.28
-5 -1 -6 6.56 0.25
5 1 6 6.88 0.27
6 -1 6 1.54 0.14
-6 -1 -6 1.55 0.12
6 1 6 1.53 0.13
7 -1 6 1.15 0.13
7 1 6 1.14 0.13
8 -1 6 0.49 0.11
8 1 6 0.49 0.11
9 1 6 1.93 0.18
-10 -2 6 0.45 0.1
-10 2 6 0.62 0.11
-9 -2 6 4.75 0.23
9 -2 -6 4.35 0.22
-9 2 6 4.38 0.21
8 -2 -6 0.06 0.07
-8 -2 6 -0.07 0.06
-8 2 6 -0.02 0.06
8 2 -6 0.01 0.06
7 -2 -6 2.95 0.16
-7 -2 6 2.86 0.16
7 2 -6 2.8 0.16
-7 2 6 2.65 0.15
-6 -2 6 0.15 0.06
-6 -2 6 0.14 0.05
6 -2 -6 0.11 0.06
-6 2 6 0.1 0.06
6 2 -6 0.13 0.07
-5 -2 6 5.54 0.19
-5 -2 6 5.51 0.22
5 -2 -6 5.56 0.22
-5 2 6 5.63 0.21
5 2 -6 5.53 0.22
4 -2 -6 11.79 0.37
-4 -2 6 12.5 0.37
-4 -2 6 11.84 0.36
-4 2 6 12.24 0.37
4 2 -6 10.67 0.37
-3 -2 6 32.13 0.89
-3 -2 6 32.35 0.91
3 -2 -6 32.65 0.9
3 2 -6 32.02 0.9
-3 2 6 32.16 0.92
-2 -2 6 8.34 0.27
-2 -2 6 8.29 0.27
2 -2 -6 8.24 0.27
2 2 -6 8.8 0.28
-2 2 6 8.79 0.28
-1 -2 6 27.52 0.76
-1 -2 6 27.64 0.78
1 2 -6 27.43 0.77
0 -2 -6 17.39 0.5
0 -2 6 17.14 0.51
0 -2 6 17.89 0.48
0 2 -6 17.11 0.49
0 2 6 15.53 0.51
0 2 6 17.12 0.46
1 -2 6 1.94 0.09
1 -2 6 1.99 0.11
-1 -2 -6 1.72 0.11
1 2 6 1.94 0.12
-1 2 -6 1.8 0.09
-2 -2 -6 12.75 0.39
2 -2 6 12.79 0.4
2 -2 6 12.5 0.36
-2 2 -6 12.17 0.37
2 2 6 12.3 0.4
3 -2 6 12.41 0.42
-3 -2 -6 12.24 0.4
-3 2 -6 13.12 0.38
3 2 6 13.06 0.41
4 -2 6 2.47 0.16
-4 -2 -6 2.9 0.15
4 2 6 2.82 0.16
-5 -2 -6 0.34 0.07
5 -2 6 0.34 0.08
5 2 6 0.34 0.08
-6 -2 -6 1.54 0.12
6 -2 6 1.7 0.15
6 2 6 1.56 0.13
7 -2 6 4.2 0.23
-7 -2 -6 4.39 0.2
7 2 6 4.41 0.22
8 -2 6 0.03 0.1
8 2 6 0.26 0.09
-10 -3 6 2.5 0.18
-10 3 6 2.35 0.18
-9 -3 6 2.1 0.16
-9 3 6 2.28 0.16
8 -3 -6 4.22 0.2
-8 -3 6 4.29 0.21
-8 3 6 4.48 0.21
7 -3 -6 1.05 0.1
-7 -3 6 0.83 0.1
-7 3 6 0.81 0.1
7 3 -6 0.87 0.11
6 -3 -6 0.37 0.07
-6 -3 6 0.21 0.06
-6 3 6 0 0.06
6 3 -6 0.23 0.07
5 -3 -6 6.3 0.23
-5 -3 6 6.29 0.23
-5 3 6 5.83 0.23
5 3 -6 5.88 0.23
4 -3 -6 7.93 0.27
-4 -3 6 7.95 0.27
-4 -3 6 7.97 0.25
4 3 -6 7.56 0.27
-4 3 6 7.84 0.27
3 -3 -6 10.35 0.33
-3 -3 6 10.23 0.32
-3 -3 6 10.38 0.33
3 3 -6 10.91 0.34
-2 -3 6 3.65 0.14
-2 -3 6 3.74 0.15
2 -3 -6 3.85 0.16
2 3 -6 3.97 0.16
-1 -3 6 7.07 0.22
1 -3 -6 5.62 0.22
-1 -3 6 7.2 0.22
1 3 -6 7.39 0.23
-1 3 6 5.7 0.23
0 -3 6 18.77 0.53
0 -3 6 18.71 0.55
0 3 6 18.72 0.55
0 3 -6 18.1 0.53
-1 -3 -6 13.79 0.43
1 -3 6 14.64 0.41
1 -3 6 14.69 0.44
1 3 6 14.18 0.44
-1 3 -6 13.62 0.41
2 -3 6 12.6 0.41
2 -3 6 12.82 0.37
-2 -3 -6 12.4 0.39
2 3 6 12.69 0.41
-2 3 -6 12.91 0.37
-3 -3 -6 32.25 0.9
3 -3 6 31.86 0.94
3 3 6 31.81 0.93
-4 -3 -6 18.3 0.54
4 -3 6 17.83 0.57
4 3 6 17.66 0.56
5 -3 6 0.98 0.11
-5 -3 -6 0.73 0.09
5 3 6 0.8 0.1
6 -3 6 0.45 0.09
-6 -3 -6 0.42 0.09
6 3 6 0.35 0.08
7 -3 6 2.38 0.17
-7 -3 -6 2.07 0.15
7 3 6 1.9 0.16
8 -3 6 1.13 0.15
-10 -4 6 1.2 0.14
-10 4 6 1.15 0.14
-9 -4 6 3.23 0.2
-9 4 6 3.42 0.21
-8 -4 6 13.68 0.46
-8 4 6 13.52 0.46
7 -4 -6 8.27 0.3
-7 -4 6 8.31 0.31
7 4 -6 8.31 0.32
-7 4 6 8.27 0.31
6 -4 -6 4.76 0.2
-6 -4 6 4.83 0.2
-6 4 6 4.6 0.2
6 4 -6 4.6 0.21
5 -4 -6 4.99 0.21
-5 -4 6 4.97 0.2
5 -4 -6 4.97 0.2
-5 4 6 5.11 0.21
5 4 -6 5.11 0.21
-4 -4 6 6.01 0.23
4 -4 -6 5.81 0.22
4 -4 -6 6.05 0.23
-4 4 6 6.1 0.23
4 4 -6 6.04 0.23
3 -4 -6 70.98 1.92
-3 -4 6 72.22 1.96
3 -4 -6 71.41 1.93
-3 -4 6 71.3 1.92
3 4 -6 71.65 1.93
2 -4 -6 2.58 0.12
-2 -4 6 2.46 0.13
-2 -4 6 2.41 0.11
2 -4 -6 2.44 0.13
2 4 -6 2.36 0.12
-2 4 6 1.94 0.12
1 -4 -6 4.7 0.16
-1 -4 6 4.61 0.18
1 -4 -6 4.93 0.19
-1 -4 6 5.13 0.18
-1 4 6 4.82 0.19
1 4 -6 4.84 0.18
0 -4 -6 1.68 0.12
0 -4 6 2.19 0.12
0 -4 6 2.51 0.12
0 4 6 2.19 0.12
0 4 -6 2.24 0.11
1 -4 6 42.92 1.21
1 -4 6 42.67 1.16
1 4 6 43.09 1.21
-1 4 -6 41.82 1.15
2 -4 6 8.2 0.26
-2 -4 -6 7.81 0.27
2 -4 6 7.64 0.29
2 4 6 8.27 0.29
3 -4 6 7.99 0.29
3 -4 6 8.06 0.26
-3 -4 -6 7.5 0.28
3 4 6 7.61 0.28
4 -4 6 5.96 0.25
-4 -4 -6 5.71 0.23
4 4 6 5.76 0.24
-5 -4 -6 1.27 0.12
5 -4 6 1.42 0.13
5 4 6 1.35 0.12
6 -4 6 0.16 0.08
-6 -4 -6 0.16 0.08
6 4 6 0.03 0.07
7 -4 6 0.11 0.08
-7 -4 -6 0.02 0.08
8 -4 6 3.24 0.22
-8 -4 -6 2.62 0.18
-10 -5 6 1.15 0.14
-10 5 6 1.44 0.15
-9 -5 6 0.99 0.12
-9 5 6 1.05 0.13
-8 -5 6 0.16 0.08
-8 5 6 0.17 0.09
7 -5 -6 3.47 0.19
-7 -5 6 3.6 0.18
-7 5 6 3.96 0.19
6 -5 -6 0.88 0.1
6 -5 -6 1.14 0.1
-6 -5 6 0.96 0.1
6 5 -6 1.06 0.11
-6 5 6 0.8 0.09
-5 -5 6 7.17 0.26
5 -5 -6 6.44 0.25
5 -5 -6 6.82 0.25
5 5 -6 6.73 0.26
-5 5 6 6.62 0.25
-4 -5 6 5.09 0.21
4 -5 -6 5.55 0.21
4 -5 -6 4.85 0.21
-4 5 6 4.98 0.21
4 5 -6 5.29 0.21
3 -5 -6 1.77 0.12
-3 -5 6 1.75 0.12
3 -5 -6 1.64 0.12
-3 5 6 1.61 0.12
3 5 -6 1.72 0.12
-2 -5 6 45.24 1.29
2 -5 -6 45.48 1.26
-2 -5 6 48.14 1.27
2 -5 -6 47.99 1.28
2 5 -6 46.28 1.27
-2 5 6 45.73 1.31
1 -5 -6 11.59 0.35
-1 -5 6 11.91 0.36
-1 -5 6 12.26 0.37
1 -5 -6 11.68 0.37
1 5 -6 11.7 0.36
-1 5 6 11.74 0.38
0 -5 6 13.14 0.39
0 -5 -6 13.2 0.4
0 -5 6 12.4 0.4
0 5 -6 12.57 0.38
0 5 6 12.78 0.41
1 -5 6 17.06 0.53
1 -5 6 17.39 0.51
-1 -5 -6 16.92 0.53
1 5 6 18.02 0.53
2 -5 6 1.15 0.11
2 -5 6 1.3 0.1
-2 -5 -6 1.24 0.1
2 5 6 1.25 0.11
3 -5 6 3.86 0.17
3 -5 6 4.31 0.2
-3 -5 -6 3.89 0.18
3 5 6 4.04 0.18
4 -5 6 1.33 0.13
-4 -5 -6 1.42 0.12
4 5 6 1.5 0.13
5 -5 6 7.75 0.31
-5 -5 -6 7.38 0.29
5 5 6 8.01 0.3
6 -5 6 1.18 0.13
-6 -5 -6 1.12 0.12
7 -5 6 0.26 0.09
-7 -5 -6 0.24 0.09
-8 -5 -6 0.42 0.1
-9 -6 6 0.17 0.09
-9 6 6 0.06 0.08
-8 -6 6 0.7 0.1
8 -6 -6 0.69 0.11
-8 6 6 0.74 0.1
7 -6 -6 2.37 0.16
-7 -6 6 2.16 0.14
-7 6 6 2.56 0.16
-6 -6 6 0.98 0.1
6 -6 -6 0.91 0.11
-6 6 6 0.77 0.1
5 -6 -6 0.81 0.09
-5 -6 6 0.77 0.09
5 -6 -6 0.76 0.1
-5 6 6 0.77 0.09
-4 -6 6 4.42 0.19
4 -6 -6 4.26 0.19
4 -6 -6 4.7 0.2
4 6 -6 4.56 0.2
-4 6 6 4.25 0.2
3 -6 -6 5.04 0.2
-3 -6 6 5.21 0.2
3 -6 -6 4.88 0.2
-3 6 6 4.89 0.21
3 6 -6 5.29 0.21
2 -6 -6 12.39 0.38
-2 -6 6 11.48 0.37
2 -6 -6 11.97 0.37
-2 6 6 11.56 0.38
2 6 -6 11.78 0.37
1 -6 -6 4.46 0.19
1 -6 -6 4.52 0.17
-1 -6 6 4.28 0.17
-1 -6 6 4.31 0.18
-1 6 6 4.23 0.19
1 6 -6 4.34 0.17
0 -6 -6 4.18 0.18
0 -6 6 4.23 0.18
0 -6 6 4.11 0.17
0 6 6 4.28 0.19
1 -6 6 13.5 0.44
-1 -6 -6 14.06 0.44
1 -6 6 13.97 0.43
1 6 6 13.97 0.44
2 -6 6 14.48 0.45
2 -6 6 14.55 0.47
-2 -6 -6 14.46 0.47
2 6 6 15.31 0.47
3 -6 6 1.67 0.14
-3 -6 -6 1.87 0.12
3 -6 6 2.07 0.13
3 6 6 1.88 0.13
4 -6 6 0.12 0.07
4 -6 6 0.08 0.07
-4 -6 -6 0.03 0.06
4 6 6 0.2 0.07
-5 -6 -6 0.47 0.1
5 -6 6 0.62 0.11
6 -6 6 0.86 0.13
-6 -6 -6 0.82 0.11
-7 -6 -6 1.01 0.13
7 -6 6 0.97 0.14
-9 -7 6 1.08 0.13
-8 -7 6 1.24 0.13
8 -7 -6 1.39 0.14
-8 7 6 1.16 0.13
-7 -7 6 1.43 0.13
7 -7 -6 1.86 0.15
-7 7 6 1.72 0.13
-6 -7 6 2.07 0.14
6 -7 -6 2.12 0.16
-6 7 6 2.21 0.14
-5 -7 6 1.73 0.12
5 -7 -6 1.79 0.14
-5 7 6 1.91 0.13
4 -7 -6 2.76 0.16
-4 -7 6 2.8 0.15
4 -7 -6 2.54 0.15
-4 7 6 2.67 0.15
-3 -7 6 3.49 0.17
3 -7 -6 3.49 0.17
3 -7 -6 3.45 0.17
-3 7 6 3.15 0.17
2 -7 -6 17.72 0.54
-2 -7 6 17.78 0.54
2 -7 -6 18.22 0.55
2 7 -6 18.19 0.54
-2 7 6 18.31 0.56
1 -7 -6 6.66 0.24
-1 -7 6 6.56 0.25
1 -7 -6 6.71 0.25
1 7 -6 7.15 0.24
-1 7 6 6.98 0.26
0 -7 -6 6.63 0.25
0 -7 6 6.82 0.25
0 -7 6 7.03 0.24
0 7 6 6.54 0.25
1 -7 6 13.03 0.4
1 -7 6 12.29 0.4
-1 -7 -6 12.1 0.4
1 7 6 12.27 0.4
-2 -7 -6 2.03 0.14
2 -7 6 2.28 0.14
2 -7 6 2.19 0.14
2 7 6 2.25 0.15
3 -7 6 1.5 0.13
-3 -7 -6 1.47 0.12
3 -7 6 1.48 0.12
3 7 6 1.71 0.13
-4 -7 -6 0.41 0.09
4 -7 6 0.39 0.08
4 -7 6 0.3 0.09
-5 -7 -6 5.39 0.24
5 -7 6 4.99 0.25
-6 -7 -6 2.69 0.18
6 -7 6 2.58 0.18
-7 -7 -6 1.43 0.15
8 -8 -6 3.41 0.21
-8 -8 6 3.69 0.21
-8 8 6 3.82 0.21
-7 -8 6 0.63 0.1
7 -8 -6 0.71 0.11
-7 8 6 0.67 0.1
6 -8 -6 1.77 0.15
-6 -8 6 1.7 0.13
-6 8 6 1.47 0.13
-5 -8 6 0.05 0.06
5 -8 -6 0.07 0.07
-5 8 6 0.08 0.07
4 -8 -6 1.66 0.13
-4 -8 6 1.56 0.11
-4 8 6 1.25 0.12
-3 -8 6 7.99 0.3
3 -8 -6 9.04 0.31
3 -8 -6 8.76 0.31
-3 8 6 8.29 0.31
-2 -8 6 4.99 0.21
2 -8 -6 5.13 0.21
2 -8 -6 5.09 0.21
-2 8 6 4.74 0.21
-1 -8 6 5.96 0.24
1 -8 -6 5.92 0.24
-1 8 6 6.02 0.24
0 -8 6 2.86 0.16
0 -8 -6 2.67 0.16
0 8 6 2.48 0.15
1 -8 6 5.26 0.22
1 -8 6 4.99 0.21
-1 -8 -6 5.11 0.22
1 8 6 5.04 0.22
-2 -8 -6 3.86 0.19
2 -8 6 3.56 0.18
2 -8 6 3.5 0.18
2 8 6 3.42 0.18
3 -8 6 5.73 0.25
-3 -8 -6 5.24 0.23
3 -8 6 5.08 0.23
4 -8 6 -0.01 0.09
-4 -8 -6 -0.01 0.07
4 -8 6 -0.05 0.06
-5 -8 -6 0.84 0.12
5 -8 6 0.76 0.12
6 -8 6 0.22 0.11
-6 -8 -6 -0.03 0.07
7 -9 -6 1.4 0.16
-7 -9 6 1.46 0.14
-7 9 6 1.44 0.15
-6 -9 6 2.12 0.15
6 -9 -6 2.07 0.17
-6 9 6 2.16 0.16
-5 -9 6 0.65 0.09
5 -9 -6 0.58 0.11
-5 9 6 0.58 0.1
-4 -9 6 2.69 0.16
4 -9 -6 2.56 0.17
-4 9 6 2.78 0.16
-3 -9 6 1.24 0.12
3 -9 -6 1.2 0.12
-3 9 6 1.25 0.12
-2 -9 6 1.61 0.13
2 -9 -6 1.46 0.12
2 -9 -6 1.45 0.12
-2 9 6 1.51 0.13
1 -9 -6 3.06 0.17
-1 -9 6 3.1 0.17
-1 9 6 2.79 0.16
0 -9 6 6.7 0.26
0 -9 -6 6.49 0.26
0 9 6 6.23 0.25
1 -9 6 3.09 0.17
-1 -9 -6 2.98 0.17
2 -9 6 0.82 0.11
-2 -9 -6 0.84 0.11
-3 -9 -6 2.1 0.16
3 -9 6 2.12 0.16
3 -9 6 2.24 0.15
-4 -9 -6 2.08 0.17
4 -9 6 2.17 0.15
4 -9 6 2.14 0.18
5 -9 6 1.34 0.15
-5 -9 -6 1.26 0.14
6 -10 -6 0.95 0.13
-6 -10 6 0.62 0.11
-6 10 6 0.65 0.12
5 -10 -6 0.32 0.1
-5 -10 6 0.37 0.09
-5 10 6 0.37 0.1
4 -10 -6 1.28 0.13
-4 -10 6 1.18 0.12
-4 10 6 1.28 0.13
-3 -10 6 1.39 0.13
3 -10 -6 1.32 0.13
-3 10 6 1.62 0.13
-2 -10 6 1.25 0.12
-2 10 6 1.4 0.12
1 -10 -6 0.88 0.11
-1 -10 6 0.68 0.1
-1 10 6 0.91 0.1
0 -10 -6 0.82 0.11
0 -10 6 0.73 0.1
1 -10 6 1.11 0.12
-1 -10 -6 0.95 0.12
2 -10 6 0.38 0.09
-2 -10 -6 0.19 0.08
-3 -10 -6 0.66 0.11
3 -10 6 0.68 0.11
-4 -10 -6 0.23 0.1
4 -10 6 0.07 0.1
4 -10 6 0.02 0.08
5 -10 6 -0.03 0.09
5 -11 -6 0.64 0.12
-5 -11 6 0.52 0.11
-5 11 6 0.41 0.11
4 -11 -6 0.65 0.11
-4 -11 6 0.6 0.1
-4 11 6 0.68 0.11
-3 -11 6 0 0.07
-3 11 6 -0.01 0.07
-2 -11 6 0.55 0.1
-2 11 6 0.71 0.1
-1 -11 6 2.43 0.16
0 -11 6 5.61 0.26
0 -11 -6 6.36 0.26
-1 -11 -6 0.43 0.1
1 -11 6 0.74 0.12
2 -11 6 0.59 0.11
-2 -11 -6 0.57 0.11
3 -11 6 5.01 0.25
-3 -11 -6 4.75 0.25
4 -11 6 2.89 0.2
4 -12 -6 0.95 0.13
-4 12 6 0.89 0.13
-2 -12 6 0.29 0.09
-1 -12 6 0.83 0.13
0 -12 6 0.04 0.08
1 -12 6 0.14 0.09
-1 -12 -6 -0.13 0.07
-2 -12 -6 1.1 0.14
-10 0 7 0.23 0.09
9 0 -7 0.21 0.08
-9 0 7 0.13 0.07
8 0 -7 1.06 0.12
-8 0 7 1 0.11
-8 0 7 0.95 0.1
-7 0 7 -0.07 0.06
-7 0 7 0.04 0.06
7 0 -7 -0.1 0.06
6 0 -7 5.87 0.24
-6 0 7 5.88 0.24
-6 0 7 5.68 0.22
5 0 -7 40.06 1.13
-5 0 7 40.44 1.14
-5 0 7 40.56 1.13
-4 0 7 55.3 1.5
-4 0 7 54.49 1.53
4 0 -7 55.35 1.51
-3 0 7 1.13 0.1
-3 0 7 1.12 0.09
2 0 -7 25.18 0.72
-2 0 7 25.73 0.7
-2 0 7 24.44 0.73
-1 0 7 1.01 0.07
1 0 -7 1.14 0.09
-1 0 7 1.02 0.09
0 0 7 12.63 0.39
0 0 -7 11.95 0.37
-1 0 -7 1.5 0.1
1 0 7 1.22 0.09
2 0 7 1.94 0.14
-2 0 -7 2.11 0.12
-3 0 -7 37.48 1.05
3 0 7 38.08 1.1
4 0 7 -0.03 0.06
-4 0 -7 0.05 0.06
-5 0 -7 2.38 0.13
5 0 7 2.55 0.16
6 0 7 5.06 0.24
7 0 7 0.24 0.1
8 0 7 0.54 0.12
-10 -1 7 0.23 0.09
10 -1 -7 0.28 0.1
-10 1 7 0.05 0.08
-9 -1 7 1.96 0.15
9 -1 -7 2.23 0.16
9 1 -7 2.37 0.17
-9 1 7 1.88 0.15
-8 -1 7 1.29 0.12
8 -1 -7 1.39 0.13
-8 1 7 1.6 0.13
8 1 -7 1.51 0.13
7 -1 -7 2.14 0.14
-7 -1 7 1.68 0.12
-7 -1 7 1.73 0.13
7 1 -7 2.05 0.15
-7 1 7 2.04 0.14
6 -1 -7 0.25 0.07
-6 -1 7 0.19 0.06
-6 -1 7 0.29 0.07
-6 1 7 0.14 0.06
6 1 -7 0.23 0.08
5 -1 -7 2.24 0.14
-5 -1 7 2.09 0.12
-5 -1 7 1.88 0.14
-5 1 7 2.19 0.13
5 1 -7 2.22 0.15
4 -1 -7 0.74 0.09
-4 -1 7 0.88 0.08
-4 -1 7 0.77 0.08
-4 1 7 0.87 0.08
4 1 -7 0.88 0.09
-3 -1 7 26.3 0.77
-3 -1 7 26.32 0.75
-3 1 7 27.35 0.76
-3 1 7 27.18 0.78
3 1 -7 27.51 0.77
-2 -1 7 15.78 0.47
-2 -1 7 15.31 0.45
2 1 -7 15.1 0.46
-2 1 7 15.6 0.47
-2 1 7 15.13 0.44
-1 -1 7 2.44 0.13
1 -1 -7 2.4 0.13
-1 -1 7 2.64 0.11
-1 1 7 2.56 0.11
-1 1 7 2.72 0.13
1 1 -7 2.63 0.13
0 -1 7 1.37 0.1
0 -1 7 1.37 0.08
0 -1 -7 1.31 0.1
0 1 -7 1.35 0.1
1 -1 7 9.43 0.31
-1 -1 -7 9.17 0.3
-1 1 -7 9.44 0.3
2 -1 7 26.05 0.77
-2 -1 -7 24.85 0.74
2 1 7 26.47 0.77
-2 1 -7 26.73 0.74
-3 -1 -7 16.6 0.49
3 -1 7 16.24 0.52
3 1 7 16.27 0.52
-3 1 -7 16.33 0.48
-4 -1 -7 2.69 0.14
4 -1 7 2.73 0.16
4 1 7 2.31 0.15
-4 1 -7 2.66 0.13
-5 -1 -7 0.04 0.06
5 -1 7 0.09 0.07
5 1 7 0.11 0.07
6 -1 7 2.46 0.17
6 1 7 2.53 0.17
7 -1 7 2.62 0.2
7 1 7 2.81 0.19
8 -1 7 0.63 0.13
8 1 7 0.43 0.12
-10 -2 7 1.44 0.15
9 -2 -7 3.35 0.19
-9 -2 7 3.05 0.19
9 2 -7 3.28 0.2
-9 2 7 3.7 0.2
8 -2 -7 1.7 0.14
-8 -2 7 1.99 0.14
8 2 -7 2.06 0.15
-8 2 7 2.08 0.15
7 -2 -7 0.19 0.07
-7 -2 7 0.31 0.07
-7 2 7 0.19 0.07
7 2 -7 0.28 0.08
-6 -2 7 6.36 0.25
6 -2 -7 5.98 0.24
-6 2 7 6.05 0.24
6 2 -7 6.36 0.25
-5 -2 7 24.13 0.68
-5 -2 7 23.18 0.69
5 -2 -7 23.64 0.7
-5 2 7 23.12 0.7
5 2 -7 23.97 0.7
-4 -2 7 7.05 0.24
4 -2 -7 6.63 0.26
-4 -2 7 6.72 0.25
-4 2 7 7.18 0.25
4 2 -7 6.99 0.26
-3 -2 7 9.3 0.3
3 -2 -7 9.16 0.3
-3 -2 7 9.27 0.3
3 2 -7 8.97 0.3
-3 2 7 8.74 0.3
-2 -2 7 1.62 0.1
-2 -2 7 1.61 0.1
2 2 -7 1.81 0.11
-2 2 7 1.9 0.11
-1 -2 7 27.04 0.76
-1 -2 7 27.63 0.79
1 2 -7 27.64 0.77
-1 2 7 27.57 0.75
0 -2 -7 11.29 0.35
0 -2 7 11.26 0.33
0 -2 7 10.95 0.35
0 2 -7 10.35 0.34
1 -2 7 0.39 0.07
-1 -2 -7 0.28 0.06
1 -2 7 0.28 0.05
-1 2 -7 0.3 0.06
1 2 7 0.33 0.07
2 -2 7 7.83 0.29
-2 -2 -7 8.16 0.28
-2 2 -7 8.02 0.27
2 2 7 8.36 0.3
-3 -2 -7 5.17 0.21
3 -2 7 4.96 0.22
-3 2 -7 5.54 0.19
3 2 7 5 0.22
-4 -2 -7 0.24 0.07
4 -2 7 0.37 0.08
4 2 7 0.27 0.08
-5 -2 -7 0.39 0.08
5 -2 7 0.49 0.09
5 2 7 0.39 0.08
6 -2 7 1.15 0.13
-6 -2 -7 1.12 0.11
6 2 7 1.16 0.13
7 -2 7 1.32 0.15
7 2 7 1.46 0.15
8 2 7 1.39 0.15
-10 -3 7 1.02 0.13
-10 3 7 1.1 0.13
-9 -3 7 0.92 0.12
-9 3 7 1.24 0.13
8 -3 -7 0.46 0.09
-8 -3 7 0.54 0.09
-8 3 7 0.36 0.09
8 3 -7 0.55 0.1
-7 -3 7 4.25 0.2
7 -3 -7 4.09 0.19
7 3 -7 4.3 0.21
-7 3 7 3.98 0.19
-6 -3 7 1.73 0.13
6 -3 -7 1.54 0.12
-6 3 7 1.46 0.12
6 3 -7 1.64 0.13
-5 -3 7 0.08 0.07
5 -3 -7 0.12 0.06
-5 3 7 0.02 0.06
5 3 -7 0.01 0.06
4 -3 -7 3.19 0.17
-4 -3 7 3.37 0.16
-4 -3 7 3.47 0.14
-4 3 7 3.37 0.15
4 3 -7 3.45 0.17
-3 -3 7 37.77 1.05
-3 -3 7 38.23 1.06
3 -3 -7 37.99 1.06
3 3 -7 37.9 1.06
-3 3 7 37.78 1.08
2 -3 -7 11.59 0.37
-2 -3 7 11 0.35
-2 -3 7 11.64 0.36
2 3 -7 11.28 0.36
1 -3 -7 5.63 0.23
-1 -3 7 6.94 0.22
-1 -3 7 6.51 0.23
1 3 -7 6.63 0.23
-1 3 7 6.01 0.23
0 -3 7 4.58 0.19
0 -3 7 4.96 0.18
0 -3 -7 4.31 0.18
0 3 -7 4.86 0.18
0 3 7 4.88 0.2
1 -3 7 9.6 0.32
1 -3 7 9.16 0.29
-1 -3 -7 8.94 0.31
-1 3 -7 9.38 0.3
1 3 7 9.19 0.32
-2 -3 -7 7.69 0.27
2 -3 7 7.98 0.29
2 3 7 7.53 0.29
-2 3 -7 7.82 0.25
3 -3 7 3.22 0.17
-3 -3 -7 3.39 0.17
3 3 7 2.83 0.17
4 -3 7 5.83 0.25
-4 -3 -7 6.1 0.24
4 3 7 5.78 0.24
5 -3 7 0.86 0.11
-5 -3 -7 0.96 0.11
5 3 7 0.76 0.1
6 -3 7 0.19 0.09
-6 -3 -7 0.27 0.09
6 3 7 0.3 0.08
-7 -3 -7 0.19 0.09
7 -3 7 0.18 0.1
7 3 7 0.11 0.08
-10 4 7 3.46 0.22
-9 -4 7 0.56 0.11
-9 4 7 0.73 0.11
8 -4 -7 0.02 0.07
-8 -4 7 0.16 0.07
-8 4 7 0.01 0.08
7 -4 -7 10.84 0.37
-7 -4 7 10.79 0.37
-7 4 7 10.37 0.37
7 4 -7 10.42 0.38
6 -4 -7 0.75 0.09
-6 -4 7 0.74 0.09
6 4 -7 0.72 0.09
-6 4 7 0.63 0.09
-5 -4 7 3.51 0.17
5 -4 -7 3.37 0.17
5 4 -7 2.96 0.16
-5 4 7 3.19 0.16
-4 -4 7 0.44 0.07
4 -4 -7 0.52 0.08
-4 4 7 0.5 0.07
4 4 -7 0.56 0.09
-3 -4 7 8.14 0.29
3 -4 -7 8.62 0.3
-3 -4 7 8.71 0.28
3 4 -7 8.7 0.3
-3 4 7 8.59 0.3
-2 -4 7 0.8 0.07
2 -4 -7 0.93 0.09
-2 -4 7 0.88 0.09
-2 4 7 0.95 0.09
2 4 -7 0.87 0.09
1 -4 -7 0.61 0.08
-1 -4 7 0.65 0.07
-1 -4 7 0.61 0.07
1 4 -7 0.59 0.07
-1 4 7 0.5 0.08
0 -4 7 8.24 0.29
0 -4 7 8.59 0.28
0 -4 -7 8.34 0.29
0 4 7 8.36 0.3
0 4 -7 8.44 0.28
1 -4 7 26.44 0.72
-1 -4 -7 25.4 0.74
1 -4 7 25.33 0.75
1 4 7 24.98 0.75
-1 4 -7 24.95 0.71
2 -4 7 1.69 0.13
-2 -4 -7 1.73 0.12
2 -4 7 1.7 0.11
2 4 7 1.48 0.13
-3 -4 -7 0.39 0.08
3 -4 7 0.38 0.09
3 4 7 0.41 0.08
4 -4 7 2.99 0.17
-4 -4 -7 3.11 0.17
4 4 7 3.12 0.17
5 -4 7 0.86 0.11
-5 -4 -7 0.67 0.1
5 4 7 0.89 0.11
-6 -4 -7 2.26 0.16
6 -4 7 2.13 0.16
6 4 7 2.24 0.16
7 -4 7 0.53 0.12
-7 -4 -7 0.5 0.11
-9 -5 7 1.95 0.17
-9 5 7 1.65 0.15
-8 -5 7 0.9 0.12
-8 5 7 1.09 0.12
7 -5 -7 1.35 0.12
-7 -5 7 1.16 0.12
-7 5 7 1.25 0.12
7 5 -7 1.53 0.14
6 -5 -7 4.03 0.19
-6 -5 7 4.03 0.19
-6 5 7 4.24 0.2
6 5 -7 3.96 0.2
5 -5 -7 3.69 0.18
5 -5 -7 3.77 0.18
-5 -5 7 3.59 0.17
5 5 -7 3.34 0.18
-5 5 7 3.66 0.17
-4 -5 7 1.66 0.12
4 -5 -7 1.76 0.13
4 -5 -7 1.97 0.13
4 5 -7 1.77 0.13
-4 5 7 1.86 0.13
3 -5 -7 12.97 0.41
-3 -5 7 13.19 0.42
3 -5 -7 13.34 0.42
-3 5 7 13.72 0.43
3 5 -7 13.61 0.43
-2 -5 7 15.37 0.47
2 -5 -7 15.06 0.47
-2 -5 7 15.65 0.46
2 -5 -7 15.71 0.46
-2 5 7 15.57 0.49
2 5 -7 14.83 0.47
-1 -5 7 3.88 0.16
-1 -5 7 3.88 0.16
1 -5 -7 3.72 0.18
1 5 -7 3.59 0.16
-1 5 7 3.74 0.18
0 -5 7 1.33 0.11
0 -5 7 1.2 0.1
0 -5 -7 1.03 0.1
0 5 7 1.35 0.12
0 5 -7 1.11 0.09
1 -5 7 9.51 0.31
1 -5 7 8.95 0.32
-1 -5 -7 9.04 0.32
1 5 7 9.11 0.32
-2 -5 -7 8.27 0.3
2 -5 7 8.08 0.3
2 -5 7 8.36 0.28
2 5 7 8.4 0.3
-3 -5 -7 3.47 0.17
3 -5 7 3.28 0.19
3 5 7 3.02 0.17
4 -5 7 3.07 0.19
-4 -5 -7 2.88 0.17
4 5 7 3.11 0.17
-5 -5 -7 1.86 0.15
5 -5 7 2.06 0.16
5 5 7 1.92 0.14
-6 -5 -7 1.46 0.15
6 -5 7 1.67 0.16
7 -5 7 0.71 0.13
-7 -5 -7 0.71 0.12
-9 -6 7 5.86 0.28
-9 6 7 5.99 0.28
-8 -6 7 -0.04 0.07
-8 6 7 -0.03 0.08
-7 -6 7 0.16 0.08
-7 6 7 0.1 0.07
-6 -6 7 1.74 0.13
6 -6 -7 1.84 0.13
6 -6 -7 1.82 0.14
-6 6 7 1.66 0.13
-5 -6 7 1.85 0.12
5 -6 -7 1.77 0.14
5 -6 -7 1.54 0.13
-5 6 7 2.14 0.14
5 6 -7 1.71 0.14
4 -6 -7 3.87 0.18
-4 -6 7 3.5 0.17
4 -6 -7 3.79 0.18
-4 6 7 3.65 0.18
4 6 -7 3.84 0.19
-3 -6 7 3.07 0.16
3 -6 -7 2.98 0.16
3 -6 -7 3.28 0.16
3 6 -7 3.4 0.17
-3 6 7 3.33 0.17
2 -6 -7 10.95 0.34
2 -6 -7 10.66 0.36
-2 -6 7 10.53 0.35
2 6 -7 10.62 0.35
-2 6 7 10.37 0.36
-1 -6 7 4.73 0.2
1 -6 -7 5.05 0.21
-1 -6 7 4.77 0.19
-1 6 7 4.98 0.21
1 6 -7 5.11 0.19
0 -6 7 8.73 0.3
0 -6 -7 8.63 0.31
0 -6 7 8.45 0.3
0 6 7 8.95 0.31
1 -6 7 3.86 0.19
-1 -6 -7 4 0.18
1 -6 7 4.02 0.18
1 6 7 3.92 0.19
2 -6 7 0.86 0.1
2 -6 7 0.87 0.09
-2 -6 -7 0.67 0.09
2 6 7 0.63 0.09
3 -6 7 1.24 0.12
-3 -6 -7 1.12 0.11
3 6 7 1.33 0.12
4 -6 7 3.62 0.2
-4 -6 -7 3.84 0.2
4 6 7 3.68 0.19
5 -6 7 1.06 0.14
-5 -6 -7 1.07 0.13
6 -6 7 0.36 0.11
-6 -6 -7 0.27 0.1
-8 -7 7 0.76 0.12
-8 7 7 0.52 0.1
7 -7 -7 0.94 0.12
-7 -7 7 1.23 0.12
-7 7 7 1.12 0.12
-6 -7 7 0.37 0.08
6 -7 -7 0.36 0.09
-6 7 7 0.44 0.08
5 -7 -7 0.26 0.08
-5 -7 7 0.17 0.07
5 -7 -7 0.23 0.07
-5 7 7 0.18 0.07
4 -7 -7 1.12 0.1
-4 -7 7 0.95 0.1
4 -7 -7 1.14 0.11
4 7 -7 1.03 0.11
-4 7 7 0.96 0.1
3 -7 -7 6.65 0.25
-3 -7 7 6.31 0.24
3 -7 -7 6.54 0.25
-3 7 7 5.98 0.25
3 7 -7 5.95 0.24
-2 -7 7 1.3 0.11
2 -7 -7 1.37 0.11
-2 7 7 1.06 0.1
2 7 -7 1.15 0.1
-1 -7 7 5.89 0.23
1 -7 -7 6.17 0.24
-1 7 7 5.93 0.24
0 -7 7 2.46 0.14
0 -7 7 2.68 0.14
0 -7 -7 2.21 0.14
0 7 7 2.43 0.15
-1 -7 -7 2.19 0.14
1 -7 7 2.27 0.14
1 -7 7 2.26 0.14
1 7 7 1.93 0.14
2 -7 7 2.12 0.15
-2 -7 -7 2.1 0.14
2 -7 7 2.3 0.14
2 7 7 2.29 0.15
-3 -7 -7 2.36 0.15
3 -7 7 2.69 0.17
3 -7 7 2.52 0.15
3 7 7 2.64 0.15
-4 -7 -7 3.25 0.19
4 -7 7 3.38 0.2
-5 -7 -7 0.26 0.1
5 -7 7 0.07 0.1
-6 -7 -7 0.65 0.12
6 -7 7 0.64 0.13
8 -8 -7 4.42 0.25
7 -8 -7 0.09 0.09
-7 -8 7 0.13 0.08
-7 8 7 0.08 0.08
6 -8 -7 0.6 0.11
-6 -8 7 0.56 0.09
-6 8 7 0.69 0.1
5 -8 -7 3.36 0.19
-5 -8 7 3.29 0.17
-5 8 7 3.46 0.19
4 -8 -7 0.49 0.09
4 -8 -7 0.47 0.08
-4 -8 7 0.42 0.08
-4 8 7 0.58 0.09
3 -8 -7 0.7 0.09
3 -8 -7 0.69 0.09
-3 -8 7 0.69 0.09
-3 8 7 0.62 0.09
2 -8 -7 2.94 0.16
-2 -8 7 2.7 0.15
-2 8 7 2.94 0.16
-1 -8 7 2.73 0.16
1 -8 -7 2.94 0.16
-1 8 7 2.71 0.16
0 -8 -7 1.6 0.13
0 -8 7 1.66 0.13
0 8 7 1.46 0.13
1 -8 7 1.67 0.13
-1 -8 -7 1.58 0.12
1 8 7 1.52 0.13
-2 -8 -7 0.01 0.07
2 -8 7 0.21 0.08
2 -8 7 0.07 0.07
2 8 7 0.23 0.08
3 -8 7 0.64 0.1
3 -8 7 0.66 0.11
-3 -8 -7 0.64 0.11
-4 -8 -7 0.75 0.11
4 -8 7 0.83 0.12
-5 -8 -7 0.53 0.11
5 -8 7 0.63 0.12
7 -9 -7 3.03 0.21
-7 -9 7 3.04 0.19
-7 9 7 2.88 0.2
6 -9 -7 0.23 0.1
-6 -9 7 0.26 0.08
-6 9 7 0.05 0.09
5 -9 -7 0.45 0.1
-5 -9 7 0.47 0.09
-5 9 7 0.3 0.09
-4 -9 7 4.14 0.2
4 -9 -7 4.41 0.22
-4 9 7 4.13 0.21
3 -9 -7 4.74 0.21
-3 -9 7 4.49 0.22
-3 9 7 4.98 0.22
2 -9 -7 1.95 0.15
-2 -9 7 2.02 0.14
-2 9 7 2.17 0.15
-1 -9 7 5.65 0.25
1 -9 -7 6.09 0.25
-1 9 7 6.48 0.25
0 -9 -7 1.31 0.12
0 -9 7 1.19 0.12
0 9 7 1.28 0.12
-1 -9 -7 1.05 0.12
1 -9 7 0.96 0.11
-2 -9 -7 3.77 0.21
2 -9 7 3.81 0.2
3 -9 7 2.73 0.18
-3 -9 -7 2.74 0.19
3 -9 7 2.93 0.17
-4 -9 -7 0.58 0.12
4 -9 7 0.34 0.11
5 -9 7 0.21 0.1
6 -10 -7 0.73 0.13
-6 10 7 0.74 0.13
-5 -10 7 0.46 0.09
5 -10 -7 0.46 0.11
-5 10 7 0.54 0.11
-4 -10 7 0.12 0.07
4 -10 -7 0.22 0.09
-4 10 7 0.12 0.08
-3 -10 7 0.62 0.1
-3 10 7 0.78 0.1
2 -10 -7 0.43 0.09
-2 -10 7 0.34 0.09
-2 10 7 0.56 0.09
-1 -10 7 1.94 0.15
1 -10 -7 1.82 0.14
-1 10 7 1.89 0.15
0 -10 7 1.44 0.14
0 -10 -7 1.55 0.14
-1 -10 -7 2.2 0.17
1 -10 7 2.36 0.17
-2 -10 -7 1.95 0.17
2 -10 7 2.27 0.17
3 -10 7 4.93 0.25
-3 -10 -7 5.11 0.26
5 -11 -7 0.3 0.11
-4 -11 7 0.04 0.07
-4 11 7 0.03 0.08
-3 -11 7 1.04 0.13
-3 11 7 1.23 0.13
-2 -11 7 0.97 0.13
-2 11 7 1.02 0.11
-1 -11 7 0.69 0.11
1 -11 -7 1 0.12
0 -11 7 0.08 0.09
0 -11 -7 -0.02 0.08
1 -11 7 0.32 0.1
-1 -11 -7 0.23 0.1
2 -11 7 1.56 0.16
-2 -11 -7 1.78 0.17
3 -11 7 0.21 0.1
10 0 -8 0.11 0.09
-9 0 8 -0.06 0.06
9 0 -8 -0.01 0.08
-8 0 8 0 0.06
8 0 -8 0.12 0.07
7 0 -8 9.76 0.35
-7 0 8 9.62 0.33
-7 0 8 9.04 0.34
-6 0 8 2.91 0.16
6 0 -8 2.86 0.16
-6 0 8 3.44 0.16
-5 0 8 2.59 0.14
-5 0 8 2.27 0.14
5 0 -8 2.6 0.16
4 0 -8 3.36 0.16
-4 0 8 3.49 0.16
-4 0 8 3.2 0.16
-3 0 8 24.32 0.72
3 0 -8 24.69 0.71
-3 0 8 24.28 0.69
2 0 -8 39.41 1.09
-2 0 8 38.97 1.06
-2 0 8 38.16 1.11
1 0 -8 1.96 0.13
-1 0 8 1.69 0.12
-1 0 8 1.83 0.1
0 0 8 4.81 0.2
0 0 -8 4.75 0.19
1 0 8 0.1 0.06
-1 0 -8 -0.01 0.06
2 0 8 18.71 0.59
-2 0 -8 18.75 0.56
3 0 8 1.19 0.12
-3 0 -8 1.37 0.11
4 0 8 0.21 0.07
-4 0 -8 0.17 0.07
5 0 8 0.09 0.08
6 0 8 0 0.09
7 0 8 0.09 0.11
10 -1 -8 0.19 0.1
10 1 -8 0.11 0.1
-9 -1 8 0.63 0.1
9 -1 -8 0.57 0.1
-9 1 8 0.46 0.1
9 1 -8 0.68 0.12
8 -1 -8 0.18 0.07
-8 -1 8 0.18 0.07
8 1 -8 0.1 0.07
-8 1 8 0.04 0.07
-8 1 8 0.17 0.07
7 -1 -8 1.31 0.12
-7 -1 8 1.05 0.11
7 1 -8 1.05 0.11
-7 1 8 1.29 0.12
-7 1 8 0.96 0.1
6 -1 -8 1.01 0.11
-6 -1 8 0.82 0.1
-6 -1 8 1.18 0.1
6 1 -8 1.1 0.11
-6 1 8 0.84 0.09
-6 1 8 1.05 0.1
-5 -1 8 11.74 0.39
5 -1 -8 11.38 0.39
-5 -1 8 12.34 0.38
-5 1 8 11.92 0.39
-5 1 8 11.61 0.39
5 1 -8 11.9 0.4
-4 -1 8 12.58 0.4
-4 -1 8 13.22 0.4
4 -1 -8 12.03 0.41
4 1 -8 13.03 0.41
-4 1 8 12.5 0.4
-4 1 8 12.52 0.4
3 -1 -8 0.64 0.08
-3 -1 8 0.77 0.09
-3 -1 8 0.81 0.08
-3 1 8 0.84 0.09
-3 1 8 0.75 0.08
3 1 -8 0.77 0.09
2 -1 -8 8.53 0.3
-2 -1 8 8.27 0.3
-2 -1 8 8.73 0.28
-2 1 8 8.88 0.28
2 1 -8 8.99 0.3
-2 1 8 9.11 0.3
-1 -1 8 2.6 0.15
1 -1 -8 2.51 0.13
-1 -1 8 2.83 0.13
-1 1 8 2.69 0.15
1 1 -8 2.92 0.15
0 -1 -8 18.52 0.55
0 -1 8 18.44 0.56
0 1 8 18.1 0.56
0 1 -8 18.18 0.54
1 -1 8 17.59 0.54
-1 -1 -8 17.62 0.53
1 1 8 16.87 0.54
-1 1 -8 17.36 0.52
2 -1 8 11.94 0.41
-2 -1 -8 12.23 0.39
-2 1 -8 12.47 0.39
2 1 8 12.41 0.42
3 -1 8 1.99 0.15
-3 -1 -8 2.09 0.13
-3 1 -8 2.12 0.13
3 1 8 2.37 0.15
-4 -1 -8 0.79 0.1
4 -1 8 1.04 0.12
4 1 8 1.04 0.11
-5 -1 -8 2.18 0.14
5 -1 8 2.27 0.16
5 1 8 2.41 0.16
6 -1 8 4.89 0.25
6 1 8 5.05 0.25
7 -1 8 1.33 0.16
7 1 8 1.29 0.16
-9 -2 8 0.34 0.09
9 -2 -8 0.42 0.1
9 2 -8 0.27 0.1
-9 2 8 0.48 0.1
-8 -2 8 2.36 0.15
8 -2 -8 2.32 0.15
-8 2 8 2.22 0.15
8 2 -8 2.37 0.16
-7 -2 8 -0.03 0.05
7 -2 -8 0.01 0.06
7 2 -8 -0.03 0.06
-7 2 8 0.05 0.07
-6 -2 8 1.14 0.11
6 -2 -8 1.33 0.12
6 2 -8 1.37 0.12
-6 2 8 1.32 0.12
-5 -2 8 1.69 0.11
-5 -2 8 1.45 0.12
5 -2 -8 1.53 0.12
-5 2 8 1.65 0.12
5 2 -8 1.58 0.12
4 -2 -8 4.46 0.21
-4 -2 8 4.76 0.2
-4 -2 8 4.66 0.19
-4 2 8 4.87 0.2
4 2 -8 4.59 0.2
-3 -2 8 0.3 0.07
-3 -2 8 0.23 0.07
3 -2 -8 0.37 0.07
-3 2 8 0.25 0.06
-3 2 8 0.26 0.07
3 2 -8 0.35 0.07
2 -2 -8 2.41 0.13
-2 -2 8 2.45 0.13
-2 -2 8 2.38 0.13
-2 2 8 2.19 0.13
2 2 -8 2.39 0.14
-2 2 8 2.2 0.12
-1 -2 8 5.79 0.21
1 -2 -8 5.62 0.22
-1 -2 8 5.76 0.22
-1 2 8 5.93 0.23
1 2 -8 5.76 0.22
0 -2 -8 1.25 0.1
0 -2 8 0.97 0.1
0 -2 8 1.02 0.09
0 2 -8 0.96 0.09
0 2 8 1.08 0.1
-1 -2 -8 0.11 0.06
1 -2 8 0.07 0.07
-1 2 -8 0.2 0.06
1 2 8 0.11 0.07
-2 -2 -8 5.53 0.22
2 -2 8 5.44 0.23
2 2 8 5.62 0.23
-2 2 -8 5.25 0.2
-3 -2 -8 1.7 0.13
3 -2 8 1.64 0.13
3 2 8 1.54 0.12
4 -2 8 0.31 0.08
-4 -2 -8 0.13 0.07
4 2 8 0.2 0.07
5 -2 8 0.31 0.09
-5 -2 -8 0.22 0.08
5 2 8 0.29 0.08
-6 -2 -8 0.45 0.1
6 -2 8 0.39 0.11
6 2 8 0.47 0.1
7 -2 8 0.65 0.13
7 2 8 0.55 0.12
-10 3 8 2.52 0.19
9 -3 -8 3.82 0.21
-9 -3 8 3.83 0.21
9 3 -8 4.02 0.24
-9 3 8 3.8 0.21
-8 -3 8 1.09 0.12
8 -3 -8 1.03 0.11
8 3 -8 1.27 0.13
-8 3 8 1.03 0.12
7 -3 -8 0.12 0.07
-7 -3 8 0.2 0.07
7 3 -8 0.16 0.08
-7 3 8 0.09 0.07
-6 -3 8 2.8 0.16
6 -3 -8 2.91 0.16
6 3 -8 3.06 0.17
-6 3 8 3.03 0.16
5 -3 -8 0.45 0.08
-5 -3 8 0.36 0.08
-5 3 8 0.51 0.08
5 3 -8 0.47 0.09
-4 -3 8 15.03 0.48
4 -3 -8 15.32 0.5
-4 -3 8 16.78 0.48
4 3 -8 16.28 0.5
-4 3 8 16.25 0.5
-3 -3 8 22.87 0.67
-3 -3 8 22.28 0.66
3 -3 -8 22.41 0.67
3 3 -8 23.06 0.67
-3 3 8 23.05 0.68
-2 -3 8 2.52 0.13
-2 -3 8 2.74 0.13
2 -3 -8 2.82 0.15
2 3 -8 2.47 0.14
-2 3 8 2.46 0.14
-1 -3 8 6.37 0.22
1 -3 -8 6.06 0.23
-1 -3 8 6.31 0.23
-1 3 8 5.92 0.23
1 3 -8 5.98 0.23
0 -3 -8 16.33 0.51
0 -3 8 17.2 0.49
0 -3 8 16.92 0.52
0 3 -8 16.62 0.5
0 3 8 16.94 0.53
1 -3 8 8.88 0.32
-1 -3 -8 9.24 0.31
-1 3 -8 8.86 0.3
1 3 8 8.84 0.32
-2 -3 -8 1.02 0.1
2 -3 8 1.33 0.12
2 3 8 1.16 0.11
3 -3 8 0.32 0.08
-3 -3 -8 0.42 0.08
3 3 8 0.48 0.09
-4 -3 -8 1.97 0.14
4 -3 8 1.59 0.14
4 3 8 1.81 0.14
-5 -3 -8 1.13 0.12
5 -3 8 1.34 0.14
5 3 8 1.16 0.13
6 -3 8 1.26 0.14
-6 -3 -8 1.13 0.12
6 3 8 1.21 0.13
7 3 8 0.06 0.09
-9 -4 8 4.96 0.24
-9 4 8 5.13 0.25
8 -4 -8 2.12 0.15
-8 -4 8 2.66 0.17
8 4 -8 2.67 0.18
-8 4 8 2.38 0.17
7 -4 -8 0.86 0.1
-7 -4 8 0.83 0.1
-7 4 8 0.62 0.11
7 4 -8 0.67 0.11
6 -4 -8 1.13 0.11
-6 -4 8 1.59 0.12
6 4 -8 1.16 0.12
-6 4 8 1.26 0.12
-5 -4 8 1.94 0.12
5 -4 -8 1.61 0.12
-5 4 8 2 0.13
5 4 -8 1.72 0.13
-4 -4 8 1.59 0.12
4 -4 -8 1.8 0.13
-4 4 8 1.82 0.12
4 4 -8 1.63 0.13
3 -4 -8 13.14 0.41
-3 -4 8 12.36 0.39
-3 -4 8 12.24 0.4
-3 4 8 12.75 0.41
3 4 -8 12.16 0.41
-2 -4 8 10.82 0.35
2 -4 -8 11.06 0.36
-2 -4 8 10.81 0.35
-2 4 8 10.61 0.36
2 4 -8 9.98 0.35
-1 -4 8 2.78 0.14
1 -4 -8 2.63 0.15
-1 -4 8 2.93 0.15
1 4 -8 2.53 0.14
-1 4 8 2.72 0.16
0 -4 8 0.45 0.08
0 -4 -8 0.44 0.07
0 -4 8 0.49 0.07
0 4 8 0.58 0.08
0 4 -8 0.32 0.07
1 -4 8 1.34 0.12
-1 -4 -8 1.27 0.11
1 4 8 1.28 0.12
2 -4 8 10.87 0.38
-2 -4 -8 10.55 0.36
2 4 8 10.43 0.37
3 -4 8 3.73 0.2
-3 -4 -8 3.7 0.19
3 4 8 3.43 0.18
4 -4 8 2.2 0.17
-4 -4 -8 2.17 0.16
4 4 8 2.37 0.15
-5 -4 -8 -0.02 0.07
5 -4 8 0.13 0.09
5 4 8 0.09 0.07
6 -4 8 0.9 0.13
-6 -4 -8 0.7 0.11
6 4 8 0.76 0.12
-7 -4 -8 1.75 0.16
-9 -5 8 2.24 0.17
-9 5 8 2.13 0.18
-8 -5 8 1.92 0.15
-8 5 8 1.77 0.16
-7 -5 8 0.59 0.1
7 -5 -8 0.52 0.09
7 5 -8 0.61 0.11
-7 5 8 0.72 0.11
6 -5 -8 0.97 0.11
-6 -5 8 0.98 0.1
-6 5 8 1.04 0.11
6 5 -8 1.03 0.12
-5 -5 8 2.45 0.15
5 -5 -8 2.84 0.16
-5 5 8 2.4 0.15
5 5 -8 2.62 0.17
-4 -5 8 7.83 0.28
4 -5 -8 7.62 0.28
-4 5 8 7.57 0.29
4 5 -8 7.83 0.29
-3 -5 8 3.57 0.17
3 -5 -8 3.89 0.18
-3 5 8 3.86 0.18
3 5 -8 3.94 0.18
-2 -5 8 0.09 0.06
2 -5 -8 0.1 0.07
-2 -5 8 0.12 0.06
2 5 -8 0.06 0.06
-2 5 8 0.03 0.06
1 -5 -8 2.14 0.14
-1 -5 8 2.22 0.13
-1 -5 8 2.32 0.14
-1 5 8 2.18 0.13
1 5 -8 2.12 0.13
0 -5 -8 3.92 0.19
0 -5 8 4.44 0.18
0 -5 8 4.32 0.19
0 5 8 4.41 0.2
1 -5 8 8.4 0.29
1 -5 8 8.35 0.31
-1 -5 -8 8.64 0.31
1 5 8 9.17 0.32
2 -5 8 3.39 0.19
-2 -5 -8 3.45 0.17
2 5 8 3.43 0.18
3 -5 8 1.45 0.14
-3 -5 -8 1.15 0.12
3 5 8 1.55 0.13
4 -5 8 2.5 0.18
-4 -5 -8 2.22 0.16
4 5 8 2.2 0.15
-5 -5 -8 0.62 0.11
5 -5 8 0.48 0.11
5 5 8 0.77 0.11
-6 -5 -8 0.28 0.1
6 -5 8 0.42 0.11
-8 -6 8 1.16 0.13
-8 6 8 1.08 0.14
-7 -6 8 1.18 0.13
-7 6 8 0.99 0.12
-6 -6 8 0.98 0.11
6 -6 -8 1.32 0.12
6 6 -8 0.95 0.13
-6 6 8 1.45 0.13
5 -6 -8 0.46 0.08
-5 -6 8 0.35 0.08
5 6 -8 0.34 0.09
-5 6 8 0.29 0.07
4 -6 -8 0.57 0.09
4 -6 -8 0.57 0.09
-4 -6 8 0.49 0.08
4 6 -8 0.61 0.1
-4 6 8 0.68 0.09
3 -6 -8 0.77 0.09
3 -6 -8 0.7 0.09
-3 -6 8 0.66 0.09
3 6 -8 0.66 0.09
-3 6 8 0.56 0.09
-2 -6 8 0.53 0.08
2 -6 -8 0.62 0.09
-2 6 8 0.56 0.08
2 6 -8 0.53 0.08
-1 -6 8 0.45 0.08
1 -6 -8 0.23 0.07
-1 6 8 0.29 0.07
0 -6 -8 4.61 0.2
0 -6 8 4.68 0.2
0 -6 8 4.78 0.2
0 6 8 4.24 0.2
1 -6 8 0.2 0.07
-1 -6 -8 0.1 0.07
1 -6 8 0.21 0.08
1 6 8 0.17 0.07
-2 -6 -8 1.67 0.13
2 -6 8 1.77 0.14
2 6 8 1.7 0.13
3 -6 8 0.6 0.11
-3 -6 -8 0.34 0.08
3 6 8 0.62 0.09
4 -6 8 0.8 0.13
-4 -6 -8 0.7 0.12
4 6 8 0.79 0.11
-5 -6 -8 1.18 0.14
5 -6 8 1.25 0.15
-6 -6 -8 -0.09 0.09
-8 -7 8 2.56 0.18
-8 7 8 2.35 0.18
-7 -7 8 0 0.07
-7 7 8 0 0.07
-6 -7 8 0.75 0.1
6 -7 -8 0.96 0.12
-6 7 8 0.98 0.11
-5 -7 8 5.29 0.23
5 -7 -8 5.27 0.23
5 -7 -8 4.96 0.22
-5 7 8 5.3 0.23
5 7 -8 4.66 0.23
4 -7 -8 2.77 0.17
4 -7 -8 2.75 0.16
-4 -7 8 2.88 0.16
4 7 -8 2.95 0.17
-4 7 8 3.01 0.17
3 -7 -8 0.81 0.1
-3 -7 8 0.74 0.09
3 7 -8 0.82 0.1
-3 7 8 1.01 0.11
2 -7 -8 2.01 0.13
-2 -7 8 2.18 0.14
-2 7 8 2.11 0.14
2 7 -8 2.32 0.14
-1 -7 8 0.11 0.06
1 -7 -8 0.14 0.06
-1 7 8 0.27 0.07
0 -7 8 0.39 0.07
0 -7 -8 0.19 0.07
0 7 8 0.17 0.07
1 -7 8 0.5 0.09
1 -7 8 0.63 0.09
-1 -7 -8 0.56 0.09
1 7 8 0.48 0.08
2 -7 8 0.96 0.12
-2 -7 -8 0.98 0.11
2 7 8 1.11 0.11
-3 -7 -8 0.43 0.1
3 -7 8 0.26 0.09
3 7 8 0.43 0.09
-4 -7 -8 1.34 0.14
4 -7 8 1.27 0.14
5 -7 8 1.76 0.17
-5 -7 -8 1.72 0.16
7 -8 -8 3.24 0.21
-7 -8 8 3.49 0.2
-7 8 8 3.19 0.2
6 -8 -8 0.94 0.12
-6 -8 8 0.85 0.11
-6 8 8 0.75 0.11
5 -8 -8 0.4 0.1
-5 -8 8 0.45 0.09
-5 8 8 0.36 0.09
4 -8 -8 4.91 0.22
-4 -8 8 4.53 0.22
-4 8 8 5.07 0.23
-3 -8 8 6.07 0.25
3 -8 -8 6.15 0.25
-3 8 8 6.13 0.26
2 -8 -8 5.26 0.23
-2 -8 8 5.17 0.23
-2 8 8 5.49 0.24
1 -8 -8 0.14 0.07
-1 -8 8 0.25 0.07
-1 8 8 0.06 0.07
0 -8 8 0.27 0.07
0 -8 -8 0.15 0.08
0 8 8 0.26 0.08
1 -8 8 0.78 0.1
-1 -8 -8 0.56 0.1
1 8 8 0.73 0.1
2 -8 8 3.93 0.2
-2 -8 -8 3.96 0.2
2 -8 8 4.19 0.21
2 8 8 3.82 0.2
-3 -8 -8 0.45 0.1
3 -8 8 0.38 0.1
4 -8 8 0.84 0.13
-4 -8 -8 0.93 0.13
5 -8 8 0.03 0.1
6 -9 -8 0.04 0.09
-6 -9 8 0.04 0.08
-6 9 8 -0.01 0.08
-5 -9 8 1.6 0.14
5 -9 -8 1.83 0.16
-5 9 8 2.01 0.16
-4 -9 8 0.8 0.11
-4 9 8 0.72 0.11
3 -9 -8 1.63 0.14
-3 -9 8 1.7 0.14
-3 9 8 1.68 0.15
2 -9 -8 1.64 0.14
-2 -9 8 1.46 0.12
-2 9 8 1.88 0.14
1 -9 -8 0.43 0.09
-1 -9 8 0.56 0.09
-1 9 8 0.51 0.09
0 -9 8 2.29 0.15
0 -9 -8 2.04 0.15
0 9 8 2.22 0.15
1 -9 8 1.04 0.12
-1 -9 -8 0.93 0.13
1 9 8 0.73 0.11
-2 -9 -8 0.62 0.12
2 -9 8 0.66 0.1
-3 -9 -8 0.85 0.13
4 -9 8 0.61 0.12
6 -10 -8 0.58 0.12
-5 10 8 0.2 0.1
-4 -10 8 0.56 0.1
-4 10 8 0.34 0.1
-3 -10 8 0.92 0.12
-3 10 8 0.93 0.12
2 -10 -8 0.74 0.11
-2 -10 8 0.74 0.11
-2 10 8 0.9 0.11
-1 -10 8 1.29 0.14
1 -10 -8 1.07 0.13
-1 10 8 1.14 0.12
0 -10 8 1.03 0.13
0 -10 -8 0.86 0.12
-1 -10 -8 0.16 0.1
1 -10 8 0.06 0.08
-2 -10 -8 1.08 0.14
2 -10 8 1.26 0.14
-3 11 8 0.8 0.12
-2 -11 8 0.09 0.09
-2 11 8 0.12 0.09
1 -11 -8 1.09 0.13
-1 -11 8 1.04 0.13
0 -11 8 0.5 0.11
0 -11 -8 0.29 0.1
1 -11 8 0.68 0.12
9 0 -9 1.04 0.13
-9 0 9 0.95 0.13
8 0 -9 0.59 0.1
-8 0 9 0.32 0.09
-7 0 9 0.21 0.07
7 0 -9 0.33 0.08
-7 0 9 0.3 0.07
6 0 -9 3.42 0.18
-6 0 9 3.43 0.17
-6 0 9 3.57 0.17
5 0 -9 3 0.17
-5 0 9 3.23 0.16
-5 0 9 3.36 0.16
4 0 -9 0.09 0.06
-4 0 9 0.03 0.06
-4 0 9 -0.01 0.06
3 0 -9 -0.04 0.06
-3 0 9 0.04 0.06
-3 0 9 0.05 0.06
-2 0 9 9.91 0.35
-2 0 9 10.79 0.33
2 0 -9 10.22 0.35
-1 0 9 3.85 0.19
1 0 -9 3.8 0.19
0 0 9 0.52 0.09
0 0 -9 0.76 0.09
-1 0 -9 -0.1 0.06
1 0 9 -0.11 0.06
2 0 9 10.57 0.38
-2 0 -9 11.09 0.36
-3 0 -9 0.38 0.08
3 0 9 0.42 0.09
4 0 9 0.15 0.08
5 0 9 1.38 0.15
6 0 9 4 0.24
-9 -1 9 0.08 0.09
9 -1 -9 0.09 0.09
9 1 -9 0.02 0.09
-9 1 9 0.09 0.09
8 -1 -9 -0.02 0.07
-8 -1 9 0.04 0.07
-8 1 9 -0.04 0.07
8 1 -9 0.08 0.08
-8 1 9 -0.06 0.07
-7 -1 9 0.98 0.11
7 -1 -9 1.11 0.12
-7 1 9 1.04 0.11
-7 1 9 1.42 0.13
7 1 -9 1.25 0.13
6 -1 -9 1.59 0.13
-6 -1 9 1.45 0.12
-6 -1 9 1.41 0.11
-6 1 9 1.46 0.12
6 1 -9 1.68 0.13
-6 1 9 1.46 0.11
-5 -1 9 2.17 0.13
-5 -1 9 2.21 0.14
5 -1 -9 2.02 0.14
5 1 -9 2.17 0.14
-5 1 9 2.11 0.14
-5 1 9 2 0.14
-4 -1 9 8.23 0.29
-4 -1 9 9 0.3
4 -1 -9 8.27 0.31
-4 1 9 8.28 0.29
4 1 -9 8.38 0.31
-4 1 9 8.15 0.3
-3 -1 9 1.15 0.1
-3 -1 9 1.27 0.11
3 -1 -9 1.24 0.11
3 1 -9 1.18 0.11
-3 1 9 1.27 0.11
-3 1 9 1.15 0.11
-2 -1 9 9.38 0.33
2 -1 -9 9.81 0.34
-2 -1 9 9.84 0.31
2 1 -9 9.77 0.34
-2 1 9 9.91 0.34
-1 -1 9 15.44 0.48
1 -1 -9 14.92 0.47
1 1 -9 15.47 0.48
-1 1 9 14.76 0.48
0 -1 -9 3.25 0.17
0 -1 9 3.27 0.17
0 1 9 3.21 0.16
0 1 -9 3.24 0.17
1 -1 9 1.87 0.14
-1 -1 -9 1.61 0.13
1 1 9 1.67 0.13
-1 1 -9 1.82 0.13
2 -1 9 0.63 0.09
-2 -1 -9 0.69 0.09
2 1 9 0.75 0.1
-2 1 -9 0.82 0.09
3 -1 9 1.4 0.12
-3 -1 -9 1.58 0.12
-3 1 -9 1.5 0.12
3 1 9 1.49 0.13
4 -1 9 2.2 0.16
-4 -1 -9 1.98 0.14
4 1 9 2.44 0.16
5 -1 9 0.67 0.12
5 1 9 0.49 0.11
6 -1 9 0.24 0.12
6 1 9 0.4 0.12
-9 -2 9 0.74 0.11
9 -2 -9 0.76 0.12
-9 2 9 0.53 0.11
-9 2 9 0.72 0.11
9 2 -9 0.7 0.13
8 -2 -9 1.71 0.15
-8 -2 9 1.79 0.14
-8 2 9 1.75 0.14
8 2 -9 1.57 0.15
-8 2 9 1.79 0.15
7 -2 -9 0.64 0.1
-7 -2 9 0.69 0.1
7 2 -9 0.67 0.1
-7 2 9 0.58 0.09
-7 2 9 0.56 0.09
6 -2 -9 2.29 0.15
-6 -2 9 2.36 0.14
6 2 -9 2.48 0.16
-6 2 9 2.52 0.15
-6 2 9 2.36 0.14
5 -2 -9 3.61 0.18
-5 -2 9 3.81 0.18
-5 -2 9 3.97 0.18
-5 2 9 3.74 0.18
-5 2 9 3.94 0.18
5 2 -9 3.76 0.19
-4 -2 9 16.86 0.5
-4 -2 9 15.94 0.49
4 -2 -9 16.51 0.52
-4 2 9 15.66 0.49
-4 2 9 15.63 0.51
4 2 -9 15.98 0.51
-3 -2 9 3.08 0.15
-3 -2 9 2.99 0.15
3 -2 -9 2.88 0.16
3 2 -9 3.23 0.17
-3 2 9 2.81 0.14
-3 2 9 2.42 0.15
-2 -2 9 1.76 0.13
2 -2 -9 1.99 0.13
-2 -2 9 1.98 0.12
-2 2 9 2.16 0.14
2 2 -9 1.84 0.14
1 -2 -9 2.34 0.15
-1 -2 9 2.3 0.14
-1 2 9 2.43 0.15
1 2 -9 2.24 0.15
0 -2 -9 3.92 0.18
0 -2 9 3.9 0.19
0 2 -9 3.85 0.19
0 2 9 3.64 0.19
1 -2 9 10.12 0.36
-1 -2 -9 10.47 0.36
-1 2 -9 10.72 0.35
1 2 9 10.49 0.37
2 -2 9 0.81 0.11
-2 -2 -9 0.95 0.1
-2 2 -9 0.97 0.09
2 2 9 0.82 0.1
-3 -2 -9 0.19 0.08
3 -2 9 0.15 0.08
3 2 9 0.27 0.08
4 -2 9 0.66 0.11
-4 -2 -9 0.82 0.11
4 2 9 0.89 0.11
-5 -2 -9 2.27 0.16
5 -2 9 2.41 0.18
5 2 9 2.64 0.18
6 -2 9 0.26 0.11
6 2 9 0.08 0.1
-9 -3 9 0.48 0.11
9 -3 -9 0.61 0.11
9 3 -9 0.54 0.12
-9 3 9 0.71 0.12
8 -3 -9 1.83 0.15
-8 -3 9 2.04 0.16
-8 3 9 1.91 0.16
8 3 -9 2.22 0.17
-7 -3 9 0.95 0.11
7 -3 -9 1.11 0.12
7 3 -9 1.09 0.12
-7 3 9 0.92 0.11
6 -3 -9 3.28 0.18
-6 -3 9 3.28 0.17
-6 3 9 3.27 0.18
6 3 -9 3.55 0.19
5 -3 -9 2.04 0.14
-5 -3 9 1.74 0.13
5 3 -9 1.65 0.13
-5 3 9 1.88 0.14
-4 -3 9 3.58 0.17
-4 -3 9 3.28 0.16
4 -3 -9 3.45 0.18
-4 3 9 3.55 0.17
4 3 -9 3.47 0.18
-3 -3 9 0.2 0.07
-3 -3 9 0.29 0.08
3 -3 -9 0.34 0.08
3 3 -9 0.3 0.08
-3 3 9 0.29 0.07
2 -3 -9 5.17 0.22
-2 -3 9 5.66 0.22
-2 -3 9 5.6 0.21
2 3 -9 5.18 0.23
-2 3 9 5.46 0.23
-1 -3 9 3.57 0.16
-1 -3 9 3.32 0.17
1 -3 -9 3.17 0.17
-1 3 9 3.49 0.18
1 3 -9 3.06 0.16
0 -3 -9 2.63 0.15
0 -3 9 3.13 0.17
0 3 9 3.1 0.17
0 3 -9 3.09 0.16
-1 -3 -9 5.35 0.22
1 -3 9 5.36 0.24
-1 3 -9 5.5 0.21
1 3 9 5.43 0.23
-2 -3 -9 8.67 0.31
2 -3 9 8.29 0.33
2 3 9 8.63 0.32
-3 -3 -9 2.36 0.15
3 -3 9 2.16 0.15
3 3 9 2.09 0.15
4 -3 9 0.36 0.1
-4 -3 -9 0.43 0.1
4 3 9 0.46 0.09
5 -3 9 1.01 0.14
-5 -3 -9 1.03 0.12
5 3 9 1.29 0.14
6 -3 9 0.65 0.12
-6 -3 -9 0.66 0.11
6 3 9 0.58 0.12
-9 4 9 -0.09 0.09
8 -4 -9 0.01 0.07
-8 -4 9 0.04 0.09
8 4 -9 0.11 0.09
-8 4 9 0.04 0.09
7 -4 -9 0.18 0.08
-7 -4 9 0.16 0.08
-7 4 9 0.04 0.08
7 4 -9 0.16 0.09
6 -4 -9 0.01 0.06
-6 -4 9 0.07 0.07
6 4 -9 0.01 0.08
-6 4 9 -0.05 0.07
5 -4 -9 0.38 0.08
-5 -4 9 0.35 0.08
-5 4 9 0.41 0.08
5 4 -9 0.59 0.1
-4 -4 9 0.67 0.09
4 -4 -9 0.68 0.09
4 4 -9 0.66 0.1
-4 4 9 0.68 0.09
3 -4 -9 4.13 0.2
-3 -4 9 3.76 0.18
3 4 -9 3.97 0.19
-3 4 9 4.38 0.2
-2 -4 9 1.2 0.11
-2 -4 9 1.44 0.11
2 -4 -9 1.37 0.11
-2 4 9 1.4 0.12
2 4 -9 1.27 0.11
-1 -4 9 0.73 0.08
-1 -4 9 0.55 0.08
1 -4 -9 0.62 0.09
-1 4 9 0.78 0.09
1 4 -9 0.59 0.09
0 -4 -9 9.57 0.33
0 -4 9 9 0.33
0 4 -9 9.23 0.31
0 4 9 8.98 0.33
-1 -4 -9 2.2 0.14
1 -4 9 1.8 0.15
1 4 9 1.98 0.14
2 -4 9 0.7 0.11
-2 -4 -9 0.54 0.09
2 4 9 0.61 0.09
3 -4 9 0.34 0.1
-3 -4 -9 0.27 0.08
3 4 9 0.38 0.08
4 -4 9 -0.06 0.09
-4 -4 -9 -0.07 0.08
4 4 9 0 0.07
-5 -4 -9 1.14 0.13
5 -4 9 1.13 0.14
5 4 9 1.18 0.13
-6 -4 -9 0.05 0.09
6 4 9 0.1 0.09
-8 -5 9 0.66 0.12
8 5 -9 0.81 0.13
-8 5 9 0.69 0.12
7 -5 -9 1.56 0.13
-7 -5 9 1.51 0.13
-7 5 9 1.73 0.15
7 5 -9 1.59 0.16
6 -5 -9 1.17 0.12
-6 -5 9 1.2 0.12
6 5 -9 1.24 0.14
-6 5 9 1.33 0.13
-5 -5 9 0.81 0.1
5 -5 -9 0.71 0.1
-5 5 9 0.75 0.09
5 5 -9 0.79 0.12
4 -5 -9 0.07 0.06
-4 -5 9 0.18 0.07
-4 5 9 0.22 0.07
4 5 -9 0.02 0.07
-3 -5 9 3.6 0.17
3 -5 -9 3.71 0.18
-3 5 9 3.61 0.18
3 5 -9 3.37 0.18
2 -5 -9 1.16 0.11
-2 -5 9 1.23 0.11
-2 5 9 1.3 0.12
2 5 -9 1.39 0.12
-1 -5 9 0.52 0.08
1 -5 -9 0.51 0.08
-1 -5 9 0.47 0.08
-1 5 9 0.54 0.09
1 5 -9 0.45 0.08
0 -5 9 0.85 0.09
0 -5 -9 0.74 0.09
0 -5 9 0.57 0.09
0 5 9 0.78 0.1
1 -5 9 0.09 0.08
-1 -5 -9 0.22 0.07
1 5 9 0.3 0.08
-2 -5 -9 0.27 0.08
2 -5 9 0.29 0.09
2 5 9 0.22 0.08
3 -5 9 2.91 0.19
-3 -5 -9 3.13 0.19
3 5 9 2.92 0.18
-4 -5 -9 1.43 0.14
4 -5 9 1.42 0.15
4 5 9 1.61 0.14
-5 -5 -9 0.75 0.12
5 -5 9 0.81 0.13
5 5 9 0.63 0.11
-8 6 9 1.02 0.13
-7 -6 9 0 0.08
7 6 -9 0.02 0.1
-7 6 9 -0.01 0.08
6 -6 -9 4.1 0.2
-6 -6 9 4.04 0.21
6 6 -9 3.96 0.22
-6 6 9 3.98 0.21
5 -6 -9 1.54 0.13
-5 -6 9 1.43 0.12
5 6 -9 1.16 0.13
-5 6 9 1.02 0.11
4 -6 -9 3.21 0.17
-4 -6 9 2.96 0.17
4 6 -9 3.15 0.18
-4 6 9 3.19 0.17
3 -6 -9 0.87 0.1
-3 -6 9 1.15 0.11
3 6 -9 1.05 0.11
-3 6 9 0.95 0.1
-2 -6 9 0.94 0.1
2 -6 -9 0.85 0.1
-2 6 9 0.85 0.1
2 6 -9 1.02 0.1
-1 -6 9 0.13 0.06
1 -6 -9 0.14 0.07
-1 6 9 0.28 0.08
0 -6 9 1.01 0.1
0 -6 9 0.95 0.11
0 -6 -9 0.79 0.1
0 6 9 1 0.11
-1 -6 -9 0.6 0.09
1 -6 9 0.53 0.1
1 6 9 0.6 0.09
-2 -6 -9 0.4 0.09
2 -6 9 0.47 0.1
2 6 9 0.54 0.09
-3 -6 -9 1.5 0.15
3 -6 9 1.43 0.15
3 6 9 1.85 0.15
-4 -6 -9 0.27 0.1
4 -6 9 0.47 0.12
4 6 9 0.24 0.09
-5 -6 -9 0.38 0.11
5 -6 9 0.51 0.12
-7 -7 9 0.69 0.12
-7 7 9 0.47 0.11
-6 -7 9 1.73 0.15
-6 7 9 1.44 0.14
5 -7 -9 1.64 0.14
-5 -7 9 1.57 0.14
5 7 -9 1.86 0.16
-5 7 9 1.87 0.15
4 -7 -9 0.66 0.1
-4 -7 9 0.54 0.09
-4 7 9 0.52 0.09
4 7 -9 0.61 0.1
-3 -7 9 1.41 0.12
3 -7 -9 1.37 0.13
3 7 -9 1.23 0.12
-3 7 9 1.36 0.13
2 -7 -9 2.98 0.17
-2 -7 9 3.12 0.17
-2 7 9 3.08 0.18
-1 -7 9 1.23 0.11
1 -7 -9 1.07 0.11
-1 7 9 1.1 0.12
0 -7 9 1.09 0.11
0 -7 -9 0.94 0.11
0 7 9 1.07 0.11
1 -7 9 0.41 0.09
-1 -7 -9 0.13 0.08
1 7 9 0.46 0.09
-2 -7 -9 1.05 0.12
2 -7 9 1.25 0.13
2 7 9 1.05 0.12
3 -7 9 1.06 0.13
-3 -7 -9 0.91 0.12
3 7 9 0.9 0.11
4 -7 9 0.33 0.11
-4 -7 -9 0.28 0.1
-6 -8 9 0.29 0.1
-6 8 9 0.08 0.09
-5 -8 9 3.68 0.2
-5 8 9 3.8 0.21
-4 -8 9 0.47 0.1
4 -8 -9 0.58 0.09
-4 8 9 0.63 0.11
-3 -8 9 0.1 0.08
3 -8 -9 0.12 0.07
-3 8 9 0.04 0.08
2 -8 -9 0.18 0.08
-2 -8 9 0.09 0.06
-2 8 9 0.19 0.08
-1 -8 9 1.3 0.12
1 -8 -9 1.24 0.13
-1 8 9 1.17 0.12
0 -8 -9 0.27 0.09
0 -8 9 0.44 0.08
0 8 9 0.5 0.09
-1 -8 -9 1.44 0.14
1 8 9 1.71 0.15
-2 -8 -9 2.01 0.17
2 8 9 2.1 0.16
3 -8 9 0.52 0.11
-3 -8 -9 0.66 0.12
4 -8 9 0.05 0.09
-5 -9 9 0.17 0.09
-5 9 9 0.11 0.09
-4 -9 9 2.16 0.17
-4 9 9 2.36 0.18
3 -9 -9 0.02 0.07
-3 -9 9 0.04 0.08
-3 9 9 0.25 0.09
-2 -9 9 1.52 0.14
2 -9 -9 1.48 0.14
-2 9 9 1.62 0.15
1 -9 -9 1.3 0.14
-1 -9 9 1.2 0.12
-1 9 9 1.32 0.13
0 -9 -9 1.15 0.13
0 -9 9 1.13 0.12
0 9 9 1.18 0.13
-1 -9 -9 0.2 0.1
1 -9 9 0.43 0.09
1 9 9 0.21 0.08
-2 -9 -9 2.82 0.19
-3 -10 9 0.55 0.11
-3 10 9 0.61 0.11
-2 -10 9 0.42 0.1
2 -10 -9 0.59 0.11
-2 10 9 0.67 0.11
-1 -10 9 0.07 0.08
1 -10 -9 0.01 0.09
-1 10 9 0.1 0.08
0 -10 -9 1.1 0.14
0 -10 9 1.18 0.14
1 -10 9 1.32 0.14
9 0 -10 0.46 0.11
-8 0 10 0.81 0.12
8 0 -10 1.12 0.14
7 0 -10 1.02 0.13
-7 0 10 1.2 0.12
6 0 -10 1.13 0.12
-6 0 10 1.19 0.11
-6 0 10 1.02 0.11
5 0 -10 3.78 0.2
-5 0 10 3.87 0.19
-5 0 10 3.4 0.17
-4 0 10 15.62 0.49
-4 0 10 14.99 0.47
4 0 -10 14.67 0.49
-3 0 10 1.58 0.13
3 0 -10 1.32 0.12
-2 0 10 0.14 0.08
2 0 -10 0.06 0.08
1 0 -10 0.32 0.08
-1 0 10 0.35 0.09
0 0 -10 0.85 0.1
0 0 10 0.57 0.1
-1 0 -10 0.61 0.09
1 0 10 0.43 0.09
-2 0 -10 0.01 0.07
2 0 10 -0.08 0.07
3 0 10 0.21 0.08
-3 0 -10 0.26 0.08
4 0 10 0.23 0.09
5 0 10 0.41 0.12
9 -1 -10 0.55 0.12
-8 -1 10 0.91 0.12
8 -1 -10 1.14 0.13
-8 1 10 0.88 0.12
8 1 -10 0.95 0.13
7 -1 -10 0.1 0.08
-7 -1 10 0.18 0.08
7 1 -10 0.29 0.09
-7 1 10 0.14 0.08
-7 1 10 -0.01 0.06
-6 -1 10 0.13 0.07
6 -1 -10 0.05 0.07
-6 1 10 0.11 0.07
6 1 -10 0.11 0.07
-6 1 10 0.14 0.07
5 -1 -10 1.21 0.12
-5 -1 10 1.46 0.12
-5 -1 10 1.24 0.11
5 1 -10 1.23 0.13
-5 1 10 1.43 0.13
-5 1 10 1.31 0.11
-4 -1 10 2.39 0.15
-4 -1 10 2.24 0.14
4 -1 -10 2.11 0.14
-4 1 10 2.19 0.14
4 1 -10 1.86 0.14
-4 1 10 2.18 0.15
3 -1 -10 4.11 0.2
-3 -1 10 4.34 0.2
-3 -1 10 4.13 0.18
3 1 -10 4.41 0.21
-3 1 10 4.17 0.2
-2 -1 10 0.41 0.09
2 -1 -10 0.4 0.08
2 1 -10 0.38 0.09
-2 1 10 0.46 0.09
1 -1 -10 3.73 0.19
-1 -1 10 3.43 0.18
-1 1 10 3.25 0.18
1 1 -10 3.52 0.19
0 -1 10 1.68 0.13
0 -1 -10 1.72 0.14
0 1 10 1.47 0.13
0 1 -10 1.67 0.13
-1 -1 -10 6.56 0.26
1 -1 10 7.44 0.29
-1 1 -10 6.9 0.27
1 1 10 7 0.28
-2 -1 -10 1.65 0.13
2 -1 10 1.15 0.13
2 1 10 1.31 0.13
-2 1 -10 1.54 0.12
-3 -1 -10 0.37 0.09
3 -1 10 0.39 0.09
3 1 10 0.06 0.08
-4 -1 -10 0.73 0.11
4 -1 10 0.84 0.12
4 1 10 0.77 0.12
5 -1 10 1.32 0.15
5 1 10 1.44 0.16
9 -2 -10 0.55 0.12
-8 -2 10 0.71 0.12
8 -2 -10 0.74 0.11
-8 2 10 0.6 0.1
8 2 -10 0.73 0.12
-8 2 10 0.57 0.1
-7 -2 10 0.99 0.12
7 -2 -10 1.03 0.12
-7 2 10 1.02 0.12
-7 2 10 0.78 0.1
7 2 -10 0.94 0.12
6 -2 -10 1.14 0.12
-6 -2 10 1.15 0.11
6 2 -10 1.05 0.12
-6 2 10 1.1 0.11
-6 2 10 1.33 0.12
-5 -2 10 1.55 0.13
5 -2 -10 1.9 0.14
-5 2 10 1.9 0.13
5 2 -10 2.17 0.15
-5 2 10 1.88 0.14
-4 -2 10 3.17 0.16
4 -2 -10 3.01 0.17
-4 -2 10 3.45 0.17
4 2 -10 3.4 0.19
-4 2 10 3.28 0.17
-3 -2 10 3.26 0.17
3 -2 -10 3.29 0.18
-3 -2 10 3.3 0.17
-3 2 10 3.6 0.18
3 2 -10 3.26 0.19
2 -2 -10 0.74 0.09
-2 -2 10 0.96 0.11
-2 2 10 0.84 0.1
2 2 -10 0.73 0.1
-1 -2 10 4.51 0.21
1 -2 -10 4.3 0.2
1 2 -10 4.64 0.2
-1 2 10 4.63 0.21
0 -2 -10 2.76 0.17
0 -2 10 2.64 0.17
0 2 10 2.93 0.17
0 2 -10 2.82 0.16
-1 -2 -10 2.14 0.15
1 -2 10 2.23 0.16
1 2 10 2.1 0.15
-1 2 -10 2.39 0.15
2 -2 10 1.6 0.15
-2 -2 -10 1.94 0.15
2 2 10 1.81 0.15
3 -2 10 0.16 0.09
-3 -2 -10 0.11 0.08
3 2 10 0.1 0.07
4 -2 10 1.04 0.13
-4 -2 -10 0.98 0.12
4 2 10 1.35 0.14
5 -2 10 1.1 0.14
5 2 10 1.13 0.15
9 -3 -10 0.81 0.13
-9 3 10 0.53 0.11
8 -3 -10 0.3 0.1
-8 -3 10 0.24 0.1
-8 3 10 0.2 0.09
-8 3 10 0.36 0.09
8 3 -10 0.43 0.11
7 -3 -10 0.05 0.08
-7 -3 10 -0.01 0.08
-7 3 10 0.02 0.08
7 3 -10 -0.05 0.07
-7 3 10 0.07 0.07
6 -3 -10 0.97 0.12
-6 -3 10 1.02 0.11
-6 3 10 1.1 0.11
6 3 -10 1.36 0.14
-6 3 10 1.01 0.12
-5 -3 10 1.22 0.11
5 -3 -10 1.25 0.12
-5 3 10 1.04 0.1
5 3 -10 1.45 0.14
-5 3 10 1.36 0.12
4 -3 -10 4.36 0.2
-4 -3 10 3.5 0.18
4 3 -10 3.94 0.2
-4 3 10 3.99 0.2
3 -3 -10 2.29 0.15
-3 -3 10 1.99 0.13
-3 -3 10 2.31 0.15
3 3 -10 2.13 0.15
-3 3 10 2.19 0.14
2 -3 -10 0.31 0.08
-2 -3 10 0.36 0.08
-2 -3 10 0.39 0.08
-2 3 10 0.47 0.09
2 3 -10 0.26 0.09
-1 -3 10 0.73 0.1
1 -3 -10 0.63 0.09
1 3 -10 0.7 0.1
-1 3 10 0.67 0.09
0 -3 -10 5.62 0.24
0 -3 10 6.08 0.25
0 3 10 5.52 0.24
0 3 -10 5.68 0.23
-1 -3 -10 0.26 0.09
1 -3 10 0.26 0.08
1 3 10 0.47 0.1
2 -3 10 0.55 0.11
-2 -3 -10 0.58 0.1
2 3 10 0.64 0.1
3 -3 10 0.92 0.13
-3 -3 -10 0.84 0.11
3 3 10 1.11 0.13
-4 -3 -10 0.14 0.09
4 -3 10 0.02 0.09
4 3 10 0.08 0.09
5 -3 10 -0.14 0.09
-5 -3 -10 0.01 0.09
5 3 10 0.05 0.09
-8 -4 10 0.33 0.1
8 -4 -10 0.14 0.09
8 4 -10 0.33 0.1
-8 4 10 0.07 0.09
-7 -4 10 1.18 0.13
7 -4 -10 1.01 0.12
7 4 -10 1.18 0.14
-7 4 10 1.44 0.14
6 -4 -10 0.79 0.11
-6 -4 10 0.68 0.1
-6 4 10 0.92 0.11
6 4 -10 0.86 0.12
5 -4 -10 0.92 0.11
-5 -4 10 0.87 0.1
5 4 -10 0.77 0.12
-5 4 10 0.64 0.1
4 -4 -10 0.33 0.08
-4 -4 10 0.28 0.07
-4 4 10 0.33 0.08
4 4 -10 0.51 0.1
-3 -4 10 0.72 0.09
3 -4 -10 0.79 0.1
-3 4 10 0.55 0.09
3 4 -10 0.81 0.11
2 -4 -10 4.52 0.21
-2 -4 10 4.7 0.2
-2 -4 10 4.86 0.21
2 4 -10 4.56 0.21
-2 4 10 5.11 0.22
-1 -4 10 1.84 0.14
1 -4 -10 1.8 0.14
-1 4 10 1.96 0.14
1 4 -10 1.69 0.13
0 -4 10 0.51 0.1
0 -4 -10 0.56 0.09
0 4 10 0.82 0.1
-1 -4 -10 2.57 0.17
1 -4 10 2.16 0.17
1 4 10 2.79 0.17
2 -4 10 0.44 0.11
-2 -4 -10 0.53 0.1
2 4 10 0.54 0.1
3 -4 10 2.4 0.18
-3 -4 -10 2.42 0.17
3 4 10 2.46 0.18
4 -4 10 0.03 0.09
-4 -4 -10 0.06 0.09
4 4 10 0 0.09
-5 -4 -10 0.48 0.11
5 4 10 0.39 0.11
-7 -5 10 0.35 0.1
7 -5 -10 0.38 0.1
-7 5 10 0.45 0.11
7 5 -10 0.46 0.11
6 -5 -10 2.31 0.17
-6 -5 10 2.3 0.16
6 5 -10 2.39 0.18
-6 5 10 2.28 0.17
5 -5 -10 1.8 0.15
-5 -5 10 1.95 0.14
-5 5 10 1.59 0.14
5 5 -10 1.74 0.16
-4 -5 10 1.26 0.12
4 -5 -10 1.32 0.12
-4 5 10 1.29 0.13
4 5 -10 1.46 0.14
3 -5 -10 1.01 0.11
-3 -5 10 1 0.1
3 5 -10 0.89 0.11
-3 5 10 0.91 0.11
-2 -5 10 0.06 0.06
2 -5 -10 -0.01 0.06
2 5 -10 -0.01 0.07
-2 5 10 0.02 0.07
1 -5 -10 0.57 0.09
-1 -5 10 0.65 0.09
-1 5 10 0.57 0.09
0 -5 -10 0.02 0.06
0 -5 10 0.09 0.07
0 5 10 0.05 0.07
-1 -5 -10 4.15 0.2
1 -5 10 4.18 0.22
1 5 10 4.32 0.22
2 -5 10 0.31 0.11
-2 -5 -10 0.29 0.09
2 5 10 0.32 0.09
-3 -5 -10 1.03 0.13
3 -5 10 1.07 0.14
3 5 10 1.18 0.14
-4 -5 -10 0.1 0.1
4 -5 10 -0.01 0.1
4 5 10 -0.06 0.09
7 -6 -10 0.53 0.11
-7 -6 10 0.53 0.11
7 6 -10 0.72 0.13
-7 6 10 0.61 0.12
-6 -6 10 1.62 0.15
6 -6 -10 2.14 0.17
6 6 -10 1.95 0.16
-6 6 10 1.94 0.16
-5 -6 10 0.85 0.12
5 -6 -10 1.13 0.13
-5 6 10 0.9 0.12
5 6 -10 0.82 0.12
4 -6 -10 0.03 0.07
-4 -6 10 0.11 0.07
4 6 -10 0.04 0.08
-4 6 10 0.02 0.07
3 -6 -10 0.25 0.08
-3 -6 10 0.26 0.08
3 6 -10 0.28 0.09
-3 6 10 0.28 0.09
-2 -6 10 -0.01 0.06
2 -6 -10 0 0.06
-2 6 10 -0.04 0.07
-1 -6 10 1.03 0.1
1 -6 -10 0.76 0.1
-1 6 10 0.92 0.11
0 -6 10 1.13 0.12
0 -6 -10 1.01 0.12
0 6 10 1.16 0.12
-1 -6 -10 1.4 0.13
1 -6 10 1.33 0.13
1 6 10 1.32 0.13
2 -6 10 0.27 0.1
-2 -6 -10 0.33 0.1
2 6 10 0.28 0.1
-3 -6 -10 0.13 0.1
3 -6 10 0.08 0.1
3 6 10 0.05 0.09
4 -6 10 0.68 0.13
4 6 10 0.62 0.12
-6 -7 10 0.86 0.12
6 -7 -10 0.74 0.12
6 7 -10 0.73 0.13
-6 7 10 0.68 0.12
5 -7 -10 3.87 0.21
-5 -7 10 3.38 0.19
-5 7 10 3.83 0.21
5 7 -10 3.72 0.22
-4 -7 10 0.97 0.12
4 -7 -10 0.94 0.12
4 7 -10 1.01 0.13
-4 7 10 1.12 0.13
-3 -7 10 1.7 0.14
3 -7 -10 2.1 0.15
-3 7 10 1.86 0.16
-2 -7 10 0.99 0.11
2 -7 -10 1.01 0.12
-2 7 10 1.19 0.13
-1 -7 10 0.85 0.1
1 -7 -10 0.68 0.11
-1 7 10 0.95 0.12
0 -7 -10 -0.11 0.08
0 7 10 0.05 0.08
-1 -7 -10 2.78 0.18
1 7 10 2.96 0.19
-2 -7 -10 1.5 0.15
2 -7 10 1.65 0.16
2 7 10 2.12 0.17
3 -7 10 -0.03 0.09
3 7 10 0.07 0.09
-5 -8 10 1.4 0.15
5 -8 -10 1.23 0.14
-5 8 10 1.45 0.14
-4 -8 10 0.98 0.12
4 -8 -10 0.88 0.12
-4 8 10 1.15 0.13
3 -8 -10 0.57 0.11
-3 -8 10 0.45 0.1
-3 8 10 0.67 0.12
-2 -8 10 0.21 0.08
2 -8 -10 0.31 0.09
-2 8 10 0.23 0.09
-1 -8 10 0.52 0.09
1 -8 -10 0.62 0.11
-1 8 10 0.47 0.1
0 -8 -10 -0.05 0.09
0 8 10 -0.02 0.08
-1 -8 -10 0.11 0.1
1 8 10 0.12 0.09
2 8 10 1.3 0.14
4 -9 -10 2.55 0.18
3 -9 -10 2.87 0.19
-3 -9 10 2.34 0.17
-3 9 10 2.36 0.19
-2 -9 10 0.07 0.08
2 -9 -10 0.11 0.09
-2 9 10 0.16 0.1
1 -9 -10 0.03 0.08
-1 -9 10 0.07 0.08
-1 9 10 0.04 0.09
0 9 10 0.82 0.13
1 9 10 0.37 0.1
-8 0 11 0.06 0.09
8 0 -11 0.02 0.09
7 0 -11 0 0.08
-7 0 11 0.02 0.08
6 0 -11 0.71 0.11
-6 0 11 0.58 0.09
-6 0 11 0.66 0.1
-5 0 11 3.82 0.19
5 0 -11 3.99 0.21
-5 0 11 3.94 0.2
4 0 -11 0.72 0.1
-4 0 11 1.11 0.12
3 0 -11 0.15 0.08
-3 0 11 0.28 0.08
2 0 -11 0.93 0.12
-2 0 11 1.07 0.12
1 0 -11 1.63 0.15
-1 0 11 1.96 0.15
0 0 11 -0.01 0.07
0 0 -11 -0.05 0.08
-1 0 -11 0.04 0.08
1 0 11 0.14 0.08
-2 0 -11 0.17 0.08
2 0 11 0.15 0.08
3 0 11 0.81 0.12
4 0 11 0 0.09
8 -1 -11 0.18 0.09
-8 -1 11 0.26 0.1
-8 1 11 0.07 0.08
7 -1 -11 0.99 0.13
-7 -1 11 1 0.12
-7 1 11 0.79 0.11
7 1 -11 0.96 0.13
-7 1 11 0.86 0.11
-6 -1 11 0.88 0.11
6 -1 -11 0.94 0.12
-6 1 11 1.04 0.12
6 1 -11 1.06 0.13
-6 1 11 1.04 0.11
5 -1 -11 1.17 0.13
-5 -1 11 1.22 0.12
-5 -1 11 1.28 0.12
-5 1 11 1.4 0.13
5 1 -11 1.44 0.14
-4 -1 11 2.4 0.16
4 -1 -11 2.32 0.16
-4 1 11 2.28 0.16
4 1 -11 2.5 0.17
3 -1 -11 1.6 0.14
-3 -1 11 1.64 0.14
-3 1 11 1.91 0.15
3 1 -11 1.5 0.14
-2 -1 11 2.43 0.16
2 -1 -11 2.57 0.17
2 1 -11 2.6 0.17
-2 1 11 2.4 0.16
-1 -1 11 2.55 0.17
1 -1 -11 2.58 0.17
-1 1 11 2.47 0.17
1 1 -11 2.49 0.17
0 -1 11 0.36 0.1
0 -1 -11 0.35 0.09
0 1 11 0.27 0.09
0 1 -11 0.32 0.09
1 -1 11 0.08 0.09
-1 -1 -11 0.06 0.08
-1 1 -11 0.08 0.08
1 1 11 0 0.07
2 -1 11 0.31 0.1
-2 -1 -11 0.45 0.1
2 1 11 0.61 0.11
3 -1 11 1.72 0.16
-3 -1 -11 1.39 0.14
3 1 11 1.18 0.14
4 -1 11 0.29 0.1
4 1 11 0.22 0.11
8 -2 -11 0.66 0.12
-8 -2 11 0.75 0.12
-8 2 11 0.68 0.11
-8 2 11 0.73 0.11
-7 -2 11 0.15 0.09
7 -2 -11 0.17 0.09
7 2 -11 0.13 0.09
-7 2 11 0.04 0.08
-7 2 11 0.11 0.08
6 -2 -11 0.29 0.1
-6 -2 11 0.16 0.08
-6 2 11 0.3 0.09
6 2 -11 0.23 0.09
-6 2 11 0.17 0.07
-5 -2 11 4.5 0.21
5 -2 -11 4.59 0.23
-5 2 11 4.84 0.23
5 2 -11 5.03 0.24
-4 -2 11 0.16 0.07
4 -2 -11 0.08 0.07
-4 -2 11 0.23 0.08
-4 2 11 0.28 0.09
4 2 -11 0.33 0.1
-3 -2 11 0.45 0.09
3 -2 -11 0.44 0.09
-3 2 11 0.51 0.1
3 2 -11 0.48 0.1
2 -2 -11 0.29 0.09
-2 -2 11 0.2 0.08
2 2 -11 0.22 0.09
-2 2 11 0.22 0.08
-1 -2 11 0.63 0.1
1 -2 -11 0.49 0.1
1 2 -11 0.48 0.1
-1 2 11 0.63 0.1
0 -2 11 1.61 0.15
0 -2 -11 1.48 0.14
0 2 -11 1.55 0.14
0 2 11 1.54 0.14
1 -2 11 1.32 0.14
-1 -2 -11 1.35 0.13
1 2 11 1.52 0.13
2 -2 11 0.32 0.1
-2 -2 -11 0.26 0.1
2 2 11 0.38 0.1
-3 -2 -11 0.76 0.12
3 -2 11 0.66 0.12
3 2 11 0.8 0.13
-4 -2 -11 0.2 0.1
4 -2 11 0.08 0.1
4 2 11 0.21 0.11
-8 3 11 0.12 0.09
-8 3 11 -0.02 0.08
7 -3 -11 0.29 0.09
-7 -3 11 0.34 0.1
-7 3 11 0.12 0.09
7 3 -11 0.28 0.1
-7 3 11 0.27 0.08
6 -3 -11 0.46 0.11
-6 -3 11 0.42 0.09
-6 3 11 0.52 0.11
6 3 -11 0.56 0.11
-5 -3 11 0.93 0.11
5 -3 -11 1.14 0.13
5 3 -11 1.16 0.14
-5 3 11 1.24 0.13
-4 -3 11 0.22 0.07
4 -3 -11 0.19 0.08
-4 3 11 0.13 0.08
4 3 -11 0.21 0.08
3 -3 -11 0.02 0.06
-3 -3 11 -0.01 0.07
3 3 -11 0.02 0.08
-3 3 11 0.1 0.07
-2 -3 11 0.57 0.1
2 -3 -11 0.44 0.09
2 3 -11 0.42 0.1
-2 3 11 0.32 0.09
-1 -3 11 2.67 0.18
1 -3 -11 2.75 0.17
-1 3 11 2.85 0.17
1 3 -11 2.94 0.17
0 -3 11 5.77 0.26
0 -3 -11 5.47 0.25
0 3 -11 5.59 0.24
0 3 11 5.85 0.26
1 -3 11 1.23 0.14
-1 -3 -11 1.18 0.13
1 3 11 1.18 0.13
-2 -3 -11 0.84 0.12
2 -3 11 1.14 0.14
2 3 11 0.7 0.12
-3 -3 -11 0.68 0.12
3 -3 11 0.67 0.13
3 3 11 0.71 0.13
-4 -3 -11 2.25 0.17
7 -4 -11 0.55 0.11
-7 -4 11 0.71 0.12
-7 4 11 0.59 0.1
-7 4 11 0.6 0.12
7 4 -11 0.62 0.13
-6 -4 11 0.8 0.12
6 -4 -11 0.94 0.13
-6 4 11 0.81 0.12
6 4 -11 0.81 0.12
5 -4 -11 0 0.08
-5 -4 11 -0.04 0.06
-5 4 11 -0.04 0.08
5 4 -11 0.03 0.08
4 -4 -11 1.38 0.14
-4 -4 11 1.53 0.12
-4 4 11 1.48 0.14
4 4 -11 1.7 0.15
3 -4 -11 0.23 0.08
3 4 -11 0.18 0.09
-3 4 11 0.1 0.08
-2 -4 11 0.41 0.09
2 -4 -11 0.48 0.09
2 4 -11 0.33 0.09
-2 4 11 0.39 0.09
-1 -4 11 0.12 0.08
1 -4 -11 0.13 0.08
1 4 -11 0.01 0.08
-1 4 11 0.14 0.08
0 -4 -11 0.3 0.09
0 -4 11 0.35 0.1
0 4 11 0.26 0.09
-1 -4 -11 0.84 0.12
1 -4 11 0.83 0.12
1 4 11 0.75 0.12
-2 -4 -11 0.08 0.09
2 -4 11 -0.06 0.09
2 4 11 -0.07 0.08
3 -4 11 -0.2 0.09
-3 -4 -11 0.12 0.09
3 4 11 0.02 0.09
7 -5 -11 0.72 0.12
6 -5 -11 1.19 0.14
-6 -5 11 1.32 0.14
-6 5 11 1.41 0.14
6 5 -11 1.31 0.15
-5 -5 11 0.13 0.08
5 -5 -11 0.06 0.09
-5 5 11 0.11 0.09
5 5 -11 0.15 0.09
4 -5 -11 0.68 0.11
-4 -5 11 0.75 0.1
-4 5 11 0.71 0.11
4 5 -11 0.65 0.11
3 -5 -11 0.56 0.1
-3 -5 11 0.42 0.08
-3 5 11 0.45 0.09
3 5 -11 0.65 0.11
2 -5 -11 0.73 0.1
2 5 -11 0.92 0.11
-2 5 11 0.74 0.11
1 -5 -11 0.86 0.11
-1 5 11 1.17 0.13
0 -5 -11 0.35 0.09
0 -5 11 0.43 0.1
0 5 11 0.47 0.11
-1 -5 -11 2.98 0.19
1 -5 11 3.32 0.2
1 5 11 2.96 0.2
-2 -5 -11 0.09 0.09
2 -5 11 0.06 0.1
2 5 11 -0.08 0.08
-3 -5 -11 0.31 0.11
3 -5 11 0.3 0.11
3 5 11 0.26 0.11
-6 -6 11 0.75 0.12
6 -6 -11 0.83 0.13
6 6 -11 0.94 0.14
5 -6 -11 0.51 0.11
-5 -6 11 0.72 0.11
5 6 -11 0.53 0.12
-5 6 11 0.55 0.11
4 -6 -11 1.11 0.13
-4 -6 11 1.33 0.13
-4 6 11 0.84 0.12
4 6 -11 1.25 0.14
-3 -6 11 3.11 0.17
3 -6 -11 3.26 0.2
-3 6 11 3.12 0.19
2 -6 -11 -0.04 0.08
-2 6 11 0.07 0.09
1 -6 -11 0.01 0.08
-1 6 11 0.19 0.09
0 -6 -11 0.35 0.1
0 6 11 0.64 0.12
1 -6 11 1.4 0.15
-1 -6 -11 1.46 0.15
1 6 11 1.57 0.15
2 -6 11 0.51 0.12
-2 -6 -11 0.55 0.11
2 6 11 0.53 0.11
-5 -7 11 1.22 0.14
5 -7 -11 1.38 0.15
5 7 -11 1.44 0.15
4 -7 -11 0.16 0.09
-4 -7 11 0.09 0.08
-4 7 11 0.09 0.1
3 -7 -11 0.77 0.12
-3 -7 11 0.93 0.12
-3 7 11 0.67 0.12
2 -7 -11 0.11 0.09
-2 7 11 0.07 0.09
1 -7 -11 0.81 0.13
-1 7 11 0.97 0.13
0 -7 -11 0.1 0.1
0 7 11 0.22 0.1
1 7 11 1.02 0.14
3 -8 -11 -0.1 0.07
-3 -8 11 0.14 0.09
-2 -8 11 0.54 0.1
-1 8 11 0.24 0.11
-7 0 12 0.25 0.09
6 0 -12 2.21 0.17
-6 0 12 2.03 0.16
5 0 -12 0.03 0.07
-5 0 12 -0.11 0.08
-4 0 12 0.15 0.09
4 0 -12 0.14 0.09
3 0 -12 0.04 0.08
-3 0 12 0.04 0.08
2 0 -12 0.2 0.1
-2 0 12 0.08 0.09
-1 0 12 0.19 0.09
1 0 -12 0.35 0.1
0 0 -12 0.1 0.09
0 0 12 0.2 0.09
-1 0 -12 0.77 0.12
1 0 12 0.76 0.12
2 0 12 0.02 0.09
-7 -1 12 0.31 0.1
-7 1 12 0.41 0.1
-6 -1 12 0.43 0.09
6 -1 -12 0.42 0.11
6 1 -12 0.42 0.11
-6 1 12 0.54 0.11
5 -1 -12 4.45 0.23
-5 -1 12 4.44 0.22
-5 1 12 4.57 0.23
5 1 -12 4.14 0.23
4 -1 -12 0.8 0.11
-4 -1 12 0.6 0.11
-4 1 12 0.66 0.11
4 1 -12 0.69 0.12
3 -1 -12 0.08 0.08
-3 -1 12 0.08 0.08
-3 1 12 0.15 0.09
3 1 -12 0.08 0.08
-2 -1 12 1.22 0.13
2 -1 -12 1.38 0.14
-2 1 12 1.31 0.14
2 1 -12 1.27 0.14
-1 -1 12 1.21 0.13
1 -1 -12 1.39 0.14
-1 1 12 1.41 0.14
1 1 -12 1.32 0.14
0 -1 12 0.17 0.09
0 -1 -12 0.13 0.09
0 1 12 0.11 0.08
0 1 -12 0.17 0.09
1 -1 12 0.71 0.12
-1 -1 -12 0.48 0.11
-1 1 -12 0.5 0.1
1 1 12 0.46 0.1
-2 -1 -12 0.44 0.11
2 -1 12 0.55 0.12
2 1 12 0.45 0.11
-7 -2 12 0.4 0.1
-7 2 12 0.31 0.1
-6 -2 12 0.68 0.11
6 -2 -12 0.8 0.13
6 2 -12 0.83 0.13
-6 2 12 0.7 0.12
5 -2 -12 0.07 0.08
-5 2 12 0.03 0.08
5 2 -12 0.09 0.1
4 -2 -12 0.58 0.1
-4 2 12 0.68 0.12
4 2 -12 0.51 0.11
3 -2 -12 0.08 0.08
-3 -2 12 0.12 0.08
3 2 -12 0.1 0.09
-3 2 12 0.11 0.09
2 -2 -12 0.25 0.1
-2 -2 12 0.28 0.09
2 2 -12 0.28 0.09
-2 2 12 0.25 0.09
1 -2 -12 0.88 0.13
-1 -2 12 0.9 0.12
1 2 -12 0.63 0.11
-1 2 12 0.71 0.11
0 -2 -12 0.52 0.11
0 -2 12 0.68 0.12
0 2 -12 0.51 0.1
0 2 12 0.61 0.11
-1 -2 -12 0.32 0.1
1 -2 12 0.4 0.11
1 2 12 0.16 0.09
2 -2 12 0.1 0.1
-2 -2 -12 0.33 0.1
2 2 12 0.14 0.1
-3 -2 -12 0 0.1
6 -3 -12 0.05 0.1
-6 -3 12 0.03 0.08
-6 3 12 0.02 0.09
6 3 -12 0.14 0.1
5 -3 -12 0.11 0.09
5 3 -12 -0.05 0.09
-5 3 12 0.06 0.09
4 -3 -12 0.47 0.11
4 3 -12 0.41 0.11
-4 3 12 0.22 0.1
3 -3 -12 2.1 0.16
3 3 -12 2 0.16
-3 3 12 2.02 0.17
2 -3 -12 0.54 0.1
-2 -3 12 0.75 0.11
2 3 -12 0.55 0.11
-2 3 12 0.64 0.11
1 -3 -12 -0.01 0.08
-1 -3 12 0.1 0.09
1 3 -12 0.09 0.09
-1 3 12 -0.17 0.07
0 -3 12 0.52 0.11
0 -3 -12 0.34 0.1
0 3 12 0.55 0.11
1 -3 12 0.17 0.1
-1 -3 -12 0.07 0.09
1 3 12 0.02 0.09
-2 -3 -12 1.21 0.14
2 -3 12 1.49 0.16
2 3 12 1.14 0.15
-6 -4 12 0.31 0.09
5 -4 -12 0.64 0.12
-5 -4 12 0.61 0.1
5 4 -12 0.69 0.12
-5 4 12 0.7 0.12
4 -4 -12 0.89 0.13
-4 4 12 0.82 0.12
4 4 -12 0.9 0.13
3 -4 -12 0.84 0.12
-3 4 12 0.78 0.12
3 4 -12 0.93 0.12
2 -4 -12 0.47 0.11
2 4 -12 0.59 0.11
-2 4 12 0.34 0.09
-1 -4 12 0.59 0.11
1 -4 -12 0.66 0.11
-1 4 12 0.64 0.11
0 -4 -12 0.68 0.12
0 -4 12 0.69 0.12
0 4 12 0.78 0.12
-1 -4 -12 1.29 0.15
1 -4 12 1.32 0.15
1 4 12 0.98 0.14
2 -4 12 0.5 0.12
-5 -5 12 -0.01 0.08
5 5 -12 0.15 0.1
4 -5 -12 0.15 0.09
-4 5 12 0.18 0.09
4 5 -12 0.23 0.1
3 -5 -12 0.42 0.11
3 5 -12 0.46 0.1
-3 5 12 0.52 0.11
2 -5 -12 1.01 0.13
-2 5 12 0.7 0.12
1 -5 -12 -0.08 0.07
-1 5 12 0.05 0.09
0 -5 -12 1.56 0.15
0 -5 12 1.56 0.15
0 5 12 1.79 0.17
1 -5 12 0.33 0.11
4 6 -12 0.64 0.12
-5 0 13 0.8 0.12
4 0 -13 0.18 0.09
-4 0 13 0.14 0.09
-3 0 13 0.31 0.1
3 0 -13 0.25 0.1
-2 0 13 1.13 0.14
2 0 -13 1.27 0.14
-1 0 13 1.24 0.14
1 0 -13 1.3 0.14
0 0 -13 0.17 0.1
0 0 13 0.2 0.1
-1 0 -13 0.17 0.1
-6 1 13 0.77 0.13
-5 1 13 -0.02 0.09
4 -1 -13 -0.05 0.08
-4 -1 13 -0.02 0.08
-4 1 13 -0.05 0.09
4 1 -13 0.02 0.1
-3 -1 13 0.15 0.09
3 -1 -13 0.15 0.1
3 1 -13 0.03 0.1
-3 1 13 0.07 0.09
-2 -1 13 0.04 0.08
2 -1 -13 -0.05 0.09
-2 1 13 0 0.09
2 1 -13 0.02 0.09
1 -1 -13 0.48 0.11
-1 -1 13 0.54 0.11
1 1 -13 0.4 0.11
-1 1 13 0.39 0.1
0 -1 -13 0.22 0.1
0 -1 13 0.14 0.1
0 1 -13 0.42 0.11
0 1 13 0.2 0.1
-1 -1 -13 0.39 0.11
-5 2 13 0.61 0.12
4 2 -13 0.34 0.11
-4 2 13 0.25 0.1
3 -2 -13 0.17 0.1
-3 -2 13 0.13 0.09
3 2 -13 0.14 0.1
-3 2 13 0.25 0.1
-2 -2 13 0.02 0.09
2 -2 -13 0.08 0.1
2 2 -13 -0.13 0.08
-2 2 13 0.06 0.09
-1 -2 13 0.02 0.09
1 -2 -13 -0.03 0.08
1 2 -13 0.13 0.1
-1 2 13 -0.04 0.08
0 -2 13 0.09 0.1
0 -2 -13 0.14 0.1
4 3 -13 0.25 0.1
3 3 -13 0.14 0.09
-3 3 13 0.06 0.09
-2 -3 13 0.31 0.11
2 -3 -13 0.48 0.12
2 3 -13 0.77 0.12
-2 3 13 0.49 0.11
-1 -3 13 0.64 0.12
0 -3 13 0.08 0.1
3 4 -13 0.34 0.11
0 -4 13 1.63 0.16
