#------------------------------------------------------------------------------
#$Date: 2020-05-05 15:49:24 +0300 (Tue, 05 May 2020) $
#$Revision: 251585 $
#$URL: file:///home/coder/svn-repositories/cod/cif/7/12/63/7126315.cif $
#------------------------------------------------------------------------------
#
# This file is available in the Crystallography Open Database (COD),
# http://www.crystallography.net/
#
# All data on this site have been placed in the public domain by the
# contributors.
#
data_7126315
loop_
_publ_author_name
'Geringer, Eugenie'
'Leusmann, Eliza'
'Tambornino, Frank'
'Gerhard, Marina'
'Koch, Martin'
'Dehnen, Stefanie'
_publ_section_title
;
 Trapping of ZnCl<sub>2</sub> by bipyridyl-functionalized organotin
 sulfide clusters, and its effect on optical properties.
;
_journal_issue                   35
_journal_name_full
'Chemical communications (Cambridge, England)'
_journal_page_first              4769
_journal_page_last               4772
_journal_paper_doi               10.1039/d0cc01887b
_journal_volume                  56
_journal_year                    2020
_chemical_formula_moiety         'C11 H8 Cl2 N2 O Zn'
_chemical_formula_sum            'C11 H8 Cl2 N2 O Zn'
_chemical_formula_weight         320.46
_space_group_crystal_system      triclinic
_space_group_IT_number           2
_space_group_name_Hall           '-P 1'
_space_group_name_H-M_alt        'P -1'
_atom_sites_solution_hydrogens   geom
_atom_sites_solution_primary     dual
_audit_creation_date             2020-01-25
_audit_creation_method
;
Olex2 1.2
(compiled 2018.05.29 svn.r3508 for OlexSys, GUI svn.r5506)
;
_audit_update_record
;
2020-03-11 deposited with the CCDC.	2020-03-30 downloaded from the CCDC.
;
_cell_angle_alpha                98.959(5)
_cell_angle_beta                 97.490(6)
_cell_angle_gamma                115.238(5)
_cell_formula_units_Z            2
_cell_length_a                   8.2052(6)
_cell_length_b                   8.6043(5)
_cell_length_c                   9.7408(6)
_cell_measurement_reflns_used    11194
_cell_measurement_temperature    100
_cell_measurement_theta_max      71.455
_cell_measurement_theta_min      4.71
_cell_volume                     599.38(8)
_computing_molecular_graphics    'Olex2 (Dolomanov et al., 2009)'
_computing_publication_material  'Olex2 (Dolomanov et al., 2009)'
_computing_structure_refinement  'ShelXL (Sheldrick, 2015)'
_computing_structure_solution    'ShelXT (Sheldrick, 2015)'
_diffrn_ambient_temperature      100
_diffrn_measured_fraction_theta_full 0.995
_diffrn_measured_fraction_theta_max 0.995
_diffrn_measurement_device_type  'STOE StadiVari'
_diffrn_radiation_type           CuK\a
_diffrn_radiation_wavelength     1.54186
_diffrn_reflns_av_R_equivalents  0.1034
_diffrn_reflns_av_unetI/netI     0.1115
_diffrn_reflns_Laue_measured_fraction_full 0.995
_diffrn_reflns_Laue_measured_fraction_max 0.995
_diffrn_reflns_limit_h_max       9
_diffrn_reflns_limit_h_min       -9
_diffrn_reflns_limit_k_max       10
_diffrn_reflns_limit_k_min       -7
_diffrn_reflns_limit_l_max       11
_diffrn_reflns_limit_l_min       -11
_diffrn_reflns_number            10770
_diffrn_reflns_point_group_measured_fraction_full 0.995
_diffrn_reflns_point_group_measured_fraction_max 0.995
_diffrn_reflns_theta_full        67.496
_diffrn_reflns_theta_max         67.495
_diffrn_reflns_theta_min         4.711
_exptl_absorpt_coefficient_mu    6.812
_exptl_absorpt_correction_T_max  0.3959
_exptl_absorpt_correction_T_min  0.0270
_exptl_absorpt_correction_type   sphere
_exptl_absorpt_process_details
'R. H. Blessing, Acta Cryst. (1995). A51, 33 - 38.'
_exptl_crystal_colour            'clear light colourless'
_exptl_crystal_colour_lustre     clear
_exptl_crystal_colour_modifier   light
_exptl_crystal_colour_primary    colourless
_exptl_crystal_density_diffrn    1.776
_exptl_crystal_description       plate
_exptl_crystal_F_000             320
_exptl_crystal_size_max          0.1
_exptl_crystal_size_mid          0.1
_exptl_crystal_size_min          0.05
_exptl_crystal_size_rad          0.07
_refine_diff_density_max         0.547
_refine_diff_density_min         -0.354
_refine_diff_density_rms         0.084
_refine_ls_extinction_method     none
_refine_ls_goodness_of_fit_ref   0.763
_refine_ls_hydrogen_treatment    constr
_refine_ls_matrix_type           full
_refine_ls_number_parameters     154
_refine_ls_number_reflns         2150
_refine_ls_number_restraints     0
_refine_ls_restrained_S_all      0.763
_refine_ls_R_factor_all          0.0883
_refine_ls_R_factor_gt           0.0487
_refine_ls_shift/su_max          0.000
_refine_ls_shift/su_mean         0.000
_refine_ls_structure_factor_coef Fsqd
_refine_ls_weighting_details
'w=1/[\s^2^(Fo^2^)+(0.0513P)^2^] where P=(Fo^2^+2Fc^2^)/3'
_refine_ls_weighting_scheme      calc
_refine_ls_wR_factor_gt          0.1049
_refine_ls_wR_factor_ref         0.1115
_reflns_Friedel_coverage         0.000
_reflns_number_gt                1108
_reflns_number_total             2150
_reflns_threshold_expression     'I > 2\s(I)'
_cod_data_source_file            d0cc01887b2.cif
_cod_data_source_block           eg075y
_cod_depositor_comments
'Adding full bibliography for 7126312--7126319.cif.'
_cod_original_cell_volume        599.38(7)
_cod_database_code               7126315
_shelx_shelxl_version_number     2014/7
_shelx_space_group_comment
;
The symmetry employed for this shelxl refinement is uniquely defined
by the following loop, which should always be used as a source of
symmetry information in preference to the above space-group names.
They are only intended as comments.
;
_shelx_estimated_absorpt_t_max   0.727
_shelx_estimated_absorpt_t_min   0.549
_olex2_refinement_description
;
1. Fixed Uiso
 At 1.2 times of:
  All C(H) groups
2.a Aromatic/amide H refined with riding coordinates:
 C6(H6), C3(H3), C8(H8), C10(H10), C9(H9), C11(H11), C4(H4), C1(H1)
;
_shelx_res_file
;
    eg075y.res created by SHELXL-2014/7

TITL eg075y_a.res in P-1
REM Old TITL
REM SHELXT solution in P-1
REM R1 0.164, Rweak 0.016, Alpha 0.046, Orientation as input
REM Formula found by SHELXT: C11 N2 Zn Cl2 O
CELL 1.54186 8.2052 8.6043 9.7408 98.959 97.49 115.238
ZERR 2 0.0006 0.0005 0.0006 0.005 0.006 0.005
LATT 1
SFAC C H Cl N O Zn
UNIT 22 16 4 4 2 2

L.S. 99 0 0
PLAN  10
SIZE 0.1 0.1 0.05
TEMP -173.15
list 4
fmap 2 53
acta
OMIT 0 135
OMIT -1 -4 3
REM <olex2.extras>
REM <HklSrc "%.\\EG075y.hkl">
REM </olex2.extras>

WGHT    0.051300
FVAR       0.69528
ZN1   6    0.516650    0.865129    0.211749    11.00000    0.07132    0.03325 =
         0.06341    0.01179    0.01122    0.02331
CL2   3    0.331320    0.963437    0.296133    11.00000    0.07050    0.03919 =
         0.06403    0.00757    0.00881    0.02721
CL1   3    0.765402    1.072013    0.167381    11.00000    0.07834    0.03938 =
         0.08814    0.02253    0.02069    0.02201
N1    4    0.611619    0.725975    0.330406    11.00000    0.05658    0.03229 =
         0.04575    0.00831    0.00845    0.01840
N2    4    0.361158    0.610957    0.087950    11.00000    0.06093    0.03423 =
         0.04692    0.00992    0.00873    0.02213
O1    5    0.899481    0.456877    0.634539    11.00000    0.07521    0.06575 =
         0.06879    0.02407   -0.00875    0.02547
C7    1    0.376947    0.485546    0.145689    11.00000    0.05428    0.03188 =
         0.04955    0.00975    0.01120    0.02221
C5    1    0.526417    0.550846    0.275319    11.00000    0.06012    0.03857 =
         0.04853    0.01025    0.01643    0.02283
C6    1    0.582815    0.441334    0.337875    11.00000    0.05560    0.03043 =
         0.04572    0.00914    0.00945    0.01686
AFIX  43
H6    2    0.523660    0.317254    0.299198    11.00000   -1.20000
AFIX   0
C3    1    0.812465    0.695652    0.511513    11.00000    0.05353    0.04629 =
         0.04976    0.00595    0.00684    0.01915
AFIX  43
H3    2    0.911333    0.748634    0.593206    11.00000   -1.20000
AFIX   0
C8    1    0.263394    0.309445    0.086639    11.00000    0.06498    0.04079 =
         0.05338    0.01276    0.00507    0.02747
AFIX  43
H8    2    0.276623    0.222094    0.129108    11.00000   -1.20000
AFIX   0
C10   1    0.114127    0.388187   -0.095927    11.00000    0.05979    0.05461 =
         0.04433    0.00926    0.00155    0.03171
AFIX  43
H10   2    0.025477    0.357063   -0.181543    11.00000   -1.20000
AFIX   0
C9    1    0.129838    0.260858   -0.035118    11.00000    0.06100    0.04363 =
         0.05730    0.00868    0.00571    0.02318
AFIX  43
H9    2    0.049016    0.139439   -0.076649    11.00000   -1.20000
AFIX   0
C11   1    0.229456    0.561564   -0.030195    11.00000    0.06472    0.05023 =
         0.06249    0.02640    0.02051    0.03160
AFIX  43
H11   2    0.215847    0.650685   -0.069723    11.00000   -1.20000
AFIX   0
C4    1    0.751310    0.795987    0.444133    11.00000    0.06823    0.03495 =
         0.05552    0.00513    0.01602    0.01762
AFIX  43
H4    2    0.811154    0.920579    0.480150    11.00000   -1.20000
AFIX   0
C2    1    0.725737    0.516348    0.456663    11.00000    0.06008    0.04871 =
         0.04784    0.01576    0.01387    0.02643
C1    1    0.783554    0.399130    0.528077    11.00000    0.06488    0.05565 =
         0.05858    0.01699    0.00795    0.02605
AFIX  43
H1    2    0.725661    0.275685    0.486778    11.00000   -1.20000
AFIX   0
HKLF 4

REM  eg075y_a.res in P-1
REM R1 =  0.0487 for    1108 Fo > 4sig(Fo)  and  0.0883 for all    2150 data
REM    154 parameters refined using      0 restraints

END

WGHT      0.0513      0.0000

REM Highest difference peak  0.547,  deepest hole -0.354,  1-sigma level  0.084
Q1    1   0.4484  0.7330  0.1347  11.00000  0.05    0.55
Q2    1   0.5558  0.9811  0.2339  11.00000  0.05    0.52
Q3    1   0.6379  1.0395  0.0877  11.00000  0.05    0.50
Q4    1   0.2745  0.8443  0.3141  11.00000  0.05    0.42
Q5    1   0.4050  0.8610  0.1470  11.00000  0.05    0.37
Q6    1   0.3805  1.0758  0.3294  11.00000  0.05    0.34
Q7    1   0.5175  0.7543  0.2669  11.00000  0.05    0.32
Q8    1   0.2670  0.9428  0.3604  11.00000  0.05    0.27
Q9    1   0.9087  0.2122  0.5414  11.00000  0.05    0.27
Q10   1   0.0867  0.5883  0.0356  11.00000  0.05    0.26
;
_shelx_res_checksum              46337
_shelx_hkl_file
;
  -2  -1   3  144.59   54.21   0
  -3   4   5  191.13   34.08   0
  -3  -1   6   -5.47   42.92   0
  -3   2   3   81.99   34.29   0
  -3   4   4   57.60   37.13   0
  -3   0   4 1060.71   70.23   0
  -3   3   3  592.19   47.59   0
  -2   0   2 5973.30  167.24   0
  -3   1   3 1291.61   73.01   0
  -2   4   2  405.29   50.83   0
  -2   5   4    9.98   32.33   0
  -4   2   6  184.16   36.09   0
  -4   3   6   22.91   34.48   0
  -4   1   6   -0.06   38.29   0
  -4   2   5   65.18   38.63   0
  -4   3   5   -1.51   32.85   0
  -3  -1   5  666.52   70.87   0
  -3   4   3  434.13   46.32   0
  -2  -2   4  434.82   76.74   0
  -2   5   3  165.41   39.67   0
  -1   4   1  170.95   40.56   0
   0   3   0  153.62   64.17   0
  -2   2   1   33.42   39.40   0
  -4   1   5  495.58   52.02   0
  -4   4   5   14.83   33.03   0
  -3   5   4   31.04   32.85   0
  -2   3   1   23.71   39.99   0
  -4   2   4   20.58   34.98   0
  -3   3   2  717.19   57.33   0
  -4   0   6   -7.25   41.89   0
  -4   4   4   17.56   28.56   0
  -3   0   3 1288.74   79.69   0
  -3   4   2 1184.64   62.61   0
  -3   5   3  344.41   45.06   0
  -2   1   1  742.51   66.98   0
  -2   5   2   18.53   34.21   0
  -4   1   4 1909.36   82.40   0
  -2   4   1  162.86   45.14   0
  -1   2   0  512.72   77.27   0
  -4   3   3   87.25   34.27   0
  -3  -1   4  211.45   51.77   0
  -3   1   2  181.48   47.48   0
  -4   0   5  220.05   47.72   0
  -4   2   3   53.43   36.72   0
  -4   4   3   17.47   31.20   0
  -4   5   4   87.35   39.83   0
  -1   3   0  806.05   76.35   0
  -5   3   5  130.49   36.76   0
  -5   2   5   67.71   39.35   0
  -3   5   2   50.10   33.73   0
  -5   3   4   23.54   35.15   0
  -5   4   4    3.90   29.63   0
  -3   3   1  126.37   37.83   0
  -1   1   0  151.76   76.97   0
  -4   0   4  567.58   61.75   0
  -4   3   2  215.25   34.52   0
  -4   4   2   35.01   27.49   0
  -3   2   1   32.46   42.40   0
  -2  -1   2   60.39   56.22   0
  -2   5   1  285.39   48.00   0
  -5   1   5   11.82   41.57   0
  -4   2   2  267.85   40.16   0
  -5   3   3   42.13   34.74   0
  -5   4   3   -8.12   26.92   0
  -3   0   2  119.65   49.13   0
  -2   0   1   -9.35   53.18   0
  -2   3   0  930.03   72.48   0
  -1   4   0   31.40   39.06   0
  -5   5   3  -21.18   28.92   0
  -3   5   1  868.68   58.96   0
  -3   6   2    4.28   36.69   0
  -2   2   0  440.10   58.15   0
  -3  -1   3  173.36   49.01   0
  -2   4   0  185.05   45.82   0
  -5   1   4   32.85   38.36   0
  -3   1   1  141.47   52.39   0
  -4   4   1  219.91   40.65   0
  -5   4   2   27.26   32.49   0
  -4   0   3 1448.79   84.28   0
  -4   3   1    4.26   28.05   0
  -4   6   2   48.00   36.91   0
  -5   3   2   59.09   31.68   0
  -5   5   2   71.25   30.18   0
  -4   5   1  606.67   50.69   0
  -2  -2   3  349.30  100.13   0
  -3   3   0 1905.30   84.22   0
  -6   4   3  120.77   40.49   0
  -4   2   1  906.56   60.50   0
  -3   6   1  298.03   55.71   0
  -6   2   4   48.40   41.76   0
  -5   1   3  195.19   46.97   0
  -2   1   0   81.83   49.96   0
  -2   5   0   -0.76   41.79   0
  -5   2   2  126.42   32.44   0
  -4   6   1  302.76   49.79   0
  -3   2   0 1056.97   68.40   0
  -3   5   0  260.73   45.95   0
  -5   4   1  180.35   41.65   0
  -5   0   4   -2.60   45.27   0
  -5   5   1   27.61   28.53   0
  -6   4   2   26.30   33.56   0
  -5   3   1  535.98   55.39   0
  -4   4   0  991.08   61.51   0
  -6   2   3    1.75   40.52   0
  -4   3   0  613.54   56.06   0
  -4   5   0  181.27   41.35   0
  -5   6   1   27.11   34.15   0
  -4   0   2  143.98   42.57   0
  -6   1   4  -23.74   49.39   0
  -6   3   2   71.48   32.89   0
  -5   1   2   41.79   38.69   0
  -2   3  -1  254.18   54.57   0
  -1   0   0 2896.30  170.92   0
  -5   2   1  555.71   55.21   0
  -3  -1   2  717.51   81.64   0
  -3   6   0    5.52   41.04   0
  -1   3  -1   88.28   53.44   0
  -4   2   0  195.78   48.02   0
  -4   6   0   16.85   38.75   0
  -3   1   0   86.24   44.79   0
  -2   4  -1   15.94   41.32   0
  -6   4   1   26.99   35.51   0
  -6   5   1    4.66   28.31   0
  -5   0   3   55.40   48.24   0
  -5   4   0   26.09   36.90   0
  -5   5   0   71.90   35.74   0
  -6   2   2   94.43   45.78   0
  -3   3  -1  740.97   68.49   0
  -2   2  -1 1449.69   92.34   0
  -1   2  -1  314.54   70.93   0
  -6   1   3   10.60   44.78   0
  -6   3   1  -12.41   36.22   0
  -5   3   0  211.56   42.81   0
  -5   6   0   42.35   38.73   0
  -3   5  -1   72.96   40.95   0
  -4   4  -1  714.42   59.24   0
  -4   5  -1  382.75   52.06   0
  -2   0   0  295.03   70.72   0
  -2   5  -1  542.26   70.50   0
  -1   4  -1    3.43   41.35   0
  -3   2  -1   -0.77   38.82   0
  -2  -1   1 2296.15  142.82   0
  -6   5   0   47.93   33.67   0
  -5   1   1  616.12   62.62   0
  -4   3  -1   11.98   34.45   0
  -6   4   0   11.09   34.84   0
  -4   0   1  820.46   70.46   0
  -4   1   0  120.47   43.10   0
  -5   2   0   30.13   27.82   0
  -6   2   1  146.84   41.34   0
  -5   0   2   67.44   48.80   0
  -5   4  -1   27.14   37.13   0
  -6   1   2   14.16   40.85   0
  -2   1  -1   37.49   55.24   0
  -6   3   0   99.69   39.20   0
  -5   6  -1  122.77   46.04   0
  -4   2  -1  611.27   60.32   0
  -5   3  -1  106.41   45.79   0
  -1   1  -1 1105.45   98.46   0
   0  -1   1  803.18  137.13   0
  -3   1  -1   28.26   48.59   0
  -6   5  -1   -2.64   27.55   0
  -4  -1   2  137.00   57.42   0
  -4   4  -2  937.99   67.50   0
  -3   3  -2 1498.33   82.46   0
  -6   4  -1   13.74   27.72   0
  -4   5  -2  380.22   55.30   0
  -3   5  -2   53.02   40.10   0
  -2   4  -2   84.93   47.99   0
  -6   2   0    2.67   38.17   0
  -5   1   0   33.90   30.49   0
  -3  -1   1   17.43   51.61   0
  -6   1   1   10.43   37.93   0
  -5   2  -1 1058.12   73.45   0
  -4   3  -2  817.21   63.71   0
  -5   4  -2  306.01   50.91   0
  -6   3  -1  163.55   43.05   0
  -5   0   1  482.64   69.06   0
  -4   1  -1    3.90   35.16   0
  -4   6  -2  128.37   49.56   0
  -3   2  -2  234.33   50.02   0
  -2   2  -2  195.88   55.44   0
  -5   6  -2    6.39   35.12   0
  -2   5  -2    1.74   37.14   0
  -5   3  -2  221.96   41.96   0
  -4   2  -2   53.63   41.25   0
  -2   0  -1  120.33   60.00   0
  -1   3  -2   77.58   49.07   0
  -6   2  -1  156.30   47.31   0
  -6   1   0   14.05   37.65   0
  -5   1  -1  359.69   50.12   0
  -4   4  -3   47.18   37.62   0
  -4   5  -3  205.16   48.24   0
  -3   4  -3  -16.17   38.23   0
  -1   2  -2 2833.82  123.08   0
  -4  -1   1  130.55   60.09   0
  -3   1  -2   29.20   42.53   0
  -6   3  -2   46.47   38.89   0
  -5   2  -2   63.63   30.01   0
  -5   5  -3  247.32   47.95   0
  -3   3  -3  148.66   36.89   0
  -2   1  -2  926.96   65.36   0
  -5   4  -3   -5.06   35.29   0
  -4   3  -3   70.88   34.48   0
  -1  -1   5   10.54   38.41   0
   4   1   2  200.64   70.71   0
   0   1   2 2994.32  106.16   0
   0   1   3  744.63   55.05   0
   1   1   0 1003.36  100.21   0
   3   1   4   37.67   37.48   0
   0  -1   7   -4.43   31.54   0
   0   0   6   58.11   34.22   0
  -1  -2   2  661.88  175.42   0
  -1   0   3   -2.80   42.45   0
   0   1   4   73.70   30.46   0
   1   1   5  400.29   42.78   0
  -1  -1   6   53.90   42.16   0
   0   1   5  626.96   47.94   0
   0   1   1 2331.11  115.35   0
   1   1   6  -17.02   26.44   0
   2   2   3  600.99   61.28   0
  -1   0   6   81.45   38.06   0
   0   1   6   78.56   36.20   0
   1   2   3  180.93   33.95   0
   1   2   4   33.64   24.71   0
   2   2   4  356.04   52.85   0
  -1   1   4  925.14   59.03   0
   2   2   1 1559.77   94.20   0
  -1   1   3  240.95   45.73   0
  -1   1   5   23.20   33.37   0
   0   2   3  417.82   46.81   0
   3   2   2   45.20   50.34   0
   3   2   3   19.41   52.04   0
   0   2   4  163.13   31.96   0
   1   2   5  -14.17   26.18   0
  -1   0   7    4.54   31.68   0
   0   1   7   27.87   31.57   0
   2   2   5   22.43   31.86   0
  -1   1   6  218.35   40.47   0
   0   2   2  667.84   53.69   0
   0   2   5   18.26   27.88   0
  -1   1   2    9.71   57.35   0
  -1   2   4  896.11   55.52   0
  -1   2   5   68.72   31.55   0
  -2   0   5  293.15   48.77   0
  -1   2   3  228.04   38.09   0
  -2  -1   5  498.79   75.68   0
  -2  -1   6  121.08   56.82   0
  -2   0   6    7.95   35.10   0
  -1   2   6  349.67   47.67   0
   1   3   3   34.55   32.07   0
   1   3   4   94.73   37.00   0
  -2   0   4   40.20   43.40   0
   0   2   1  331.55   49.35   0
   2   2   0   17.11   36.55   0
  -2   1   5   36.23   38.16   0
   0   3   3   40.45   27.91   0
   0   3   4    1.48   22.65   0
   1   3   5   44.84   36.79   0
   2   3   3   44.65   47.39   0
   2   3   4   53.95   46.18   0
  -2   1   6   44.31   36.60   0
   0   3   5   54.20   29.61   0
   1   3   2  356.83   40.67   0
  -1   2   2  213.72   41.00   0
   2   3   2  976.14   78.80   0
  -2  -1   4  280.87   73.52   0
  -2   1   7  216.99   46.71   0
  -1   3   4  477.77   45.15   0
  -1   3   5  219.17   39.39   0
   0   3   2  106.64   28.80   0
   1   2   0    5.16   35.45   0
  -2   2   5   17.55   24.72   0
  -2   2   4 1134.97   59.38   0
  -1   3   3   87.37   28.74   0
   1   3   1   98.18   36.91   0
  -2   0   3   12.43   46.18   0
  -2   2   7   -2.19   32.54   0
   0   1   0   18.03   53.55   0
  -2   2   3   35.79   33.50   0
  -1   1   1 1482.69   95.99   0
  -2   3   5  506.29   41.88   0
  -1   3   2 1358.86   62.30   0
   0   4   4  115.22   32.71   0
  -2   3   4 1567.46   65.45   0
  -2   3   6   56.42   28.65   0
   0   4   3  147.09   35.02   0
  -1   2   1 1677.79   83.13   0
  -1   4   4   13.96   28.28   0
  -3   1   6   98.69   41.11   0
  -2   3   3  206.21   32.01   0
  -1   4   3  227.90   36.20   0
   1   4   2  253.48   46.57   0
  -3   1   7   75.59   45.19   0
  -3   2   6   34.67   37.03   0
  -1   0   1   94.00   64.67   0
   0   4   2   -1.01   23.26   0
  -3   1   5  753.17   60.71   0
  -3   2   5  131.80   36.54   0
   0   2   0 1026.70   78.93   0
  -3   2   7    0.34   36.76   0
  -2   2   2  729.52   53.30   0
  -2   4   4   63.48   34.10   0
  -2   4   5  360.93   35.63   0
  -2   1   2 9627.03  195.98   0
  -1   4   2  320.54   36.70   0
  -3   2   4  315.34   45.39   0
  -3   3   6   14.17   28.11   0
  -1   3   1   -4.31   29.52   0
   1   3   0 3391.59  125.60   0
  -2   3   2 1906.30   72.68   0
  -2   4   3 1215.82   60.54   0
  -3   0   5  802.40   85.40   0
  -3   1   4  384.62   48.45   0
  -3   3   4  597.77   47.80   0
   0   4   1  611.43   49.43   0
   1   4   1    6.71   36.43   0
   0   5   3  158.37   39.94   0
  -3   4   5  139.18   31.60   0
  -1   5   3  170.33   31.66   0
  -3   4   4   74.19   30.67   0
  -2   4   2  406.52   41.12   0
  -2   5   4    4.17   25.96   0
  -3   3   3  555.86   43.25   0
  -1   4   1  140.72   32.29   0
  -2   5   3  150.07   32.95   0
  -1   5   2  129.15   25.98   0
  -3   4   3  557.10   43.28   0
  -4   2   6  100.95   47.99   0
  -4   3   6   31.32   35.31   0
  -3   1   3 1234.31   79.20   0
  -2   3   1    6.53   35.24   0
  -4   3   5   -9.04   33.81   0
  -3   0   4 1094.07   93.22   0
  -3   5   4   16.46   22.00   0
  -2   0   2 6382.82  218.37   0
  -2   2   1   22.43   35.60   0
  -4   2   5  108.70   39.87   0
  -2   5   2   25.63   22.64   0
  -4   4   5   19.64   28.21   0
  -3   3   2  698.80   52.84   0
  -3   5   3  323.63   40.84   0
  -2   4   1  158.77   36.40   0
  -1   2   0  507.36   62.89   0
  -1   3   0  779.18   60.25   0
   0   4   0   69.04   34.22   0
   0   5   1  198.97   41.64   0
   1   4   0  393.49   55.73   0
  -4   3   4  101.87   34.97   0
  -1   5   1  383.52   41.71   0
  -3   4   2 1245.98   57.06   0
  -3   2   2  510.88   46.95   0
  -4   2   4   23.97   33.01   0
  -4   5   4   40.10   33.88   0
  -3   5   2   53.48   31.98   0
  -2   5   1  305.72   35.75   0
  -1   6   2  442.32   51.72   0
  -4   4   3   33.28   29.67   0
  -2   6   2  120.87   34.18   0
  -2   1   1  756.33   76.79   0
  -4   5   3   57.57   27.89   0
   1   2  -1 2327.92  161.56   0
  -3   4   1  340.27   37.94   0
  -1   5   0   56.51   33.88   0
  -1   6   1  132.30   40.53   0
   0   5   0  156.76   46.16   0
  -3   3   1  139.18   33.38   0
  -3   6   2   19.64   22.46   0
  -2   3   0 1018.01   65.45   0
  -2   4   0  203.57   42.39   0
  -1   1   0  168.24   59.55   0
  -4   2   3   45.12   36.53   0
  -3   5   1 1021.50   58.73   0
  -2   6   1  157.03   37.92   0
   1   3  -1  953.54   93.45   0
  -5   3   5   87.33   50.68   0
  -4   4   2   31.83   26.78   0
  -3   1   2  158.97   48.42   0
   0   3  -1  167.59   48.40   0
  -5   4   4    7.39   34.65   0
  -4   1   4 1885.45  111.65   0
  -4   5   2    7.02   25.07   0
  -3   6   1  324.33   40.66   0
  -5   3   4   47.62   41.37   0
  -4   6   2   40.15   29.80   0
  -3   2   1   25.28   34.38   0
  -2   2   0  490.19   65.62   0
   0   2  -1  491.05   79.11   0
   0   4  -1   13.86   37.64   0
  -5   4   3  -12.43   38.50   0
  -1   4  -1    8.52   41.43   0
  -1   6   0  433.09   60.58   0
  -1   3  -1  110.04   42.03   0
   1   1  -6   44.58   37.13   0
   1   1  -4   -6.36   39.74   0
   2   0  -7  170.87   39.79   0
   5  -5  -5   22.29   25.45   0
   5  -5  -4  111.42   30.40   0
   2   0  -3    9.03   34.53   0
   3  -5   1  120.79   43.53   0
   3  -1  -7  126.26   36.91   0
   4  -4  -1  274.90   35.05   0
   4  -3  -2  217.66   35.67   0
   4  -2  -5   71.45   28.52   0
   5  -6  -3   48.52   32.26   0
   3  -3   0 2026.09   85.05   0
   3  -1  -3 1230.97   56.69   0
   4  -2  -6  143.22   31.82   0
   4  -2  -4   10.61   24.53   0
   5  -4  -5    8.73   24.61   0
   1   0  -1   88.47   37.66   0
   3  -2  -1   54.55   29.93   0
   5  -4  -4    6.46   22.01   0
   4  -2  -7    7.90   29.14   0
   5  -6  -2  169.09   38.75   0
   3  -1  -8   37.98   34.47   0
   4  -5   0  140.94   40.28   0
   5  -5  -2  106.21   34.64   0
   5  -4  -3   -2.61   24.43   0
   4  -2  -3   62.70   23.57   0
   5  -3  -5  128.79   32.75   0
   1   1  -3  791.11   70.30   0
   3  -4   1 1433.37   87.73   0
   5  -3  -6   12.50   24.30   0
   5  -3  -4   11.40   31.08   0
   3  -1  -2  146.37   30.86   0
   4  -3  -1   -7.29   21.17   0
   5  -6  -1   17.39   37.23   0
   2   0  -2 6436.02  137.38   0
   3   0  -6    9.02   27.64   0
   3   0  -5  861.29   60.14   0
   4  -4   0  933.04   57.29   0
   4  -2  -2  254.70   36.28   0
   4  -1  -6   25.43   24.95   0
   5  -5  -1   38.96   29.53   0
   5  -3  -3   26.93   27.47   0
   4  -1  -7    6.61   24.08   0
   2   1  -6  175.83   48.40   0
   2   1  -5  538.80   59.54   0
   5  -2  -6    0.97   27.29   0
   5  -2  -5   52.75   29.05   0
   6  -4  -5   78.97   31.23   0
   6  -5  -3   27.77   26.49   0
   3  -2   0 1066.54   60.98   0
   5  -4  -1  211.94   40.34   0
   5  -3  -2   67.97   28.49   0
   5  -2  -7   71.23   28.09   0
   5  -2  -4   94.83   30.64   0
   6  -4  -4    2.06   21.55   0
   4  -1  -3 1760.36   66.67   0
   6  -6  -2  144.10   46.98   0
   2  -1   0   96.96   41.58   0
   2   1  -4  312.04   46.24   0
   3   0  -3 1267.86   63.22   0
   6  -4  -3  118.19   33.10   0
   3  -1  -1  178.09   32.47   0
   6  -5  -2   58.39   33.93   0
   6  -3  -5   38.90   28.10   0
   4  -3   0  626.92   49.57   0
   4  -2  -1  905.97   52.54   0
   5  -2  -3   40.31   22.48   0
   2  -2   1 1362.98   87.57   0
   3  -3   1  685.03   60.91   0
   5  -5   0   27.81   33.22   0
   6  -3  -4   15.49   25.24   0
   4   0  -6   13.67   27.52   0
   1   1  -2  407.75   53.29   0
   4   0  -5  274.14   43.53   0
   5  -1  -6  159.26   35.75   0
   2   0  -1   -2.44   39.63   0
   4  -1  -2  112.53   25.26   0
   4   0  -7    6.45   32.93   0
   5  -1  -7   -1.86   32.96   0
   5  -1  -5    6.61   19.48   0
   6  -3  -3  102.40   35.50   0
   5  -2  -2  121.25   31.66   0
   6  -5  -1   24.23   30.76   0
   3   0  -2  130.98   29.94   0
   3   1  -6   -3.38   32.98   0
   4  -4   1  655.34   61.85   0
   4   0  -4  578.86   44.43   0
   5  -4   0   23.65   27.67   0
   5  -1  -4   29.57   23.09   0
   6  -2  -5  167.45   37.63   0
   0   2  -4    4.41   42.10   0
   6  -3  -2   59.48   27.47   0
   6  -2  -4   39.54   24.89   0
   1   2  -5    3.97   28.70   0
   3   1  -4  228.11   41.47   0
   5  -1  -3  118.88   29.74   0
   6  -4  -1   19.04   30.10   0
   4  -2   0  163.73   31.22   0
   4  -1  -1 1020.04   50.61   0
   6  -2  -3   36.43   27.03   0
   7  -5  -2   28.38   37.19   0
   3  -1   0  123.35   31.31   0
   5  -3   0  214.15   36.41   0
   2   1  -2   51.39   34.55   0
   6  -1  -6  134.50   35.49   0
   1   2  -4  249.50   51.59   0
   3  -2   1    6.95   28.79   0
   4  -3   1   -0.52   24.49   0
   5   0  -7    5.64   30.62   0
   5   0  -5   40.87   27.02   0
   6  -5   0   23.90   33.59   0
   6  -1  -5    8.61   27.77   0
   1   0   0 2801.08  116.88   0
   3   0  -1   37.73   22.72   0
   5  -1  -2   46.93   20.60   0
   7  -4  -2   13.38   27.47   0
   4   0  -2  153.83   26.13   0
   4   1  -6   11.37   28.77   0
   4   1  -5   57.65   31.97   0
   5   0  -4    0.48   22.97   0
   6  -2  -2   69.97   28.49   0
   7  -3  -3   61.79   25.28   0
   2   2  -5    5.68   33.90   0
   6  -1  -4    3.77   19.62   0
   5  -4   1   14.21   33.00   0
   6  -4   0   20.78   28.51   0
   7  -5  -1   72.95   35.78   0
   4   1  -4   45.31   33.39   0
   1  -1   1 1154.39  102.64   0
   2   2  -4  368.54   54.48   0
   5   0  -3   47.21   24.51   0
   6  -1  -3   12.76   23.49   0
   2   0   0  309.68   41.48   0
   2  -1   1   16.69   33.34   0
   3   1  -2  740.98   47.35   0
   4  -1   0  144.79   26.98   0
   5  -1  -1  613.43   40.02   0
   1   2  -3 1244.43   85.35   0
   6  -2  -1  155.42   29.55   0
   7  -2  -3    7.13   20.30   0
   3   2  -5   91.74   43.35   0
   4  -2   1  581.29   45.97   0
   4   0  -1  859.88   45.70   0
   4   1  -3   98.53   24.68   0
   6  -3   0  109.66   33.49   0
   5  -3   1   90.51   32.47   0
   6  -1  -2   -9.04   24.07   0
   6   0  -5   12.52   24.03   0
   2  -3   2   61.99   61.25   0
   2   1  -1 2268.27   76.35   0
   5   0  -2   75.79   22.71   0
   5   1  -6   86.92   36.28   0
   5   1  -5    0.64   31.66   0
   2   2  -3  354.31   43.78   0
   3  -3   2 1449.63   94.03   0
   3   0   0  350.50   32.73   0
   3   2  -4   23.68   29.30   0
   6   0  -4   12.01   27.23   0
   7  -3  -1   73.81   32.81   0
   3  -1   1    9.97   23.36   0
   7  -2  -2    5.16   19.88   0
   5   1  -4   93.50   29.47   0
   6  -4   1   11.52   32.71   0
   0   2  -3 1051.68  126.81   0
   4   1  -2  112.11   25.62   0
   6   0  -3   -1.30   21.78   0
   7  -4   0    7.57   30.55   0
   3   1  -1   14.36   19.39   0
   5  -1   0   13.15   18.45   0
   0   1  -1  863.36  101.82   0
   3   2  -3   19.89   29.07   0
   4   2  -5   19.15   36.34   0
   5  -2   1 1045.34   58.38   0
   6  -1  -1    7.36   19.21   0
   4  -3   2  852.58   63.16   0
   5   0  -1  526.50   38.29   0
   5   1  -3    5.36   19.70   0
   4  -1   1    3.89   22.65   0
   4   0   0  247.19   28.27   0
   4   2  -4  193.77   39.25   0
   1   2  -2  713.05   52.51   0
   6  -3   1  169.55   32.73   0
   6   0  -2   33.01   23.73   0
   7  -3   0   47.38   30.64   0
   3  -2   2  198.69   36.23   0
   7  -1  -2    4.13   16.95   0
   4   1  -1  158.10   23.21   0
   2  -2   2  164.74   42.08   0
   4   2  -3    8.25   27.13   0
   5   1  -2  148.42   25.95   0
   6   1  -4   30.92   28.99   0
   2   0   1  140.14   32.10   0
   2   1   0   20.90   23.97   0
   4  -2   2   56.58   26.80   0
   5  -3   2  186.96   40.46   0
   6  -1   0   25.11   20.88   0
   3   0   1   -0.42   26.07   0
   5   2  -5    6.89   38.24   0
   3   1   0  156.67   24.75   0
   5   0   0   72.83   21.96   0
   6  -2   1  176.00   32.54   0
   6   0  -1   32.12   20.78   0
   7  -2   0   -8.61   22.77   0
   1   1   0 1026.51   58.89   0
   5   2  -4  263.82   51.40   0
   7  -1  -1    9.63   16.07   0
   2   2  -1 1056.26   50.99   0
   2   3  -4   45.61   27.73   0
   4   0   1  425.51   33.08   0
   5   1  -1    7.45   17.01   0
   7  -3   1   -5.17   27.87   0
   3   2  -1  278.38   31.51   0
   3   3  -4   21.94   31.64   0
   4   1   0  497.02   33.22   0
   5  -2   2   59.12   26.64   0
   5   2  -3  157.27   35.24   0
   1   0   1    0.69   28.22   0
   1   2  -1 2383.00   78.17   0
   6   1  -2  115.86   26.79   0
   2   3  -3   99.48   28.63   0
   4  -1   2   48.12   25.54   0
   6  -3   2   44.36   33.00   0
   6   0   0  -20.11   19.84   0
   3   3  -3    7.19   19.43   0
   4   2  -1   -1.55   18.97   0
   5   0   1  233.13   30.07   0
   4   3  -4  -10.62   34.90   0
   1   3  -3 1187.82   68.19   0
   2   1   1 1148.94   50.58   0
   3   1   1  870.34   40.03   0
   5   1   0   88.27   23.50   0
   6   1  -1   16.69   22.44   0
   2   3  -2  204.61   30.29   0
   5  -1   2  106.60   25.79   0
   6  -2   2   -2.71   24.35   0
   0   2  -2  419.85   63.47   0
   2   2   0   36.31   19.20   0
   3   0   2   21.59   22.30   0
   3   2   0   13.32   21.13   0
   3   3  -2  144.37   30.61   0
   4   3  -3  122.73   34.93   0
   4  -3   3   32.22   34.72   0
   4   1   1    0.17   16.69   0
   2   0   2  114.98   31.50   0
   4   0   2   48.05   18.13   0
   5   2  -1   89.26   23.39   0
   4  -2   3   13.55   25.33   0
   4   2   0   35.42   20.92   0
   6   0   1   14.60   21.94   0
   1   2   0   -9.28   27.83   0
   1   3  -2   86.29   25.30   0
   4   3  -2   11.98   20.61   0
   1   1   1  264.00   36.22   0
   5   1   1    0.35   19.87   0
   6  -1   2   25.53   25.70   0
   6   1   0  120.98   24.19   0
   5  -2   3  222.80   37.34   0
   4  -1   3   59.68   25.10   0
   3  -1   3  209.37   30.90   0
   3   1   2   -9.22   21.67   0
   3   2   1  522.22   35.52   0
   5   2   0   20.58   17.44   0
   2   2   1 1512.93   50.31   0
   1   3  -1 1029.72   49.89   0
   2   1   2   36.71   25.00   0
   4   1   2  217.27   26.25   0
   4   2   1   26.04   20.77   0
   5  -1   3  113.23   33.62   0
   3   4  -3    0.81   26.16   0
   6  -2   3  137.89   42.13   0
   2   3   0  722.55   37.69   0
   2   4  -3   28.31   23.10   0
   3   3   0   37.07   17.11   0
   6   0   2   77.66   23.80   0
   4   0   3  168.37   25.90   0
   0   1   0    6.75   31.04   0
   1   0   2 4604.11  114.00   0
   1   2   1 1286.58   52.19   0
   2   4  -2   60.40   25.63   0
   3   4  -2   30.87   26.48   0
   4   3   0   46.25   23.79   0
   5   1   2   18.59   19.67   0
   2  -1   3  111.47   29.37   0
   5   2   1   38.82   20.37   0
   1   3   0 3425.44   77.67   0
   5   0   3   25.42   26.19   0
   3   2   2   38.70   18.79   0
   4   4  -2   47.26   33.28   0
   1   1   2  552.56   41.00   0
   2   2   2  637.10   34.95   0
   2   4  -1    9.67   20.72   0
   3   3   1   36.13   22.20   0
   3   4  -1   25.06   27.59   0
   4   2   2   10.33   21.84   0
   1   4  -3   -1.20   20.06   0
   2   3   1  414.74   30.50   0
   3   1   3  604.20   37.38   0
   4   1   3  174.70   27.80   0
   1   4  -2 1007.20   52.42   0
   2  -2   3  686.17   68.65   0
   4  -2   4   21.16   26.79   0
   4   3   1   -5.60   21.57   0
   0   2   0 1012.51   59.32   0
   2   1   3  799.23   42.60   0
   4  -1   4   33.10   29.86   0
   4   4  -1   16.42   23.57   0
   0   3  -2  355.71   46.99   0
   5  -1   4  120.92   36.70   0
   1   2   2   15.03   24.35   0
   1   3   1   80.39   25.99   0
   1   4  -1  323.82   32.68   0
   3  -1   4   20.15   24.79   0
   3   4   0   74.06   22.52   0
   0   3  -1  181.62   32.31   0
   4   0   4    8.76   25.77   0
   3  -2   4  131.91   40.21   0
   3   0   4  -13.70   23.85   0
   3   2   3   63.33   23.97   0
   3   3   2  246.36   32.34   0
   2   3   2  905.15   41.56   0
   0   1   1 2292.46   89.35   0
   1   4   0  451.28   33.19   0
   2   2   3  578.73   34.93   0
   4   2   3    8.19   18.13   0
   4   3   2   -0.89   18.72   0
   5   0   4   54.11   28.31   0
   0   2   1  328.22   41.26   0
   2   4   1    6.01   19.49   0
   3   4   1   81.47   28.16   0
   1   1   3 1158.78   52.03   0
   2   5  -2   66.98   30.79   0
   4   1   4   71.62   28.56   0
   1   3   2  332.50   27.74   0
   2   0   4  278.77   31.02   0
   2  -1   4 1300.96   70.12   0
   2   5  -1   25.23   26.64   0
   1   2   3  195.64   29.30   0
   1   4   1    5.77   15.06   0
   3   3   3  407.69   37.86   0
   4  -3   2  858.45   61.69   0
   4  -1   0  194.80   38.27   0
   6  -3   0  148.32   31.80   0
   2  -4   3  145.67   45.95   0
   5  -4   2  284.27   43.26   0
   6  -4   1  -11.57   28.22   0
   3  -4   3   -6.14   34.41   0
   4  -6   3  157.66   57.19   0
   5  -1  -1  640.52   57.72   0
   6  -2  -1  123.49   37.51   0
   2   1  -2   63.74   50.83   0
   3  -2   2  266.58   43.05   0
   3  -1   1    1.74   29.02   0
   4  -5   3  206.82   39.22   0
   6  -6   2   52.11   29.95   0
   7  -4   0   10.83   30.60   0
   6  -1  -3   -8.07   37.96   0
   7  -3  -1  106.23   37.08   0
   3   1  -3  186.72   68.68   0
   6  -5   2   15.68   28.01   0
   7  -5   1   35.14   30.88   0
   7  -2  -3   -1.38   42.96   0
   5  -6   3  199.06   50.32   0
   2  -3   3  856.00   66.03   0
   4   0  -1  835.29   64.97   0
   5  -3   2  220.03   38.87   0
   5  -2   1 1015.03   57.47   0
   6  -3   1  178.64   39.24   0
   3   0   0  326.20   49.38   0
   5  -5   3  301.25   44.76   0
   6  -1  -2  -15.90   38.97   0
   4  -2   2   59.91   26.31   0
   6  -4   2   34.88   30.24   0
   7  -2  -2   18.11   31.61   0
   4  -1   1    4.98   31.51   0
   7  -4   1   36.10   31.82   0
   5  -4   3   -1.93   28.21   0
   1  -3   3 2396.01  132.52   0
   4  -3   3   73.80   27.07   0
   5   0  -2   84.09   43.61   0
   2  -1   2  928.38   60.19   0
   3   1  -2  706.62   84.57   0
   6  -1  -1   32.04   34.86   0
   7  -2  -1    8.41   31.09   0
   3  -5   4   36.51   46.59   0
   3  -1   2    0.68   26.11   0
   4  -5   4  104.66   50.00   0
   6  -3   2   47.42   31.72   0
   1  -1   2 4133.53  129.39   0
   2  -2   3  610.82   51.67   0
   2   0   1  137.33   40.08   0
   3  -2   3  564.32   50.09   0
   5  -2   2   45.19   25.47   0
   6  -2   1  130.23   30.11   0
   2   1  -1 2317.40  116.78   0
   3  -4   4   64.47   36.73   0
   5  -3   3   77.11   32.90   0
   7  -3   1   -5.94   20.66   0
   5  -6   4   44.54   46.31   0
   5  -1   1  360.22   35.93   0
   5   0  -1  510.70   59.95   0
   6  -4   3   19.67   24.82   0
   1   0   1   14.24   38.83   0
   3   0   1    3.28   29.92   0
   5  -5   4  680.74   64.01   0
   7  -2   0   10.54   28.51   0
   2  -4   4    3.91   41.64   0
   4  -2   3   18.27   23.55   0
   4  -1   2   23.29   23.88   0
   6  -1   0  -16.20   31.79   0
   1  -2   3    8.15   41.08   0
   3  -3   4   -3.95   33.35   0
   3   1  -1   12.21   38.70   0
   5  -4   4    0.76   28.99   0
   2  -3   4  131.20   40.72   0
   4   1  -2  135.68   51.63   0
   6  -2   2   19.88   25.97   0
   4   0   1  417.10   39.08   0
   5   0   0   86.10   35.95   0
   6  -3   3  174.68   33.18   0
   5  -2   3  207.31   36.19   0
   7  -2   1    8.38   26.99   0
   2  -1   3  144.51   38.64   0
   3  -1   3  223.87   33.46   0
   5  -1   2  108.49   25.70   0
   6  -1   1  172.48   38.09   0
   5  -3   4  310.97   39.46   0
   2   0   2  133.20   32.05   0
   3  -2   4  158.89   30.60   0
   3   0   2   22.90   29.40   0
   3   1   0  179.27   41.11   0
   4  -5   5   54.98   49.27   0
   4   1  -1  118.35   47.10   0
   4  -1   3   48.44   24.25   0
   6   0  -1   10.93   39.39   0
   4  -4   5   13.37   37.25   0
   4  -2   4    9.15   23.01   0
   5  -5   5   29.51   42.24   0
   5   0   1  246.90   42.11   0
   3  -4   5   83.58   37.66   0
   6  -2   3  144.45   37.42   0
   1  -1   3    4.15   38.09   0
   4   0   2   52.09   23.74   0
   5  -4   5  -18.17   34.93   0
   6  -3   4   24.00   28.36   0
   1   0   2 4619.43  120.25   0
   4   1   0  513.39   57.03   0
   6   0   0   14.65   35.68   0
   1   1   0 1043.94   77.13   0
   3  -3   5  134.45   30.80   0
   4  -3   5   79.55   33.93   0
   5  -2   4    6.02   24.23   0
   5  -1   3  124.94   29.44   0
   1  -3   4    3.54   43.56   0
   2   1   1 1159.28   61.11   0
   3  -1   4   47.34   24.87   0
   5   1  -1    2.27   43.82   0
   2  -1   4 1214.63   61.78   0
   2   0   3  131.83   34.36   0
   3   0   3   90.08   24.60   0
   1  -2   4 1253.16   77.42   0
   4  -1   4    5.05   25.56   0
   4   1   1   10.72   31.56   0
   6   0   1   11.00   31.97   0
   4  -2   5   21.44   27.33   0
   4   0   3  149.34   31.96   0
   5   1   0   94.70   47.41   0
   1   1   1  283.67   50.11   0
   2  -2   5   31.82   29.18   0
   2   1   2   30.44   27.51   0
   3   1   2    2.03   22.72   0
   4  -4   6   31.17   40.10   0
   5  -2   5   18.10   31.15   0
   5  -1   4   94.69   30.18   0
   1   0   3  167.28   34.80   0
   4  -3   6  103.47   38.16   0
   5   0   3   61.36   27.08   0
   5   1   1   -4.00   33.93   0
   6   0   2   53.83   38.35   0
   3  -3   6   19.45   32.90   0
   3  -1   5   -8.18   26.85   0
   3   0   4    8.16   20.58   0
   4  -1   5   30.55   27.51   0
   0   0   1   73.73   38.61   0
   1   1   2  549.13   51.19   0
   2  -1   5    6.01   25.81   0
   3   2  -1  275.88   46.45   0
   4   0   4   34.47   25.92   0
   3   1   3  638.99   47.72   0
   3   2   0   18.45   29.84   0
   2   1   3  755.40   46.38   0
   2   2   0   16.47   33.90   0
   3  -2   6  138.40   41.67   0
   5   1   2   23.54   35.90   0
   2   2  -1  962.86   75.59   0
   1  -3   5  356.26   63.54   0
   1  -2   5  227.35   44.38   0
   1   0   4 1117.00   60.83   0
   2  -3   6  144.10   47.22   0
   3   2   1  563.99   53.00   0
   4   2   0   33.36   40.55   0
   5   0   4   44.94   23.51   0
   0  -1   3   80.35   41.97   0
   0   0   2  742.87   69.44   0
   2  -2   6  663.17   54.52   0
   2   2   1 1505.08   69.11   0
   0  -2   3 1045.20  123.13   0
   1   1   3 1048.24   57.37   0
   3   0   5  148.28   31.74   0
   1  -1   5  574.59   50.42   0
   2   0   5  488.78   43.88   0
   4   2   1    7.52   40.81   0
   2   1   4   67.60   27.97   0
   3   1   4   47.47   26.43   0
   3   2   2   61.33   34.88   0
   4  -1   6    3.83   25.83   0
   5   1   3    2.97   27.72   0
   2  -1   6  647.25   54.31   0
   0   0   3  334.26   49.70   0
   3  -3   7   21.22   39.36   0
   4   1   4   39.75   25.43   0
   1   2   1 1246.55   64.69   0
   4   2   2   11.02   38.93   0
   1   0   5   41.26   28.00   0
   1   1   4  342.86   38.22   0
   1   2   0  -10.17   30.12   0
   3  -2   7    5.74   35.47   0
   0  -1   4  438.24   55.76   0
   1   2   2   38.03   32.64   0
   2   2   3  553.67   40.81   0
   1  -2   6  225.35   48.98   0
   2   2  -2   77.13   57.27   0
   3   0   6    7.33   25.97   0
   3   1   5  208.08   39.90   0
   0   1   1 2300.69  106.19   0
   0   1   2 2979.08   98.72   0
   2   0   6  196.35   35.18   0
   2   1   5  141.01   28.88   0
   4   2   3   -0.91   31.11   0
   0   0   4   86.25   35.99   0
   2  -2   7   13.71   33.60   0
   3  -1   7   24.45   32.53   0
   0  -2   4    8.03   43.25   0
   0   1   3  778.44   56.21   0
   1   2   3  187.65   28.18   0
   1   1   5  407.98   41.31   0
   2   2   4  372.85   34.97   0
   3   2   4  234.03   37.52   0
   2  -1   7    9.64   30.49   0
   2   3   1  397.90   45.31   0
   3   3   1   57.55   39.59   0
   0  -1   5   20.05   32.73   0
   0   1   4  101.53   34.13   0
   1   2  -1 2374.73  128.83   0
   1   2   4   26.81   21.47   0
   3   1   6   15.40   26.34   0
   2   1   6   11.61   23.97   0
   2   3   0  686.58   55.85   0
   2   3   2  932.10   54.90   0
   3   3   2  280.01   47.03   0
   2   2   5    3.38   28.96   0
   0   2   2  657.95   48.94   0
   1  -2   7   82.99   51.96   0
   1  -1   7   18.92   36.81   0
   2   3   3   83.78   34.68   0
   3   2   5   61.57   26.17   0
   0   2   3  412.81   37.95   0
   1   1   6   10.07   23.36   0
   1   3   1  106.43   31.95   0
   3   3   3  415.00   55.28   0
   0   1   5  654.22   43.79   0
   0   2   1  323.40   43.79   0
   1   2   5   13.42   22.86   0
   0   1   0    7.40   40.14   0
   1   0   7  147.90   40.89   0
   1   3   3   16.08   24.80   0
   0  -1   6   32.17   34.48   0
   0   0   6   77.45   35.78   0
   0   2   4  127.07   28.11   0
   1   3   0 3328.34  107.10   0
   2   1   7   21.26   26.31   0
   2   2   6   -7.50   26.21   0
   1   3   4   60.77   27.27   0
   0   2   5    2.74   29.48   0
   1   2   6   -1.59   28.54   0
   0   3   2  116.67   32.35   0
   0   3   3   45.41   29.80   0
   2   3   5   66.47   30.46   0
   1  -1   8   28.79   40.66   0
   1   3   5   80.80   30.17   0
   0  -1   7    7.40   37.32   0
   0   0   7   79.58   37.53   0
   0   2   0 1008.13   73.54   0
   0   3   4   16.28   22.86   0
   1   0   8   10.33   39.17   0
   2   4   2  258.27   46.27   0
  -1   1   3  214.21   41.50   0
  -1   1   4  841.74   51.64   0
   0   2   6  257.88   33.63   0
   2   4   1   36.61   33.79   0
  -1   0   4   29.89   34.60   0
   0   1   7   21.82   32.72   0
   1   2   7    3.73   25.83   0
   1   4   2  245.60   39.32   0
   2   4   3   35.97   29.97   0
  -1   0   5   34.42   31.19   0
  -1   2   3  219.80   38.14   0
  -1   2   4  838.86   51.34   0
   0   3   5   62.43   30.40   0
   1   4   3  161.28   30.81   0
   1   3   6   19.94   25.24   0
   1   4   1   -0.41   28.52   0
  -1   1   2   11.73   45.60   0
  -1   2   5  105.67   32.25   0
   1   4   4   -2.06   23.74   0
  -1   1   6  273.23   43.54   0
  -1   2   2  198.57   38.79   0
   0   2   7   73.92   35.84   0
  -1   0   6   92.65   35.77   0
   0   0   8   49.20   41.31   0
   0   3   6   -7.19   27.13   0
   0   4   2    4.17   28.97   0
   1   3  -1  989.92   76.47   0
  -1   3   3   76.94   26.34   0
  -1   3   4  468.94   36.96   0
   0   4   4  124.56   29.12   0
  -1   2   6  457.72   38.64   0
   0   3   0  122.57   36.81   0
   1   4   0  411.00   49.81   0
  -1  -1   5   40.93   39.77   0
  -1   3   2 1330.76   60.64   0
  -1   3   5  266.92   32.63   0
  -1   1   7   59.08   33.64   0
   0   4   1  559.53   45.53   0
   0   4   5  160.36   31.09   0
  -1  -1   4   14.88   41.07   0
  -1   0   7    8.50   39.34   0
  -1  -1   6   26.12   44.38   0
  -1   3   6  376.02   36.32   0
  -1   0   2 2041.44  110.61   0
  -1   2   1 1636.54   79.70   0
  -1   4   3  274.53   31.87   0
  -1   4   4   35.60   22.26   0
   1   5   3    5.37   30.87   0
   1   5   2   62.07   34.99   0
  -1   3   1   -0.74   34.24   0
  -1   4   2  336.38   38.49   0
  -1   4   5  247.22   32.43   0
  -1   1   8   61.50   40.75   0
  -1   3   7   27.88   29.24   0
   0   5   3  167.59   31.94   0
  -2   2   4 1067.68   54.25   0
  -2   2   5   18.62   22.13   0
  -1   4   6   -4.75   25.93   0
   0   4   0   72.68   37.62   0
   0   5   2  147.11   32.16   0
  -2   1   5   69.54   35.09   0
  -2   3   4 1546.99   59.33   0
  -2   3   5  472.39   42.19   0
  -1   1   1 1490.16   88.51   0
  -2   1   6   73.58   33.52   0
  -2   2   3   34.09   36.34   0
  -2   3   3  184.46   30.75   0
  -2   3   6   56.37   30.99   0
   0   5   1  200.84   35.21   0
  -2   4   4   88.45   29.60   0
  -2   2   7   25.52   26.32   0
  -2   4   5  353.24   36.24   0
  -1   5   2  151.49   33.28   0
  -1   5   5   25.94   29.05   0
  -2   1   7  324.89   43.35   0
  -2   4   3 1262.55   55.45   0
  -2   4   6  -28.16   23.42   0
  -1  -2  -6   -0.81   26.20   0
   0  -3  -4   16.87   28.42   0
   0   0  -5   17.62   24.31   0
   0   1  -2 2664.80   96.33   0
  -3   3  -7    0.46   21.11   0
  -3   4  -6  172.35   36.62   0
  -2   2  -7   -1.47   20.75   0
  -2   3  -6  216.64   27.74   0
   0  -2  -5   24.16   21.75   0
   0   1  -4  415.80   37.30   0
  -1   0  -7  160.94   26.02   0
  -2   4  -4    3.19   23.67   0
  -2   4  -3  165.29   37.06   0
  -1  -1  -7   51.01   23.81   0
  -1   1  -7   17.19   20.65   0
   0  -1  -6  120.41   22.48   0
   0   1  -5   19.96   18.46   0
  -1   3  -4    3.59   21.73   0
   0  -3  -5   90.59   29.42   0
   0   0  -6   62.65   19.90   0
  -2   3  -7   54.18   26.21   0
  -2   4  -5   31.34   28.55   0
  -1  -3  -6   37.04   33.08   0
  -1   3  -3 2307.97   85.66   0
   0  -2  -6  275.56   34.34   0
  -3   4  -7   15.88   30.30   0
  -1  -2  -7   18.57   28.83   0
  -1   3  -5  363.71   34.09   0
  -1   2  -7   70.60   23.97   0
   0   1  -6   15.34   18.48   0
   1  -1  -4  857.18   46.25   0
   1  -1  -3  192.27   31.16   0
  -2   4  -6   74.02   29.29   0
  -1   0  -8   28.86   19.76   0
   0  -1  -7   15.29   19.49   0
   0   0  -7   86.38   25.49   0
   1  -3  -3   66.67   31.24   0
  -1   1  -8   16.90   20.85   0
  -1   3  -6   -1.34   17.29   0
   0  -3  -6   -4.18   26.83   0
   1  -3  -4  485.56   40.23   0
   1  -1  -5   50.49   19.32   0
   1  -1  -2    0.43   31.41   0
   0  -2  -7   86.54   28.96   0
   1   0  -4   47.89   23.96   0
  -2   3  -8   25.07   21.12   0
   0   1  -7    1.19   17.02   0
   0   1  -1  721.41   71.23   0
   0   2  -6   52.37   19.72   0
   1  -1  -6  255.80   29.22   0
   1   0  -5   17.16   17.64   0
   1   0  -3   -1.28   25.15   0
  -2   4  -7   80.16   32.01   0
  -1   3  -7  170.81   28.54   0
  -1   3  -2   82.16   32.29   0
   1  -3  -5  244.52   29.71   0
   1  -2  -6  472.72   37.06   0
   0  -1  -8  158.08   30.54   0
   0   0  -8   84.98   23.44   0
   1   0  -6   75.70   22.12   0
   0   1  -8    6.77   19.98   0
   1  -1  -7   27.18   21.37   0
   1  -3  -6  311.23   36.33   0
   1  -2  -1 1727.92   96.71   0
  -1   3  -8   28.07   24.57   0
   1  -2  -7  152.57   25.77   0
   1   0  -7   20.12   19.07   0
   1   1  -5   19.24   19.03   0
   1   0  -2 1916.08   76.26   0
   1   1  -6   53.61   18.24   0
   1   1  -4   16.80   20.79   0
  -1   4  -5  299.88   39.93   0
   1   1  -7  189.20   27.24   0
  -1   4  -6  122.24   28.92   0
   0   3  -6    5.52   20.02   0
   0   3  -5 2042.87   65.60   0
   1  -3  -7   38.66   31.24   0
   1  -3  -1   -3.62   38.23   0
   1  -1  -8   77.66   21.96   0
   1   0  -8   36.19   21.66   0
   1   1  -3  797.17   47.80   0
   2  -1  -5   71.53   22.53   0
  -1   4  -7  392.45   41.15   0
   0   3  -7  289.49   32.44   0
   2  -1  -6   90.27   22.37   0
   2  -1  -4   -3.99   22.68   0
  -1   4  -4  415.50   43.65   0
   0   3  -4   52.53   28.48   0
   1   1  -8   15.64   20.13   0
   2  -3  -5  448.42   38.46   0
   2  -3  -4 1489.09   62.02   0
   2  -3  -6   92.19   27.55   0
   2  -2  -7   19.72   22.63   0
   2  -1  -7  305.75   26.74   0
   2   0  -6   -8.27   17.96   0
   2   0  -5  224.22   26.64   0
   0   3  -8  102.65   24.98   0
   2  -3  -3  191.12   34.13   0
   2  -1  -3  179.66   29.36   0
   2   0  -7  184.94   25.44   0
   2  -3  -7   94.99   29.24   0
   2  -1  -8   19.27   21.90   0
   2   0  -4   39.36   19.13   0
   2  -2  -8   40.06   25.38   0
   2  -4  -4   87.36   33.51   0
   2   0  -8   40.18   19.52   0
   2   1  -7  384.48   32.87   0
   2   1  -6  149.88   21.37   0
   2   1  -5  478.42   34.31   0
   0   3  -3  677.43   47.83   0
   2   1  -8    4.20   20.24   0
   2   0  -3   13.25   20.21   0
   0   4  -7  243.36   36.27   0
   0   4  -6  107.59   32.21   0
   1   3  -7   13.67   23.93   0
   1   3  -6   32.05   21.93   0
   2  -3  -2 1965.37   85.65   0
   3  -1  -6  131.84   24.43   0
   2   1  -4  271.83   28.22   0
   3  -3  -6   26.77   26.55   0
   3  -3  -5   19.46   23.08   0
   3  -2  -7    4.46   19.31   0
   3  -1  -7  179.77   23.96   0
   3  -1  -5  774.30   40.32   0
   1   3  -8   58.74   22.80   0
   2  -1  -2 9104.27  141.41   0
   1   0  -1   80.16   31.13   0
   3  -3  -7    9.58   23.44   0
   3  -2  -8   38.38   26.21   0
   3  -1  -8   12.45   21.15   0
   3  -3  -4  548.56   39.17   0
   3   0  -7  316.23   29.31   0
   3   0  -6   11.26   16.43   0
   2   2  -8   67.48   20.04   0
   3  -1  -4  343.59   29.27   0
   3   0  -8   24.13   21.32   0
   3  -4  -5  150.46   41.89   0
   3   0  -5  844.48   39.11   0
   1   3  -4   30.34   23.72   0
   2   1  -3  108.96   25.71   0
   3  -4  -4   70.40   32.98   0
   3  -3  -3  626.81   44.96   0
   3   1  -7  193.51   24.41   0
   2   0  -2 6063.33  112.44   0
   3   0  -4 1086.00   44.24   0
   3   1  -8   -6.50   16.63   0
   3   1  -6    8.37   15.56   0
   3  -1  -3 1184.67   51.83   0
   3   1  -5  633.48   38.18   0
   2   3  -8    8.06   24.71   0
   2   3  -7   37.95   24.70   0
   4  -3  -7   36.86   26.23   0
   4  -3  -6   46.00   29.07   0
   4  -1  -7   -6.39   18.78   0
   4  -1  -6   13.83   22.17   0
   4  -3  -5    2.23   22.24   0
   1   4  -6   12.18   34.40   0
   2   3  -6   64.46   27.09   0
   3  -4  -3  633.37   56.09   0
   3   2  -8   24.54   24.02   0
   3   2  -7  108.42   26.51   0
   4   0  -7    2.42   17.58   0
   3   0  -3 1313.88   51.33   0
   4  -2  -4   17.60   20.67   0
   4   0  -6   16.96   18.86   0
   3   1  -4  208.72   25.83   0
   4  -3  -4  108.66   27.67   0
   2   3  -5   47.87   23.37   0
   3  -2  -2  484.08   37.81   0
   4  -4  -5   22.20   31.65   0
   0   3  -2  316.95   46.50   0
   2  -1  -1  810.46   57.33   0
   3  -3  -2  764.60   51.85   0
   4  -1  -4 1932.54   60.23   0
   4   0  -5  286.51   28.36   0
   1   3  -3 1257.31   61.36   0
   1   4  -5    3.63   22.20   0
   2   1  -2   54.03   29.85   0
   4   1  -7   33.57   20.23   0
   1   1  -1  933.65   62.56   0
   2  -3  -1    9.94   37.52   0
   3  -1  -2  153.84   27.31   0
   3   2  -5  106.62   23.06   0
   4  -4  -4   21.95   33.90   0
   0   2  -1  456.45   62.85   0
   4   1  -6   46.67   21.24   0
   4  -3  -3  134.92   29.04   0
   4  -2  -3   53.82   21.12   0
   5  -3  -6   -0.20   27.05   0
   5  -1  -7    6.63   21.15   0
   4   0  -4  535.94   34.02   0
   2   3  -4   62.29   28.52   0
   3   1  -3  193.45   25.74   0
   3   3  -7  103.24   28.56   0
   4   1  -5   84.92   23.11   0
   5  -2  -5   99.03   25.98   0
   5  -1  -6  191.92   27.84   0
   4  -1  -3 1432.02   52.46   0
   5  -3  -5  139.10   31.84   0
   2   0  -1   -6.62   35.66   0
   3   0  -2  139.97   24.60   0
   3   2  -4   29.87   18.43   0
   5  -1  -5   21.00   23.52   0
   5   0  -7    1.98   20.61   0
   3  -4  -2 1283.58   84.80   0
   3   3  -6   39.00   26.63   0
   4  -4  -3   21.38   35.71   0
   4   2  -7    2.58   23.49   0
   1   4  -4   -1.22   24.17   0
   5  -4  -5   25.96   31.15   0
   5  -2  -4  113.99   25.59   0
   5   0  -6  108.35   22.13   0
   4   2  -6   99.04   29.33   0
   5  -3  -4   41.59   22.42   0
   4   0  -3 1505.93   53.31   0
   4   1  -4   65.83   19.40   0
   4  -2  -2  276.53   32.31   0
   5  -1  -4   30.75   20.24   0
   5   0  -5   33.25   21.93   0
   3  -2  -1   39.79   29.73   0
   3   3  -5   16.52   21.94   0
   4  -3  -2  208.12   33.09   0
   5  -4  -4   -4.00   31.71   0
   4   2  -5   26.97   25.35   0
   3  -1  -1  164.37   35.10   0
   3   2  -3   24.28   23.70   0
   4  -1  -2   99.64   22.65   0
   5   1  -6   69.99   28.91   0
   2   3  -3  117.47   27.92   0
   3  -3  -1  124.76   40.94   0
   5  -3  -3   53.32   27.19   0
   5  -2  -3   64.01   20.13   0
   1  -1   0  152.87   48.78   0
   5   0  -4   -2.46   19.68   0
   6  -3  -5   54.54   30.98   0
   6  -1  -6  159.60   29.18   0
   4   1  -3  134.37   25.64   0
   5  -1  -3  181.89   29.44   0
   5   1  -5   26.20   21.27   0
   1   3  -2   87.72   26.97   0
   3   3  -4   42.50   25.19   0
   4  -4  -2   19.21   36.47   0
   4   0  -2  141.07   23.46   0
   4   2  -4  246.51   33.24   0
   5  -4  -3   -4.22   30.79   0
   6  -4  -5   92.24   45.28   0
   6  -1  -5   -8.52   18.58   0
   3   0  -1   40.57   22.76   0
   4   3  -6   86.73   37.08   0
   6  -3  -4    6.43   26.94   0
   6  -2  -4   57.64   24.13   0
   5   0  -3   60.17   23.68   0
   5   1  -4   90.35   25.10   0
   5  -3  -2   74.81   30.32   0
   5  -2  -2  116.62   23.25   0
   6  -4  -4   13.45   33.36   0
   6  -1  -4   -2.53   19.15   0
   6   0  -5   31.12   24.70   0
   2  -1   0  101.25   41.84   0
   3   2  -2  823.16   46.26   0
   4  -3  -1   -0.79   25.29   0
   4  -1  -1  998.44   48.05   0
   4   3  -5   63.03   31.14   0
   5  -1  -2   33.73   24.18   0
   4   1  -2  150.60   27.24   0
   5   2  -5   29.47   21.80   0
   6  -3  -3  161.46   30.25   0
   6  -2  -3   24.00   22.93   0
   4   2  -3    5.36   18.85   0
   5  -4  -2   22.47   31.31   0
   6   0  -4   29.45   23.53   0
   3   1  -1    5.57   22.26   0
   3   3  -3   12.05   25.34   0
   2   0   0  323.15   41.41   0
   2   3  -2  220.31   32.63   0
   5   1  -3   -0.58   16.91   0
   6  -4  -3  181.45   42.29   0
   6  -1  -3    3.32   18.76   0
   2   2  -1 1000.41   54.59   0
   4   0  -1  844.58   42.40   0
   5   0  -2   83.52   21.52   0
   3  -2   0 1117.64   60.90   0
   3  -1   0  133.26   35.46   0
   4   3  -4    5.46   25.06   0
   5   2  -4  373.94   41.86   0
   4  -4  -1  270.22   45.80   0
   5  -2  -1  581.06   40.82   0
   5  -3  -1  543.14   44.16   0
   6  -3  -2   83.03   30.74   0
   6  -2  -2   86.64   25.55   0
   6   0  -3    2.98   21.53   0
   1   1   0  971.97   65.27   0
   3   0   0  372.89   36.71   0
   5  -1  -1  588.93   36.30   0
   4   2  -2  142.89   25.32   0
   6  -4  -2    2.62   30.87   0
   6  -1  -2  -11.81   19.61   0
   7  -3  -3  100.36   30.05   0
   2   1   0   13.80   24.61   0
   3  -3   0 2206.26   93.46   0
   4  -2   0  154.79   27.60   0
   4   1  -1  164.30   24.04   0
   5   1  -2  166.09   23.54   0
   7  -2  -3   34.51   23.81   0
   3   2  -1  277.37   32.79   0
   3   3  -2  165.84   30.18   0
   4  -1   0  160.29   24.96   0
   5  -4  -1  222.38   39.12   0
   5   2  -3  165.61   29.23   0
   4  -3   0  590.86   46.43   0
   4   3  -3  131.95   26.41   0
   5   0  -1  527.62   37.32   0
  -7   5  -1    0.45   25.10   0
  -6   5  -1   -5.67   21.87   0
  -5   5   0   42.91   28.37   0
  -4   1  -4   27.87   28.39   0
  -4   4  -2  982.15   58.75   0
  -2   3   0 1153.45   64.96   0
  -4   0  -4   37.62   35.67   0
  -6   4  -3    6.31   24.55   0
  -5   2  -4   -5.53   25.07   0
  -5   5  -1  177.25   40.48   0
  -3   0  -4  -18.19   28.84   0
  -3   1  -4   14.75   27.63   0
  -3   4   0 2012.39   86.12   0
  -3   4   1  363.22   52.67   0
  -1   1  -2 4172.90  111.43   0
  -5   4  -3    2.28   24.66   0
  -6   5  -2   24.19   28.62   0
  -3   3  -3  175.80   26.65   0
  -2   3  -1  290.59   34.51   0
  -5   3  -4  297.90   33.80   0
  -2   2  -3  738.45   42.71   0
  -4   4  -3   69.01   26.87   0
  -3   2  -4  169.34   25.83   0
  -1   2   0  553.04   56.98   0
  -4   3  -4  377.34   34.09   0
  -2   0  -4  321.58   43.24   0
  -1   0  -3  168.24   35.36   0
  -4   5   0  168.38   44.79   0
  -6   5  -3   -4.53   24.60   0
  -4   5  -1  412.79   46.36   0
  -4   5   1   -8.85   33.02   0
  -3   4  -2  834.57   46.88   0
  -2   3  -2   91.50   25.11   0
  -6   4  -4    3.16   19.76   0
  -6   6   0   37.97   39.17   0
  -5   4  -4    9.85   20.69   0
  -1   2  -1  327.47   39.05   0
  -6   6  -1   18.49   27.91   0
  -5   5  -3  229.63   37.91   0
  -5   2  -5   30.51   30.93   0
  -4   1  -5   -0.86   32.34   0
  -4   2  -5    8.55   26.19   0
  -3   3  -4   11.99   18.54   0
  -1   1  -3   22.61   29.62   0
  -6   6  -2   16.64   28.66   0
  -5   3  -5    8.69   20.23   0
  -3   1  -5    8.63   22.98   0
  -3   4  -3  -15.16   18.45   0
  -2   2  -4 1131.47   47.82   0
  -2   3  -3  857.56   43.48   0
  -1   2  -2 2714.83   78.53   0
  -5   6  -1   84.98   39.19   0
  -5   6   0   47.92   38.23   0
  -4   5  -3  188.63   30.08   0
  -3   2  -5  153.64   26.20   0
  -5   4  -5    2.80   21.29   0
  -5   6  -2   -2.84   29.86   0
  -3   4  -4   93.97   23.31   0
   0   0  -1   81.08   37.49   0
  -4   4  -5   -6.42   19.35   0
  -3   3  -5  105.10   20.96   0
  -5   6  -3  149.28   32.44   0
  -4   5  -4  129.67   24.28   0
  -3   5  -1   89.60   28.63   0
  -2   1  -5   -3.22   17.19   0
  -2   3  -4  146.89   22.33   0
  -1   0  -4 1025.63   57.52   0
  -1   2  -3   21.07   21.76   0
  -3   5  -2   35.50   25.80   0
  -2   0  -5  507.41   46.64   0
  -2   4  -2   86.51   23.31   0
  -2   4  -1   36.25   20.90   0
  -5   5  -5   42.68   18.72   0
  -4   2  -6   13.32   26.34   0
  -4   3  -6   37.34   29.08   0
  -3   5  -3  164.48   25.16   0
  -3   5   0  293.78   40.64   0
  -2   4   0  209.31   36.19   0
  -5   6  -4   25.41   24.50   0
  -4   6  -2  189.72   36.43   0
  -4   6  -1  368.10   46.72   0
  -3   4  -5   71.90   22.44   0
  -2   4  -3  154.24   22.75   0
  -4   5  -5   44.88   23.02   0
  -3   2  -6  206.87   32.81   0
   0   0  -2  746.53   58.77   0
  -4   4  -6   34.07   23.43   0
  -4   6  -3  219.80   36.63   0
  -3   1  -6  301.77   42.32   0
  -2   3  -5  271.64   28.47   0
  -1   2  -4 1208.63   48.45   0
   0  -1  -2 3040.83  160.22   0
  -3   5  -4   43.70   17.66   0
  -1   3  -2   93.22   23.76   0
  -2   4  -4   -2.26   14.64   0
  -5   7  -2    7.74   31.69   0
  -1   1  -5  537.03   38.18   0
  -5   7  -3   61.57   32.15   0
  -3   4  -6  179.37   23.96   0
  -3   5  -5   55.58   22.96   0
  -2   1  -6  721.39   48.63   0
  -2   2  -6  688.35   42.91   0
  -2   4  -5   22.63   19.87   0
  -1   0  -5   18.26   22.88   0
  -1   2  -5  231.86   27.87   0
  -1   3  -4   -8.72   20.39   0
   0   1  -2 2488.77   80.22   0
  -4   6  -5   40.14   22.37   0
  -2   3  -6  180.23   24.35   0
  -1   3   0  737.46   51.51   0
   0   1  -3   58.13   29.45   0
   0   1  -1  728.03   54.76   0
  -3   6  -3  259.48   32.17   0
  -2   4   1  147.39   37.27   0
  -2   5  -2    0.00   20.61   0
  -3   2  -7   18.26   28.15   0
  -3   3  -7    5.74   19.53   0
  -3   6  -2  108.33   25.69   0
  -3   5  -6   17.30   16.54   0
  -2   5  -4   -3.30   17.79   0
  -1   3  -5  362.33   28.03   0
  -3   6  -1  507.62   47.66   0
  -2   4  -6   68.60   20.12   0
  -2   5  -1  583.28   42.32   0
  -4   7  -3   74.59   31.64   0
  -1   4  -3  207.63   25.66   0
   0  -1  -3  780.29   69.31   0
   0   1  -4  380.86   33.99   0
  -4   7  -4   29.69   27.96   0
  -3   6  -5  159.20   23.73   0
  -2   2  -7    4.32   22.94   0
  -2   5  -5   12.01   16.24   0
  -1   1  -6  140.14   29.37   0
  -1   2  -6  234.82   26.42   0
  -1   4  -4  408.73   29.11   0
   0   0  -4   62.47   25.04   0
   0   2  -3 1043.04   45.78   0
   0   2  -2  376.02   37.99   0
  -2   3  -7   22.49   23.50   0
  -1   3  -6   13.28   18.85   0
   0   2  -4   16.13   21.47   0
  -3   5  -7    2.84   15.25   0
  -1   4  -5  312.05   26.40   0
  -3   6  -6    1.85   16.32   0
  -2   4  -7  110.92   24.63   0
  -2   5  -6   74.48   20.80   0
  -1   4  -1    5.48   19.35   0
   0   1  -5   19.66   18.66   0
   0   2  -5  414.59   30.88   0
   0   2  -1  442.89   38.14   0
  -2   5   0   -4.62   18.56   0
  -2   6  -4    7.14   20.99   0
  -1   4  -6  138.15   23.48   0
   0   0  -5   27.79   26.51   0
   0   3  -3  691.83   37.34   0
  -2   6  -3  354.57   28.77   0
  -1   2  -7   92.51   23.95   0
   0   3  -4   66.85   17.69   0
  -3   7  -4  233.69   32.33   0
  -3   7  -3  168.10   33.97   0
  -2   5  -7   18.44   18.48   0
  -1   5  -4  464.95   29.55   0
   0  -1  -4   89.44   37.38   0
  -2   3  -8   30.08   23.33   0
  -2   6  -2  469.45   36.69   0
  -1   1  -7   32.93   26.94   0
  -1   5  -3   20.80   20.54   0
   0   3  -5 1968.68   52.27   0
   0   3  -2  305.71   28.39   0
  -1   5  -5   55.69   17.04   0
   0   1  -6   29.28   19.83   0
   0   1   0    7.07   32.56   0
  -2   6  -6   30.01   16.60   0
  -1   4  -7  388.80   32.66   0
  -1   5  -6  466.32   30.91   0
  -1   5  -2   49.40   20.18   0
   0   3  -6   -0.19   17.66   0
   0   4  -4  821.23   35.04   0
  -1   3  -8   32.76   24.33   0
  -1   4   0   37.33   21.74   0
   0   0  -6   69.35   30.07   0
   0   4  -5  230.63   22.56   0
   0   4  -3 1158.01   43.50   0
  -1   2  -8   70.49   28.73   0
  -1   5  -7   86.27   22.68   0
   0   2  -7   49.73   22.39   0
  -1   4  -8    5.21   19.63   0
   0   4  -6  105.70   21.50   0
   1   1  -4    5.11   22.49   0
  -2   7  -5  128.07   29.99   0
  -2   7  -4   42.36   23.13   0
   0   1  -7    7.17   23.99   0
   1   1  -3  800.14   42.16   0
  -1   5  -1  442.48   37.28   0
  -1   6  -4   70.77   17.70   0
   0   4  -2  884.55   42.63   0
   1   2  -4  273.56   24.41   0
  -1   3   1   -3.38   26.89   0
  -1   6  -6  164.33   21.95   0
   0   4  -7  212.24   26.70   0
   1   0  -4   29.60   22.86   0
   1   0  -3    1.58   24.66   0
   1   2  -5   35.74   16.15   0
   1   2  -3 1273.92   45.61   0
  -1   6  -3  493.40   35.58   0
   0   5  -5  195.00   20.65   0
   1   1  -2  387.44   40.58   0
   1   2  -6  294.13   26.12   0
   0   2  -8   23.59   25.70   0
   0   3  -8   60.98   25.57   0
   0   5  -6   73.46   17.38   0
   1   0  -5   25.12   20.94   0
   1   1  -6   60.98   22.09   0
   1   3  -5 1353.85   43.14   0
   1   3  -4   36.69   15.56   0
   1   3  -6   65.63   18.15   0
   0   5  -3   80.52   21.60   0
   1   2  -2  683.23   39.17   0
   1   3  -3 1207.36   43.63   0
  -1   6  -2   32.83   26.02   0
   0   5  -7   34.82   15.64   0
   1   0  -2 1960.00   79.57   0
   1   2  -7    0.87   18.27   0
   0   4  -1   26.73   21.30   0
   1   0  -6   92.00   29.18   0
   1   1  -7  209.73   29.73   0
   1   3  -7    4.20   15.27   0
   1   4  -5   33.76   14.58   0
   1   4  -6   12.95   16.55   0
   1   4  -4  236.32   21.57   0
   0   5  -2 1239.84   50.30   0
   0   6  -5    0.23   19.35   0
   1   3  -2   84.82   23.40   0
  -1   7  -4   46.23   25.54   0
   1   4  -7    1.06   14.80   0
   0   3   0  130.25   28.23   0
   0   6  -4  167.22   27.63   0
   1   2  -8   53.25   24.12   0
   1   3  -8   43.49   23.04   0
   1  -1  -4  879.27   62.88   0
   1   1  -1  939.19   55.61   0
   1   5  -6  141.77   22.96   0
   1   5  -5   -1.55   19.49   0
   2   1  -5  484.15   31.81   0
   2   1  -4  274.77   28.99   0
   2   2  -5   15.79   14.69   0
   1  -1  -3  242.85   43.08   0
   2   2  -6  220.20   21.83   0
   2   2  -4  396.93   26.61   0
   0   6  -3  231.37   29.69   0
   1  -1  -5   46.24   32.14   0
   1   5  -7   10.04   14.55   0
   2   1  -6  149.80   23.48   0
   2   3  -5   47.04   18.83   0
   2   1  -3  133.88   25.81   0
   2   3  -6   76.86   19.62   0
   1   4  -2  949.12   43.11   0
   2   0  -5  259.82   29.57   0
   2   2  -7  284.67   27.60   0
   2   2  -3  373.56   29.51   0
   2   3  -4   82.99   17.56   0
   2   1  -7  422.86   37.92   0
   2   3  -7   36.34   16.50   0
   1   3  -1  977.23   46.10   0
   1   5  -3   31.95   18.56   0
   0   5  -1   54.80   22.37   0
   1   0  -1   78.26   34.64   0
   2   0  -6  -16.53   21.96   0
   2   0  -3   -0.24   26.08   0
   2   4  -6   49.23   15.73   0
   2   4  -5   11.37   15.89   0
   2   2  -8   86.07   21.85   0
   2   3  -8   -4.42   19.98   0
   2   3  -3  104.50   19.41   0
   2   4  -7    7.51   15.91   0
   1   6  -5  524.74   36.93   0
   2   4  -4   13.54   15.39   0
   2   1  -2   61.47   21.27   0
   2   2  -2  113.34   25.59   0
   0   4   0   60.57   24.04   0
   2   0  -7  153.90   35.39   0
   2   1  -8    5.61   23.57   0
   1   6  -4   99.09   24.13   0
   2   5  -6   84.49   22.09   0
   1  -1  -2    6.86   33.77   0
   2   4  -3    9.10   20.19   0
   3   1  -5  584.79   35.03   0
   3   2  -6  197.52   25.41   0
   3   2  -5  105.72   21.49   0
   1   4  -1  301.76   29.59   0
   1   5  -2  517.40   36.21   0
   2  -1  -5   78.65   29.15   0
   2  -1  -4    4.51   31.66   0
   2   0  -2 5602.66  107.90   0
   3   1  -4  182.01   23.14   0
   3   3  -6   45.36   16.44   0
   3   3  -5    0.19   19.04   0
   2   5  -4  375.86   34.41   0
   3   1  -7  155.00   27.94   0
   3   3  -7   93.36   20.96   0
   1   6  -3  129.09   27.20   0
   1   2   0    7.48   20.79   0
   3   0  -6   15.22   19.49   0
   3   0  -4 1121.67   49.14   0
   3   2  -8   47.14   22.32   0
   3   3  -4   49.47   16.19   0
   2  -1  -3  190.28   33.16   0
   3   1  -3  189.16   22.82   0
   3   2  -3   13.39   20.29   0
   3   4  -6   12.53   14.10   0
   2   4  -2   30.81   19.12   0
   3   1  -8   -6.99   24.63   0
   3   4  -5   20.91   15.34   0
   1   1   0  902.10   56.65   0
   2   5  -3  174.82   26.45   0
   3   0  -7  256.85   39.75   0
   3   3  -3   11.64   16.23   0
   2   3  -1 1222.02   49.17   0
   3   1  -2  665.40   35.05   0
   3   2  -2  738.97   38.68   0
   4   1  -5   46.45   21.17   0
   4   2  -6   80.81   20.02   0
   4   2  -5   42.35   20.30   0
  -7   3  -1   -4.31   29.72   0
  -5   4  -2  317.05   33.56   0
  -4   4  -2  906.62   46.49   0
  -7   5  -1    6.69   21.54   0
  -5   2  -2   56.71   31.28   0
  -3   5  -1   88.16   30.53   0
   0   1   0   11.55   41.57   0
  -6   6  -1   12.39   21.40   0
  -4   1  -2   50.27   30.45   0
  -2   2  -2  180.97   37.42   0
  -6   4  -2   17.95   21.46   0
  -5   5  -2  109.74   33.82   0
  -3   4  -2  774.04   44.09   0
  -1   4   1  151.21   42.81   0
  -6   3  -2   70.31   30.09   0
  -2   1  -2  936.15   55.21   0
  -6   5  -2   22.69   24.19   0
  -4   5  -2  346.66   33.67   0
  -4   6  -1  324.91   40.76   0
  -2   3  -2   83.12   27.19   0
  -2   5   0    2.16   27.28   0
  -5   7   0    1.89   32.80   0
  -6   2  -2   13.42   38.17   0
  -5   1  -2   64.92   43.96   0
  -3   6   0    6.47   30.36   0
  -6   6  -2   36.87   23.06   0
  -5   6  -2    0.22   22.18   0
  -4   3  -3   69.91   23.39   0
  -3   0  -2    9.00   34.08   0
  -5   3  -3   70.75   33.02   0
  -5   4  -3   28.78   21.87   0
  -4   4  -3   60.89   21.95   0
  -3   3  -3  178.40   31.22   0
  -5   7  -1   23.85   31.89   0
  -4   2  -3   -3.05   26.43   0
  -3   2  -3  593.44   44.43   0
  -2   4  -2   81.75   23.99   0
  -1   4   0   38.38   28.05   0
  -5   5  -3  274.51   36.15   0
  -4   6  -2  157.80   32.04   0
  -2   5  -1  577.46   46.55   0
  -6   5  -3    4.49   26.97   0
  -4   0  -2   40.72   38.76   0
  -4   5  -3  194.56   28.67   0
  -3   4  -3    6.12   18.77   0
  -2   0  -2  132.12   38.02   0
  -6   3  -3  154.50   39.37   0
  -5   2  -3  221.66   41.60   0
  -1   2  -2 2907.96   92.74   0
  -5   6  -3  130.10   33.22   0
  -5   7  -2    0.91   27.25   0
  -4   7  -1   34.29   38.40   0
  -3   1  -3  253.60   36.59   0
  -2   2  -3  683.73   47.28   0
  -2   3  -3  908.17   47.45   0
  -1   1  -2 4128.76  113.02   0
  -4   1  -3   62.89   34.69   0
  -3   5  -3  124.93   27.53   0
  -3   6  -2  125.68   28.37   0
  -1   3  -2   92.48   33.50   0
  -1   4  -1   -1.52   32.59   0
   0   2   0 1081.84   98.37   0
  -4   4  -4  704.04   48.50   0
  -2   5  -2   -0.72   23.75   0
  -5   4  -4   25.67   25.07   0
  -5   5  -4  502.43   47.25   0
  -2   4  -3  187.10   26.81   0
  -5   3  -4  218.01   44.15   0
  -4   7  -2   35.49   30.86   0
  -3   3  -4    1.84   25.80   0
  -6   4  -4   19.30   28.74   0
  -5   7  -3   21.19   28.68   0
  -4   5  -4  119.63   29.28   0
  -3   4  -4   66.21   24.74   0
  -4   2  -4   17.24   28.49   0
  -5   6  -4   44.83   22.03   0
  -3   6  -3  245.96   32.59   0
  -1   4  -2   78.55   28.34   0
  -6   3  -4   20.37   38.47   0
  -4   6  -4   -2.89   19.54   0
  -3   5  -4   58.32   19.20   0
  -2   5  -3  136.08   30.26   0
  -1   2  -3   25.20   29.66   0
  -5   2  -4    8.71   33.22   0
  -2   3  -4  114.39   24.04   0
  -1   3  -3 2336.47   73.41   0
  -3   0  -3   99.32   36.37   0
  -2   2  -4 1081.71   48.95   0
  -2   4  -4    6.68   23.12   0
   0   1  -1  810.62   68.56   0
  -5   5  -5    9.87   25.15   0
  -4   4  -5   -0.38   23.92   0
  -5   4  -5    8.08   22.50   0
  -4   5  -5   43.40   25.77   0
  -3   1  -4   10.85   26.41   0
  -2   6  -2  458.28   45.05   0
  -1   1  -3    6.62   27.82   0
  -4   3  -5   82.03   27.81   0
  -3   4  -5   72.74   24.94   0
  -3   6  -4  113.03   28.73   0
  -2   0  -3  130.17   35.66   0
  -4   1  -4   32.62   32.59   0
  -4   7  -4  -12.98   24.40   0
  -3   3  -5  115.50   23.01   0
  -5   3  -5   -4.75   24.67   0
  -4   6  -5   40.29   24.76   0
  -3   5  -5   56.77   24.90   0
  -2   1  -4 1253.17   57.04   0
  -1   5  -1    2.58   25.35   0
  -3   7  -3  159.21   34.45   0
  -1  -1  -1  322.25   86.21   0
  -3   2  -5  128.69   31.93   0
  -2   6  -3  313.82   38.02   0
  -4   2  -5   12.49   21.70   0
  -2   3  -5  284.05   27.25   0
  -1   2  -4 1207.56   51.73   0
  -1   3  -4    5.55   19.82   0
  -1   5  -2   48.19   24.56   0
   0   2  -2  397.52   42.81   0
  -2   4  -5   18.58   18.85   0
   0   3  -1  160.19   34.13   0
  -2  -1  -2   34.69   39.48   0
  -2   2  -5   23.70   22.26   0
  -1   4  -4  464.82   35.37   0
   0   1  -2 2597.32   88.33   0
  -3   7  -4  172.27   32.54   0
  -3   4  -6  130.49   28.79   0
  -2   5  -5   25.93   16.39   0
  -2   6  -4    2.31   23.42   0
  -1   5  -3   -1.89   20.91   0
   0   3  -2  337.23   35.59   0
   0   3   0  138.37   42.19   0
  -4   3  -6   92.29   33.11   0
  -3   5  -6    7.49   21.43   0
  -1   1  -4 1835.21   61.99   0
   0   2  -3 1120.96   54.52   0
  -3   1  -5   13.32   26.46   0
  -1   3  -5  343.25   32.57   0
   0   0  -1   80.71   38.53   0
  -1   5  -4  462.19   36.69   0
  -3   6  -6   13.81   19.06   0
  -2   0  -4  293.07   37.17   0
  -2   1  -5    2.81   18.78   0
  -2   3  -6  196.63   25.01   0
  -2   4  -6   55.23   23.04   0
  -2   6  -5   98.07   27.19   0
  -1   2  -5  219.65   26.42   0
  -1   4  -5  316.27   28.52   0
   0   1  -3   73.39   34.51   0
  -3   2  -6  194.66   32.76   0
  -4   2  -6   -7.18   34.50   0
  -2   5  -6   54.36   19.58   0
   0   2  -4    6.61   23.81   0
   0   4  -2  880.51   52.25   0
  -3   4  -7   19.38   22.24   0
  -1   5  -5   40.33   24.36   0
   0   0  -2  736.46   55.79   0
   0   3  -4   57.34   20.42   0
   0   4  -3 1151.93   50.75   0
  -1   0  -4 1025.94   54.14   0
  -3   3  -7   -1.09   26.37   0
  -2   6  -6    5.20   23.01   0
  -1   3  -6   17.36   17.49   0
  -1   4  -6  111.42   26.07   0
   0   4  -1   34.02   26.56   0
  -2   4  -7   83.67   25.56   0
   0   1  -4  374.21   33.93   0
   0   4  -4  803.27   43.50   0
  -1  -1  -2  553.79   67.11   0
  -1   2  -6  199.87   25.74   0
  -1   6  -4   42.38   26.73   0
  -2   3  -7   45.44   19.09   0
  -2   5  -7   10.15   18.20   0
   0   0  -3  343.80   40.46   0
   0   2  -5  410.36   33.80   0
   0   3  -5 2030.96   59.46   0
  -2   1  -6  576.84   44.97   0
  -2   0  -5  455.17   48.92   0
  -1   6  -5    3.26   23.23   0
  -3   2  -7   19.72   27.87   0
  -2   2  -7   11.37   25.11   0
  -1   1  -6  116.13   31.07   0
  -1   3  -7  149.78   28.52   0
  -1   4  -7  396.02   35.21   0
   0   1  -5   14.50   19.94   0
  -1   0  -5   27.75   21.51   0
   0   3  -6   10.66   22.08   0
   0   5  -4  612.52   43.03   0
   0   5  -3   89.22   29.00   0
  -1   5  -7   83.22   30.28   0
  -1   6  -6  110.30   30.95   0
   0   0  -4   74.65   24.24   0
   0   2  -6   45.89   22.98   0
   0   4  -6  121.21   20.09   0
  -3   5  -6  -10.03   31.46   0
   0   1  -3   50.40   35.83   0
  -3  -2  -3   54.83   35.02   0
  -2  -2  -3  539.58   52.29   0
  -2   1  -6  675.50   45.41   0
  -1  -2  -2    4.08   29.68   0
  -1  -1  -4  344.85   36.72   0
  -1   3  -5  337.64   34.85   0
   0   0  -3  283.77   40.05   0
  -3   3  -7   15.13   23.18   0
  -2   4  -6   62.35   28.29   0
  -1   0  -5   20.17   21.04   0
   0   2  -2  396.04   54.04   0
  -3  -1  -5  277.52   43.42   0
  -3   2  -7   29.12   24.50   0
  -3   4  -7    0.94   27.86   0
  -1   4  -4  399.65   41.84   0
  -2  -1  -5  135.15   33.73   0
   0  -1  -2 3088.18  103.22   0
   0  -1  -1 2370.72  118.97   0
   0   1  -4  418.74   44.37   0
   0   2  -3 1021.69   60.84   0
  -2   0  -6  207.58   29.67   0
  -1   2  -6  219.17   32.25   0
  -3   1  -7   -7.74   27.86   0
  -2   2  -7    9.73   26.64   0
  -1  -2  -3  199.03   37.51   0
  -1   1  -6  152.12   27.95   0
   0   0  -4   82.71   27.28   0
  -2  -2  -4  425.31   46.11   0
  -1   3  -6   -3.93   30.70   0
   0  -1  -3  796.06   53.92   0
  -2   1  -7   47.70   27.86   0
  -1  -1  -5  418.22   39.28   0
  -1   4  -5  278.77   43.06   0
  -2   4  -7  102.11   32.13   0
  -1   0  -6   84.09   25.63   0
   0   1  -5    3.62   29.33   0
  -3  -1  -6   45.19   34.78   0
  -1  -2  -4   19.25   29.84   0
   0  -1  -4   91.21   31.65   0
   0   0  -5   31.90   22.47   0
  -2  -1  -6   25.68   24.98   0
  -1   2  -7   59.58   29.02   0
  -2   0  -7  120.91   29.64   0
  -1   1  -7   22.60   25.42   0
  -2  -2  -5   12.83   32.92   0
  -2   2  -8  138.07   31.68   0
  -2   3  -8   10.86   27.14   0
  -1   3  -7  165.17   36.52   0
  -1   4  -6  126.96   34.65   0
   0  -1  -5  694.30   46.57   0
   0   1  -6   34.44   22.62   0
  -1   0  -7  178.78   30.29   0
   0  -2  -2  702.15   59.92   0
   0   0  -6   62.95   28.27   0
   0   3  -4   73.02   30.08   0
  -1  -2  -5   -5.74   27.58   0
   0   3  -3  745.69   67.64   0
   0   3  -5 2058.65   77.83   0
  -1  -3  -2  383.54   62.12   0
  -1   1  -8   33.88   24.57   0
  -1   4  -7  373.55   46.80   0
   0  -1  -6  144.60   30.91   0
   0   1  -7   -3.68   25.99   0
  -2  -2  -6   22.17   36.87   0
  -1  -3  -3   -1.25   41.65   0
  -1   3  -8   48.29   30.80   0
   0  -2  -1  373.22   62.70   0
   0   3  -6   17.60   25.87   0
   0   0  -7   84.83   26.56   0
   1   0  -4   26.79   24.18   0
  -1  -2  -6    8.22   30.32   0
  -1   0  -8   27.13   28.05   0
   1   0  -5   28.18   26.26   0
   1   0  -3    4.26   31.03   0
  -1  -3  -4   72.65   43.22   0
   1  -1  -4  863.28   47.95   0
   1  -1  -3  233.46   43.61   0
   1   1  -5   24.99   25.54   0
   1   1  -4   -5.90   23.78   0
   0   3  -7  367.58   40.80   0
   0  -1  -7   13.64   20.25   0
   0   1  -8  -22.32   26.72   0
   1  -1  -5   64.21   22.69   0
   1   0  -6  102.13   26.64   0
   0  -2  -6  236.38   34.45   0
   0   2  -8   27.50   27.97   0
   1   1  -6   36.84   20.77   0
   1   1  -3  734.25   50.34   0
   0   0  -8   59.01   25.11   0
  -1  -3  -5   62.35   38.42   0
  -1  -2  -7   24.82   32.89   0
   0  -3  -4    9.53   31.67   0
   0  -3  -3   44.60   31.91   0
   1  -2  -4  885.70   51.37   0
   1  -1  -6  255.44   30.44   0
   1   0  -2 2026.43   89.51   0
   1   2  -5   30.75   24.98   0
   1  -2  -3  219.92   40.59   0
   1  -1  -2   -3.77   34.48   0
   1   0  -7   -3.78   26.30   0
   1   1  -7  192.64   29.28   0
   0  -3  -2  125.33   42.21   0
   0   3  -8   70.46   27.97   0
   1  -2  -5   66.76   24.73   0
   1   2  -6  277.45   30.25   0
   1   2  -4  271.35   36.01   0
   0  -3  -5   76.99   36.93   0
   0  -2  -7  111.62   34.02   0
   0  -1  -8  184.47   29.65   0
   1  -1  -7   43.49   26.55   0
   1  -2  -6  456.59   37.54   0
   1   2  -7   -4.50   25.46   0
   1  -2  -2  209.24   40.83   0
   1   0  -8   30.52   22.18   0
   0  -3  -6    5.37   29.69   0
   1  -3  -4  514.06   44.87   0
   1  -1  -8   74.09   28.81   0
   1   2  -8   26.44   30.16   0
   1  -3  -5  235.62   41.32   0
   1   2  -3 1268.18   71.54   0
   2  -1  -5   67.40   26.11   0
   2   0  -5  245.31   31.22   0
   1  -3  -3   74.89   31.53   0
   1   3  -6   53.06   30.09   0
   2  -1  -6   79.81   21.68   0
   2  -1  -4   17.11   25.69   0
   2   0  -6    8.05   17.38   0
   1   3  -7    1.02   26.47   0
   2   0  -7  168.59   28.39   0
   2   0  -4   31.63   30.42   0
   1  -3  -6  338.00   37.63   0
   1   3  -5 1302.89   66.87   0
   2  -2  -5   19.04   21.27   0
   2  -1  -7  211.67   36.37   0
   2  -2  -6  444.56   33.81   0
   2  -2  -4 1069.36   50.88   0
   2   1  -7  425.02   38.80   0
   0  -3  -1  315.61   57.75   0
   1  -3  -7   24.26   31.02   0
   2  -2  -7   15.85   25.02   0
   2  -1  -3  169.69   30.00   0
   2   0  -8   36.13   23.91   0
   1  -3  -2 1435.06   72.64   0
   1  -1  -1 1456.23   82.76   0
   2  -1  -8   24.14   20.25   0
   2   1  -8   -0.26   24.54   0
   2  -2  -3   28.92   27.75   0
   2   0  -3  -10.65   31.66   0
   1   3  -4   23.52   29.84   0
   2  -2  -8   27.53   19.31   0
   2   2  -7  309.84   36.11   0
   2   2  -6  214.14   33.82   0
   1  -4  -5  195.25   44.35   0
   1  -4  -4   22.76   33.45   0
   1  -2  -1 1600.77   83.24   0
   2  -3  -7  117.72   32.23   0
   2   2  -8   62.91   30.25   0
   2   2  -5   29.01   28.40   0
   1   0  -1   75.45   34.58   0
   3  -1  -7  161.87   30.03   0
   3  -1  -6  113.17   23.51   0
   1  -4  -3  304.73   48.32   0
   3  -2  -6   58.97   24.09   0
   3  -2  -5  112.86   28.57   0
   3  -1  -5  698.41   40.99   0
   3   0  -6   22.05   20.77   0
   2  -1  -2 9999.99  160.60   0
   3  -2  -7    2.43   21.15   0
   2  -4  -5  400.29   47.22   0
   2  -2  -2  686.83   51.21   0
   3  -1  -8    9.23   22.52   0
   3   0  -5  957.34   49.16   0
   2  -4  -6    9.96   31.24   0
   2   1  -3  110.95   28.23   0
   3  -3  -6   32.82   26.37   0
   3  -2  -4  313.70   33.22   0
   3  -1  -4  405.94   39.24   0
   2  -4  -4  105.70   35.46   0
   3  -3  -5   30.82   23.12   0
   3   1  -7  177.04   33.39   0
   2   2  -4  432.69   49.03   0
   3  -3  -7    0.58   25.78   0
   3   1  -6   -5.21   25.34   0
   3   1  -8    7.56   26.50   0
   2   0  -2 5770.16  133.11   0
   3   0  -4 1058.12   53.40   0
   5  -3  -1  465.15   55.12   0
   6   1  -4   22.51   21.22   0
   3   0   0  391.35   37.16   0
   4   2  -2  143.29   24.41   0
   0   4  -2  816.89   50.70   0
   2   1   0   18.85   22.06   0
   3   2  -1  263.62   27.81   0
   3   3  -2  125.40   22.89   0
   4   1  -1  173.91   24.69   0
   5   1  -2  168.81   25.67   0
   6  -1  -2  -19.99   18.58   0
   0   3  -1  163.53   29.18   0
   4   3  -3  137.22   22.38   0
   5   2  -3  147.12   23.89   0
   7  -2  -3   -8.47   27.20   0
   4  -2   0  126.38   27.88   0
   5   0  -1  454.26   29.96   0
   6   1  -3   -7.09   15.17   0
   0   1   0    5.95   21.87   0
   3   4  -3    6.11   16.94   0
   2   3  -1  978.00   36.23   0
   3   1   0  154.31   19.26   0
   1   2   0    9.73   18.80   0
   2   4  -2   36.18   15.28   0
   4   0   0  216.93   20.40   0
   4   4  -4   -6.60   11.87   0
   1   5  -3   30.43   20.08   0
   6  -2  -1   80.28   23.14   0
   2   2   0    8.37   13.57   0
   4   2  -1   -3.89   10.51   0
   4   3  -2    9.71   13.43   0
   5   2  -2   28.51   12.45   0
  -1   4  -2   83.49   34.81   0
   5   1  -1    0.96   12.28   0
   6  -1  -1    8.23   12.95   0
   7  -2  -2   -2.13   21.45   0
   3   3  -1    7.44   11.64   0
   5  -2   0   15.21   18.39   0
   5  -1   0   10.16   17.92   0
   2   5  -3  143.25   33.47   0
   3   4  -2   62.37   22.21   0
   7  -1  -2   14.35   24.12   0
   3   2   0    3.25   17.56   0
   4   4  -3   22.69   17.28   0
   5   0   0  108.46   25.57   0
   4   3  -1    5.45   35.57   0
   1   1   2  566.53   43.40   0
   3   1   3  697.23   42.30   0
   5   2   1   45.77   27.94   0
   1   2   1 1271.79   56.08   0
   3   2   2   57.60   20.78   0
   3   3   0   50.96   25.89   0
   4   1   3  177.00   29.41   0
   2   1   3  780.94   39.40   0
   2   2   2  633.56   37.99   0
   2   3   0  728.49   42.78   0
   3   0   4   -4.37   16.56   0
   4   0   4   26.34   18.43   0
   5  -3   5   -1.92   28.27   0
   4  -3   5   55.91   31.90   0
   4  -2   5    3.09   26.48   0
   4   2   2   12.84   18.00   0
   4   3   0   31.95   28.45   0
   1   0   3  135.75   28.74   0
   5  -2   5   30.84   28.81   0
   5   0   4   50.99   23.64   0
   5   1   3   -0.51   19.06   0
   2   0   4  257.76   30.30   0
   1   3  -1  993.99   59.30   0
   3  -2   5   97.51   30.34   0
   3   3   1   55.18   23.63   0
   4  -1   5  -10.43   24.20   0
   1  -2   3   13.40   38.63   0
   2  -3   4  140.98   45.52   0
   2   3   1  399.36   35.09   0
   3  -1   5   -6.06   24.94   0
   0   1   0    5.53   31.47   0
   1   1   3 1128.08   51.13   0
   1   2   2   24.91   25.13   0
   1   3  -2   88.36   37.35   0
   3  -3   5  107.04   37.31   0
   3   1   4   70.36   23.71   0
   3   2   3   51.05   24.66   0
   4   3   1   12.61   26.52   0
   1   3   0 3334.73   90.40   0
   4   1   4   66.19   22.95   0
   2   1   4   62.48   25.99   0
   2   2   3  552.61   35.38   0
   4   2   3   -9.38   19.54   0
   3   0   5  168.61   29.25   0
   4   0   5  210.96   34.63   0
   0   0   1   79.77   39.42   0
   0   1   1 2178.03   89.91   0
   3   3   2  292.85   32.95   0
   1   0   4 1130.04   55.75   0
   2  -1   5   -1.93   21.35   0
   4   3   2    9.00   18.81   0
   0   0  -7   66.08   25.80   0
   0   1  -8    1.17   19.70   0
   1  -2  -6  393.44   40.96   0
   2  -3  -6   90.19   29.27   0
   4   1 -11    1.05   17.33   0
   5   1 -11    7.55   18.33   0
   6  -3  -9    5.98   28.84   0
   2   1 -10   -3.37   22.64   0
   3   4 -10   41.00   34.71   0
   1   1  -9  163.34   31.87   0
   0   2  -8   39.86   24.92   0
   0   4  -8    2.00   25.57   0
   1   4  -9    1.85   21.71   0
   2   2 -10   15.25   20.68   0
   2   3 -10   64.61   25.31   0
   3   0 -10   24.41   22.98   0
   4  -3  -8    5.17   25.72   0
   4  -1 -10    0.39   16.24   0
   0   3  -8   91.24   26.86   0
   1  -1  -7    7.89   22.02   0
   3  -3  -7   -2.05   19.49   0
   1   0  -8   23.25   20.45   0
   1   2  -9   48.12   21.53   0
   1   3  -9    9.62   24.26   0
   2  -2  -7   13.14   22.17   0
   4  -2  -9   83.33   24.53   0
   0   1  -7    7.06   18.84   0
   2   0  -9  157.23   25.62   0
   5  -1 -10   -2.43   18.02   0
   2  -1  -8   26.86   20.94   0
   3  -2  -8   37.67   24.57   0
   3  -1  -9   47.65   19.76   0
   3   1 -10    0.95   20.64   0
   3   3 -10   41.49   21.73   0
   3   2 -10   27.20   21.90   0
   4   0 -10   13.85   19.58   0
   2   4  -9   10.17   21.09   0
   4   3 -10    6.42   19.39   0
   5  -3  -8    8.06   20.83   0
   5  -2  -9   25.98   24.09   0
   7  -2  -9    2.67   22.17   0
   0   4  -7  201.74   31.36   0
   1   1  -8    7.41   16.43   0
   2   1  -9  192.00   29.22   0
   5   0 -10   -0.69   18.62   0
   6   0 -10    6.56   16.19   0
   0   3  -7  353.67   33.12   0
   3  -3  -6   13.28   21.06   0
   4   1 -10   -7.67   18.30   0
   4   2 -10   43.99   18.38   0
   6  -2  -9    9.16   21.36   0
   6   1 -10   10.80   17.61   0
   1   0  -7    4.82   14.68   0
   1   4  -8    9.16   20.70   0
   2  -2  -6  386.00   32.22   0
   2   2  -9   92.93   22.63   0
   2   3  -9   17.13   19.73   0
   4  -3  -7   11.75   21.38   0
   4  -1  -9   -4.77   17.88   0
   5   2 -10   -0.96   14.08   0
   6  -3  -8    1.89   20.82   0
   7  -3  -8    3.21   21.35   0
   1   2  -8   66.19   19.69   0
   3   0  -9    6.16   16.56   0
   3   4  -9   49.61   23.66   0
   4   4  -9    8.09   22.84   0
   5   1 -10    3.77   13.89   0
   1   3  -8   48.83   18.81   0
   2   0  -8   43.65   17.71   0
   4  -2  -8   11.41   21.10   0
   2  -1  -7  312.52   26.84   0
   3  -2  -7    0.66   18.86   0
   3  -1  -8   20.52   18.41   0
   3   1  -9   72.54   23.64   0
   5  -1  -9    9.13   19.22   0
   1   1  -7  185.42   25.48   0
   3   3  -9   26.26   20.04   0
   2   4  -8   -4.28   18.71   0
   3   2  -9  -17.85   18.17   0
   4   0  -9    8.26   16.81   0
   5  -3  -7   92.78   27.25   0
   6  -1  -9  -12.74   15.76   0
   7   1  -9    4.55   12.61   0
   2   1  -8   -1.87   15.13   0
   5  -2  -8   -0.28   20.23   0
   5   3  -9    5.44   14.58   0
   7   0  -9    2.21   10.72   0
   8  -3  -7    5.64   21.39   0
   1   4  -7    5.18   18.36   0
   4   3  -9   36.32   16.84   0
   6   2  -9   -1.02   14.50   0
   2   2  -8   74.10   22.82   0
   2   3  -8   24.26   18.76   0
   4  -3  -6   42.81   19.90   0
   4   1  -9    3.57   15.42   0
   5   0  -9    8.93   14.66   0
   5   4  -8    4.17   21.51   0
   6   0  -9   -1.54   16.52   0
   7  -2  -8   -3.80   18.97   0
   1   3  -7    6.71   17.74   0
   2   0  -7  151.08   22.95   0
   3   0  -8   36.24   18.58   0
   4  -1  -8   32.09   14.88   0
   4   2  -9   27.03   16.70   0
   6  -3  -7  111.09   28.66   0
   6  -2  -8   20.52   19.42   0
   3  -2  -6   51.74   19.36   0
   3   4  -8   28.01   18.55   0
   4  -2  -7   -4.72   17.61   0
   5   1  -9   10.34   17.73   0
   5   2  -9   25.26   15.75   0
   6   1  -9   17.74   14.22   0
   7  -3  -7   -3.37   21.61   0
   3  -1  -7  167.79   24.97   0
   4   4  -8   18.87   19.51   0
   6   3  -8    7.54   13.71   0
   7   2  -8    0.83   11.60   0
   3   1  -8    5.48   16.12   0
   5  -1  -8   -6.08   16.31   0
   2   1  -7  360.31   28.92   0
   2   4  -7    8.63   16.97   0
   3   2  -8   86.27   20.11   0
   3   3  -8  102.39   21.31   0
   4   0  -8   13.90   19.19   0
   7  -1  -8  122.93   25.90   0
   1   4  -6   13.99   17.00   0
   5  -3  -6   -0.32   19.19   0
   6  -1  -8   16.52   17.55   0
   8  -2  -7    7.70   18.01   0
   4  -3  -5   -1.61   16.42   0
   4   3  -8  170.56   26.25   0
   5  -2  -7   89.77   21.23   0
   5   3  -8   15.42   17.03   0
   7   0  -8   10.93   16.22   0
   7   1  -8    3.67   14.53   0
   1   3  -6   25.68   17.27   0
   2   2  -7  288.93   27.57   0
   2   3  -7   30.55   17.68   0
   4   1  -8   24.85   19.51   0
   3   0  -7  315.43   25.83   0
   4  -1  -7    3.35   19.85   0
   4   2  -8   97.49   23.29   0
   5   0  -8    1.76   14.80   0
   6   0  -8   11.48   18.61   0
   6   2  -8    7.96   13.60   0
   8  -3  -6    0.20   20.67   0
   8   1  -7    6.27   12.43   0
   3   4  -7   61.38   22.69   0
   4  -2  -6  121.19   27.78   0
   5   2  -8   36.65   19.24   0
   5   4  -7    7.32   20.66   0
   6  -3  -6    1.14   20.50   0
   6  -2  -7   54.16   20.29   0
   7  -2  -7   20.92   17.02   0
   3  -1  -6   76.00   20.28   0
   5   1  -8    5.73   15.22   0
   6   1  -8    9.52   13.94   0
   7  -3  -6   -3.14   20.78   0
   4   4  -7   73.13   22.74   0
   8   0  -7   -1.51   11.37   0
   3   1  -7  174.47   21.76   0
   6   3  -7    5.18   15.44   0
   7   2  -7   -3.07   12.97   0
   2   4  -6   28.44   20.55   0
   3   3  -7  128.59   23.33   0
   5  -1  -7   10.12   16.34   0
   7   3  -6    0.35   13.09   0
   3   2  -7  134.86   21.95   0
   4   0  -7   -1.02   15.38   0
   5  -3  -5  104.52   25.85   0
   7  -1  -7    4.99   12.49   0
   5  -2  -6   -8.34   18.13   0
   6  -1  -7    1.54   13.73   0
   8  -2  -6   15.79   22.13   0
   2   3  -6   77.73   19.82   0
   4   3  -7   31.49   18.51   0
   5   3  -7   -5.31   14.87   0
   7   0  -7   30.06   17.84   0
   7   1  -7    7.89   14.17   0
   9  -2  -5    1.23   17.15   0
   3   0  -6    3.43   14.90   0
   4   1  -7   35.62   16.19   0
   5   0  -7  -19.32   19.58   0
   6   2  -7    4.78   16.01   0
   8  -3  -5   -1.14   19.54   0
   8   1  -6    2.97   12.99   0
   3   4  -6   -4.73   18.77   0
   4  -1  -6   -2.62   15.68   0
   4   2  -7   18.26   15.32   0
   5   4  -6    7.06   19.35   0
   6  -2  -6   49.93   22.24   0
   6   0  -7  -15.07   15.71   0
   7  -2  -6   10.85   23.39   0
   5   1  -7   15.99   18.74   0
   5   2  -7    1.97   14.48   0
   6  -3  -5   42.47   23.56   0
   6   1  -7   23.00   16.60   0
   6   4  -5    3.60   18.91   0
   8  -1  -6   35.00   20.55   0
   9  -3  -4    8.16   20.55   0
   4   4  -6   95.91   24.91   0
   7  -3  -5   32.59   24.37   0
   8   0  -6    7.47   14.41   0
   3   1  -6    5.53   16.70   0
   6   3  -6    5.10   14.86   0
   7   2  -6    7.30   12.77   0
   7   3  -5    4.07   12.55   0
   3   3  -6   23.71   18.15   0
   5  -1  -6  132.28   28.66   0
   2   4  -5    1.34   16.34   0
   3   2  -6  168.04   26.39   0
   4   0  -6    4.08   16.19   0
   7  -1  -6   45.25   19.32   0
   5  -3  -4   25.80   20.19   0
   6  -1  -6  177.37   28.00   0
   7   1  -6   14.22   17.47   0
   8  -2  -5    3.61   17.30   0
   9   0  -4   -2.16   14.48   0
   4   3  -6   98.33   26.68   0
   5  -2  -5   55.95   24.25   0
   5   3  -6   81.40   21.22   0
   7   0  -6   55.81   19.91   0
   8   1  -5    0.38   15.29   0
   8   2  -4   -0.98   13.34   0
   9  -2  -4   17.92   19.54   0
   4   1  -6   20.48   18.63   0
   5   4  -5   53.13   25.19   0
   6   2  -6   21.17   18.54   0
   6   4  -4    9.10   20.25   0
   8  -3  -4    5.75   22.44   0
   3   4  -5   26.04   21.11   0
   4   2  -6  132.81   23.58   0
   5   0  -6  100.82   22.33   0
   6   0  -6   11.89   18.80   0
   7  -2  -5   15.60   20.07   0
   8  -1  -5    1.65   17.02   0
   9  -3  -3   -2.20   20.45   0
   4  -1  -5  392.00   30.66   0
   4   4  -5  238.54   34.87   0
   5   1  -6   98.85   25.75   0
   5   2  -6   74.53   18.36   0
   6  -2  -5  227.31   29.26   0
   6   1  -6   11.69   14.78   0
   7   3  -4    5.54   14.11   0
   8   0  -5    8.85   15.21   0
   6  -3  -4    6.42   21.29   0
   6   3  -5   12.80   16.72   0
   7  -3  -4   11.58   21.17   0
   7   2  -5    4.00   14.61   0
   8   2  -3   -7.59   14.26   0
   9   0  -3    7.54   13.99   0
   3   3  -5    0.53   20.27   0
   5  -1  -5    9.85   19.24   0
   7  -1  -5    5.27   14.03   0
   7   1  -5   20.34   20.32   0
   8  -2  -4   33.63   26.32   0
   8   1  -4    7.53   15.88   0
   9  -2  -3   -0.52   16.82   0
   4   0  -5  234.96   26.11   0
   5   3  -5   64.38   24.99   0
   6  -1  -5    7.74   20.78   0
   6   4  -3    0.12   19.01   0
   7   0  -5   16.25   18.72   0
   4   3  -5   83.38   24.54   0
   5   4  -4    0.88   20.47   0
   6   2  -5    6.57   17.53   0
   7   3  -3    3.78   15.46   0
   9  -3  -2   25.84   27.25   0
   5  -2  -4   63.27   22.91   0
   8  -3  -3   20.34   24.56   0
   8  -1  -4   56.12   20.52   0
   8   0  -4   34.72   20.18   0
   9   0  -2    3.66   14.55   0
   4   1  -5   53.48   20.13   0
   5   0  -5   30.64   20.32   0
   6   0  -5   31.23   22.55   0
   6   1  -5    0.13   18.79   0
   7  -2  -4   10.59   21.06   0
   7   2  -4   -4.90   15.71   0
   8   2  -2   -3.14   14.26   0
   3   4  -4   35.47   23.76   0
   4   2  -5   24.04   17.96   0
   4   4  -4   -6.49   21.07   0
   5   2  -5   22.70   15.80   0
   6  -2  -4   39.70   22.74   0
   6   3  -4    7.64   18.89   0
   5   1  -5   -0.37   16.72   0
   6   4  -2   -0.95   19.44   0
   7  -3  -3   68.40   29.51   0
   8   1  -3    2.54   16.70   0
   9  -2  -2   33.43   22.64   0
   6  -3  -3   87.51   29.23   0
   7   3  -2    7.46   14.10   0
   9   0  -1   -0.48   14.06   0
   7  -1  -4   28.17   18.62   0
   7   1  -4    2.95   17.87   0
   8  -2  -3    8.81   22.93   0
   9  -3  -1   -0.64   20.54   0
   5   3  -4   37.11   22.51   0
   5   4  -3   84.74   27.66   0
   7   0  -4    2.72   18.46   0
   3   3  -4   28.14   19.61   0
   5  -1  -4   21.18   21.05   0
   6   2  -4   76.98   23.87   0
   6   4  -1    2.60   21.54   0
   7   2  -3    0.17   16.18   0
   8  -1  -3    1.99   17.85   0
   8   0  -3   24.67   18.57   0
   4   3  -4    2.35   19.90   0
   6  -1  -4   -3.80   17.56   0
   6   3  -3   30.99   21.29   0
   7   3  -1    8.96   19.35   0
   8  -3  -2    9.33   23.38   0
   9  -2  -1   -3.84   18.11   0
   6   4   0   -1.65   18.48   0
   8   1  -2   -0.27   13.25   0
   9  -3   0   24.16   25.41   0
   4   4  -3   29.55   24.38   0
   5   2  -4  405.54   37.01   0
   6   0  -4   39.79   18.91   0
   6   1  -4   61.08   19.02   0
   7  -2  -3   24.85   21.74   0
   7   3   0    2.12   17.00   0
   3   4  -3    3.28   19.84   0
   4   2  -4  192.99   28.68   0
   5   0  -4   -4.76   16.26   0
   4   1  -4   36.42   19.95   0
   5   1  -4   53.60   21.45   0
   5   4  -2   -3.62   19.78   0
   6  -2  -3    2.44   24.29   0
   7  -3  -2   17.89   23.04   0
   7   1  -3    8.62   19.46   0
   8  -2  -2    9.93   23.95   0
   9  -2   0    9.41   19.62   0
   7  -1  -3   -4.32   17.85   0
   7   2  -2    1.46   19.52   0
   8   0  -2   16.11   17.27   0
   8   1  -1    2.52   14.34   0
   9  -3   1    7.55   22.33   0
   5   3  -3  164.85   29.29   0
   6  -3  -2   37.79   26.12   0
   6   2  -3   38.97   20.81   0
   6   3  -2   -5.84   17.91   0
   7   0  -3   53.78   21.20   0
   8  -1  -2    5.78   15.25   0
   8  -3  -1    9.39   22.68   0
   9  -2   1   -0.48   16.41   0
   8   1   0    0.76   14.00   0
   4   3  -3  137.64   27.91   0
   6  -1  -3    7.17   16.56   0
   4   4  -2   54.83   28.63   0
   5   4  -1   17.89   20.38   0
   6   1  -3   -3.62   16.92   0
   7  -2  -2    6.12   20.13   0
   7   1  -2   27.28   21.43   0
   7   2  -1   -3.18   13.74   0
   8   0  -1   21.67   17.53   0
   8   1   1    2.32   13.12   0
   5   2  -3  170.99   26.33   0
   6   0  -3    2.91   15.50   0
   6   3  -1  174.11   31.58   0
   8  -2  -1   -5.19   20.04   0
   8  -1  -1   28.21   19.54   0
   3   4  -2   35.50   24.47   0
   5   0  -3   39.51   18.73   0
   5   1  -3    9.14   17.05   0
   5   3  -2    7.88   19.99   0
   6   2  -2  137.94   26.62   0
   7  -3  -1   80.27   30.28   0
   7  -1  -2    3.08   16.52   0
   7   0  -2    5.96   16.52   0
   7   2   0   14.38   16.30   0
   8  -3   0   16.19   21.98   0
   5   4   0   11.65   22.91   0
   6  -2  -2   58.20   27.53   0
   8   0   0   28.43   18.14   0
   6   3   0    1.64   19.27   0
   7   1  -1   42.95   18.36   0
   7   2   1   28.56   19.83   0
   7   2   2   -3.90   16.31   0
   8  -2   0   17.07   22.51   0
   8  -1   0    7.11   17.33   0
   8   0   1    6.79   15.44   0
   4   4  -1   13.56   23.97   0
   5   4   1   12.83   21.11   0
   6  -3  -1   -1.99   21.01   0
   6   1  -2  169.16   29.46   0
   8   0   3    0.36   12.96   0
   4   3  -2    3.67   16.53   0
   5   4   2   25.95   27.72   0
   6  -1  -2    6.34   16.04   0
   6   3   1   22.64   21.59   0
   6   3   3    9.81   16.60   0
   7  -2  -1   -3.19   20.66   0
   8  -3   1   29.21   22.55   0
   8   0   2    8.56   13.88   0
   5   2  -2   44.20   19.34   0
   5   3  -1  114.72   27.17   0
   6   0  -2   35.11   17.88   0
   6   2  -1   48.49   18.78   0
   6   3   2   -6.68   15.64   0
   7   0  -1    1.78   16.36   0
   7  -1  -1    1.92   14.55   0
   7   1   0   23.69   19.13   0
   8  -2   1    4.48   18.08   0
   8  -1   1   13.90   15.01   0
   3   4  -1   28.22   23.10   0
   7  -3   0   72.03   27.26   0
   8  -1   4    5.27   16.70   0
   5   1  -2  110.43   20.87   0
   8  -3   2    3.51   21.29   0
   8  -1   2    9.14   14.24   0
   4   4   0   47.99   26.73   0
   5   0  -2   52.18   16.31   0
   6  -2  -1  119.63   28.95   0
   7   1   1   24.62   17.98   0
   8  -2   2    0.84   17.24   0
   8  -1   3    7.08   13.50   0
   6   1  -1   37.98   17.64   0
   6   2   0   18.37   14.11   0
   7   0   0   70.36   20.78   0
   7   1   4    3.70   12.73   0
   8  -3   3   11.14   20.81   0
   8  -3   4    7.39   19.83   0
   8  -2   4    0.01   13.60   0
   5   3   0   26.04   16.79   0
   7  -2   0    1.57   16.44   0
   7   1   2   22.55   18.66   0
   8  -2   3   -8.88   15.68   0
   4   3  -1   11.16   16.57   0
   7  -1   0    8.31   14.46   0
   7   1   3    9.39   15.17   0
   7  -4  -5   46.38   19.03   0
   4  -2  -5   62.64   21.08   0
   5  -3  -5   98.12   22.78   0
   7  -5  -4   57.23   22.59   0
   8  -5  -4   23.34   17.02   0
  10  -5  -2   -1.25   14.20   0
   5  -5  -3    4.61   17.81   0
   8  -3  -5   13.37   17.78   0
   8  -1  -5   10.21   18.33   0
   9  -4  -4   -2.65   15.71   0
   5  -4  -4    1.08   16.07   0
   6  -6  -2  146.91   28.43   0
   8  -7   0   -3.01   26.20   0
   8  -2  -5   -0.13   16.99   0
   5  -6  -1   22.69   22.40   0
   6  -3  -5   42.09   22.59   0
   9  -5  -3   -1.59   16.30   0
   9  -3  -4    2.09   19.11   0
   9  -2  -4   13.04   18.21   0
   7  -3  -5   34.64   19.20   0
   7   0  -5    0.65   21.71   0
  10  -4  -2    0.31   13.97   0
   5  -2  -5   48.85   23.17   0
   7  -6  -2   20.28   24.96   0
  10  -5  -1    2.73   15.34   0
   6  -4  -4   10.18   20.54   0
   8  -4  -4    4.25   16.82   0
   9  -1  -3   -0.91   22.02   0
   6  -2  -5  199.72   33.53   0
   7  -4  -4    3.23   21.47   0
   7  -1  -5   -1.47   18.51   0
   8  -5  -3   19.44   20.11   0
   9  -6  -1   -7.25   17.88   0
   5  -1  -5    6.72   22.12   0
   6   0  -5   19.19   24.24   0
   7  -5  -3   20.76   17.73   0
   9  -4  -3   -2.66   18.60   0
   5  -5  -2   53.08   27.25   0
   5   0  -5   19.26   26.00   0
   6  -6  -1   20.57   24.70   0
   6  -1  -5   16.88   21.14   0
   8  -3  -4   19.04   21.57   0
   9  -5  -2   -2.26   19.19   0
  10  -4  -1    2.47   14.17   0
   5  -3  -4   30.23   18.87   0
   8  -1  -4   29.28   27.39   0
   5  -4  -3  -14.53   22.06   0
   7  -6  -1   -3.27   23.43   0
   8  -6  -1   31.52   25.78   0
   9  -6   0   73.00   25.92   0
   9  -3  -3    6.66   18.24   0
   9  -2  -3    6.45   17.61   0
   6  -3  -4    0.23   21.46   0
   7  -3  -4    0.59   23.55   0
  10  -4   0    0.28   15.44   0
   8  -4  -3   57.10   25.94   0
   9  -6   1   45.20   29.98   0
   7   0  -4    4.45   24.41   0
   8  -5  -2   30.17   21.80   0
   8   0  -3   15.69   28.72   0
   9  -6   2   -0.39   25.11   0
   9  -5  -1    0.16   19.92   0
   9  -4  -2    4.82   19.61   0
   9  -1  -2   16.70   24.10   0
   6  -6   0   83.12   34.72   0
   6  -4  -3  153.59   26.40   0
   7  -5  -2   66.54   29.71   0
   7  -4  -3  385.77   45.76   0
   7  -2  -4   11.76   25.18   0
   8  -6   0   30.15   27.16   0
   5  -2  -4   97.83   26.71   0
   7  -1  -4   26.32   26.01   0
   5  -5  -1   16.15   22.73   0
   6  -2  -4   48.32   25.27   0
   7  -6   0   84.57   34.69   0
   9  -3  -2   55.08   26.42   0
   8  -1  -3  -12.92   23.20   0
   5  -1  -4    9.28   25.56   0
   6  -1  -4   11.90   24.04   0
   6   0  -4   28.34   27.07   0
   8  -6   1   13.13   27.53   0
   8  -5  -1   80.29   28.03   0
   8  -2  -3   16.58   23.04   0
   9  -5   0    3.84   21.96   0
   9  -1  -1   11.02   20.56   0
   5  -3  -3   24.98   19.76   0
   8  -4  -2   -2.75   20.58   0
   9  -4  -1   25.92   21.21   0
   5   0  -4    2.24   20.03   0
   6  -6   1    1.17   27.77   0
   6  -5  -1   10.13   25.79   0
   6  -3  -3  145.37   32.07   0
   7  -3  -3   75.45   27.33   0
   7  -6   1   13.81   30.23   0
   8  -6   2   57.30   34.40   0
   8   0  -2    5.50   28.54   0
   9  -3  -1   15.58   22.08   0
   9  -2  -1   -2.01   23.56   0
   6  -4  -2   20.18   20.18   0
   7  -4  -2   15.84   22.21   0
   8  -6   3   47.34   37.27   0
   9  -5   2    2.05   23.33   0
   9  -5   3   22.72   27.57   0
   9  -1   0   13.76   18.50   0
   7  -2  -3   22.54   23.80   0
   7   0  -3   37.44   31.73   0
   8  -3  -2   52.00   27.15   0
   9  -4   0   10.82   19.53   0
   5  -5   0   50.61   28.22   0
   7  -6   2  109.09   42.05   0
   7  -1  -3   20.46   26.95   0
   6  -2  -3    5.76   24.91   0
   6   1  -3  -11.09   32.54   0
   8  -4  -1  112.58   31.16   0
   8  -2  -2   24.56   24.40   0
   8  -1  -2   -7.37   21.30   0
   7  -6   3  -12.46   38.13   0
   7   1  -2   40.63   29.47   0
   9  -4   1   -2.21   21.46   0
   9  -3   0   10.95   20.89   0
   9  -2   0   22.19   18.93   0
   6  -5   0   15.39   29.25   0
   7  -5   0    0.25   24.45   0
   7  -3  -2   16.30   27.38   0
   8   0  -1   48.24   29.13   0
   6  -1  -3   -2.15   24.67   0
   6   0  -3   -0.10   26.94   0
   9  -4   2    4.38   16.54   0
   9  -2   1    8.80   18.72   0
   6  -3  -2   46.24   28.54   0
   7  -4  -1  148.98   31.24   0
   8  -3  -1   16.69   26.16   0
   9  -3   1    6.28   20.83   0
   9  -2   2    6.46   17.21   0
   5   1  -3    9.86   27.25   0
   6  -4  -1   19.07   23.73   0
   8  -4   0   -1.73   26.33   0
   9  -3   2   16.91   21.97   0
   9  -3   3    4.66   17.57   0
   5  -5   1  141.54   38.57   0
   7  -2  -2    3.95   22.52   0
   7   0  -2    8.08   27.20   0
   8  -5   2   25.77   26.69   0
   8  -2  -1   11.36   25.06   0
   5   0  -3   21.54   23.64   0
   7  -5   1   27.87   26.12   0
   8  -5   3   43.80   30.31   0
   8  -5   4  -16.79   28.79   0
   8   0   0   21.71   27.63   0
   6  -5   1  -21.95   31.25   0
   7   1  -1   16.54   36.25   0
   6  -2  -2   67.31   30.41   0
   7  -3  -1  138.92   36.47   0
   8  -4   1  123.13   33.81   0
   8  -3   0   24.20   27.38   0
   6   1  -2   87.05   39.30   0
   7  -4   0   17.52   19.59   0
   8   0   1   -0.71   21.82   0
   7  -5   2  101.34   34.55   0
   8  -2   0   22.02   26.92   0
   6  -3  -1    5.09   22.01   0
   8  -4   2  -27.94   24.20   0
   8  -4   5   11.91   25.15   0
   8   0   2   24.66   22.28   0
   6   0  -2   36.82   29.29   0
   7  -2  -1    1.51   25.79   0
   7   0  -1    1.76   28.55   0
   8  -3   1   32.66   29.01   0
   6  -5   2   34.26   27.99   0
   7  -5   3    6.03   30.10   0
   7  -5   5   22.62   32.52   0
   7   1   0   14.39   29.33   0
   8  -1   1   30.81   23.09   0
   7  -5   4    1.98   28.61   0
   7  -4   1   37.92   33.53   0
   8  -3   5    3.31   24.31   0
   8  -2   1    3.82   24.50   0
   8  -2   5   14.76   20.41   0
   7  -3   0   94.15   29.99   0
   8  -3   2   14.18   25.98   0
   8  -1   4   18.88   20.02   0
   5   1  -2   85.16   34.42   0
   6  -5   3   -3.98   34.81   0
   8  -1   2   -6.80   19.36   0
   8  -1   3    9.93   20.75   0
   6  -2  -1  116.89   27.34   0
   8  -3   3   13.81   21.04   0
   8  -3   4    7.31   19.98   0
   8  -2   2    3.36   19.08   0
   8  -2   4    6.56   20.97   0
   6   1  -1   21.69   29.40   0
   7  -2   0   14.74   27.53   0
   7   0   0   78.32   34.65   0
   7   1   1   31.76   26.64   0
   8  -2   3   -9.37   22.40   0
   6  -5   4  204.00   48.89   0
   6  -5   5  -30.28   41.50   0
   6  -3   0  110.55   30.28   0
   6   2   0   12.60   28.35   0
   7  -4   6    7.15   29.38   0
   7  -1   0   20.84   24.13   0
   7   1   4    6.45   21.28   0
   6  -1  -1    5.89   22.17   0
   6   0  -1   25.26   28.42   0
   7  -3   1   24.25   22.16   0
   7   1   2   31.85   25.25   0
   7   1   3    9.71   21.93   0
   7  -4   4   40.07   34.75   0
   7  -4   5   15.94   28.84   0
   6  -4   2   20.23   30.56   0
   7  -2   1    7.59   22.60   0
   6  -4   7   -1.89   37.99   0
   6  -2   0   -2.61   25.02   0
   6   2   1   23.30   32.28   0
   7  -3   2   81.04   27.96   0
   7  -3   6   -3.27   25.94   0
   7  -1   1    9.41   25.72   0
   7  -1   6   17.55   22.00   0
   7   0   5  -12.21   20.69   0
   6  -3   1  181.99   34.51   0
   6   1   0  155.65   39.90   0
   5  -4   2  248.01   38.28   0
   5   1  -1    0.98   22.12   0
   7  -3   3  -16.84   26.93   0
   7  -2   6    6.26   20.29   0
   7   0   4   21.02   20.65   0
   6  -4   3   15.86   27.36   0
   6  -1   0    6.90   25.88   0
   6   2   2    7.34   25.14   0
   6   2   4    7.11   23.72   0
   7  -3   4    5.91   24.19   0
   7  -2   2   30.52   23.57   0
   7  -1   2   29.71   24.86   0
   7   0   3    4.32   17.46   0
   6   2   3    5.11   26.40   0
   7  -1   5   19.73   26.17   0
   6  -4   4   13.37   28.16   0
   6  -4   6   44.03   32.50   0
   6   1   6   -4.12   19.33   0
   7  -2   3   66.07   26.89   0
   7  -2   5   42.92   23.43   0
   7  -1   3    5.53   24.39   0
   7  -1   4   25.53   21.76   0
   6  -4   5   54.41   34.09   0
   6  -3   2   76.77   30.30   0
   6  -2   1  154.90   33.46   0
   6   0   7    2.56   15.67   0
   6   1   1   90.16   34.09   0
   7  -2   4   18.98   21.10   0
   5  -4   3   14.09   24.67   0
   5   2   0   19.25   31.24   0
   6  -3   7   -3.95   30.92   0
   5   3   2   -3.57   29.90   0
   5  -4   7    4.74   32.84   0
   5   3   4   12.37   28.66   0
   6  -1   1  197.06   30.98   0
   5   3   3   14.38   29.76   0
   6  -3   3  209.99   35.42   0
   6  -1   7    0.11   18.24   0
   6   1   2  -11.23   21.62   0
   6   1   5   -4.36   20.83   0
   5  -4   4   -4.60   27.80   0
   5   1   0  100.24   30.57   0
   6  -3   6    1.72   29.17   0
   6  -2   2   -4.08   20.62   0
   5  -4   5    8.84   30.02   0
   5  -4   6  206.02   49.59   0
   5  -3   8   -5.94   30.49   0
   6   0   6   -4.06   20.10   0
   5   2   1   47.17   30.02   0
   6  -1   2   28.27   23.98   0
   6   0   2  131.10   27.80   0
   6  -2   3  248.86   34.34   0
   6  -2   6   27.75   24.27   0
   6  -1   6   42.26   26.50   0
   5   0   8    3.90   17.30   0
   6   0   3    8.83   23.75   0
   6   0   5   35.93   19.84   0
   5  -3   3   58.82   26.63   0
   5  -2   8   15.59   25.80   0
   6  -2   4   31.02   25.34   0
   6  -2   5  150.09   28.70   0
   6  -1   3  254.74   34.38   0
   6  -1   5   15.16   25.26   0
   6   0   4   84.84   24.22   0
   4   2   0   28.21   28.39   0
   5  -3   7   55.22   32.12   0
   5  -1   1  297.03   34.45   0
   5  -1   8    8.57   21.82   0
   5   1   1    4.76   24.78   0
   5   1   7   12.38   15.90   0
   5   2   2   -3.94   21.90   0
   6  -1   4    0.15   20.82   0
   4   3   1   -7.94   24.89   0
   5  -2   2   34.31   25.67   0
   5   0   1  209.40   34.91   0
   5  -3   4  270.42   41.85   0
   5   2   3   -6.00   25.11   0
   4  -2   9    3.49   26.34   0
   4   0   9   13.44   21.55   0
   4   3   6   15.62   20.84   0
   5  -3   6   18.02   30.56   0
   5   2   4   10.32   20.46   0
   4  -3   8   23.72   36.16   0
   5  -3   5    2.17   22.52   0
   5   0   7   29.78   24.06   0
   5   1   6   -4.17   21.29   0
   4  -1   9   19.06   21.50   0
   5  -2   3  215.56   32.75   0
   5  -1   2   67.57   22.97   0
   3  -1  10    8.16   24.42   0
   4   3   2   -0.35   24.39   0
   5  -1   7    2.65   19.73   0
   5   0   2  153.73   29.92   0
   3   4   6   -6.88   26.47   0
   4   2   1   10.68   23.42   0
   4   3   5   -3.01   22.02   0
   5   1   5   18.20   22.07   0
   4   1   8    9.83   17.99   0
   4   2   7   14.88   15.95   0
   4   3   3    2.91   24.80   0
   5  -2   4    5.27   17.87   0
   5  -2   5   59.57   31.68   0
   5  -1   3  111.39   29.45   0
   5   0   6   -1.64   23.71   0
   5   1   4    5.22   18.95   0
   4  -3   7    5.75   32.05   0
   4   3   4   41.10   28.73   0
   5  -1   6  -15.74   24.54   0
   5   0   3   50.70   20.88   0
   4  -2   8   13.05   28.01   0
   5  -1   4  144.61   30.85   0
   5  -1   5   -0.22   26.22   0
   5   0   4   71.96   27.33   0
   5   0   5   18.17   20.52   0
   4  -3   5   56.97   32.02   0
   4  -3   6  116.97   36.67   0
   3   4   5    3.46   24.18   0
   4   0   8   14.37   18.98   0
   4   2   2   17.63   25.69   0
   4   2   6   61.39   25.01   0
   3  -2   9   17.89   29.88   0
   3   1   9   -4.67   17.95   0
   3   4   3   59.45   30.61   0
   3   4   4  126.54   41.86   0
   4   1   7   81.88   24.56   0
   4  -2   7   32.90   25.23   0
   4   2   3    5.68   23.93   0
   4   2   5   53.51   25.15   0
   2   1  10    4.99   19.37   0
   3  -1   9   21.38   25.27   0
   3   0   9   27.23   23.89   0
   3   2   8   21.90   16.65   0
   2  -1  10   -7.83   25.25   0
   3  -3   7    0.63   29.37   0
   4  -2   6   18.62   28.13   0
   4  -1   7   37.89   21.36   0
   4   0   7   23.86   21.46   0
   4   1   6   62.17   25.94   0
   2   0  10    1.73   20.33   0
   2   4   7   27.02   21.39   0
   3  -3   6   14.09   27.30   0
   1   5   7   -4.17   19.85   0
   4   1   3  183.58   27.60   0
   4   1   5   59.23   28.03   0
   3  -2   8  136.47   36.66   0
   3   3   2  206.98   32.52   0
   4  -1   4   42.30   23.82   0
   4  -1   6    3.50   19.66   0
   4   0   3  108.52   22.57   0
   4   0   6    7.62   20.42   0
   4   1   4   75.82   22.09   0
   2   2   9   -1.23   17.47   0
   3   1   8    8.11   18.75   0
   4  -1   5    3.68   18.51   0
   4   0   4   26.07   23.89   0
   4   0   5  176.38   33.90   0
   2  -2   9    1.72   30.74   0
   3   2   7   13.46   18.18   0
   3   3   3  430.24   42.20   0
   3   3   5   -5.07   20.87   0
   1   2  10    2.09   15.62   0
   6   0  -4    3.36   36.87   0
   7  -3   1    2.04   30.46   0
   7  -3   2   79.72   38.24   0
   8  -2   1   14.75   27.50   0
   7  -2   4   -9.06   31.56   0
   8  -1  -1   -0.03   27.30   0
   5  -3   4  241.73   62.38   0
   8  -1   2    2.17   24.42   0
   8   0   2   -6.06   29.03   0
   6  -3   1  188.02   47.15   0
   6  -3   3  174.69   43.09   0
   6  -1  -3    4.85   29.10   0
   7  -2  -1    5.77   25.12   0
   7   0  -3   33.85   39.29   0
   8  -1   0   11.68   24.88   0
   8  -1   1    0.10   32.10   0
   8   0  -1   14.90   29.54   0
   8   1   1    5.47   23.73   0
   7   1   4   -0.22   25.30   0
   7   2  -3    9.80   35.31   0
   8   0   0    5.66   31.59   0
   8   0   1   10.81   27.44   0
   8   1   0    4.90   23.86   0
   5  -3   2  252.69   48.50   0
   5  -3   3   84.92   37.36   0
   7  -1   4   -8.40   31.38   0
   7   1  -3   -1.93   31.52   0
   7   3  -2    8.72   33.10   0
   7  -2   0   16.90   28.73   0
   7   0   4   21.44   30.80   0
   6  -2  -1   88.18   32.69   0
   7  -2   1    5.99   31.21   0
   7  -2   2    1.10   30.49   0
   5  -2   5   14.59   43.91   0
   6  -2   4   -6.11   42.03   0
   6  -1   5    2.96   38.81   0
   6   0  -3   12.46   33.59   0
   7  -1  -1   14.65   25.88   0
   7   0  -2   10.70   30.16   0
   7   3  -1    6.32   28.48   0
   6  -2   0   22.96   28.88   0
   7   2  -2  -13.69   33.05   0
   6  -2   3  224.71   57.71   0
   6   0   5   13.78   38.11   0
   6   1   5    1.11   27.43   0
   7  -1   0   -1.42   32.23   0
   7   1  -2   20.77   39.30   0
   7   1   3   15.19   29.90   0
   6  -2   1   76.69   39.95   0
   7  -1   1  -31.88   31.54   0
   7  -1   2   12.49   28.44   0
   7   0   3    8.82   23.03   0
   7   2   2    3.30   23.77   0
   5  -2   4  -10.20   38.34   0
   6  -2   2    1.79   31.47   0
   7   0  -1   -0.89   20.58   0
   6  -1   4   22.53   37.16   0
   6   1  -3    8.33   32.07   0
   6   3  -3   18.07   43.03   0
   7   0   2   44.34   33.96   0
   6  -1  -1   -6.20   23.50   0
   6   4  -2    4.23   32.34   0
   7   0   0   97.09   33.06   0
   7   0   1    2.53   29.69   0
   7   1  -1   16.18   28.05   0
   7   1   2    6.06   31.65   0
   7   2   0   -2.18   25.24   0
   7   2   1   23.62   30.17   0
   5  -2   3  234.44   51.64   0
   5  -1   5    3.81   35.58   0
   6   0  -2   34.34   32.91   0
   6   2  -3   23.98   34.90   0
   7   1   0    9.54   29.28   0
   7   1   1    7.90   25.75   0
   5   3   5   -1.21   29.39   0
   6  -1   0   -7.45   27.09   0
   6   0   4  117.97   41.48   0
   6   1   4   18.52   27.98   0
   6   3   3   15.88   22.36   0
   6   4  -1    3.69   25.00   0
   6   4   1   16.77   24.46   0
   6  -1   1  158.50   41.25   0
   6  -1   2    4.90   29.77   0
   6   1  -2  176.00   42.98   0
   5   0   5    2.29   34.68   0
   5   1  -3    7.12   27.44   0
   6   0  -1   22.71   25.37   0
   6   3  -2   15.88   29.48   0
   4  -1   5    1.28   35.39   0
   4   3   6    6.42   28.26   0
   5  -1   4  161.56   40.14   0
   6   0   3   19.24   29.78   0
   6   2  -2  164.98   42.00   0
   5   2   5   10.98   30.01   0
   6   0   0   12.06   27.50   0
   6   2   3   -5.31   23.58   0
   6   3   2   -4.47   26.87   0
   5   1   5   14.61   30.29   0
   5   4  -3   42.94   40.36   0
   5   5  -2   -4.52   26.70   0
   5   5   2    0.65   19.34   0
   6   0   2  104.77   43.01   0
   6   1  -1   13.95   32.76   0
   6   1   3  -17.37   22.47   0
   4   1   6   15.77   42.21   0
   5  -1   3  174.33   35.67   0
   6   0   1   18.52   26.30   0
   6   3   1   23.76   28.66   0
   4   2   6   54.77   37.44   0
   5  -1   1  372.02   43.15   0
   5  -1   2  113.83   36.93   0
   5   3  -3   75.84   43.50   0
   6   1   2   11.05   27.93   0
   6   2   2    1.59   25.87   0
   6   3   0   28.49   22.27   0
   5   0   4   46.99   36.59   0
   5   5  -1   -8.42   29.44   0
   6   1   0  120.61   39.15   0
   6   1   1   69.85   35.17   0
   6   2   0   -2.97   25.44   0
   4  -1   4   43.58   30.80   0
   4   4   5   10.23   26.36   0
   4   5   4    6.93   19.78   0
   5   0  -1  387.54   49.27   0
   5   1  -2   87.89   40.61   0
   5   4   3   12.85   24.20   0
   5   5   1    1.32   18.79   0
   6   2   1   31.42   24.96   0
   4   0   5  143.70   42.16   0
   4   6  -2   13.61   28.12   0
   4   6   2    7.06   18.48   0
   5   1   4   34.01   32.99   0
   5   4  -2   -1.67   25.80   0
   3   4   6   10.46   29.11   0
   5   0   0   99.54   30.55   0
   5   2  -2   17.00   28.12   0
   5   3  -2    4.00   26.34   0
   5   4   2   38.90   29.09   0
   5   0   1  182.76   35.43   0
   5   0   2  167.72   34.37   0
   5   3   3   14.17   27.42   0
   5   4  -1   11.25   26.50   0
   4   1   5   64.02   38.05   0
   4   3   5    6.16   20.78   0
   4   6  -1   18.26   29.09   0
   4   6   1   27.42   21.90   0
   5   1   3    1.18   30.12   0
   5   4   1    0.33   22.37   0
   3   5   5   -2.86   19.37   0
   4   0   4   46.01   31.02   0
   4   2   5   56.88   33.68   0
   5   2   3    7.49   20.98   0
   5   4   0    1.00   22.28   0
   3   3   6   17.98   36.61   0
   4   4  -3   13.07   30.75   0
   4   5   3   39.05   22.63   0
   5   1   0   81.35   24.66   0
   5   1   2   23.59   28.23   0
   5   3   2    3.81   24.68   0
   3   2   6  100.79   46.66   0
   4   4   4   11.81   20.03   0
   5   1   1    1.79   22.14   0
   5   2   2   -1.54   25.61   0
   2   5   6   11.65   21.71   0
   3   7  -1  103.40   36.46   0
   3   7   1   45.75   25.72   0
   4   5  -2   13.15   24.15   0
   5   2   0    1.25   24.42   0
   5   3   0   13.01   20.64   0
   5   3   1  158.90   29.45   0
   3   7   0    1.76   20.46   0
   4   0   3  157.16   34.35   0
   5   2   1   50.22   26.66   0
   2   6   5   -5.77   16.95   0
   4   1   4   37.37   33.06   0
   4   5   2   -3.81   21.23   0
   3   6   3   35.31   20.71   0
   4   2  -2  118.96   28.82   0
   3   4   5    4.33   22.96   0
   4   4  -2   88.15   33.99   0
   4   4   3   39.50   20.66   0
   4   5  -1   -7.55   22.10   0
   4   5   1  125.06   31.43   0
   4   3  -2   11.76   25.39   0
   4   5   0   27.71   23.39   0
   3   1   5  282.48   44.35   0
   3   5   4    5.54   16.07   0
   2   4   6   -5.59   24.62   0
   2   7   3   17.72   18.13   0
   3   6  -2   49.42   28.75   0
   4   3   3   -0.75   22.80   0
   4   4   2   79.40   28.58   0
   3   2   5   57.96   31.51   0
   3   3   5   -0.51   22.21   0
   3   6   2   28.92   22.21   0
   4   1   1    6.18   18.74   0
   4   1   2  195.23   34.24   0
   4   2   3   15.26   23.12   0
   4   4  -1   11.26   20.25   0
   4   3  -1    6.48   21.61   0
   4   4   0   68.73   23.32   0
   4   4   1  131.61   30.49   0
   2   2   6    8.79   26.51   0
   2   3   6   48.55   29.42   0
   3   6  -1  168.72   31.41   0
   4   2   2   35.17   23.32   0
   4   3   2    1.04   20.16   0
   2   5   5    5.53   20.31   0
   2   6   4   -0.85   16.90   0
   3   4   4  113.06   28.17   0
   3   5   3   32.63   23.25   0
   3   6   1  163.05   27.19   0
   4   2   0   40.65   19.82   0
   4   2   1   18.76   20.91   0
   4   3   0   72.58   26.52   0
   4   3   1    8.09   22.72   0
   2   7  -2   16.55   23.38   0
   2   7   2   14.68   18.94   0
   3   1   4   55.20   26.36   0
   3   5  -2   77.88   29.38   0
   1   5   6   99.92   32.38   0
   1   7   4   -4.76   16.76   0
   1   8  -2   61.71   29.97   0
   1   8   2    3.39   13.25   0
   3   2   4  270.48   37.02   0
   2   7  -1  193.36   28.80   0
   2   7   1   22.66   17.83   0
   3   5   2   12.46   20.08   0
   0   9  -1  187.42   41.54   0
   1   6   5   -7.87   19.71   0
   2   4   5   17.57   24.11   0
   3   4  -2   37.74   25.01   0
   3   4   3   67.14   25.30   0
   3   5  -1  270.43   33.68   0
   0   6   6  138.52   32.13   0
   0   9   0   14.94   21.83   0
   1   8   1  137.49   25.25   0
   2   6   3   21.11   19.37   0
   3   5   1   58.26   23.77   0
  -1   7   6    3.50   16.76   0
   0   7   5   12.69   16.46   0
   1   8  -1   13.47   21.31   0
   1   8   0    4.74   18.76   0
   2   5   4    0.81   18.13   0
   3   5   0   27.53   18.29   0
   1   4   6    1.41   24.76   0
   2   2   5    7.54   23.94   0
   2   3   5   38.68   25.07   0
   3   2   3   65.27   20.83   0
   3   3   3  452.66   37.48   0
   3   4   2  101.85   26.45   0
   3   4  -1   19.19   20.70   0
   1   3   6   43.30   26.56   0
   1   7   3   68.66   17.81   0
   2   6  -2   28.93   21.07   0
   2   6   2   13.87   19.46   0
   3   2   2   36.73   21.62   0
   3   3  -1   -1.41   14.29   0
   3   4   0  100.59   23.78   0
   3   4   1   81.50   23.76   0
   0   8   3   57.24   19.85   0
   3   3   2  230.09   28.37   0
   1   5   5   35.92   22.80   0
   2   6  -1  214.99   30.51   0
   2   6   1   41.22   20.67   0
   3   3   0   38.68   18.47   0
   3   3   1   39.81   17.20   0
   1   6   4   54.09   18.47   0
   2   5   3    1.15   16.43   0
  -1   9   2   -9.55   14.46   0
   0   5   6  193.99   30.76   0
   1   7   2   14.25   17.76   0
   2   2   4  365.61   34.01   0
   2   3   4   90.61   22.92   0
   1   7  -2   46.73   23.31   0
   2   5  -2   83.40   24.83   0
  -1   8   4   39.58   17.08   0
   0   7   4   68.95   17.74   0
   0   8   2    0.98   16.76   0
   2   5   2   43.51   20.34   0
   0   6   5    6.52   17.14   0
   0   8  -2   45.48   21.54   0
   1   4   5  412.55   37.62   0
   1   7  -1    3.33   18.87   0
   1   7   1    0.27   15.00   0
   2   4   3   17.45   20.71   0
  -2   7   6    8.30   20.96   0
  -2   8   5   15.22   17.15   0
  -1   6   6   23.90   22.51   0
  -1   9   1   32.74   20.00   0
   1   6   3   13.52   19.04   0
   2   5  -1   40.48   20.29   0
   2   5   1    7.59   18.42   0
  -1   9  -1  160.05   30.37   0
   0   4   6    3.11   21.43   0
   0   8   1  221.31   25.31   0
   1   3   5   66.50   25.00   0
   1   5   4   39.29   20.10   0
   2   3   3   81.98   22.62   0
   2   5   0   40.99   19.33   0
  -2   9   3    6.12   15.20   0
  -1   9   0   -1.70   16.58   0
   0   8  -1   95.97   21.63   0
   2   4   2  288.35   28.93   0
  -3   9   4   83.63   20.54   0
   0   7   3   11.45   14.26   0
   1   6   2    7.05   18.84   0
   2   4  -1    8.62   13.40   0
  -1   8   3   68.34   17.50   0
   1   6  -2    9.54   18.83   0
   2   3   2  893.52   40.11   0
   2   4   0  495.51   32.96   0
   2   4   1   28.12   12.88   0
  -3  10  -1    8.86   22.10   0
   0   5   5   20.16   21.18   0
   0   6   4  265.17   25.86   0
  -3  10   0    3.09   18.86   0
  -1   5   6   49.11   23.07   0
   1   5   3   20.20   16.12   0
   1   6  -1    7.11   16.85   0
   1   6   1   -1.45   15.16   0
  -2   9   2   16.10   14.41   0
   0   7   2  259.19   26.62   0
   1   6   0   39.44   17.20   0
  -3   8   5   28.90   16.65   0
  -2   8   4   15.87   13.00   0
  -1   7   4  194.90   24.46   0
  -1   8   2  104.43   20.95   0
   1   3   4   65.27   19.27   0
  -4  10   2   90.61   27.17   0
  -3   7   6    0.35   18.14   0
  -2   6   6   -1.62   18.89   0
  -2   9  -2   42.35   25.69   0
  -1   6   5   -4.46   19.40   0
   0   7  -2    6.15   19.16   0
   1   5   2   41.57   20.33   0
  -2   7   5   -4.26   15.98   0
  -2   9   1   66.92   19.40   0
   0   4   5  198.06   25.03   0
   0   7   1    0.73   14.30   0
   1   4   3  142.74   22.69   0
   1   5  -2  461.24   34.04   0
  -3   9   3   17.33   16.41   0
  -2   9  -1   58.03   24.47   0
  -1   4   6   -1.01   20.51   0
  -1   8  -2    3.10   20.29   0
  -1   8   1   24.50   18.00   0
   0   6   3   37.35   19.02   0
   0   7  -1   -2.88   17.60   0
  -4   9   4   55.95   18.11   0
  -2   9   0   76.41   20.31   0
   0   3   5  100.02   22.33   0
   1   5  -1    0.18   16.30   0
   1   5   1   36.38   15.58   0
  -4  10   1    1.28   19.32   0
  -1   8  -1   75.52   21.09   0
   1   5   0  360.44   27.60   0
  -4  10  -1   23.34   22.50   0
  -2   8   3   95.46   20.63   0
  -1   7   3    2.66   14.48   0
   1   4   2  244.95   23.84   0
  -4  10   0   53.72   21.58   0
   0   6   2   78.84   21.38   0
  -5  10   2   34.33   20.54   0
  -4   8   5   44.53   18.78   0
  -3   9   2   44.96   18.66   0
  -1   5   5   32.53   19.85   0
  -1   6   4  196.95   24.05   0
  -4   7   6    0.12   20.49   0
  -3   8   4   79.58   19.47   0
  -2   5   6    6.30   19.88   0
   0   4   4  118.64   22.18   0
   0   6  -2    9.63   18.37   0
  -2   7   4   63.21   18.20   0
  -1   7   2  623.38   35.17   0
   0   5   3  191.09   20.26   0
   0   6   1  132.06   21.21   0
  -5   9   4   13.36   14.92   0
  -4   9   3    0.83   15.56   0
  -3   6   6    0.09   16.87   0
  -3   9  -2  202.70   36.07   0
  -2   6   5   -1.52   18.71   0
  -2   8   2   78.36   18.00   0
   0   6  -1   25.49   18.87   0
  -5  10   1    0.59   17.89   0
  -3   7   5   -5.36   13.83   0
  -3   9   1   79.17   19.63   0
   0   6   0   15.60   15.03   0
  -5  10  -1   -0.30   18.61   0
  -1   4   5  243.23   29.47   0
  -1   7   1   14.90   18.39   0
  -5  10   0  105.52   29.51   0
  -3   9  -1   88.10   22.30   0
  -2   4   6    4.77   19.95   0
  -2   8  -2  130.06   24.09   0
  -2   8   1   80.91   20.54   0
  -1   6   3    3.48   17.99   0
  -1   7  -2  262.86   26.66   0
   0   5   2  164.96   21.62   0
  -6   9   4    1.36   17.18   0
  -5   7   6    3.01   17.82   0
  -5   8   5   67.20   21.40   0
  -3   8   3   27.28   17.44   0
  -1   7  -1   58.79   19.32   0
   0   4   3  150.10   22.71   0
  -8   5  -1   74.36   41.49   0
  -7   2   1   25.42   41.79   0
  -7   5   0   15.42   38.02   0
  -7   6  -1   -4.25   25.49   0
  -7   7  -6   11.39   30.11   0
  -5   7  -3   52.16   47.60   0
  -8   2  -1  -10.47   42.49   0
  -7   7  -4   65.45   34.10   0
  -6   4   1   21.84   34.27   0
  -6   7  -3   18.71   38.72   0
  -5   6  -1  101.17   41.11   0
  -8   6  -3   59.56   35.23   0
  -7   7  -5   -0.94   32.66   0
  -8   4  -1  135.38   43.47   0
  -8   6  -5  -10.83   25.27   0
  -8   6  -4   21.98   26.38   0
  -6   5   0   28.52   30.37   0
  -8   5  -2   27.14   35.19   0
  -7   1   0   -3.08   45.91   0
  -6   7  -4   11.92   34.98   0
  -8   2  -2    5.21   37.36   0
  -8   5  -6    6.71   22.95   0
  -7   4   0   38.36   30.41   0
  -7   6  -2  113.76   32.27   0
  -6   3   1   -1.08   33.35   0
  -6   7  -6   -2.46   40.54   0
  -4   6  -2  111.56   45.83   0
  -8   2  -4    5.10   31.58   0
  -8   2  -3   -6.54   33.60   0
  -7   5  -1   44.12   35.86   0
  -6   1   1   -5.91   37.14   0
  -6   7  -5   19.86   35.85   0
  -8   4  -2   -2.87   30.82   0
  -8   5  -3   41.52   32.36   0
  -7   2   0    5.24   38.05   0
  -7   3   0  128.96   47.00   0
  -7   6  -7    7.41   24.21   0
  -6   2   1  152.64   41.21   0
  -8   5  -5   -3.21   28.99   0
  -8   5  -4    0.91   29.00   0
  -7   6  -3   11.53   26.22   0
  -6   6  -2   35.34   30.32   0
  -5   6  -2  -12.12   36.12   0
  -6   4   0   14.69   30.32   0
  -8   4  -5    7.69   25.57   0
  -8   4  -3    6.30   26.16   0
  -7   1  -1   -1.86   40.50   0
  -6   5  -1   16.19   31.56   0
  -8   4  -4    6.21   23.94   0
  -7   4  -1   62.04   33.25   0
  -7   5  -2   96.81   35.86   0
  -7   6  -4   16.37   25.92   0
  -6   6  -3    8.77   34.25   0
  -4   6  -3  165.58   49.10   0
  -7   2  -1  -14.86   37.43   0
  -7   3  -1   11.62   37.27   0
  -6   3   0  145.25   38.18   0
  -7   1  -2   26.98   39.37   0
  -7   5  -7   -9.08   23.47   0
  -6   1   0   -2.40   38.33   0
  -5   6  -3  162.82   44.23   0
  -7   5  -3    6.24   26.56   0
  -6   2   0   24.10   32.73   0
  -7   1  -5    5.20   33.79   0
  -7   4  -2   23.14   28.84   0
  -6   4  -1   13.68   30.36   0
  -6   5  -2    9.81   32.18   0
  -6   6  -7   36.71   31.77   0
  -6   6  -4    6.21   32.79   0
  -7   1  -3   23.17   35.32   0
  -7   3  -7   12.87   28.37   0
  -7   4  -7   35.04   27.42   0
  -7   5  -6    1.99   26.03   0
  -7   5  -4  -18.42   29.94   0
  -6   0  -1   20.72   39.23   0
  -6   6  -5  210.71   44.76   0
  -5   6  -8    2.16   35.86   0
  -7   1  -4   -7.37   37.93   0
  -7   2  -2   19.93   33.49   0
  -7   3  -2   84.59   30.50   0
  -7   5  -5  -13.53   29.22   0
  -6   6  -6   44.02   27.88   0
  -5   6  -4   38.68   36.84   0
  -4   6  -4    7.46   33.47   0
  -7   2  -6    4.87   29.87   0
  -7   4  -3   62.51   35.74   0
  -5   4  -1   -9.57   24.03   0
  -7   2  -3   86.07   36.09   0
  -7   3  -6   -2.19   25.66   0
  -7   3  -3    8.13   31.34   0
  -7   4  -6    8.31   25.70   0
  -7   4  -4   39.57   33.15   0
  -6   3  -1  200.63   37.75   0
  -6   5  -3   13.69   24.63   0
  -5   5  -9    0.44   30.67   0
  -5   6  -7   40.40   32.05   0
  -5   6  -5   52.72   40.76   0
  -7   4  -5   15.39   26.81   0
  -6   1  -1  245.96   55.56   0
  -6   4  -2   53.93   33.26   0
  -5   6  -6   87.24   39.30   0
  -4   6  -5   40.46   38.10   0
  -7   3  -5  130.57   40.54   0
  -7   3  -4   -0.62   25.84   0
  -6   0  -6   -1.24   32.74   0
  -6   0  -2  115.89   48.94   0
  -6   2  -8   -0.29   26.14   0
  -6   4  -8   26.32   26.01   0
  -6   5  -4  216.26   35.43   0
  -5   5  -3  211.11   43.28   0
  -4   6  -6   10.90   37.70   0
  -6   5  -6   74.65   30.70   0
  -6   5  -5   -5.52   27.37   0
  -6   0  -3   -5.60   38.26   0
  -6   1  -7    0.73   26.53   0
  -6   3  -8   -9.82   24.81   0
  -6   3  -2   61.10   34.35   0
  -6   4  -3    1.42   31.79   0
  -6   0  -5   11.98   41.32   0
  -6   0  -4   65.68   56.65   0
  -6   1  -2   29.79   40.86   0
  -5   4  -2  247.17   42.90   0
  -5   5  -8   29.77   32.91   0
  -6   4  -7   24.03   25.05   0
  -6   4  -4  -21.48   35.68   0
  -5   5  -4  599.29   52.37   0
  -4   5  -9    7.92   29.27   0
  -6   2  -7   22.10   28.57   0
  -6   3  -3  157.77   43.21   0
  -5   0  -1  184.70   55.48   0
  -6   1  -6   46.29   28.85   0
  -6   1  -3  242.51   46.22   0
  -6   3  -7   -3.25   26.22   0
  -6   4  -6   28.16   29.98   0
  -6   4  -5   39.20   29.70   0
  -5   5  -7   21.32   32.64   0
  -5   5  -5   23.28   34.19   0
  -6   1  -4    0.44   36.96   0
  -6   2  -3  323.44   48.63   0
  -5   2  -9   -3.19   26.73   0
  -5   3  -9   -5.88   22.94   0
  -5   5  -6  148.34   43.94   0
  -4   5  -4  123.40   37.03   0
  -6   1  -5   45.28   30.32   0
  -6   2  -6   30.86   33.23   0
  -6   3  -6   10.73   31.28   0
  -6   3  -4    3.21   28.98   0
  -5  -1  -6    4.02   38.87   0
  -5   3  -2  146.56   38.13   0
  -5   4  -3   13.04   25.58   0
  -6   2  -5  122.43   39.33   0
  -6   2  -4   41.06   31.05   0
  -6   3  -5   32.15   28.53   0
  -5   4  -8   14.87   32.24   0
  -4   5  -8   18.39   33.12   0
  -4   5  -5   52.40   39.14   0
  -5  -1  -5    3.73   40.20   0
  -5  -1  -4   15.03   42.79   0
  -5   0  -2  112.84   51.08   0
  -5   4  -4   25.70   32.48   0
  -4   2 -10   11.38   25.94   0
  -4   5  -7    9.26   34.99   0
  -5   0  -7   38.83   35.03   0
  -5   1  -8   -5.94   27.13   0
  -5   2  -2   37.19   33.25   0
  -5   4  -7    7.31   31.70   0
  -4   5  -6  355.94   50.01   0
  -3   4 -10   -7.90   29.99   0
  -3   5  -5   30.00   40.21   0
  -5   1  -2   93.53   42.98   0
  -5   3  -8    5.83   26.14   0
  -5   3  -3   75.05   33.16   0
  -5   4  -5    3.81   30.98   0
  -4   4  -9   -0.35   27.90   0
  -3   5  -8    5.73   36.48   0
  -5   2  -8    0.40   28.84   0
  -5   4  -6  283.26   40.87   0
  -4  -1  -8    1.85   34.91   0
  -3   5  -6   26.34   38.05   0
  -5   0  -3    0.90   43.78   0
  -3   5  -7   -4.85   34.98   0
  -5   0  -6    8.95   37.14   0
  -5   1  -7   25.39   31.47   0
  -5   2  -3  223.74   43.37   0
  -5   3  -7   49.63   36.22   0
  -5   3  -4  217.25   47.40   0
  -2   4 -10   11.70   38.54   0
  -5   0  -5   40.11   39.63   0
  -5   0  -4   67.28   43.06   0
  -5   1  -3  106.33   44.22   0
  -4   3  -9   -4.45   27.43   0
  -5   2  -7    6.72   30.49   0
  -5   3  -6   17.02   29.82   0
  -5   3  -5    5.00   30.74   0
  -4   1  -9   19.13   31.02   0
  -5   1  -6    3.25   30.71   0
  -5   2  -4    5.14   31.38   0
  -4   2  -9   11.60   29.90   0
  -3   0 -10   -0.21   25.11   0
  -3   3 -10    4.76   32.77   0
  -3   4  -9   14.39   33.86   0
  -5   2  -6   -0.64   29.74   0
  -5   2  -5   62.82   38.52   0
  -4  -1  -7   57.14   41.02   0
  -2   2 -11    0.57   28.47   0
  -4   3  -8   19.05   33.42   0
  -3  -2  -8    2.88   37.36   0
  -3   1 -10    5.84   30.42   0
  -2   1 -11    3.95   27.14   0
  -3  -1  -9   -6.08   26.82   0
  -3   4  -8    6.03   34.91   0
  -2   4  -9   35.33   47.48   0
  -4   3  -4  249.56   47.82   0
  -4  -1  -6   37.67   47.77   0
  -4  -1  -3  158.59   54.39   0
  -4   1  -8    9.42   28.86   0
  -4   2  -8   30.93   32.03   0
  -4   3  -7  -15.47   35.49   0
  -3   4  -5   93.03   32.55   0
  -4   3  -6  116.55   41.94   0
  -4   3  -5   74.38   37.37   0
  -3   4  -7   26.15   28.38   0
  -3   4  -6  138.65   43.64   0
  -2   3 -10   24.39   34.22   0
  -4  -1  -5   70.82   49.73   0
  -4  -1  -4   69.23   45.79   0
  -2  -3  -8   -5.60   34.54   0
  -2  -1 -10   -3.69   31.47   0
  -4   0  -3  101.32   44.68   0
  -4   2  -7   17.99   38.02   0
  -3   0  -9   38.89   33.50   0
  -2   4  -8  105.90   44.94   0
  -1   2 -11    9.39   31.13   0
  -4   1  -7   43.90   33.45   0
  -4   2  -4   28.28   28.02   0
  -3  -2  -7   15.86   40.12   0
  -3   2  -9   18.20   32.47   0
  -2  -2  -9    1.69   28.55   0
  -4   2  -6   14.57   34.50   0
  -4   2  -5    8.98   33.78   0
  -3   1  -9    2.26   33.46   0
  -2   4  -7   81.57   43.15   0
  -2   4  -6   47.32   38.41   0
  -1   3 -10    8.35   40.51   0
  -4   0  -5  182.10   44.48   0
  -4   0  -4   34.18   33.90   0
  -4   1  -6  -18.60   31.82   0
  -4   1  -4   37.27   37.30   0
  -2   0 -10   12.66   31.80   0
  -1   0 -11  -16.20   26.08   0
  -4   1  -5   15.63   31.12   0
  -2   3  -9  -16.17   36.22   0
   0   2 -11    0.02   40.71   0
  -3  -2  -6  124.97   52.45   0
  -2   1 -10    8.29   25.02   0
  -3   0  -8   40.24   37.59   0
  -3   2  -8  139.13   43.41   0
  -1  -3  -9    2.54   36.22   0
  -3   1  -8   43.54   38.05   0
  -2  -3  -7   10.43   41.38   0
  -3  -2  -5   59.44   45.86   0
  -3  -2  -4  227.55   59.40   0
  -2  -1  -9   27.26   32.34   0
  -3   2  -7   25.21   37.49   0
  -2   2  -9   -5.98   32.13   0
  -2   3  -8   13.15   31.40   0
  -1   2 -10   -4.09   32.61   0
  -1   3  -9   31.00   37.92   0
  -2  -2  -8    4.43   28.45   0
   0  -1 -11    8.41   23.05   0
   0   1 -11   21.63   32.10   0
  -3  -1  -6   55.58   42.11   0
  -3   0  -7   90.07   30.45   0
  -3   1  -7   43.99   39.69   0
  -3   2  -6  153.97   39.67   0
  -2   0  -9    6.05   33.55   0
  -1  -4  -7  -10.51   46.54   0
  -1  -1 -10   35.61   34.30   0
   0   0 -11   10.29   29.07   0
  -3   2  -5  165.32   35.19   0
  -2  -3  -6   31.97   44.37   0
  -2   1  -9   66.33   32.45   0
  -2   3  -7   43.85   30.53   0
   0   3  -9   -5.17   42.33   0
  -3  -1  -5  200.31   53.28   0
  -2   3  -6  189.27   39.96   0
  -1   0 -10    7.11   30.96   0
  -1   1 -10   16.42   26.95   0
  -3  -1  -4   86.52   35.43   0
  -3   0  -6    9.09   27.26   0
  -3   1  -6  412.75   44.16   0
  -2   2  -8  171.44   45.24   0
  -1   3  -8   41.91   36.87   0
   0   2 -10   39.88   38.22   0
   1  -2 -11   -0.71   27.55   0
   1   1 -11   19.71   36.87   0
  -3   0  -5  173.37   42.84   0
  -3   1  -5   -3.96   24.56   0
  -2  -1  -8   10.92   34.82   0
  -1  -3  -8    8.58   32.06   0
  -1  -2  -9    3.55   33.23   0
  -2  -3  -5   32.99   43.94   0
  -2  -2  -7  -14.28   34.43   0
  -1   2  -9   11.03   36.26   0
   2   1 -11   12.67   37.75   0
  -2   0  -8   60.80   39.34   0
  -2   1  -8   92.47   33.36   0
  -1   3  -7  161.10   41.93   0
   0  -2 -10   24.35   27.43   0
   1   2 -10   24.54   41.49   0
  -2   2  -7   -6.48   28.44   0
  -1  -4  -6   14.13   39.47   0
   0   3  -8   64.94   38.10   0
   1  -1 -11    8.96   21.14   0
  -1  -1  -9   -4.04   31.77   0
   0  -4  -8   33.97   35.97   0
  -2  -2  -6   28.99   34.72   0
  -2  -1  -7   -1.08   34.46   0
  -1   1  -9    5.73   25.50   0
   0  -1 -10   85.26   34.09   0
   1  -5  -8   22.41   32.77   0
   1  -3 -10    2.21   26.62   0
  -2   1  -7   28.38   33.55   0
  -1   0  -9    6.97   27.96   0
  -1   2  -8   64.52   35.37   0
   0   0 -10   24.86   31.40   0
   2  -2 -11   -7.83   24.37   0
  -2   0  -7  169.79   36.21   0
  -1  -3  -7   41.01   37.99   0
  -1  -2  -8   17.53   30.85   0
   0   2  -9   13.90   28.96   0
   1  -4  -9   17.93   26.32   0
   2   0 -11   13.82   32.52   0
  -2  -2  -5   28.11   35.83   0
   2  -1 -11    5.45   28.75   0
   3   0 -11    0.12   31.91   0
  -2   1  -6  674.51   54.43   0
   1   1 -10   -8.38   28.66   0
  -2  -2  -4  385.74   47.36   0
  -2   0  -6  192.78   35.27   0
   1   2  -9   37.19   39.33   0
  -1  -1  -8   34.06   28.33   0
  -1   1  -8   36.60   25.81   0
  -1   2  -7  103.45   28.35   0
   0  -2  -9   47.91   27.79   0
   1  -2 -10    5.38   23.88   0
   3  -2 -11   10.73   26.19   0
  -1   0  -8   51.78   28.25   0
   0  -4  -7  126.71   39.48   0
   2   1 -10   -3.23   30.57   0
   3  -1 -11    8.44   22.98   0
  -1  -3  -6   62.76   31.79   0
   0   2  -8   42.16   26.42   0
   1  -1 -10   11.41   27.30   0
   1   0 -10   52.95   25.89   0
   0  -1  -9   14.74   24.62   0
   0   0  -9   -3.78   27.59   0
   2  -3 -10   -6.02   25.54   0
   3  -4 -10   -0.40   23.96   0
  -1   1  -7    9.21   25.51   0
   1  -5  -7   -2.08   30.92   0
   3  -6  -8   -1.54   26.46   0
   1  -3  -9   26.13   23.99   0
  -1  -3  -5   51.29   34.05   0
  -1  -1  -7   61.44   25.38   0
  -1   0  -7  127.73   33.02   0
   0   2  -7   37.50   25.88   0
   1  -4  -8    8.52   26.61   0
   1   2  -8   48.44   28.64   0
   2   0 -10   16.60   27.85   0
   3  -5  -9   61.43   27.41   0
   0  -2  -8   32.38   26.94   0
   1   1  -9  152.97   29.23   0
   2  -5  -8   46.11   29.20   0
   2  -4  -9   38.06   26.63   0
   2  -2 -10    5.89   22.91   0
   0  -4  -6    0.81   28.26   0
   2  -1 -10   31.21   23.87   0
   4   0 -10    4.13   29.34   0
  -1  -3  -4   31.65   29.46   0
   1  -2  -9   67.99   22.89   0
   3   0 -10    1.69   25.91   0
   4  -4 -10   -1.81   18.74   0
  -1  -1  -6    6.35   21.32   0
   0  -1  -8  210.07   27.48   0
   0   0  -8   57.97   20.34   0
   1   0  -9   77.57   26.25   0
   2   1  -9  131.01   31.77   0
   3  -3 -10   13.01   20.66   0
  -1   0  -6   62.13   19.02   0
   1  -1  -9    4.42   18.19   0
  -1  -2  -5    2.27   17.44   0
  -4   2  -6   13.01   27.16   0
  -4   2  -4   18.53   25.07   0
  -4   4  -8   -6.56   20.84   0
  -4   5  -4  132.50   30.04   0
  -3   0  -6    3.99   27.34   0
  -3   1  -8   13.32   29.86   0
  -2   4 -11   31.05   22.14   0
  -2   6 -10   23.89   20.89   0
  -4   2  -5    8.62   24.09   0
  -4   3  -7   -2.26   24.81   0
  -4   5  -7    4.59   24.21   0
  -3   0  -5  143.11   32.29   0
  -4   5  -5   43.41   25.61   0
  -1   0 -10    3.76   28.44   0
  -4   3  -6  105.77   30.63   0
  -4   3  -4  286.85   33.53   0
  -4   4  -7   58.13   24.02   0
  -4   4  -4  736.07   45.38   0
  -3   6  -8   27.75   24.52   0
  -4   3  -5   87.41   22.20   0
  -4   4  -6   28.81   25.73   0
  -4   4  -5    7.11   22.10   0
  -3   3  -9   10.51   22.51   0
  -3   5  -9   -0.90   21.32   0
  -3   6  -5  132.96   33.38   0
  -3   1  -7   17.29   26.93   0
  -3   4  -9   32.42   22.96   0
  -1   5 -11   12.53   20.14   0
  -3   2  -8  156.37   30.34   0
  -3   6  -7   26.94   20.83   0
  -3   6  -6   -0.63   24.22   0
  -2   0  -8   71.36   31.63   0
  -2   5 -10   20.65   18.28   0
  -1   6 -10   34.16   22.79   0
  -2   1  -9   52.07   28.21   0
  -2   6  -9    2.65   18.36   0
  -3   1  -6  337.01   38.24   0
  -3   5  -8   -7.16   19.97   0
  -2   3 -10   21.07   22.66   0
  -3   1  -5   -0.80   18.45   0
  -3   3  -8  147.96   31.61   0
  -2   4 -10   -3.16   19.35   0
  -1   3 -11   -1.51   18.70   0
  -1   4 -11   23.94   18.63   0
   0   6 -10   11.32   21.87   0
  -3   2  -7   38.33   23.43   0
  -3   4  -8   12.03   23.17   0
   0   5 -11   -0.51   17.58   0
  -2   0  -7  133.31   32.70   0
  -2   6  -8   71.41   25.95   0
  -1   1 -10   19.84   23.67   0
  -3   5  -6   26.56   22.71   0
  -3   5  -5   43.98   22.08   0
  -2   5  -9  134.18   25.01   0
  -1   0  -9   14.04   21.75   0
  -1   6  -9   20.14   22.02   0
   0   1 -11   28.49   19.87   0
  -3   2  -6  183.33   27.94   0
  -3   3  -7    5.48   22.47   0
  -3   4  -7   21.04   22.93   0
  -2   2  -9    3.93   16.83   0
  -2   6  -7    3.23   22.85   0
  -2   6  -6   24.89   23.83   0
  -3   2  -5   46.45   25.22   0
  -2   1  -8   68.46   26.19   0
   1   0 -11   10.69   26.51   0
  -3   3  -6    8.41   20.40   0
  -3   4  -6  192.06   25.62   0
  -3   4  -5   55.59   22.76   0
  -2   0  -6  204.30   31.25   0
  -2   3  -9    2.22   21.15   0
  -2   4  -9   48.03   24.60   0
   0  -1  -9    7.11   24.68   0
  -3   3  -5   95.85   22.34   0
  -1  -1  -7   37.35   27.61   0
  -1   2 -10    8.99   19.52   0
  -1   6  -8   13.01   29.17   0
   0   0 -10   20.98   24.19   0
   0   4 -11    5.50   16.29   0
   0   6  -9   12.37   24.16   0
  -1   4 -10    9.60   18.14   0
   0   2 -11    1.58   16.46   0
   1  -1 -10    7.80   24.65   0
  -2   2  -8  146.77   30.33   0
  -1   3 -10    3.57   19.96   0
   0   3 -11   21.94   16.26   0
  -1   6  -7   21.23   22.99   0
   0   5 -10   16.08   18.60   0
  -2   3  -8   28.98   22.53   0
  -2   4  -8  175.89   26.71   0
  -2   5  -7   21.08   18.35   0
  -1   0  -8   44.43   25.07   0
  -1   1  -9   -1.03   19.53   0
   0   6  -8   12.47   22.96   0
  -2   5  -6   54.23   22.68   0
  -2   5  -5    9.76   20.70   0
  -1  -1  -6    3.51   24.48   0
   1   4 -11   -4.45   15.80   0
  -2   2  -7    7.25   14.24   0
  -2   4  -7   89.25   25.25   0
   1   5 -10   16.43   18.52   0
   3  -1 -11   -5.06   21.56   0
  -2   3  -7   43.04   23.49   0
  -1   2  -9   13.05   17.90   0
  -1   4  -9  132.37   22.91   0
  -1   5  -8  118.09   25.52   0
   0  -1  -8  195.78   31.60   0
   1   2 -11   52.55   20.49   0
   1   3 -11   28.08   18.65   0
   2   0 -11   22.44   23.10   0
   2   5 -10   -4.41   18.42   0
  -1   3  -9   51.30   19.12   0
   0   0  -9    1.43   22.57   0
  -2   2  -6  626.59   35.97   0
  -1   0  -7  150.14   27.98   0
   0   2 -10   62.39   19.93   0
   0   3 -10   16.58   20.40   0
   0   5  -9    2.33   18.45   0
  -2   3  -6  191.14   23.75   0
   1   0 -10   46.91   22.38   0
  -1   5  -7  152.07   22.69   0
   1  -1  -9    1.99   27.49   0
  -1   4  -8   -6.30   13.81   0
   2  -1 -10   23.62   23.18   0
   2   1 -11   37.89   21.24   0
   2   3 -11    4.52   16.11   0
  -1   0  -6   54.89   23.36   0
  -1   2  -8   67.98   19.90   0
  -1   3  -8   54.37   23.41   0
  -1   5  -6  394.79   32.71   0
  -1   5  -5   43.78   23.98   0
   1   4 -10    8.99   15.00   0
   1   5  -9   10.29   17.86   0
   0  -1  -7    5.70   22.91   0
   0   4  -9   27.44   18.80   0
   0   5  -8   53.55   21.14   0
   2   2 -11    5.33   14.59   0
   3   0 -11    4.60   18.10   0
   3   3 -11   -2.43   15.17   0
   1   1 -10   -4.11   15.42   0
   2   5  -9   29.67   22.70   0
   0   0  -8   78.69   20.49   0
   0   2  -9  -10.19   19.26   0
   0   3  -9    4.00   18.53   0
   1   3 -10   -0.05   17.66   0
   1   2 -10   48.52   18.60   0
   3   4 -10   53.42   19.64   0
  -1   2  -7   84.19   18.55   0
  -1   3  -7  167.43   21.79   0
   0   5  -7   69.67   18.52   0
   1   5  -8   45.57   21.67   0
   3   1 -11    8.97   14.54   0
   3   2 -11   -1.47   14.34   0
  -1   4  -6  103.39   18.25   0
   1   0  -9   65.21   25.20   0
   2   0 -10   29.52   21.00   0
   4   2 -11    6.97   14.78   0
   0   4  -8    7.33   16.87   0
   0   5  -6   63.62   23.17   0
   0   1  -8   -0.77   18.04   0
   1  -1  -8   92.35   25.72   0
   2   3 -10   48.84   20.87   0
   2   5  -8    4.21   18.62   0
   3  -1 -10   18.74   20.68   0
   4   1 -11   -1.04   12.17   0
   5   1 -11    1.88   12.12   0
  -1   2  -6  186.25   21.49   0
  -1   3  -6   -0.57   12.86   0
   0   3  -8   91.51   22.62   0
   2   1 -10   13.24   18.17   0
   0   0  -7   54.55   19.68   0
   0   2  -8   28.86   16.75   0
   1   1  -9  164.07   25.26   0
   1   5  -7   12.27   18.60   0
   2  -2  -8   25.28   23.36   0
   2  -1  -9    1.37   20.73   0
   2   2 -10   -4.45   18.49   0
   0   4  -7  180.67   25.53   0
   1   3  -9   35.67   16.82   0
   2   4  -9   14.94   19.26   0
   3  -2  -9    7.32   22.04   0
   3   3 -10   32.01   18.50   0
   4   4  -9   -0.94   19.21   0
   5  -2 -10   -4.71   21.02   0
   1   2  -9   53.71   18.04   0
   2   5  -7   -0.29   18.69   0
   3   4  -9   33.65   19.55   0
   0   1  -7    7.71   17.96   0
   1   0  -8   21.87   20.00   0
   4  -1 -10   -1.89   19.92   0
   0   3  -7  352.32   26.15   0
   0   4  -6  121.66   22.92   0
   3   1 -10   -1.57   18.29   0
   3   2 -10   31.15   16.29   0
   0   2  -7   55.35   15.08   0
   1  -1  -7   30.53   20.88   0
   2   3  -9   -1.48   17.48   0
   5   2 -10    2.64   14.89   0
   1   3  -8   40.78   18.98   0
   2   4  -8   -3.07   18.97   0
   4   2 -10   34.08   16.27   0
   6   1 -10   12.76   15.84   0
   1   1  -8   -4.55   13.77   0
   1   4  -7    1.19   16.61   0
   2   1  -9  203.82   27.63   0
   2   2  -9  110.30   23.46   0
   4   0 -10   -3.20   17.08   0
   4   4  -8   16.53   22.74   0
   5  -1 -10    3.78   18.77   0
   5   3  -9    1.49   16.51   0
   1   2  -8   64.36   18.05   0
   2  -1  -8   37.80   21.95   0
   3  -1  -9   28.88   21.19   0
   3   3  -9   17.99   15.93   0
   3   4  -8   34.06   21.04   0
   4  -2  -9   67.60   26.61   0
   4   1 -10   -3.16   15.78   0
   6  -3  -9    5.79   24.46   0
   0   3  -6    9.93   14.08   0
   2  -2  -7   11.18   21.43   0
   5   0 -10    0.19   17.54   0
   5   1 -10    8.50   15.25   0
   6   0 -10    9.51   15.26   0
   3  -2  -8   14.92   24.00   0
   1   3  -7   -2.01   17.83   0
   1   4  -6   17.35   16.16   0
   2   3  -8   31.61   18.19   0
   2   4  -7    5.00   17.16   0
   3   0  -9    2.17   14.52   0
   3   2  -9    6.99   18.33   0
   3   1  -9   41.52   22.16   0
   4   4  -7   48.28   31.49   0
   1   1  -7  226.84   24.75   0
   1   2  -7    9.40   15.80   0
   3   4  -7   75.60   22.95   0
   4  -1  -9   -2.80   20.95   0
   5  -2  -9   51.26   24.72   0
   2   1  -8    3.88   18.26   0
   2   2  -8   84.34   18.79   0
   4   2  -9   13.16   16.20   0
   5   2  -9   30.24   14.62   0
   5   3  -8   13.16   20.23   0
   6   3  -7   -3.62   20.02   0
   7  -2  -9    2.94   15.62   0
   2  -1  -7  251.15   32.06   0
   2   4  -6   26.42   18.57   0
   4   0  -9    7.52   18.94   0
   4   1  -9    0.52   18.68   0
   4   3  -8  130.29   27.75   0
   6  -2  -9    0.65   17.96   0
   6   1  -9    4.59   15.88   0
   7   0  -9   -2.94   11.89   0
   3  -1  -8   37.03   18.17   0
   5  -3  -8    2.22   22.78   0
   7  -1  -9    1.76   14.46   0
   4  -2  -8   12.72   20.55   0
   5   1  -9    4.35   14.63   0
   3   2  -8   64.19   21.59   0
   3   4  -6   -1.41   16.59   0
   5   0  -9   -2.53   15.08   0
   6  -1  -9    5.16   13.09   0
   6   0  -9    3.97   16.17   0
   6   2  -8    1.03   17.38   0
   7   2  -7   -0.19   15.02   0
   2   4  -5    5.38   17.20   0
   3  -2  -7    4.07   20.62   0
   3   0  -8   38.21   19.51   0
   2   0  -7  178.88   22.40   0
   2   2  -7  265.75   24.57   0
   3   1  -8   -7.61   14.44   0
   4  -3  -7   10.02   22.53   0
   5   3  -7   -1.36   20.40   0
   6  -3  -8    2.46   22.49   0
   7   1  -8   -4.07   15.73   0
   2   1  -7  401.07   30.68   0
   3   3  -7  115.98   20.67   0
   4   2  -8  120.35   21.12   0
   5   2  -8   42.77   19.40   0
   7  -3  -8    2.93   20.63   0
   4   3  -7   14.26   20.58   0
   8  -2  -8    5.90   14.89   0
   8  -1  -8    9.93   15.24   0
   2   3  -6   88.80   16.57   0
   5  -2  -8    2.25   21.82   0
   6  -4  -7   10.09   27.96   0
   4   0  -8    0.24   19.55   0
   4   1  -8   18.51   16.35   0
   6   1  -8   10.93   16.57   0
   8  -4  -7   -3.95   22.26   0
   3  -1  -7  117.72   24.39   0
   5   1  -8    0.58   17.69   0
   7   0  -8    4.70   13.81   0
   7   2  -6   -1.07   17.77   0
   8   1  -6    1.24   15.38   0
   3   2  -7  120.01   20.77   0
   6   2  -7    3.07   17.48   0
   7  -4  -7   -6.17   21.82   0
   3   3  -6   28.06   17.98   0
   5  -1  -8   -2.26   14.66   0
   5   0  -8    1.56   18.28   0
   5   3  -6   58.82   27.21   0
   7  -1  -8  111.29   23.11   0
   8   0  -7    6.98   12.62   0
   2   2  -6  172.97   19.77   0
   3   0  -7  326.93   28.96   0
   3   1  -7  163.25   24.17   0
   4  -2  -7    7.07   20.47   0
   5  -3  -7  106.15   27.82   0
   6  -1  -8   -3.46   17.79   0
   6   0  -8   11.39   15.63   0
   4   2  -7   23.28   16.33   0
   4   3  -6  126.70   25.00   0
   3  -2  -6   62.91   20.00   0
   7   2  -5    3.99   18.43   0
   8  -3  -7    5.66   15.78   0
   8  -1  -7   -3.43   15.29   0
   9  -4  -6   -5.81   13.95   0
   4  -3  -6   18.98   22.61   0
   4  -1  -7   -0.38   18.71   0
   4   1  -7   28.91   18.41   0
   5   3  -5   27.11   30.66   0
   8   1  -5    2.59   15.04   0
   3   2  -6  153.09   23.25   0
   3   3  -5    3.69   15.64   0
   4   0  -7    1.05   17.50   0
   6   1  -7   20.82   15.57   0
   6   2  -6   28.97   20.56   0
   7  -3  -7    9.10   17.89   0
   8  -2  -7    2.52   13.80   0
   5  -2  -7  130.03   24.81   0
   5   1  -7   15.39   13.74   0
   7   0  -7   21.83   15.19   0
   9  -2  -6    4.99   12.28   0
   4   3  -5   75.86   23.03   0
   8   0  -6    4.29   14.61   0
   9  -3  -6   -1.42   14.27   0
   5  -1  -7   15.91   18.24   0
   5   0  -7   -0.95   18.33   0
   5   2  -6   67.52   23.13   0
   6  -4  -6   23.30   23.39   0
   6   0  -7    4.29   17.52   0
   7  -2  -7   25.57   18.32   0
   7  -1  -7   -0.19   15.54   0
   7   2  -4   -0.55   19.01   0
   3   0  -6    1.30   15.69   0
   3   1  -6    0.72   11.33   0
   6  -1  -7    2.78   17.75   0
   8  -4  -6    3.16   18.59   0
   8   1  -4    8.84   19.04   0
   7  -4  -6    0.68   18.60   0
   9  -1  -5    2.26   13.14   0
   4  -2  -6  178.20   25.15   0
   5  -3  -6    3.64   19.75   0
   6   2  -5    0.26   19.21   0
   4   3  -4    8.80   20.64   0
   6   1  -6    3.92   15.42   0
   8  -5  -5   -5.10   21.49   0
   8  -1  -6   23.96   18.30   0
   3   2  -5   65.34   15.84   0
   4   1  -6   24.37   13.10   0
   7  -5  -5    3.69   24.16   0
   8   1  -3   -0.31   18.01   0
   4  -1  -6    2.44   17.39   0
   5  -4  -5   -1.80   20.89   0
   5   1  -6   89.08   18.33   0
   7   0  -6   28.68   15.34   0
   7   1  -5   14.81   19.44   0
   8  -2  -6   23.56   16.81   0
   9  -4  -5    3.69   14.46   0
   4   0  -6    5.40   13.33   0
   4   2  -5   26.82   16.67   0
   5   2  -5   32.71   19.12   0
   6  -3  -6   -8.16   19.05   0
   9  -2  -5    1.15   11.63   0
   4  -3  -5   -0.86   17.10   0
   9  -3  -5   -8.90   12.37   0
   5   0  -6   86.23   19.48   0
   6   0  -6    5.09   13.97   0
   6   2  -4   42.75   25.39   0
   7  -2  -6   14.65   17.24   0
   7  -1  -6   16.67   16.19   0
   9  -1  -4    0.21   12.41   0
   5  -1  -6  196.15   22.79   0
   6  -2  -6   44.06   19.12   0
   9  -5  -4   -1.43   14.81   0
   6  -1  -6  174.09   23.10   0
   8  -4  -5    6.66   16.34   0
   8  -1  -5    1.02   11.58   0
  10  -4  -3    0.23   11.14   0
   1  -3  -6  320.52   33.76   0
   1  -2  -7  126.47   23.14   0
   5  -2 -10   11.10   19.17   0
   6  -2 -10    6.99   19.55   0
   6  -1 -10   12.68   18.67   0
   5  -4  -9   18.30   18.66   0
   1   2  -7    8.94   20.84   0
   2  -2  -8   38.39   26.71   0
   2   2  -8   60.10   25.87   0
   3  -2  -9   -5.69   20.35   0
   5  -5  -8   33.02   24.41   0
   2  -4  -6    5.95   23.45   0
   3  -5  -6   52.54   29.07   0
   3   1  -9   50.22   28.42   0
   4  -3  -9   32.02   20.01   0
   1  -1  -7   17.21   22.99   0
   2  -3  -7  121.43   31.29   0
   3  -1  -9   49.09   24.85   0
   6  -4  -9   -4.26   18.09   0
   7  -4  -9    2.19   16.26   0
   1  -3  -5  281.59   33.29   0
   3  -3  -8    0.28   23.28   0
   4  -5  -7   29.54   26.65   0
   4   1  -9   -2.93   24.98   0
   5   1  -9    0.21   26.50   0
   6  -6  -7   -2.52   22.63   0
   1   0  -7   -1.00   20.68   0
   1   1  -7  208.92   28.13   0
   2  -1  -8   41.22   26.01   0
   2   1  -8    1.01   20.77   0
   3  -4  -7   12.78   25.79   0
   1  -2  -6  408.59   36.66   0
   2   0  -8   31.61   26.27   0
   4  -2  -9   96.86   30.16   0
   5  -3  -9   42.35   26.50   0
   7  -6  -7    5.48   22.94   0
   7  -1  -9    4.88   18.83   0
   4  -1  -9   -3.61   24.18   0
   4   0  -9   17.38   26.06   0
   5  -6  -6   31.66   28.83   0
   6   0  -9   -2.02   22.37   0
   7  -3  -9   -6.12   17.30   0
   2  -4  -5  358.41   37.09   0
   2  -2  -7   18.24   23.77   0
   2   2  -7  242.94   34.04   0
   3  -5  -5   51.55   30.82   0
   3  -2  -8   40.78   27.49   0
   6  -3  -9   20.27   19.57   0
   1  -1  -6  246.35   30.33   0
   5  -4  -8   14.39   27.05   0
   5  -2  -9   82.38   27.60   0
   5   0  -9   -6.30   18.35   0
   3   1  -8   -6.79   26.01   0
   4  -3  -8   -9.86   25.51   0
   5  -5  -7   12.95   24.75   0
   6  -2  -9   14.88   22.40   0
   6  -1  -9   -0.62   23.35   0
   3  -1  -8   18.42   27.40   0
   4  -5  -6   66.23   28.55   0
   8  -4  -8    2.31   18.39   0
   2  -1  -7  314.91   33.86   0
   2   1  -7  399.79   41.06   0
   3  -4  -6   15.75   25.62   0
   3  -3  -7    1.16   19.72   0
   7   0  -8    8.21   29.00   0
   4   1  -8   27.31   27.63   0
   6  -6  -6   17.48   30.30   0
   6  -4  -8   96.52   27.47   0
   2   0  -7  154.46   27.96   0
   5   1  -8   -7.99   29.35   0
   7  -4  -8   16.07   19.39   0
   4  -2  -8   22.77   23.96   0
   5  -6  -5   46.03   38.95   0
   5  -3  -8   17.97   27.35   0
   8  -3  -8   10.93   21.20   0
   8  -2  -8    3.14   19.80   0
   2  -2  -6  423.26   38.45   0
   3  -5  -4   16.56   28.40   0
   8  -5  -7   -1.50   21.16   0
   3  -2  -7   18.08   24.01   0
   4  -1  -8   29.94   23.61   0
   4   0  -8   24.20   23.38   0
   7  -6  -6   10.16   27.81   0
   8  -6  -6   -3.08   22.27   0
   6  -3  -8    8.73   25.12   0
   6   0  -8   16.81   26.62   0
   7  -3  -8    9.12   22.66   0
   7  -1  -8   70.89   33.03   0
   3   1  -7  146.27   34.99   0
   4  -3  -7   22.54   27.76   0
   5  -5  -6   10.55   28.96   0
   5  -4  -7   83.89   24.21   0
   5  -2  -8   -1.22   22.27   0
   5   0  -8   -1.96   28.20   0
   2  -1  -6   68.51   23.43   0
   3  -4  -5  113.88   35.07   0
   3  -3  -6   14.53   25.52   0
   3  -1  -7  137.42   29.42   0
   4  -5  -5   87.55   26.81   0
   5  -1  -8    5.90   24.84   0
   7  -2  -8    5.76   18.44   0
   6  -2  -8    8.62   22.67   0
   6  -6  -5  -11.87   24.29   0
   6  -4  -7   71.20   29.22   0
   8  -4  -7    2.75   20.95   0
   8  -1  -7    5.48   25.42   0
   9  -5  -6    0.66   21.02   0
   4   1  -7   19.37   27.02   0
   4  -2  -7    4.86   21.97   0
   5  -6  -4   73.15   38.54   0
   5   1  -7    7.70   28.87   0
   7  -4  -7    8.82   23.02   0
   7   0  -7   21.26   27.18   0
   5  -3  -7  119.78   30.00   0
   8  -3  -7    5.46   20.86   0
   3  -2  -6   60.20   23.60   0
   4  -1  -7   -4.78   27.42   0
   4   0  -7   -4.14   25.58   0
   7  -6  -5   -8.04   26.01   0
   8  -6  -5    7.07   24.06   0
   8  -5  -6   -3.29   21.23   0
   9  -4  -6  -10.14   19.34   0
   9  -2  -6   -4.62   21.45   0
   4  -5  -4   78.76   33.32   0
   4  -3  -6   49.82   24.99   0
   5  -5  -5   25.06   26.58   0
   5  -4  -6  169.14   31.04   0
   5  -2  -7   75.74   34.25   0
   6  -3  -7  143.87   31.65   0
   6   0  -7   13.65   27.29   0
   7  -3  -7   13.82   24.73   0
   3  -1  -6   74.12   29.10   0
   3   1  -6    2.11   24.97   0
   5   0  -7    3.37   26.66   0
   7  -1  -7    6.32   21.62   0
   9  -3  -6    0.41   17.26   0
   4  -4  -5    9.98   24.71   0
   5  -1  -7    3.93   24.53   0
   6  -2  -7   70.57   29.55   0
   7  -2  -7   20.88   21.88   0
   6  -6  -4   60.66   32.72   0
   9  -5  -5   -2.79   22.31   0
   6  -4  -6   47.16   24.04   0
   6   1  -6    9.99   29.89   0
   8  -4  -6    5.81   22.99   0
   9  -6  -4    1.95   21.17   0
   4  -2  -6  161.71   33.46   0
   4   1  -6   21.38   27.86   0
   6  -5  -5   46.82   29.33   0
   7  -4  -6   37.54   25.82   0
   8  -1  -6   23.55   31.78   0
   5  -3  -6    5.72   22.80   0
   7   0  -6   19.22   30.60   0
   5   1  -6   61.76   32.84   0
   7  -6  -4   77.01   33.89   0
   8  -6  -4   21.12   26.91   0
   8  -5  -5  -10.00   21.36   0
   8  -3  -6   14.55   22.32   0
   8  -2  -6   12.31   28.72   0
   8   0  -5   -1.09   24.66   0
   4  -1  -6   21.63   20.88   0
   4   0  -6    0.45   23.39   0
   9  -4  -5    6.95   22.40   0
   9  -2  -5    0.88   19.84   0
   4  -5  -3   27.35   25.85   0
   5  -5  -4  132.75   33.43   0
   5  -4  -5  -20.44   23.10   0
   6  -3  -6    0.08   21.46   0
   7  -3  -6  -15.94   24.62   0
   8  -7  -2   10.64   35.91   0
   4  -3  -5    7.92   19.29   0
   5  -2  -6    3.64   22.90   0
   6   0  -6    9.86   25.26   0
   7  -1  -6   40.21   29.81   0
   9  -1  -4    8.19   26.14   0
   4  -4  -4    6.58   23.40   0
   5   0  -6  123.84   26.93   0
   7  -2  -6   46.62   25.92   0
   9  -6  -3   14.14   23.24   0
   5  -1  -6  234.90   34.34   0
   6  -6  -3    8.61   27.19   0
   6  -2  -6   65.13   27.39   0
   9  -5  -4    0.33   15.90   0
   8  -4  -5   17.38   19.61   0
  10  -4  -3    3.77   18.79   0
   6  -5  -4   51.36   30.11   0
   6   1  -5   13.53   30.56   0
   7  -4  -5   56.53   30.06   0
   8  -1  -5    5.99   22.09   0
   4  -2  -5   89.76   25.00   0
   5  -3  -5  125.97   31.07   0
   7  -6  -3   35.41   31.62   0
   8  -6  -3   18.74   24.29   0
   8  -5  -4   29.02   25.03   0
   4   1  -5   52.38   27.65   0
   7   0  -5   21.39   23.42   0
   8  -7  -1   -6.11   34.22   0
   8  -3  -5    3.34   19.70   0
   8  -2  -5   12.06   20.44   0
   8   0  -4   17.29   29.94   0
   9  -4  -4   -0.17   21.02   0
  10  -5  -2   -1.19   18.98   0
   5   1  -5    4.58   27.09   0
   4  -1  -5  344.24   41.64   0
   5  -5  -3    8.01   26.76   0
   6  -3  -5   57.15   30.77   0
   7  -3  -5   30.42   28.24   0
   9  -6  -2   -0.03   23.27   0
   9  -3  -4   10.97   19.53   0
   9  -1  -3    1.33   20.35   0
   4   0  -5  217.13   33.00   0
   9  -5  -3   -2.54   19.64   0
  10  -4  -2   -4.62   17.77   0
   5  -2  -5   83.94   23.07   0
   6  -6  -2  130.86   37.74   0
   6   0  -5   43.69   27.74   0
   7  -2  -5    8.92   23.77   0
   7  -1  -5   12.42   20.77   0
   5   0  -5   29.55   29.34   0
   6  -2  -5  227.64   37.70   0
   8  -4  -4   -2.40   19.64   0
  10  -5  -1   -4.82   18.53   0
   5  -1  -5   11.34   20.31   0
   6  -4  -4    0.00   23.31   0
   8  -6  -2   23.45   27.29   0
   8  -1  -4   22.88   28.08   0
   6  -5  -3   13.31   26.03   0
   7  -6  -2   46.30   31.26   0
   7  -4  -4   10.43   20.93   0
   8  -5  -3    9.93   21.53   0
   9  -4  -3    5.36   21.43   0
   6   1  -4   39.66   30.50   0
   8  -3  -4   21.35   21.32   0
   8  -2  -4   44.30   26.07   0
   8   0  -3    9.99   29.18   0
   9  -6  -1    4.32   22.30   0
   9  -1  -2   17.71   23.45   0
  10  -4  -1   -0.73   17.13   0
   5  -3  -4   39.93   25.59   0
   7   0  -4   -1.30   25.96   0
   9  -5  -2    4.57   20.53   0
   9  -3  -3   -0.21   17.85   0
   5  -5  -2   80.29   30.27   0
   6  -3  -4   16.81   24.25   0
   7  -3  -4    8.04   20.72   0
   5  -4  -3    2.35   21.37   0
   5   1  -4   45.34   30.72   0
   6  -6  -1   12.30   29.18   0
   8  -4  -3   36.27   27.47   0
   7  -2  -4    7.96   20.53   0
   8  -6  -1   46.99   29.46   0
   9  -6   0   48.35   30.84   0
   9  -4  -2   20.32   20.91   0
   9  -1  -1   -0.79   23.45   0
   5  -2  -4  103.53   26.45   0
   6   0  -4   12.23   26.72   0
   7  -6  -1    9.83   27.51   0
   8  -5  -2   46.47   25.27   0
   8  -1  -3   20.51   24.21   0
   8   0  -2    9.22   28.99   0
   6  -4  -3  139.62   34.39   0
   6  -2  -4   39.79   23.87   0
   7  -4  -3  389.30   46.51   0
   8  -3  -3   38.80   27.15   0
   9  -5  -1    5.89   20.43   0
   9  -3  -2   17.98   28.01   0
   5  -1  -4   25.89   26.67   0
   5   0  -4    8.27   20.94   0
   6  -5  -2   72.96   27.92   0
   8  -2  -3    7.98   23.84   0
   9  -1   0    7.45   23.36   0
   7   0  -3   24.36   30.33   0
   9  -6   1   43.80   30.86   0
   6   1  -3   -1.18   25.71   0
   5  -3  -3   34.85   24.42   0
   7  -3  -3   79.79   32.33   0
   8  -6   0   25.19   29.97   0
   9  -6   2    8.23   27.20   0
   9  -4  -1   22.72   24.49   0
   6  -6   0   73.78   34.22   0
   8  -4  -2   -3.84   22.03   0
   8   0  -1    7.64   29.19   0
   9  -5   0   18.59   21.82   0
   9  -3  -1    3.75   21.55   0
   5  -5  -1   -3.12   27.04   0
   6  -3  -3  110.47   26.84   0
   7  -6   0   89.67   34.73   0
   7  -2  -3    4.32   25.60   0
   8  -1  -2   10.27   20.41   0
   5  -4  -2    8.91   23.08   0
   8  -3  -2   17.23   27.04   0
   5   1  -3   12.91   26.16   0
   6   0  -3   -6.00   25.27   0
   7  -4  -2   26.02   25.65   0
   8  -2  -2   20.56   21.64   0
   9  -2   0   11.92   25.01   0
   5  -2  -3   35.28   24.98   0
   6  -5  -1   -3.94   26.89   0
   6  -4  -2   23.12   25.88   0
   6  -2  -3   14.89   21.40   0
   7  -5  -1   98.85   33.07   0
   7   1  -1   12.56   28.69   0
   8  -6   1   26.68   28.29   0
   9  -5   1   39.06   26.86   0
   9  -4   0  -10.61   20.27   0
   7   0  -2    0.90   26.32   0
   8   0   0   19.10   27.65   0
   9  -3   0   12.74   20.79   0
   5   0  -3   36.05   25.80   0
   8  -4  -1  133.49   36.36   0
   9  -2   1    6.36   17.59   0
   5  -1  -3  138.93   29.10   0
   6   1  -2  112.44   38.23   0
   7  -6   1   -4.26   31.42   0
   7  -3  -2   17.42   28.88   0
   8  -1  -1   20.76   25.07   0
   9  -4   1   -0.46   21.84   0
   9  -2   2   -4.09   19.76   0
   6  -6   1    1.92   28.39   0
   8  -6   2   64.53   35.55   0
   8   0   1    2.29   22.67   0
   9  -3   1   11.18   22.92   0
   7  -2  -2   14.29   25.91   0
   8  -3  -1   26.29   23.23   0
   8  -2  -1   -3.36   24.70   0
   8   0   2    8.81   22.82   0
   6  -3  -2   58.06   24.96   0
   7   1   0   20.17   28.51   0
   8  -6   3   51.75   36.69   0
   9  -4   2    2.03   17.62   0
   9  -4   3   10.46   22.83   0
   9  -3   2    2.37   20.28   0
   9  -3   3    2.43   18.43   0
   7  -5   0   11.88   31.04   0
   7  -4  -1  148.16   31.23   0
   8  -6   4    1.80   30.30   0
   6  -5   0    5.66   29.94   0
   6   0  -2   40.66   27.93   0
   7   0  -1   -0.92   27.35   0
   8  -4   0    3.44   22.17   0
   8  -1   0    1.79   20.50   0
   5   1  -2  104.44   36.45   0
   6  -2  -2   70.59   27.27   0
   7  -6   2  120.65   42.35   0
   6  -6   2   31.49   42.99   0
   7   1   1   15.02   30.14   0
   8  -3   0   15.77   27.54   0
   8  -2   0   18.26   26.59   0
   6   1  -1   21.02   29.23   0
   7  -3  -1  131.95   34.04   0
   7  -6   3  -22.56   44.45   0
   7  -2  -1   25.13   27.73   0
   7   1   2   21.53   31.60   0
   8  -4   1   93.98   35.75   0
   7  -5   1   19.07   33.14   0
   7  -4   0   12.40   27.33   0
   8  -1   4    4.40   23.62   0
   7   0   0   44.50   36.90   0
   8  -5   5    7.64   24.88   0
   8  -2   1   -8.72   25.61   0
   6  -3  -1    1.93   19.42   0
   7  -6   4   -2.89   32.93   0
   7  -6   5   -6.47   43.56   0
   8  -5   4    2.98   30.67   0
   8  -3   1   42.47   27.60   0
   5  -5   1  149.80   44.46   0
   6  -5   1   -2.37   33.69   0
   8  -4   2    2.20   28.24   0
   8  -2   5    2.73   22.85   0
   6   0  -1   29.23   26.05   0
   7  -3   0  120.80   39.16   0
   8  -2   2   13.22   27.36   0
   6  -2  -1  147.60   32.94   0
   6   1   0  158.48   48.08   0
   7  -5   2   94.47   39.94   0
   7   0   1   -3.67   31.20   0
   8  -4   3   -9.30   29.71   0
   8  -4   5    5.45   24.80   0
   6  -1  -1   -0.31   26.00   0
   7  -2   0    9.23   25.59   0
   8  -2   3    4.64   20.28   0
   8  -2   4    8.10   20.06   0
   5  -2  -6    2.87   14.39   0
   6  -1  -7   -0.30   17.84   0
   8  -3  -5   -0.13   18.14   0
   9  -2  -5    0.65   12.45   0
   6  -3  -5   45.84   20.05   0
   6  -2  -6   50.27   24.47   0
   7  -3  -5   39.17   22.59   0
   7  -2  -6   22.08   21.40   0
   7   1  -7   -0.09   19.57   0
   8  -4  -3   27.08   26.99   0
   9  -1  -5    4.42   14.27   0
   4  -2  -5   62.87   19.18   0
   5   0  -7    0.73   20.97   0
   6  -4  -3  109.18   31.32   0
   8  -1  -6   20.27   22.51   0
   4   1  -7   10.18   24.39   0
   6   0  -7    5.00   23.44   0
   7  -4  -3  351.89   46.48   0
   9  -3  -3   -2.39   19.66   0
   8   0  -6   -1.55   19.45   0
   9  -2  -4   15.94   19.01   0
   5  -3  -4   25.36   17.48   0
   6   1  -7   23.51   24.47   0
   6   2  -7   11.12   20.29   0
   8  -4  -2    0.43   25.15   0
   8  -3  -4   25.14   21.10   0
   8  -2  -5   -5.13   19.36   0
   4   2  -7    8.28   27.03   0
   5  -1  -6  186.37   33.69   0
   5   1  -7    7.34   24.88   0
   9  -3  -2   27.05   29.55   0
   5  -2  -5   56.62   21.37   0
   5   2  -7   -9.24   26.24   0
   6  -4  -2    5.46   24.54   0
   6  -3  -4   -5.69   19.11   0
   7  -4  -2   13.52   25.63   0
   7  -1  -6   28.53   21.71   0
   8  -4  -1  100.95   40.09   0
   9  -1  -4    4.60   18.40   0
   9   0  -4    2.90   15.83   0
   6  -1  -6  161.76   32.53   0
   7  -3  -4    0.28   17.88   0
   9  -3  -1    6.21   23.80   0
   4   0  -6   -4.82   26.07   0
   6  -2  -5  201.94   37.29   0
   7  -2  -5    6.84   19.18   0
   7  -4  -1  130.64   39.26   0
   7   0  -6   34.42   23.92   0
   7   2  -6    4.67   20.94   0
   8  -1  -5    3.80   18.80   0
   5  -3  -3   22.79   22.08   0
   6  -4  -1   38.55   27.89   0
   8  -2  -4   30.88   27.90   0
   4  -1  -5  459.66   38.94   0
   8   0  -5   21.36   21.87   0
   8   1  -5   -4.28   16.80   0
   9  -2  -2   46.03   26.96   0
   9  -1  -3  -10.07   18.90   0
   9   0  -3    8.07   17.37   0
   6   3  -6   -7.22   25.04   0
   9  -2   0   -1.14   29.85   0
   6  -3  -3  143.61   29.68   0
   7  -1  -5   15.05   22.65   0
   7   3  -5   -1.10   20.00   0
   8  -3  -2   15.34   31.04   0
   9  -2  -1    3.42   25.65   0
   4   1  -6   17.53   29.00   0
   5  -2  -4   63.87   26.72   0
   7  -2  -4   -6.56   24.69   0
   8   2  -4   -1.26   18.45   0
   9   0  -2   -4.20   17.05   0
   5  -1  -5   -1.84   18.04   0
   6  -1  -5    0.82   23.50   0
   6   1  -6   -3.12   20.69   0
   6   2  -6   27.54   27.08   0
   8  -1  -4   66.26   27.56   0
   9  -1   0    5.09   21.47   0
   5   1  -6   64.97   30.26   0
   6  -2  -4   48.07   23.05   0
   6   4  -5   -0.66   22.29   0
   8  -3  -1    2.47   28.66   0
   8  -2  -3   20.90   20.46   0
   9  -1  -1    8.22   21.92   0
   7  -3  -2   16.44   26.89   0
   7   0  -5   14.44   24.05   0
   8  -3   0    2.02   31.98   0
   8   0  -4   22.92   23.78   0
   8   1  -4    3.22   19.87   0
   5   2  -6   40.05   34.67   0
   5   3  -6   50.47   33.35   0
   6  -3  -2   36.98   29.57   0
   7   1  -5   45.72   23.07   0
   8   2  -3   -8.92   18.53   0
   6   0  -5   41.61   26.06   0
   7  -2  -3   11.23   24.19   0
   7  -1  -4   41.76   26.00   0
   8  -1  -3    8.18   22.30   0
   5   0  -5   51.34   26.99   0
   7  -3  -1  127.10   37.35   0
   7   3  -4    3.79   18.76   0
   6  -2  -3   20.44   23.14   0
   5  -1  -4   33.82   21.81   0
   6  -3  -1    0.37   24.47   0
   6  -1  -4   -5.18   23.56   0
   6   3  -5    2.64   22.37   0
   8  -2  -1   -1.60   28.31   0
   8   0  -3   19.94   22.34   0
   8   1  -3    0.54   17.31   0
   8   2  -2    2.38   16.36   0
   7  -3   0   72.59   36.22   0
   7   0  -4    0.33   23.78   0
   5   4  -5   39.82   28.75   0
   6   2  -5    7.32   21.21   0
   7  -3   1    3.13   29.98   0
   7   2  -4    2.92   19.37   0
   8  -2   0   11.18   30.42   0
   8  -2   1    7.18   27.56   0
   8  -1  -2    0.95   20.23   0
   8   2  -1    3.54   15.55   0
   4   1  -5   59.36   24.31   0
   6   4  -4   -7.53   22.05   0
   7  -1  -3    5.29   24.54   0
   7   1  -4    3.98   22.99   0
   5   5  -4   11.26   25.17   0
   6  -3   0  105.56   35.76   0
   8   0  -2   14.99   24.34   0
   8   1  -2   -2.42   16.59   0
   7   3  -3    5.85   19.72   0
   8   0   2   32.08   28.61   0
   5   2  -5   37.10   22.79   0
   5   3  -5   51.80   30.53   0
   6  -2  -2   96.57   26.65   0
   6   0  -4   33.91   21.97   0
   4   2  -5   16.68   28.15   0
   6  -1  -3    3.81   21.21   0
   7  -2  -1    4.92   20.90   0
   7   0  -3   56.08   29.66   0
   8  -1   0    1.93   20.74   0
   8  -1   1   22.11   29.93   0
   8   0  -1   41.01   23.37   0
   8   1  -1   -0.10   14.18   0
   8   1   1   -0.02   17.86   0
   5   0  -4    6.28   17.13   0
   6   3  -4   19.39   24.17   0
   7   2  -3   -5.95   22.72   0
   8   0   1    7.99   20.42   0
   8   1   0    2.21   15.98   0
   4   3  -5   49.65   30.62   0
   5  -1  -3  142.73   27.86   0
   6   1  -4   44.53   24.41   0
   7  -1  -2   -9.33   19.87   0
   7   1  -3   19.86   24.38   0
   7   3  -2   -1.40   16.42   0
   6   4  -3    9.99   20.55   0
   7  -2   0    0.26   26.41   0
   6  -2  -1   86.46   33.13   0
   5   4  -4   12.28   22.67   0
   7  -2   1    5.21   29.37   0
   7  -2   2   22.45   30.89   0
   7   3  -1    5.14   20.79   0
   4   5  -4    0.62   23.41   0
   5   1  -4   76.27   25.80   0
   5   5  -3   13.37   23.47   0
   6   0  -3   -6.89   19.16   0
   7   0  -2   18.56   19.83   0
   7   2  -2   39.33   22.79   0
   6  -1  -2    4.12   18.07   0
   7   1  -2   65.24   26.31   0
   7   3   0    2.42   16.60   0
   5   3  -4   40.21   26.07   0
   5   0  -3   44.06   21.32   0
   6  -2   0    9.14   22.76   0
   6   1  -3    6.64   20.03   0
   7  -1   0   12.69   26.21   0
   7  -1   3   21.73   32.32   0
   6   2  -3   47.48   23.11   0
   7   0  -1    8.54   18.60   0
   7   2  -1    8.36   16.74   0
   4   2  -4  176.07   34.88   0
   4   4  -4    3.56   24.15   0
   7  -1   1    2.06   24.57   0
   7  -1   2   17.52   28.48   0
   7   1  -1   30.00   24.58   0
   7   1   3   22.51   26.96   0
   6  -2   1  133.31   37.30   0
   6  -1  -1   -6.23   22.79   0
   6   0  -2   38.77   24.20   0
   7   0   3    7.44   26.11   0
   7   2   0   24.96   20.85   0
   4   3  -4   11.35   20.50   0
   5   4  -3  122.83   34.08   0
   5   5  -2    1.35   20.39   0
   6   4  -1    8.86   14.71   0
   7   0   0   82.26   24.65   0
   7   2   1   46.86   18.60   0
   4   6  -2    4.22   23.67   0
   5   1  -3   21.78   20.78   0
   6  -2   2    4.52   25.93   0
   6   3  -2    3.12   17.65   0
   7   0   1   13.71   23.07   0
   7   0   2   37.43   26.45   0
   7   1   0   23.25   19.48   0
   7   1   2   48.47   23.08   0
   3   3  -4   30.47   23.56   0
   3   4  -4   19.04   25.69   0
   6   1  -2  166.62   35.17   0
   6   4   0    1.65   13.89   0
   6   4   1   11.43   18.05   0
   7   1   1   26.92   24.83   0
   4   5  -3   20.84   23.95   0
   5   2  -3  191.90   33.26   0
   6   2  -2  159.94   29.43   0
   5   0  -2   45.12   19.85   0
   6  -1   0    1.71   19.63   0
   6   0  -1    7.98   21.19   0
   6   3  -1  239.70   32.01   0
   4   6  -1   14.72   23.70   0
   6   3   3   19.59   20.27   0
   5   5   0    6.30   17.46   0
   5   5   2   -0.87   14.27   0
   6  -1   1  223.76   38.61   0
   6   1  -1   42.00   24.61   0
   6   2  -1   92.08   26.20   0
   3   7   0    1.60   22.57   0
   4   4  -3   23.18   19.04   0
   5   5   1   -1.76   15.81   0
   6   2   4    4.19   19.44   0
   6   3   0   36.44   19.49   0
   4   3  -3  147.07   29.83   0
   5   1  -2  130.01   25.04   0
   6  -1   2   41.82   27.84   0
   6  -1   3  213.28   42.21   0
   6   0   0   -3.64   20.12   0
   6   3   1   48.60   21.57   0
   6   3   2    7.50   14.24   0
   3   5  -3   54.83   24.94   0
   4   5  -2   25.39   22.26   0
   4   6   0   -2.30   16.08   0
   5   2  -2   34.75   22.02   0
   5   3  -2    9.76   15.62   0
   6   0   4   91.38   34.59   0
   3   6  -2   32.12   24.48   0
   5   0  -1  433.54   39.32   0
   5   4  -1   11.73   18.92   0
   6   1   0  195.32   30.96   0
   6   1   4    1.05   24.12   0
   6   2   0    5.61   17.69   0
   3   4  -3    7.04   19.22   0
   5   3   5    8.25   19.52   0
   6   0   2  155.04   30.73   0
   6   0   3   15.56   23.16   0
   6   1   1   83.36   23.63   0
   6   2   1   22.78   18.51   0
   6   2   2    8.73   18.50   0
   5   4   0   22.85   19.96   0
   6   1   3    8.69   18.77   0
   4   4  -2   98.75   26.99   0
   5   1  -1   -3.90   15.35   0
   5   3  -1  128.95   26.62   0
   5   4   3   13.32   18.77   0
   4   5  -1    7.94   17.60   0
   5   2  -1   83.24   25.87   0
   5   4   1    6.11   17.00   0
   4   2  -2  118.23   23.88   0
   4   5   4   -0.60   13.88   0
   5   0   0   86.30   23.38   0
   5   4   2   53.99   19.91   0
   3   6  -1  120.62   30.92   0
   5  -1   2   85.53   28.54   0
   2   6  -2   17.65   23.82   0
   3   5  -2   80.03   26.94   0
   4   5   0   33.72   19.94   0
   5  -1   3  122.18   32.11   0
   5   2   5    5.59   19.84   0
   5   3   0   15.24   17.86   0
   5   0   5   22.25   28.75   0
   5   1   0   97.68   20.01   0
   4   5   3   49.11   22.67   0
   5   1   5   11.09   23.12   0
   5   2   0   26.41   18.77   0
   5   3   1  144.47   26.55   0
   2   7   0   81.43   28.42   0
   3   6   0   -0.61   17.09   0
   4   4   5   39.37   20.52   0
   4   5   1  142.87   23.39   0
   4   5   2   -5.21   16.52   0
   5   3   2   12.22   17.76   0
   5   3   3   33.08   16.59   0
   3   4  -2   54.51   19.81   0
   4   3   6   23.41   18.94   0
   5   2   4   10.34   19.65   0
   3   6   3   16.73   15.70   0
   4   2  -1  -10.02   17.32   0
   4   3  -1   -7.13   16.11   0
   5   0   2  150.99   26.30   0
   5   0   4   55.98   28.44   0
   5   1   1   -1.97   15.47   0
   5   2   1   67.87   21.02   0
   2   7   1   17.22   21.38   0
   3   5  -1  276.09   31.27   0
   3   6   2   36.27   19.19   0
   4   4   0   55.69   22.06   0
   5   0   3   45.20   22.45   0
   5   1   4    0.02   22.00   0
   5   2   2   -8.13   17.75   0
   2   5  -2   71.01   24.98   0
   2   7   2    8.13   17.52   0
   5   1   3   -6.06   20.54   0
   2   6  -1  179.55   30.64   0
   4   4   4   -4.69   16.33   0
   3   5   5    7.18   12.80   0
   4   2   6   66.89   24.92   0
   4   3   0   71.97   18.24   0
   4   4   2   88.83   22.11   0
   4   4   3   48.90   18.68   0
   3   4  -1   44.19   19.57   0
   4   2   0   13.83   15.52   0
   2   6   5    0.84   13.39   0
   3   3   7    4.17   17.78   0
   4   1   6   48.13   27.37   0
   1   7   0   52.48   25.84   0
   3   5   4    3.24   16.15   0
   4   3   1    1.89   18.89   0
   2   6   0    3.76   15.84   0
   3   5   1   86.32   19.61   0
   4   3   4   61.35   19.11   0
   0   8   2    1.72   21.33   0
   0   8   3   35.34   24.59   0
   2   5  -1   25.69   21.47   0
   3   5   3   48.34   19.14   0
   4   0   5  178.69   32.17   0
   4   1   1    4.54   13.74   0
   4   2   1    8.51   16.31   0
   4   2   5   60.27   24.33   0
   4   3   2    1.45   15.29   0
   4   3   3   -0.49   17.01   0
   1   7   4   -6.40   15.77   0
   2   6   4   -3.57   15.85   0
   3   4   0   83.69   22.83   0
   3   5   2   13.48   14.42   0
   4   1   5   80.48   25.96   0
   1   6  -1   15.94   19.51   0
   1   7   1   11.83   19.94   0
   2   6   1   33.94   20.54   0
   4   0   3  120.42   24.10   0
   4   0   4   23.33   22.73   0
   2   3   8   10.40   19.84   0
   2   5   6    3.46   13.45   0
   2   6   3   27.68   16.81   0
   3   2   7   10.20   20.70   0
   3   4   5   -5.74   16.35   0
   4   2   2   33.46   15.22   0
   4   2   3   12.04   20.80   0
   1   7   2    1.84   18.20   0
   2   6   2    2.30   14.03   0
   4   1   3  151.39   28.09   0
   4   1   4   77.12   19.53   0
   1   6   6   22.41   15.66   0
   2   4   7   19.03   17.06   0
   3   1   7   20.65   24.69   0
   3   3   0   58.64   18.54   0
   3   3   6   47.87   20.94   0
   3   4   1   89.93   21.53   0
   2   5   0   25.44   19.86   0
   3   4   4  120.82   24.72   0
   0   7   0   51.67   27.61   0
   3   4   2   98.72   20.52   0
   3   4   3   87.38   21.34   0
   1   6   0   27.26   20.76   0
   2   2   8    2.92   24.89   0
   2   5   5   -0.06   16.27   0
  -1   8   4   26.50   21.12   0
   1   5  -1   -5.52   17.52   0
   3   2   6  127.45   28.37   0
   3   3   1   51.75   18.25   0
   1   5   7    2.13   13.95   0
  -3   7   7   12.89   16.69   0
  -2   2   9    8.84   19.73   0
  -2   3   9   26.30   18.12   0
  -1   6   6   23.34   22.28   0
   1   1   6    4.93   13.47   0
  -3   6   8    9.43   14.79   0
  -2   0   8   28.89   28.83   0
  -2   5   8   24.62   19.93   0
   0   3   7    8.95   19.91   0
  -4   5   9    6.70   15.66   0
  -3   4   9   14.80   20.50   0
  -1   1   8   81.56   30.27   0
  -1   3   8   -8.17   21.65   0
   1   3   5   42.57   23.65   0
   1   4   4   -1.10   23.47   0
  -3   2   9    0.07   28.34   0
  -1   2   8   66.09   29.50   0
   0   1   7   12.26   18.10   0
   0   2   7   85.75   27.20   0
  -3   3   9   12.96   24.71   0
   0   4   6   15.61   23.26   0
   0   5   5    1.82   24.42   0
  -5   3   9   17.85   30.80   0
  -4   4   9    3.62   23.20   0
  -3   8   5   10.33   27.17   0
  -1   0   7   17.57   24.77   0
  -5   4   9    2.43   24.31   0
  -4   3   9    0.16   26.56   0
  -2   4   8   10.86   23.68   0
  -4   6   8    2.21   18.37   0
  -2   1   8   35.32   26.47   0
  -1   4   7  434.88   37.42   0
   1   3   4   35.63   25.61   0
  -3   5   8   19.65   24.86   0
  -1   6   5    4.29   22.46   0
   0   3   6    2.42   25.12   0
  -4   7   7   46.70   20.93   0
  -3   1   8   29.07   32.62   0
  -2   0   7  141.24   38.98   0
  -2   2   8    9.23   27.57   0
  -2   3   8  -13.52   22.67   0
  -2   7   5   -8.73   27.27   0
  -1   5   6   50.13   28.41   0
   0   1   6   71.46   25.87   0
  -5   6   8   -1.71   20.73   0
  -2   5   7   13.22   24.89   0
  -1   1   7   20.64   22.80   0
  -1   3   7   43.09   28.11   0
   0   2   6  259.01   30.06   0
   0   5   4  209.09   39.68   0
  -6   6   8   -0.47   25.58   0
  -3   6   7   10.97   22.85   0
  -3   7   6    6.14   23.94   0
  -1   2   7  105.35   32.09   0
   0   4   5  207.15   30.73   0
  -5   2   8   -0.35   39.19   0
  -3   4   8   51.73   29.81   0
  -2   6   6    0.42   21.22   0
  -4   5   8    2.86   26.42   0
  -3   2   8   46.04   35.31   0
  -5   7   7   10.18   21.09   0
  -4   2   8   36.06   35.10   0
  -3   3   8   -2.55   21.85   0
  -6   5   8    4.28   26.66   0
  -5   5   8   18.08   27.11   0
  -3   8   4   76.12   35.40   0
  -2   1   7  259.05   42.25   0
  -2   4   7   50.28   31.53   0
  -1   4   6   11.97   21.98   0
  -1   6   4  128.51   39.98   0
  -6   4   8   52.37   39.78   0
  -6   7   7   -0.61   20.79   0
  -4   4   8   35.02   30.42   0
   0   5   3  153.66   35.67   0
  -6   8   6    8.05   20.98   0
  -5   3   8   -0.58   33.25   0
  -4   3   8  -14.84   32.59   0
  -4   6   7   95.91   31.43   0
  -4   8   5   15.22   26.45   0
  -2   7   4   48.09   35.43   0
  -1   5   5   32.01   25.63   0
   0   4   4   67.85   32.97   0
  -5   4   8   14.03   28.47   0
  -3   1   7  103.95   44.72   0
  -3   5   7   10.33   24.12   0
  -2   2   7   33.83   27.60   0
  -2   3   7  107.58   31.51   0
  -1   3   6  344.41   38.96   0
  -4   7   6   10.15   22.42   0
  -2   5   6    4.05   20.98   0
  -1   2   6  466.56   40.93   0
  -3   6   6   -0.24   25.16   0
  -3   7   5   -4.77   25.68   0
  -2   6   5   17.98   28.59   0
  -7   6   7    1.35   25.63   0
  -5   6   7   28.05   29.09   0
  -3   4   7    2.36   29.63   0
  -7   4   7    3.58   42.28   0
  -3   2   7    9.30   32.74   0
  -1   4   5  260.79   37.24   0
  -1   6   3    6.81   30.04   0
  -7   5   7  -10.47   32.68   0
  -6   6   7    2.96   19.36   0
  -6   9   4    2.31   29.21   0
  -4   5   7   10.28   28.26   0
  -3   3   7   14.88   28.11   0
  -3   8   3   16.66   30.79   0
  -5   2   7   63.35   46.72   0
  -5   7   6   -1.31   25.45   0
  -5   8   5   81.80   29.47   0
  -2   4   6    0.84   23.49   0
  -2   7   3    8.44   31.35   0
  -1   5   4   95.74   35.40   0
  -6   3   7   65.00   48.82   0
  -4   2   7    3.15   28.88   0
  -8   6   6   -2.85   33.17   0
  -5   5   7    2.13   24.01   0
  -4   4   7   -4.09   24.50   0
  -4   8   4   41.18   28.47   0
  -2   2   6  429.36   46.42   0
  -2   3   6   56.14   31.32   0
  -1   3   5  293.42   34.34   0
  -8   5   6    0.59   37.77   0
  -7   7   6   11.08   22.78   0
  -6   4   7   52.89   37.69   0
  -6   7   6   -6.07   22.10   0
  -5   9   3   20.02   28.97   0
  -4   3   7   27.04   28.78   0
  -4   6   6   30.06   25.88   0
  -3   5   6   72.76   27.90   0
  -2   5   5  123.39   38.05   0
  -7   8   5   -1.50   22.47   0
  -6   8   5   30.18   22.07   0
  -5   3   7  108.20   35.75   0
  -4   7   5   98.70   29.57   0
  -3   7   4   11.92   28.73   0
  -2   6   4   13.30   24.25   0
  -3   6   5    6.51   26.51   0
  -3   8   2    0.27   36.52   0
  -5   6   6   54.38   31.07   0
  -3   4   6   17.72   26.21   0
  -2   7   2  344.13   52.74   0
  -1   5   3  163.80   35.76   0
  -4   5   6   57.32   33.28   0
  -3   2   6   67.43   26.44   0
  -3   3   6   14.02   28.72   0
  -2   4   5  294.22   37.11   0
  -6   6   6   18.65   30.10   0
  -6   9   3  127.23   35.48   0
  -5   7   5  173.48   36.08   0
  -7   4   6    5.44   34.57   0
  -4   8   3   63.10   29.01   0
  -7   5   6   37.57   33.00   0
  -7   9   3   13.77   25.27   0
  -5   2   6   -3.22   38.05   0
  -5   9   2    7.87   31.98   0
  -4   2   6  197.29   44.67   0
  -3   5   5   42.31   30.05   0
  -2   3   5  374.61   40.50   0
  -8   8   4    5.13   17.10   0
  -6   3   6    5.32   41.46   0
  -6   7   5   25.32   28.60   0
  -5   5   6   20.63   25.51   0
  -4   4   6  148.45   33.06   0
  -4   6   5   55.49   26.97   0
  -3   7   3    6.63   26.81   0
  -2   6   3   42.03   25.99   0
  -7   7   5    5.21   22.23   0
  -6   8   4    3.95   20.33   0
  -9   6   4    0.62   28.79   0
  -8   6   5    2.89   28.55   0
  -7   8   4   32.04   22.46   0
  -6   4   6   42.44   37.39   0
  -5   3   6  -14.51   34.52   0
  -8   5   5  -12.67   35.62   0
  -5   6   5   48.22   33.28   0
  -3   4   5  171.57   30.30   0
  -8   9   2    2.48   22.27   0
  -6   9   2   18.72   23.32   0
  -4   8   2   17.50   29.62   0
  -2   4   4   66.53   29.60   0
  -7   6   5  -16.48   28.60   0
  -6   6   5    8.00   28.23   0
  -5   7   4   11.38   28.41   0
  -5   9   1   33.10   36.56   0
  -4   5   5   78.30   31.73   0
  -3   3   5   18.59   29.45   0
  -8   7   4   -3.12   24.65   0
  -7   9   2    5.28   22.89   0
  -2   6   2  132.40   32.54   0
  -9   7   3    7.48   24.30   0
  -8   8   3   16.34   22.26   0
  -3   5   4   14.12   26.23   0
  -3   7   2   15.30   29.83   0
  -2   5   3  140.51   30.16   0
  -7   4   5   44.13   38.65   0
  -7   5   5   33.75   39.33   0
  -6   7   4   12.68   28.86   0
  -6   8   3   31.16   27.02   0
  -5   5   5    9.76   31.22   0
  -4   4   5   14.66   27.52   0
  -4   6   4   94.85   28.84   0
  -9   8   2    4.21   22.31   0
  -7   7   4   20.31   23.51   0
  -7   8   3   -4.29   25.46   0
  -6   5   5   40.66   34.22   0
  -5   2   5   60.40   36.47   0
  -8   6   4   17.73   29.39   0
  -6   9   1   38.63   32.35   0
  -9   6   3    4.63   29.89   0
  -8   9   1   -1.80   21.35   0
  -6   3   5   42.45   39.41   0
  -6   4   5  106.84   40.73   0
  -5   8   2   54.57   30.60   0
  -5   9   0   27.74   34.53   0
  -8   5   4   -4.16   36.81   0
  -5   3   5  153.19   40.97   0
  -5   6   4  123.49   34.94   0
  -4   8   1   15.50   32.77   0
  -7   9   1   56.71   28.83   0
  -3   4   4   54.27   23.97   0
  -7   6   4   50.85   31.04   0
  -5   7   3  329.92   38.42   0
  -4   5   4  112.82   29.91   0
  -8   7   3    0.57   20.42   0
  -8   8   2   -3.10   24.28   0
  -6   6   4   52.20   29.75   0
  -3   7   1    7.35   27.16   0
  -2   6   1  131.35   32.02   0
  -9   8   1    4.69   19.46   0
  -6   8   2    3.74   22.41   0
  -5   9  -1   29.70   42.74   0
  -4   6   3    8.62   26.12   0
  -4   7   2   18.18   26.54   0
  -8   9   0    3.14   22.17   0
  -7   5   4   92.97   38.28   0
  -7   7   3   41.94   29.37   0
  -7   8   2    4.79   21.38   0
  -6   7   3  327.17   41.99   0
  -6   9   0    6.80   26.42   0
  -3   5   3  342.33   37.94   0
  -5   5   4  146.98   30.77   0
  -4   4   4   13.69   27.40   0
  -4   8   0   40.47   36.84   0
  -3   6   2   -3.70   23.72   0
  -9   6   2   -7.13   34.57   0
  -7   4   4   29.69   30.21   0
  -6   5   4   29.67   36.58   0
  -5   8   1    7.29   24.83   0
  -9   5   2   11.19   35.64   0
  -9   8   0    7.27   22.16   0
  -8   4   3   24.41   39.95   0
  -8   9  -1   34.05   26.69   0
  -5   4   4   15.29   30.59   0
  -5   6   3   46.53   32.13   0
  -5   9  -2   38.14   38.22   0
  -8   5   3   -2.53   34.62   0
  -8   7   2   13.12   29.33   0
  -8   8   1   10.52   22.97   0
  -6   3   4   -0.14   30.71   0
  -6   4   4    0.13   27.54   0
  -6   9  -1   27.86   31.71   0
  -5   7   2  207.86   33.97   0
  -3   7   0  424.70   50.84   0
  -7   6   3   41.60   28.12   0
  -6   6   3   21.17   30.32   0
  -6   8   1  192.50   32.24   0
  -5   3   4   19.28   32.43   0
  -4   5   3   35.48   28.30   0
  -7   8   1   82.51   28.69   0
  -4   7   1  108.48   33.66   0
  -9   8  -1    5.47   20.41   0
  -8   9  -2    2.25   22.78   0
  -7   7   2   25.69   25.62   0
  -6   7   2   31.32   25.95   0
  -5   8   0   -8.74   32.04   0
  -4   6   2   75.76   31.50   0
  -4   8  -1   27.36   35.40   0
  -9   6   1   -6.25   29.11   0
  -6   9  -2    6.31   35.60   0
  -3   6   1  349.58   40.38   0
  -9   5   1   12.15   40.93   0
  -8   8   0   32.61   26.71   0
  -7   3   3   55.11   51.81   0
  -7   9  -2    3.34   25.40   0
  -5   5   3   -7.15   28.30   0
  -9   7   0   -4.65   26.82   0
  -9   8  -2    3.39   20.53   0
  -6   5   3   29.96   33.89   0
  -8   7   1   -2.61   27.50   0
  -7   4   3  350.67   56.64   0
  -6   9  -3   27.72   38.26   0
  -5   7   1  115.29   38.72   0
  -8   4   2   15.07   49.77   0
  -8   5   2    9.54   38.93   0
  -7   8   0   13.71   25.62   0
  -7   9  -4    5.40   29.44   0
  -7   9  -3   61.00   32.27   0
  -6   9  -4   -1.78   38.75   0
  -5   6   2  169.75   34.81   0
  -4   8  -2   42.83   49.21   0
  -3   7  -1   21.80   35.01   0
  -7   6   2   47.45   29.48   0
  -9   6   0   66.65   36.58   0
  -9   7  -1   11.58   24.75   0
  -8   8  -1   22.42   27.51   0
  -7   7   1   14.55   28.19   0
  -6   4   3  147.79   40.24   0
  -6   6   2  145.60   37.20   0
  -6   7   1  126.54   37.49   0
  -5   4   3    3.80   26.36   0
  -5   8  -1    3.22   31.64   0
  -4   7   0  -11.47   23.57   0
  -6   3   3  112.46   40.18   0
  -4   5   2   14.88   27.98   0
  -9   5   0    8.94   36.49   0
  -8   6   1   16.86   36.48   0
  -8   7   0   32.07   30.54   0
  -7   8  -1  116.38   36.10   0
  -3   6   0    1.79   27.42   0
  -9   7  -2   21.40   26.32   0
  -8   8  -2    8.43   26.29   0
  -9   6  -1   41.23   35.28   0
  -9   7  -3   -4.84   27.08   0
  -6   5   2   80.27   40.62   0
  -5   5   2   91.45   31.07   0
  -5   8  -2   18.11   36.72   0
  -9   5  -1   10.00   43.29   0
  -8   5   1   82.47   44.10   0
  -8   8  -3   36.87   27.25   0
  -7   3   2  -12.17   41.64   0
  -7   4   2  -14.43   42.07   0
  -7   6   1    0.97   33.00   0
  -7   7   0   -7.33   36.43   0
  -5   6   1   19.32   31.86   0
  -8   4   1  118.49   59.52   0
  -8   8  -4   21.78   27.85   0
  -7   8  -2  100.84   38.08   0
  -6   7   0  205.21   41.34   0
  -4   7  -1   46.88   38.56   0
  -8   7  -1   11.16   31.71   0
  -6   6   1   16.00   29.29   0
  -8   6   0   27.98   29.47   0
  -5   8  -3    1.87   37.70   0
  -9   5  -2   16.52   34.56   0
  -6   4   2   12.04   30.73   0
  -5   4   2   18.66   36.94   0
  -9   5  -3   22.72   39.71   0
  -7   8  -3   80.61   31.42   0
  -8   5   0   26.27   46.09   0
  -8   7  -2    7.38   33.55   0
  -7   7  -1   73.16   34.88   0
  -6   3   2   65.53   42.45   0
  -6   8  -3   10.70   34.11   0
  -3   6  -1  446.67   61.78   0
  -7   6   0   90.00   44.54   0
  -6   7  -1   35.53   39.01   0
  -5   8  -4   22.86   45.63   0
  -4   7  -2   31.28   41.15   0
  -8   4   0    1.60   43.16   0
  -8   6  -1   22.24   34.01   0
  -6   5   1   -7.76   36.02   0
  -6   8  -6    3.41   32.99   0
  -6   8  -4   15.56   38.94   0
  -5   5   1   34.52   34.87   0
  -5   6   0   65.88   41.16   0
  -5   8  -5  -14.32   44.96   0
  -8   7  -3   32.85   31.66   0
  -7   4   1  182.57   47.91   0
  -6   6   0  122.36   49.03   0
  -6   8  -5   -8.68   41.64   0
  -8   7  -5    0.04   27.82   0
  -8   7  -4   43.50   38.74   0
  -7   3   1  156.56   55.31   0
  -7   7  -2   76.45   39.78   0
  -6  10   1   -7.67   37.28   0
  -5   7   4   10.92   43.03   0
  -3   9   2   26.17   47.25   0
  -2   6   4  -13.38   53.79   0
  -7   6   2   22.17   66.78   0
  -7   8   2    1.61   47.81   0
  -6   8   3   39.59   41.11   0
  -4   7   4   55.92   43.32   0
  -1   4   4   12.31   40.87   0
  -7   7   2   20.35   56.72   0
  -7   9   1   72.64   50.91   0
  -6   5   3   38.97   59.92   0
  -6   9   2   19.57   40.68   0
  -5   5   4  173.00   57.71   0
  -5   6   4  103.98   53.89   0
  -5  10   1   -5.21   32.72   0
  -2   9   1   18.42   48.94   0
  -3  10   0    1.82   38.46   0
  -6   6   3    8.87   52.31   0
  -5   8   3  116.87   47.51   0
  -4   4   4    9.53   42.44   0
  -4   6   4   79.66   54.06   0
  -4   8   3   64.05   46.11   0
  -4   9   2  138.40   49.46   0
  -3   6   4   14.45   39.42   0
  -2   7   3    6.19   48.31   0
  -1   6   3   20.74   46.02   0
  -5   9   2    8.23   35.28   0
  -4   5   4  105.17   48.03   0
  -2   4   4  108.73   44.21   0
  -2   8   2   48.40   49.63   0
  -6  10   0   39.44   33.92   0
  -3   4   4   26.30   34.95   0
  -3   5   4   -8.42   34.05   0
  -1   8   1   17.11   47.64   0
  -7   8   1   70.65   56.61   0
  -7   9   0    0.79   40.22   0
  -5   4   3   -0.08   38.88   0
  -7   7   1   23.41   55.36   0
  -6   8   2   11.54   33.04   0
  -5   7   3  305.49   63.80   0
  -4  10   0   40.14   39.68   0
  -6   5   2   86.93   55.36   0
  -6   9   1   63.08   41.72   0
  -5  10   0  110.47   47.52   0
  -3   7   3    2.37   32.52   0
  -5   6   3   51.14   41.37   0
  -4   7   3    8.62   34.90   0
  -3   9   1   70.33   37.28   0
  -1   5   3  236.03   48.24   0
  -3  10  -1    5.08   37.73   0
  -2   6   3   54.50   36.77   0
  -7   8   0   31.91   44.51   0
  -7   9  -1   51.94   52.24   0
  -6   6   2  182.93   55.14   0
  -6  10  -1   11.00   26.87   0
  -5   8   2   41.75   34.25   0
  -5   9   1   67.76   36.69   0
  -4   9   1   85.63   40.64   0
  -2   9   0   58.30   46.86   0
  -7   7   0   21.68   61.86   0
  -4   6   3   12.19   40.13   0
  -3   6   3   55.74   39.15   0
  -4   5   3   55.84   37.13   0
  -7   9  -2   11.38   32.26   0
  -6   8   1  213.59   46.49   0
  -6   9   0    1.32   29.78   0
  -5  10  -1   10.32   29.50   0
  -4  10  -1   57.39   32.74   0
  -2   7   2  419.92   54.40   0
  -2   8   1   51.48   36.73   0
  -7   8  -1   69.29   49.35   0
  -7   9  -3   10.04   44.23   0
  -6   5   1   11.00   40.85   0
  -6  10  -2   52.00   40.83   0
  -5   7   2  193.55   53.16   0
  -3   5   3  253.04   48.63   0
  -1   8   0  104.09   44.56   0
  -7   7  -1    8.47   47.04   0
  -6   7   1  135.61   52.38   0
  -5   5   2   88.85   42.73   0
  -4   7   2    1.76   34.35   0
  -3   7   2    2.06   26.41   0
  -3  10  -2   -1.74   31.14   0
  -1   7   1    4.91   34.37   0
  -1   9  -2    2.78   36.62   0
  -6   6   1   35.36   42.41   0
  -5   8   1    7.93   32.21   0
  -5   9   0   30.76   32.21   0
  -3   8   1   58.65   34.89   0
  -6   9  -1   56.20   34.79   0
  -5  10  -2  115.56   38.98   0
  -4   9   0   12.87   25.45   0
  -2   9  -1   57.52   35.74   0
  -4   8   1   38.98   28.85   0
  -4  10  -2   -2.19   24.86   0
  -1   5   2  139.43   37.31   0
  -4   6   2   44.99   32.24   0
  -3   6   2    8.49   22.93   0
  -6   7   0  212.83   50.24   0
  -5   7   1  108.95   36.16   0
  -5  10  -3   20.24   25.48   0
  -4   5   2    3.59   24.57   0
  -2   7   1   -2.72   29.44   0
  -2   8   0  482.89   54.34   0
  -6   6   0   93.11   43.31   0
  -5   9  -1   44.38   26.44   0
  -3   9  -1   62.68   35.52   0
  -6   8  -1  120.94   40.17   0
  -5   8   0   22.74   24.83   0
  -5  10  -4    2.48   20.32   0
  -4   9  -1   40.17   30.34   0
  -4  10  -3   40.62   23.10   0
  -3   5   2   42.20   28.39   0
  -1   9  -3  143.49   49.80   0
  -5   5   1   33.06   31.08   0
  -5  10  -5    3.99   21.17   0
  -4   7   1  128.91   35.82   0
  -3   7   1   14.84   23.66   0
  -1   6   1  230.02   38.51   0
  -6   9  -3   46.69   29.54   0
  -4   8   0  103.86   33.56   0
  -3   8   0   19.48   23.37   0
  -3  10  -4    1.16   24.12   0
  -2   9  -2   67.96   30.92   0
  -1   7   0  310.04   46.09   0
  -6   9  -5    2.62   31.70   0
  -4  10  -4   10.45   21.88   0
   0   7  -1   -0.42   28.29   0
  -6   7  -1   24.01   31.23   0
  -6   9  -4   12.41   26.76   0
  -5   9  -2   42.35   27.32   0
  -3  10  -5   28.34   29.59   0
   0   6   0    6.95   26.77   0
  -6   6  -1   -0.02   29.77   0
  -6   8  -2   81.33   33.42   0
  -5   7   0   12.95   27.51   0
  -4   6   1  282.73   37.64   0
  -4  10  -5    4.71   16.83   0
  -5   8  -1   13.37   25.95   0
  -4   9  -2    0.38   26.09   0
  -3   6   1  310.25   39.36   0
  -3   9  -2  215.06   35.35   0
  -2   8  -1   64.24   30.93   0
  -1   9  -4   24.67   33.61   0
  -6   8  -3    2.95   25.42   0
  -5   6   0   59.86   30.94   0
  -5   9  -3   36.16   26.07   0
  -4   7   0   17.31   25.79   0
  -2   9  -3   30.82   27.23   0
  -1   8  -2   -0.02   26.69   0
  -6   7  -2   41.72   34.58   0
  -5   5   0   37.03   29.24   0
  -4   8  -1   44.36   24.19   0
  -3   7   0  436.44   45.83   0
  -3   8  -1   12.76   24.75   0
  -6   6  -2   25.20   34.49   0
  -6   8  -4   -4.76   25.85   0
  -1   9  -5  107.89   41.77   0
  -6   8  -5   -3.77   26.80   0
  -5   8  -2    0.45   24.13   0
  -5   9  -4    6.38   21.61   0
  -4   9  -3   35.59   22.33   0
  -3   9  -3   42.73   28.31   0
  -6   7  -3   21.13   32.91   0
  -1   6   0  520.24   46.29   0
  -1   7  -1   70.65   29.62   0
  -5   9  -5   23.79   20.04   0
  -4   6   0   21.36   24.02   0
  -1   9  -6   42.79   37.09   0
   0   7  -2   -0.70   26.09   0
   0   8  -4   -4.63   31.27   0
  -6   7  -5    9.17   32.05   0
  -6   7  -4   -0.53   31.97   0
  -5   6  -1  137.72   33.65   0
  -4   8  -2   78.03   25.65   0
  -4   9  -4  107.78   26.84   0
  -3   9  -4  155.01   35.24   0
  -2   6   0  696.55   49.39   0
   0   6  -1   16.53   26.25   0
  -5   8  -3    9.20   19.97   0
  -4   7  -1   49.47   24.80   0
  -3   6   0    8.46   19.37   0
  -3   8  -2  397.20   42.20   0
  -1   8  -3   14.19   22.42   0
  -5   5  -1  163.43   38.17   0
  -4   9  -7    7.58   19.15   0
  -4   9  -5   17.68   22.84   0
  -3   7  -1   40.99   25.98   0
  -4   9  -6   97.00   24.15   0
  -3   9  -5   -2.44   23.74   0
  -2   9  -6   25.45   26.30   0
   0   8  -5   36.03   37.69   0
  -5   8  -7    3.18   22.48   0
  -2   9  -7   28.16   27.39   0
  -4   8  -3   15.37   21.51   0
  -3   9  -7   -0.61   16.61   0
  -3   9  -6   35.75   21.28   0
  -2   8  -3   34.89   27.86   0
  -1   7  -2  219.04   36.03   0
  -5   6  -2  -13.07   26.74   0
  -5   8  -6    6.16   25.49   0
  -5   8  -5    4.03   20.63   0
  -4   6  -1  347.72   40.34   0
  -3   8  -3    6.47   26.65   0
  -1   8  -4    5.81   30.62   0
   0   7  -3  101.08   34.47   0
  -5   7  -3   89.48   28.76   0
  -4   7  -2   39.26   26.03   0
  -1   6  -1  706.92   47.13   0
   0   8  -6   22.42   35.19   0
  -5   5  -2  108.61   35.11   0
   0   8  -8   -3.03   25.74   0
  -4   8  -4  257.12   33.97   0
  -3   6  -1  475.70   42.66   0
  -3   7  -2  203.11   34.21   0
  -2   7  -2  708.58   49.97   0
   0   8  -7   85.72   41.09   0
  -5   7  -7   27.09   33.71   0
  -5   7  -4   31.14   29.47   0
  -2   6  -1  966.17   53.43   0
  -2   8  -4  116.09   31.73   0
  -5   6  -3  198.59   40.99   0
  -4   8  -5   62.30   25.97   0
  -3   8  -4  400.94   40.32   0
  -1   8  -5   -2.03   29.42   0
   0   6  -2   14.25   23.38   0
  -5   7  -6   -4.22   27.27   0
  -5   7  -5  130.13   35.66   0
  -4   7  -9   11.68   22.76   0
  -4   7  -3  106.42   28.97   0
  -4   8  -7   44.54   24.95   0
  -4   6  -2  144.09   32.65   0
  -4   8  -6  144.61   28.32   0
  -2   8  -9   11.41   18.92   0
  -1   7  -3   55.57   26.18   0
   0   7  -4   53.82   33.09   0
  -5   5  -3  211.54   46.16   0
  -3   8  -5   28.48   22.76   0
  -2   8  -5    1.05   21.96   0
   1   7  -6   10.56   34.23   0
  -5   6  -7    9.38   31.72   0
  -5   6  -4   39.52   31.53   0
  -3   7  -3  178.60   36.14   0
  -3   8  -8   -8.57   16.65   0
  -2   7  -3  240.32   35.88   0
  -1   8  -8   15.03   25.15   0
  -4   7  -4   17.15   24.45   0
  -3   8  -7   32.28   25.08   0
  -3   8  -6  192.21   30.69   0
  -2   8  -8   -4.83   20.56   0
  -2   8  -6   21.71   26.66   0
  -1   6  -2   49.48   24.05   0
   1   7  -7  109.39   47.52   0
  -5   6  -6   69.00   40.24   0
  -5   6  -5   84.14   36.83   0
  -3   6  -2   94.79   28.16   0
  -2   8  -7   -6.37   25.48   0
   1   7  -8   13.09   37.65   0
  -5   5  -4  511.86   60.73   0
  -4   6  -9    4.84   30.58   0
  -4   7  -8    5.72   25.37   0
  -2   6  -2  496.10   41.95   0
  -4   7  -5   72.05   28.02   0
  -2   7 -10   -1.62   21.06   0
   0   6  -3  221.11   38.70   0
   0   7  -5   37.49   28.30   0
   1   6  -4   81.21   35.03   0
  -3   7  -4  243.02   35.77   0
  -3   7  -9   18.24   23.14   0
  -2   7  -4   45.40   24.90   0
  -1   7 -10    0.97   16.34   0
  -3   6 -10    3.89   23.51   0
   0   7  -6   32.84   35.49   0
  -3   6  -3  209.61   32.22   0
  -3   7  -5  201.73   35.86   0
  -1   7  -5    4.62   31.22   0
   2   6  -8    8.09   33.17   0
  -4   5  -3  201.41   35.38   0
  -4   6  -8    5.38   25.99   0
  -3   7  -8    5.68   22.41   0
   0   7  -7  146.18   44.03   0
  -3   7  -6   -1.35   25.53   0
  -2   6  -3  316.49   36.91   0
  -2   7  -9    1.45   16.84   0
  -2   7  -5  121.00   32.32   0
  -1   7  -9   10.54   24.27   0
   1   5  -3   14.67   31.99   0
   1   6  -5  490.44   62.77   0
  -4   6  -5   43.67   32.50   0
  -3   7  -7  124.05   28.35   0
  -1   7  -6    4.98   28.46   0
  -4   6  -7  120.45   36.74   0
  -4   6  -6   16.02   29.75   0
  -3   5 -10   10.75   29.24   0
  -2   7  -8   18.32   26.59   0
  -2   7  -6   46.20   29.81   0
   0   6  -4  175.82   34.77   0
   1   6 -10    8.49   22.87   0
  -3   6  -4  113.04   28.44   0
  -2   7  -7  -12.04   26.12   0
  -1   7  -8   66.62   29.65   0
  -1   7  -7   -5.43   24.72   0
  -4   5  -8   12.17   30.55   0
  -4   5  -4  140.55   38.08   0
  -3   6  -9   -4.57   23.72   0
  -2   6 -10    3.16   22.93   0
  -1   6  -4   61.83   31.72   0
   1   6  -6   24.42   38.35   0
  -2   6  -4   15.96   21.69   0
   1   6  -9   -7.59   31.40   0
  -4   5  -7   11.61   33.67   0
  -4   5  -5   53.37   36.48   0
  -3   6  -5  188.28   32.25   0
  -1   6 -10   31.32   27.36   0
   0   6 -10   14.73   21.12   0
   0   6  -5   -1.66   32.32   0
   1   6  -7   24.53   40.82   0
  -4   5  -6  398.56   54.78   0
   1   6  -8   34.30   42.08   0
  -3   6  -7   27.90   23.96   0
  -3   6  -6    3.17   22.66   0
  -2   6  -9   23.43   25.91   0
  -1   5 -11    8.88   22.53   0
   1   5 -11    3.34   24.18   0
   1   5  -4  106.73   34.84   0
   2   5 -10  -14.72   29.60   0
  -3   5  -9  -22.08   26.26   0
  -2   6  -5   96.32   32.59   0
  -1   6  -5    8.12   27.57   0
   0   6  -9    4.00   28.90   0
  -4   4  -7   20.54   39.19   0
  -1   6  -9   26.82   25.74   0
   0   5 -11    2.23   22.12   0
   2   5  -6   75.81   42.57   0
  -4   4  -6   54.57   36.78   0
  -4   4  -5    4.14   32.36   0
  -2   6  -8   69.41   28.12   0
  -2   6  -6   43.64   28.25   0
  -1   6  -6  143.60   40.75   0
   0   6  -8    1.49   30.60   0
   0   6  -7   18.23   37.90   0
  -2   6  -7    4.24   23.28   0
  -1   6  -8    8.74   31.08   0
   2   5  -9   22.61   36.05   0
  -3   5  -8   13.76   32.78   0
  -1   6  -7   20.34   28.00   0
   2   5  -8   -9.43   39.75   0
   2   5  -7   10.17   39.50   0
   3   4 -10   13.03   36.13   0
  -3   4  -9   18.45   33.82   0
  -2   5  -4    1.15   23.76   0
   1   5 -10    2.71   29.99   0
   1   5  -5   -7.41   36.26   0
  -3   5  -7    4.95   29.51   0
  -1   5 -10   -1.10   25.27   0
  -1   5  -4  439.61   47.85   0
  -3   3  -9   11.96   40.87   0
  -2   5  -9   71.94   33.95   0
   0   5 -10   -0.98   29.27   0
  -2   4 -10   10.14   30.45   0
   3   4  -9   16.52   38.35   0
  -2   5  -5   28.58   23.93   0
   1   5  -9    1.60   36.30   0
   1   5  -6  130.79   40.22   0
   0   4 -11    1.83   20.13   0
  -4   8   5   15.89   52.31   0
  -3   6   6   33.37   52.70   0
  -1   4   6    3.88   54.34   0
   0   7   4   81.29   59.80   0
  -6   9   3   76.72   74.88   0
  -4   9   4   54.30   43.57   0
  -3   4   6    8.36   43.20   0
  -6   7   4   31.54   67.17   0
  -5   5   5   -9.99   53.79   0
  -5   7   5  172.49   70.24   0
  -3   5   6   47.38   51.24   0
  -2   4   6  -13.79   45.74   0
  -2   5   6   25.78   43.11   0
  -5   6   5   56.63   64.41   0
   0   5   5   23.08   51.03   0
  -2   7   5    5.04   37.58   0
   1   5   4   49.69   57.87   0
  -4   4   5   14.02   52.85   0
  -4   7   5   65.20   54.80   0
  -2   9   3    0.30   41.20   0
  -1   6   5    0.75   39.13   0
   0   4   5  212.44   64.16   0
  -3   7   5    3.30   42.75   0
  -2   8   4   30.16   37.04   0
  -1   9   2   10.30   33.84   0
  -5   8   4    0.21   42.91   0
  -6   8   3    9.92   51.82   0
  -4   6   5   34.18   48.04   0
  -4  10   2  125.93   56.14   0
  -2   3   5  442.83   72.99   0
  -1   3   5  275.76   60.71   0
  -1   5   5   20.59   46.00   0
   0   6   4  198.42   66.85   0
   1   3   4   79.63   48.58   0
   1   4   4    2.77   41.72   0
   1   6   3  -20.23   49.69   0
  -3   8   4   81.84   44.48   0
  -2   6   5   18.01   37.67   0
  -1   4   5  289.31   63.77   0
   0   8   2   -6.76   36.72   0
  -6   7   3  381.52   98.72   0
  -6   9   2    9.72   42.54   0
  -5   5   4  116.04   65.35   0
  -4   8   4   32.49   38.03   0
  -3   4   5  132.58   49.20   0
  -3   6   5   14.59   36.18   0
  -3   9   3    9.86   30.05   0
  -1   8   3   66.91   36.33   0
  -5   7   4   28.16   44.11   0
  -4   9   3    9.49   33.59   0
  -3   5   5   25.08   38.85   0
  -2   5   5   88.76   51.02   0
   0   7   3    7.74   39.01   0
  -5   6   4   93.41   49.69   0
  -2   7   4   50.63   42.63   0
   0   5   4  292.33   61.67   0
  -5  10   1   26.35   29.28   0
  -4   4   4    8.70   32.67   0
  -4   7   4   22.85   37.91   0
  -3  10   1    8.66   31.19   0
  -5   8   3  128.62   47.45   0
  -3   7   4  -30.40   38.09   0
  -2   9   2    8.21   26.02   0
  -1   6   4  196.09   45.68   0
   0   4   4  126.35   45.45   0
   1   5   3   16.10   37.47   0
  -6   8   2    3.28   38.43   0
  -4  10   1   -5.56   26.67   0
  -2   8   3   98.80   37.78   0
  -1   9   1   30.49   31.32   0
  -6   9   1   39.75   48.83   0
  -4   5   4   75.85   45.30   0
  -2  10   0   17.80   30.27   0
  -6   7   2   15.66   48.90   0
  -5   5   3    2.85   43.41   0
  -4   8   3   55.16   39.40   0
  -3   8   3   22.88   35.57   0
  -2   6   4    6.90   38.70   0
  -1   5   4  100.91   48.31   0
   0   6   3   20.95   38.74   0
   1   4   3  139.28   46.80   0
   1   6   2  -10.83   42.19   0
  -5   7   3  290.14   63.76   0
  -4   9   2  155.73   44.66   0
  -3   6   4    7.54   29.33   0
  -3   9   2   28.85   29.41   0
  -1   4   4   18.59   36.55   0
   1   7   1    4.68   35.86   0
  -5   6   3   72.39   47.34   0
  -3   5   4   40.35   35.11   0
  -2   5   4  -15.72   35.10   0
  -5  10   0  123.48   44.41   0
  -2   4   4   49.65   32.50   0
   0   7   2  259.67   44.53   0
   0   9  -1  152.64   57.65   0
  -3  10   0   16.56   25.85   0
  -5   8   2   43.92   42.95   0
  -4   7   3   -1.70   33.33   0
  -2   7   3   11.32   30.22   0
  -2   9   1   37.95   30.23   0
   0   5   3  186.38   45.66   0
  -6   9   0    2.85   37.83   0
  -5   9   1   70.68   33.24   0
  -4  10   0   26.59   27.30   0
  -3   7   3   14.11   32.90   0
  -2  10  -1    6.08   27.24   0
  -1   6   3    4.96   36.89   0
  -2   8   2   43.41   29.59   0
  -1   9   0   12.73   24.82   0
   1   5   2   43.90   36.15   0
  -4   5   3   40.39   34.30   0
   0   4   3  202.02   35.59   0
  -5   7   2  173.30   50.69   0
  -5  10  -1    0.11   24.09   0
  -4   8   2   12.27   25.71   0
  -4   9   1   64.92   34.90   0
  -3   8   2   -8.01   26.12   0
  -3   9   1   41.04   28.01   0
  -2   6   3   36.38   34.95   0
  -5   6   2  179.73   54.97   0
  -1   5   3  238.45   40.93   0
  -1   7   2  596.92   51.03   0
   0   6   2   95.50   34.68   0
   0   8   0    6.73   30.05   0
   1   7   0   28.56   44.28   0
  -6   8   0   33.92   46.00   0
  -6   9  -1   21.98   39.37   0
  -3  10  -1    9.96   27.85   0
   0   9  -2    8.40   29.68   0
   1   6   1    6.95   29.79   0
  -4  10  -1   24.92   24.45   0
  -3   5   3  273.29   44.70   0
  -2   5   3  120.13   36.49   0
   0   7   1    8.81   30.26   0
  -5   8   1   -2.93   35.68   0
  -5   9   0   43.00   31.18   0
  -2   9   0   72.98   30.75   0
  -2  10  -2    6.06   23.19   0
   1   8  -2   26.08   43.56   0
  -5  10  -2  119.65   34.47   0
  -4   7   2    6.46   27.02   0
  -2   7   2  320.51   46.24   0
  -6   9  -2   12.48   38.35   0
  -3   7   2   -1.50   26.02   0
  -4   8   1   16.54   28.35   0
  -4   9   0   21.77   28.08   0
  -3   9   0   25.67   27.90   0
   0   5   2  139.91   32.42   0
  -6   8  -1   42.06   50.24   0
  -5   7   1  153.32   43.23   0
  -4   5   2   -4.08   28.13   0
  -4   6   2   90.81   29.83   0
  -4  10  -2    9.04   22.17   0
  -3   8   1   86.61   33.79   0
  -3  10  -2    0.77   25.17   0
   0   9  -3   82.00   36.93   0
  -5  10  -3   24.01   27.98   0
  -2  10  -3   94.68   32.13   0
  -1   8   0  119.71   32.09   0
   0   8  -1   73.74   31.39   0
   1   5   1   50.75   29.78   0
  -5   6   1   24.85   37.85   0
  -5   9  -1   47.86   30.62   0
  -3   6   2   27.26   28.40   0
  -2   6   2   86.19   31.21   0
  -1   7   1   -2.64   22.57   0
  -5   8   0    0.82   32.08   0
  -5  10  -4    0.39   23.33   0
  -2   9  -1   50.06   29.40   0
   0   6   1  114.72   34.35   0
   1   7  -1    0.58   28.43   0
   1   8  -3   44.37   38.32   0
  -1   5   2  142.76   28.87   0
   0   7   0   53.01   31.47   0
   1   6   0   29.76   27.83   0
  -4   9  -1   32.88   29.55   0
  -4  10  -3   46.34   24.56   0
  -3  10  -3    9.11   20.99   0
  -2   7   1   11.67   28.06   0
  -2  10  -4   -5.37   23.11   0
   0   9  -4   12.72   32.54   0
  -3   9  -1   79.25   26.23   0
  -2   5   2    1.18   20.94   0
  -2   8   0  504.40   45.39   0
  -5   9  -2   32.92   30.45   0
  -4   8   0   82.62   27.98   0
  -3   7   1   18.28   24.11   0
  -2  10  -5   80.88   41.46   0
  -5   7   0   16.51   33.07   0
  -4  10  -4   -5.95   20.44   0
  -3   8   0    2.57   22.54   0
  -3  10  -4   -2.18   22.53   0
  -5   8  -1   12.62   29.08   0
  -2   9  -2   62.06   28.58   0
  -1   6   1  218.53   29.13   0
  -1   8  -1   32.93   24.85   0
   0   5   1  206.16   32.81   0
   0   8  -2   60.74   28.76   0
   0   9  -5    7.93   30.83   0
   1   8  -4   23.82   34.48   0
  -5   6   0   28.57   36.68   0
  -3  10  -5   11.07   26.55   0
  -1   7   0  301.01   38.61   0
  -4   9  -2   11.09   24.58   0
   1   7  -2   37.92   29.70   0
  -5   9  -3   13.64   26.45   0
  -3   9  -2  243.84   35.40   0
  -2   6   1   96.99   27.27   0
  -2   8  -1   64.79   28.43   0
   0   6   0   19.72   22.97   0
   0   7  -1   -3.85   21.80   0
   1   6  -1   10.12   25.39   0
  -4   8  -1   37.57   26.66   0
  -2   7   0  505.87   43.25   0
  -1   9  -4   18.21   30.07   0
   1   8  -5  200.71   47.37   0
  -5   7  -1   23.06   32.21   0
  -5   8  -2   13.83   28.80   0
  -5   9  -6   14.01   27.15   0
  -5   9  -4   11.93   27.66   0
  -3   7   0  440.36   45.42   0
  -3   8  -1   25.70   22.84   0
  -2   9  -3   37.61   24.08   0
   0   8  -3   11.62   26.45   0
  -5   9  -5   22.23   26.89   0
  -4   9  -3   25.60   23.22   0
  -1   8  -2   14.38   19.18   0
  -3   9  -3   38.18   23.20   0
   1   8  -6   -4.41   29.83   0
  -4   6   0   14.94   25.45   0
  -1   6   0  569.27   43.27   0
  -1   9  -5  159.82   39.61   0
   1   7  -3  179.33   40.21   0
  -5   6  -1   96.98   39.45   0
  -2   9  -4   37.38   27.38   0
  -1   7  -1   61.32   23.01   0
  -5   8  -3    3.93   27.64   0
  -2   8  -2   97.82   28.47   0
  -1   9  -7    0.33   25.27   0
  -1   9  -6   51.10   31.59   0
   0   7  -2   13.84   26.20   0
  -5   7  -2   -4.53   29.07   0
  -4   7  -1   63.88   26.52   0
  -4   9  -7    0.44   20.00   0
  -3   6   0   -1.08   22.63   0
  -3   8  -2  409.32   44.94   0
  -3   9  -4  148.96   30.98   0
  -2   6   0  614.00   49.88   0
   0   8  -4   19.75   23.96   0
  -2   7  -1   36.92   29.62   0
  -2   9  -5   33.55   30.38   0
  -1   8  -3    4.50   25.61   0
   0   6  -1   48.93   24.75   0
  -3   7  -1   30.29   21.60   0
   1   5  -1   -2.86   24.13   0
   1   6  -2    5.00   24.19   0
  -5   8  -4   23.12   28.45   0
  -3   9  -5   -1.65   20.49   0
  -2   9  -7   24.50   26.22   0
  -2   9  -6   12.78   26.46   0
  -3   9  -7   -4.29   20.19   0
  -3   9  -6   19.19   23.89   0
   0   8  -5   74.82   30.19   0
   1   7  -4   24.09   29.08   0
  -5   8  -6    2.92   30.78   0
  -5   8  -5    1.18   27.57   0
  -4   6  -1  354.61   43.15   0
  -2   8  -3    7.87   22.57   0
  -1   7  -2  221.43   36.06   0
   2   6  -4    5.25   27.32   0
  -5   7  -3   55.10   34.08   0
  -4   7  -2   17.99   29.56   0
  -3   8  -3   16.30   21.55   0
  -1   8  -4   12.18   27.18   0
  -1   6  -1  752.58   44.56   0
  -2   7  -2  653.62   55.81   0
  -4   8  -8   18.42   28.60   0
  -3   7  -2  223.58   31.71   0
   1   7  -5   22.91   32.39   0
  -5   7  -4   26.30   33.07   0
  -3   8  -4  411.06   45.73   0
  -2   8  -4  131.32   31.46   0
  -1   8  -5    6.99   27.56   0
   1   6  -3  131.39   33.81   0
   2   5  -3  141.14   36.64   0
  -4   8  -5   63.16   29.62   0
  -1   8  -9   10.89   26.24   0
   2   6  -5  318.32   60.44   0
  -5   7  -5   80.63   47.04   0
  -4   7  -3  117.05   33.86   0
  -4   8  -7   53.21   27.53   0
  -1   7  -3   76.38   25.37   0
   1   7  -9    7.95   25.15   0
   1   7  -6   24.03   30.91   0
  -5   7  -6    5.19   28.38   0
  -4   6  -2  145.39   35.52   0
  -4   8  -6  162.63   31.40   0
  -2   8  -9   -0.82   15.83   0
  -2   8  -5  -12.05   28.62   0
  -1   8  -6   41.33   26.06   0
   1   5  -2  565.23   43.34   0
  -3   8  -5   29.93   24.64   0
  -1   8  -8   25.37   23.24   0
  -1   8  -7   -3.63   28.48   0
   1   7  -8   42.24   36.92   0
   1   7  -7   76.76   38.96   0
  -3   7  -3  190.74   33.30   0
  -3   8  -8   -1.71   19.00   0
  -2   7  -3  254.91   36.94   0
  -1   6  -2   45.50   24.18   0
   2   6  -6  130.55   44.76   0
  -3   8  -7   23.56   23.76   0
  -3   8  -6  155.05   33.80   0
  -2   8  -8    9.08   18.20   0
  -2   8  -6    0.14   24.06   0
   2   6  -9   -1.64   32.90   0
  -4   7  -4   30.80   27.92   0
  -2   6  -2  402.09   42.14   0
  -2   8  -7   19.70   20.86   0
   1   6  -4  150.32   29.83   0
  -1   7  -4   47.49   26.07   0
   2   6  -7    5.57   31.00   0
  -4   7  -8    4.82   30.37   0
   2   5  -4  376.98   50.23   0
   2   6  -8   -7.84   32.37   0
  -4   6  -3  242.65   40.01   0
  -4   7  -5   47.62   32.51   0
  -3   7  -4  277.31   35.89   0
  -2   7 -10    4.68   19.78   0
  -2   7  -4   39.15   31.37   0
  -1   7 -10    5.48   20.24   0
   0   7  -6   20.68   30.03   0
   0   7  -9   23.56   27.40   0
  -4   6  -9    1.19   29.59   0
  -4   7  -7   57.70   30.20   0
  -4   7  -6   44.03   33.85   0
  -3   7  -9   10.57   22.83   0
  -1   7  -5    8.12   23.87   0
   0   7  -8   28.63   31.18   0
   0   7  -7  118.88   40.66   0
   1   5  -3   34.23   22.61   0
   1   6  -5  505.06   57.34   0
  -1   6  -3  451.34   38.69   0
  -3   7  -5  194.37   31.03   0
  -2   7  -5  165.16   36.06   0
  -1   7  -9    6.37   26.16   0
   1   6 -10   -3.44   25.04   0
  -4   6  -4    6.01   31.05   0
  -3   6 -10   -5.05   21.83   0
  -2   6  -3  318.85   34.31   0
  -2   7  -9   -7.46   20.50   0
  -1   7  -6   25.88   27.81   0
   2   5  -5   15.91   27.01   0
  -3   7  -7  145.74   32.24   0
  -3   7  -6   -2.56   18.76   0
  -1   7  -8   43.63   33.74   0
  -1   7  -7    8.53   31.82   0
   1   6  -6   26.38   33.28   0
  -2   7  -8   23.04   26.54   0
  -2   7  -6   19.25   27.73   0
  -2   7  -7   -3.99   21.58   0
   1   6  -9   -2.10   25.79   0
  -7   9  -2   -0.09   18.85   0
  -6   7   1  155.60   35.04   0
  -8   8  -4   33.58   29.85   0
  -8   8  -3   30.63   24.19   0
  -7   4   0    8.31   35.20   0
  -6   3   1   -7.83   33.39   0
  -5   5   2  121.44   35.30   0
  -5   7   1  132.98   41.70   0
  -8   6  -4    9.22   35.59   0
  -8   6  -2   70.87   38.29   0
  -8   7  -2   27.41   28.39   0
  -7   7   0   43.27   29.07   0
  -5   4   2   19.30   25.90   0
  -5   8   0   22.58   25.91   0
  -8   6  -3   28.92   36.93   0
  -8   7  -4   46.14   30.75   0
  -7   8  -1  123.06   31.98   0
  -7   9  -3  104.32   29.85   0
  -7   6   0   98.35   38.75   0
  -6   4   1   37.88   35.54   0
  -6   6   1   23.93   28.40   0
  -6   9  -2   25.83   27.95   0
  -7   9  -5    1.15   21.80   0
  -7   9  -4    6.52   22.89   0
  -6   5   1   13.21   29.82   0
  -5   9  -2   56.65   34.35   0
  -3   6   1  277.68   51.67   0
  -7   4  -1   55.56   43.86   0
  -7   7  -1   75.21   36.18   0
  -7   8  -2  135.29   36.03   0
  -6   3   0  130.15   46.24   0
  -6   7   0  204.80   41.84   0
  -6   8  -1  116.45   33.41   0
  -5   6   1   37.10   28.66   0
  -4   6   1  367.81   50.36   0
  -7   4  -2    9.36   39.04   0
  -7   5  -1   39.32   38.30   0
  -7   6  -1   19.15   31.08   0
  -5   8  -1   15.04   34.37   0
  -4   8  -1   15.34   36.45   0
  -7   8  -6   -8.76   24.53   0
  -7   8  -3   61.71   32.99   0
  -5   5   1   23.43   27.61   0
  -4   7   0    5.52   31.25   0
  -4   9  -3   26.62   36.42   0
  -7   4  -3   41.85   42.83   0
  -7   7  -2   31.70   34.45   0
  -6   6   0   88.46   35.89   0
  -6   9  -4    5.48   26.52   0
  -5   4   1  233.04   37.01   0
  -5   9  -3   26.81   28.30   0
  -7   8  -5   14.36   25.48   0
  -7   8  -4   50.16   29.62   0
  -6   5   0   16.15   30.26   0
  -6   9  -6   -5.53   22.69   0
  -7   5  -2  112.02   41.06   0
  -7   6  -2   87.61   36.87   0
  -6   3  -1  151.52   48.41   0
  -6   7  -1    8.51   32.93   0
  -6   8  -2   83.46   30.68   0
  -6   9  -5   15.05   23.90   0
  -7   6  -6    1.58   33.13   0
  -7   7  -6   15.51   27.99   0
  -7   7  -3   22.99   28.49   0
  -7   5  -5    1.83   35.15   0
  -7   5  -3    9.35   33.15   0
  -5   6   0   66.70   34.20   0
  -5   9  -4    8.61   29.23   0
  -4   9  -4  119.47   46.29   0
  -7   5  -4    1.72   32.51   0
  -7   7  -4   52.41   34.36   0
  -7   6  -5   -2.86   30.09   0
  -6   3  -2   63.92   43.89   0
  -6   4  -1   28.84   33.16   0
  -6   6  -1    1.01   27.56   0
  -6   8  -3    8.54   23.81   0
  -5   7  -1   43.58   35.12   0
  -4   8  -2   69.78   38.81   0
  -3   6   0  -22.04   31.71   0
  -7   6  -4   -1.31   27.11   0
  -6   5  -1   -4.18   33.14   0
  -6   7  -2   47.56   33.96   0
  -4   6   0   27.82   26.26   0
  -3   7  -1   35.60   34.81   0
  -6   8  -7    6.24   19.37   0
  -5   5   0   39.99   26.07   0
  -4   7  -1   44.56   30.98   0
  -4   9  -5   14.84   31.54   0
  -3   9  -6   40.22   41.99   0
  -6   8  -4   14.10   22.48   0
  -4   9  -7    8.56   23.84   0
  -6   8  -6    7.29   24.72   0
  -6   8  -5    4.41   25.90   0
  -4   9  -6  110.50   37.74   0
  -6   4  -2   42.04   36.19   0
  -6   6  -2   32.29   34.49   0
  -6   7  -3   32.41   31.29   0
  -3   8  -3    9.42   33.61   0
  -6   5  -2   23.62   35.92   0
  -5   6  -1  124.99   30.95   0
  -4   8  -3   14.36   31.60   0
  -6   7  -7   16.17   26.88   0
  -5   7  -2    4.31   22.80   0
  -5   8  -8   15.18   22.23   0
  -6   4  -6   43.66   43.16   0
  -6   5  -7   13.01   34.36   0
  -6   7  -4   -8.75   28.53   0
  -5   8  -4   34.72   27.72   0
  -6   4  -3    8.88   28.53   0
  -6   6  -7    7.15   30.15   0
  -6   6  -3   22.22   25.84   0
  -6   7  -6   -5.01   26.68   0
  -5   5  -1  146.80   34.26   0
  -6   7  -5   29.88   24.59   0
  -5   4  -1   10.20   25.00   0
  -5   8  -7    2.39   22.08   0
  -5   8  -5    7.78   27.14   0
  -4   7  -2   20.52   26.76   0
  -3   7  -2  171.49   42.75   0
  -6   4  -5   49.37   38.62   0
  -6   4  -4   11.60   28.82   0
  -6   6  -4   24.69   28.71   0
  -5   6  -9    5.91   25.58   0
  -5   8  -6    7.32   26.28   0
  -4   8  -4  261.96   44.99   0
  -3   6  -1  492.93   50.24   0
  -6   5  -6   78.64   37.76   0
  -6   5  -4  278.18   47.49   0
  -5   6  -2   -1.85   23.68   0
  -5   7  -3   74.31   29.10   0
  -3   8  -4  395.07   53.23   0
  -6   5  -5    5.61   33.26   0
  -6   6  -5  253.97   37.55   0
  -5   7  -8   -0.70   21.65   0
  -4   8  -8   40.93   25.19   0
  -2   8  -5    0.00   34.56   0
  -5   5  -2   81.18   30.66   0
  -5   7  -4   34.55   28.83   0
  -5   4  -8   35.82   39.07   0
  -4   8  -7   42.61   23.55   0
  -4   8  -6  154.38   34.78   0
  -3   8  -5   36.38   33.31   0
  -5   6  -3  176.17   35.47   0
  -5   7  -7   67.91   28.39   0
  -5   7  -5  144.12   33.97   0
  -4   6  -2  157.37   34.13   0
  -2   7  -3  157.97   46.37   0
  -5   7  -6   21.98   26.93   0
  -4   7  -9   29.21   22.45   0
  -3   7  -3  194.48   34.66   0
  -3   8  -6  191.81   37.54   0
  -2   8  -8    1.02   27.54   0
  -2   8  -6    0.79   34.30   0
  -5   3  -3   90.80   35.73   0
  -5   5  -8   46.43   32.46   0
  -3   8  -7   33.31   26.19   0
  -2   8  -7   -0.21   33.43   0
  -5   5  -3  303.30   37.88   0
  -5   6  -4   25.72   31.65   0
  -4   7  -4   11.45   26.93   0
  -3   6  -2  117.61   33.25   0
  -5   3  -6    2.41   35.31   0
  -5   3  -4  260.24   51.58   0
  -5   4  -3   15.86   23.10   0
  -5   6  -7   30.31   27.70   0
  -5   3  -5    4.83   30.13   0
  -5   4  -7    6.69   26.91   0
  -5   6  -6  106.49   32.33   0
  -5   6  -5   88.67   32.91   0
  -4   5  -2  306.76   39.11   0
  -4   7  -8    9.55   24.66   0
  -5   5  -7   17.04   29.00   0
  -5   5  -4  631.84   53.42   0
  -4   6  -9    6.40   23.85   0
  -4   6  -3  191.87   30.00   0
  -4   7  -5   73.87   30.01   0
  -3   7  -4  228.08   38.11   0
  -2   7 -10   11.76   19.73   0
  -5   4  -6  240.04   41.57   0
  -5   4  -4   16.89   23.87   0
  -4   7  -7   78.39   28.58   0
  -2   7  -4   39.35   30.44   0
  -5   4  -5    5.95   26.55   0
  -5   5  -5   32.26   22.78   0
  -3   7  -9   13.24   17.48   0
  -4   4  -9    4.44   32.20   0
  -4   5  -9   -1.87   25.86   0
  -3   6 -10   13.91   18.97   0
  -4   6  -4   19.39   25.86   0
  -1   7  -5   -3.33   32.94   0
  -4   5  -3  165.51   31.02   0
  -4   6  -8   -5.67   20.53   0
  -3   3 -10    0.36   35.89   0
  -3   7  -8    1.86   22.85   0
  -3   7  -7   91.26   27.93   0
  -3   7  -6   11.13   22.96   0
  -2   6  -3  269.42   39.18   0
  -2   7  -9   -4.76   18.27   0
  -2   7  -5  129.41   34.20   0
   0   7  -8   24.73   37.09   0
  -4   3  -8   14.52   31.61   0
  -4   6  -7   88.40   31.21   0
  -4   6  -5   37.34   24.69   0
  -2   5 -11   12.02   20.57   0
  -1   7  -9   -4.84   22.97   0
  -4   6  -6   -2.90   21.90   0
  -3   4 -10    6.67   25.10   0
  -2   7  -6   28.46   30.15   0
  -1   7  -6    3.36   33.76   0
  -4   4  -8    4.90   27.89   0
  -4   5  -4  135.37   29.23   0
  -3   6  -9   -1.14   19.17   0
  -3   6  -4   99.46   28.40   0
  -2   7  -7   25.42   26.02   0
  -1   7  -8   47.29   30.90   0
  -2   4 -11    1.36   23.34   0
  -2   6 -10   12.34   17.87   0
  -1   7  -7    9.35   27.79   0
  -4   3  -7    1.40   30.74   0
  -4   5  -7   29.07   20.99   0
  -4   5  -5   24.81   26.23   0
  -4   4  -7   71.44   31.60   0
  -4   4  -4  652.09   49.06   0
  -4   5  -6  340.22   38.53   0
  -3   6  -8   19.35   25.42   0
  -4   3  -4  328.18   39.02   0
  -3   5  -9    3.48   23.61   0
  -3   6  -5  138.64   27.31   0
  -2   6  -4   13.60   23.24   0
  -1   6 -10   17.32   21.96   0
  -1   6  -4   42.01   28.38   0
  -4   3  -6  129.57   34.45   0
  -4   3  -5   45.28   28.71   0
  -4   4  -6   51.09   27.76   0
  -3   6  -7   33.67   20.85   0
  -3   6  -6   30.69   24.77   0
  -1   5 -11   13.66   18.22   0
   0   6 -10    5.73   21.51   0
  -3   3  -9    5.63   29.51   0
  -2   6  -9   14.72   17.87   0
  -3   4  -9    9.64   24.46   0
  -3   5  -4   46.05   21.78   0
  -2   5 -10   14.84   19.03   0
   1   6  -9   -4.65   27.67   0
  -3   5  -8   21.99   23.71   0
  -2   6  -5  114.60   25.03   0
  -2   2 -10   18.03   30.73   0
  -2   6  -8   85.54   23.92   0
  -1   6  -9   19.05   20.03   0
  -1   6  -5   -2.48   27.11   0
   0   5 -11   -3.60   17.64   0
   1   6  -8   46.57   43.30   0
  -3   2  -8   88.95   40.74   0
  -3   5  -5   53.07   24.34   0
  -2   4 -10   -5.36   22.59   0
  -2   6  -7    9.70   17.79   0
  -2   6  -6   37.25   23.65   0
  -1   4 -11    9.30   21.71   0
   0   6  -9   19.25   24.27   0
  -3   5  -7  -10.07   22.05   0
  -3   5  -6   18.03   24.80   0
  -2   3 -10   17.48   25.41   0
  -1   2 -11    3.13   21.94   0
   0   6  -6   75.94   36.31   0
  -3   3  -8  158.46   37.94   0
  -2   5  -9  130.40   29.96   0
  -1   3 -11   -6.33   20.98   0
  -1   5 -10    6.88   20.68   0
  -1   6  -6  143.82   31.58   0
   0   6  -8   17.84   26.46   0
  -1   6  -7   26.31   21.93   0
   0   6  -7   -3.31   28.75   0
   2   5 -10    1.17   24.27   0
  -3   4  -7   27.67   27.32   0
  -3   2  -7    7.69   29.49   0
  -3   4  -5   59.50   26.13   0
  -2   5  -8  267.39   35.55   0
  -3   3  -7   13.61   24.90   0
  -3   4  -6  224.54   30.31   0
  -2   4  -9   76.35   26.81   0
  -2   5  -5   25.28   22.59   0
   0   4 -11    5.14   15.90   0
   0   5 -10   13.07   17.72   0
   1   5 -10    4.12   24.03   0
  -2   5  -7    6.96   23.74   0
  -1   5  -9   39.73   24.17   0
  -3   2  -6  217.05   33.40   0
  -3   3  -6    9.48   20.84   0
  -3   3  -5  113.00   25.57   0
  -2   2  -9    2.62   25.77   0
  -2   3  -9   -5.41   25.31   0
  -2   5  -6   51.18   19.87   0
  -1   4 -10   15.89   17.10   0
   2   5  -9   13.66   34.15   0
  -1   1 -10    4.27   31.37   0
   1   4 -11   -3.20   16.59   0
  -2   4  -8  142.17   32.91   0
   0   1 -11   -2.51   25.64   0
   0   3 -11    4.64   19.13   0
   0   5  -9    5.83   19.30   0
  -1   3 -10   13.59   22.88   0
  -1   5  -8   72.02   23.55   0
  -1   5  -5   44.71   18.95   0
   1   5  -9   -5.13   24.33   0
   2   5  -8    2.83   30.50   0
  -2   1  -8   26.36   35.15   0
  -1   2 -10    3.04   23.45   0
  -1   5  -7  114.66   27.36   0
   0   5  -5  141.67   32.71   0
   3   4 -10   12.55   28.54   0
  -2   4  -7  116.95   28.39   0
  -1   4  -9  119.04   30.09   0
   0   4 -10   82.90   27.67   0
  -2   2  -8  125.16   35.68   0
  -2   4  -6   61.05   24.38   0
  -2   4  -5   10.47   17.10   0
   1   5  -8   30.60   29.32   0
   1   5  -6  128.14   36.98   0
   0   5  -7   43.73   26.98   0
   0   5  -6   58.56   25.15   0
   1   3 -11    6.08   18.72   0
   1   5  -7   15.00   28.84   0
   1   4 -10    0.51   18.17   0
  -2   1  -7   23.70   32.04   0
  -2   3  -7   68.38   24.82   0
  -1   3  -9   20.19   24.94   0
  -1   4  -8   -4.29   23.24   0
   1   0 -11    3.79   26.47   0
   2   3 -11   -5.47   19.99   0
   3   4  -9   12.82   33.21   0
   0   0 -10   11.93   27.95   0
   0   3 -10   27.41   23.58   0
   0   4  -9   21.26   23.64   0
   4   3 -10    2.05   27.61   0
  -2   2  -7   -1.82   23.26   0
  -2   3  -6  236.93   30.97   0
  -1   1  -9  -10.16   28.91   0
  -1   2  -9   21.65   27.01   0
   1   2 -11    4.81   20.34   0
  -1   4  -7  412.44   35.73   0
  -2   2  -6  650.53   47.22   0
  -1   4  -6  127.95   23.82   0
   0   1 -10    3.76   24.57   0
   0   2 -10   43.79   23.34   0
   1   4  -9   -5.92   16.95   0
   2   4  -9   11.80   28.24   0
   3   4  -8    6.43   36.89   0
  -1   3  -8   57.56   26.65   0
   0   4  -8    8.90   23.33   0
   1   3 -10   -4.63   20.89   0
   2  -1 -11   -1.66   24.10   0
   2   2 -11   -8.99   22.91   0
   5   2 -10    0.89   25.36   0
  -1   0  -8   15.12   32.76   0
   3   2 -11    5.21   20.60   0
   0   3  -9    3.66   19.12   0
   0   4  -7  251.01   33.87   0
   2   3 -10   21.01   27.34   0
   2   4  -8   -4.25   28.06   0
  -5   1  -6   -9.31   28.61   0
  -5   1  -5   -0.43   32.63   0
  -5   1  -4  159.01   35.08   0
  -5   2  -7   -4.67   29.30   0
  -5   3  -7   21.10   31.44   0
  -5   3  -4  260.01   40.46   0
  -5   4  -6  227.07   36.84   0
  -5   2  -4  -16.57   31.28   0
  -4  -1  -6   33.81   41.17   0
  -4   0  -8   11.51   30.15   0
  -4   4  -9   28.63   20.50   0
  -4   5  -7   27.31   32.16   0
  -4   5  -6  351.79   45.54   0
  -3   5  -9   -4.56   29.64   0
  -5   2  -6   -7.84   29.08   0
  -5   3  -6   35.59   30.41   0
  -5   3  -5    4.29   25.88   0
  -5   2  -5   63.62   28.17   0
  -4  -1  -5   60.96   41.91   0
  -4  -1  -4   72.17   40.63   0
  -4   2  -9   -5.89   25.80   0
  -4   3  -9    0.34   28.26   0
  -3   5  -5   60.51   33.08   0
  -4   4  -8   15.00   22.49   0
  -3   1 -10   15.24   25.90   0
  -3   5  -8   17.48   28.93   0
  -2   5  -9   97.38   44.46   0
  -4   0  -7   37.54   35.37   0
  -4   0  -3  105.77   39.23   0
  -4   1  -8    6.96   33.42   0
  -3   3 -10   26.63   26.83   0
  -3   5  -7    0.38   32.36   0
  -3   5  -6   14.63   32.18   0
  -4   4  -7   45.74   30.42   0
  -4   4  -5    0.42   24.99   0
  -3   2 -10   28.70   30.93   0
  -2   1 -11    3.06   21.16   0
  -4   2  -8    8.65   33.30   0
  -4   3  -8   21.61   27.19   0
  -4   4  -6   40.45   30.43   0
  -3  -1  -8    7.52   37.38   0
  -2   2 -11   -1.30   20.78   0
  -4   0  -6   15.15   28.91   0
  -4   0  -4   30.02   35.03   0
  -4   3  -4  300.18   41.20   0
  -3   0  -9   17.78   28.73   0
  -2   4 -10   13.98   27.76   0
  -4   0  -5  193.93   45.92   0
  -4   1  -7   36.03   32.78   0
  -2   5  -7   -2.90   39.04   0
  -4   3  -7   12.77   26.47   0
  -4   3  -5   64.08   30.55   0
  -4   1  -6   23.48   35.74   0
  -4   2  -7   37.77   28.65   0
  -4   2  -4   21.09   29.66   0
  -4   3  -6  120.42   32.47   0
  -4   2  -6  -15.84   32.43   0
  -3   1  -9   17.87   30.81   0
  -3   3  -9   -0.36   25.07   0
  -2   0 -10   -2.85   28.53   0
  -1   3 -11   -1.74   24.08   0
  -4   2  -5    7.90   23.92   0
  -3  -1  -7   52.53   36.82   0
  -3   2  -9   30.62   30.01   0
  -3   4  -5   71.05   31.78   0
  -2  -2  -8   10.07   39.82   0
  -1   4 -10    5.72   31.70   0
  -3   4  -6  128.03   38.83   0
  -2   3 -10   15.45   29.80   0
  -2   4  -9   41.91   36.96   0
  -1   0 -11   -2.52   22.17   0
  -2  -1  -9  -10.56   37.21   0
  -3  -1  -6    3.73   41.81   0
  -3   3  -8  214.56   37.39   0
  -2   1 -10   -7.47   23.75   0
  -2   2 -10    2.55   29.35   0
  -1   1 -11   -7.92   27.19   0
  -1   2 -11  -16.92   26.22   0
  -3   1  -8   38.55   33.22   0
   0   3 -11   14.34   30.04   0
  -3  -1  -5  268.36   53.37   0
  -3  -1  -4   53.76   39.31   0
  -3   2  -8  130.19   36.28   0
  -2   4  -8  121.04   39.99   0
   1   3 -11    0.86   42.50   0
  -3   3  -7    3.83   26.80   0
  -2  -2  -7    0.83   46.74   0
  -1   4  -9   91.68   39.25   0
   0  -1 -11    7.62   29.07   0
  -3   3  -6   13.48   24.99   0
  -3   3  -5  123.58   30.67   0
  -2   0  -9   16.51   29.69   0
  -2   3  -9  -11.73   21.27   0
  -2   4  -7   99.99   35.97   0
  -1  -2  -9    4.04   34.76   0
  -1   3 -10   34.30   27.84   0
  -3   0  -6    2.60   33.51   0
  -3   1  -7   13.50   34.49   0
  -3   2  -7   27.40   38.13   0
  -2   4  -6   61.57   29.11   0
  -2  -1  -8    2.30   39.28   0
   0   4  -9   20.33   34.88   0
  -3   0  -5  194.91   37.45   0
  -3   1  -6  348.41   46.76   0
  -3   2  -6  218.97   35.57   0
  -3   2  -5   57.83   31.94   0
  -2   1  -9   63.27   29.72   0
  -2   2  -9    5.99   26.09   0
  -1   4  -8    2.83   32.60   0
   0  -3  -9   40.08   42.31   0
   0  -2 -10    9.16   29.64   0
  -3   1  -5   -7.03   31.60   0
  -2  -2  -6   15.66   34.33   0
  -2   3  -8   36.95   34.19   0
  -1   0 -10  -12.51   24.28   0
  -1   2 -10   -4.39   28.97   0
   0   0 -11    6.89   24.26   0
  -1  -3  -7   23.78   40.48   0
  -1   1 -10   35.73   30.26   0
  -1   4  -7  357.79   52.75   0
   0   1 -11   27.10   23.73   0
   0   3 -10   13.21   29.80   0
   1  -3 -10   -4.15   27.85   0
  -2  -2  -5   24.63   36.23   0
  -2   0  -8   69.93   34.36   0
  -2  -1  -7   26.66   36.50   0
  -2   2  -8  163.40   43.16   0
  -1   3  -9   45.90   28.92   0
   1   2 -11   48.87   32.25   0
  -2   1  -8   59.46   35.21   0
  -1  -2  -8    4.57   36.53   0
   1   3 -10   11.46   38.33   0
   1  -1 -11    6.86   23.43   0
   2   2 -11  -13.42   29.37   0
   0  -1 -10   44.65   32.05   0
  -2  -1  -6    7.18   27.49   0
  -2   0  -7  207.70   36.92   0
  -2   2  -7    6.23   25.51   0
  -1   0  -9   26.00   30.63   0
  -1   2  -9   34.69   23.60   0
  -1   3  -8   28.02   34.55   0
   1   0 -11   41.68   27.64   0
   1   1 -11   59.97   27.29   0
   2  -2 -11    8.88   27.94   0
  -2   1  -7   10.82   32.63   0
  -1   1  -9  -11.44   30.60   0
   0   3  -9   -3.83   30.90   0
  -2  -1  -5   86.12   36.22   0
  -2   2  -6  672.96   51.27   0
   0  -3  -8   18.32   34.91   0
   0  -2  -9   61.05   33.83   0
   0   0 -10   -5.35   29.83   0
   0   1 -10    7.31   29.08   0
  -2   0  -6  160.57   40.52   0
  -1  -2  -7   23.46   34.23   0
  -2   1  -6  629.84   53.63   0
  -1   3  -7  165.82   34.75   0
   1  -4  -8    5.99   41.63   0
  -1   2  -8   63.78   25.77   0
   1   2 -10   21.64   33.75   0
   1   3  -9   31.07   32.89   0
   2  -1 -11    8.39   28.75   0
   3   1 -11    5.81   33.42   0
  -1   0  -8   33.50   36.23   0
   0   3  -8   74.35   34.79   0
   1  -3  -9   21.96   30.11   0
   2  -3 -10   13.85   28.43   0
   2   0 -11   21.58   27.38   0
  -1   1  -8   28.87   30.28   0
   0  -1  -9   22.17   30.05   0
   2  -4  -9   31.89   32.55   0
   3  -2 -11    6.06   25.78   0
  -1  -2  -6   10.26   37.01   0
   1  -1 -10   26.90   30.01   0
   2   2 -10   -5.72   30.34   0
   3   2 -10    0.34   37.92   0
  -1   2  -7   93.04   33.47   0
   0  -3  -7   29.39   33.96   0
   0   1  -9   12.78   29.28   0
   1   1 -10    2.18   23.39   0
   0  -2  -8    1.42   37.63   0
   0   0  -9   20.28   25.99   0
   0   3  -7  227.44   40.87   0
   1   0 -10   57.50   27.61   0
   1   3  -8   49.66   31.88   0
   3  -1 -11   15.34   26.88   0
   4   0 -11    1.10   25.52   0
   4  -2 -11   11.96   27.63   0
  -1  -2  -5    0.67   32.43   0
  -1   0  -7  186.16   30.22   0
  -1   1  -7   24.59   25.41   0
   1   2  -9   42.77   29.96   0
   2  -2 -10    0.05   27.66   0
   4  -4 -10    6.09   24.85   0
   1  -4  -7  405.01   62.22   0
   1  -2  -9   34.50   31.77   0
   4  -1 -11   20.50   23.93   0
   0  -1  -8  221.15   39.47   0
   3  -3 -10   32.92   28.18   0
   4  -5  -9   -7.02   28.33   0
  -1   1  -6  122.18   30.22   0
   1  -3  -8  -11.73   33.18   0
   1   3  -7    2.62   30.03   0
   2  -1 -10   34.57   30.38   0
  -1   0  -6   83.80   27.07   0
   0  -3  -6   13.04   30.01   0
   0   0  -8   45.72   34.76   0
   0   1  -8   13.47   23.15   0
   1   1  -9  158.22   33.93   0
   2   0 -10   31.97   25.44   0
   2   2  -9   97.07   37.50   0
   3   1 -10    3.53   27.46   0
   4   1 -10   10.62   30.24   0
   0  -2  -7  136.36   32.40   0
   0   2  -7   36.82   26.96   0
   1  -1  -9    4.48   24.54   0
   2  -4  -8   -0.39   30.07   0
   3  -5  -8   24.59   39.59   0
   3  -4  -9   -5.92   31.95   0
   3   2  -9    2.69   34.84   0
   5  -4 -10   26.75   27.14   0
   1   0  -9   96.76   27.45   0
   1   2  -8   55.74   22.62   0
   3  -2 -10   10.55   27.59   0
   3   0 -10    2.90   27.98   0
   4  -3 -10    2.79   21.64   0
   0  -3  -5   57.73   38.35   0
   0  -1  -7   17.22   24.65   0
   0   1  -7    0.20   23.54   0
   1  -4  -6   22.07   32.76   0
   1  -2  -8  112.96   37.58   0
   3  -1 -10   -2.14   24.10   0
   5  -5  -9   -0.34   23.48   0
   5   0 -10   17.53   28.60   0
   0   0  -7   63.59   29.57   0
   2  -2  -9  -12.11   21.73   0
   4   0 -10    0.31   24.95   0
   6  -1 -10   10.16   26.82   0
   0  -2  -6  272.99   40.68   0
   1  -3  -7   45.85   27.64   0
   1   1  -8    8.55   29.14   0
   2   2  -8   61.41   30.91   0
   4  -2 -10   13.73   26.75   0
   5  -3 -10   13.59   26.10   0
   6  -3 -10    2.24   20.63   0
   1  -1  -8  100.28   35.29   0
   1   2  -7    0.37   24.55   0
   2  -1  -9   -4.49   29.42   0
   2   0  -9  133.97   33.84   0
   4  -1 -10   12.59   26.58   0
   1   0  -8   27.55   23.85   0
   3  -3  -9  -12.65   24.13   0
   3   1  -9   42.00   34.33   0
   3   2  -8   59.39   34.30   0
   2  -4  -7   86.97   36.32   0
   4  -5  -8   14.40   29.90   0
   4   1  -9    6.56   29.60   0
   5  -2 -10    2.21   20.17   0
   0  -1  -6   91.05   28.51   0
   3  -5  -7   20.36   35.55   0
   6   0  -9    4.73   26.78   0
   3  -4  -8   62.23   31.11   0
   2   1  -8    2.59   24.96   0
   3  -2  -9    6.07   24.28   0
   3   0  -9   17.04   25.96   0
   1  -3  -6  298.29   44.27   0
   2  -2  -8   31.06   30.22   0
   2   2  -7  262.18   39.02   0
   3  -1  -9   45.69   29.85   0
   5  -4  -9   -0.72   20.14   0
   1  -1  -7   25.47   24.28   0
   4  -3  -9   11.10   24.68   0
   5   0  -9   -3.91   30.51   0
   7  -4  -9    0.30   19.74   0
   1   0  -7   22.42   19.11   0
   2  -1  -8   42.48   31.94   0
   2   0  -8   36.65   26.39   0
   4   0  -9    6.95   25.70   0
   6  -4  -9    3.22   22.36   0
   3   1  -8  -27.77   28.10   0
   5  -6  -7   36.19   30.11   0
   5  -5  -8   36.20   28.54   0
   7  -2  -9   12.25   20.30   0
   3  -3  -8   -1.86   25.02   0
   4  -2  -9   90.08   28.91   0
   4  -1  -9   -2.09   21.67   0
   5  -3  -9   46.41   28.77   0
   6  -1  -9    3.12   24.41   0
   7  -3  -9    1.28   19.68   0
   2  -4  -6    7.70   28.83   0
   4  -6  -6    8.77   31.18   0
   4   1  -8   26.51   30.93   0
   5  -2  -9   65.87   31.10   0
   6  -3  -9    4.44   21.68   0
   6  -2  -9   19.40   24.87   0
   2   1  -7  431.81   37.81   0
   3  -5  -6   48.66   33.08   0
   3  -4  -7   -4.09   28.44   0
   4  -5  -7   26.34   30.00   0
   6  -5  -8    4.85   27.00   0
   2  -2  -7   11.84   25.10   0
   3  -2  -8   49.59   25.53   0
   6   0  -8    2.77   28.35   0
   7  -5  -8  -14.53   21.64   0
   1  -1  -6  224.06   29.51   0
   3  -1  -8   23.12   22.67   0
   6  -6  -7    2.59   26.34   0
   7  -7  -6   -2.76   28.14   0
   7  -1  -8   71.58   33.80   0
   8  -4  -8   -2.20   19.55   0
   2  -1  -7  257.52   35.57   0
   2   0  -7  189.85   27.67   0
   4  -3  -8   20.28   28.82   0
   5  -4  -8   53.67   29.21   0
   3   1  -7  149.49   34.88   0
   4   0  -8    7.64   23.32   0
   5   0  -8    4.81   27.66   0
   7  -6  -7    9.04   22.36   0
   2  -3  -6   55.23   28.89   0
   3  -3  -7   -2.57   24.35   0
   4  -2  -8   20.29   24.98   0
   4  -1  -8   20.14   27.02   0
   4   1  -7   33.72   26.90   0
   6  -4  -8   51.00   29.60   0
   7  -4  -8    4.16   24.93   0
   5  -6  -6   20.64   28.85   0
   5  -5  -7   17.37   24.43   0
   5  -3  -8   14.45   28.15   0
   6  -1  -8    9.71   25.61   0
   7  -2  -8   -2.09   21.34   0
   4  -6  -5   31.58   32.46   0
   7  -3  -8    1.47   20.61   0
   3  -5  -5   45.08   34.68   0
   3  -4  -6    7.10   26.14   0
   3  -2  -7    7.30   25.00   0
   5  -2  -8  -18.50   22.36   0
   6  -3  -8   -4.07   25.04   0
   2  -2  -6  460.50   38.98   0
   3  -1  -7  144.76   28.72   0
   4  -5  -6   59.03   26.78   0
   6  -7  -5   13.52   32.42   0
   6  -2  -8    8.96   20.83   0
   8  -5  -7    2.48   19.79   0
   8  -2  -7    1.53   25.07   0
   6  -5  -7   -0.53   20.78   0
   6   0  -7    7.22   29.68   0
   2  -1  -6   59.35   21.73   0
   3   1  -6    5.32   23.51   0
   4   0  -7   -2.72   24.97   0
   6  -6  -6    3.13   25.67   0
   7  -5  -7   -2.92   22.96   0
   7  -1  -7   -1.63   28.59   0
   4  -3  -7   29.99   24.89   0
   5  -4  -7   26.18   30.75   0
   5   0  -7   11.31   29.19   0
   8  -4  -7    1.47   20.39   0
   7  -7  -5    5.58   25.45   0
   8  -7  -5    7.32   23.78   0
   8  -6  -6    8.22   20.34   0
   9  -5  -6   -0.10   18.05   0
   9  -3  -6    9.13   19.21   0
   3  -3  -6   -0.69   23.05   0
  -7   4  -3   45.32   39.74   0
  -7   8  -4   37.23   27.48   0
  -6   8  -2   57.80   31.35   0
  -6   9  -6   -0.57   21.14   0
  -7   5  -2   78.63   39.50   0
  -7   8  -5   12.94   19.41   0
  -6   5   0   25.66   24.34   0
  -6   7  -1   25.72   30.24   0
  -6   9  -5    5.77   19.74   0
  -7   6  -2  100.05   31.39   0
  -6   3  -1  188.89   46.22   0
  -5   9  -4   17.65   27.20   0
  -4   9  -4   89.44   41.93   0
  -7   6  -6   -7.10   29.14   0
  -7   7  -3   16.99   24.18   0
  -5   6   0   71.41   31.82   0
  -5   8  -2   13.19   28.98   0
  -7   5  -5   -3.18   33.39   0
  -7   5  -3    8.47   34.04   0
  -7   7  -4   28.89   33.16   0
  -4   8  -2   67.70   37.13   0
  -3   6   0   -0.03   31.45   0
  -7   5  -4   -0.09   32.37   0
  -7   7  -5   17.14   26.26   0
  -6   6  -1    6.90   26.37   0
  -6   8  -3    0.15   23.18   0
  -5   7  -1   53.33   30.33   0
  -5   9  -5   26.64   28.65   0
  -4   6   0   20.89   26.69   0
  -3   7  -1   13.51   34.29   0
  -7   6  -5    9.35   30.61   0
  -6   3  -2   34.39   44.33   0
  -6   4  -1   11.27   29.12   0
  -6   7  -2   53.63   32.94   0
  -4   7  -1   75.58   34.46   0
  -4   9  -5   15.06   34.24   0
  -6   5  -1   -7.90   28.99   0
  -6   8  -7    9.76   24.69   0
  -5   5   0   35.21   26.26   0
  -6   8  -4    7.80   22.95   0
  -4   9  -6   91.61   37.83   0
  -6   8  -6   -3.71   26.26   0
  -6   8  -5   -2.70   27.38   0
  -3   8  -3   19.66   35.72   0
  -6   3  -3  166.68   50.03   0
  -6   6  -2   34.23   36.50   0
  -6   7  -3   16.48   32.46   0
  -6   4  -2   27.24   31.18   0
  -5   6  -1   97.84   30.33   0
  -5   7  -2    4.95   27.73   0
  -4   8  -3    7.24   27.90   0
  -6   5  -2   41.73   28.96   0
  -6   7  -7   19.53   28.96   0
  -5   8  -8   23.81   25.37   0
  -6   7  -4  -25.79   31.13   0
  -5   8  -4   40.75   24.28   0
  -6   4  -6   30.15   47.06   0
  -6   4  -3   22.12   34.40   0
  -6   5  -7    7.51   36.90   0
  -6   6  -3    4.34   33.03   0
  -5   5  -1  148.48   39.55   0
  -4   7  -2   30.69   31.84   0
  -3   7  -2  172.33   43.87   0
  -6   6  -7   42.28   32.11   0
  -6   7  -6   12.77   24.37   0
  -6   7  -5    5.48   26.31   0
  -5   4  -1   16.29   29.19   0
  -5   8  -7    1.00   24.19   0
  -5   8  -5   -6.53   28.78   0
  -3   6  -1  479.25   51.06   0
  -6   4  -5   43.24   40.49   0
  -6   4  -4   11.61   37.28   0
  -5   6  -9   20.52   28.79   0
  -5   7  -3   76.67   34.36   0
  -5   8  -6    0.05   27.32   0
  -4   8  -4  268.52   44.69   0
  -3   8  -4  383.06   57.58   0
  -6   6  -4   21.31   27.75   0
  -5   6  -2   -0.14   24.16   0
  -6   5  -6   78.79   32.79   0
  -6   5  -4  330.00   49.05   0
  -6   6  -5  221.32   36.69   0
  -6   5  -5  -11.22   32.76   0
  -5   7  -8   -1.26   24.84   0
  -4   8  -8   55.71   23.92   0
  -5   5  -2  104.11   32.25   0
  -5   7  -4   40.72   30.51   0
  -3   8  -5   26.68   34.99   0
  -4   8  -7   30.45   24.87   0
  -2   7  -3  191.23   47.17   0
  -5   4  -8   39.38   46.50   0
  -5   6  -3  189.50   38.55   0
  -5   7  -7   49.70   29.79   0
  -5   7  -5  127.29   37.05   0
  -4   6  -2  180.73   35.51   0
  -3   7  -3  186.36   40.79   0
  -3   8  -8    3.85   23.52   0
  -2   8  -8   -2.01   34.31   0
  -2   8  -6   14.90   34.38   0
  -5   7  -6   -3.29   28.24   0
  -4   7  -9   25.53   24.29   0
  -3   8  -6  171.88   39.74   0
  -2   8  -7   -9.12   34.80   0
  -5   3  -3   67.11   36.51   0
  -5   5  -8   33.58   30.85   0
  -3   8  -7   34.61   27.45   0
  -5   5  -3  338.25   43.79   0
  -5   6  -4   29.73   34.00   0
  -4   7  -4    4.18   26.16   0
  -3   6  -2  129.84   31.04   0
  -5   4  -3    0.81   28.89   0
  -5   6  -7   62.18   31.15   0
  -5   3  -6   15.22   37.46   0
  -5   3  -4  245.16   51.88   0
  -5   6  -5   98.49   34.38   0
  -4   5  -2  302.66   39.92   0
  -4   7  -8   -0.89   25.57   0
  -5   3  -5    2.88   34.13   0
  -5   4  -7    9.02   31.78   0
  -5   5  -7  -17.76   30.85   0
  -5   5  -4  636.68   56.95   0
  -5   6  -6  128.26   30.82   0
  -4   6  -3  246.43   34.60   0
  -4   7  -5   78.87   26.90   0
  -3   7  -4  209.21   36.51   0
  -2   7  -4   44.67   33.68   0
  -5   4  -4    3.84   33.37   0
  -4   6  -9   -6.83   18.27   0
  -4   7  -7   92.83   30.75   0
  -4   7  -6   62.32   30.41   0
  -5   4  -6  214.00   44.46   0
  -5   5  -5   27.30   34.50   0
  -3   7  -9   17.65   19.03   0
  -5   4  -5    3.34   23.83   0
  -3   6 -10   13.85   21.58   0
  -4   4  -9   10.48   31.98   0
  -4   6  -4   12.43   22.58   0
  -3   6  -3  218.04   31.46   0
  -4   5  -3  150.17   31.73   0
  -4   6  -8  -13.52   26.02   0
  -3   7  -8   11.50   23.05   0
  -2   7  -5  148.21   41.18   0
  -3   7  -7  101.26   30.53   0
  -2   6  -3  267.03   38.05   0
  -1   7  -9    1.59   28.50   0
  -4   3  -8   23.95   38.86   0
  -4   6  -7   96.30   33.56   0
  -4   6  -5   45.05   26.49   0
  -3   3 -10   11.84   30.83   0
  -3   5 -10    4.76   22.54   0
  -2   5 -11   10.38   22.25   0
  -1   7  -6   30.11   35.39   0
  -4   5  -8   -4.21   26.23   0
  -4   6  -6   -2.71   23.64   0
  -2   7  -6   33.73   32.17   0
  -4   5  -4  131.82   31.46   0
  -3   4 -10   -3.54   22.11   0
  -3   6  -9    3.57   23.17   0
  -3   6  -4  107.09   30.99   0
  -2   7  -7    5.54   28.58   0
  -1   7  -8   49.73   35.24   0
  -1   7  -7    0.99   28.77   0
  -4   4  -8    5.39   25.47   0
  -2   4 -11   13.74   24.61   0
  -2   6 -10   12.23   17.81   0
  -4   5  -7   19.04   26.67   0
  -4   5  -5   56.83   27.17   0
  -4   2  -5    7.56   29.41   0
  -4   3  -7    4.27   31.31   0
  -4   4  -4  652.02   52.63   0
  -4   5  -6  354.17   42.87   0
  -3   6  -8   13.78   25.80   0
  -3   6  -5  144.41   33.05   0
  -2   6  -4   10.59   28.31   0
  -1   6  -4   39.34   29.64   0
  -4   3  -4  268.17   42.71   0
  -4   4  -7   49.14   33.75   0
  -1   6 -10   22.55   23.70   0
  -4   3  -6   96.43   36.06   0
  -3   5  -9   14.22   22.66   0
  -3   6  -7   22.35   21.76   0
  -3   6  -6   27.69   22.61   0
  -1   5 -11    4.98   20.24   0
   0   6 -10   17.38   22.94   0
  -4   3  -5   76.17   26.17   0
  -2   6  -9   10.06   18.65   0
   1   6  -9   -4.01   36.15   0
  -3   3  -9   16.60   27.64   0
  -3   5  -4   45.00   24.37   0
  -2   5 -10   16.51   19.51   0
  -2   6  -5   96.96   31.10   0
  -2   6  -8   46.51   26.75   0
   0   5 -11   13.49   19.01   0
   1   6  -8   10.57   42.67   0
  -3   5  -8   13.53   21.67   0
  -1   6  -9   29.58   23.91   0
  -1   6  -5   20.33   26.95   0
  -3   5  -5   38.19   25.46   0
  -2   2 -10   -1.97   29.29   0
  -2   6  -7   -4.85   17.70   0
  -1   4 -11   15.30   18.43   0
   0   6  -9    7.44   24.07   0
  -3   2  -8  104.30   38.41   0
  -3   5  -7   -1.38   21.00   0
  -3   5  -6    5.28   27.88   0
  -2   4 -10    1.34   16.73   0
  -1   6  -6  150.50   31.99   0
   0   6  -6   61.79   34.76   0
  -3   4  -8    0.52   22.35   0
  -2   3 -10   23.68   28.33   0
  -2   5  -9  119.59   29.83   0
  -1   2 -11   -5.28   24.85   0
  -1   5 -10    5.41   20.56   0
  -1   6  -7   24.43   25.63   0
   0   6  -8   26.49   28.30   0
   0   6  -7   -2.17   28.67   0
   2   5 -10    4.32   27.65   0
  -3   3  -8  182.93   34.21   0
  -3   4  -7   20.62   26.08   0
  -3   2  -7   27.07   28.54   0
  -3   4  -5   77.30   25.88   0
  -2   5  -8  256.27   34.84   0
  -3   3  -7   15.45   26.17   0
  -3   4  -6  197.65   28.94   0
  -2   4  -9   77.55   27.90   0
  -2   5  -5    8.85   23.17   0
   0   4 -11   -7.75   16.82   0
   0   5 -10   11.63   18.15   0
   1   5 -10    9.39   23.79   0
  -2   5  -7    6.69   24.24   0
  -1   5  -9   41.93   24.88   0
   2   5  -9   15.41   40.13   0
  -3   2  -6  113.04   36.37   0
  -3   3  -6   -5.60   24.17   0
  -2   2  -9   11.93   26.87   0
  -2   5  -6   39.19   19.86   0
  -1   4 -10   12.16   20.51   0
   1   4 -11   -4.38   16.64   0
  -1   1 -10    4.43   28.64   0
  -1   5  -8   77.51   27.15   0
  -1   5  -5   50.98   23.66   0
   0   3 -11    0.61   21.30   0
   0   5  -9   14.04   19.03   0
   2   5  -8   -1.09   31.59   0
  -2   4  -8  153.91   29.49   0
  -1   3 -10    1.72   20.53   0
   0   1 -11    6.02   25.21   0
   1   5  -9   -2.02   23.57   0
   3   4 -10   25.89   32.29   0
  -2   1  -8   49.39   32.97   0
  -1   2 -10    2.15   24.09   0
  -1   5  -7  133.68   30.33   0
   0   5  -5  128.86   31.97   0
  -2   4  -7   94.79   27.73   0
  -1   4  -9  128.03   28.63   0
   0   4 -10   74.54   26.41   0
   1   5  -8   43.04   30.82   0
  -2   2  -8  194.03   36.83   0
  -2   4  -6   56.14   24.37   0
  -2   4  -5   24.12   16.87   0
   0   5  -6   63.39   27.71   0
  -1   0  -9   -2.87   30.04   0
   0   5  -7   26.67   23.71   0
   1   3 -11   15.41   22.12   0
   1   5  -7    9.46   25.48   0
   2   4 -10    2.72   22.67   0
   1   4 -10   -7.11   17.60   0
  -2   3  -7   69.60   28.27   0
  -1   4  -8   10.44   22.62   0
   2   3 -11    3.50   15.75   0
   3   4  -9   13.19   33.00   0
  -2   1  -7   14.66   29.28   0
  -1   3  -9   35.57   21.72   0
   0   3 -10   16.59   23.42   0
   0   4  -9   22.00   23.37   0
   1   0 -11   17.79   24.75   0
   4   3 -10    1.87   28.82   0
  -2   2  -7    3.10   18.89   0
  -2   3  -6  213.80   29.74   0
  -1   1  -9   -2.40   26.53   0
   0   0 -10    2.10   26.29   0
   1   2 -11   21.02   20.51   0
  -1   4  -7  403.94   34.29   0
   3   4  -8   -2.37   33.71   0
   4   2 -11    2.72   20.17   0
  -1   4  -6  122.73   22.89   0
   0   1 -10  -12.00   25.12   0
   0   2 -10   50.81   25.88   0
   1   4  -9   -6.58   16.05   0
   2   4  -9    3.60   23.37   0
  -2   1  -6  667.78   51.89   0
  -2   2  -6  701.22   44.12   0
  -1   3  -8   41.13   26.69   0
   0   4  -8    7.17   19.27   0
   1   3 -10    2.46   21.30   0
   2  -1 -11    6.51   27.72   0
   2   2 -11  -10.57   22.56   0
   3   2 -11    3.47   19.93   0
   3   3 -10   29.24   25.84   0
  -1   0  -8   15.54   28.79   0
   0   3  -9    3.73   19.57   0
   0   4  -7  190.06   34.30   0
   2   3 -10   26.53   26.21   0
   2   4  -8    3.26   27.50   0
   4   3  -9   16.10   35.38   0
  -1   1  -8   20.12   28.02   0
  -1   3  -7  195.18   28.35   0
   1  -1 -10    7.76   28.62   0
   2   1 -11   23.32   20.84   0
   2   4  -7    6.77   29.48   0
   2   4  -6   30.47   34.51   0
   1   2 -10   19.43   26.35   0
   1   4  -7   10.44   20.98   0
   1   4  -6    9.23   24.58   0
  -1   3  -6   11.88   19.97   0
   0   2  -9   -5.21   19.87   0
   1   3  -9   18.93   25.34   0
   3   1 -11  -11.19   24.82   0
   4   1 -11   13.94   18.09   0
   0   0  -9   15.46   27.85   0
   0   3  -8   72.00   26.82   0
   1   0 -10   22.92   30.46   0
   1   1 -10   -3.56   22.32   0
   3   3  -9    9.95   32.85   0
  -1   0  -7  166.10   40.72   0
  -1   2  -7  102.35   27.07   0
   2   3  -9    5.78   21.79   0
   4   2 -10   -1.14   23.34   0
   5   0 -11   -6.97   20.14   0
   5   2  -9   11.11   32.54   0
  -1   1  -7   29.27   34.02   0
   2  -2 -10    3.13   31.23   0
   2   2 -10   12.68   20.48   0
   3   0 -11   -2.61   19.23   0
   0   3  -7  290.47   39.01   0
   3   2 -10    8.52   22.89   0
   4   0 -11   -1.24   22.97   0
   1   3  -8   43.04   25.02   0
  -4   2  -7   -5.03   27.38   0
  -4   2  -4   13.05   28.74   0
  -4   3  -6  144.16   32.47   0
  -3   3  -9   13.22   28.66   0
  -1   3 -11    1.19   23.88   0
  -4   1  -6   11.28   29.01   0
  -4   1  -5   -6.48   31.20   0
  -4   2  -6    1.55   31.31   0
  -3   1  -9   -3.62   31.01   0
  -3   4  -5   74.94   30.52   0
  -1   4 -10   -7.74   30.44   0
  -4   2  -5   12.06   23.24   0
  -3  -1  -7   32.80   37.31   0
  -3   2  -9   15.77   29.31   0
  -3   4  -7   33.96   30.73   0
  -2   0 -10    5.45   22.98   0
  -2   4  -9   66.77   32.93   0
  -3   4  -6  168.41   34.69   0
  -2  -2  -8    7.92   32.96   0
  -1   0 -11   -4.54   22.62   0
  -2  -1  -9   13.07   31.23   0
  -3   3  -8  197.37   35.19   0
  -2   1 -10   -5.10   27.23   0
  -2   2 -10    9.45   28.09   0
  -1   1 -11   -9.28   25.40   0
  -1   2 -11  -12.79   22.43   0
   0   3 -11   11.35   27.86   0
  -3  -1  -6   41.50   40.52   0
  -3   1  -8    6.20   31.95   0
  -2   4  -8  137.46   37.67   0
  -3  -1  -4   52.07   39.43   0
  -3   2  -8  139.27   35.47   0
  -3   3  -7  -12.28   29.57   0
  -1  -3  -8   -7.36   35.12   0
  -1   4  -9   98.74   37.96   0
  -3  -1  -5  326.94   44.95   0
  -2   3  -9    9.55   27.92   0
   0  -1 -11    3.36   26.10   0
  -3   3  -6   19.24   24.36   0
  -2  -2  -7    4.37   38.16   0
  -2   4  -7  109.63   31.92   0
  -2   4  -6   52.36   31.33   0
  -1   3 -10    5.93   27.52   0
  -3   1  -7   38.39   32.61   0
  -3   2  -7   18.18   34.23   0
  -2   0  -9    6.27   28.37   0
  -1  -2  -9   18.98   34.18   0
  -2  -1  -8   10.65   34.37   0
  -2   2  -9   -7.37   29.87   0
  -1   4  -8    7.24   31.06   0
  -3   0  -5  132.19   36.23   0
  -3   2  -6  193.43   35.45   0
  -3   2  -5   75.77   31.00   0
  -2   1  -9   60.59   28.95   0
  -3   1  -6  316.92   39.46   0
  -1   0 -10    4.28   29.20   0
  -1   2 -10    7.06   27.23   0
   0  -3  -9   70.45   39.98   0
   0  -2 -10   20.76   29.35   0
   0   0 -11   -5.02   24.82   0
   0   1 -11   20.35   27.66   0
  -3   1  -5   -1.43   25.13   0
  -2  -2  -6   10.42   37.60   0
  -1   1 -10   11.75   29.89   0
  -1   4  -7  328.93   50.59   0
   0   3 -10   27.96   31.25   0
  -1  -3  -7   20.60   41.06   0
  -1   3  -9   40.41   32.95   0
   1  -3 -10    6.13   28.24   0
   1   2 -11   25.40   33.29   0
  -2  -2  -5    1.01   36.51   0
  -2  -1  -7   24.52   37.28   0
  -2   0  -8   84.46   30.52   0
  -2   2  -8  172.50   41.82   0
   1   3 -10  -11.69   36.81   0
  -2   1  -8   59.42   34.59   0
   2   2 -11    5.47   33.21   0
  -1  -2  -8    3.13   34.60   0
   1  -1 -11   11.09   24.87   0
  -1   2  -9   28.95   29.13   0
   0  -1 -10   75.63   32.90   0
   1   1 -11   41.17   30.75   0
  -2  -1  -6    2.95   32.82   0
  -2   0  -7  106.89   41.22   0
  -2   2  -7    9.61   21.12   0
  -1  -3  -6   42.98   40.38   0
  -1   0  -9    7.31   30.69   0
  -1   3  -8   54.92   28.28   0
   0   3  -9   -2.35   28.63   0
   1   0 -11    5.49   26.94   0
  -2   1  -7   28.69   32.67   0
  -1   1  -9   -4.27   31.63   0
   2  -2 -11  -17.41   27.07   0
  -2   2  -6  679.12   51.19   0
   0   0 -10   27.38   28.54   0
   0   1 -10   -8.34   28.07   0
  -2  -1  -5  142.03   34.97   0
  -1   3  -7  142.88   41.16   0
   0  -3  -8   34.92   36.04   0
   2   1 -11   27.72   31.79   0
  -2   0  -6  204.84   37.03   0
  -2   1  -6  654.41   52.96   0
  -1  -2  -7    0.25   33.20   0
   1  -2 -10   -8.23   29.93   0
   1   2 -10   21.71   32.47   0
   1   3  -9   16.37   32.86   0
  -1   2  -8   65.13   30.60   0
   0   3  -8   96.77   34.98   0
   1  -4  -8   12.26   42.26   0
   2  -1 -11    1.75   28.72   0
   3   1 -11    6.95   28.60   0
   2   0 -11   24.54   22.82   0
  -1   0  -8   50.14   30.04   0
  -1   1  -8   13.64   29.21   0
   1  -3  -9   30.43   29.51   0
   2   2 -10   -0.82   31.44   0
   3  -2 -11   14.36   25.43   0
   0  -1  -9   24.86   26.53   0
   1  -1 -10    8.91   29.00   0
   2  -4  -9   24.91   32.51   0
  -1  -2  -6   13.71   36.55   0
  -1   2  -7   82.63   26.71   0
   0   1  -9    4.05   28.76   0
   0   3  -7  299.94   43.39   0
   1   1 -10    3.55   20.64   0
   1   3  -8   32.61   34.57   0
   4   0 -11    9.36   30.81   0
   0  -3  -7    4.27   36.78   0
   0   0  -9    4.55   26.89   0
   1   0 -10   46.15   27.56   0
   3  -1 -11   30.20   26.71   0
   4  -2 -11   22.05   27.04   0
  -1   0  -7  177.36   32.73   0
  -1   1  -7   11.43   25.62   0
   1   2  -9   41.87   31.39   0
   2  -2 -10    8.68   28.70   0
   4  -1 -11   16.24   29.34   0
  -1  -2  -5   12.82   33.06   0
   1  -2  -9   38.67   29.54   0
   2   1 -10   -0.31   29.59   0
   1  -4  -7  371.27   58.23   0
   3  -3 -10   19.78   30.20   0
   4  -5  -9    8.29   32.86   0
  -1   1  -6  102.14   29.05   0
   0  -1  -8  239.58   37.63   0
   1  -3  -8    1.78   35.34   0
   2  -1 -10   40.61   30.18   0
   2   2  -9   85.22   36.74   0
   4   1 -10    2.05   34.96   0
  -1   0  -6  104.88   27.92   0
   0  -3  -6    2.59   33.88   0
   0   0  -8   37.62   35.38   0
   0   1  -8    7.51   22.82   0
   1   1  -9  155.71   35.59   0
   2   0 -10   -0.34   25.71   0
   3   1 -10  -12.31   27.49   0
   3   2  -9  -12.23   40.06   0
   0  -2  -7  102.16   37.35   0
   0   2  -7   47.29   25.92   0
   1  -1  -9   14.94   25.58   0
   3  -5  -8   23.99   39.45   0
   5  -4 -10    0.46   25.15   0
   1   0  -9   79.89   29.95   0
   1   2  -8   72.33   31.12   0
   2  -4  -8    3.46   31.37   0
   3  -4  -9   12.12   29.54   0
   3  -2 -10   12.53   28.16   0
   4  -3 -10   15.69   27.83   0
   5   0 -10   -9.49   29.36   0
   0  -1  -7   32.42   30.00   0
   0   1  -7   -1.35   24.82   0
   1  -2  -8  116.12   35.74   0
   2   1  -9  173.51   38.27   0
   3  -1 -10   10.60   24.93   0
   4   0 -10   14.29   28.52   0
   5  -5  -9    0.52   22.04   0
   6  -1 -10    1.79   25.69   0
   0  -3  -5   85.00   38.05   0
   0   0  -7   57.30   30.86   0
   1  -4  -6    0.92   33.57   0
   2  -2  -9   -8.84   25.60   0
   2   2  -8   68.88   32.87   0
   0  -2  -6  240.57   38.37   0
   1  -3  -7   37.39   32.54   0
   1   1  -8   18.72   28.66   0
   4  -2 -10   -7.49   28.45   0
   5  -3 -10    8.92   26.86   0
   6  -3 -10    0.22   23.16   0
   1  -1  -8  106.95   35.48   0
   1   2  -7   10.53   25.24   0
   2  -5  -6   -0.78   35.78   0
   2  -1  -9   12.69   29.55   0
   2   0  -9  109.66   34.66   0
   3   2  -8   35.79   36.44   0
   4  -1 -10    1.12   25.70   0
   1   0  -8   23.48   24.35   0
   3  -3  -9   15.44   24.27   0
   3   1  -9   66.53   32.71   0
   4  -6  -7   60.03   40.51   0
   4   1  -9    6.10   35.01   0
   0  -1  -6  121.20   28.89   0
   2  -4  -7   43.96   35.07   0
   4  -5  -8    5.62   28.03   0
   1  -4  -5  239.33   43.51   0
   3  -5  -7   13.25   29.96   0
   3  -4  -8   48.73   35.42   0
   1  -2  -7  139.91   32.63   0
   2   1  -8    5.41   26.44   0
   2   2  -7  297.97   40.73   0
   3  -2  -9    7.81   26.35   0
   1  -3  -6  340.96   45.40   0
   2  -2  -8   46.25   33.44   0
   3  -1  -9   46.61   26.35   0
   5  -4  -9    7.21   28.35   0
   4  -3  -9   39.17   25.21   0
   4   0  -9    8.69   31.56   0
   5   0  -9   11.05   30.22   0
   7  -4  -9  -11.22   21.65   0
   1  -1  -7   22.20   21.62   0
   1   0  -7   10.13   18.30   0
   2  -1  -8   18.66   31.42   0
   2   0  -8   32.18   27.12   0
   6  -4  -9    5.78   22.97   0
   7  -2  -9    4.83   22.05   0
   3   1  -8   -3.09   28.20   0
   4  -2  -9  107.83   35.57   0
   6  -1  -9   -0.54   28.98   0
   7  -3  -9    7.04   22.00   0
   3  -3  -8    0.12   27.24   0
   4  -1  -9    1.31   23.16   0
   4   1  -8   10.41   31.02   0
   5  -6  -7   26.68   32.71   0
   5  -3  -9   47.63   30.61   0
   2  -4  -6   -2.55   30.00   0
   4  -6  -6   -4.03   37.52   0
   4  -4  -8   53.27   29.16   0
   5  -2  -9   63.97   32.15   0
   6  -7  -6   -5.30   33.07   0
   6  -3  -9   18.25   21.09   0
   6  -2  -9   10.39   29.19   0
   1  -3  -5  250.73   38.49   0
   3  -5  -6   53.26   36.45   0
   3  -4  -7    2.31   30.17   0
   4  -5  -7   32.18   31.10   0
   6  -5  -8    0.38   25.07   0
   6   0  -8   12.50   29.79   0
   3  -2  -8   46.05   26.46   0
   7  -5  -8    1.53   18.85   0
   7  -1  -8   87.21   39.84   0
   1  -1  -6  253.07   31.75   0
   2  -2  -7   24.15   21.43   0
   3  -1  -8   47.47   25.18   0
   6  -6  -7   -1.59   26.78   0
   8  -4  -8    5.58   20.07   0
   8  -3  -8    7.72   20.59   0
   2  -1  -7  282.86   37.69   0
   2   0  -7  171.30   31.76   0
   4  -3  -8    9.59   30.08   0
   4   0  -8   -2.18   27.68   0
   5  -4  -8   37.61   29.75   0
   7  -7  -6   -0.61   27.85   0
   3   1  -7  185.06   36.47   0
   5   0  -8   -6.37   22.49   0
   2  -4  -5  329.74   42.19   0
   3  -3  -7   -4.94   24.66   0
   4  -2  -8    8.00   24.79   0
   4  -1  -8   16.47   21.73   0
   4   1  -7   22.28   31.21   0
   6  -4  -8   54.84   31.61   0
   7  -4  -8   16.52   22.94   0
   5  -6  -6   30.21   30.65   0
   5  -3  -8   17.66   27.61   0
   6  -1  -8   -1.52   26.11   0
   7  -2  -8   11.14   20.24   0
   4  -6  -5   34.90   34.24   0
   4  -4  -7   -1.71   27.78   0
   7  -3  -8    2.42   17.36   0
   3  -5  -5   37.84   30.11   0
   3  -4  -6    9.08   27.61   0
   3  -2  -7    9.21   25.20   0
   5  -2  -8   15.33   22.81   0
   6  -3  -8   -6.73   25.94   0
   6  -2  -8    5.26   26.01   0
   2  -2  -6  422.47   38.11   0
   3  -1  -7  101.83   29.38   0
   4  -5  -6   49.91   32.08   0
   6   0  -7    3.75   32.10   0
   8  -5  -7    7.09   20.57   0
   8  -2  -7    8.16   22.97   0
   6  -7  -5   16.98   30.34   0
   6  -5  -7   -6.90   19.76   0
   2  -1  -6   75.59   22.21   0
   4   0  -7    3.68   23.46   0
   7  -5  -7    9.07   22.98   0
   7  -1  -7    6.93   23.99   0
   4  -3  -7   25.70   25.68   0
   5  -4  -7   36.93   30.44   0
   5   0  -7    1.48   29.72   0
   6  -6  -6   10.88   23.43   0
   8  -4  -7    5.35   19.00   0
   4   1  -6   26.42   24.86   0
   7  -7  -5    6.72   27.26   0
   8  -6  -6    2.51   20.40   0
   9  -5  -6   -3.06   17.90   0
   3  -3  -6   -3.46   27.66   0
   4  -2  -7    2.38   22.23   0
   4  -1  -7    5.53   23.28   0
   8  -7  -5   12.45   22.62   0
   6  -4  -7   45.16   30.61   0
   6  -1  -7  -10.39   26.79   0
   7  -4  -7    5.98   23.07   0
   3   0  -6    1.46   22.60   0
   4  -4  -6  157.55   34.01   0
   5  -6  -5   56.80   29.49   0
   5  -3  -7  138.33   30.89   0
   7  -2  -7   13.95   23.63   0
   3  -5  -4    6.85   27.01   0
   3  -4  -5  152.34   34.48   0
   3  -2  -6   50.89   25.15   0
   5  -2  -7   77.41   32.97   0
   7  -3  -7   32.44   20.34   0
   3  -1  -6   73.33   27.33   0
   4  -5  -5   77.74   28.85   0
   6  -3  -7  137.43   30.48   0
   6  -2  -7   44.20   23.51   0
   6   0  -6   16.87   33.67   0
   9  -6  -5   -1.42   17.92   0
   6  -7  -4   15.83   30.73   0
   8  -5  -6   -3.26   21.30   0
   8  -2  -6   36.46   28.34   0
   4   0  -6   10.50   24.69   0
   6  -5  -6   78.03   25.98   0
   4  -3  -6   42.11   23.00   0
   5   0  -6   67.72   32.74   0
   6  -6  -5  -16.23   26.69   0
   7  -5  -6   47.31   23.45   0
   7  -1  -6   11.20   26.90   0
   5  -4  -6  143.96   30.29   0
   6   3  -3   11.10   48.06   0
   6   2  -3   23.57   48.31   0
   6   2   3  -16.93   38.83   0
   6   4  -2  -26.52   40.68   0
   6   4   1   15.92   27.21   0
   5  -1   3  148.01   57.86   0
   6   1   3  -16.18   37.09   0
   4  -1   4   38.47   45.85   0
   6   0  -1   43.37   37.46   0
   6   0   2  131.75   54.73   0
   6   1  -2  153.28   56.16   0
   6   3   2   12.07   30.41   0
   6   4   0   12.60   28.85   0
   4   0   5  136.16   59.37   0
   5   0   4   12.06   46.81   0
   5   5   2    3.67   23.62   0
   6   0   0   -5.29   36.46   0
   5  -1   1  272.76   61.70   0
   5  -1   2  135.22   44.98   0
   5   3   4    0.65   31.40   0
   5   5  -3   -1.48   36.84   0
   6   0   1   20.43   35.59   0
   6   3  -2  -13.35   34.54   0
   5   1  -3   -6.07   35.36   0
   6   1   2   -4.00   29.78   0
   6   2  -2  148.10   47.63   0
   6   2   2   19.87   27.54   0
   6   3   1   54.69   32.20   0
   5   1   4   34.80   39.52   0
   5   2   4   -4.76   34.40   0
   5   4   3   35.25   27.60   0
   6   1  -1   20.10   34.31   0
   6   1   0  194.62   44.73   0
   6   1   1   81.61   38.80   0
   6   2  -1   88.56   36.68   0
   6   2   1    5.98   35.26   0
   6   3   0   21.11   26.51   0
   4   1   5   70.16   43.69   0
   4   3   5    1.65   32.83   0
   5   5   1    8.97   24.73   0
   6   2   0   11.95   25.95   0
   5   0  -1  430.34   56.55   0
   5   5  -2    7.73   30.74   0
   4   0   4   15.98   36.99   0
   4   2   5   42.85   41.01   0
   4   6   2    2.01   17.83   0
   5   0   2  164.17   42.94   0
   5   2  -3  133.50   42.60   0
   5   3   3   19.60   27.68   0
   5   4  -3   83.06   43.80   0
   5   5   0   11.19   23.85   0
   4   6  -3   -6.32   31.23   0
   5   0   0   45.71   31.05   0
   5   1  -2  190.34   39.12   0
   5   3  -3  136.23   45.95   0
   5   4   2   55.25   31.43   0
   5   0   1  179.06   41.12   0
   5   2   3   -7.21   27.51   0
   4   4   4    1.67   24.05   0
   4   5   3   54.33   29.71   0
   5   1   2   25.85   31.04   0
   5   4  -2   10.94   29.82   0
   5   4   1   -0.43   24.27   0
   4   0   3  159.47   37.66   0
   4   1   4   53.08   37.00   0
   4   6   1    0.96   20.44   0
   5   1  -1  -16.66   22.18   0
   5   2  -2   30.06   26.77   0
   5   3   2    6.95   22.66   0
   3   4   5   12.27   29.48   0
   4   3   4   71.87   32.77   0
   4   6  -2   31.63   28.24   0
   5   1   0   68.62   29.99   0
   5   1   1    8.78   27.32   0
   5   2   2   10.08   23.58   0
   5   3  -2   -4.59   23.75   0
   5   4   0   29.69   24.72   0
   3   1   5  249.58   47.61   0
   4   2   4    6.27   29.50   0
   4   6   0   -1.49   20.00   0
   5   3   1  117.61   34.20   0
   5   2  -1  104.58   29.91   0
   5   2   1   34.67   27.31   0
   5   3  -1  165.52   35.71   0
   3   6   3   11.74   21.85   0
   3   7   1   31.66   23.83   0
   4   4   3   17.54   24.79   0
   4   5  -3   19.62   30.74   0
   4   5   2   -5.03   22.10   0
   5   2   0   12.53   23.39   0
   5   3   0   25.85   21.83   0
   3   2   5   58.37   31.34   0
   3   3   5    4.67   26.11   0
   3   5   4    5.94   20.97   0
   3   7  -2    6.91   21.54   0
   3   7   0   -1.59   18.25   0
   4   3  -3  121.87   35.05   0
   4   3   3   -0.10   22.41   0
   4   4  -3   40.10   27.41   0
   4   5   1  148.66   29.51   0
   2   5   5   17.60   25.45   0
   2   7   3   13.72   19.50   0
   4   5  -2   18.30   21.45   0
   2   8  -2    3.91   20.13   0
   2   8   0   13.78   21.91   0
   3   1   4   40.03   27.04   0
   4   1   2  245.47   36.59   0
   4   2  -2  109.89   29.50   0
   4   4   2   91.96   26.56   0
   4   5   0   21.46   21.57   0
   2   6   4    8.91   18.41   0
   2   8  -1    9.97   18.47   0
   3   4   4  123.80   32.06   0
   3   6   2   42.88   20.90   0
   4   1   1    5.79   18.43   0
   3   6  -3   93.68   31.00   0
   4   2   2   22.23   21.85   0
   4   3   2  -13.83   22.92   0
   4   4  -2   79.39   26.26   0
   3   5   3   38.31   21.87   0
   4   3  -2    3.51   16.85   0
   4   4   1  151.91   26.53   0
   1   6   5   -0.49   20.29   0
   1   7   4    7.19   15.52   0
   3   2   4  250.76   33.00   0
   3   3   4   89.04   27.33   0
   4   4  -1   17.18   21.96   0
   4   4   0   55.34   23.21   0
   0   7   5    5.47   21.45   0
   2   4   5    8.54   24.31   0
   2   7   2   11.50   17.21   0
   3   6   1  145.25   27.07   0
   4   2   0   36.22   21.26   0
   4   2   1    1.07   17.06   0
   4   3  -1   -4.94   20.39   0
   4   3   1   18.92   19.40   0
   2   2   5    9.68   23.35   0
   3   6  -2   43.66   23.22   0
   4   3   0   50.16   20.55   0
   1   8   2   -8.50   14.71   0
   2   3   5   37.30   25.31   0
   3   5  -3   62.12   26.46   0
   3   6   0  -10.04   18.44   0
   2   7  -3  185.16   32.40   0
   3   4   3   81.38   21.30   0
   3   5   2    7.92   16.15   0
   2   5   4   11.45   18.76   0
   2   6   3   16.90   17.88   0
   3   2   3   56.88   21.83   0
   2   7   1    9.14   16.45   0
   3   4  -3    6.50   21.25   0
   0   9   1  142.63   23.08   0
   1   8  -3   45.17   23.53   0
   3   5  -2   85.27   23.78   0
   3   5   1   73.48   23.05   0
   1   5   5    4.39   20.39   0
   1   8   1  113.16   22.09   0
   2   7  -2   30.47   16.83   0
   2   7   0  118.34   23.50   0
   3   4   2   90.15   22.48   0
   1   7   3   54.71   16.08   0
   2   4   4  276.08   32.86   0
   3   2   2   47.26   21.03   0
   3   5   0   21.56   15.50   0
   0   8   3   44.42   17.67   0
   0   9  -2   24.07   21.51   0
   1   6   4   55.83   20.27   0
   2   2   4  294.59   35.58   0
   2   6   2   10.56   18.06   0
   3   3   2  278.49   27.82   0
   3   4  -2   60.48   21.89   0
   0   9   0    6.06   15.13   0
   1   8  -2   63.16   22.19   0
   1   8   0   11.28   16.66   0
   2   3   4   57.97   22.56   0
   2   5   3    8.04   16.20   0
   2   6  -3  295.09   34.46   0
   3   4   1   87.25   22.05   0
   0   6   5    3.81   18.39   0
   0   9  -1  241.67   29.51   0
   1   4   5  418.93   40.37   0
   3   3   1   31.79   18.90   0
   3   4   0   68.19   20.04   0
  -1   8   4   42.43   16.53   0
   0   7   4   61.22   19.16   0
  -1   7   5   33.43   19.85   0
   1   3   5   39.75   23.92   0
   1   7   2    6.37   16.36   0
   2   6   1   56.74   17.42   0
   3   3   0   49.12   16.46   0
  -1   9   2    5.25   13.15   0
   2   6  -2   29.15   19.31   0
   0   8   2    0.87   15.33   0
   2   5  -3  182.09   28.68   0
   2   5   2   31.97   20.33   0
   2   6   0    7.80   14.47   0
   1   5   4   44.66   18.85   0
   1   6   3   12.92   16.27   0
   1   7  -3  210.59   29.41   0
  -2  10   0    7.43   16.69   0
   1   7   1    2.62   17.04   0
  -2   9   3   12.42   15.62   0
  -1   9  -3  148.11   32.06   0
   0   5   5   29.59   20.61   0
   2   5   1    6.37   18.42   0
  -2  10  -1    7.04   15.55   0
  -1   9   1   31.44   16.48   0
   0   8  -3   11.84   17.36   0
   1   7  -2   54.00   19.17   0
   2   4   2  290.12   24.70   0
   2   5  -2   88.47   20.54   0
   0   7   3    4.38   14.60   0
   0   8   1  206.89   21.88   0
   1   4   4   -6.75   15.33   0
   1   7   0   58.09   17.22   0
   2   5   0   28.86   17.28   0
  -3   8   5   21.28   19.55   0
  -1   8   3   80.07   15.76   0
   0   6   4  247.57   27.54   0
   1   6   2    8.51   16.31   0
   2   3   2  864.07   39.17   0
  -1   9  -2   -2.96   18.05   0
  -1   9   0    6.26   14.51   0
   0   4   5  188.59   28.50   0
   0   8  -2   56.63   17.94   0
   0   8   0    7.75   16.45   0
   1   3   4   62.90   19.97   0
   1   5   3   10.27   20.13   0
   2   4   1   17.33   16.27   0
  -2   8   4    6.74   16.10   0
  -1   6   5    4.58   16.44   0
  -1   7   4  217.03   24.38   0
  -2   7   5    0.38   17.68   0
   1   6  -3  129.45   22.65   0
   2   4   0  486.55   29.12   0
  -3  10   1    6.09   13.35   0
  -2   9   2    7.51   14.87   0
   0   7   2  248.01   25.45   0
   1   6   1    4.04   14.46   0
  -4   9   4   50.48   19.28   0
  -1   8   2  105.35   17.21   0
   0   5   4  294.32   27.84   0
   1   5   2   34.03   17.69   0
   1   6  -2   13.35   12.35   0
   1   6   0   32.92   14.96   0
  -3   9   3    8.21   13.92   0
  -3  10  -2   26.06   20.69   0
  -3  10   0   -2.14   15.36   0
   0   6   3   41.80   14.61   0
  -4   8   5   31.94   23.57   0
  -1   5   5   41.17   20.16   0
   0   7  -3  121.35   23.10   0
   0   7   1   -0.66   16.40   0
   1   5  -3   41.41   17.44   0
  -2   9  -3   32.84   21.35   0
  -2   9   1   70.76   17.57   0
  -2   8   3  105.61   18.17   0
  -1   7   3    9.03   11.77   0
  -1   8  -3   -6.37   17.27   0
  -1   8   1   22.83   14.84   0
   0   7   0   86.90   19.31   0
   1   5   1   42.49   13.72   0
  -1   6   4  190.71   24.43   0
   0   4   4  119.50   21.17   0
   0   7  -2    6.67   16.20   0
   1   4   2  274.07   22.10   0
   1   5  -2  510.00   30.41   0
  -5   9   4    5.96   14.62   0
  -4  10   1    4.62   14.24   0
  -3   7   5   -2.86   17.82   0
  -3   8   4   90.58   17.71   0
  -2   6   5   15.58   17.91   0
  -2   9  -2   56.71   19.59   0
  -2   9   0   96.90   18.17   0
  -1   8   0  138.25   21.05   0
   0   6   2   86.43   19.82   0
   1   5   0  383.56   24.17   0
  -5  10   2   31.56   17.09   0
  -2   7   4   52.15   19.77   0
  -1   4   5  231.09   27.40   0
  -1   8  -2   15.56   18.09   0
  -3   9   2   36.16   14.83   0
  -5   8   5   40.07   22.22   0
  -4   9   3   -1.98   14.23   0
  -4  10  -2    0.59   18.75   0
  -4  10   0   65.15   19.83   0
  -1   7   2  566.78   32.43   0
  -2   8   2   67.40   15.63   0
   0   6  -3  202.01   24.55   0
   0   6   1  122.53   19.61   0
  -3   9   1   66.40   18.18   0
  -1   5   4  123.62   21.43   0
  -1   6   3   17.14   17.24   0
   0   4   3  167.65   20.89   0
   0   6   0   14.95   13.77   0
  -5  10   1   -1.77   12.27   0
  -3   8   3   25.28   14.33   0
  -3   9  -3   34.95   20.13   0
  -2   5   5  150.67   25.28   0
  -1   7   1   12.38   15.92   0
   0   5   2  156.52   18.34   0
   0   6  -2   -2.30   16.16   0
  -4   8   4   35.72   16.05   0
  -2   7   3   10.00   14.66   0
  -2   8   1   63.27   18.51   0
  -4   7   5   83.15   21.93   0
  -3   9   0   18.98   16.66   0
  -1   7  -3   56.12   17.29   0
  -5   9   3   24.12   14.74   0
  -5  10  -2   76.94   26.67   0
  -5  10   0  109.37   23.22   0
  -4   9   2  201.94   22.05   0
  -3   6   5   -1.73   16.95   0
  -3   7   4    1.48   16.50   0
  -3   9  -2  256.69   28.69   0
  -2   6   4   10.10   12.93   0
  -2   8  -3    6.15   17.05   0
  -1   7   0  305.34   24.90   0
  -6  10   1    6.44   13.68   0
  -2   8   0  588.82   29.92   0
  -1   7  -2  235.16   22.74   0
   0   5   1  177.52   18.08   0
  -1   4   4   22.48   15.50   0
  -1   6   2  484.50   26.27   0
  -4   6   8   -3.20   30.37   0
  -1   3   8    6.08   26.45   0
  -1   7   6   -4.09   17.50   0
   0   6   6  167.67   30.41   0
   1   1   6   17.53   25.49   0
   2   3   5   38.69   28.21   0
   2   2   5   10.13   21.90   0
  -1   1   7   22.92   31.23   0
   0   2   7  152.54   36.90   0
   0   4   7   87.48   30.81   0
   2   5   3    1.00   27.59   0
  -3   3   8   -7.30   41.16   0
  -2   3   8   -0.48   31.79   0
  -2   4   8    3.14   31.06   0
   0   3   7   -9.28   27.02   0
   1   2   6    9.16   25.97   0
   1   3   6   21.19   30.91   0
   1   6   4   84.98   28.09   0
   2   4   4  335.17   41.57   0
  -4   5   8    6.87   38.10   0
  -3   5   8   19.77   31.77   0
   1   5   5   20.10   21.41   0
  -3   4   8   13.74   33.53   0
  -3   7   7   21.10   21.03   0
  -1   5   7   -4.43   24.83   0
  -3   8   6   19.83   24.45   0
  -1   8   4   39.03   25.01   0
   0   1   6  102.62   29.64   0
   0   5   6  153.98   34.67   0
   0   7   4   56.98   28.00   0
   2   2   4  401.08   40.08   0
   2   5   2    8.18   29.85   0
  -2   6   7    4.35   19.25   0
  -1   2   7   95.51   37.98   0
   2   4   3   34.44   29.17   0
  -5   7   7    9.68   30.68   0
  -4   7   7   42.37   25.97   0
   0   6   5   -7.19   22.50   0
   1   4   5  477.55   43.82   0
  -2   7   6   21.73   24.69   0
  -2   8   5   12.81   15.58   0
  -1   6   6    6.19   24.19   0
   1   6   3   17.49   27.37   0
  -2   2   7   12.49   32.76   0
  -1   7   5   22.23   22.66   0
   0   2   6  217.08   36.55   0
   0   4   6   -6.49   21.51   0
   1   2   5    2.72   20.91   0
   1   3   5   65.99   27.13   0
   2   3   3   81.05   29.61   0
  -4   8   6   28.74   22.61   0
  -2   5   7    6.80   23.99   0
  -2   9   3   -0.21   21.83   0
   0   3   6   -5.64   24.14   0
   2   4   2  275.97   38.45   0
  -5   8   6   11.42   20.25   0
  -3   9   4   70.89   26.37   0
  -2   3   7   86.81   34.48   0
   0   7   3    1.94   22.99   0
  -5   6   7   29.78   32.95   0
  -1   5   6   34.96   27.39   0
  -1   8   3   51.05   26.50   0
   0   5   5   10.19   25.67   0
   1   6   2    7.03   26.81   0
  -4   6   7   70.77   31.36   0
  -3   3   7    1.12   27.22   0
   1   4   4   -0.19   21.31   0
  -3   5   7   11.66   26.06   0
  -3   7   6    5.35   20.74   0
  -1   2   6  377.01   43.95   0
   1   5   3    6.31   23.95   0
  -3   4   7   -2.68   26.27   0
  -3   8   5   16.32   19.87   0
  -2   6   6   -4.11   20.23   0
  -1   4   6   -6.41   24.67   0
   1   3   4   75.39   23.40   0
  -4   4   7    9.62   31.64   0
  -4   5   7   20.98   27.57   0
  -2   8   4   16.64   17.65   0
  -1   3   6  308.31   39.74   0
  -1   6   5   14.38   18.74   0
  -1   7   4  223.77   30.17   0
   0   4   5  217.49   29.64   0
   1   6   1   -4.83   26.16   0
  -2   7   5    9.06   17.71   0
  -2   9   2   10.36   23.25   0
   0   3   5   75.09   26.38   0
  -6   7   6   -4.38   30.29   0
  -4   9   4   54.20   20.88   0
  -2   5   6   14.83   22.80   0
  -1   8   2   86.23   27.17   0
   0   5   4  264.88   33.13   0
  -5   7   6    4.45   24.46   0
  -4   8   5   29.23   22.45   0
  -3   6   6  -12.18   22.74   0
  -3   9   3   10.04   18.20   0
   0   6   3   29.10   25.64   0
   1   5   2   58.47   23.86   0
  -2   3   6   83.48   30.03   0
  -1   5   5   32.96   22.94   0
   0   7   1   11.45   25.33   0
  -5   9   4    8.67   16.98   0
  -2   8   3   93.62   26.65   0
  -2   9   1   58.59   26.90   0
   0   4   4   99.86   23.55   0
  -6   8   5   18.20   25.27   0
  -5   8   5   46.43   25.89   0
  -4   6   6   33.71   28.03   0
  -3   7   5    8.55   17.69   0
  -3   8   4  107.57   21.72   0
  -2   6   5   -1.88   19.27   0
  -1   4   5  250.16   30.67   0
  -1   6   4  159.25   27.28   0
   1   5   1   38.55   25.06   0
  -5   6   6   14.01   28.38   0
  -3   3   6    2.46   25.58   0
  -2   7   4   61.99   23.50   0
  -1   3   5  309.58   33.84   0
  -1   8   1   18.37   23.17   0
   1   4   2  271.73   29.17   0
  -3   4   6   18.99   19.95   0
   0   6   2   72.68   24.96   0
  -5   5   6   12.94   27.66   0
  -5  10   2   36.22   21.28   0
  -4   5   6   55.90   29.92   0
  -4  10   1   16.38   19.34   0
   0   7   0   25.66   30.17   0
  -4   4   6  127.83   34.26   0
  -4   7   5   76.53   27.76   0
  -4   9   3    3.65   16.42   0
  -2   5   5  134.44   29.96   0
  -2   9   0   73.72   29.08   0
  -1   5   4  119.27   25.90   0
  -1   8   0  129.85   35.40   0
  -4   8   4   28.51   19.26   0
  -3   6   5   -1.53   18.73   0
  -1   7   2  638.29   43.06   0
  -6   7   5   35.69   26.00   0
  -1   6   3   24.11   21.30   0
   0   4   3  186.20   26.29   0
  -7   8   4    5.73   26.91   0
  -5   9   3   29.39   19.61   0
  -3   7   4   -2.00   21.27   0
  -3   8   3   19.72   17.24   0
  -2   3   5  440.24   35.28   0
  -2   6   4    1.09   22.05   0
  -2   9  -1   52.24   34.18   0
   0   6   1  111.41   28.17   0
  -7   9   3    2.58   18.78   0
  -4  10   0   49.36   24.24   0
  -2   7   3   15.97   18.15   0
  -1   4   4   20.71   17.26   0
   0   5   2  147.55   26.07   0
  -5   8   4  -10.72   16.59   0
  -5  10   1    3.81   18.21   0
  -3   5   5   54.70   27.67   0
  -3   9   1   61.11   22.18   0
  -6   9   3   96.59   25.66   0
  -4   9   2  169.20   27.36   0
  -6   6   5   12.52   29.57   0
  -5   6   5   44.04   29.37   0
  -3   4   5  161.57   28.68   0
  -1   7   1   -1.95   21.68   0
  -6  10   1    1.69   19.08   0
  -4  10  -1   31.21   29.88   0
  -2   5   4    0.92   18.48   0
  -2   8   1   56.96   21.91   0
  -1   5   3  225.07   26.72   0
  -4   5   5   72.61   27.87   0
  -4   7   4   21.75   17.22   0
  -4   8   3   53.74   22.58   0
   0   6   0    2.95   23.49   0
  -7   7   4   14.12   25.51   0
  -5   5   5   28.93   25.78   0
  -3   6   4    0.40   19.54   0
  -3   8   2    6.96   18.70   0
  -5   9   2   -0.03   20.22   0
  -5  10   0  148.17   31.23   0
  -4   4   5   15.79   21.12   0
  -4  10  -2    7.18   27.80   0
  -3   9   0   21.92   22.54   0
  -2   6   3   44.95   21.51   0
  -2   7   2  355.45   32.46   0
   0   5   1  175.08   25.63   0
  -5   7   4   32.80   22.93   0
  -3   7   3   -7.33   17.04   0
  -2   4   4   94.46   20.81   0
  -7   9   2    2.19   18.43   0
  -6   7   4    8.26   24.51   0
  -5   8   3   90.93   24.52   0
  -4   9   1   65.76   23.29   0
  -2   8   0  553.12   40.68   0
  -1   7   0  319.95   35.22   0
  -7   6   4    7.49   35.67   0
  -7   8   3   -3.10   21.42   0
  -6   9   2   12.00   18.14   0
  -6  10   0   41.70   17.83   0
  -6   8   3    9.00   20.80   0
  -4   6   4  124.36   25.40   0
  -3   5   4   21.36   18.69   0
  -3   9  -1   79.09   27.20   0
  -1   5   2  115.66   23.75   0
  -1   6   1  169.70   26.75   0
  -8   9   1   -2.49   15.17   0
  -4   7   3   21.52   20.27   0
  -4   8   2   24.69   16.55   0
  -3   8   1   86.53   21.47   0
  -2   5   3  140.91   23.36   0
  -8   8   2   -7.75   19.51   0
  -6   6   4   46.47   29.94   0
  -5   6   4  124.57   26.84   0
  -5   9   1   25.21   20.97   0
  -3   4   4   49.27   22.54   0
  -2   8  -1   54.38   26.21   0
  -1   7  -1   52.18   23.19   0
  -7  10  -1   26.07   18.35   0
  -6  10  -1    2.34   17.62   0
  -5  10  -2  129.92   29.14   0
  -4   9   0    8.80   22.79   0
  -3   6   3  100.44   20.95   0
  -3   9  -2  227.71   38.50   0
  -2   6   2  124.22   23.63   0
  -4   5   4  123.71   23.88   0
  -3   7   2    3.31   16.47   0
  -7   7   3   26.51   23.84   0
  -7   9   1   57.43   21.42   0
  -6   5   4   39.34   28.36   0
  -6   9   1   62.00   23.11   0
  -5   7   3  267.30   33.35   0
  -5   8   2   32.86   21.85   0
  -5  10  -3   40.58   25.18   0
  -5   5   4  138.29   30.16   0
  -3   9  -3   19.13   29.73   0
  -6   7   3  369.33   37.18   0
  -6   8   2    5.37   19.64   0
  -6  10  -2   87.48   25.18   0
  -4   4   4   14.44   18.22   0
  -2   8  -2  128.38   29.94   0
  -5   4   4   -4.79   22.29   0
  -5   9   0   32.12   20.47   0
  -4   6   3    8.70   19.03   0
  -4   8   1   24.66   20.28   0
  -8   7   2   31.61   25.90   0
  -3   5   3  337.06   28.50   0
  -2   7   0  528.92   33.91   0
  -7   6   3   41.81   28.55   0
  -4   7   2    1.53   15.57   0
  -2   8  -3    4.11   23.70   0
  -8   8   1    2.46   17.97   0
  -7   9   0   -4.82   16.09   0
  -6   9   0   -3.68   18.28   0
  -3   7   1   -1.71   18.17   0
  -2   5   2   16.43   14.01   0
  -2   6   1  149.88   22.73   0
  -6   6   3    5.98   23.89   0
  -4   9  -2   12.11   23.37   0
  -3   6   2   11.88   16.22   0
  -8   9  -1   53.23   21.30   0
  -5   8   1    0.06   17.02   0
  -3   8  -1   16.65   21.40   0
  -7   7   2   14.10   24.74   0
  -5   7   2  226.09   28.98   0
  -5   9  -1   53.07   20.12   0
  -4   8   0   80.48   23.13   0
  -1   6  -1  649.56   40.71   0
  -7   8   1  117.17   26.36   0
  -6   8   1  176.42   29.25   0
  -4   9  -3   38.37   27.11   0
  -2   7  -1   31.39   21.60   0
  -6   9  -1   15.33   20.56   0
  -8   9  -2    2.22   15.78   0
  -7   9  -1   60.65   22.07   0
  -6   5   3   19.91   24.63   0
  -5   5   3    2.06   23.43   0
  -4   9  -5    7.20   28.26   0
  -4   9  -4  125.70   37.57   0
  -8   7   1   -2.86   22.30   0
  -8   8   0   13.24   18.39   0
  -5   9  -2   20.20   24.43   0
  -4   6   2   80.19   18.73   0
  -4   7   1  125.88   22.71   0
  -3   7   0  504.73   36.15   0
  -3   8  -2  405.95   37.88   0
  -8   9  -3   24.15   16.27   0
  -5   8   0   14.34   21.01   0
  -3   5   2   46.25   19.09   0
  -7   6   2   37.61   26.56   0
  -4   8  -1   14.02   19.36   0
  -3   6   1  315.42   28.57   0
  -2   7  -2  700.71   46.85   0
  -1   6  -2   47.32   25.56   0
  -7   8   0   35.95   21.63   0
  -7   9  -2   -0.87   16.31   0
  -6   9  -2    3.46   17.25   0
  -5   4   3   13.99   21.54   0
  -5   6   2  175.13   31.01   0
  -6   6   2  186.15   32.66   0
  -6   8   0   32.17   20.40   0
  -5   7   1  100.75   23.41   0
  -3   8  -3   22.44   25.54   0
  -8   6   1   25.89   31.83   0
  -7   7   1   18.90   19.82   0
  -7   9  -3   53.65   21.71   0
  -5   9  -5   13.08   27.23   0
  -5   9  -4   -5.56   25.02   0
  -6   7   1  116.78   23.44   0
  -6   9  -3   37.82   18.96   0
  -3   8  -4  393.00   48.95   0
  -8   7   0    7.93   21.13   0
  -7   5   2   53.91   32.12   0
  -7   9  -4    4.61   12.46   0
  -6   9  -5    6.80   19.01   0
  -5   8  -1   17.27   21.25   0
  -4   5   2    8.04   17.94   0
  -4   7   0   -3.03   16.66   0
  -3   8  -5   24.08   30.15   0
  -2   7  -3  211.53   37.61   0
  -6   9  -4    3.72   16.52   0
  -4   6   1  311.48   31.04   0
  -8   8  -2   16.44   19.15   0
  -7   8  -1   68.45   22.59   0
  -6   8  -1   89.24   26.55   0
  -2   6  -1  942.81   42.98   0
  -5   5   2   92.76   23.18   0
   6  -4   5   68.99   41.78   0
   7  -3   2   79.76   36.74   0
   7  -1   6   26.80   26.17   0
   5  -4   6  207.91   55.84   0
   6  -4   4  -13.58   34.25   0
   5  -4   3    6.84   34.90   0
   6  -3   1  168.82   39.70   0
   6  -1  -1   -3.34   28.85   0
   7  -3   3  -25.36   30.77   0
   7  -3   4    5.37   30.48   0
   7  -2   1    7.15   30.56   0
   7   0   0   83.18   33.12   0
   7   1   1   16.01   30.09   0
   7   1   4    8.10   23.73   0
   5  -4   4   15.93   33.32   0
   5  -4   5   11.29   32.69   0
   6  -2   0   14.16   23.05   0
   7  -2   5   24.27   28.88   0
   7   0   5   -5.58   19.19   0
   6  -3   6   11.60   30.32   0
   6  -2   7   17.66   32.87   0
   6   0  -1    2.38   34.23   0
   6   1  -1   35.55   30.00   0
   7  -2   2   14.81   28.99   0
   7  -1   1   -7.86   24.04   0
   7   1   2   46.82   28.77   0
   5  -2   8   -7.00   32.62   0
   6  -3   2   60.62   25.46   0
   7  -2   3   74.62   32.09   0
   7  -2   4   20.15   27.37   0
   7  -1   5    9.07   20.61   0
   5  -3   7   38.37   41.77   0
   6  -1   7   -8.70   23.48   0
   6   3   2   10.51   24.67   0
   7   0   4   18.00   22.27   0
   6  -3   3  217.49   40.08   0
   6  -3   5   29.35   35.40   0
   6   2   0   11.79   35.59   0
   7  -1   2    3.10   22.46   0
   7  -1   4   -1.09   23.27   0
   7   0   2   58.71   27.20   0
   6  -2   1  129.17   30.15   0
   7  -1   3   24.98   21.62   0
   7   0   3    8.47   18.95   0
   5  -3   2  211.23   33.17   0
   6   1   6    5.20   19.12   0
   5  -1   8    3.27   24.12   0
   5   0   8    2.85   21.82   0
   6   0   0  -10.05   26.11   0
   5  -3   6    1.66   32.78   0
   6  -2   2    3.87   27.72   0
   6   1   0  162.54   38.34   0
   6  -1   6   33.35   25.33   0
   6   0   6  -13.70   21.42   0
   6   2   1   25.19   26.27   0
   5  -3   5  -13.20   31.14   0
   5   1  -1    8.16   23.73   0
   5   4   3    0.38   25.35   0
   6  -2   5  110.58   29.32   0
   6  -1   1  236.00   35.97   0
   4  -2   8    1.89   37.92   0
   5  -3   4  279.14   41.46   0
   5  -2   7   -4.21   27.95   0
   6  -2   3  226.90   36.53   0
   6  -2   4   19.16   29.04   0
   6   2   2   10.44   22.66   0
   6   2   3   10.36   20.70   0
   6   1   1   82.12   31.74   0
   6   1   5   -9.56   16.63   0
   4  -3   6  100.85   39.92   0
   6  -1   2   63.50   23.06   0
   6  -1   5   13.62   26.48   0
   5   1   7    9.62   17.74   0
   6  -1   3  221.21   38.27   0
   6   0   5   25.96   20.38   0
   6   1   4   -1.13   22.47   0
   4  -3   5   62.91   28.43   0
   5  -2   2   52.48   22.09   0
   5  -2   6    2.98   29.11   0
   5  -1   7    3.40   23.82   0
   5   3   5   19.60   23.20   0
   6  -1   4    9.08   21.93   0
   6   0   2  118.22   28.38   0
   6   1   3    1.83   20.67   0
   5   0   0   77.81   24.69   0
   5   0   7   26.36   25.17   0
   6   0   3   -2.73   23.75   0
   6   0   4   94.29   25.66   0
   4  -1   8   12.37   29.06   0
   5  -2   3  200.39   33.52   0
   5  -1   1  277.92   34.80   0
   5   2   0   10.28   26.55   0
   5   2   6   10.10   18.24   0
   4  -2   7   28.27   32.15   0
   5  -2   4   12.49   26.30   0
   5   1   0   98.44   30.10   0
   5   3   1   98.32   34.04   0
   3   0   9   15.73   26.68   0
   3   1   9   10.26   21.58   0
   4   0   8    6.04   25.31   0
   5   3   2    2.01   23.49   0
   5   3   3    9.30   22.96   0
   5  -1   2   50.21   24.21   0
   5   0   1  196.86   34.14   0
   5   0   6   21.63   24.41   0
   5   1   6    0.56   18.62   0
   4  -2   6   27.03   30.17   0
   5  -1   5  -13.48   25.64   0
   5   2   1   42.67   29.75   0
   5   2   5   -0.64   17.47   0
   5  -1   3  113.89   30.63   0
   5   1   1    3.45   24.12   0
   3  -2   7    4.42   31.23   0
   4  -1   7   34.89   32.21   0
   4   2   7    4.63   20.64   0
   5  -1   4  157.27   29.45   0
   5   1   5   -6.69   23.76   0
   5   2   2   -2.66   24.29   0
   5   2   4   19.38   21.50   0
   4  -2   4   33.24   21.49   0
   4  -2   5   20.83   27.66   0
   4   3   6   15.09   20.45   0
   4   4   1   87.11   41.02   0
   5   0   2  139.02   25.91   0
   5   0   5    9.98   22.16   0
   3  -1   8    7.70   32.66   0
   4   3   0   53.62   34.59   0
   4   4   4    4.52   22.19   0
   5   0   3   12.11   25.36   0
   5   0   4   63.22   30.26   0
   5   1   2   26.50   21.99   0
   5   1   4    5.97   24.76   0
   3   5   5   -2.49   18.18   0
   4   1   7   42.57   26.41   0
   5   1   3    9.76   23.14   0
   3  -2   6  156.26   39.72   0
   4   4   2   75.73   26.91   0
   4   4   3   23.92   22.73   0
   2   0   9    1.25   29.33   0
   3   2   8   17.36   21.47   0
   4  -1   6   -4.33   23.71   0
   4   2   0   27.76   25.74   0
   2   2   9    2.51   20.91   0
   3   0   8    8.48   29.50   0
   4   2   6   41.69   26.65   0
   4   3   5  -14.02   21.81   0
   2   1   9    8.04   28.83   0
   3   1   8    6.71   23.27   0
   4   3   1   11.15   24.66   0
   3  -1   7   16.63   31.90   0
   3   3   7   -0.05   20.36   0
   3   4   6    3.32   20.43   0
   3   5   4    1.78   22.11   0
   4  -1   4   31.23   27.08   0
   4   0   6   10.85   17.78   0
   4   1   6   56.81   26.33   0
   4   3   4   61.98   23.07   0
   3   5   2    2.06   26.24   0
   3   5   3   36.80   26.81   0
   4   2   1   15.18   25.43   0
   4   2   5   67.81   27.38   0
   4   3   2   -7.29   23.29   0
   2   6   4    0.88   23.32   0
   4   0   5  209.44   30.20   0
   3   2   7    6.13   22.00   0
   4   0   3  104.12   27.87   0
   4   0   4   31.08   23.99   0
   4   1   5   66.26   25.79   0
   1   3   9    7.23   21.48   0
   2   3   8    3.99   15.03   0
   2   5   6   13.04   18.40   0
   3  -1   6  353.85   41.77   0
   3   0   7   95.30   27.42   0
   3   4   5   -3.24   19.76   0
   4   1   2  241.09   30.95   0
   4   2   3   10.77   24.29   0
   4   2   4    5.44   19.68   0
   2   6   2    9.07   27.56   0
   2   6   3   11.53   24.44   0
   3   1   7   11.58   21.07   0
   4   1   3  191.15   28.48   0
   4   1   4   87.28   25.71   0
   2   0   8   71.37   32.51   0
   2   4   7   29.12   20.14   0
   3  -1   5   -7.08   24.23   0
   3   3   6   70.20   22.52   0
   1   1   9    5.04   26.84   0
   1   2   9   11.12   26.06   0
   2  -1   7   27.63   32.35   0
   3   4   1   72.69   31.30   0
   2   1   8  -11.20   27.62   0
   1   4   8   30.31   20.81   0
   3   2   6  150.05   28.19   0
   3   4   2  104.95   27.93   0
   3   4   3   67.01   27.43   0
   1   5   7    6.19   18.19   0
   2   5   5    8.45   20.42   0
   3   1   6   32.01   22.91   0
   3   3   5    4.13   18.96   0
   2  -1   6  620.33   54.74   0
   2   3   7    8.95   23.20   0
   3   0   5  174.65   33.65   0
   0   6   7    3.09   14.90   0
   2   0   7  143.14   35.76   0
   2   4   6   -7.92   21.17   0
   3   3   1   35.52   24.24   0
   0   5   8   15.63   16.59   0
   1   0   8   40.50   28.38   0
   3   1   5  267.89   36.15   0
   3   2   5   76.08   24.87   0
   3   3   4  109.91   24.05   0
   0   3   9   61.61   26.65   0
   0   7   5    4.43   19.01   0
   2   2   7    7.54   21.99   0
   2   5   4   12.63   19.70   0
   3   3   2  245.98   33.03   0
   0   1   9   16.29   27.83   0
   1   3   8   22.20   16.81   0
   2   5   1    3.18   21.71   0
   3   2   4  219.23   31.74   0
  -1   8   4   33.81   28.35   0
   0   2   9   33.99   27.67   0
   2   5   2   37.59   24.87   0
   2   5   3    6.66   22.53   0
   3   1   4   44.62   20.82   0
   1   1   8   33.34   26.20   0
   1   2   8    5.31   24.12   0
   1   5   6  129.97   26.86   0
   2   3   6   24.23   24.99   0
   2   4   5    5.65   21.97   0
   3   2   3   61.59   19.19   0
   1   4   7   11.58   16.74   0
   1   6   4   57.17   24.74   0
   2   0   6  240.45   34.54   0
  -1   4   9    6.82   20.63   0
   0   7   4   63.03   25.89   0
  -2   5   9    2.43   17.98   0
  -1   7   6    4.88   18.38   0
   0   4   8   14.30   18.47   0
   0   6   6  145.49   25.47   0
   1   6   3   16.01   22.26   0
   2   1   6   12.69   23.67   0
   2   2   6   10.09   19.05   0
  -1   8   3   40.73   28.04   0
   1   0   7  116.39   35.32   0
   2   4   4  311.41   29.16   0
  -2   7   7   -3.58   14.09   0
   0   5   7   14.99   17.42   0
   1   3   7   37.72   22.92   0
   1   6   2  -11.00   24.69   0
   2   3   5   44.87   21.02   0
   2   4   1   16.02   20.84   0
   1   5   5   16.64   17.28   0
  -1   1  11  -10.07   24.87   0
   0   2  10   16.29   25.08   0
   0   5   7    0.05   28.09   0
   1   3   8   10.18   24.44   0
   2  -2   7   -4.64   26.98   0
   2  -1   8   87.69   31.24   0
   2   0   8   64.78   32.87   0
   2   2   7    0.50   28.71   0
   0  -1  10   -5.81   30.72   0
   2   3   5   48.85   32.16   0
  -2   0  11    5.90   30.38   0
   0  -2   9   17.03   33.94   0
   1  -1   9    9.55   25.82   0
   0   0  10    2.36   25.07   0
   0   1  10   31.73   30.19   0
   1  -2   8   75.99   35.14   0
   1   1   9    2.16   21.78   0
   2   3   4   63.20   30.37   0
  -2   2  11   -2.57   21.96   0
  -1   3  10    2.18   19.97   0
   0   3   9   62.51   29.64   0
   1   0   9    8.86   24.01   0
   1   4   6    1.48   31.79   0
   2  -1   7   44.86   25.28   0
   2   1   7   28.24   23.06   0
  -2   1  11  -16.29   24.72   0
  -2   4  10   13.66   21.44   0
  -1  -2   9   37.47   40.34   0
  -1  -1  10    5.90   32.28   0
   0   4   8    6.66   21.51   0
   2   0   7  176.24   36.01   0
   2   2   6   18.76   23.04   0
  -1   5   8   12.69   22.99   0
   1   2   8   17.79   24.36   0
  -3   1  11   -5.88   29.74   0
  -2  -1  10    7.92   40.89   0
  -2   5   9    3.03   20.14   0
   1  -2   7   71.44   37.95   0
   1   3   7   29.73   32.10   0
   2  -1   6  687.73   47.00   0
   0  -2   8   40.69   34.76   0
   0  -1   9   10.75   31.31   0
   0   5   6  192.51   39.49   0
   1  -1   8   56.77   27.96   0
   2   1   6    1.14   28.61   0
   2   2   5   16.85   26.29   0
  -1   2  10    8.66   20.45   0
   0   2   9   26.98   25.90   0
   1   1   8   28.97   27.35   0
   1   4   5  382.26   50.00   0
   2   0   6  209.29   28.21   0
  -1   1  10   12.26   25.90   0
   1   0   8   35.01   24.85   0
   2   2   4  312.62   32.66   0
   0   0   9   -1.52   24.64   0
  -2   3  10    3.54   22.29   0
  -1  -2   8   48.41   37.28   0
   0   1   9    8.66   22.63   0
   0   3   8   36.77   24.97   0
   0   4   7  134.84   32.05   0
   1   2   7   19.82   28.01   0
  -3   4  10    0.34   19.61   0
   0  -2   7   49.24   32.70   0
   1  -1   7   39.27   25.12   0
   1   3   6   58.43   25.34   0
  -2   0  10    9.60   24.51   0
  -1  -1   9  186.22   34.61   0
  -1   3   9   14.15   25.08   0
  -3   0  10    6.58   34.12   0
  -2   6   7    2.60   22.70   0
  -1   5   7    0.51   25.13   0
   0  -1   8    7.50   26.01   0
   1   0   7  163.19   31.58   0
   1   1   7   51.94   24.46   0
  -3   6   8    6.89   20.59   0
  -2   2  10    7.97   20.70   0
  -3   5   9   54.39   24.60   0
  -2  -1   9  168.94   45.86   0
  -2   4   9   27.08   23.46   0
   0   2   8   45.95   22.68   0
   1   3   5   49.31   30.60   0
  -4   4  10   12.65   19.95   0
  -3   3  10   20.09   23.54   0
  -2   5   8   53.38   24.58   0
  -1   2   9   64.74   24.78   0
   0   0   8   55.20   27.61   0
  -1   1   9    7.82   25.00   0
   0   1   8  222.06   32.07   0
   0   4   6    5.29   24.08   0
  -5   4  10   12.99   21.85   0
  -4   1  10   -1.20   33.87   0
  -3   1  10    1.73   23.62   0
  -3   2  10    2.23   25.31   0
   0  -1   7   -9.06   23.09   0
   1   0   6   72.37   23.35   0
   1   1   6   -0.37   19.78   0
   1   3   4   54.78   26.53   0
  -1  -1   8    6.37   24.68   0
  -5   2  10    2.50   28.14   0
  -4   3  10   16.43   23.72   0
  -4   7   7   22.02   25.44   0
  -2   3   9   18.14   24.51   0
   1   2   5   -6.86   19.57   0
  -5   3  10    7.45   22.85   0
  -4   2  10   -5.48   24.20   0
  -2   0   9  162.36   32.43   0
  -1   3   8   -9.96   20.13   0
  -1   5   6   38.37   29.66   0
   0   2   7   97.81   28.59   0
  -4   5   9   17.85   17.94   0
  -3   4   9    1.60   22.78   0
  -2   6   6    1.09   21.73   0
   0   0   7   51.68   26.61   0
  -2  -1   8    3.06   30.31   0
  -2   1   9   17.70   24.42   0
  -2   2   9    2.90   24.56   0
   0   1   7   15.77   25.86   0
   0   4   5  176.75   30.30   0
  -3   0   9    1.50   30.25   0
  -2   4   8    4.96   22.34   0
  -1   2   8  145.83   26.75   0
  -3   5   8   43.36   24.64   0
  -3   6   7   10.60   21.74   0
  -2   5   7   11.95   24.18   0
  -1  -1   7  196.03   36.90   0
  -1   1   8  112.25   26.33   0
  -5   5   9   -5.73   19.47   0
  -6   5   9    2.63   19.18   0
  -3   3   9   18.38   21.77   0
   0   4   4   91.06   30.10   0
  -5   7   7   16.79   22.08   0
  -4   4   9    5.33   22.54   0
  -3   1   9   48.74   27.45   0
  -3   2   9   18.86   24.74   0
  -1   3   7   43.37   25.63   0
  -1   5   5   15.09   27.57   0
   0   2   6  218.16   28.28   0
  -5   1   9    8.10   32.27   0
  -5   6   8    0.23   18.58   0
  -2   0   8   45.76   26.20   0
  -2   3   8   -1.04   23.66   0
   0   1   6  100.01   26.03   0
   0   3   5   76.74   27.46   0
  -6   2   9    5.64   31.86   0
  -4   1   9   -5.34   29.47   0
  -2  -1   7  411.49   49.65   0
  -2   6   5    1.77   25.11   0
  -1   4   6   -2.27   21.19   0
  -5   4   9   10.57   21.76   0
  -4   3   9    7.42   26.41   0
  -4   7   6    2.90   25.83   0
  -1   2   7  121.59   30.15   0
  -6   4   9    4.28   23.49   0
  -6   6   8    1.93   17.99   0
  -4   5   8   13.94   23.38   0
  -3   4   8   50.77   26.36   0
  -2   1   8   49.56   26.18   0
  -2   2   8   41.39   24.02   0
  -1   1   7    3.44   20.76   0
  -6   3   9    4.80   24.26   0
  -5   2   9   40.03   27.51   0
  -3   0   8   53.36   32.65   0
  -2   4   7   83.25   22.49   0
  -2   5   6   -1.34   25.05   0
  -4   0   8  -12.47   32.47   0
  -3   6   6   -4.51   24.00   0
  -1   5   4   74.53   31.25   0
  -3   5   7   23.44   18.82   0
  -1   3   6  310.53   35.57   0
  -3   3   8  -14.34   24.30   0
  -5   5   8   31.84   25.64   0
  -3   1   8   29.43   26.23   0
  -2   0   7  134.22   37.23   0
  -2   3   7  131.66   29.76   0
  -2   6   4  -12.63   27.02   0
  -1   4   5  231.15   30.32   0
  -4   4   8   33.36   26.45   0
  -3   2   8   56.07   23.95   0
  -7   5   8    1.65   17.63   0
  -6   5   8   19.77   21.73   0
  -5   7   6    6.13   23.50   0
  -1   1   6  196.66   30.83   0
  -1   2   6  428.82   34.34   0
  -6   8   5   22.43   25.97   0
  -5   1   8   -9.42   31.16   0
  -5   6   7   45.82   22.90   0
  -4   1   8   26.37   29.38   0
  -4   7   5   75.57   29.03   0
  -2   1   7  305.59   34.70   0
  -2   2   7   13.49   20.53   0
  -7   3   8   -4.09   26.95   0
  -4   3   8   19.44   26.59   0
  -3   4   7   -2.38   20.70   0
  -2   4   6   -2.44   21.19   0
  -2   5   5  142.58   31.92   0
  -7   4   8   10.79   20.70   0
  -6   2   8   13.27   29.51   0
  -5   4   8   37.23   23.83   0
  -5   8   4   -6.30   30.48   0
  -4   5   7   46.05   21.99   0
  -3   0   7  321.89   45.42   0
  -3   6   5   -7.31   25.20   0
  -6   4   8   58.93   27.77   0
  -1   4   4   24.09   23.30   0
  -7   6   7   -3.81   21.56   0
  -7   8   5    4.18   20.16   0
  -6   3   8   -1.25   26.46   0
  -6   6   7    2.11   17.84   0
  -5   2   8  -12.04   26.00   0
  -5   3   8   22.65   25.35   0
  -4   0   7    8.49   31.51   0
  -8   7   6   -2.12   17.03   0
  -3   3   7    6.90   21.80   0
  -7   7   6   -4.42   20.59   0
  -3   1   7  168.89   35.97   0
  -2   3   6   93.01   21.32   0
  -5   5   7   -9.59   24.89   0
  -4   4   7    6.55   26.24   0
  -3   2   7   21.82   23.54   0
  -8   4   7    3.62   26.62   0
  -5   7   5  154.43   32.32   0
  -2   2   6  376.01   38.59   0
  -2   5   4   -8.09   27.03   0
  -7   2   7   11.98   32.54   0
  -5   6   6   49.81   26.36   0
  -4   7   4   29.50   29.00   0
  -7   5   7   -7.83   23.06   0
  -6   5   7   -1.77   23.02   0
  -6   8   4   -7.47   25.42   0
  -4   1   7   -9.28   21.81   0
  -4   3   7   -1.06   29.05   0
  -3   4   6    2.75   21.38   0
  -3   6   4   17.80   27.80   0
  -5   1   7   -5.02   33.35   0
  -5   4   7   64.12   30.69   0
  -4   5   6   66.91   24.61   0
  -4   6   5   57.87   26.51   0
  -8   6   6   -7.55   19.23   0
  -7   3   7   11.74   28.83   0
  -7   8   4   28.22   25.35   0
  -6   2   7   48.00   37.71   0
  -6   4   7   30.24   31.05   0
  -6   6   6   11.92   25.09   0
  -5   2   7   89.19   33.98   0
  -5   3   7  154.41   32.30   0
  -3   3   6   15.14   21.66   0
  -2   3   5  416.77   35.32   0
  -8   7   5   11.05   21.85   0
  -7   6   6   12.02   21.83   0
  -6   3   7  137.34   35.90   0
  -3   1   6   96.36   31.62   0
  -7   7   5    0.53   22.12   0
  -5   5   6   31.64   28.08   0
  -4   4   6  150.17   34.38   0
  -3   2   6   73.33   25.22   0
  -2   5   3  105.49   32.68   0
  -9   6   5    1.43   23.98   0
  -8   3   6   -6.71   32.34   0
  -8   5   6    1.49   24.83   0
  -5   7   4    3.78   29.14   0
  -4   7   3   22.50   30.08   0
  -2   4   4   78.59   23.55   0
  -3   6   7    6.13   40.85   0
   0   5   6  202.43   36.54   0
   0   8   3   77.12   27.63   0
   2   4   4  346.84   42.34   0
   2   6   2    8.66   26.83   0
   3   3   2  280.05   44.32   0
   3   4   1   76.08   37.78   0
  -2   5   7   19.97   35.44   0
   0   2   6  242.23   46.85   0
   1   6   4   57.97   27.21   0
   2   5   3   21.97   26.96   0
   3   4   0   77.31   37.78   0
  -2   7   6    5.66   24.72   0
   2   3   4   38.54   28.24   0
   3   3   1   36.36   31.24   0
  -2   4   7   38.05   43.03   0
  -2   8   5   24.68   24.08   0
   0   3   6   13.58   31.19   0
   0   6   5    4.39   26.31   0
   1   2   5   10.73   26.86   0
   1   4   5  467.18   50.33   0
   2   6   1   28.02   32.82   0
  -1   8   4   39.01   23.36   0
   0   7   4   67.81   26.41   0
   1   3   5   48.19   28.71   0
  -1   7   5   37.89   21.87   0
   2   4   3   28.02   27.83   0
   2   6   0   11.04   29.32   0
  -3   7   6    7.96   30.97   0
   1   5   4   54.50   25.44   0
   1   6   3   -8.07   24.99   0
   2   3   3   87.15   28.27   0
  -3   9   4   82.37   26.42   0
  -2   6   6   -9.83   22.56   0
  -2   9   3   -7.28   19.40   0
  -1   3   6  361.92   48.25   0
  -1   4   6  -16.69   28.52   0
   0   5   5   18.88   22.19   0
   1   7   1   -5.86   24.59   0
  -4   7   6   -1.26   29.79   0
   1   4   4   15.32   25.03   0
   2   5   1   -3.59   23.76   0
  -1   8   3   65.91   24.21   0
  -1   9   1   42.03   23.47   0
   0   6   4  234.70   33.49   0
   0   7   3    0.71   18.19   0
   0   8   1  207.29   31.10   0
  -2   7   5    6.21   19.75   0
  -1   6   5   10.90   19.82   0
   0   4   5  205.56   31.19   0
   1   3   4   41.07   20.70   0
   1   7   0   47.59   26.09   0
   2   3   2  878.90   51.78   0
  -2   3   6   57.47   38.29   0
  -2   5   6    5.95   25.28   0
  -2   8   4   21.36   18.77   0
  -1   7   4  209.56   29.63   0
   1   5   3    3.69   20.60   0
   1   6   2    8.59   20.49   0
   2   5   0   19.41   26.04   0
  -4   8   5   42.88   23.88   0
  -3   6   6   13.52   24.15   0
   1   7  -1    4.21   25.14   0
   2   4   1   28.43   23.19   0
  -2   4   6  -13.27   26.02   0
  -1   9   0    1.31   25.18   0
   0   8   0    0.87   23.17   0
  -5   8   5   35.50   35.80   0
  -4   6   6   14.86   27.49   0
  -2   9   2   14.45   18.53   0
   0   5   4  278.41   33.46   0
  -5   9   4    9.82   19.81   0
  -3   5   6   68.49   32.62   0
  -3   9   3   -4.61   17.26   0
  -3  10   1    6.22   17.97   0
  -1   5   5   60.99   22.65   0
   0   7   2  255.86   27.27   0
   1   4   3  149.46   22.77   0
   1   6   1   -1.33   22.56   0
  -4  10   2  126.93   28.93   0
  -1   8   2   88.39   23.86   0
  -1   9  -1  180.09   33.75   0
   0   6   3   31.89   22.13   0
   0   8  -1   94.66   26.47   0
  -3   7   5   -0.51   19.01   0
  -1   4   5  238.75   31.17   0
   1   5   2   49.01   20.98   0
  -3   8   4   84.24   23.21   0
  -1   3   5  299.51   31.26   0
  -1   6   4  154.00   27.49   0
   0   4   4  122.31   19.46   0
  -2   8   3   91.41   20.01   0
  -1   7   3    0.83   16.89   0
   1   6   0   24.77   22.60   0
  -2   7   4   66.89   19.55   0
  -2   9   1   49.18   19.56   0
  -5  10   2   35.29   20.61   0
  -4   7   5   65.93   25.00   0
   1   4   2  290.63   28.11   0
  -4   9   3    6.91   15.52   0
  -2   5   5  198.50   26.81   0
  -1   8   1   26.80   19.89   0
   0   5   3  192.51   25.38   0
   0   6   2   76.40   22.97   0
   1   5   1   44.35   18.09   0
   1   6  -1    7.54   22.36   0
  -4  10   1    9.33   15.19   0
  -3   6   5    6.88   22.46   0
  -3   9   2   32.63   19.08   0
  -1   5   4  123.80   23.08   0
  -3  10  -1   23.10   19.64   0
  -2   4   5  305.90   35.05   0
   0   7   0   66.47   23.86   0
  -1   7   2  586.38   35.92   0
  -3   7   4   -5.24   16.45   0
  -3   8   3   29.62   18.11   0
  -3  10  -2    4.13   24.99   0
  -2   6   4   13.55   18.59   0
  -2   8   2   69.50   17.84   0
  -1   6   3    6.80   17.00   0
  -1   8   0  132.74   26.09   0
   0   4   3  183.42   22.02   0
   1   5   0  351.43   31.73   0
  -6   8   4    0.27   22.74   0
  -5   8   4   -2.26   21.08   0
  -4   6   5   52.50   26.31   0
  -3   5   5   34.50   24.78   0
  -1   4   4   20.19   16.86   0
  -6   9   3   99.51   26.21   0
  -2   7   3   29.11   15.98   0
   0   7  -1    9.12   17.79   0
  -5   6   5   38.20   29.04   0
  -5  10   1    3.31   12.54   0
  -4  10   0   50.45   20.84   0
  -3   4   5  116.94   30.57   0
  -3   9   1   58.36   20.40   0
  -2   9  -1   77.23   23.10   0
   0   5   2  154.63   21.44   0
   1   5  -1    7.90   16.80   0
  -4   9   2  191.38   23.77   0
  -1   8  -1   65.76   22.74   0
   0   7  -2   12.04   19.47   0
  -4   5   5   78.51   26.27   0
  -2   9  -2   68.98   25.99   0
  -1   7   1   13.37   17.60   0
  -6  10   1   19.13   15.06   0
  -4   7   4   34.20   20.92   0
  -4   8   3   59.60   20.51   0
  -2   8   1   55.02   18.23   0
  -2   9  -3   21.30   24.75   0
  -1   5   3  199.84   21.00   0
  -1   8  -2    5.64   21.69   0
  -4  10  -1   29.14   20.72   0
  -1   6   2  481.85   32.38   0
  -1   8  -3   -1.26   22.30   0
   0   6   0   21.03   19.22   0
  -3   8   2   -1.65   15.25   0
  -5   7   4    8.68   22.89   0
  -5   9   2   10.24   16.14   0
  -5  10   0  155.64   24.21   0
  -3   7   3    4.25   18.40   0
  -3   9   0   18.08   16.08   0
  -2   6   3   58.00   16.91   0
  -2   7   2  363.82   27.42   0
   0   5   1  188.69   21.88   0
  -6   7   4   19.17   22.43   0
  -4  10  -2   12.23   20.73   0
  -7   8   3    8.08   18.95   0
  -7   9   2    3.22   15.97   0
  -4   9   1   70.03   18.57   0
  -4  10  -3   47.61   27.53   0
  -2   8   0  510.71   34.97   0
   0   6  -1   10.38   21.46   0
  -6  10   0   25.98   17.86   0
  -4   6   4  100.83   25.33   0
  -3   5   4   30.43   22.11   0
  -6   8   3   28.94   19.33   0
  -5  10  -1    7.16   15.72   0
  -4   8   2   12.10   17.82   0
  -3   8   1   96.92   21.60   0
  -1   5   2  121.89   18.15   0
  -1   6   1  187.26   21.62   0
   0   6  -2   18.64   18.43   0
  -4   7   3    8.74   19.62   0
  -2   5   3  167.47   21.04   0
  -1   7  -1   54.01   21.64   0
  -8   8   2   -2.67   20.55   0
  -5   6   4  112.57   29.30   0
  -5   9   1   34.64   16.62   0
  -5  10  -2  116.03   27.55   0
  -4   9   0    4.60   18.47   0
  -3   6   3   90.60   22.99   0
  -3   9  -2  237.02   33.49   0
  -2   7   1   13.72   15.42   0
  -7  10  -1   17.86   15.49   0
  -6  10  -1   12.88   14.85   0
  -3   7   2   12.85   18.28   0
  -2   6   2  132.53   19.96   0
  -5  10  -3   26.77   19.69   0
  -4   5   4  105.00   27.42   0
  -3   9  -4  144.02   36.12   0
  -3   9  -3   40.67   24.58   0
  -6   9   1   68.11   18.54   0
  -5   7   3  301.25   33.78   0
  -5   8   2   33.21   18.63   0
  -2   8  -2  118.14   27.03   0
  -7   7   3   19.07   25.11   0
  -6  10  -2   61.42   19.83   0
  -3   8   0    2.79   18.50   0
  -6  10  -3   -0.92   17.07   0
  -5   5   4  107.78   31.57   0
  -4   8   1   20.72   19.34   0
  -4   9  -1   56.39   20.40   0
  -2   8  -3   16.77   21.84   0
  -1   7  -3   46.55   22.94   0
  -7   8   2   -2.96   18.66   0
  -5   9   0   39.77   17.66   0
  -2   7   0  561.73   33.13   0
  -2   8  -4   87.95   29.05   0
  -8   9   0   -1.53   15.68   0
  -4   6   3    4.80   15.69   0
  -3   5   3  294.48   27.93   0
  -4   7   2    4.81   15.54   0
  -3   7   1   27.04   19.84   0
  -2   5   2    5.13   15.80   0
  -2   6   1  141.06   21.00   0
  -6   9   0    1.60   17.94   0
  -3   6   2   12.91   17.79   0
  -3   8  -1    7.07   17.40   0
  -1   6  -1  705.80   37.44   0
  -7   9   0   -1.29   15.02   0
  -5   8   1   -8.67   17.93   0
  -5   9  -1   49.07   21.85   0
  -4   9  -5    8.33   25.90   0
  -8   8   1    5.20   18.51   0
  -5   6   3   47.42   24.58   0
  -4   8   0   78.67   22.12   0
  -4   9  -4  106.79   32.66   0
  -4   9  -3   28.67   22.67   0
  -8   9  -1   32.52   19.76   0
  -6   6   3   12.85   24.38   0
  -6   8   1  178.78   26.38   0
  -4   5   3   54.42   21.85   0
  -6   9  -1   28.40   17.62   0
   4   0   9   10.56   16.51   0
   5  -3   6   19.79   22.43   0
   5   0   7   14.29   20.30   0
   3  -2  10   23.12   25.75   0
   5  -3   5    8.17   18.84   0
   5  -2   7   20.14   23.80   0
   5  -1   2  111.05   23.17   0
   5   0   2  138.42   30.38   0
   3  -4   7   20.04   31.03   0
   3   0  10    1.57   17.83   0
   4  -3   8   15.39   30.32   0
   4  -1   9   12.23   19.34   0
   4   3   5    5.25   24.21   0
   5  -2   3  208.63   28.26   0
   5  -1   7   25.40   22.39   0
   5   1   3   -7.64   22.73   0
   3  -4   6  153.53   38.02   0
   3  -3   9    8.96   29.13   0
   4   2   7   -0.80   20.41   0
   5   1   4   14.58   25.63   0
   5   1   5    1.09   20.13   0
   4   1   8    7.45   18.81   0
   4   3   4   18.09   29.53   0
   5  -2   4   -7.18   25.68   0
   5  -2   6   10.14   21.21   0
   5   0   6    6.21   23.21   0
   5  -2   5   53.02   24.90   0
   5  -1   3  160.80   26.35   0
   5  -1   6   -5.77   24.76   0
   4  -3   7    1.25   26.54   0
   5  -1   4   95.53   31.49   0
   5   0   5   13.99   22.07   0
   4  -2   8   37.35   24.97   0
   5  -1   5   -5.81   22.61   0
   2  -3   9   -0.69   38.50   0
   2  -2  10   -4.08   37.92   0
   4   0   8   17.96   20.81   0
   4   2   2   21.19   28.11   0
   4   2   6   77.63   29.24   0
   3  -3   8  212.94   46.36   0
   3  -2   9   18.92   31.03   0
   3   1   9    6.42   20.52   0
   4  -1   8   14.73   22.12   0
   3   3   7    6.48   23.92   0
   4   1   7   89.78   25.82   0
   4  -2   7   17.14   24.53   0
   4   2   3   -0.82   26.56   0
   4   2   5   31.59   31.73   0
   2   1  10   -3.17   15.13   0
   3  -3   7   -5.48   33.27   0
   3  -1   9   12.55   27.03   0
   3   0   9   22.66   25.06   0
   3   2   8   18.01   24.39   0
   4   1   2  180.40   37.65   0
   4   2   4    6.53   27.00   0
   2  -1  10    7.49   25.03   0
   4  -2   4   34.47   23.82   0
   4  -2   6    2.51   24.98   0
   4  -1   7   29.13   26.62   0
   4   0   7   31.28   24.43   0
   1  -2  10   -3.12   33.67   0
   2  -3   8    5.36   35.53   0
   2   0  10   -3.44   23.67   0
   3  -3   6    9.33   30.63   0
   4  -2   5   16.69   25.69   0
   4   1   6   54.87   23.12   0
   2   4   7   11.05   26.51   0
   3  -2   8  158.14   43.73   0
   4   1   3  171.17   40.23   0
   3   3   6   55.50   26.38   0
   4  -1   6   -2.34   27.40   0
   4   0   6   16.51   23.49   0
   4   1   4   93.98   30.79   0
   2  -2   9   14.54   33.79   0
   2   2   9   -5.81   21.93   0
   3   1   8   12.24   25.19   0
   4  -1   4   31.16   23.62   0
   4  -1   5    0.92   25.21   0
   0   0  11   -2.03   26.94   0
   1   2  10    2.36   21.48   0
   2  -3   7   51.01   43.15   0
   3  -1   8   20.30   30.36   0
   3   2   7   23.66   27.32   0
   4   0   4   45.25   24.80   0
   4   0   5  219.70   33.59   0
   3   0   8   50.10   26.63   0
   3   3   5   17.03   26.89   0
   1  -1  10   22.18   34.06   0
   3   3   4   89.24   36.08   0
   2   1   9   26.24   26.22   0
   2   4   6   -8.80   29.66   0
   1  -2   9    7.82   35.79   0
   1   1  10   43.81   26.88   0
   1   3   9   21.86   20.67   0
   1   4   8   40.02   24.16   0
   2  -2   8  207.05   43.50   0
   2   0   9    3.32   28.32   0
  -1   0  11   16.96   32.72   0
   0   3  10    3.97   21.18   0
   3  -1   7   33.90   27.74   0
   0   5   8    5.14   23.94   0
   1   5   6  115.79   45.36   0
   3   0   7   66.83   28.58   0
  -1   1  11   -2.13   30.24   0
   2   2   8   17.24   20.67   0
   2   4   5   21.88   31.24   0
   3  -1   6  361.71   43.31   0
   3   2   5   45.85   30.77   0
   0  -1  10    0.98   32.01   0
   0   4   9   25.52   23.66   0
   3   1   6   59.04   26.69   0
   3   2   3   37.32   29.11   0
   3   2   4  230.12   37.49   0
   2  -2   7    1.90   27.82   0
   2   4   4  254.01   46.95   0
   3  -1   5   -6.36   22.78   0
   3   0   6    7.92   25.65   0
   1   2   9   13.81   24.27   0
   2   1   8    4.20   27.27   0
   3   1   5  274.83   41.22   0
   0   2  10   24.52   22.88   0
   1  -2   8   52.55   39.03   0
   1  -1   9    8.90   27.93   0
   2  -2   6  606.01   58.41   0
   2   0   8  110.29   29.35   0
   3   0   4    8.27   23.45   0
   3   0   5  189.23   29.35   0
  -2   1  11    5.89   26.81   0
  -2   2  11    4.33   24.10   0
   0   0  10   13.86   30.13   0
   1   4   7    3.73   23.79   0
   1   5   5    3.17   31.33   0
   2   3   6   56.45   33.07   0
   0   1  10   75.27   32.44   0
   1   1   9   -2.52   25.55   0
   1   3   8    3.54   23.63   0
   2   2   7    1.38   22.24   0
   2  -1   7   22.15   27.12   0
  -1   3  10   -9.50   20.99   0
  -1   6   7   -0.71   24.20   0
   0   5   7   10.97   24.45   0
   1  -2   7   96.55   35.75   0
   2   1   7   27.56   28.70   0
   2   3   5   63.09   28.67   0
  -2   4  10   -5.92   21.50   0
   0   3   9   69.31   24.95   0
   2   0   7  148.10   29.31   0
   0  -1   9   16.57   32.19   0
   0   4   8    2.38   23.78   0
   1  -1   8   36.71   31.68   0
   2  -1   6  761.32   51.11   0
   2   2   6   12.91   24.15   0
  -2   6   8   -3.59   21.58   0
  -1   0  10   40.06   37.12   0
   1   2   8    1.72   22.12   0
   1   4   6   15.86   28.27   0
   2   3   3   55.20   29.78   0
   2   3   4   77.45   27.63   0
  -2   5   9   10.07   20.72   0
  -1   2  10    5.82   22.05   0
  -1   4   9    0.40   20.04   0
   1   3   7   63.43   25.90   0
  -1   1  10   14.63   25.38   0
   0   2   9   30.36   27.06   0
   1   0   8   39.14   27.57   0
   1   1   8   35.58   27.75   0
   2   0   6  187.02   29.28   0
   2   1   6   13.29   21.53   0
  -2   0  10   26.51   38.32   0
   0   0   9   13.74   29.97   0
  -1  -1   9  110.13   42.68   0
   0   1   9   29.64   21.11   0
   0   5   6  194.61   37.26   0
   1  -1   7   52.97   27.03   0
   1   4   5  435.11   41.53   0
   2   2   4  296.06   32.65   0
  -3   4  10    2.53   18.66   0
  -2   3  10   -9.60   17.37   0
  -1   6   6   31.39   28.44   0
   2   1   5  151.73   26.10   0
   0  -1   8   -6.14   29.17   0
   0   3   8   55.13   22.08   0
   1   2   7   14.36   22.90   0
  -2   1  10   13.98   26.28   0
  -1   3   9   30.92   23.87   0
   1   0   7  175.64   34.12   0
   1   3   6   49.63   24.25   0
   1   4   4  -15.47   25.48   0
   1   1   7   59.27   24.07   0
  -1   0   9   70.77   32.29   0
   0   5   5   29.40   26.82   0
   1   4   3   96.19   28.26   0
  -4   4  10   -6.29   20.60   0
  -3   3  10   10.33   24.74   0
  -3   5   9   56.68   22.62   0
  -2   4   9   38.56   23.94   0
  -2   6   7   17.38   20.58   0
  -1   2   9   56.05   26.48   0
  -1   4   8   28.50   22.67   0
   0   0   8   77.67   29.40   0
   0   2   8   38.00   22.25   0
  -3   1  10   16.08   30.87   0
   0   1   8  187.09   34.10   0
   1   2   6    9.92   22.20   0
  -3   2  10   -1.49   28.94   0
  -2   5   8   59.40   21.13   0
  -1  -1   8   10.29   28.50   0
  -1   6   5   -3.29   27.87   0
   0  -1   7    0.91   24.88   0
   1   0   6   86.65   28.36   0
   0   3   7   19.87   18.86   0
   0   5   4  229.82   34.62   0
   1   1   6   -0.28   19.27   0
  -4   3  10    6.81   22.79   0
  -2   0   9  141.26   38.07   0
   1   3   4   47.06   24.08   0
  -5   3  10   13.95   23.99   0
  -4   2  10    9.87   27.58   0
  -2   3   9   21.44   21.90   0
   1   2   5   -0.11   22.05   0
  -4   5   9   10.86   20.66   0
  -4   7   7   35.97   21.43   0
  -3   7   6   -7.26   23.15   0
  -1   3   8   -3.55   19.05   0
   0   2   7   96.24   30.89   0
  -3   4   9   18.88   21.47   0
  -2   1   9   -3.71   28.74   0
  -2   2   9    2.58   21.02   0
  -1   0   8   30.35   27.60   0
  -1   5   6   56.27   24.82   0
  -1   6   4  152.39   34.29   0
  -4   6   8   11.13   19.30   0
  -2   6   6    5.30   19.83   0
  -1   4   7  426.31   34.73   0
   0   1   7   23.59   17.74   0
   0   4   5  142.45   29.88   0
  -2   4   8   16.97   21.60   0
  -1  -1   7  185.63   39.72   0
  -1   2   8  143.97   27.12   0
   0   3   6    2.38   16.67   0
  -3   5   8   39.91   23.10   0
  -2   5   7   -7.01   18.46   0
  -5   5   9   -3.84   15.80   0
  -3   3   9    9.85   22.76   0
  -2   2   9   -8.89   43.55   0
  -2   6   8    9.04   29.81   0
  -2   7   7    1.31   30.55   0
  -1   5   8   -8.07   33.24   0
  -1   7   6  -11.63   28.17   0
   0   3   8   36.20   36.83   0
   0   5   7   21.87   28.46   0
   1   2   7   -4.58   41.36   0
   2   4   4  302.19   62.87   0
  -3   2   9   -1.87   53.91   0
   0   0   7   80.07   53.28   0
   0   2   8   29.38   35.17   0
   0   7   4   56.37   48.49   0
   1   0   6   96.81   45.84   0
   2   1   5  127.11   42.27   0
  -4   5   9    2.69   37.82   0
  -2   3   9   17.07   43.79   0
   1   4   6  -10.10   32.90   0
   1   5   5   39.79   41.85   0
   2   2   5   25.52   33.81   0
  -1   1   8   84.98   52.54   0
   1   6   3   10.62   41.52   0
  -3   3   9   -0.49   42.19   0
  -3   4   9   26.70   39.33   0
  -1   0   7   -0.06   44.71   0
   2   3   4   50.58   41.38   0
   2   4   3    2.78   41.14   0
  -4   4   9    1.82   40.35   0
  -1   4   8   21.02   31.12   0
   0   4   7  109.95   42.42   0
   1   1   6    8.42   29.24   0
  -2   1   8   45.35   46.01   0
   1   3   6   41.66   33.63   0
  -3   6   8    8.74   22.60   0
  -2   5   8   37.99   35.30   0
  -2   8   5   11.53   26.90   0
  -1   3   8    3.18   27.74   0
   0   6   5   -8.24   31.78   0
   0   7   3   14.84   35.43   0
   1   2   6    5.36   31.42   0
   0   2   7   92.10   39.43   0
   0   3   7  -16.09   27.81   0
   0   5   6  253.58   37.93   0
   1   5   4   45.22   35.58   0
   2   3   3   92.06   34.73   0
  -3   7   7   24.80   26.26   0
  -1   5   7  -16.82   29.54   0
  -1   7   5   15.60   33.26   0
  -2   2   8   19.48   33.52   0
  -2   4   8   12.38   30.77   0
  -2   6   7    1.05   23.15   0
  -2   7   6   12.99   26.71   0
  -1   6   6   18.69   25.21   0
  -5   6   8   -3.44   26.52   0
  -1   1   7   24.35   36.14   0
   1   3   5   65.22   27.18   0
  -3   2   8    6.70   42.24   0
  -3   5   8   40.50   28.49   0
  -1   4   7  326.55   50.81   0
   0   1   6   91.40   35.23   0
   0   4   6    6.60   25.23   0
   0   6   4  251.70   42.85   0
   1   2   5   -0.22   20.74   0
   1   5   3    2.84   32.47   0
   1   4   4    5.33   30.46   0
  -4   7   7   22.24   27.19   0
  -4   8   6   20.94   25.65   0
  -3   4   8   63.38   37.57   0
  -2   1   7  285.50   55.19   0
  -1   3   7   21.05   32.80   0
   0   3   6   -2.72   32.28   0
  -5   5   8   26.40   41.49   0
  -4   3   8    0.62   47.59   0
  -4   5   8   20.17   30.72   0
  -3   3   8    2.23   33.88   0
  -2   8   4   16.24   31.81   0
  -1   7   4  207.26   36.26   0
   1   5   2   38.63   39.30   0
  -5   4   8   19.55   36.15   0
  -2   5   7   -3.02   23.99   0
  -1   5   6   61.21   29.82   0
  -6   7   7    5.44   27.83   0
  -4   4   8   17.78   36.48   0
  -3   6   7   10.13   22.71   0
  -3   8   5   42.36   25.07   0
  -5   7   7   15.89   24.87   0
  -3   9   3   -2.46   26.26   0
  -1   6   5   10.41   20.61   0
   0   6   3   38.81   32.11   0
   1   4   3  150.47   34.10   0
  -5   8   6    0.10   21.93   0
  -3   7   6    3.04   19.33   0
  -2   2   7   16.04   32.98   0
  -2   4   7   73.89   33.22   0
  -2   6   6    8.66   21.13   0
  -2   7   5    4.43   25.95   0
   0   4   5  225.60   30.51   0
   0   5   4  222.34   38.36   0
  -6   8   6    7.36   21.10   0
  -1   4   6  -10.85   26.38   0
   0   3   5   84.66   27.47   0
  -4   6   7   65.21   28.80   0
  -3   2   7   10.38   37.64   0
  -3   5   7   13.82   24.65   0
  -2   8   3  103.39   31.30   0
  -1   2   6  401.93   41.95   0
  -1   7   3    0.21   27.46   0
  -1   3   6  351.88   33.49   0
   0   6   2   51.67   29.31   0
  -6   6   7    1.33   28.22   0
  -1   5   5    9.85   27.36   0
  -4   7   6    3.17   21.38   0
  -4   8   5   44.27   21.33   0
  -3   3   7   -3.85   28.57   0
  -3   9   2   30.14   30.63   0
  -2   5   6   -1.06   21.73   0
   0   4   4  139.37   30.95   0
  -6   5   7   12.20   34.93   0
  -3   6   6   -9.22   26.00   0
   0   5   3  143.23   34.32   0
  -5   9   4    6.92   21.15   0
  -4   3   7   30.68   33.60   0
  -3   7   5   -7.62   23.02   0
  -2   6   5    2.33   25.12   0
  -1   7   2  581.39   52.43   0
  -7   7   6    9.25   25.86   0
  -5   5   7    5.58   28.17   0
  -4   4   7   -6.25   30.97   0
  -4   9   3   -1.43   22.55   0
  -2   4   6   12.39   25.74   0
  -2   8   2   42.83   30.95   0
  -5   4   7   30.62   36.96   0
  -5   7   6    2.51   18.85   0
  -2   2   6  438.23   41.57   0
  -1   4   5  257.86   30.89   0
  -5   8   5   65.38   26.31   0
  -3   9   1   47.52   39.78   0
  -2   3   6   89.71   26.82   0
  -6   9   4    2.97   19.79   0
  -3   5   6   45.03   31.30   0
  -1   3   5  282.12   30.39   0
  -1   6   3   10.82   25.15   0
  -6   8   5   35.82   25.02   0
  -4   6   6   27.14   24.50   0
  -1   5   4  132.19   28.30   0
  -1   7   1   25.15   35.67   0
   0   4   3  191.48   27.57   0
   0   5   2  127.96   31.46   0
  -7   6   6    3.38   27.89   0
  -4   8   4   35.69   26.58   0
  -3   2   6   57.40   34.11   0
  -3   8   3    7.35   26.10   0
  -2   5   5  147.19   33.33   0
  -4   7   5   92.56   29.87   0
  -3   4   6   31.02   29.55   0
  -2   7   3    3.17   25.86   0
  -2   8   1   48.60   36.08   0
  -5   6   6   53.44   31.29   0
  -5   9   3   19.34   24.61   0
  -4   9   2  182.77   37.87   0
  -3   3   6   -1.68   31.26   0
  -3   6   5  -10.20   22.45   0
  -2   6   4   11.87   23.77   0
  -6   6   6   15.99   29.25   0
  -4   5   6   68.67   32.68   0
  -3   7   4   -3.93   20.84   0
  -2   4   5  343.84   37.58   0
  -1   4   4   26.68   21.77   0
  -5   7   5  172.79   34.79   0
  -1   6   2  490.98   46.96   0
  -8   8   4   -8.21   21.56   0
  -6   4   6   24.67   39.27   0
  -6   5   6   50.63   34.90   0
  -6   9   3  123.82   32.22   0
  -5   5   6   35.11   32.25   0
  -5   8   4    7.74   21.62   0
  -4   3   6   26.23   36.94   0
  -4   4   6  169.32   34.41   0
  -7   7   5   -2.13   27.82   0
  -3   5   5   33.39   28.99   0
  -3   8   2   -5.45   24.70   0
  -2   7   2  398.59   42.32   0
  -7   9   3    3.25   20.27   0
  -6   7   5   38.10   23.80   0
  -5   4   6  141.96   38.29   0
  -4   6   5   54.86   26.60   0
  -4   8   3   72.91   27.89   0
  -2   5   4   -2.44   24.49   0
  -7   8   4   28.66   25.99   0
  -6   8   4    2.49   21.37   0
  -4   7   4   32.38   28.04   0
  -4   9   1   67.10   37.59   0
  -6  10   0   30.57   32.72   0
  -3   6   4   26.76   29.16   0
  -3   7   3    2.34   24.44   0
  -2   6   3   50.66   25.95   0
  -3   4   5  147.34   35.83   0
  -1   6   1  167.41   37.23   0
  -7   6   5   -0.76   30.36   0
  -5   6   5   53.59   26.77   0
  -8   7   4    5.59   30.47   0
  -8   9   2   10.87   21.39   0
  -4   5   5   97.71   31.34   0
  -3   3   5   20.64   29.34   0
  -3   8   1  105.00   36.35   0
  -2   4   4   83.97   30.10   0
  -1   5   2  119.47   31.20   0
  -7   5   5   43.54   49.63   0
  -6   9   2   10.84   24.56   0
  -6  10  -1   27.52   36.73   0
  -5   7   4   51.42   29.52   0
  -5   8   3  122.90   29.32   0
  -4   9   0   -3.24   36.65   0
  -2   7   1   18.00   27.09   0
  -7   9   2  -11.87   25.32   0
  -4   4   5   23.08   33.20   0
  -6   7   4   25.94   26.90   0
  -4   6   4   93.84   30.57   0
  -3   5   4    5.27   25.89   0
  -2   5   3  181.88   31.93   0
   5  -2   2   47.24   29.31   0
   5  -2   3  146.74   42.19   0
   5   1  -3    7.89   26.07   0
   5   1   6   -8.29   26.49   0
   6  -1   0   15.38   20.29   0
   6   1  -2  152.98   37.16   0
   6   4   0    7.70   19.04   0
   5  -1   5   14.50   31.61   0
   6  -1   3  267.92   48.14   0
   6   2  -2  109.31   37.79   0
   6   2   4    2.48   19.76   0
   6   3   3    7.80   21.59   0
   6  -1   1  192.06   39.88   0
   6  -1   2   17.99   32.12   0
   5   3   5    7.57   23.78   0
   6   1   4   21.17   23.41   0
   5   4   4    3.15   19.25   0
   6   3  -1  226.43   42.96   0
   5   5   2   -6.94   18.89   0
   6   0   0    4.63   22.37   0
   6   0   3  -10.37   28.85   0
   6   3   2   -8.91   22.44   0
   5  -1   4  132.69   40.31   0
   5   0   5    0.22   32.89   0
   5   5  -1    9.19   26.34   0
   6   2  -1   64.58   30.34   0
   6   2   3   18.18   24.03   0
   6   3   1   18.76   26.24   0
   6   0   1   22.20   25.77   0
   6   0   2  114.71   39.28   0
   6   1   3   -3.36   23.42   0
   4  -1   5    4.95   35.63   0
   4   0   6   -3.39   35.55   0
   4   3   6   17.54   29.14   0
   5  -1   1  233.58   43.61   0
   5   1  -2  180.85   37.59   0
   5   2   5   -4.72   24.82   0
   5   5   0    6.85   24.12   0
   6   1   0  151.65   36.75   0
   6   2   0   13.03   24.20   0
   6   2   2   -8.46   25.89   0
   5  -1   2   86.99   38.90   0
   5   1   5    0.14   26.21   0
   5   4  -2    8.37   31.25   0
   6   1   1   90.00   31.14   0
   6   1   2   -3.64   24.59   0
   6   2   1   21.42   27.38   0
   5   4   3    9.81   26.76   0
   4   1   6   45.55   45.67   0
   4   5   4   -0.14   21.28   0
   5   0   4   86.37   37.74   0
   5   2  -2   38.86   34.99   0
   5   3   4   10.47   24.12   0
   4  -1   4   25.52   32.40   0
   4   2   6   80.85   34.78   0
   4   6  -1    7.37   28.90   0
   5   3  -2    8.13   26.89   0
   5   0   0   83.66   30.81   0
   5   4  -1   12.97   27.86   0
   4   6   0    2.21   23.15   0
   5   0   3   63.30   37.16   0
   5   2   4   12.62   22.96   0
   5   4   2   64.03   29.23   0
   4   0   5  177.50   46.23   0
   5   0   1  217.16   38.52   0
   5   0   2  115.38   34.70   0
   5   4   1   -3.76   22.95   0
   5   2  -1   80.75   35.19   0
   5   3  -1  134.00   37.84   0
   5   3   3   36.63   23.52   0
   2   4   7    9.80   35.64   0
   3   4   6   -4.57   26.48   0
   3   6   4   -5.96   16.39   0
   4   5  -2   11.90   30.68   0
   5   1   0   89.80   31.84   0
   5   1   3  -18.44   29.29   0
   3   7   0    8.76   21.62   0
   3   7   1   37.89   25.92   0
   4   5   3   86.25   29.42   0
   5   2   3   22.49   22.60   0
   5   3   2   -2.87   25.55   0
   4   1   5   55.84   35.48   0
   5   1   1   -2.53   19.12   0
   5   1   2   31.11   25.58   0
   5   2   0   24.02   28.12   0
   5   3   1  117.05   33.25   0
   4   0   4   28.51   28.24   0
   4   2   5   51.94   29.46   0
   4   4   4   11.35   19.03   0
   5   2   1   54.46   31.02   0
   5   2   2    1.71   22.10   0
   3   1   6   24.10   31.69   0
   4   4  -2   70.74   34.64   0
   4   5  -1   -4.36   26.10   0
   4   5   2   20.68   21.64   0
   2   3   7   21.20   30.92   0
   3   3   6   23.39   30.16   0
   2   5   6   -0.84   20.30   0
   3   0   5  118.76   38.90   0
   3   2   6  106.50   37.98   0
   3   6  -2   21.79   34.84   0
   3   6   3   32.03   22.37   0
   4   3  -2    5.64   20.17   0
   4   5   0   37.01   24.63   0
   4   5   1  122.44   29.75   0
   2   6   5    5.76   19.37   0
   4   3   4   63.48   24.23   0
   4   4   3   41.73   25.07   0
   4   2   4    0.74   25.36   0
   4   2  -1    3.15   20.39   0
   4   4  -1    9.07   24.05   0
   1   6   6   16.52   20.32   0
   2   7   3   16.65   18.14   0
   3   5   4   -7.05   18.29   0
   3   6   2   17.09   21.37   0
   4   3  -1   -9.92   21.45   0
   4   4   2  104.65   27.73   0
   3   1   5  313.39   42.72   0
   3   6  -1  159.47   32.13   0
   4   1   1    1.51   18.81   0
   4   1   2  177.87   31.96   0
   4   3   3    0.98   19.05   0
   4   4   1  127.30   30.13   0
   4   2   3    7.93   20.24   0
   1   4   7    5.73   28.24   0
   2   4   6   -1.53   19.03   0
   3   2   5   80.01   26.98   0
   3   3   5    4.98   22.55   0
   3   5  -2   88.58   28.86   0
   3   6   0    5.60   19.05   0
   4   2   0   36.46   19.59   0
   4   2   2   35.32   24.13   0
   4   3   0   66.53   25.69   0
   4   3   2    5.38   19.08   0
   2   7   2    6.25   16.41   0
   4   2   1    5.08   15.52   0
   4   3   1    2.51   17.22   0
   2   6   4    3.87   17.78   0
   2   7  -1  187.65   34.32   0
   3   4   4   93.60   27.89   0
   3   5   3   57.34   20.15   0
   1   8   2    1.66   15.42   0
   2   2   6   -2.40   23.61   0
   2   3   6   39.11   24.99   0
   2   5   5   -2.52   19.59   0
   3   4  -2   43.79   25.09   0
   1   8  -1    6.26   24.00   0
   2   7   0   88.55   26.14   0
   3   1   4   63.86   21.95   0
   3   5  -1  227.98   31.34   0
   0   8   4   -0.22   15.22   0
   1   7   4    0.29   15.27   0
   1   8   1  133.37   26.55   0
   3   3   4   80.30   24.14   0
   3   5   2    2.99   16.95   0
   0   5   7   -2.47   23.41   0
   1   5   6  101.34   25.79   0
   1   8   0   19.56   21.05   0
   3   5   1   69.39   22.12   0
   2   6  -2   20.38   25.56   0
   2   6   3   14.22   18.26   0
   3   4   3   79.81   21.19   0
  -1   6   7    6.50   20.86   0
   1   6   5   -4.64   14.40   0
   2   1   5   88.27   27.28   0
   3   4  -1   33.30   22.36   0
   2   5   4    5.99   18.63   0
   3   2   3   52.10   21.43   0
   3   3   3  474.85   38.35   0
   3   4   2   85.43   24.83   0
   0   6   6  185.80   25.17   0
   0   7   5   11.93   15.48   0
  -1   7   6   -2.75   14.48   0
   0   4   7  143.81   31.88   0
   1   7   3   61.15   17.00   0
   2   2   5   16.61   21.46   0
   2   3   5   40.07   23.03   0
   2   6  -1  187.91   30.10   0
   2   6   2   13.56   14.90   0
   3   4   1   79.27   18.64   0
   0   8   3   56.66   17.87   0
   1   4   6    3.59   17.90   0
   1   7  -2   24.34   23.46   0
   3   2   2   33.63   15.21   0
   3   3   2  212.91   28.26   0
   2   5  -2   66.47   24.27   0
   2   6   0    7.57   19.63   0
   2   6   1   33.02   15.61   0
   3   3   1   52.01   16.44   0
  -1   9   2    2.91   17.75   0
   1   2   6    4.81   23.27   0
   1   3   6   41.80   23.20   0
   1   6   4   57.87   19.56   0
   2   4   4  306.23   29.95   0
   2   5   3   14.40   15.84   0
   1   7   2    4.80   14.95   0
   0   8   2    1.04   15.75   0
   1   7  -1   -4.67   19.31   0
  -1   5   7   -2.19   20.50   0
  -1   9   1   37.55   20.38   0
   0   7   4   95.43   20.04   0
   1   7   1    9.95   18.68   0
   2   2   4  273.00   31.66   0
   2   5  -1   47.29   20.77   0
   2   5   2   40.20   19.97   0
  -1   8   4   36.39   14.39   0
  -1   9   0    4.76   22.93   0
   0   5   6  216.18   26.61   0
   0   8  -1  100.18   27.36   0
   1   7   0   73.67   20.63   0
   2   4   3   28.89   20.42   0
  -2   6   7    1.63   20.52   0
   0   6   5   -1.21   17.73   0
   1   6   3    8.28   18.89   0
   2   5   1    6.97   13.89   0
  -2   8   5   27.64   15.81   0
   0   8   0   -2.59   18.19   0
   1   4   5  498.11   34.10   0
   2   3   3   83.77   19.25   0
   4  -2  -5   78.18   19.19   0
   7  -7  -2   14.41   21.79   0
   7  -4  -5   60.35   20.16   0
   8  -7  -2   35.93   22.04   0
   8  -3  -5    8.66   14.94   0
   5  -3  -5  138.48   21.67   0
   6  -6  -3   17.81   20.16   0
   6  -5  -4   38.65   22.08   0
   6   0  -5   18.38   20.62   0
   7  -1  -5   -3.13   19.07   0
   9  -4  -4    3.42   12.84   0
   8  -5  -4   42.89   17.92   0
  10  -5  -2    0.47   13.69   0
   5   0  -5   45.62   18.33   0
   6  -3  -5   51.54   23.14   0
   7  -6  -3   38.80   22.66   0
   7  -5  -4   80.29   24.45   0
   7  -3  -5   40.56   18.48   0
   9  -7  -1    3.44   17.08   0
  10  -4  -2   -2.44   13.10   0
   5  -6  -2  152.29   30.86   0
   5  -2  -5   56.99   18.98   0
   5  -4  -4   -0.75   15.29   0
   5  -1  -5    3.32   15.35   0
   6  -2  -5  225.06   32.53   0
   6  -1  -5    8.59   14.18   0
   7   0  -4    0.54   19.29   0
   9  -5  -3   -2.65   13.44   0
   9  -2  -3    2.12   19.07   0
   5  -5  -3    9.01   18.50   0
   8  -4  -4   -6.99   17.62   0
   9  -6  -2   -0.99   17.81   0
   7  -7  -1   13.82   26.11   0
   8  -7  -1   -5.09   19.51   0
   8  -2  -4   37.49   21.82   0
  10  -5  -1    3.01   12.71   0
   6  -4  -4   10.10   20.06   0
   7  -4  -4    4.57   20.39   0
   8  -3  -4    9.40   15.48   0
   9  -7   0    1.74   18.87   0
   9  -4  -3   -2.87   14.06   0
  10  -4  -1    2.75   12.90   0
   6  -6  -2  123.75   29.50   0
   8  -5  -3    0.03   19.61   0
   5  -3  -4   23.49   16.93   0
   6   0  -4   11.60   21.14   0
   7  -6  -2   31.48   24.38   0
   7  -5  -3   12.80   20.16   0
   7  -3  -4    1.50   19.81   0
   7  -1  -4   16.15   16.96   0
   8  -1  -3    3.96   18.50   0
   9  -7   1    5.39   23.94   0
   9  -5  -2   11.66   18.06   0
  10  -5   0   -0.96   13.20   0
   5  -6  -1   19.91   22.74   0
   6  -3  -4   -1.63   19.46   0
   9  -6  -1    5.40   15.41   0
   9  -2  -2   29.19   24.82   0
   8  -7   0   -2.27   23.92   0
   5  -2  -4   67.69   24.86   0
   5   0  -4    1.47   17.07   0
   7  -7   0    7.19   28.98   0
   7   0  -3   15.67   25.76   0
   8  -4  -3   20.96   20.05   0
   9  -4  -2    6.33   18.99   0
   5  -4  -3    2.35   16.86   0
   5  -1  -4   12.95   19.15   0
   6  -2  -4   39.25   19.92   0
   6  -1  -4    1.07   16.37   0
   8  -2  -3   19.83   22.24   0
   9  -3  -2   36.61   20.56   0
   5  -5  -2   70.16   23.17   0
   8  -3  -3   11.34   19.26   0
   6  -6  -1   19.11   23.49   0
   6  -4  -3   89.59   27.27   0
   7  -4  -3  398.43   37.74   0
   8  -7   1    5.97   26.25   0
   8  -5  -2   17.62   19.19   0
   9  -6   0   47.33   22.07   0
   9  -5  -1    0.24   18.93   0
   9  -2  -1    7.74   19.25   0
   7  -6  -1  -11.75   23.24   0
   7  -7   1   15.91   38.53   0
   7  -5  -2   63.21   24.69   0
   7  -1  -3   -8.96   19.66   0
   8  -1  -2    6.22   20.49   0
   7  -3  -3   82.09   26.78   0
   9  -4  -1   16.53   22.35   0
   9  -3  -1    3.79   19.57   0
   5  -6   0   21.69   27.79   0
   5  -3  -3   25.92   18.28   0
   6   0  -3   12.06   21.13   0
   8  -7   2    6.72   24.78   0
   8  -4  -2   12.97   18.36   0
   6  -3  -3  121.77   25.98   0
   9  -5   0   16.07   20.51   0
   9  -2   0   21.92   20.87   0
   7   0  -2   10.94   24.69   0
   8  -7   3   10.97   30.12   0
   8  -5  -1   58.16   28.66   0
   8  -3  -2   11.91   20.49   0
   6  -2  -3   16.79   22.26   0
   6  -1  -3   -7.61   20.41   0
   7  -7   2   21.38   31.28   0
   9  -6   3    1.95   23.11   0
   9  -2   1   -0.26   18.32   0
   5  -5  -1   27.67   22.78   0
   5  -4  -2   12.41   19.87   0
   6  -6   0   52.01   30.91   0
   7  -6   0   70.05   30.88   0
   7  -4  -2   -1.51   21.12   0
   8  -1  -1   22.77   23.84   0
   9  -4   0    8.79   17.80   0
   9  -3   0    7.29   21.13   0
   6  -4  -2   17.16   21.58   0
   9  -5   1   17.90   23.29   0
   7  -5  -1   85.32   27.20   0
   8  -4  -1  134.01   32.84   0
   7  -7   3    5.15   27.96   0
   7  -3  -2   10.17   24.17   0
   7  -1  -2    1.17   18.87   0
   9  -3   1    1.27   20.98   0
   7  -2  -2   -1.18   25.07   0
   8  -5   0   -4.27   25.24   0
   8  -3  -1   -6.32   24.28   0
   9  -5   2    1.46   18.02   0
   9  -4   1    2.34   17.24   0
   7   0  -1   -3.82   25.02   0
   8  -1   0    2.80   22.87   0
   9  -5   3   -4.59   21.10   0
   9  -3   2    5.73   17.77   0
   9  -3   3   -5.63   18.31   0
   6  -3  -2   58.56   26.06   0
   6   0  -2   18.05   25.20   0
   7  -6   1    5.05   26.47   0
   8  -6   2   45.37   27.49   0
   9  -4   2   -5.48   18.34   0
   6  -6   1  -12.19   26.64   0
   7  -4  -1  119.20   32.79   0
   9  -4   3   10.81   21.39   0
   7  -5   0   21.45   27.57   0
   8  -4   0    1.88   23.93   0
   6  -2  -2   69.65   24.33   0
   6  -1  -2   -0.61   18.78   0
   8  -6   3   39.35   26.87   0
   8  -6   5   -5.89   24.56   0
   8  -5   1   60.33   26.55   0
   8  -1   1    6.84   25.81   0
   5  -5   0   33.58   22.53   0
   6  -5   0    7.93   26.14   0
   6  -4  -1   38.63   19.53   0
   7  -1  -1   -8.57   25.46   0
   8  -6   4    0.16   26.58   0
   8  -3   0    3.25   21.56   0
   7  -6   2  106.37   37.81   0
   7  -3  -1  111.18   29.38   0
   7   0   0   37.28   38.05   0
   7  -2  -1   -3.68   23.67   0
   8  -1   2    6.90   23.30   0
   8  -1   3    2.57   21.03   0
   8  -5   2   11.11   22.72   0
   8  -4   1  127.65   29.33   0
   6  -6   2   36.15   29.58   0
   7  -5   1   17.16   30.34   0
   7  -4   0   15.04   22.94   0
   8  -3   1   61.06   27.72   0
   6  -3  -1   12.43   17.64   0
   6   0  -1    5.60   28.38   0
   7  -6   3   12.32   27.83   0
   8  -5   3   43.03   26.11   0
   7  -6   6   -4.22   34.50   0
   7   0   1   -0.60   29.01   0
   8  -5   4   16.41   22.33   0
   8  -5   5   -1.88   23.31   0
   8  -4   2   10.82   24.38   0
   6  -2  -1  127.50   31.68   0
   7  -6   4    6.53   30.08   0
   7  -3   0  115.65   34.00   0
   7  -1   0    7.06   22.40   0
   5  -5   1  152.45   34.18   0
   6  -5   1   10.37   22.76   0
   6  -4   0    5.54   20.16   0
   6  -1  -1    4.35   20.73   0
   7  -6   5    6.61   33.19   0
   7  -2   0    4.33   27.26   0
   8  -3   2   10.81   21.75   0
   6  -6   3   -0.40   31.64   0
   8  -4   3   -0.70   19.43   0
   8  -4   5    7.49   20.65   0
   8  -3   5    8.10   17.54   0
   7  -4   1   45.46   23.66   0
   8  -4   4    1.19   20.71   0
   8  -3   3   -7.92   18.79   0
   2   2  -7  239.57   30.65   0
   3  -1  -7  173.16   23.66   0
   7  -5  -5   20.82   28.21   0
   7  -2  -8    5.15   14.69   0
   3  -2  -6   45.70   20.67   0
   4  -3  -6   49.55   19.53   0
   4  -2  -7    4.84   14.73   0
   4   0  -8    1.75   21.23   0
   6   2  -8   -0.45   20.21   0
   7   1  -8    8.57   15.84   0
   4   2  -8  105.90   27.04   0
   5  -1  -8    0.62   14.51   0
   6  -4  -6   41.53   24.00   0
   5   2  -8   29.46   20.48   0
   7  -1  -8  117.68   24.21   0
   7   0  -8    4.55   15.32   0
   8  -4  -6    5.80   18.58   0
   3   3  -7   92.55   23.06   0
   6  -1  -8   13.95   15.82   0
   7  -4  -6    1.27   20.50   0
   7   2  -7    8.48   16.30   0
   3   0  -7  322.44   25.84   0
   5  -4  -5    4.67   18.64   0
   5   0  -8    0.78   14.76   0
   6   0  -8   17.79   17.35   0
   9  -3  -6    1.95   14.08   0
   5  -2  -7   94.62   21.10   0
   8  -2  -7   23.70   15.59   0
   9  -4  -5    5.19   19.08   0
   3   2  -7  118.53   22.19   0
   4  -1  -7    0.03   15.15   0
   5  -3  -6    8.81   16.80   0
   5   3  -7    4.32   17.91   0
   8   0  -7    1.37   13.40   0
   4   3  -7   27.94   19.43   0
   8  -1  -7    1.90   13.79   0
   3  -1  -6   97.62   17.88   0
   4  -3  -5    4.59   14.67   0
   6  -2  -7   59.18   17.80   0
   7  -2  -7   40.05   17.17   0
   9  -2  -6   -0.02   11.82   0
   9  -1  -6   -2.68   11.23   0
   4  -2  -6  155.80   21.02   0
   6  -4  -5  121.18   26.36   0
   4   0  -7    7.51   14.08   0
   5  -1  -7    8.92   18.13   0
   6   2  -7   -6.25   13.71   0
   4   2  -7   25.39   15.19   0
   7  -1  -7   -5.05   14.71   0
   8  -4  -5    8.23   16.66   0
   8   1  -6    5.10   12.75   0
   5   2  -7   -9.25   17.80   0
   6  -1  -7    4.65   16.76   0
   6   3  -6    5.61   16.96   0
   7  -4  -5   48.11   22.65   0
   7   0  -7   33.92   17.22   0
   3   0  -6    3.96   15.05   0
   5  -4  -4   -3.70   16.53   0
   5   0  -7    5.55   17.88   0
   3   3  -6   23.40   18.95   0
   5  -2  -6    0.86   14.99   0
   6   0  -7    2.35   17.06   0
   7   2  -6   -4.05   15.85   0
   8  -2  -6   55.17   19.17   0
   9  -4  -4   -0.93   15.96   0
   4  -1  -6    1.56   16.26   0
   5  -3  -5  101.53   23.94   0
   5   3  -6   78.32   25.16   0
   8  -1  -6   30.74   18.99   0
   8   0  -6   -0.15   12.13   0
   9  -2  -5   -2.16   12.51   0
   3   2  -6  194.53   22.77   0
   4   3  -6   96.90   24.48   0
   6  -2  -6   47.05   19.16   0
   7  -2  -6   54.11   18.86   0
   9  -1  -5    2.18   11.55   0
   4  -2  -5   52.55   17.11   0
   6  -4  -4   11.15   18.33   0
   4   0  -6    7.08   15.51   0
   6  -3  -5   51.14   21.26   0
   8  -4  -4    0.75   18.09   0
   5  -1  -6  208.15   26.19   0
   6   2  -6   22.18   17.00   0
   7  -4  -4    2.34   20.84   0
   7  -1  -6   53.68   20.20   0
   9  -3  -4    2.10   17.35   0
   4   2  -6  101.78   20.76   0
   6  -1  -6  146.32   27.97   0
   6   3  -5    7.77   20.94   0
   7   0  -6   42.84   19.12   0
   9  -4  -3   -0.90   19.07   0
   9   0  -4    2.90   12.35   0
   5   2  -6   61.25   20.57   0
   7   2  -5   -4.70   16.50   0
   5   0  -6   96.87   20.58   0
   6   0  -6   29.54   18.04   0
   6   1  -6   -5.40   18.30   0
   8  -2  -5   -4.52   13.75   0
   3   3  -5    3.98   17.21   0
   5  -2  -5   71.23   18.69   0
   8   0  -5    2.01   16.59   0
   9  -2  -4   11.93   13.58   0
   9  -1  -4    9.43   16.49   0
   4  -1  -5  387.08   31.08   0
   5  -3  -4   18.08   16.48   0
   8  -1  -5    2.79   14.16   0
   5   3  -5   27.79   26.24   0
   6  -2  -5  230.17   29.98   0
   7  -2  -5   26.23   16.29   0
   4   3  -5   70.10   25.51   0
   6  -4  -3  118.59   30.43   0
   8  -4  -3    9.30   22.99   0
   9  -4  -2   -0.78   22.95   0
   9  -3  -3   -2.71   16.92   0
   9   0  -3    7.25   15.53   0
   6  -3  -4    8.71   19.36   0
   7   1  -5   58.99   19.59   0
   5  -1  -5   -1.27   18.80   0
   6   2  -5   10.50   15.85   0
   7  -4  -3  355.44   41.86   0
   7  -3  -4   -8.76   17.03   0
   7  -1  -5   15.15   16.49   0
   4   0  -5  268.18   28.13   0
   6  -1  -5    4.82   20.18   0
   6   3  -4   13.01   22.61   0
   7   2  -4    1.18   16.35   0
   9  -2  -3   -7.03   14.98   0
   9  -1  -3   -5.86   16.02   0
   4   2  -5   29.12   21.40   0
   5   2  -5   33.63   21.68   0
   7   3  -2    3.33   19.71   0
   8  -2  -4   53.78   20.77   0
   8   0  -4   14.79   20.91   0
   5   0  -5   42.59   20.72   0
   6   0  -5   33.40   23.54   0
   6   1  -5    5.99   17.92   0
   8  -1  -4   52.08   23.24   0
   9   0  -2    0.53   12.77   0
   5  -2  -4  102.85   24.99   0
   5   1  -5    6.50   20.62   0
   9  -4  -1   27.44   23.78   0
   9  -3  -2   44.62   22.02   0
   7  -2  -4   17.14   20.53   0
   8  -4  -2   10.54   23.10   0
   8  -3  -3   35.32   21.21   0
   8   1  -3   -2.02   18.07   0
   5   3  -4   29.33   24.69   0
   6  -2  -4   48.85   23.12   0
   9   0  -1    3.04   13.73   0
   6  -4  -2    0.35   21.21   0
   7   1  -4   -0.01   13.10   0
   9  -2  -2   16.08   18.93   0
   9  -1  -2    7.22   16.89   0
   4   3  -4   -5.32   22.66   0
   6   2  -4   84.78   26.63   0
   6   3  -3   22.19   26.26   0
   7  -4  -2    0.37   21.13   0
   7  -3  -3   96.54   27.10   0
   7  -1  -4   36.70   21.12   0
   7   2  -3   -6.34   17.15   0
   9  -4   0  -10.88   24.76   0
   6  -3  -3  147.52   27.13   0
   7   0  -4    8.03   15.64   0
   8  -2  -3    9.75   17.17   0
   8   0  -3   26.69   21.13   0
   5  -1  -4   26.36   19.96   0
   6  -1  -4  -15.57   18.34   0
   8  -1  -3   -4.57   18.51   0
   8   1  -2   -4.73   16.00   0
   9  -3  -1   -3.74   16.92   0
   9  -1  -1    8.58   16.11   0
   5   2  -4  323.50   33.71   0
   6   1  -4   57.03   19.50   0
   8  -4  -1  135.43   31.00   0
   8  -3  -2   33.93   20.61   0
  -3   5  -4   44.18   19.81   0
  -1   4  -9  141.38   26.06   0
   0   1  -8   -2.56   25.03   0
   0   2  -9   -6.23   23.02   0
   0   5 -10   37.76   18.40   0
   0   7  -9   43.38   20.34   0
   0   8  -7  100.14   29.96   0
  -1   5  -9   71.67   21.08   0
  -2   4  -7  111.95   24.91   0
  -2   6  -7   -1.49   17.14   0
  -2   7  -6   60.85   21.66   0
   1   1  -9  153.50   32.82   0
   1   6 -10    8.55   14.50   0
  -2   7  -5  154.95   27.85   0
  -1   3  -8   69.82   24.17   0
   2   6 -10   -2.54   13.97   0
  -2   5  -7   19.81   15.87   0
  -1   2  -7   89.82   21.48   0
   1   3 -10   -5.51   19.54   0
   1   5 -10   11.30   16.04   0
  -1   6  -8   37.30   15.28   0
  -1   7  -7    9.10   18.26   0
   0   6  -9   15.91   12.70   0
   1   4 -10   11.32   16.90   0
   2   2 -10    4.53   19.88   0
  -2   4  -6   65.41   15.27   0
  -1   4  -8   11.68   14.78   0
  -1   5  -8  104.11   21.58   0
  -2   5  -6   64.02   16.38   0
   0   4  -9   40.26   17.97   0
   0   5  -9    2.85   15.98   0
  -2   6  -5  103.16   18.99   0
   0   1  -7   -0.48   15.19   0
   0   2  -8   20.06   19.02   0
   2   5 -10   -5.55   14.08   0
  -2   4  -5   12.29   13.75   0
  -2   6  -4    5.21   15.68   0
  -1   3  -7  161.01   22.03   0
  -1   7  -6   23.82   17.04   0
   1   2  -9   38.81   16.96   0
   1   6  -9   -3.57   13.23   0
   1   7  -8   43.81   16.13   0
   2   3 -10   42.97   19.99   0
   2   7  -8   16.12   13.95   0
   3   5 -10    9.12   13.12   0
  -1   6  -7   30.17   16.15   0
   2   1  -9  150.90   30.24   0
   2   4 -10    3.80   16.89   0
  -1   7  -5    1.44   16.41   0
   0   6  -8   19.05   14.92   0
   0   7  -7  137.99   20.58   0
   1   1  -8    7.87   17.15   0
   3   2 -10   11.70   20.57   0
   3   6  -9   23.23   14.80   0
  -1   4  -7  419.32   27.16   0
  -1   5  -7  154.84   21.01   0
   2   6  -9   23.45   11.74   0
   0   3  -8   96.86   17.98   0
   1   5  -9   -7.78   13.92   0
   3   4 -10   67.55   18.00   0
   4   4 -10    2.27   14.62   0
   0   5  -8   45.82   17.02   0
   1   4  -9   -3.39   15.55   0
   1   7  -7  112.95   19.83   0
   3   3 -10   43.29   17.84   0
   4   2 -10   15.69   19.45   0
  -1   3  -6    6.76   15.11   0
   0   4  -8    2.23   14.40   0
   0   7  -6    6.14   15.55   0
   2   7  -7   -1.44   15.73   0
   4   3 -10   22.46   15.00   0
   0   2  -7   45.82   14.53   0
   1   6  -8   87.23   17.71   0
  -1   4  -6   98.30   18.50   0
  -1   5  -6  431.36   28.45   0
   0   6  -7    5.72   13.65   0
   0   7  -5   31.66   17.52   0
   2   2  -9   99.11   23.36   0
   2   5  -9   26.64   15.61   0
  -1   6  -5   -1.29   12.51   0
   1   2  -8   49.22   18.92   0
   1   7  -6   29.99   18.42   0
   3   1  -9   55.85   23.03   0
   4   5  -9    5.49   11.60   0
   2   6  -8   27.68   13.98   0
   2   7  -6    1.28   18.52   0
   3   5  -9   36.47   18.13   0
   3   6  -8    8.02   13.26   0
  -1   6  -4   53.59   18.77   0
   0   3  -7  301.41   25.66   0
   2   4  -9   22.31   14.00   0
   0   5  -7   43.31   14.96   0
   1   1  -7  204.45   24.25   0
   1   5  -8   55.01   15.14   0
   1   7  -5   41.40   19.37   0
   5   4  -9    2.52   12.14   0
   0   4  -7  222.29   22.16   0
   0   6  -6  117.09   19.84   0
   1   3  -8   51.96   17.51   0
   1   4  -8    6.80   16.40   0
   1   6  -7   44.17   15.67   0
   2   1  -8    4.77   18.30   0
   2   7  -5   31.72   23.97   0
   3   2  -9   -5.93   20.55   0
   3   4  -9   39.88   18.64   0
   4   6  -7    1.56   14.46   0
   4   1  -9   -3.54   22.94   0
   4   4  -9    6.06   15.37   0
   2   5  -8    6.69   15.50   0
   6   1  -9   11.10   18.55   0
   6   2  -9    3.06   13.89   0
   0   5  -6   57.63   18.69   0
   0   6  -5   -5.39   17.36   0
   5   1  -9    5.57   20.03   0
   0   3  -6    4.86   15.68   0
   1   5  -7    5.66   17.25   0
   2   2  -8   86.12   21.96   0
   3   5  -8   -0.08   14.20   0
   4   2  -9    6.69   20.40   0
   4   3  -9   36.93   17.14   0
   4   5  -8   11.50   13.70   0
   0   4  -6  109.28   16.33   0
   1   6  -6   22.73   15.03   0
   2   4  -8   -3.13   16.99   0
   4   6  -6   -0.37   17.39   0
   5   2  -9   28.51   21.51   0
   0   6  -4  173.02   22.61   0
   2   3  -8    8.84   14.92   0
   1   3  -7   -1.16   14.30   0
   1   4  -7    6.57   13.80   0
   3   1  -8    6.05   20.22   0
   4   0  -8    0.87   25.75   0
   5   5  -7    8.30   15.04   0
   2   6  -6  185.39   24.31   0
   3   6  -6   41.24   19.01   0
   5   4  -8    2.76   13.87   0
   1   6  -5  584.86   33.28   0
   2   1  -7  369.05   32.95   0
   2   5  -7    1.16   13.31   0
   3   4  -8   37.40   16.23   0
   4   6  -5   -2.25   18.26   0
   1   5  -6  139.53   21.88   0
   3   2  -8   64.13   22.45   0
   4   4  -8   25.32   17.40   0
   6   3  -8   -1.04   13.60   0
   0   4  -5  234.61   21.70   0
   3   3  -8   98.37   19.11   0
   3   5  -7  183.40   24.10   0
   4   5  -7  114.60   23.27   0
   4   6  -4   -2.37   23.36   0
   6   4  -7   12.70   14.52   0
   7   1  -8    0.21   16.47   0
   0   5  -4  620.07   32.96   0
   1   6  -4  111.53   21.29   0
   2   6  -5  455.99   33.58   0
   5   0  -8   -6.91   22.72   0
   2   4  -7    1.47   14.50   0
   3   6  -5    1.22   17.21   0
   4   1  -8    2.83   19.31   0
   4   3  -8  169.47   24.47   0
   5   3  -8   19.89   16.73   0
   6   0  -8   16.61   20.59   0
   1   4  -6   14.34   11.95   0
   2   3  -7   25.10   16.97   0
   1   3  -6   61.87   13.90   0
   2   5  -6  102.87   18.05   0
   6   1  -8    2.19   16.56   0
   2   6  -4    8.21   18.25   0
   3   4  -7   86.39   20.03   0
   3   6  -4   38.53   22.67   0
   5   1  -8    4.86   16.80   0
   5   4  -7   10.71   15.68   0
   3   5  -6   28.18   14.42   0
   4   5  -6   10.66   16.45   0
   4   4  -7   78.13   16.98   0
  -6   3  -2   84.85   37.22   0
  -6   5  -8   46.74   29.09   0
  -6   6  -7   30.68   27.57   0
  -5   6  -3  222.19   38.46   0
  -5   7  -7   57.62   26.21   0
  -5   7  -6   -1.42   26.37   0
  -3   7  -5  175.14   50.84   0
  -6   4  -8   35.43   29.19   0
  -6   5  -3   20.14   23.03   0
  -6   6  -5  211.68   41.33   0
  -5   6  -9    4.46   22.20   0
  -4   7  -5   68.23   36.76   0
  -6   6  -6   75.44   27.54   0
  -5   5  -2  111.65   30.03   0
  -4   7  -8   10.47   26.63   0
  -3   6  -3  189.19   40.47   0
  -4   7  -6   51.16   34.57   0
  -3   7  -8    5.03   32.54   0
  -3   7  -6    6.80   33.43   0
  -6   3  -7    1.11   33.70   0
  -6   3  -3  161.04   46.52   0
  -6   5  -7   26.94   26.40   0
  -6   5  -4  277.09   41.22   0
  -4   7  -7   80.21   28.61   0
  -3   7  -7   95.61   40.78   0
  -5   6  -4   40.51   28.20   0
  -4   5  -2  353.30   43.04   0
  -6   4  -7    0.04   28.38   0
  -6   5  -6   75.28   33.82   0
  -6   5  -5   -7.77   25.61   0
  -5   5  -9    6.49   23.09   0
  -5   6  -8   15.88   27.52   0
  -3   6 -10    4.07   25.24   0
  -2   6  -4   13.50   31.06   0
  -6   3  -6    1.11   33.06   0
  -6   3  -4   23.19   39.91   0
  -5   4  -2  286.86   41.47   0
  -5   5  -3  259.50   42.54   0
  -5   6  -5   91.88   33.39   0
  -2   6 -10    3.98   34.22   0
  -6   3  -5   19.57   35.52   0
  -6   4  -6   32.80   34.71   0
  -5   3  -9   -8.12   26.30   0
  -5   6  -7   51.09   29.74   0
  -5   6  -6  114.91   35.95   0
  -4   6  -9    3.55   24.91   0
  -4   6  -4   21.54   27.33   0
  -5   4  -9   13.12   29.06   0
  -4   5 -10    9.74   22.78   0
  -3   6  -4  109.25   37.69   0
  -5   3  -2  208.76   39.78   0
  -5   5  -8   15.47   32.22   0
  -5   5  -4  567.60   53.79   0
  -4   6  -5   31.81   37.11   0
  -5   2  -8   -7.38   41.41   0
  -5   4  -3   10.19   30.78   0
  -4   5  -3  141.86   33.28   0
  -4   6  -8    0.70   22.11   0
  -3   6  -9    1.06   26.99   0
  -2   6  -5   99.61   46.48   0
  -4   4 -10   -3.60   21.30   0
  -4   6  -7  118.31   34.67   0
  -4   6  -6   -0.69   26.00   0
  -3   6  -5  129.73   40.35   0
  -5   4  -8   34.80   29.58   0
  -5   5  -7   -1.39   26.93   0
  -5   5  -6  143.59   40.95   0
  -5   5  -5   13.13   29.65   0
  -2   6  -9    0.58   36.96   0
  -5   3  -8    2.38   29.51   0
  -5   3  -3   49.84   36.11   0
  -4   5  -9  -14.25   26.49   0
  -3   6  -8   42.82   30.84   0
  -2   6  -6    8.31   39.55   0
  -5   2  -3  172.49   49.18   0
  -5   4  -4   17.99   28.49   0
  -4   1  -9   11.48   38.61   0
  -3   5 -10    6.31   24.93   0
  -3   6  -7   -1.71   34.46   0
  -3   6  -6   22.89   28.55   0
  -2   6  -8   49.22   38.10   0
  -5   4  -7    3.89   30.32   0
  -4   5  -4  134.13   29.18   0
  -2   6  -7    9.92   39.05   0
  -5   2  -7    2.35   35.78   0
  -5   4  -5  -15.05   30.22   0
  -5   2  -4    5.44   37.85   0
  -5   3  -7   38.22   40.16   0
  -5   3  -4  274.36   45.50   0
  -5   4  -6  290.52   42.07   0
  -4   5  -8   15.78   30.49   0
  -5   2  -6   18.88   38.50   0
  -4   4  -9   11.97   30.88   0
  -4   5  -5   38.82   27.33   0
  -2   4 -11    9.78   28.83   0
  -2   5 -10   14.81   29.88   0
  -5   2  -5   60.73   43.32   0
  -5   3  -6   17.66   32.76   0
  -5   3  -5   11.53   29.05   0
  -4   5  -7   13.44   29.27   0
  -4   5  -6  403.99   47.10   0
  -3   5  -9    2.89   28.75   0
  -1   5 -10   13.78   35.14   0
  -4   2  -9   -4.51   28.17   0
  -4   3  -9  -10.01   29.75   0
  -3   4 -10   -5.68   25.62   0
  -4   4  -4  624.49   60.34   0
  -4   4  -8    5.23   34.06   0
  -3   1 -10   16.91   32.18   0
  -3   5  -8    3.33   30.97   0
  -3   5  -5   71.27   30.14   0
  -1   4 -11   13.01   28.38   0
   0   4 -11   10.20   37.02   0
  -4   1  -8    6.12   39.88   0
  -2   3 -11   -0.01   27.25   0
  -2   5  -9  118.26   38.71   0
  -4   4  -7   54.33   38.70   0
  -4   4  -5   19.17   30.96   0
  -3   3 -10   30.77   28.24   0
  -3   5  -7    2.72   25.55   0
  -3   5  -6   22.73   32.76   0
  -2   5  -5   19.13   30.28   0
  -1   5  -9   39.49   40.79   0
  -4   2  -8   37.15   38.26   0
  -4   3  -8   23.69   34.74   0
  -4   4  -6   56.19   34.14   0
  -3   2 -10   31.61   32.83   0
  -2   2 -11    0.40   24.58   0
  -3   0  -9   16.89   39.29   0
  -3   4  -9   15.92   28.44   0
  -2   4 -10   -7.06   29.39   0
  -2   5  -8  258.90   45.60   0
  -2   5  -6   52.50   36.73   0
  -4   3  -4  394.83   48.95   0
  -2   5  -7   12.24   36.97   0
  -1   5  -8   69.76   49.28   0
  -1   5  -7   98.68   49.15   0
  -4   1  -7   35.15   48.33   0
  -4   3  -7   -6.54   28.78   0
  -4   2  -7   63.70   43.50   0
  -4   3  -6  131.52   46.34   0
  -4   3  -5   88.53   35.23   0
  -3   4  -8   32.67   36.08   0
  -1   3 -11    5.44   31.15   0
  -4   2  -4    8.21   34.38   0
  -3   3  -9   26.44   29.95   0
  -1   4 -10   20.05   31.54   0
  -1   2  -7   72.29   32.34   0
   0   3  -9   12.08   29.64   0
   0   6  -6   83.20   26.88   0
   1   3 -10   -8.66   25.92   0
   1   6  -4  110.71   33.44   0
   3   2 -11   -2.58   28.83   0
  -1   5  -6  463.34   37.78   0
   1   5  -9   17.06   19.47   0
   1   6  -7   33.48   22.58   0
  -1   5  -5   66.52   21.40   0
  -1   5  -4  495.28   34.42   0
   0   5  -8   42.28   21.03   0
   2   6  -5  351.21   54.61   0
  -1   3  -7  189.75   27.88   0
   1   6  -5  521.17   41.83   0
   2   4 -10   11.32   20.36   0
   2   6  -6  137.92   35.57   0
   3   5  -9   13.68   22.39   0
   4   4 -10   -2.12   17.26   0
   2   5  -9   24.59   18.22   0
  -1   4  -6  102.66   24.92   0
   0   5  -7   58.01   22.74   0
   3   4 -10   16.44   19.52   0
   5   4  -9    2.94   18.19   0
   0   4  -8   12.83   16.34   0
   1   4  -9    4.33   16.55   0
   1   5  -8   50.90   20.90   0
  -1   3  -6    1.89   19.19   0
   2   3 -10   49.19   20.15   0
   0   2  -8   24.27   24.87   0
   0   3  -8  101.66   24.63   0
   0   5  -6   79.66   19.20   0
   2   2 -10    5.39   21.85   0
   3   5  -8    7.37   19.43   0
   4   5  -5    9.60   31.16   0
   5   3 -10   -5.32   16.49   0
   0   5  -5  169.87   24.28   0
   1   3  -9   12.28   23.22   0
   2   5  -8    2.29   16.23   0
   4   5  -6   16.28   29.72   0
   1   2  -9   18.45   27.51   0
   1   5  -7    2.54   16.82   0
   1   5  -3   38.08   21.08   0
   2   4  -9   28.24   19.55   0
   3   3 -10   29.28   22.55   0
   0   4  -7  243.03   27.13   0
   3   5  -4  112.54   37.47   0
   4   3 -10    9.70   19.21   0
   4   4  -9   -2.26   19.83   0
   1   4  -8    4.77   21.15   0
   1   5  -6  103.37   24.64   0
   2   5  -7   -7.14   19.68   0
   3   4  -9   31.93   21.75   0
   1   5  -4  133.14   25.57   0
   3   5  -6    1.93   27.58   0
   3   5  -5   20.99   29.17   0
   0   3  -7  391.46   36.58   0
   0   4  -6   95.28   23.37   0
   2   5  -4  342.99   45.80   0
   3   1 -10    3.77   26.30   0
   3   2 -10    7.43   20.58   0
   0   2  -7   32.27   24.64   0
   2   3  -9    3.31   23.23   0
   2   5  -5    8.01   22.90   0
   5   2 -10    0.33   18.23   0
   5   4  -7    0.19   29.70   0
   0   4  -5  205.96   30.23   0
   2   4  -8  -13.30   21.49   0
   4   4  -8   32.97   25.50   0
   5   3  -9   -8.51   20.62   0
   1   4  -7    3.48   18.82   0
   5   4  -6   20.78   33.20   0
   5   4  -5   15.87   38.68   0
   6   1 -10    5.80   21.46   0
   1   1  -8   13.19   27.58   0
   2   2  -9   78.59   34.17   0
   3   3  -9    9.81   22.90   0
   3   4  -8   16.39   22.36   0
   0   3  -6   30.82   18.48   0
   1   2  -8   68.72   23.97   0
   2   1  -9  148.68   40.74   0
   4   0 -10   11.76   32.98   0
   4   1 -10    5.43   25.58   0
   4   3  -9   36.40   26.50   0
   1   4  -6   18.85   22.58   0
   6   0 -10   -5.52   22.07   0
   6   2  -9   -0.72   21.06   0
   6   3  -7    5.97   24.63   0
   2   4  -7    6.25   21.13   0
   1   3  -7   14.36   23.43   0
   2   3  -8   12.27   26.48   0
   3   4  -7   52.64   27.09   0
   5   0 -10    0.41   33.01   0
   1   4  -5   29.03   21.38   0
   4   4  -6  118.94   43.89   0
   4   4  -4    5.21   33.17   0
   5   3  -8   15.13   23.73   0
   6   3  -6    2.07   33.63   0
   7   2  -7    1.35   20.80   0
   2   4  -6   40.78   21.12   0
   4   4  -5  231.61   60.09   0
   5   2  -9   21.01   28.99   0
   6   3  -5    4.44   35.46   0
   3   3  -8   72.53   27.83   0
   4   2  -9   17.37   27.37   0
   4   3  -8  129.29   38.23   0
   1   2  -7    5.07   22.28   0
   2   4  -4   14.76   24.10   0
   3   0  -9    8.29   31.21   0
   3   1  -9   28.99   30.78   0
   3   4  -5   25.46   30.15   0
   3   4  -4   52.08   35.16   0
   1   1  -7  228.34   40.46   0
   1   3  -6   42.11   22.98   0
   5   3  -7   -3.74   28.77   0
   6   1  -9    9.93   22.70   0
   6   2  -8   -1.76   23.44   0
   7   0  -9   -1.98   16.69   0
   7   2  -6   17.88   26.43   0
   2   0  -8   -2.55   34.21   0
   2   1  -8    1.63   27.06   0
   2   3  -7   24.07   21.61   0
   7   2  -5   -8.78   30.11   0
   7   1  -8   -2.17   19.75   0
   3   3  -7   86.96   31.42   0
   4  -1  -9    2.18   38.30   0
   4   3  -7   -0.24   28.47   0
   5   1  -9   24.13   20.69   0
   5   3  -6   98.92   40.36   0
   3   2  -8   41.88   24.79   0
   4   0  -9    1.55   29.12   0
   5   2  -8   11.03   27.79   0
   2   1  -8    9.18   18.21   0
   2   6  -7   -0.53   14.60   0
   3   4  -9   46.24   15.56   0
   3   6  -7    4.19   17.45   0
   4   4  -9   11.06   14.82   0
   0   6  -4  155.84   23.99   0
   2   5  -8    2.12   13.69   0
   4   6  -6    3.37   20.42   0
   5   0  -9   -0.45   19.37   0
   1   5  -7   -0.11   15.08   0
   1   6  -6   17.33   14.74   0
   3   0  -8   33.81   22.87   0
   3   3  -9   15.24   15.43   0
   4   5  -8   10.63   15.22   0
   0   3  -6    9.51   15.01   0
   2   0  -7  129.99   24.95   0
   3   5  -8    1.29   13.58   0
   4   1  -9    0.63   20.23   0
   5   3  -9    0.28   14.53   0
   0   4  -6  111.66   17.51   0
   1   2  -7    0.86   16.92   0
   2   4  -8   -4.96   17.25   0
   4   3  -9   39.34   19.73   0
   5   5  -7    3.60   16.36   0
   6   1  -9   10.69   18.75   0
   1   6  -5  570.12   36.17   0
   2   6  -6  180.41   25.96   0
   3   6  -6   44.98   21.01   0
   5   1  -9   10.45   18.75   0
   0   5  -5  160.84   20.61   0
   1   3  -7    3.23   16.08   0
   1   4  -7    0.06   14.14   0
   2   3  -8   31.26   16.64   0
   2   5  -7    0.66   15.23   0
   5   4  -8   -8.09   15.23   0
   1   6  -4  115.80   23.01   0
   3   1  -8    3.11   19.25   0
   3   4  -8   42.31   17.14   0
   7   2  -8   -0.22   12.27   0
   0   5  -4  593.85   34.67   0
   2   6  -5  473.85   37.22   0
   3   5  -7  182.49   23.51   0
   3   6  -5    1.29   19.31   0
   4   4  -8   28.71   15.80   0
   4   5  -7  111.43   24.66   0
   6   4  -7   16.67   16.17   0
   2   1  -7  389.65   36.72   0
   3   3  -8   88.64   23.08   0
   4   0  -8   10.41   22.55   0
   5   5  -6    9.16   15.84   0
   6   3  -8    3.57   12.31   0
   2   6  -4   12.96   22.45   0
   3   2  -8   70.61   20.90   0
   1   4  -6   14.29   16.82   0
   2   4  -7    5.14   14.74   0
   7   0  -8    7.42   20.86   0
   7   1  -8   -1.42   15.01   0
   1   5  -5   10.32   16.13   0
   2   2  -7  262.90   28.50   0
   4   3  -8  182.84   25.65   0
   5   3  -8   17.10   14.91   0
   1   3  -6   51.22   14.91   0
   2   3  -7   28.65   15.49   0
   3   0  -7  253.21   34.03   0
   4   1  -8    9.42   18.43   0
   5   0  -8   -3.00   21.60   0
   6   2  -8   -4.63   14.41   0
   3   4  -7   81.09   20.75   0
   4   2  -8  124.22   20.89   0
   4   5  -6   19.38   17.35   0
   5   4  -7    6.61   14.45   0
   5   5  -5   12.47   21.37   0
   6   0  -8   10.13   20.88   0
   4   4  -7   93.59   21.44   0
   5   1  -8    6.92   20.42   0
   5   2  -8   32.26   20.26   0
   6   1  -8    7.27   16.93   0
   6   4  -6   -2.90   16.26   0
   8  -1  -7   -3.73   16.59   0
   1   4  -5   33.15   16.53   0
   1   5  -4  119.46   19.09   0
   2   4  -6   47.35   15.70   0
   2   5  -5   13.50   14.99   0
   5   5  -4    0.54   20.51   0
   6   3  -7    4.94   14.98   0
   7   2  -7   10.58   11.97   0
   7   3  -6   -1.56   12.41   0
   8   0  -7    0.55   14.35   0
   3   1  -7  163.73   23.51   0
   3   3  -7  131.11   20.53   0
   3   2  -7  130.10   21.42   0
   3   5  -5   17.28   18.80   0
   4   5  -5   40.99   18.42   0
   1   5  -3   28.91   19.77   0
   4   0  -7   13.86   19.64   0
   4   3  -7   24.36   18.30   0
   5  -1  -7    9.23   20.58   0
   5   3  -7   10.21   16.41   0
   5   4  -6    6.74   17.41   0
   6   4  -5    5.14   15.94   0
   2   3  -6   77.44   15.48   0
   3   4  -6   -5.71   15.75   0
   2   5  -4  396.57   29.11   0
   4   4  -6   85.70   21.31   0
   6   2  -7    2.81   14.36   0
   7  -1  -7   -1.72   16.89   0
   7   1  -7   -0.18   14.86   0
   8   2  -5    2.49    9.58   0
   4   2  -7   12.84   14.57   0
   4   5  -4    6.24   16.90   0
   6  -1  -7    2.97   18.81   0
   7   0  -7   17.25   17.06   0
   7   3  -5    0.16   12.02   0
   8   1  -6    8.81   12.07   0
   2   4  -5    9.98   12.13   0
   3   5  -4  165.57   24.94   0
   5   2  -7    7.77   15.27   0
   6   3  -6    8.61   13.69   0
   6   4  -4   -2.89   15.92   0
   4   5  -3    7.21   22.30   0
   5   0  -7    5.25   14.45   0
   6   1  -7    6.21   15.92   0
   7   2  -6    1.09   13.26   0
   2   5  -3  156.14   22.38   0
   3   3  -6   30.27   13.67   0
   6   0  -7    8.21   15.49   0
   8  -2  -6   13.81   20.65   0
   3   4  -5   32.07   15.65   0
   3   5  -3   51.36   18.48   0
   4  -1  -6    6.68   15.99   0
   5   3  -6   84.44   19.07   0
   6   4  -3    6.26   15.74   0
   3   2  -6  174.53   17.55   0
   4   3  -6  128.90   18.35   0
   8   2  -4   -0.17    9.80   0
   5  -2  -5   65.58   25.21   0
   8  -1  -5   -5.54   18.92   0
   9  -4  -3    2.09   23.45   0
   9  -2  -4   20.39   20.35   0
   9  -1  -4    4.69   16.79   0
   4  -1  -5  403.47   35.32   0
   5  -4  -3    7.00   19.71   0
   8   1  -4    4.03   16.49   0
   9   0  -3    8.57   17.31   0
   5  -3  -4   26.87   18.18   0
   6   2  -5   -0.67   18.83   0
   7  -2  -5    4.75   20.61   0
   7   1  -5   44.54   22.96   0
   6  -2  -5  240.20   30.06   0
   7   2  -4    5.89   19.81   0
   8  -5  -2   23.73   27.50   0
   7  -5  -2   33.76   28.70   0
   8  -3  -4   13.36   15.65   0
   4   0  -5  279.10   29.29   0
   4   2  -5   18.72   19.76   0
   5  -1  -5    2.31   19.31   0
   5   2  -5   18.31   25.34   0
   7  -1  -5   11.67   16.74   0
   7   0  -5   14.09   15.97   0
   8  -4  -3   36.35   25.54   0
   9  -3  -3   10.63   17.95   0
   4   1  -5   55.36   20.51   0
   6  -4  -3  117.02   31.39   0
   6  -1  -5   15.49   20.75   0
   6   1  -5    8.17   20.74   0
   7  -3  -4   -2.02   22.36   0
   8   0  -4   17.24   18.73   0
   9  -4  -2    7.40   18.11   0
   9  -1  -3    8.44   15.77   0
   7  -4  -3  343.72   41.84   0
   8  -2  -4   73.25   23.63   0
   9  -2  -3  -10.95   18.41   0
   9   0  -2   -1.30   14.61   0
   5   0  -5   42.30   17.92   0
   5   1  -5    6.94   16.20   0
   5   3  -4   11.37   26.03   0
   6   0  -5   33.17   18.96   0
   8  -1  -4   51.88   23.55   0
   8   1  -3    0.02   17.08   0
   8  -5  -1   66.05   32.47   0
   5  -2  -4   64.06   27.13   0
   6   3  -3   21.13   26.03   0
   6   2  -4   60.90   28.27   0
   7  -2  -4    5.44   18.98   0
   7   2  -3   -5.61   21.10   0
   8  -3  -3   52.53   23.40   0
   9  -3  -2   47.19   25.26   0
   6  -2  -4   69.66   20.29   0
   7  -5  -1   63.73   35.56   0
   8  -4  -2   -6.24   25.10   0
   9  -4  -1    8.63   23.06   0
   9  -1  -2    0.18   17.11   0
   7  -1  -4   39.20   20.85   0
   7   0  -4    0.43   17.11   0
   8   0  -3   32.50   23.73   0
   9  -2  -2   22.46   21.09   0
   8  -2  -3   10.83   23.40   0
   8   1  -2    6.18   18.88   0
   4   2  -4  224.34   34.91   0
   5  -1  -4   27.30   22.89   0
   5   2  -4  316.36   42.70   0
   6  -4  -2    0.81   24.49   0
   6  -1  -4   -6.36   24.08   0
   7  -4  -2   12.46   26.06   0
   8  -5   0   13.59   28.75   0
   8  -1  -3    0.27   21.52   0
   9  -4   0    6.20   26.59   0
   9  -1  -1   10.74   21.56   0
   5   3  -3  109.31   42.73   0
   6   0  -4   30.12   21.19   0
   6   3  -2    2.69   26.25   0
   7   2  -2   30.60   25.95   0
   5   0  -4   -1.68   21.26   0
   5   1  -4  109.95   26.79   0
   8  -3  -2   26.62   28.36   0
   8   1  -1    2.70   20.62   0
   9  -2  -1    6.32   17.55   0
   6   2  -3   41.92   30.57   0
   7  -2  -3   11.45   23.84   0
   8  -4  -1  159.69   36.82   0
   8   0  -2   42.94   25.57   0
   9  -4   1    8.03   28.24   0
   9  -1   0    4.14   20.26   0
   7   0  -3   69.29   30.23   0
   8  -5   1   23.29   43.81   0
   4   3  -3  100.65   40.47   0
   6  -2  -3    8.57   26.11   0
   7  -1  -3   -5.72   21.22   0
   8  -2  -2   23.31   22.50   0
   8  -1  -2   18.76   26.05   0
   9  -4   2  -11.85   24.82   0
   9  -2   0   -6.09   24.12   0
   9  -1   1    8.36   18.59   0
   7   2  -1    2.21   25.53   0
   7  -4  -1  180.44   41.65   0
   8   1   1   -1.57   19.94   0
   5   2  -3  165.40   39.85   0
   6  -4  -1   26.57   29.67   0
   6  -3  -2   86.14   30.34   0
   6  -1  -3    1.31   25.41   0
   8  -4   0    3.48   28.92   0
   8   0  -1   55.77   27.64   0
   9  -2   1   11.96   19.34   0
   6   0  -3    0.37   22.21   0
   9  -3   2    6.25   21.85   0
   9  -2   2    0.28   19.70   0
   4   2  -3   10.07   24.68   0
   5  -1  -3  157.76   30.20   0
   5   3  -2   -4.19   28.95   0
   6   2  -2  133.24   37.56   0
   7  -2  -2    6.96   25.10   0
   7   2   0   16.65   26.13   0
   7   0  -2   15.00   23.96   0
   8  -2  -1   14.25   19.73   0
   8  -1  -1    9.39   22.12   0
   5   0  -3   41.52   21.33   0
   6   3   0   14.08   26.34   0
   7  -1  -2    2.12   24.88   0
   8   0   0   27.30   23.32   0
   7   2   1   26.72   25.19   0
   8  -4   1  114.67   33.56   0
   6  -2  -2   77.10   20.33   0
  -4   5   8   37.75   37.75   0
  -3   4   8  104.72   39.96   0
  -1   6   4  133.07   59.25   0
  -5   7   7   23.80   24.62   0
   0   3   5  108.79   39.48   0
  -5   2   8   23.38   43.60   0
  -4   8   5   47.98   33.43   0
  -3   3   8   12.48   28.55   0
  -2   4   7   87.47   38.47   0
  -2   7   4   18.31   39.44   0
  -6   3   8    4.88   39.26   0
  -6   7   7    7.17   23.46   0
  -5   5   8   43.51   31.32   0
  -4   2   8   34.04   37.56   0
  -1   5   5   37.21   25.87   0
   0   4   4  140.59   35.52   0
  -4   4   8   33.08   27.65   0
  -4   6   7   94.10   33.03   0
  -6   4   8   31.28   33.40   0
  -3   5   7   28.63   24.37   0
  -2   2   7   10.32   25.21   0
  -2   3   7  110.05   31.13   0
  -1   1   6  288.63   32.80   0
  -1   3   6  377.75   38.63   0
  -5   3   8   10.43   26.44   0
  -3   7   5   -7.15   25.21   0
  -2   6   5    4.98   25.18   0
  -3   1   7  138.15   38.22   0
  -4   1   7    5.76   32.78   0
  -5   6   7   28.17   23.27   0
  -3   4   7  -22.63   21.29   0
  -6   6   7   -4.99   22.69   0
  -5   8   5   64.13   26.61   0
  -4   5   7   45.16   26.49   0
  -1   5   4   74.83   32.45   0
  -5   7   6    2.85   21.01   0
  -3   3   7   -3.68   21.73   0
  -2   4   6    0.36   19.56   0
  -7   4   7   -6.08   32.02   0
  -7   5   7    0.05   26.16   0
  -5   9   3   11.91   32.73   0
  -4   8   4   36.15   29.76   0
  -5   2   7   69.67   40.60   0
  -4   2   7    0.90   26.82   0
  -1   3   5  258.60   32.00   0
  -7   7   6   -4.48   19.93   0
  -6   3   7   93.65   41.14   0
  -6   5   7   -6.50   25.80   0
  -6   7   6   -0.17   22.21   0
  -6   8   5   30.67   26.50   0
  -5   5   7   -7.45   23.04   0
  -4   4   7    2.67   23.51   0
  -4   6   6   41.67   22.96   0
  -3   5   6   80.29   25.90   0
  -2   2   6  447.77   39.71   0
  -2   3   6   65.45   25.79   0
  -2   6   4   -7.29   29.18   0
  -8   6   6    2.45   25.07   0
  -3   7   4    1.10   24.94   0
  -7   8   5    2.57   18.67   0
  -6   4   7    7.78   38.58   0
  -5   3   7  135.22   42.69   0
  -5   4   7   67.75   32.44   0
  -8   5   6    2.70   30.81   0
  -1   4   4   19.90   23.15   0
  -1   5   3  212.94   39.33   0
  -5   6   6   38.75   34.21   0
  -4   1   6   17.98   37.68   0
  -3   4   6   -4.91   30.42   0
  -6   9   3  109.10   40.51   0
  -5   8   4   -1.92   27.83   0
  -2   4   5  290.99   45.41   0
  -7   6   6   10.31   28.44   0
  -5   7   5  178.68   41.95   0
  -4   5   6   66.38   32.42   0
  -4   8   3   56.59   40.33   0
  -3   3   6    5.69   31.77   0
  -8   7   5   10.77   30.26   0
  -6   6   6   34.13   28.98   0
  -5   9   2   27.06   41.43   0
  -6   9   1   81.66   82.50   0
  -4   7   3    4.26   72.90   0
  -7   6   1   23.75   74.89   0
  -7   7   1   50.52   84.38   0
  -5   6   3  105.34   74.33   0
  -6   5   2   47.15   70.42   0
  -5   5   3   -1.63   45.52   0
  -5   8   2   53.89   57.82   0
  -5   9   1   45.82   54.60   0
  -4   8   2    6.70   53.84   0
  -6   7   2   38.69   49.77   0
  -6  10  -1   20.16   38.19   0
  -4   6   3  -24.59   45.90   0
  -2   7   2  400.31   75.10   0
  -7   8   0   39.35   41.94   0
  -6   4   1   -2.46   62.25   0
  -2   5   3  202.90   47.33   0
  -2   8   1   45.02   49.57   0
  -1   6   2  434.42   70.61   0
  -7   6   0   84.48   54.09   0
  -5  10  -1  -12.56   25.66   0
  -4   5   3   46.04   35.85   0
  -4  10  -1   15.69   29.88   0
  -7   7   0   31.76   42.26   0
  -6   8   1  164.50   42.07   0
  -6   9   0   -4.61   29.08   0
  -3   5   3  333.69   48.05   0
  -7   9  -2    6.92   26.05   0
  -6  10  -2   47.37   29.30   0
  -5   7   2  210.48   43.87   0
  -3   9   0   -0.68   29.99   0
  -3  10  -2    7.07   31.94   0
  -3   7   2   -4.41   25.55   0
  -7   6  -1   -3.32   36.04   0
  -7   8  -1   29.42   37.72   0
  -7   9  -3   28.75   35.18   0
  -6   5   1   14.55   36.48   0
  -6   7   1   95.23   36.83   0
  -5   6   2  174.28   41.78   0
  -5   9   0   42.30   28.15   0
  -4   7   2   18.83   24.67   0
  -3   8   1   56.78   35.35   0
  -2   9  -1   59.78   35.11   0
  -7   7  -1   33.76   34.02   0
  -6   6   1   17.08   34.50   0
  -6  10  -3   -0.53   22.59   0
  -5   5   2   92.29   33.71   0
  -5   8   1   16.24   24.93   0
  -4   9   0   26.77   26.44   0
  -2   6   2  150.91   37.64   0
  -6   9  -1   24.51   30.93   0
  -6  10  -4   34.70   24.79   0
  -5  10  -2  101.54   28.08   0
  -4   8   1   32.04   25.75   0
  -7   8  -2   98.07   39.59   0
  -6   8   0   37.03   34.36   0
  -7   7  -2   48.68   49.15   0
  -7   8  -4    2.98   39.65   0
  -4   6   2   56.48   27.98   0
  -3   6   2   -0.86   31.96   0
  -3  10  -3   15.11   29.41   0
  -7   8  -3   58.42   43.66   0
  -5   7   1  145.40   44.77   0
  -4   5   2  -32.87   29.64   0
  -2   7   1   47.38   33.34   0
  -2   8   0  551.18   61.44   0
  -7   7  -3    2.31   38.01   0
  -6   5   0   28.13   43.72   0
  -5   9  -1   36.80   34.91   0
  -5  10  -3   25.15   27.95   0
  -3   9  -1   63.42   39.01   0
  -6   9  -2   15.28   28.76   0
  -5   8   0    7.04   34.37   0
  -4  10  -3   34.81   31.24   0
  -3   5   2   66.13   34.79   0
  -1   6   1  154.52   48.35   0
  -6   6   0  121.24   43.08   0
  -6   8  -1  103.65   41.86   0
  -5   6   1   59.39   39.30   0
  -5  10  -4   19.28   27.34   0
  -4   7   1  166.46   45.11   0
  -4   9  -1   63.48   34.59   0
  -3  10  -4    7.92   29.83   0
  -2   9  -2   49.19   43.45   0
  -5  10  -5   22.77   26.28   0
  -4   8   0  125.63   41.58   0
  -1   7   0  276.93   57.55   0
  -6   9  -3   52.26   35.60   0
  -4  10  -4   -0.18   29.06   0
  -3  10  -5   15.63   32.53   0
  -6   5  -1  -10.99   43.74   0
  -6   9  -5    4.04   29.12   0
  -5   7   0    5.30   35.74   0
  -5   9  -2   27.98   30.84   0
  -4   6   1  294.26   52.88   0
  -4  10  -5   11.89   26.28   0
  -2   6   1  186.85   40.28   0
  -7   5  -1    8.24   16.68   0
  -6   5   0    5.86    6.95   0
  -5   8  -3   -2.82   10.73   0
  -7   7  -3    3.31   16.39   0
  -3   8  -5   15.08   23.19   0
  -6   7  -2   68.08   25.83   0
  -6   8  -7   11.12   17.84   0
  -6   8  -4    1.44   14.43   0
  -4   8  -4  256.46   39.63   0
  -7   6  -2  141.99   35.24   0
  -6   4   0    5.50   23.22   0
  -6   6  -1  -17.70   25.34   0
  -5   8  -4   25.67   28.41   0
  -4   7  -2    0.36   30.05   0
  -3   8  -7   16.27   47.75   0
  -3   8  -6  174.10   48.85   0
  -7   7  -4   59.48   31.31   0
  -6   8  -6   -0.59   25.20   0
  -6   8  -5    2.30   20.25   0
  -5   5   0   52.62   28.53   0
  -5   7  -2    3.47   24.31   0
  -4   8  -8   21.62   30.63   0
  -7   7  -6    7.03   26.52   0
  -7   7  -5    2.54   28.21   0
  -4   8  -5   53.91   40.61   0
  -2   6  -2  438.75   49.05   0
  -2   7  -4   53.75   35.98   0
  -7   5  -2   60.92   48.24   0
  -5   6  -1  126.75   32.77   0
  -5   8  -7    8.76   25.98   0
  -5   8  -5    8.73   25.72   0
  -4   6  -1  342.63   38.61   0
  -3   7  -3  182.41   44.28   0
  -7   4  -2   -0.68   42.79   0
  -7   6  -7   -3.72   26.87   0
  -7   6  -3  -20.12   35.43   0
  -6   7  -3   53.40   29.02   0
  -5   8  -6    1.62   26.21   0
  -4   8  -7   52.86   36.58   0
  -4   8  -6  179.54   44.87   0
  -6   5  -1    2.59   28.68   0
  -6   7  -8   10.61   20.61   0
  -6   6  -2   29.25   30.12   0
  -5   7  -3   83.76   35.61   0
  -4   7  -3  106.65   39.02   0
  -7   5  -3   15.89   32.24   0
  -7   6  -6   -0.42   27.57   0
  -7   6  -4  -16.35   30.70   0
  -6   7  -4    0.12   29.05   0
  -2   7  -5  151.72   48.58   0
  -7   6  -5    2.26   26.71   0
  -6   4  -1    0.34   31.79   0
  -3   7  -4  219.19   44.19   0
  -7   4  -3   30.13   39.67   0
  -6   7  -7   19.81   19.92   0
  -6   7  -5   17.65   27.84   0
  -5   5  -1  166.35   36.54   0
  -5   6  -2   15.12   26.63   0
  -7   4  -6   -3.47   34.46   0
  -7   5  -6   -1.42   29.65   0
  -7   5  -4   -5.88   30.45   0
  -6   7  -6    6.12   20.15   0
  -5   7  -4   23.82   28.29   0
  -4   6  -2  105.24   28.07   0
  -3   7  -9    8.42   32.83   0
  -2   6  -3  304.63   39.66   0
  -2   7  -8   26.39   40.99   0
  -2   7  -6   39.92   38.63   0
  -7   4  -4   13.56   39.83   0
  -7   5  -5    2.80   26.61   0
  -6   5  -2   14.14   28.74   0
  -6   6  -3    4.62   21.45   0
  -4   7  -4   21.70   23.75   0
  -2   7  -7   -6.36   35.82   0
  -7   4  -5    2.71   30.97   0
  -6   6  -8   34.50   23.25   0
  -5   7  -8   -3.29   15.25   0
  -3   7  -5  198.58   40.58   0
  -5   7  -5  139.79   27.88   0
  -6   6  -4   16.19   26.99   0
  -5   7  -7   41.37   22.96   0
  -5   7  -6   -0.94   23.99   0
  -4   7  -5   65.98   28.71   0
  -3   7  -8  -13.46   28.56   0
  -6   4  -2   19.87   36.64   0
  -5   6  -9   -1.53   21.56   0
  -5   6  -3  209.35   33.01   0
  -3   7  -6    0.58   35.93   0
  -6   6  -7   17.51   24.68   0
  -6   6  -5  190.44   42.89   0
  -4   6  -3  182.11   38.23   0
  -4   7  -7  100.68   36.36   0
  -4   7  -6   60.63   31.44   0
  -3   7  -7  107.62   42.33   0
  -6   6  -6   67.16   34.43   0
  -5   5  -2  123.97   32.65   0
  -6  10   0   29.07   22.35   0
  -4   9   1  101.23   25.26   0
  -4  10  -1   30.35   22.71   0
   1   5  -1    2.27   20.57   0
  -4   7   3   11.87   21.85   0
  -3   9   0   11.89   19.32   0
   0   5   1  185.94   24.17   0
   0   6   0   21.84   20.82   0
  -7   9   1   24.11   26.88   0
  -2   9  -2   90.21   23.37   0
   0   7  -2   12.11   19.68   0
  -2   5   3  172.98   23.68   0
  -5   7   3  265.63   37.37   0
  -5  10  -1   -4.05   15.33   0
  -4  10  -2    2.68   14.61   0
  -3   6   3   93.36   20.45   0
  -2   8   0  576.68   33.81   0
  -2   9  -5   19.92   24.57   0
  -2   9  -3   34.01   20.71   0
  -1   5   2  133.81   20.36   0
  -1   7   0  322.47   26.18   0
   0   7  -3  107.56   26.29   0
   1   5  -2  489.12   36.41   0
  -6   9   1   54.38   24.58   0
  -3   8   1   72.24   18.60   0
  -2   9  -4   40.51   23.33   0
  -1   6   1  181.28   23.41   0
   0   7  -4   37.90   21.95   0
  -6  10  -1    5.13   17.99   0
  -5   8   2   37.71   21.10   0
  -4  10  -3   52.59   20.53   0
  -3   7   2   -1.95   15.69   0
  -3   9  -1   73.97   21.05   0
  -2   6   2  155.19   22.52   0
  -1   8  -5   13.43   22.18   0
  -1   8  -3    0.99   19.52   0
  -6   8   2   -4.54   17.69   0
  -4   9   0   15.96   14.47   0
  -2   7   1    1.05   14.70   0
  -1   8  -4    3.89   17.44   0
  -5  10  -2  131.34   25.29   0
  -4   6   3   12.22   19.99   0
   0   5   0  138.71   20.05   0
  -3   5   3  310.52   29.61   0
  -2   8  -1   49.24   19.02   0
  -1   7  -1   47.68   20.82   0
  -3   9  -2  232.25   28.34   0
  -6  10  -2   29.64   16.05   0
  -5   6   3   51.31   23.77   0
  -5   9   0   27.06   18.29   0
  -5  10  -3   30.27   18.57   0
  -4   7   2   -0.30   19.54   0
  -4   8   1   30.39   14.33   0
   0   6  -2   10.07   19.05   0
  -7   9   0  -10.54   17.20   0
  -5  10  -4   -4.25   16.20   0
  -4   9  -1   63.13   20.53   0
  -3   8   0   18.05   14.62   0
  -3   9  -6    5.28   25.23   0
  -6   9   0    5.06   16.68   0
  -6  10  -3    4.70   13.77   0
  -3   9  -3   34.04   20.13   0
  -2   7   0  523.76   33.79   0
  -2   8  -2  118.97   21.61   0
  -1   6   0  520.96   28.39   0
  -6  10  -4    2.22   17.29   0
  -3   7   1   21.04   16.74   0
  -7   8   1   52.31   28.74   0
  -5   7   2  179.00   34.09   0
  -5   8   1    3.66   16.92   0
  -4   5   3   40.82   24.97   0
  -3   9  -5   -0.26   20.36   0
  -2   6   1  141.83   18.00   0
   0   6  -3  215.51   26.21   0
  -6   7   2    8.61   24.09   0
  -6   8   1  177.61   30.94   0
  -5   9  -1   31.00   19.74   0
  -4   9  -2    0.66   16.37   0
  -3   8  -1   11.43   18.22   0
  -2   8  -6    2.72   20.30   0
  -1   7  -3   54.28   21.22   0
   0   6  -4  155.84   26.42   0
  -4   8   0   71.40   17.70   0
  -7   9  -1   87.37   22.00   0
  -6   9  -1   34.01   19.24   0
  -2   7  -1   41.31   17.84   0
  -2   8  -5    7.01   18.32   0
  -2   8  -4  140.16   25.46   0
  -1   6  -1  711.19   33.03   0
  -1   7  -4   39.34   21.85   0
  -4   6   2   73.77   20.25   0
  -4   2  -6   17.99   33.42   0
  -4   4  -8   -6.47   34.02   0
  -4   5  -8    6.19   24.13   0
  -4   6  -7  115.80   32.22   0
  -4   6  -6   22.19   32.10   0
  -4   6  -5   42.21   29.10   0
  -3   7  -7  120.43   32.87   0
  -2   4 -11   29.23   25.41   0
  -2   7  -5  139.69   40.96   0
  -4   2  -5    4.49   33.24   0
  -3   6  -9   -7.62   22.33   0
  -2   6  -3  292.82   44.03   0
  -1   7  -9   -1.55   24.74   0
  -4   3  -7   14.22   29.50   0
  -4   5  -4  135.30   27.52   0
  -2   6 -10   20.60   19.87   0
  -4   5  -7    4.83   21.57   0
  -2   7  -6   37.50   27.61   0
  -1   7  -6    8.11   37.37   0
  -4   3  -6   97.87   33.44   0
  -4   3  -4  369.28   33.20   0
  -4   4  -4  679.95   42.55   0
  -4   5  -6  333.95   38.74   0
  -4   5  -5   48.48   21.49   0
  -2   7  -7    9.73   20.27   0
  -1   7  -8   44.09   27.21   0
  -4   3  -5   49.19   27.39   0
  -3   3  -9   23.79   24.04   0
  -3   5  -9   13.45   21.00   0
  -3   6  -8   24.37   22.23   0
  -1   7  -7    0.70   23.06   0
  -4   4  -5    7.47   19.75   0
  -3   6  -5  136.39   28.43   0
  -2   2 -10   15.07   25.58   0
  -1   5 -11    2.97   17.59   0
  -3   6  -7   23.44   21.90   0
  -3   6  -6   17.65   20.94   0
  -2   6  -4    1.77   20.60   0
  -1   6 -10   16.82   18.79   0
  -3   2  -8  117.83   33.56   0
  -2   5 -10    6.93   15.44   0
  -2   6  -9    3.40   16.01   0
  -1   2 -11    5.30   20.52   0
  -3   5  -8   17.62   20.54   0
  -1   6  -4   34.97   25.61   0
   0   6 -10   20.83   18.11   0
  -3   5  -4   40.00   20.18   0
  -2   3 -10   11.00   23.52   0
  -2   4 -10    0.44   20.00   0
  -1   4 -11   10.55   17.19   0
  -3   3  -8  182.87   33.01   0
  -2   6  -8   45.88   23.26   0
  -2   6  -5   74.96   25.11   0
  -1   3 -11    3.95   17.68   0
   0   5 -11    0.62   13.37   0
  -3   4  -8    9.20   17.85   0
  -3   5  -7   -1.23   18.23   0
  -3   5  -5   28.10   19.94   0
  -1   6  -9    5.58   18.24   0
  -3   2  -7    6.48   25.24   0
  -3   5  -6   10.37   21.26   0
  -2   5  -9  146.05   27.02   0
  -2   6  -7   -1.82   15.18   0
   1   6  -9   -5.57   22.70   0
  -1   5 -10   -1.89   19.57   0
  -1   6  -5    1.31   23.11   0
   0   6  -9    2.38   19.12   0
  -3   3  -7    7.93   23.92   0
  -3   4  -7   29.67   18.84   0
  -1   1 -10    5.07   31.36   0
  -3   2  -6  173.10   30.77   0
  -3   4  -6  174.25   27.78   0
  -3   4  -5   67.70   21.16   0
  -2   2  -9    7.56   23.68   0
  -1   6  -6  139.74   30.48   0
   0   1 -11    8.23   24.12   0
   1   6  -8   47.21   33.50   0
  -2   4  -9   93.28   22.68   0
  -2   5  -8  236.75   33.49   0
  -2   5  -4    4.48   16.67   0
  -1   6  -7   22.14   20.28   0
   0   4 -11   -6.35   17.34   0
   0   6  -8   20.54   22.45   0
   1   6  -7   17.43   31.97   0
  -2   3  -9   -2.27   20.46   0
  -5   6   0   20.01   31.12   0
  -5   8  -1    5.61   24.43   0
  -4   6   1  338.20   35.02   0
  -4  10  -5   -1.32   17.49   0
  -3   8   0    0.28   26.08   0
  -3  10  -4   -2.17   17.93   0
   0   9  -4   20.37   27.78   0
  -5   9  -3   20.69   26.75   0
  -3  10  -5   28.58   26.13   0
  -1   6   1  190.30   37.16   0
  -4   9  -2    1.27   23.00   0
  -2   9  -2   26.54   26.48   0
  -1   8  -1   77.63   34.34   0
  -5   7  -1   34.42   34.24   0
  -5   9  -5   23.69   31.74   0
  -5   9  -4    8.03   26.27   0
  -4   7   0  -18.26   32.64   0
  -3   6   1  300.33   43.45   0
  -3   9  -2  245.73   42.23   0
  -1   7   0  337.52   44.07   0
   0   5   1  174.02   37.71   0
   0   8  -2   49.42   33.43   0
  -5   8  -2   14.50   28.00   0
  -4   8  -1   22.29   27.13   0
  -2   6   1  160.94   31.89   0
   0   9  -5   19.76   33.99   0
  -5   6  -1  137.92   46.19   0
  -2   8  -1   66.40   32.13   0
  -4   9  -3   21.94   25.80   0
  -3   8  -1   10.98   30.47   0
   1   8  -4   23.22   34.85   0
  -2   9  -3   27.14   29.45   0
   0   6   0   18.91   30.97   0
   0   7  -1   12.91   26.06   0
   1   7  -2   15.63   35.55   0
  -5   7  -2  -16.40   33.88   0
  -5   8  -3   -6.92   25.56   0
  -3   9  -3   34.60   25.22   0
  -4   8  -2   43.07   29.10   0
  -4   9  -4  100.06   30.19   0
   1   6  -1   14.90   27.75   0
  -5   8  -4   23.75   30.80   0
  -4   7  -1   63.50   28.54   0
   0   8  -3  -20.75   26.73   0
  -5   6  -2    3.58   31.48   0
  -5   8  -5    1.44   28.52   0
  -4   9  -6  117.03   31.05   0
  -3   6   0    4.94   24.58   0
  -2   9  -4    9.11   28.21   0
  -1   9  -5  136.04   35.87   0
   1   8  -5  176.87   49.65   0
  -3   8  -2  437.31   44.80   0
  -3   9  -4  148.91   30.25   0
  -2   8  -2  102.06   32.23   0
  -5   7  -3   52.91   32.75   0
  -3   7  -1   29.63   26.92   0
  -2   6   0  628.43   47.44   0
  -1   9  -6   24.79   32.02   0
  -4   6  -1  379.76   44.56   0
  -4   8  -3   -3.89   27.93   0
  -3   9  -7    5.86   24.43   0
  -3   9  -5    2.47   24.81   0
  -2   7  -1   30.72   28.74   0
  -2   9  -5   64.94   31.81   0
  -1   9  -7    2.59   21.32   0
   1   8  -6   -1.27   34.86   0
  -5   7  -4   35.88   43.60   0
  -3   9  -6   39.01   26.60   0
   0   7  -2    2.98   31.11   0
   1   7  -3  172.33   48.09   0
  -5   6  -3  179.21   54.50   0
  -2   9  -7   46.10   31.46   0
  -2   9  -6    8.13   35.12   0
  -1   8  -3   -9.25   28.36   0
   0   8  -4    0.06   35.70   0
   1   8  -7   97.93   54.45   0
;
_shelx_hkl_checksum              24244
_olex2_submission_special_instructions 'No special instructions were received'
loop_
_space_group_symop_operation_xyz
'x, y, z'
'-x, -y, -z'
loop_
_atom_site_label
_atom_site_type_symbol
_atom_site_fract_x
_atom_site_fract_y
_atom_site_fract_z
_atom_site_U_iso_or_equiv
_atom_site_adp_type
_atom_site_occupancy
_atom_site_site_symmetry_order
_atom_site_calc_flag
_atom_site_refinement_flags_posn
_atom_site_refinement_flags_adp
_atom_site_refinement_flags_occupancy
_atom_site_disorder_assembly
_atom_site_disorder_group
Zn1 Zn 0.51665(13) 0.86513(9) 0.21175(9) 0.0565(3) Uani 1 1 d . . . . .
Cl2 Cl 0.3313(2) 0.96344(17) 0.29613(15) 0.0583(4) Uani 1 1 d . . . . .
Cl1 Cl 0.7654(2) 1.07201(18) 0.16738(18) 0.0692(5) Uani 1 1 d . . . . .
N1 N 0.6116(7) 0.7260(5) 0.3304(5) 0.0460(11) Uani 1 1 d . . . . .
N2 N 0.3612(7) 0.6110(5) 0.0879(5) 0.0475(11) Uani 1 1 d . . . . .
O1 O 0.8995(7) 0.4569(6) 0.6345(5) 0.0739(13) Uani 1 1 d . . . . .
C7 C 0.3769(8) 0.4855(6) 0.1457(6) 0.0443(13) Uani 1 1 d . . . . .
C5 C 0.5264(8) 0.5508(7) 0.2753(6) 0.0485(14) Uani 1 1 d . . . . .
C6 C 0.5828(8) 0.4413(7) 0.3379(6) 0.0451(14) Uani 1 1 d . . . . .
H6 H 0.5237 0.3173 0.2992 0.054 Uiso 1 1 calc R . . . .
C3 C 0.8125(9) 0.6957(7) 0.5115(6) 0.0523(15) Uani 1 1 d . . . . .
H3 H 0.9113 0.7486 0.5932 0.063 Uiso 1 1 calc R . . . .
C8 C 0.2634(9) 0.3094(7) 0.0866(6) 0.0524(15) Uani 1 1 d . . . . .
H8 H 0.2766 0.2221 0.1291 0.063 Uiso 1 1 calc R . . . .
C10 C 0.1141(9) 0.3882(7) -0.0959(6) 0.0522(15) Uani 1 1 d . . . . .
H10 H 0.0255 0.3571 -0.1815 0.063 Uiso 1 1 calc R . . . .
C9 C 0.1298(9) 0.2609(7) -0.0351(6) 0.0554(15) Uani 1 1 d . . . . .
H9 H 0.0490 0.1394 -0.0766 0.066 Uiso 1 1 calc R . . . .
C11 C 0.2295(9) 0.5616(8) -0.0302(6) 0.0549(16) Uani 1 1 d . . . . .
H11 H 0.2158 0.6507 -0.0697 0.066 Uiso 1 1 calc R . . . .
C4 C 0.7513(9) 0.7960(7) 0.4441(6) 0.0555(16) Uani 1 1 d . . . . .
H4 H 0.8112 0.9206 0.4802 0.067 Uiso 1 1 calc R . . . .
C2 C 0.7257(9) 0.5163(7) 0.4567(6) 0.0509(15) Uani 1 1 d . . . . .
C1 C 0.7836(10) 0.3991(9) 0.5281(7) 0.0604(16) Uani 1 1 d . . . . .
H1 H 0.7257 0.2757 0.4868 0.072 Uiso 1 1 calc R . . . .
loop_
_atom_site_aniso_label
_atom_site_aniso_U_11
_atom_site_aniso_U_22
_atom_site_aniso_U_33
_atom_site_aniso_U_23
_atom_site_aniso_U_13
_atom_site_aniso_U_12
Zn1 0.0713(6) 0.0332(4) 0.0634(5) 0.0118(3) 0.0112(4) 0.0233(4)
Cl2 0.0705(11) 0.0392(7) 0.0640(9) 0.0076(6) 0.0088(8) 0.0272(7)
Cl1 0.0783(12) 0.0394(8) 0.0881(11) 0.0225(7) 0.0207(9) 0.0220(8)
N1 0.057(3) 0.032(2) 0.046(3) 0.0083(19) 0.008(2) 0.018(2)
N2 0.061(3) 0.034(2) 0.047(3) 0.010(2) 0.009(3) 0.022(2)
O1 0.075(3) 0.066(3) 0.069(3) 0.024(2) -0.009(3) 0.025(2)
C7 0.054(4) 0.032(3) 0.050(3) 0.010(2) 0.011(3) 0.022(3)
C5 0.060(4) 0.039(3) 0.049(3) 0.010(2) 0.016(3) 0.023(3)
C6 0.056(4) 0.030(3) 0.046(3) 0.009(2) 0.009(3) 0.017(3)
C3 0.054(4) 0.046(3) 0.050(3) 0.006(3) 0.007(3) 0.019(3)
C8 0.065(4) 0.041(3) 0.053(4) 0.013(3) 0.005(3) 0.027(3)
C10 0.060(4) 0.055(4) 0.044(3) 0.009(3) 0.002(3) 0.032(3)
C9 0.061(4) 0.044(3) 0.057(4) 0.009(3) 0.006(3) 0.023(3)
C11 0.065(4) 0.050(3) 0.062(4) 0.026(3) 0.021(4) 0.032(3)
C4 0.068(4) 0.035(3) 0.056(4) 0.005(3) 0.016(4) 0.018(3)
C2 0.060(4) 0.049(3) 0.048(3) 0.016(3) 0.014(3) 0.026(3)
C1 0.065(4) 0.056(4) 0.059(4) 0.017(3) 0.008(4) 0.026(3)
loop_
_atom_type_symbol
_atom_type_description
_atom_type_scat_dispersion_real
_atom_type_scat_dispersion_imag
_atom_type_scat_source
C C 0.0181 0.0091 'International Tables Vol C Tables 4.2.6.8 and 6.1.1.4'
H H 0.0000 0.0000 'International Tables Vol C Tables 4.2.6.8 and 6.1.1.4'
Cl Cl 0.3639 0.7018 'International Tables Vol C Tables 4.2.6.8 and 6.1.1.4'
N N 0.0311 0.0180 'International Tables Vol C Tables 4.2.6.8 and 6.1.1.4'
O O 0.0492 0.0322 'International Tables Vol C Tables 4.2.6.8 and 6.1.1.4'
Zn Zn -1.5491 0.6778 'International Tables Vol C Tables 4.2.6.8 and 6.1.1.4'
loop_
_geom_angle_atom_site_label_1
_geom_angle_atom_site_label_2
_geom_angle_atom_site_label_3
_geom_angle
_geom_angle_site_symmetry_1
_geom_angle_site_symmetry_3
_geom_angle_publ_flag
Cl1 Zn1 Cl2 114.22(6) . . ?
N1 Zn1 Cl2 117.78(13) . . ?
N1 Zn1 Cl1 105.74(14) . . ?
N2 Zn1 Cl2 109.44(15) . . ?
N2 Zn1 Cl1 125.75(14) . . ?
N2 Zn1 N1 79.46(18) . . ?
C5 N1 Zn1 113.4(4) . . ?
C4 N1 Zn1 126.3(3) . . ?
C4 N1 C5 120.1(5) . . ?
C7 N2 Zn1 114.7(4) . . ?
C7 N2 C11 118.6(4) . . ?
C11 N2 Zn1 125.8(4) . . ?
N2 C7 C5 115.3(4) . . ?
N2 C7 C8 121.6(5) . . ?
C8 C7 C5 123.1(5) . . ?
N1 C5 C7 116.3(5) . . ?
N1 C5 C6 120.0(5) . . ?
C6 C5 C7 123.6(5) . . ?
C2 C6 C5 118.9(5) . . ?
C2 C3 C4 117.6(5) . . ?
C7 C8 C9 119.1(5) . . ?
C9 C10 C11 118.2(6) . . ?
C10 C9 C8 119.7(5) . . ?
N2 C11 C10 122.7(5) . . ?
N1 C4 C3 122.8(5) . . ?
C6 C2 C1 119.4(5) . . ?
C3 C2 C6 120.6(5) . . ?
C3 C2 C1 120.0(6) . . ?
O1 C1 C2 121.7(6) . . ?
loop_
_geom_bond_atom_site_label_1
_geom_bond_atom_site_label_2
_geom_bond_distance
_geom_bond_site_symmetry_2
_geom_bond_publ_flag
Zn1 Cl2 2.2158(17) . ?
Zn1 Cl1 2.2119(18) . ?
Zn1 N1 2.090(4) . ?
Zn1 N2 2.065(4) . ?
N1 C5 1.341(6) . ?
N1 C4 1.333(8) . ?
N2 C7 1.337(7) . ?
N2 C11 1.343(7) . ?
O1 C1 1.186(7) . ?
C7 C5 1.484(8) . ?
C7 C8 1.371(7) . ?
C5 C6 1.397(8) . ?
C6 C2 1.378(8) . ?
C3 C4 1.374(9) . ?
C3 C2 1.371(8) . ?
C8 C9 1.378(8) . ?
C10 C9 1.368(8) . ?
C10 C11 1.368(8) . ?
C2 C1 1.506(9) . ?
