#------------------------------------------------------------------------------
#$Date: 2020-09-06 11:11:55 +0300 (Sun, 06 Sep 2020) $
#$Revision: 255949 $
#$URL: file:///home/coder/svn-repositories/cod/cif/7/12/67/7126770.cif $
#------------------------------------------------------------------------------
#
# This file is available in the Crystallography Open Database (COD),
# http://www.crystallography.net/
#
# All data on this site have been placed in the public domain by the
# contributors.
#
data_7126770
loop_
_publ_author_name
'Guo, Rui-Li'
'Zhu, Xue-Qing'
'Zhang, Xing-Long'
'Wang, Yong-Qiang'
_publ_section_title
;
 Synthesis of difluoromethylselenoesters from aldehydes via a radical
 process.
;
_journal_issue                   63
_journal_name_full
'Chemical communications (Cambridge, England)'
_journal_page_first              8976
_journal_page_last               8979
_journal_paper_doi               10.1039/d0cc02912b
_journal_volume                  56
_journal_year                    2020
_chemical_formula_moiety         '0.25(C18 H13 F2 O3 S Se)'
_chemical_formula_sum            'C4.5 H3.25 F0.5 O0.75 S0.25 Se0.25'
_chemical_formula_weight         106.58
_space_group_crystal_system      triclinic
_space_group_IT_number           2
_space_group_name_Hall           '-P 1'
_space_group_name_H-M_alt        'P -1'
_atom_sites_solution_hydrogens   geom
_audit_creation_date             2020-01-04
_audit_creation_method
;
Olex2 1.2
(compiled 2018.05.29 svn.r3508 for OlexSys, GUI svn.r5506)
;
_audit_update_record
;
2020-02-22 deposited with the CCDC.	2020-06-24 downloaded from the CCDC.
;
_cell_angle_alpha                97.388(6)
_cell_angle_beta                 97.162(7)
_cell_angle_gamma                106.374(6)
_cell_formula_units_Z            8
_cell_length_a                   8.167(3)
_cell_length_b                   9.361(4)
_cell_length_c                   12.114(5)
_cell_measurement_reflns_used    2418
_cell_measurement_temperature    296(2)
_cell_measurement_theta_max      25.82
_cell_measurement_theta_min      2.64
_cell_volume                     868.5(6)
_computing_cell_refinement       'SAINT v7.68A (Bruker, 2009)'
_computing_data_reduction        'SAINT v7.68A (Bruker, 2009)'
_computing_molecular_graphics    'Olex2 (Dolomanov et al., 2009)'
_computing_publication_material  'Olex2 (Dolomanov et al., 2009)'
_computing_structure_refinement  'ShelXL (Sheldrick, 2015)'
_computing_structure_solution    'SHELXT 2018/2 (Sheldrick, 2018)'
_diffrn_ambient_temperature      296.15
_diffrn_measured_fraction_theta_full 0.987
_diffrn_measured_fraction_theta_max 0.972
_diffrn_measurement_device_type  'Bruker APEX-II CCD'
_diffrn_measurement_method       '\f and \w scans'
_diffrn_radiation_monochromator  graphite
_diffrn_radiation_type           MoK\a
_diffrn_radiation_wavelength     0.71073
_diffrn_reflns_av_R_equivalents  0.0183
_diffrn_reflns_av_unetI/netI     0.0378
_diffrn_reflns_Laue_measured_fraction_full 0.987
_diffrn_reflns_Laue_measured_fraction_max 0.972
_diffrn_reflns_limit_h_max       9
_diffrn_reflns_limit_h_min       -9
_diffrn_reflns_limit_k_max       11
_diffrn_reflns_limit_k_min       -8
_diffrn_reflns_limit_l_max       10
_diffrn_reflns_limit_l_min       -14
_diffrn_reflns_number            4612
_diffrn_reflns_point_group_measured_fraction_full 0.987
_diffrn_reflns_point_group_measured_fraction_max 0.972
_diffrn_reflns_theta_full        25.242
_diffrn_reflns_theta_max         25.932
_diffrn_reflns_theta_min         2.302
_diffrn_standards_number         0
_exptl_absorpt_coefficient_mu    2.316
_exptl_absorpt_correction_T_max  0.7453
_exptl_absorpt_correction_T_min  0.5428
_exptl_absorpt_correction_type   multi-scan
_exptl_absorpt_process_details
;
SADABS-2008/1 (Bruker,2008) was used for absorption correction.
wR2(int) was 0.0610 before and 0.0298 after correction.
The Ratio of minimum to maximum transmission is 0.7283.
The \l/2 correction factor is 0.0015.
;
_exptl_crystal_colour            yellow
_exptl_crystal_density_diffrn    1.630
_exptl_crystal_description       bulk
_exptl_crystal_F_000             426
_exptl_crystal_size_max          0.35
_exptl_crystal_size_mid          0.25
_exptl_crystal_size_min          0.2
_refine_diff_density_max         0.816
_refine_diff_density_min         -1.072
_refine_diff_density_rms         0.115
_refine_ls_extinction_method     none
_refine_ls_goodness_of_fit_ref   1.050
_refine_ls_hydrogen_treatment    constr
_refine_ls_matrix_type           full
_refine_ls_number_parameters     227
_refine_ls_number_reflns         3286
_refine_ls_number_restraints     0
_refine_ls_restrained_S_all      1.050
_refine_ls_R_factor_all          0.0604
_refine_ls_R_factor_gt           0.0506
_refine_ls_shift/su_max          0.000
_refine_ls_shift/su_mean         0.000
_refine_ls_structure_factor_coef Fsqd
_refine_ls_weighting_details
'w=1/[\s^2^(Fo^2^)+(0.0984P)^2^+0.5560P] where P=(Fo^2^+2Fc^2^)/3'
_refine_ls_weighting_scheme      calc
_refine_ls_wR_factor_gt          0.1465
_refine_ls_wR_factor_ref         0.1552
_reflns_Friedel_coverage         0.000
_reflns_number_gt                2726
_reflns_number_total             3286
_reflns_threshold_expression     'I > 2\s(I)'
_cod_data_source_file            d0cc02912b2.cif
_cod_data_source_block           a
_cod_depositor_comments
;
The following automatic conversions were performed:

data item '_exptl_absorpt_correction_type' value 'Multi-scan' was
changed to 'multi-scan' in accordance with the
/home/data/users/saulius/crontab/automatic-downloads/rss-feeds/RSC/lib/dictionaries/cif_core.dic
dictionary named 'cif_core.dic' version 2.4.2 last updated on
2011-04-26.

Automatic conversion script
Id: cif_fix_values 7556 2019-12-06 15:28:31Z antanas 

 Adding full bibliography for 7126769--7126770.cif.
;
_cod_original_formula_sum        'C4.50 H3.25 F0.50 O0.75 S0.25 Se0.25'
_cod_database_code               7126770
_shelx_shelxl_version_number     2018/3
_shelx_space_group_comment
;
The symmetry employed for this shelxl refinement is uniquely defined
by the following loop, which should always be used as a source of
symmetry information in preference to the above space-group names.
They are only intended as comments.
;
_olex2_refinement_description
;
1. Fixed Uiso
 At 1.2 times of:
  All C(H) groups
 At 1.5 times of:
  All C(H,H,H) groups
2.a Ternary CH refined with riding coordinates:
 C00M(H00M)
2.b Aromatic/amide H refined with riding coordinates:
 C00A(H00A), C00C(H00C), C00G(H00G), C00I(H00I), C00J(H00J), C00K(H00K),
 C00L(H00L), C00N(H00N), C00O(H00O)
2.c Idealised Me refined as rotating group:
 C00P(H00B,H00D,H00E)
;
_shelx_res_file
;
TITL a_a.res in P-1
    a.res
    created by SHELXL-2018/3 at 11:05:27 on 04-Jan-2020
REM Old TITL a in P-1
REM SHELXT solution in P-1: R1 0.326, Rweak 0.037, Alpha 0.061
REM <I/s> 0.000 for 0 systematic absences, Orientation as input
REM Formula found by SHELXT: C21 O3 Se
CELL 0.71073 8.1668 9.3605 12.1144 97.388 97.162 106.374
ZERR 8 0.0033 0.0037 0.0048 0.006 0.007 0.006
LATT 1
SFAC C H F O S Se
UNIT 36 26 4 6 2 2

L.S. 4 0 0
PLAN  20
TEMP 23
BOND
list 4
fmap 2 53
ACTA
OMIT 0 -2 6
OMIT -1 -6 6
REM <olex2.extras>
REM <HklSrc "%.\\a.hkl">
REM </olex2.extras>

WGHT    0.098400    0.556000
FVAR       0.73713
SE01  6    0.251973    0.290398    0.219735    11.00000    0.12063    0.04651 =
         0.03832    0.00911    0.00860    0.01694
S002  5    0.210895    0.054868    0.630165    11.00000    0.03804    0.03113 =
         0.03800    0.01065    0.00295    0.00989
O003  4    0.073295    0.032523    0.694426    11.00000    0.03750    0.05096 =
         0.06196    0.02285    0.01076    0.01042
O004  4    0.202627   -0.053524    0.533142    11.00000    0.06271    0.03361 =
         0.04421    0.00258   -0.00266    0.01419
C005  1    0.224348    0.216350    0.579814    11.00000    0.03247    0.02312 =
         0.02450    0.00643    0.00293    0.01163
O006  4    0.334501    0.574753    0.350417    11.00000    0.12712    0.03942 =
         0.05092    0.01716    0.01664    0.01359
F007  3    0.203146    0.487022    0.080119    11.00000    0.12306    0.09706 =
         0.08657    0.04771   -0.00784    0.02326
C008  1    0.262939    0.378997    0.458023    11.00000    0.04760    0.03466 =
         0.03472    0.00880    0.00167    0.01185
C009  1    0.407039    0.090422    0.722719    11.00000    0.04010    0.03178 =
         0.03499    0.01104    0.00437    0.01280
C00A  1    0.556626    0.091606    0.677823    11.00000    0.04450    0.04774 =
         0.03607    0.00710    0.00669    0.02058
AFIX  43
H00A  2    0.554144    0.077991    0.600155    11.00000   -1.20000
AFIX   0
C00B  1    0.214629    0.353682    0.638242    11.00000    0.04121    0.03691 =
         0.04174    0.00774    0.00402    0.01428
C00C  1    0.254850    0.235236    0.472673    11.00000    0.04767    0.03531 =
         0.03232    0.00571    0.00233    0.01432
AFIX  43
H00C  2    0.267962    0.161233    0.418467    11.00000   -1.20000
AFIX   0
C00D  1    0.238069    0.458202    0.562877    11.00000    0.04598    0.03580 =
         0.04027    0.00795    0.00161    0.01468
C00E  1    0.292636    0.442764    0.355592    11.00000    0.05787    0.04250 =
         0.03980    0.01193    0.00267    0.01328
F00F  3    0.375518    0.368358    0.034149    11.00000    0.19568    0.12431 =
         0.07116    0.01548    0.06847    0.04045
C00G  1    0.410416    0.112582    0.838214    11.00000    0.04742    0.06004 =
         0.03982    0.01406    0.01184    0.01865
AFIX  43
H00G  2    0.310118    0.112778    0.867040    11.00000   -1.20000
AFIX   0
C00H  1    0.714587    0.132956    0.867169    11.00000    0.04713    0.04489 =
         0.05570    0.00937   -0.00571    0.01697
C00I  1    0.709658    0.113639    0.751985    11.00000    0.04165    0.05327 =
         0.05244    0.00539    0.00717    0.02034
AFIX  43
H00I  2    0.810463    0.115350    0.723226    11.00000   -1.20000
AFIX   0
C00J  1    0.185081    0.390456    0.746587    11.00000    0.06873    0.04924 =
         0.04459    0.01271    0.01947    0.02585
AFIX  43
H00J  2    0.169314    0.319966    0.794912    11.00000   -1.20000
AFIX   0
C00K  1    0.563372    0.134405    0.910476    11.00000    0.06130    0.06805 =
         0.03621    0.01087    0.00389    0.02492
AFIX  43
H00K  2    0.566218    0.150129    0.988162    11.00000   -1.20000
AFIX   0
C00L  1    0.230755    0.603418    0.598442    11.00000    0.09247    0.04295 =
         0.05364    0.01551    0.01391    0.03135
AFIX  43
H00L  2    0.246012    0.674239    0.550373    11.00000   -1.20000
AFIX   0
C00M  1    0.331655    0.438312    0.124244    11.00000    0.08394    0.07298 =
         0.04037    0.01552    0.01037    0.00894
AFIX  13
H00M  2    0.429666    0.522996    0.165631    11.00000   -1.20000
AFIX   0
C00N  1    0.200483    0.640109    0.706205    11.00000    0.11704    0.04664 =
         0.07167    0.00530    0.02759    0.04321
AFIX  43
H00N  2    0.193620    0.736399    0.730135    11.00000   -1.20000
AFIX   0
C00O  1    0.179728    0.535903    0.780823    11.00000    0.10103    0.06045 =
         0.05513    0.00690    0.02717    0.03440
AFIX  43
H00O  2    0.162265    0.564642    0.853738    11.00000   -1.20000
AFIX   0
C00P  1    0.880494    0.153895    0.946165    11.00000    0.06402    0.09483 =
         0.06927    0.00408   -0.02051    0.02740
AFIX 137
H00B  2    0.931259    0.077160    0.921351    11.00000   -1.50000
H00D  2    0.856337    0.146133    1.021090    11.00000   -1.50000
H00E  2    0.959628    0.251737    0.946401    11.00000   -1.50000
AFIX   0
HKLF 4




REM  a_a.res in P-1
REM wR2 = 0.1552, GooF = S = 1.050, Restrained GooF = 1.050 for all data
REM R1 = 0.0506 for 2726 Fo > 4sig(Fo) and 0.0604 for all 3286 data
REM 227 parameters refined using 0 restraints

END

WGHT      0.0984      0.5562

REM Highest difference peak  0.816,  deepest hole -1.072,  1-sigma level  0.115
Q1    1   0.3649  0.3200  0.2471  11.00000  0.05    0.82
Q2    1   0.2710  0.2211  0.5809  11.00000  0.05    0.60
Q3    1   0.2332  0.2530  0.5962  11.00000  0.05    0.57
Q4    1   0.4831  0.4293  0.1015  11.00000  0.05    0.34
Q5    1   0.5254  0.6166  0.2626  11.00000  0.05    0.33
Q6    1   0.5362 -0.1058  0.6991  11.00000  0.05    0.30
Q7    1   1.0329  0.0553  0.8271  11.00000  0.05    0.30
Q8    1   0.4602  0.4016  0.3235  11.00000  0.05    0.29
Q9    1   0.5116 -0.0078  0.5785  11.00000  0.05    0.28
Q10   1   0.0264 -0.1784  0.5804  11.00000  0.05    0.28
Q11   1   0.5544  0.5848  0.1372  11.00000  0.05    0.28
Q12   1   1.0083  0.1164  1.1472  11.00000  0.05    0.28
Q13   1   0.5432  0.5486  0.1345  11.00000  0.05    0.28
Q14   1   0.0596  0.1347  0.4514  11.00000  0.05    0.28
Q15   1   0.8786 -0.0004  1.0396  11.00000  0.05    0.28
Q16   1  -0.0207  0.7996  0.6947  11.00000  0.05    0.28
Q17   1   0.4884  0.5003  0.4685  11.00000  0.05    0.27
Q18   1   0.6279  0.1040  1.1404  11.00000  0.05    0.27
Q19   1   0.4570  0.4647  0.5544  11.00000  0.05    0.27
Q20   1   0.5916  0.1390  0.5973  11.00000  0.05    0.26
;
_shelx_res_checksum              52641
_shelx_hkl_file
;
   1   0   0  169.28    6.00
   2   0   0 9220.88  304.67
   2   0   0 9999.00  283.17
   3   0   0  405.16   13.10
   3   0   0  380.56   12.10
   4   0   0 1425.96   46.20
   4   0   0 1442.76   42.90
   5   0   0  337.07   11.70
   5   0   0  323.57   10.90
   6   0   0  335.67   11.80
   6   0   0  368.86   12.80
   7   0   0   45.90    3.90
   7   0   0   46.90    3.50
  -8   0   0    9.50    2.70
   8   0   0   11.80    2.90
   8   0   0    6.70    2.60
  -9   0   0   15.30    3.20
   9   0   0   13.20    3.30
   9  -1   0    6.40    2.90
  -9   1   0    7.50    2.80
   8  -1   0   72.09    4.80
   7  -1   0  100.59    5.40
   7  -1   0  104.59    5.00
   6  -1   0    9.80    1.70
   6  -1   0    9.30    2.00
   5  -1   0  550.04   20.50
   5  -1   0  677.63   19.10
   4  -1   0  120.89    4.50
   4  -1   0  126.89    5.00
   3  -1   0 2370.86   69.99
   3  -1   0 2371.36   75.39
   2  -1   0 1275.47   40.60
   0  -1   0  175.48    5.60
  -1  -1   0 2181.88   78.19
   1   1   0 2736.93   78.19
   2   1   0 1885.71   54.69
   2   1   0 1816.32   58.79
   3   1   0  736.23   22.50
   3   1   0  748.13   24.10
   4   1   0    0.80    1.00
   4   1   0    1.40    1.10
   5   1   0  114.69    5.00
   5   1   0  110.29    4.70
  -6  -1   0  229.68    8.50
   6   1   0  214.38    8.30
   6   1   0  221.08    8.80
  -7  -1   0   23.40    2.80
   7   1   0   22.10    2.90
  -8  -1   0    6.70    2.60
   8   1   0    2.60    2.40
  -9  -1   0    1.10    2.80
   9   1   0   -2.40    2.90
   9  -2   0    0.20    2.80
   8  -2   0  108.29    5.90
   7  -2   0   47.80    3.70
   6  -2   0  466.95   16.40
   5  -2   0    3.90    1.40
   4  -2   0  477.25   15.50
  -4   2   0  446.86   14.30
   2  -2   0  479.75   15.60
   1  -2   0 1417.76   44.90
   0  -2   0  478.75   15.40
   0   2   0  493.35   15.00
   0   2   0  482.15   14.50
  -1  -2   0 1630.84   51.19
   1   2   0 1600.44   47.80
  -2  -2   0   11.60    1.10
   2   2   0   11.50    1.10
   2   2   0   12.30    0.90
   3   2   0  481.15   14.90
   3   2   0  480.05   15.00
  -4  -2   0   57.89    2.90
   4   2   0   61.49    3.00
  -5  -2   0  173.68    6.40
   5   2   0  156.48    6.30
  -6  -2   0   23.80    2.40
   6   2   0   19.10    2.70
  -7  -2   0   20.20    2.80
   7   2   0   17.20    2.90
  -8  -2   0   12.20    2.90
   8   2   0    9.40    3.00
   9  -3   0   10.80    3.40
   8  -3   0    4.20    2.50
   7  -3   0   96.79    5.20
   6  -3   0   28.40    2.80
   5  -3   0    5.20    1.40
  -5   3   0    9.10    1.00
   4  -3   0  170.88    6.30
  -4   3   0  168.08    5.70
   3  -3   0  454.75   15.00
  -3   3   0  451.85   14.20
  -2   3   0  520.15   15.70
  -2   3   0  484.15   15.00
   1  -3   0  148.99    4.90
  -1   3   0  144.89    5.00
  -1   3   0  144.69    4.60
   0  -3   0  428.76   13.70
   0   3   0  423.56   13.00
   0   3   0  432.76   13.50
  -1  -3   0  952.60   30.80
   1   3   0  981.80   29.00
  -2  -3   0  441.96   14.80
   2   3   0  461.95   14.20
   2   3   0  458.75   14.30
  -3  -3   0  461.85   15.30
   3   3   0  461.75   14.70
   3   3   0  463.25   14.50
  -4  -3   0  158.28    6.20
   4   3   0  173.98    6.30
  -5  -3   0   53.19    2.90
  -6  -3   0  102.79    4.90
   6   3   0   82.49    4.80
  -7  -3   0   74.19    4.60
   7   3   0   64.69    4.80
   8   3   0    0.90    2.70
   9  -4   0    2.00    3.00
   8  -4   0   -0.80    2.20
   7  -4   0  183.48    7.80
   6  -4   0   29.80    2.80
   5  -4   0   48.00    2.90
  -5   4   0   49.10    2.40
   4  -4   0  168.68    6.20
  -4   4   0  160.78    5.70
  -3   4   0  176.38    6.00
  -3   4   0  168.48    5.60
   2  -4   0  118.99    4.30
  -2   4   0  116.19    4.30
  -2   4   0  114.79    3.90
   1  -4   0 2767.52   85.39
  -1   4   0 2674.83   79.39
  -1   4   0 2640.44   81.89
   0  -4   0   74.19    2.70
   0   4   0   72.99    2.90
   0   4   0   77.29    3.10
  -1  -4   0   88.89    3.40
   1   4   0   90.89    3.60
   1   4   0   93.39    3.60
  -2  -4   0  214.08    7.30
   2   4   0  208.98    7.20
   2   4   0  207.18    7.10
  -3  -4   0   19.40    1.90
   3   4   0   18.70    2.00
   3   4   0   21.70    1.80
  -4  -4   0  138.09    5.40
   4   4   0  129.99    5.60
   5   4   0   33.50    3.10
   6   4   0   57.19    4.10
   7   4   0    5.30    2.90
   9  -5   0    2.20    2.80
   8  -5   0    6.00    2.70
   7  -5   0   98.49    5.30
   6  -5   0   84.19    4.40
  -6   5   0   84.19    3.70
   5  -5   0  127.59    5.40
  -5   5   0  128.19    4.90
   4  -5   0   70.19    3.60
  -4   5   0   85.69    3.20
  -4   5   0   93.29    3.60
   3  -5   0  203.98    7.20
  -3   5   0  195.98    6.50
  -3   5   0  203.78    7.10
   2  -5   0  426.26   13.70
  -2   5   0  408.96   12.70
  -2   5   0  409.96   13.50
   1  -5   0 1242.28   38.70
  -1   5   0 1173.68   36.10
  -1   5   0 1223.48   37.50
   0  -5   0  613.94   19.10
   0   5   0  579.04   18.10
   0   5   0  584.94   18.80
  -1  -5   0  198.28    6.80
   1   5   0  197.98    6.80
   1   5   0  199.38    7.00
   2   5   0   45.40    2.70
   3   5   0  136.49    5.70
   3   5   0  152.18    5.60
   4   5   0   52.29    3.60
   5   5   0   88.59    5.00
   6   5   0    7.80    2.80
   7   5   0   -3.30    2.90
   9  -6   0   17.40    3.50
   8  -6   0    4.80    2.90
   7  -6   0   30.40    3.30
   6  -6   0   30.90    2.90
  -6   6   0   31.10    2.30
   5  -6   0   71.29    3.70
  -5   6   0   72.29    3.40
  -5   6   0   68.09    3.10
   4  -6   0   62.39    3.30
  -4   6   0   66.59    3.20
  -4   6   0   65.29    2.90
   3  -6   0  120.19    4.70
  -3   6   0  123.29    4.90
  -3   6   0  114.59    4.30
   2  -6   0  229.28    7.70
  -2   6   0  225.58    8.10
  -2   6   0  221.68    7.40
  -1   6   0    9.10    1.20
  -1   6   0   10.20    1.60
   0   6   0  245.48    8.50
   0   6   0  237.28    8.10
   1   6   0  139.69    5.40
   1   6   0  145.69    5.60
   2   6   0    3.90    1.60
   2   6   0    3.80    1.30
   3   6   0   63.59    3.60
   4   6   0    1.40    2.00
   5   6   0    5.20    2.30
   6   6   0    0.70    2.80
   9  -7   0   25.70    3.90
   8  -7   0    4.40    3.00
   7  -7   0  113.79    6.00
   6  -7   0    3.90    2.00
  -6   7   0    3.90    1.60
   5  -7   0   85.79    4.30
  -5   7   0   79.09    4.00
   4  -7   0   42.80    2.80
  -4   7   0   42.90    2.90
  -3   7   0   62.09    3.50
  -3   7   0   60.19    2.80
  -2   7   0   15.60    1.90
  -2   7   0   17.10    1.60
  -1   7   0   23.20    1.90
  -1   7   0   23.50    2.30
   0   7   0   40.40    2.80
   0   7   0   42.70    2.60
   1   7   0  145.89    5.90
   1   7   0  141.39    5.70
   2   7   0   35.90    2.90
   2   7   0   33.70    2.90
   3   7   0  192.18    7.60
   4   7   0   -1.60    2.10
   5   7   0   95.09    5.60
   8  -8   0    3.10    3.10
  -7   8   0   98.19    4.80
  -6   8   0    2.90    1.70
  -5   8   0   -0.20    1.60
  -4   8   0    5.40    1.80
  -3   8   0   26.20    2.60
  -2   8   0  183.38    7.30
  -1   8   0   29.90    2.80
  -1   8   0   35.30    2.50
   0   8   0   76.69    3.90
   0   8   0   79.19    4.30
   1   8   0   55.69    3.70
   1   8   0   55.69    3.60
   2   8   0   24.30    2.60
   2   8   0   21.30    2.70
   3   8   0   30.20    3.20
   4   8   0    6.80    2.60
  -7   9   0   42.20    3.50
  -6   9   0    7.30    2.10
  -5   9   0   43.80    3.50
  -4   9   0   42.10    3.40
  -3   9   0  154.78    6.70
  -2   9   0  144.49    6.30
  -1   9   0   97.59    4.90
   0   9   0   93.99    5.00
   1   9   0   16.10    2.60
   1   9   0    3.70    1.90
   2   9   0   49.80    3.80
   3   9   0    7.20    2.60
  -7  10   0   43.60    3.90
  -6  10   0    5.00    2.40
  -5  10   0   35.90    3.40
  -4  10   0    0.80    2.10
  -3  10   0   89.79    4.90
  -2  10   0   15.60    2.70
  -1  10   0   85.99    5.10
   0  10   0    0.80    2.30
   1  10   0    9.30    2.60
  -5  11   0   -0.80    2.40
  -4  11   0    2.00    2.50
  -3  11   0    2.40    2.50
  -2  11   0   -0.20    2.50
  -1  11   0    4.10    2.40
  -1  11  -1    1.80    2.50
  -2  11  -1  107.59    6.00
  -3  11  -1    1.20    2.40
  -4  11  -1   26.80    3.40
  -5  11  -1    7.60    2.50
   2  10  -1   -0.50    2.30
   1  10  -1   97.69    5.50
   1  10  -1   89.99    5.10
   0  10  -1    1.60    2.20
  -1  10  -1   83.39    4.80
  -2  10  -1   27.70    3.00
  -3  10  -1   29.40    3.20
  -4  10  -1   16.20    2.70
  -5  10  -1    2.50    2.20
  -6  10  -1    0.90    2.00
  -7  10  -1   18.70    3.00
   3   9  -1   12.90    2.60
   2   9  -1   20.30    2.80
   2   9  -1   18.90    2.90
   1   9  -1    6.20    2.20
   1   9  -1    8.80    2.20
   0   9  -1   12.20    2.40
   0   9  -1   15.80    2.20
  -1   9  -1   24.50    2.40
  -1   9  -1   21.80    2.80
  -2   9  -1   17.70    2.50
  -3   9  -1   16.80    2.50
  -4   9  -1   41.30    3.20
  -5   9  -1   46.60    3.30
  -6   9  -1   23.10    2.80
  -7   9  -1   23.60    2.90
   4   8  -1    6.80    2.70
   3   8  -1    5.10    2.30
   2   8  -1   43.30    3.30
   2   8  -1   39.00    3.20
   1   8  -1  121.29    5.20
   1   8  -1  119.69    5.50
   0   8  -1  294.77   10.70
   0   8  -1  297.07   10.10
  -1   8  -1    9.40    1.70
  -1   8  -1   11.50    2.20
  -2   8  -1  279.17   10.10
  -2   8  -1  278.97    9.40
  -3   8  -1  123.69    5.50
  -4   8  -1  156.08    6.50
  -5   8  -1   87.39    4.50
  -6   8  -1   41.00    3.10
   5   7  -1   49.00    4.20
   4   7  -1    1.80    2.30
   3   7  -1  211.78    8.10
   2   7  -1   87.29    4.20
   2   7  -1   80.39    4.10
   1   7  -1  514.25   16.80
   1   7  -1  505.75   16.30
   0   7  -1  401.16   13.30
   0   7  -1  378.16   12.60
  -1   7  -1 1430.66   43.80
  -1   7  -1 1382.56   42.20
  -2   7  -1  176.48    6.20
  -2   7  -1  176.88    6.80
  -3   7  -1  217.28    7.30
  -3   7  -1  207.68    7.80
  -4   7  -1  144.99    5.90
  -4   7  -1  144.19    5.40
  -5   7  -1   19.30    2.10
   5  -7   1   21.30    2.40
  -6   7  -1  125.39    5.40
   6  -7   1  127.89    5.90
   7  -7   1   50.29    4.10
   8  -7   1   12.30    3.10
   9  -7   1   18.30    3.70
   6   6  -1   35.30    3.90
   5   6  -1    2.90    2.40
   4   6  -1  158.18    6.80
   3   6  -1   14.70    2.20
   2   6  -1  161.48    6.10
   1   6  -1   -0.30    1.10
   1   6  -1    1.20    1.10
   0   6  -1  109.99    4.50
   0   6  -1  102.69    4.20
  -1   6  -1  370.86   11.80
  -1   6  -1  379.06   12.50
  -2   6  -1   72.09    3.00
  -2   6  -1   68.49    3.20
   2  -6   1   67.49    2.80
  -3   6  -1  118.69    4.40
  -3   6  -1  120.89    4.80
   3  -6   1  124.29    4.60
  -4   6  -1    2.60    1.20
  -4   6  -1    2.10    1.00
  -5   6  -1   32.30    2.10
  -5   6  -1   33.20    2.50
   5  -6   1   28.80    2.60
  -6   6  -1   64.19    3.40
   6  -6   1   63.59    3.90
   7  -6   1  144.49    6.80
   8  -6   1   10.30    3.00
   9  -6   1    3.50    3.00
   7   5  -1   14.10    3.20
   6   5  -1   57.59    4.50
   5   5  -1   88.19    4.90
   4   5  -1   33.50    3.00
   3   5  -1  240.48    8.20
   3   5  -1  238.38    8.50
   2   5  -1    3.90    0.80
   2   5  -1   10.60    1.50
   1   5  -1  812.32   25.20
   1   5  -1  798.92   24.60
   0   5  -1  268.37    9.10
   0   5  -1  271.07    8.70
  -1   5  -1  512.45   15.90
   1  -5   1  523.85   16.60
  -2   5  -1  283.37    8.90
   2  -5   1  275.97    9.30
  -3   5  -1  281.17    9.10
   3  -5   1  290.17    9.70
  -4   5  -1   38.30    2.00
  -5   5  -1   17.70    1.70
   5  -5   1   17.50    2.10
  -6   5  -1    5.30    1.30
   6  -5   1    4.80    2.00
   7  -5   1   85.59    4.90
   8  -5   1    1.90    2.50
   9  -5   1   -0.20    2.80
   7   4  -1    3.20    2.50
   6   4  -1   45.40    3.90
   5   4  -1   24.90    2.80
   4   4  -1   17.40    2.20
  -4  -4   1   17.60    1.70
   3   4  -1    8.10    1.10
   3   4  -1    7.00    1.50
  -3  -4   1    9.20    1.20
   2   4  -1  380.46   12.20
   2   4  -1  369.26   12.10
  -2  -4   1  387.26   12.40
   1   4  -1   48.00    2.30
   1   4  -1   50.39    2.30
  -1  -4   1   47.00    1.90
   0   4  -1   11.10    1.00
  -1   4  -1    4.70    0.70
   1  -4   1    4.70    0.50
  -2   4  -1  830.42   24.60
   2  -4   1  815.72   26.40
   4  -4   1  719.03   23.60
  -5   4  -1    2.30    0.80
   5  -4   1    3.10    1.40
   6  -4   1  153.58    6.60
   7  -4   1    3.40    2.10
   8  -4   1   67.49    5.00
   9  -4   1    0.40    3.00
   8   3  -1   15.30    3.60
   7   3  -1    0.60    2.30
  -7  -3   1    1.10    2.10
   6   3  -1   42.80    3.30
  -6  -3   1   33.00    3.00
   5   3  -1    2.90    1.70
  -5  -3   1    2.40    0.90
   4   3  -1   68.09    3.60
  -4  -3   1   73.29    3.40
   3   3  -1   12.10    1.00
   3   3  -1   10.20    1.40
  -3  -3   1   12.70    1.20
   2   3  -1  498.35   15.50
   2   3  -1  505.25   15.60
  -2  -3   1  497.75   16.20
   1   3  -1   21.90    1.30
  -1  -3   1   22.10    1.10
   0   3  -1 6031.70  177.88
  -1   3  -1   98.39    3.30
   1  -3   1   96.59    3.30
  -2   3  -1  941.11   27.70
   2  -3   1  918.21   29.70
   3  -3   1  932.21   30.10
   4  -3   1  294.47   10.30
   5  -3   1  353.66   12.40
   6  -3   1  225.78    8.70
   7  -3   1   81.59    4.80
   8  -3   1    8.80    2.70
  -9   3  -1   21.50    3.10
   9  -3   1   20.10    3.70
   8   2  -1   12.50    3.20
  -8  -2   1   11.40    2.80
   7   2  -1   24.30    3.20
  -7  -2   1   22.40    2.70
   6   2  -1   37.80    3.30
   6   2  -1   34.40    3.10
   5   2  -1  286.77   10.40
   5   2  -1  285.17   10.00
   4   2  -1   90.19    4.00
   4   2  -1   87.19    3.90
   3   2  -1  393.56   12.50
   3   2  -1  405.06   12.20
   3   2  -1  382.86   13.10
   2   2  -1   55.09    2.20
   1   2  -1   11.50    0.70
   1   2  -1   13.20    0.90
   0   2  -1 6665.53  196.48
  -1   2  -1  860.21   25.40
   1  -2   1  853.01   27.20
   2  -2   1 2397.26   75.99
   3  -2   1  327.77   11.10
   4  -2   1  394.96   13.40
   5  -2   1  170.78    6.70
   6  -2   1  306.47   11.30
   7  -2   1   21.70    2.90
  -8   2  -1   15.80    2.60
   8  -2   1   14.30    2.90
  -9   2  -1    2.70    2.50
   9   1  -1    0.30    2.60
  -9  -1   1   -5.60    2.30
   8   1  -1   75.79    5.10
   8   1  -1   72.79    4.90
  -8  -1   1   87.09    5.00
   7   1  -1   47.20    3.70
   7   1  -1   38.00    3.60
   6   1  -1  203.28    8.10
   6   1  -1  201.78    7.70
   5   1  -1  150.48    5.90
   5   1  -1  167.38    6.40
   4   1  -1   92.79    3.90
   4   1  -1   88.19    3.70
   3   1  -1   56.29    2.50
   3   1  -1   52.99    2.40
   2   1  -1   14.20    1.00
   2   1  -1   12.50    1.00
   1   1  -1   64.69    2.30
   1   1  -1   65.19    2.30
   0   1  -1   18.90    0.70
   1  -1   1   47.60    1.80
   2  -1   1 2742.03   86.89
   3  -1   1  860.51   27.80
   4  -1   1  661.23   21.80
   5  -1   1  385.26   12.60
   5  -1   1  390.66   13.60
   6  -1   1    7.20    2.00
  -7   1  -1   49.20    3.50
   7  -1   1   49.90    3.80
  -8   1  -1   33.80    3.30
  -9   1  -1   28.70    3.60
   9   0  -1    0.80    2.80
   9   0  -1   -0.90    2.80
  -9   0   1    1.50    2.60
   8   0  -1   22.50    3.10
   8   0  -1   20.30    3.20
   7   0  -1   51.49    3.80
   7   0  -1   51.19    3.60
   6   0  -1  182.08    6.90
   6   0  -1  183.68    7.50
   5   0  -1    5.50    1.50
   5   0  -1    4.90    1.20
   4   0  -1   12.50    1.40
   3   0  -1  110.89    4.00
   3   0  -1  113.79    4.20
   2   0  -1   11.50    0.80
   2   0  -1   14.50    1.00
   1   0  -1   53.69    2.00
  -1   0  -1 1345.07   44.10
   1   0   1 1434.86   41.00
  -2   0  -1 5551.24  177.18
   2   0   1 6038.00  164.88
   2   0   1 5141.29  176.78
   3   0   1 1169.98   37.70
   3   0   1 1175.98   35.00
   4   0   1 2111.39   66.89
   4   0   1 2072.59   62.19
  -5   0  -1  304.07   10.70
   5   0   1  306.07   10.10
   5   0   1  294.67   10.80
  -6   0  -1  505.05   16.80
   6   0   1  472.95   16.90
   6   0   1  484.15   15.90
  -7   0  -1  109.59    5.40
   7   0   1  111.19    5.40
  -8   0  -1   14.70    2.90
   8   0   1   17.30    3.10
  -9   0  -1   45.00    4.20
   9  -1  -1    1.20    2.80
   8  -1  -1   12.10    2.90
   8  -1  -1   13.90    2.60
   7  -1  -1  183.88    7.40
   7  -1  -1  205.28    8.30
   6  -1  -1   46.80    2.90
   6  -1  -1   48.90    3.40
   5  -1  -1  349.77   12.30
   5  -1  -1  357.46   11.40
   4  -1  -1  606.74   18.40
   4  -1  -1  598.74   19.90
   3  -1  -1  326.97   11.00
   2  -1  -1 1306.17   42.00
   2  -1  -1 1326.77   38.80
   1  -1  -1 2129.39   67.79
   1   1   1  440.76   13.80
   1   1   1  451.95   13.50
  -2  -1  -1 1421.36   44.60
   2   1   1 1374.66   41.50
   2   1   1 1396.76   42.40
  -3  -1  -1    6.60    1.00
  -4  -1  -1  164.68    6.20
   4   1   1  164.58    5.90
  -5  -1  -1    7.00    1.60
   5   1   1    7.30    1.60
  -6  -1  -1   60.79    3.80
   6   1   1   54.49    3.60
  -7  -1  -1    5.30    2.10
   7   1   1    7.30    2.40
  -8  -1  -1   18.20    3.00
   8   1   1   15.30    3.10
  -9  -1  -1   16.40    3.30
   9   1   1   15.70    3.50
   9  -2  -1    1.80    2.70
   8  -2  -1   24.20    3.10
   7  -2  -1  139.59    6.40
   6  -2  -1  323.17   11.70
   5  -2  -1  209.68    7.80
   4  -2  -1  177.58    6.40
  -4   2   1  168.98    5.60
   3  -2  -1  339.37   11.10
  -3   2   1  316.07   10.30
   2  -2  -1 1024.80   32.40
  -2   2   1  997.70   30.80
  -1   2   1 5066.99  153.68
   0  -2  -1 2882.01   89.59
   0   2   1 2826.12   85.69
   0   2   1 2769.12   82.99
  -1  -2  -1 1748.23   55.79
   1   2   1 1768.32   51.99
   2   2   1   35.50    1.80
   2   2   1   33.40    1.60
  -3  -2  -1  134.89    5.10
   3   2   1  134.89    4.60
   3   2   1  133.59    4.90
  -4  -2  -1   16.80    1.70
   4   2   1   12.50    1.50
  -5  -2  -1  105.79    4.70
   5   2   1   95.59    4.70
  -6  -2  -1   -0.20    1.70
   6   2   1   -0.80    1.80
  -7  -2  -1   -1.90    2.10
   7   2   1    1.40    2.10
  -8  -2  -1   15.70    3.00
   8   2   1   14.60    3.30
   9  -3  -1   22.90    3.50
   8  -3  -1    6.30    2.30
   7  -3  -1   19.30    2.60
   6  -3  -1  168.68    6.90
   5  -3  -1    0.20    1.20
  -5   3   1    1.40    0.70
   4  -3  -1  129.69    5.40
  -4   3   1  152.38    4.90
   3  -3  -1  134.49    5.00
  -3   3   1  134.69    4.70
  -2   3   1 1229.68   36.10
  -2   3   1 1222.48   37.50
   1  -3  -1  446.66   14.60
  -1   3   1  460.65   13.40
  -1   3   1  439.06   14.10
   0  -3  -1 1166.08   36.40
   0   3   1 1114.79   35.00
   0   3   1 1149.19   33.90
  -1  -3  -1  290.77    9.60
   1   3   1  269.27    9.30
   1   3   1  306.07    9.10
  -2  -3  -1    8.90    1.10
   2   3   1    9.80    1.20
  -3  -3  -1  121.29    5.00
   3   3   1  135.39    5.10
   3   3   1  139.59    4.70
   4   3   1   71.89    3.60
  -5  -3  -1    7.50    1.60
   5   3   1    5.90    1.80
  -6  -3  -1   33.20    3.10
   6   3   1   30.10    3.30
  -7  -3  -1    7.00    2.40
   7   3   1    1.20    2.50
   8   3   1    5.10    3.20
   9  -4  -1   10.10    3.10
   8  -4  -1    8.00    2.70
   7  -4  -1   94.99    5.00
   6  -4  -1   36.50    2.90
   5  -4  -1  207.38    7.80
  -5   4   1  206.68    7.10
   4  -4  -1  422.86   14.00
  -4   4   1  397.06   13.10
   3  -4  -1  799.42   28.00
  -3   4   1  914.41   26.90
  -3   4   1  881.91   25.70
   2  -4  -1  305.47   10.20
  -2   4   1  300.17    9.90
  -2   4   1  303.07    9.20
   1  -4  -1  852.51   27.60
  -1   4   1  862.31   26.60
  -1   4   1  861.21   25.60
   0  -4  -1  156.58    5.50
   0   4   1  156.78    5.30
   0   4   1  159.18    5.60
  -1  -4  -1  163.78    6.00
   1   4   1  175.68    5.90
   1   4   1  172.58    6.00
  -2  -4  -1  104.49    4.20
   2   4   1  107.39    4.30
   2   4   1  106.99    4.20
  -3  -4  -1   40.30    2.60
   3   4   1   39.50    2.70
   3   4   1   38.00    2.20
  -4  -4  -1    3.00    1.40
   4   4   1   -0.20    1.60
  -5  -4  -1    0.70    1.50
   5   4   1    1.50    1.70
   6   4   1   12.60    2.80
   7   4   1    3.10    2.90
   9  -5  -1   11.40    3.30
   8  -5  -1    4.00    2.50
   7  -5  -1   20.70    2.80
   6  -5  -1    1.40    1.60
  -6   5   1    1.20    1.20
   5  -5  -1  202.48    7.60
  -5   5   1  195.68    7.00
   4  -5  -1  103.89    4.50
  -4   5   1  102.99    4.10
  -4   5   1   97.69    3.60
   3  -5  -1  810.52   25.60
  -3   5   1  779.62   23.40
  -3   5   1  759.62   24.50
   2  -5  -1  217.18    7.50
  -2   5   1  212.18    6.80
  -2   5   1  214.18    7.50
   1  -5  -1  907.51   28.80
  -1   5   1  877.41   27.90
  -1   5   1  898.11   26.80
   0  -5  -1  420.66   13.50
   0   5   1  398.66   12.70
   0   5   1  405.16   13.30
  -1  -5  -1  833.02   26.70
   1   5   1  803.92   25.10
   1   5   1  835.02   25.90
  -2  -5  -1  544.85   17.50
   2   5   1  510.45   16.70
   3   5   1  471.05   15.30
   3   5   1  466.05   15.20
   4   5   1   60.89    3.90
   5   5   1  195.58    8.00
   6   5   1   21.20    3.40
   7   5   1   19.90    3.50
   9  -6  -1    7.90    2.80
   8  -6  -1    7.50    2.70
   7  -6  -1   91.79    5.00
   6  -6  -1   39.80    3.20
  -6   6   1   42.10    2.70
   5  -6  -1    3.40    1.60
  -5   6   1    4.70    1.30
   4  -6  -1  129.89    5.70
  -4   6   1  161.38    5.70
   3  -6  -1   12.90    1.60
  -3   6   1    5.70    1.40
   2  -6  -1 1145.49   36.10
  -2   6   1 1118.19   35.00
  -2   6   1 1100.19   33.50
   1  -6  -1    3.80    1.10
  -1   6   1    2.90    1.10
  -1   6   1    4.10    1.00
   0   6   1 1416.66   44.60
   0   6   1 1464.65   43.10
   1   6   1  188.28    6.70
   1   6   1  185.78    7.00
   2   6   1  518.65   17.80
   2   6   1  581.34   17.60
   3   6   1  137.09    5.90
   4   6   1  173.68    7.20
   5   6   1   52.79    4.20
   6   6   1    8.50    3.10
   9  -7  -1   23.60    3.40
   8  -7  -1    4.50    2.80
   7  -7  -1  149.09    6.80
   6  -7  -1   24.10    2.70
  -6   7   1   20.00    2.20
  -5   7   1  204.58    7.60
   4  -7  -1  112.89    4.90
  -4   7   1  109.99    4.90
  -3   7   1 1010.60   31.80
  -2   7   1  122.49    5.30
  -1   7   1 1277.57   39.50
  -1   7   1 1249.88   37.90
   0   7   1   60.99    3.60
   0   7   1   55.09    3.00
   1   7   1  290.67   10.20
   1   7   1  274.27    9.60
   2   7   1   27.80    2.70
   2   7   1   31.50    2.80
   3   7   1   44.90    3.60
   4   7   1   29.70    3.30
   5   7   1   -0.50    2.60
   8  -8  -1   62.79    5.10
   7  -8  -1   46.90    4.10
  -7   8   1   52.89    3.80
  -6   8   1  168.58    6.90
  -5   8   1   62.59    3.80
  -4   8   1  167.48    6.80
  -3   8   1  142.49    6.10
  -2   8   1   99.69    4.90
  -1   8   1   50.09    3.50
   0   8   1   12.00    2.20
   1   8   1    4.50    1.90
   1   8   1    3.30    1.80
   2   8   1    3.10    2.00
   2   8   1    7.20    2.20
   3   8   1    2.30    2.20
   4   8   1    0.90    2.50
  -7   9   1    3.40    2.10
  -6   9   1    1.80    2.00
  -5   9   1   36.70    3.40
  -4   9   1   21.80    2.70
  -3   9   1   16.20    2.40
  -2   9   1   27.50    3.00
  -1   9   1   14.50    2.60
   0   9   1   52.29    4.00
   1   9   1   62.49    4.30
   3   9   1   14.70    3.00
  -7  10   1    8.60    2.70
  -6  10   1   -1.10    2.30
  -5  10   1   29.80    3.30
  -4  10   1   18.70    2.70
  -3  10   1   94.19    5.30
  -2  10   1   64.69    4.60
  -1  10   1  113.09    5.80
   0  10   1  107.19    5.90
   1  10   1   26.00    3.30
  -5  11   1   20.00    3.30
  -4  11   1   29.20    3.60
  -3  11   1   22.80    3.20
  -2  11   1   32.90    3.70
  -1  11   1   25.80    3.60
   0  11  -2   27.80    3.50
  -1  11  -2   -1.30    2.40
  -2  11  -2   22.60    3.30
  -3  11  -2   11.00    2.80
  -4  11  -2   23.90    3.20
  -5  11  -2   35.70    3.80
   2  10  -2   21.70    3.10
   1  10  -2   20.60    3.00
   1  10  -2   21.70    2.90
   0  10  -2  101.19    5.20
   0  10  -2  106.59    5.70
  -1  10  -2  103.89    5.60
  -2  10  -2  100.49    5.60
  -3  10  -2   15.90    2.90
  -4  10  -2  146.79    6.90
  -5  10  -2   -0.30    2.00
  -6  10  -2   88.89    5.10
  -7  10  -2    9.40    2.60
   3   9  -2   43.00    3.90
   2   9  -2   17.10    2.60
   2   9  -2   16.60    2.70
   1   9  -2  144.69    6.50
   1   9  -2  146.09    6.20
   0   9  -2    0.90    1.70
   0   9  -2    1.50    2.00
  -1   9  -2  617.84   21.00
  -1   9  -2  648.64   20.10
  -2   9  -2    7.70    1.90
  -2   9  -2   14.00    2.40
  -3   9  -2  300.07   11.00
  -4   9  -2    1.20    1.90
  -5   9  -2   57.39    3.70
  -6   9  -2   12.60    2.40
  -7   9  -2   59.49    4.00
   4   8  -2   34.10    3.70
   3   8  -2    2.00    2.10
   2   8  -2   24.00    2.60
   2   8  -2   19.90    2.40
   1   8  -2  104.09    5.20
   1   8  -2  106.29    4.90
   0   8  -2   57.29    3.30
   0   8  -2   61.79    3.80
  -1   8  -2  216.88    7.70
  -1   8  -2  216.98    8.30
  -2   8  -2   67.29    3.50
  -2   8  -2   66.39    3.70
  -3   8  -2  245.38    9.10
  -3   8  -2  246.08    8.50
  -4   8  -2    1.50    1.60
  -4   8  -2    0.90    1.50
  -5   8  -2   97.69    4.60
  -6   8  -2    5.80    1.90
   5   7  -2   46.20    4.20
   4   7  -2   13.40    2.50
   3   7  -2   24.20    2.70
   2   7  -2   20.30    2.20
   2   7  -2   17.80    2.30
   1   7  -2    7.20    1.70
   1   7  -2   16.50    2.00
   0   7  -2   36.10    2.70
   0   7  -2   34.00    2.50
  -1   7  -2    9.70    1.50
  -1   7  -2    8.20    1.70
  -2   7  -2  242.88    8.20
  -3   7  -2   48.60    2.80
  -4   7  -2  483.35   15.30
  -5   7  -2    2.10    1.40
  -5   7  -2    0.50    1.40
   5  -7   2    1.30    1.70
  -6   7  -2  214.88    7.70
  -6   7  -2  204.88    7.40
   6  -7   2  191.98    8.10
   7  -7   2   -0.10    2.20
   8  -7   2   49.10    4.60
  -9   7  -2    5.70    3.20
   9  -7   2    6.40    3.40
   6   6  -2    4.00    2.70
   5   6  -2    1.90    2.30
   4   6  -2    1.90    2.00
   3   6  -2   99.39    4.80
   3   6  -2  103.19    4.40
   2   6  -2   59.29    3.20
   2   6  -2   45.90    2.80
   1   6  -2  210.18    7.60
   1   6  -2  213.88    7.40
   0   6  -2   59.09    2.90
  -1   6  -2   61.89    2.90
  -2   6  -2    3.40    1.10
  -3   6  -2  421.56   13.30
   3  -6   2  420.26   14.00
  -4   6  -2   58.19    2.90
   4  -6   2   58.99    3.10
   5  -6   2  117.79    5.00
  -6   6  -2    2.60    1.30
   6  -6   2    3.10    2.10
   7  -6   2   56.39    4.10
   8  -6   2   45.30    4.40
  -9   6  -2   27.50    3.70
   9  -6   2   23.60    4.00
   7   5  -2    0.10    2.60
   6   5  -2   45.30    3.90
   5   5  -2   30.20    3.00
   4   5  -2  201.78    7.70
   3   5  -2   33.10    2.30
   3   5  -2   34.20    2.70
   2   5  -2  842.52   25.90
   1   5  -2  120.29    4.60
   0   5  -2 3604.94  106.39
  -1   5  -2   28.40    1.80
  -2   5  -2 1587.24   46.50
   2  -5   2 1535.25   49.60
  -3   5  -2   81.99    3.40
   3  -5   2   87.49    3.50
   5  -5   2   15.10    2.00
   6  -5   2  362.66   13.10
   7  -5   2    8.30    2.60
   8  -5   2    5.70    2.60
  -9   5  -2   33.10    3.90
   9  -5   2   32.50    4.10
   8   4  -2   19.20    3.70
   7   4  -2   22.90    3.20
   6   4  -2   13.40    2.60
   5   4  -2  344.17   12.10
   4   4  -2   14.10    2.00
   3   4  -2  879.81   26.90
   3   4  -2  858.21   27.00
  -3  -4   2  883.81   28.10
   2   4  -2    4.20    1.20
  -2  -4   2    6.10    0.80
   1   4  -2 2076.89   61.59
   0   4  -2  161.18    5.50
  -1   4  -2 2273.37   73.09
  -1   4  -2 2349.96   68.29
  -2   4  -2  237.48    7.60
   2  -4   2  234.68    7.90
   3  -4   2   83.19    3.40
   4  -4   2  243.08    8.70
   5  -4   2   47.80    3.20
   6  -4   2  196.38    7.90
   7  -4   2   15.40    2.60
  -8   4  -2    4.30    2.50
   8  -4   2    2.90    2.60
  -9   4  -2    4.60    2.60
   8   3  -2   19.50    3.60
   7   3  -2    2.10    2.40
   6   3  -2  273.67   10.40
   6   3  -2  276.97   10.10
   5   3  -2   15.60    2.10
   5   3  -2   17.50    2.30
   4   3  -2  517.75   16.60
   4   3  -2  523.05   17.40
   3   3  -2  150.48    5.60
   3   3  -2  151.88    5.50
   2   3  -2 1092.89   34.70
   2   3  -2 1081.69   32.70
   1   3  -2  200.08    6.40
   1   3  -2  190.88    6.30
   0   3  -2  519.65   15.80
  -1   3  -2  125.79    4.40
  -1   3  -2  129.99    4.30
   2  -3   2  111.09    4.00
   3  -3   2   62.49    2.80
   4  -3   2   54.39    2.90
   5  -3   2   76.99    3.90
   6  -3   2    6.40    2.10
  -7   3  -2   27.30    2.80
   7  -3   2   30.10    3.10
  -8   3  -2    1.50    2.30
  -9   3  -2   37.90    3.80
   8   2  -2    7.60    3.00
   8   2  -2    5.50    2.90
  -8  -2   2    5.80    2.60
   7   2  -2   18.80    2.80
   7   2  -2   13.80    2.60
   6   2  -2   58.49    3.90
   6   2  -2   54.59    3.50
   5   2  -2    6.80    1.70
   5   2  -2    9.30    1.80
   4   2  -2  108.89    4.60
   3   2  -2   67.29    3.00
   3   2  -2   64.09    2.80
   2   2  -2  308.87    9.80
   2   2  -2  311.77   10.20
   1   2  -2  241.48    7.80
   1   2  -2  237.48    7.60
   0   2  -2   23.90    1.00
   0   2  -2   24.60    1.20
  -1   2  -2   84.39    2.90
  -1   2  -2   82.09    3.00
  -2   2  -2 1735.83   55.19
  -3   2  -2 1645.54   53.09
   3  -2   2 1680.53   53.09
   4  -2   2 1435.36   46.20
   5  -2   2  200.08    7.70
  -6   2  -2  201.28    7.90
   6  -2   2  200.88    8.00
  -7   2  -2   26.70    2.80
  -8   2  -2   18.40    2.80
  -9   2  -2   28.60    3.60
   9   1  -2   -0.50    3.10
   9   1  -2    4.80    2.70
  -9  -1   2    0.70    2.60
   8   1  -2    8.30    2.70
   8   1  -2    9.20    2.80
   7   1  -2   70.79    4.40
   7   1  -2   74.39    4.50
   6   1  -2   55.79    3.50
   5   1  -2  295.37   10.40
   5   1  -2  283.37    9.80
   4   1  -2  142.79    5.30
   4   1  -2  145.39    5.50
   3   1  -2  778.52   25.00
   3   1  -2  767.52   23.40
   2   1  -2  209.78    6.70
   2   1  -2  205.08    7.00
   1   1  -2 2021.10   64.89
   1   1  -2 2066.69   60.19
   0   1  -2  305.57    9.40
   0   1  -2  307.37   10.00
  -1   1  -2  386.16   12.50
  -2   1  -2 2357.36   74.79
  -3   1  -2   82.39    3.40
  -4   1  -2   69.69    3.30
  -5   1  -2   11.30    1.70
  -6   1  -2    1.10    1.60
  -7   1  -2   45.80    3.50
  -8   1  -2   11.10    2.80
  -9   1  -2   69.89    5.00
   9   0  -2   -0.90    2.80
   9   0  -2    0.80    2.80
   8   0  -2   28.50    3.20
   8   0  -2   27.70    3.40
   7   0  -2    0.50    1.70
   7   0  -2   10.50    2.20
   6   0  -2  376.16   13.40
   6   0  -2  379.96   12.60
   5   0  -2  254.07    8.60
   5   0  -2  253.27    9.20
   4   0  -2  588.64   18.30
   4   0  -2  604.54   19.70
   3   0  -2 1200.98   36.00
   3   0  -2 1215.18   38.80
   2   0  -2 2094.99   66.49
   1   0  -2 4140.29  131.49
   0   0  -2 1561.64   49.50
  -1   0  -2 3720.63  118.49
  -2   0  -2  176.38    6.20
  -3   0  -2  527.75   17.50
   3   0   2  536.45   16.40
  -4   0  -2  105.39    4.50
   4   0   2  112.99    4.30
  -5   0  -2  109.29    4.80
   5   0   2  106.29    4.60
  -6   0  -2   96.49    4.80
   6   0   2   99.79    4.80
  -7   0  -2   -1.30    1.90
  -8   0  -2  108.79    5.80
  -9   0  -2   17.00    3.30
   9  -1  -2   20.70    3.20
   9  -1  -2   14.30    3.20
   8  -1  -2   -0.10    2.50
   8  -1  -2    5.60    2.30
   7  -1  -2  110.89    5.60
   7  -1  -2  114.69    5.10
   6  -1  -2  115.99    5.20
   6  -1  -2  112.09    4.70
   5  -1  -2  114.69    4.80
   5  -1  -2  108.09    4.30
   4  -1  -2   27.40    2.00
  -4   1   2   28.90    1.30
   3  -1  -2   54.99    2.50
   3  -1  -2   54.79    2.10
  -3   1   2   52.59    2.00
   2  -1  -2    6.30    0.80
  -2   1   2    6.40    0.70
   1  -1  -2   23.40    1.20
  -1   1   2   17.70    1.00
   0  -1  -2  365.66   11.90
   0   1   2  363.46   11.40
  -1  -1  -2  544.55   17.90
   1   1   2  556.84   16.60
  -2  -1  -2    3.70    0.80
   2   1   2    0.30    0.60
   2   1   2    0.40    0.50
  -3  -1  -2  156.98    5.80
   3   1   2  154.18    5.40
  -4  -1  -2  126.89    5.10
   4   1   2  122.19    4.80
  -5  -1  -2    3.20    1.50
   5   1   2    3.40    1.50
  -6  -1  -2   25.70    2.60
   6   1   2   22.70    2.60
  -7  -1  -2    6.40    2.20
   7   1   2    4.00    2.10
  -8  -1  -2    3.10    2.50
   8   1   2    6.00    3.00
   9  -2  -2    5.10    2.90
   8  -2  -2   -0.40    2.40
   7  -2  -2   47.70    3.10
   7  -2  -2   46.70    3.50
   6  -2  -2   11.00    1.90
   5  -2  -2   22.60    2.20
   5  -2  -2   22.60    1.60
  -5   2   2   18.40    1.30
   4  -2  -2  115.89    3.90
   4  -2  -2  118.69    4.60
  -4   2   2  104.29    3.80
   3  -2  -2  253.57    8.60
  -3   2   2  244.18    8.00
   2  -2  -2  280.87    9.80
  -2   2   2  301.67    9.30
   1  -2  -2  136.09    4.80
  -1   2   2  137.29    4.60
   0   2   2 1173.18   35.60
   0   2   2 1157.48   34.40
  -1  -2  -2  137.59    5.00
   1   2   2  143.19    4.80
  -2  -2  -2 1867.91   57.69
   2   2   2 1848.92   54.99
   2   2   2 1706.83   53.59
  -3  -2  -2  537.45   17.90
   3   2   2  538.75   16.80
   3   2   2  540.85   16.90
  -4  -2  -2  132.69    5.30
   4   2   2  132.49    5.30
  -5  -2  -2   18.30    2.10
   5   2   2   19.40    2.20
  -6  -2  -2   34.20    3.30
   6   2   2   34.20    3.10
  -7  -2  -2   -0.30    2.00
   7   2   2   -0.20    2.30
  -8  -2  -2   28.80    3.40
   8   2   2   31.90    3.90
   9  -3  -2   22.40    3.30
   8  -3  -2    1.20    2.30
   7  -3  -2  100.69    5.10
   6  -3  -2   27.80    2.70
   5  -3  -2   14.20    1.80
  -5   3   2   22.10    1.50
   4  -3  -2    3.00    1.10
  -4   3   2    2.70    0.80
   3  -3  -2  222.28    7.80
  -3   3   2  217.68    7.30
   2  -3  -2   62.29    2.80
  -2   3   2   62.69    2.60
  -1   3   2  453.05   14.30
   0  -3  -2 1142.39   36.10
   0   3   2 1114.59   34.60
   0   3   2 1120.29   33.40
  -1  -3  -2 1361.26   43.90
   1   3   2 1357.56   42.00
   1   3   2 1402.76   40.90
   2   3   2  214.28    7.20
   2   3   2  212.98    7.20
   3   3   2  692.33   21.90
   3   3   2  726.13   22.20
  -4  -3  -2   41.40    2.90
   4   3   2   40.20    2.70
  -5  -3  -2  142.89    6.00
   5   3   2  144.99    6.20
  -6  -3  -2    2.70    1.90
   6   3   2    1.60    2.20
  -7  -3  -2   51.39    4.40
   7   3   2   52.79    4.20
   8   3   2    9.80    3.20
   9  -4  -2   10.90    3.20
   8  -4  -2   -0.20    2.20
   7  -4  -2   65.59    4.10
   6  -4  -2   51.39    3.50
   5  -4  -2   36.40    2.70
  -5   4   2   33.20    2.00
   4  -4  -2  120.09    5.00
  -4   4   2  115.69    4.40
   3  -4  -2  494.45   16.50
  -3   4   2  500.75   15.80
  -3   4   2  493.05   14.80
  -2   4   2   50.09    2.50
  -2   4   2   53.89    1.90
   1  -4  -2 1337.17   43.80
  -1   4   2 1380.86   42.20
  -1   4   2 1394.96   40.50
   0  -4  -2  488.85   15.80
   0   4   2  474.85   15.40
   0   4   2  478.05   14.70
  -1  -4  -2  498.05   16.80
   1   4   2  510.15   16.20
   1   4   2  510.55   15.60
  -2  -4  -2  128.49    5.10
   2   4   2  129.99    4.90
  -3  -4  -2   99.89    4.30
   3   4   2   92.19    4.00
   3   4   2   89.59    4.20
  -4  -4  -2   78.39    4.10
   4   4   2  107.59    4.50
   5   4   2   24.40    3.00
   6   4   2   46.30    4.10
   7   4   2   -1.90    2.40
   9  -5  -2    5.00    3.00
   8  -5  -2   11.30    2.70
   7  -5  -2   92.09    5.00
   6  -5  -2   59.49    3.90
  -6   5   2   62.09    3.10
   5  -5  -2  116.39    5.20
  -5   5   2  116.19    4.60
   4  -5  -2    4.10    1.40
  -4   5   2    4.80    1.20
  -3   5   2  652.13   20.70
   2  -5  -2   44.50    2.50
  -2   5   2   44.20    2.60
  -2   5   2   42.50    1.80
   1  -5  -2  754.72   24.40
  -1   5   2  754.72   23.70
  -1   5   2  742.13   22.50
   0  -5  -2   13.30    1.40
   0   5   2   12.90    1.50
   0   5   2   11.00    1.20
  -1  -5  -2   63.09    3.30
   1   5   2   72.79    3.30
   1   5   2   63.19    3.00
  -2  -5  -2   78.79    3.70
   2   5   2   76.59    3.60
   3   5   2   17.30    2.20
   3   5   2   22.20    2.00
   4   5   2   71.79    4.10
   5   5   2   -0.20    2.20
   6   5   2    1.20    2.40
   9  -6  -2    2.20    2.90
   8  -6  -2   31.20    3.60
   7  -6  -2    0.70    2.20
   6  -6  -2   43.10    3.40
  -6   6   2   47.80    2.90
   5  -6  -2   41.10    3.00
  -5   6   2   38.20    2.60
   4  -6  -2    2.90    0.80
  -4   6   2    4.70    1.30
   3  -6  -2   16.20    1.80
  -3   6   2   23.90    2.10
   2  -6  -2  209.68    7.60
  -2   6   2  203.88    7.50
   1  -6  -2  136.49    5.20
  -1   6   2  132.69    5.50
  -1   6   2  130.69    4.70
   0   6   2   -0.50    1.30
   0   6   2    1.50    1.10
   1   6   2  349.96   11.90
   1   6   2  352.26   11.50
   2   6   2   80.49    3.90
   2   6   2   73.99    3.90
   3   6   2   73.19    4.10
   4   6   2   18.30    2.70
   5   6   2   45.40    4.10
   6   6   2   10.60    3.40
   9  -7  -2    5.10    3.00
   8  -7  -2    5.50    2.70
   7  -7  -2   18.50    3.00
   6  -7  -2    3.30    2.10
  -6   7   2    3.10    1.60
   5  -7  -2   13.50    2.00
   4  -7  -2  306.37   11.10
  -4   7   2  309.37   10.90
  -3   7   2   85.59    4.30
  -2   7   2  574.34   18.90
  -1   7   2  219.98    8.20
   0   7   2  743.73   23.20
   0   7   2  766.32   24.30
   1   7   2   46.10    3.10
   1   7   2   42.90    3.20
   2   7   2  539.65   18.00
   2   7   2  545.95   17.50
   3   7   2   16.00    2.70
   4   7   2  124.39    6.10
   5   7   2   -0.20    2.70
   8  -8  -2   58.59    4.60
   7  -8  -2   23.00    3.20
  -7   8   2   21.20    2.50
  -6   8   2  124.79    5.70
  -5   8   2  122.99    5.50
  -4   8   2  112.09    5.20
  -3   8   2  329.27   11.80
  -2   8   2  105.89    5.00
  -1   8   2  605.94   20.10
   0   8   2   14.80    2.30
   1   8   2  264.57    9.90
   2   8   2   20.20    2.70
   2   8   2   18.40    2.60
   3   8   2  102.69    5.40
   4   8   2    6.10    2.70
  -7   9   2    4.40    2.10
  -6   9   2   40.80    3.60
  -5   9   2   -0.10    1.90
  -4   9   2   93.99    5.00
  -3   9   2    1.50    1.80
  -2   9   2  123.19    6.00
  -1   9   2    2.50    2.00
   0   9   2   58.09    4.10
   1   9   2    0.90    2.10
  -6  10   2    1.70    2.30
  -5  10   2    3.80    2.40
  -4  10   2    9.80    2.70
  -3  10   2   35.40    3.60
  -2  10   2    0.50    2.30
  -1  10   2    8.00    2.50
   0  10   2   22.40    3.30
   1  10   2    2.00    2.50
  -4  11   2   -0.50    2.20
  -3  11   2   29.70    3.60
   0  11  -3    8.70    2.60
   0  11  -3    6.60    2.80
  -1  11  -3   48.60    4.50
  -2  11  -3    8.00    3.00
  -3  11  -3   20.00    3.30
  -4  11  -3   10.50    2.70
  -5  11  -3    3.20    2.70
   2  10  -3   14.90    3.00
   1  10  -3    8.60    2.40
   1  10  -3    9.70    2.60
   0  10  -3    9.10    2.50
   0  10  -3   17.10    2.60
  -1  10  -3   12.00    2.70
  -1  10  -3   13.30    2.40
  -2  10  -3    4.40    2.10
  -2  10  -3    4.20    2.00
  -3  10  -3   10.90    2.40
  -4  10  -3   32.30    3.30
  -5  10  -3    6.40    2.30
  -6  10  -3   49.30    3.80
   3   9  -3    1.10    2.40
   2   9  -3   18.70    2.70
   2   9  -3   16.00    2.70
   1   9  -3    3.80    2.10
   1   9  -3    7.10    2.20
   0   9  -3   14.60    2.50
   0   9  -3   16.30    2.30
  -1   9  -3    6.90    2.20
  -1   9  -3   10.70    2.00
  -2   9  -3   44.60    3.60
  -2   9  -3   50.29    3.30
  -3   9  -3  104.49    4.70
  -3   9  -3  100.39    5.00
  -4   9  -3   77.49    4.50
  -4   9  -3   80.39    4.20
  -5   9  -3   61.89    4.00
  -6   9  -3   14.40    2.50
  -7   9  -3   13.40    2.50
   4   8  -3   37.20    3.70
   3   8  -3  142.09    6.30
   2   8  -3   59.89    3.70
   2   8  -3   58.69    4.00
   1   8  -3  358.06   11.90
   1   8  -3  345.27   12.40
   0   8  -3  133.49    6.00
   0   8  -3  141.49    5.60
  -1   8  -3  134.69    5.40
  -2   8  -3   36.00    2.80
  -3   8  -3   91.89    4.20
  -4   8  -3    0.20    1.50
  -5   8  -3    6.60    1.80
  -6   8  -3    1.90    1.80
  -6   8  -3    1.80    1.70
   5   7  -3   85.09    5.00
   4   7  -3   56.99    4.10
   3   7  -3  150.58    6.30
   2   7  -3  230.08    8.70
   2   7  -3  244.98    8.60
   1   7  -3  190.58    7.00
   0   7  -3  653.93   20.40
  -1   7  -3  372.66   12.10
  -2   7  -3  588.74   18.40
  -3   7  -3    5.30    1.40
  -4   7  -3  280.67    9.60
  -5   7  -3    4.70    1.70
  -5   7  -3    0.50    1.70
  -6   7  -3   67.49    3.70
  -6   7  -3   69.99    4.30
   6  -7   3   51.89    3.70
  -7   7  -3    0.70    2.20
  -8   7  -3    6.00    2.80
   6   6  -3   70.69    5.00
   5   6  -3   33.80    3.50
   4   6  -3   55.39    3.80
   3   6  -3    4.20    1.40
   3   6  -3    5.20    1.70
   2   6  -3   43.70    2.90
   1   6  -3   71.39    3.50
   0   6  -3  279.27    9.30
  -1   6  -3  293.87    9.60
  -2   6  -3  293.87    9.60
  -3   6  -3    0.50    1.10
  -3   6  -3    0.40    1.00
  -4   6  -3   41.10    3.00
  -4   6  -3   40.60    2.60
   4  -6   3   45.20    2.70
  -5   6  -3    5.40    1.70
  -5   6  -3    1.90    1.20
   5  -6   3    1.90    1.00
  -6   6  -3    3.60    2.00
   6  -6   3    0.10    1.70
  -7   6  -3    0.20    2.00
  -8   6  -3    4.20    2.50
  -9   6  -3   17.80    3.50
   7   5  -3   -1.00    2.80
   6   5  -3   25.20    3.30
   5   5  -3    1.00    2.10
   4   5  -3   36.10    2.80
   3   5  -3   48.10    3.10
   2   5  -3  147.19    5.60
   1   5  -3  206.38    7.10
   0   5  -3  152.78    5.40
  -1   5  -3  220.78    7.20
  -1   5  -3  221.28    7.40
  -2   5  -3  364.46   11.60
  -2   5  -3  365.36   12.10
  -3   5  -3  567.34   17.30
  -3   5  -3  546.85   18.30
  -4   5  -3  487.45   16.40
  -5   5  -3  155.78    6.50
   5  -5   3  158.28    6.30
  -6   5  -3   64.89    4.00
   6  -5   3   70.49    4.00
  -7   5  -3   48.50    3.80
  -8   5  -3    9.60    2.70
  -9   5  -3   55.39    4.80
   8   4  -3    6.70    3.20
   7   4  -3   15.40    3.20
   6   4  -3   53.59    4.10
   5   4  -3   38.20    3.10
   4   4  -3   70.89    3.80
   3   4  -3   61.99    2.90
   3   4  -3   62.49    3.10
   2   4  -3  980.80   29.00
   2   4  -3  927.31   30.40
   1   4  -3  431.76   13.50
   0   4  -3 1249.47   37.30
  -1   4  -3  960.60   30.60
  -1   4  -3  960.80   28.80
  -2   4  -3 1513.15   44.30
  -2   4  -3 1462.35   47.40
  -3   4  -3   13.30    1.40
  -4   4  -3  788.82   25.80
  -5   4  -3   19.40    2.00
  -6   4  -3  155.08    6.50
  -7   4  -3    6.60    2.10
  -8   4  -3   55.49    4.50
  -9   4  -3   32.90    3.90
   8   3  -3    4.50    2.80
   7   3  -3    0.30    2.40
   6   3  -3  114.39    5.60
   6   3  -3  120.19    5.70
   5   3  -3   57.19    3.20
   4   3  -3  173.18    6.60
   4   3  -3  180.48    6.70
   3   3  -3 1107.39   36.10
   3   3  -3 1144.69   34.10
   2   3  -3  982.90   31.50
   2   3  -3  988.50   29.70
   1   3  -3 2955.20   85.59
   1   3  -3 2839.32   91.59
   0   3  -3 2254.17   69.69
   0   3  -3 2153.68   65.19
  -1   3  -3 3242.08  105.09
  -1   3  -3 3393.96   97.79
  -2   3  -3    1.10    0.80
  -3   3  -3 1229.38   39.50
  -4   3  -3   46.80    2.70
  -5   3  -3  309.67   11.00
  -6   3  -3   12.60    2.10
  -7   3  -3   25.70    2.90
  -8   3  -3   40.60    3.90
  -9   3  -3   21.50    3.40
   9   2  -3    2.00    3.20
   8   2  -3    8.40    3.00
   8   2  -3   10.40    2.90
   7   2  -3    8.90    2.60
   7   2  -3    9.30    2.60
   6   2  -3  189.78    7.40
   6   2  -3  184.58    7.60
   5   2  -3    3.60    1.40
   5   2  -3    1.00    1.50
   4   2  -3  248.18    8.80
   4   2  -3  248.38    8.50
   3   2  -3  315.77   10.40
   3   2  -3  326.27   10.80
   2   2  -3 1058.29   31.80
   2   2  -3 1062.39   33.90
   1   2  -3  120.79    4.20
   1   2  -3  121.99    4.10
   0   2  -3  958.20   30.60
   0   2  -3  967.00   28.60
  -1   2  -3   45.70    1.80
  -1   2  -3   45.10    2.00
  -2   2  -3  304.27   10.20
  -3   2  -3    2.30    1.00
  -4   2  -3  330.87   11.50
  -5   2  -3   15.20    1.90
  -6   2  -3   28.80    2.70
  -7   2  -3    2.00    2.00
  -8   2  -3    7.40    2.70
  -9   2  -3    3.60    2.70
   9   1  -3    9.70    3.30
   9   1  -3    7.50    3.20
   8   1  -3    2.10    2.50
   8   1  -3   -3.20    2.40
   7   1  -3  111.39    5.40
   7   1  -3   93.49    4.80
   6   1  -3   52.49    3.40
   6   1  -3   52.99    3.30
   5   1  -3  173.78    6.40
   5   1  -3  172.58    6.70
   4   1  -3    0.50    1.00
   4   1  -3    5.90    1.20
   3   1  -3    4.80    0.90
   3   1  -3    4.90    0.90
   2   1  -3  452.65   13.70
   2   1  -3  445.36   14.60
   1   1  -3   35.40    1.40
   1   1  -3   34.10    1.50
   0   1  -3  693.53   21.90
   0   1  -3  675.33   20.40
  -1   1  -3   84.99    3.20
  -2   1  -3 1564.04   49.90
  -3   1  -3   95.29    4.00
  -4   1  -3  475.15   16.00
  -5   1  -3  205.48    7.80
  -6   1  -3  109.19    5.30
  -7   1  -3   78.89    4.70
  -8   1  -3   30.10    3.40
  -9   1  -3   22.00    3.40
   9   0  -3   12.70    3.20
   9   0  -3    7.60    3.10
   8   0  -3    0.70    2.00
   8   0  -3    1.40    2.40
   7   0  -3    8.00    2.20
   7   0  -3   13.00    2.30
   6   0  -3   17.50    2.00
   6   0  -3   18.60    2.30
   5   0  -3  127.79    5.40
   5   0  -3  135.19    5.10
   4   0  -3  119.79    4.90
   4   0  -3  122.69    4.50
   3   0  -3 1924.61   61.39
   2   0  -3  240.08    8.00
   2   0  -3  227.38    7.30
   1   0  -3  301.97    9.00
   1   0  -3  293.77    9.80
   0   0  -3   55.49    2.30
  -1   0  -3  567.44   18.50
  -2   0  -3  803.32   26.10
  -3   0  -3 2242.78   71.49
  -4   0  -3  327.57   11.40
  -5   0  -3  286.57   10.40
  -6   0  -3  142.69    6.20
  -7   0  -3   66.09    4.40
  -8   0  -3  102.69    5.90
   9  -1  -3   26.70    3.80
   9  -1  -3   24.60    3.30
   8  -1  -3   -0.50    1.90
   8  -1  -3   -0.80    2.20
   7  -1  -3   96.99    4.70
   7  -1  -3   96.49    5.10
   6  -1  -3  156.28    6.00
   6  -1  -3  165.98    6.70
   5  -1  -3   23.50    2.20
   4  -1  -3  987.20   32.10
   4  -1  -3  989.20   29.60
   3  -1  -3   36.50    1.60
   3  -1  -3   31.60    1.90
  -3   1   3   31.80    1.50
   2  -1  -3  595.84   19.30
  -2   1   3  589.84   18.30
   1  -1  -3  748.83   24.20
  -1   1   3  750.12   23.10
   0  -1  -3 1737.43   55.29
   0   1   3 1734.83   52.79
  -1  -1  -3 2919.01   94.19
   1   1   3 3016.90   89.89
  -2  -1  -3  283.87    9.80
   2   1   3  283.97    9.00
  -3  -1  -3 1245.18   39.40
   3   1   3 1192.28   36.60
  -4  -1  -3  109.49    4.80
   4   1   3  118.19    4.60
  -5  -1  -3   31.10    2.90
   5   1   3   29.40    2.70
  -6  -1  -3   56.89    3.80
   6   1   3   59.09    3.90
  -7  -1  -3   31.40    3.10
  -8  -1  -3    1.20    2.50
   9  -2  -3    9.40    3.00
   8  -2  -3    5.30    2.30
   8  -2  -3    2.40    1.60
   7  -2  -3   22.10    1.90
   6  -2  -3    4.50    1.30
   6  -2  -3    6.80    1.80
   5  -2  -3  145.69    5.70
   5  -2  -3  131.59    4.70
  -5   2   3  127.59    4.60
   4  -2  -3  307.37   10.70
   4  -2  -3  309.47    9.50
  -4   2   3  299.97    9.80
   3  -2  -3 1331.37   42.70
   3  -2  -3 1336.17   39.20
  -3   2   3 1320.27   40.60
  -2   2   3   27.50    1.50
   1  -2  -3 2302.77   73.79
  -1   2   3 2342.97   70.49
   0  -2  -3 1235.48   39.00
   0   2   3 1210.28   37.30
   0   2   3 1206.98   36.00
  -1  -2  -3 2059.89   64.89
   1   2   3 2054.99   61.99
   1   2   3 1998.00   60.19
  -2  -2  -3  192.68    6.90
   2   2   3  185.28    6.30
   2   2   3  184.88    6.40
  -3  -2  -3  546.95   18.60
   3   2   3  536.55   17.60
   3   2   3  594.84   17.40
  -4  -2  -3    2.90    1.40
   4   2   3    1.60    1.30
  -5  -2  -3   36.80    3.00
   5   2   3   37.20    3.10
  -6  -2  -3   38.80    3.40
   6   2   3   39.90    3.50
  -7  -2  -3    1.50    2.40
   7   2   3    3.70    2.60
  -8  -2  -3   -0.10    2.70
   9  -3  -3    4.70    2.70
   8  -3  -3   21.50    2.90
   7  -3  -3   64.79    4.10
   6  -3  -3  149.29    6.40
   5  -3  -3  114.59    4.90
  -5   3   3  105.19    4.10
   4  -3  -3  120.69    5.00
  -4   3   3  119.29    4.40
   3  -3  -3  147.99    5.60
  -3   3   3  143.79    5.10
   2  -3  -3 1330.27   43.10
  -2   3   3 1351.36   41.10
   1  -3  -3   14.60    1.50
  -1   3   3   10.10    1.10
   0  -3  -3  480.55   18.20
   0   3   3  600.44   17.60
   0   3   3  585.64   16.70
  -1  -3  -3   20.20    1.70
   1   3   3   25.40    1.70
  -2  -3  -3  130.69    5.30
   2   3   3  132.09    4.80
  -3  -3  -3    1.30    1.30
   3   3   3    1.60    1.00
   3   3   3    1.70    1.20
  -4  -3  -3   98.39    4.60
   4   3   3   94.69    4.50
  -5  -3  -3    4.80    1.90
   5   3   3    4.20    2.00
  -6  -3  -3    0.90    1.90
   6   3   3    2.70    2.30
  -7  -3  -3   14.00    2.90
   7   3   3    8.60    3.00
   9  -4  -3   12.40    3.00
   8  -4  -3   40.20    3.70
   7  -4  -3    6.10    2.10
   6  -4  -3   61.69    3.90
   5  -4  -3  182.48    7.20
  -5   4   3  181.58    6.50
   4  -4  -3  176.78    6.70
  -4   4   3  162.98    6.00
   3  -4  -3  185.48    7.10
  -3   4   3  193.68    6.70
   2  -4  -3    1.20    1.00
  -2   4   3    1.50    0.90
  -1   4   3   63.99    2.30
  -1   4   3   65.69    3.00
   0  -4  -3    4.70    1.10
   0   4   3    5.20    0.80
  -1  -4  -3  143.19    5.70
   1   4   3  144.79    5.10
   1   4   3  146.19    5.40
  -2  -4  -3  218.88    9.10
   2   4   3  300.97    8.70
   3   4   3   15.30    1.80
   3   4   3   14.90    1.90
  -4  -4  -3   38.60    3.00
   4   4   3   45.00    3.30
  -5  -4  -3   29.10    2.90
   5   4   3   24.80    3.00
   6   4   3   33.70    3.60
   7   4   3   16.10    3.60
   9  -5  -3    4.30    3.00
   8  -5  -3    1.50    2.40
   7  -5  -3   15.80    2.60
   6  -5  -3    2.80    1.90
  -6   5   3    8.00    1.50
   5  -5  -3  122.79    5.40
  -5   5   3  111.99    4.70
   4  -5  -3  128.59    5.40
  -4   5   3  129.19    5.10
   3  -5  -3  182.78    6.90
  -3   5   3  176.28    6.50
   2  -5  -3  119.89    4.80
   1  -5  -3  627.14   20.80
  -1   5   3  639.84   19.00
  -1   5   3  624.24   20.10
   0  -5  -3  462.75   15.50
   0   5   3  454.75   14.10
   0   5   3  457.25   15.00
  -1  -5  -3  337.37   11.60
   1   5   3  330.47   10.70
   1   5   3  324.87   11.20
  -2  -5  -3  678.73   21.80
   2   5   3  625.24   20.90
   2   5   3  655.73   20.40
  -3  -5  -3  103.99    4.90
   3   5   3  103.19    4.60
   3   5   3   92.69    4.50
   4   5   3   81.99    4.60
   5   5   3   -1.00    2.20
   6   5   3   10.10    3.00
   9  -6  -3    4.20    2.90
   8  -6  -3   67.09    4.70
   7  -6  -3   22.80    3.00
   6  -6  -3  228.58    9.20
  -6   6   3  232.88    8.30
   5  -6  -3  121.79    5.50
  -5   6   3  119.29    5.00
   4  -6  -3  323.37   11.40
  -4   6   3  308.77   10.80
   3  -6  -3  100.69    4.80
  -3   6   3  128.79    4.80
   2  -6  -3  384.36   13.20
  -2   6   3  378.16   12.80
   1  -6  -3  743.13   24.30
  -1   6   3  725.83   23.50
   0  -6  -3  392.86   13.20
   0   6   3  368.86   12.90
   0   6   3  381.46   12.10
   1   6   3  214.88    8.00
   1   6   3  214.38    7.50
   2   6   3    4.00    1.60
   2   6   3    1.30    1.50
   3   6   3   39.90    3.00
   4   6   3    4.60    2.30
   5   6   3    7.60    2.80
   9  -7  -3   31.10    4.00
   8  -7  -3   14.80    3.20
   7  -7  -3   39.00    3.80
   6  -7  -3   45.40    3.70
  -6   7   3   47.20    3.20
   5  -7  -3    3.90    2.00
  -5   7   3    7.70    1.80
   4  -7  -3   61.09    3.70
  -4   7   3   76.29    3.80
   3  -7  -3   44.20    3.10
  -3   7   3   42.10    2.90
  -2   7   3   16.40    2.00
  -1   7   3    8.90    1.90
   0   7   3    0.50    1.70
   1   7   3    2.10    1.80
   2   7   3   19.50    2.40
   2   7   3   19.50    2.50
   3   7   3    2.80    2.00
   4   7   3    9.30    2.90
   8  -8  -3    2.60    3.00
   7  -8  -3   22.50    3.30
  -7   8   3   20.10    2.60
   6  -8  -3    9.20    2.60
  -6   8   3    9.50    2.20
  -5   8   3    8.00    1.90
  -4   8   3   40.10    3.00
  -3   8   3    1.60    1.60
  -2   8   3    8.20    2.10
  -1   8   3   26.00    2.80
   0   8   3   12.70    2.40
   1   8   3   54.49    4.00
   2   8   3   34.80    3.30
  -7   9   3   12.90    2.50
  -6   9   3   15.10    2.60
  -5   9   3   21.60    2.80
  -4   9   3    9.40    2.30
  -3   9   3   54.29    3.70
  -2   9   3    9.60    2.40
  -1   9   3   95.79    5.10
   0   9   3    0.80    2.10
   1   9   3  127.79    6.40
  -6  10   3   11.00    2.70
  -5  10   3    2.20    2.20
  -4  10   3   63.09    4.50
  -3  10   3    6.80    2.40
  -2  10   3  126.59    6.20
  -1  10   3   20.90    3.20
   0  10   3   43.90    4.10
  -1  11  -4   87.49    5.40
  -1  11  -4   89.29    5.00
  -2  11  -4    2.50    2.70
  -3  11  -4  125.49    6.60
  -4  11  -4   28.60    3.70
   2  10  -4   96.39    5.30
   1  10  -4    7.20    2.60
   1  10  -4    7.20    2.50
   0  10  -4  162.08    7.60
   0  10  -4  173.48    7.10
  -1  10  -4    2.70    2.30
  -1  10  -4    2.30    2.10
  -2  10  -4  170.78    6.90
  -2  10  -4  152.58    7.30
  -3  10  -4    9.90    2.40
  -3  10  -4   16.30    2.60
  -4  10  -4   78.79    4.90
  -5  10  -4    9.90    2.60
  -6  10  -4   12.90    2.80
   3   9  -4   61.09    4.40
   2   9  -4   11.40    2.50
   2   9  -4   12.00    2.60
   1   9  -4  131.99    6.40
   1   9  -4  145.19    6.10
   0   9  -4    3.70    1.80
   0   9  -4    1.90    1.90
  -1   9  -4  256.97    9.20
  -2   9  -4    8.80    2.10
  -3   9  -4   35.00    3.00
  -4   9  -4   25.20    2.80
  -5   9  -4    0.80    2.00
  -6   9  -4    6.40    2.20
  -7   9  -4   -0.40    2.00
   4   8  -4   32.30    3.50
   3   8  -4   43.60    3.60
   2   8  -4   20.70    2.60
   2   8  -4   24.20    2.70
   1   8  -4  136.49    5.80
   0   8  -4  117.79    5.10
  -1   8  -4   75.89    3.90
  -2   8  -4  110.59    4.80
  -3   8  -4  133.89    5.60
  -4   8  -4   16.30    2.20
  -5   8  -4   19.70    2.40
  -6   8  -4   31.00    3.00
  -7   8  -4    1.10    2.20
   5   7  -4    8.10    2.80
   4   7  -4   22.60    3.00
   3   7  -4   13.90    2.40
   2   7  -4  113.69    5.10
   1   7  -4   12.50    1.90
   0   7  -4   74.49    3.60
  -1   7  -4    3.20    1.40
  -2   7  -4  288.77    9.80
  -3   7  -4  157.38    6.00
  -4   7  -4  520.55   16.70
  -5   7  -4  104.29    4.80
  -6   7  -4   78.49    4.80
  -6   7  -4   78.09    4.20
  -7   7  -4   25.00    2.80
  -7   7  -4   32.50    3.50
  -8   7  -4   12.20    3.10
   6   6  -4   41.20    4.10
   5   6  -4   32.70    3.40
   4   6  -4   29.60    3.00
   3   6  -4  131.89    5.60
   2   6  -4   10.90    1.80
   1   6  -4  126.39    5.00
   0   6  -4  109.59    4.50
  -1   6  -4  626.94   19.50
  -2   6  -4  228.98    7.90
  -3   6  -4  389.56   12.60
  -3   6  -4  390.26   13.20
  -4   6  -4  150.98    6.20
  -4   6  -4  151.68    5.80
  -5   6  -4   60.89    3.80
  -5   6  -4   56.49    3.30
  -6   6  -4   24.00    2.80
  -7   6  -4    8.20    2.40
  -8   6  -4   22.10    3.30
  -9   6  -4   27.70    4.00
   7   5  -4    5.30    2.70
   6   5  -4   49.30    4.20
   5   5  -4    4.50    2.20
   4   5  -4   78.69    4.10
   3   5  -4  422.06   13.80
   2   5  -4  245.98    8.50
   1   5  -4  478.45   15.10
   0   5  -4  759.32   23.20
  -1   5  -4  560.64   17.80
  -1   5  -4  546.65   17.20
  -2   5  -4  409.66   12.90
  -2   5  -4  401.16   13.40
  -3   5  -4  197.28    6.90
  -3   5  -4  199.18    7.30
  -4   5  -4   17.50    2.00
  -5   5  -4    5.70    1.80
  -6   5  -4   10.70    2.30
  -7   5  -4    4.70    2.20
  -8   5  -4   21.40    3.30
  -9   5  -4   15.70    3.40
   8   4  -4   -0.70    3.00
   7   4  -4   23.60    3.30
   6   4  -4  106.99    5.60
   5   4  -4   87.39    4.60
   4   4  -4  288.37   10.00
   3   4  -4   13.80    1.70
   2   4  -4  607.14   19.80
   2   4  -4  621.04   19.00
   1   4  -4  109.19    3.80
   1   4  -4  110.99    4.30
   0   4  -4  410.76   13.20
   0   4  -4  410.66   12.90
  -1   4  -4    6.50    1.00
  -1   4  -4    6.60    0.80
  -2   4  -4   31.50    2.10
  -2   4  -4   35.60    2.10
  -3   4  -4  371.66   12.70
  -4   4  -4   64.19    3.50
  -5   4  -4    3.80    1.60
  -6   4  -4   94.19    4.90
  -7   4  -4   -0.30    2.20
  -8   4  -4   37.40    3.80
  -9   4  -4    5.40    2.90
   8   3  -4    3.20    2.90
   7   3  -4   43.00    3.90
   6   3  -4    4.00    1.90
   6   3  -4    1.10    2.10
   5   3  -4   68.59    3.70
   5   3  -4   60.89    3.70
   4   3  -4   87.09    4.10
   4   3  -4   87.89    3.90
   3   3  -4   -0.40    1.10
   3   3  -4    0.20    0.90
   2   3  -4  638.94   19.60
   2   3  -4  638.64   20.60
   1   3  -4  270.07    8.90
   1   3  -4  272.27    8.70
   0   3  -4  624.34   20.10
   0   3  -4  628.04   19.00
  -1   3  -4    6.40    0.80
  -1   3  -4    6.40    0.80
  -2   3  -4  510.65   16.80
  -3   3  -4  857.31   27.90
  -4   3  -4  153.68    6.10
  -5   3  -4   15.30    2.10
  -6   3  -4   70.59    4.10
  -7   3  -4    6.00    2.20
  -8   3  -4   36.70    3.80
  -9   3  -4   -0.10    2.80
   8   2  -4   -1.50    2.50
   8   2  -4    0.60    2.60
   7   2  -4   -1.20    2.10
   7   2  -4   -2.30    2.00
   6   2  -4   53.39    3.70
   6   2  -4   55.39    3.50
   5   2  -4   26.50    2.50
   5   2  -4   22.50    2.30
   4   2  -4  231.48    8.30
   4   2  -4  231.58    8.10
   3   2  -4 1385.46   44.50
   3   2  -4 1390.76   41.60
   2   2  -4  218.78    7.30
   2   2  -4  229.18    7.70
   1   2  -4 4486.95  142.39
   1   2  -4 4505.55  132.49
   0   2  -4 2491.75   74.99
   0   2  -4 2591.14   80.59
  -1   2  -4 3415.86  100.79
  -1   2  -4 3424.16  108.29
  -2   2  -4  116.59    4.60
  -3   2  -4 2331.47   74.39
  -4   2  -4   40.50    2.70
  -5   2  -4  137.19    5.80
  -6   2  -4    7.60    2.10
  -7   2  -4   24.60    2.90
  -8   2  -4   16.10    3.00
   9   1  -4   17.10    3.60
   9   1  -4   12.00    3.50
   8   1  -4    1.70    2.30
   8   1  -4    3.50    2.70
   7   1  -4   40.90    3.40
   7   1  -4   37.10    3.40
   6   1  -4   71.39    3.90
   6   1  -4   74.39    4.00
   5   1  -4  146.79    6.00
   5   1  -4  148.89    5.80
   4   1  -4  989.10   32.30
   4   1  -4 1003.90   30.20
   3   1  -4  495.45   16.10
   3   1  -4  479.35   15.10
   2   1  -4 1015.40   30.00
   2   1  -4  994.40   32.30
   1   1  -4 1382.86   44.30
   1   1  -4 1399.76   41.20
   0   1  -4 1671.43   52.59
   0   1  -4 1632.84   48.80
  -1   1  -4  660.23   21.50
  -2   1  -4  217.08    7.70
  -3   1  -4    7.70    1.30
  -4   1  -4   47.20    2.90
  -5   1  -4    1.90    1.60
  -6   1  -4   64.59    3.90
  -7   1  -4   -0.60    1.90
  -8   1  -4    4.50    2.50
   9   0  -4   25.50    3.70
   8   0  -4    7.50    2.50
   8   0  -4    5.10    2.60
   7   0  -4   95.29    4.70
   7   0  -4   96.39    5.00
   6   0  -4   12.50    2.00
   6   0  -4   13.20    1.90
   5   0  -4  221.48    8.10
   5   0  -4  211.58    7.50
   4   0  -4  205.28    7.50
   3   0  -4  274.67    9.40
   3   0  -4  266.67    8.60
   2   0  -4  259.67    8.90
   2   0  -4  261.07    8.10
   1   0  -4  164.38    5.10
   1   0  -4  159.98    5.70
   0   0  -4   75.99    3.10
  -1   0  -4   23.70    1.70
  -2   0  -4   22.60    1.80
  -3   0  -4  183.78    6.90
  -4   0  -4  265.27    9.60
  -5   0  -4    4.80    1.60
  -6   0  -4   14.40    2.30
  -7   0  -4    2.40    2.10
  -8   0  -4   16.60    3.10
   9  -1  -4    3.30    3.00
   8  -1  -4   31.40    3.00
   8  -1  -4   29.40    3.20
   7  -1  -4   -1.30    1.10
   7  -1  -4    1.20    1.90
   6  -1  -4  107.99    4.40
   5  -1  -4    9.10    1.60
   5  -1  -4    8.90    1.30
   4  -1  -4   10.60    1.10
   4  -1  -4   11.80    1.50
   3  -1  -4    6.40    0.80
   3  -1  -4    4.20    1.00
   2  -1  -4  806.92   24.20
   2  -1  -4  819.72   26.50
  -2   1   4  824.72   25.30
   1  -1  -4  162.58    5.90
   1  -1  -4  170.88    5.10
  -1   1   4  164.18    5.70
   0  -1  -4  732.23   23.30
   0   1   4  702.83   22.30
  -1  -1  -4  238.78    8.40
  -2  -1  -4    4.50    1.10
  -3  -1  -4  383.36   13.20
  -4  -1  -4   28.20    2.60
  -5  -1  -4  279.87   10.40
  -6  -1  -4    1.70    2.10
  -7  -1  -4   42.40    4.10
  -8  -1  -4   -1.30    2.70
   9  -2  -4    1.20    2.60
   8  -2  -4    2.40    2.20
   7  -2  -4    6.70    2.10
   6  -2  -4    1.20    1.10
   6  -2  -4    1.20    1.60
   5  -2  -4   38.50    2.10
   5  -2  -4   38.50    2.90
  -5   2   4   35.20    2.00
   4  -2  -4  867.01   25.50
   4  -2  -4  834.22   28.00
  -4   2   4  863.71   26.50
   3  -2  -4  505.15   16.80
  -3   2   4  497.75   15.80
   2  -2  -4 1721.43   55.89
  -2   2   4 1773.22   53.29
   1  -2  -4   52.29    2.50
  -1   2   4   50.49    2.30
   0  -2  -4  970.30   31.30
   0   2   4  968.10   30.00
  -1  -2  -4    9.70    1.30
   1   2   4    5.50    1.00
  -2  -2  -4 2065.29   64.59
   2   2   4 1967.40   59.89
  -3  -2  -4    1.40    1.40
   3   2   4    1.00    1.10
  -4  -2  -4  337.77   11.80
   4   2   4  317.67   11.00
  -5  -2  -4   11.20    2.20
   5   2   4   11.90    2.20
  -6  -2  -4   69.39    4.30
   6   2   4   61.39    4.40
  -7  -2  -4   10.40    2.80
   9  -3  -4    4.80    2.80
   8  -3  -4    1.50    2.20
   7  -3  -4   17.20    2.50
   6  -3  -4   43.20    3.20
   5  -3  -4  377.26   13.30
  -5   3   4  376.96   12.20
   4  -3  -4   27.70    2.30
  -4   3   4   24.70    1.90
   3  -3  -4 1420.36   46.80
  -3   3   4 1481.05   44.50
   2  -3  -4  384.16   12.90
  -2   3   4  372.86   12.30
   1  -3  -4 3506.35  110.89
  -1   3   4 3479.55  105.99
   0  -3  -4  563.84   17.80
   0   3   4  525.95   16.10
   0   3   4  510.25   16.90
  -1  -3  -4 2035.80   64.89
   1   3   4 2072.49   61.99
   1   3   4 1973.20   59.99
  -2  -3  -4  158.28    6.10
   2   3   4  147.39    5.40
  -3  -3  -4  619.24   20.60
   3   3   4  601.74   19.20
   3   3   4  617.24   19.60
  -4  -3  -4   48.00    3.50
   4   3   4   44.70    3.20
  -5  -3  -4   96.49    5.00
   5   3   4   95.89    4.90
  -6  -3  -4   13.00    2.60
   6   3   4   15.80    3.00
  -7  -3  -4   -0.30    2.70
   7   3   4    0.60    3.00
   9  -4  -4   27.60    3.60
   8  -4  -4   32.50    3.50
   7  -4  -4   17.10    2.60
   6  -4  -4  364.26   13.50
  -6   4   4  386.86   12.40
   5  -4  -4    2.10    1.60
  -5   4   4    0.10    1.00
   4  -4  -4  912.91   30.40
  -4   4   4  931.41   28.80
   3  -4  -4  131.49    5.30
  -3   4   4  127.49    4.90
   2  -4  -4  621.14   20.50
  -2   4   4  612.44   19.50
   0  -4  -4 1039.30   35.00
   0   4   4 1087.49   32.20
   0   4   4 1111.19   33.60
  -1  -4  -4    3.20    1.30
   1   4   4    3.60    1.00
   1   4   4    4.50    1.30
  -2  -4  -4  269.07    9.80
   2   4   4  260.57    9.30
   2   4   4  274.47    9.00
  -3  -4  -4    5.00    1.80
   3   4   4    3.50    1.50
   3   4   4    1.60    1.40
  -4  -4  -4   56.39    3.80
   4   4   4   50.49    3.50
  -5  -4  -4   12.90    2.40
   5   4   4   11.90    2.50
   6   4   4    9.80    2.90
   9  -5  -4    3.70    2.80
   8  -5  -4    2.20    2.50
   7  -5  -4   97.89    5.30
   6  -5  -4    2.50    2.00
  -6   5   4    0.50    1.30
   5  -5  -4  105.69    5.10
  -5   5   4  111.19    4.60
   4  -5  -4    0.80    1.40
  -4   5   4    0.20    1.20
   3  -5  -4  221.38    8.30
  -3   5   4  219.78    7.90
   2  -5  -4   32.50    2.60
  -2   5   4   37.30    2.50
  -1   5   4   44.10    2.70
   0  -5  -4   26.00    2.40
   0   5   4   29.80    2.40
   0   5   4   32.00    1.90
  -1  -5  -4    1.20    1.40
   1   5   4    4.10    1.40
   1   5   4    3.40    1.20
  -2  -5  -4  154.78    6.70
   2   5   4  159.78    6.50
   2   5   4  168.38    6.10
  -3  -5  -4    1.40    1.40
   3   5   4    5.90    1.80
   4   5   4   66.89    4.10
   5   5   4    1.30    2.40
   6   5   4    4.40    3.00
   9  -6  -4    8.20    3.00
   8  -6  -4   30.90    3.60
   7  -6  -4   17.60    3.00
   6  -6  -4   27.60    2.90
  -6   6   4   25.10    2.40
   5  -6  -4  144.09    6.40
  -5   6   4  141.09    5.80
   4  -6  -4   11.00    2.00
  -4   6   4    8.70    1.60
   3  -6  -4  222.78    9.30
  -3   6   4  284.47    9.20
   2  -6  -4    7.40    1.60
  -2   6   4    9.30    1.60
   1  -6  -4  222.98    8.40
  -1   6   4  215.08    8.20
   0  -6  -4   23.60    2.40
   0   6   4   19.30    2.20
   1   6   4  307.87   10.90
   2   6   4   33.00    3.00
   2   6   4   32.30    3.00
   3   6   4   71.89    4.20
   4   6   4   56.49    4.20
   5   6   4   17.50    3.30
   9  -7  -4    7.80    3.40
   8  -7  -4    6.40    2.80
   7  -7  -4   53.29    4.30
   6  -7  -4   64.09    4.40
  -6   7   4   64.09    3.90
   5  -7  -4    2.40    2.10
  -5   7   4    3.70    1.70
   4  -7  -4  150.18    6.40
   3  -7  -4   27.30    2.80
  -3   7   4   23.50    2.50
  -2   7   4  226.88    8.50
  -1   7   4   80.29    4.30
   0   7   4   76.49    4.30
   1   7   4  374.76   13.20
   2   7   4   22.80    2.80
   3   7   4  157.88    6.80
   4   7   4   -0.20    2.40
   8  -8  -4    0.90    2.90
   7  -8  -4   52.49    4.60
  -7   8   4   49.10    3.70
   6  -8  -4    6.10    2.40
  -6   8   4    7.70    2.10
  -5   8   4   36.90    3.20
  -4   8   4   58.99    3.60
  -3   8   4   58.39    3.70
  -2   8   4  200.78    8.00
  -1   8   4  135.09    6.20
   0   8   4  176.88    7.50
   1   8   4   14.60    2.70
   2   8   4   79.19    4.90
  -7   9   4   17.80    2.90
  -6   9   4    0.80    2.10
  -5   9   4   19.10    2.70
  -4   9   4    1.70    2.10
  -3   9   4   15.80    2.60
  -2   9   4   17.90    2.70
  -1   9   4   16.20    2.90
   0   9   4   40.70    3.80
   1   9   4    4.30    2.60
  -5  10   4    5.20    2.20
  -4  10   4   -0.90    2.00
  -3  10   4   14.60    2.80
  -2  10   4    0.70    2.50
  -1  10   4   17.80    3.20
  -1  11  -5   10.60    3.10
  -1  11  -5   10.20    2.70
  -2  11  -5    1.70    2.50
  -2  11  -5    3.40    2.70
  -3  11  -5    1.10    2.60
  -3  11  -5    3.00    2.60
  -4  11  -5    2.40    2.60
   2  10  -5    2.80    2.50
   1  10  -5   15.90    3.00
   1  10  -5   13.60    2.70
   0  10  -5   -1.40    2.20
   0  10  -5    3.80    2.30
  -1  10  -5   36.00    3.30
  -2  10  -5    4.10    2.20
  -4  10  -5   49.30    4.00
  -5  10  -5   40.00    3.80
  -6  10  -5    1.80    2.40
   3   9  -5    5.50    2.50
   2   9  -5   55.49    4.40
   2   9  -5   59.79    3.90
   1   9  -5   12.40    2.40
   0   9  -5   83.39    4.50
  -1   9  -5   77.19    4.30
  -2   9  -5   45.80    3.30
  -3   9  -5   31.70    3.00
  -4   9  -5   94.99    4.90
  -5   9  -5    4.60    2.10
  -6   9  -5   26.20    3.20
  -7   9  -5    0.20    2.60
   4   8  -5   15.20    3.00
   3   8  -5  123.89    5.70
   2   8  -5   14.00    2.40
   1   8  -5   70.69    4.00
   0   8  -5    0.80    1.60
  -1   8  -5   41.30    3.00
  -2   8  -5    9.20    1.90
  -3   8  -5   24.40    2.50
  -4   8  -5   26.90    2.70
  -5   8  -5   -0.60    1.80
  -6   8  -5    5.40    2.30
  -7   8  -5    0.70    2.30
   5   7  -5   10.90    2.80
   4   7  -5   45.50    3.70
   3   7  -5   20.30    2.50
   2   7  -5  125.39    5.30
   1   7  -5   18.80    2.20
   0   7  -5  259.27    9.10
  -1   7  -5  142.39    5.70
  -2   7  -5  316.47   10.80
  -3   7  -5  334.67   11.30
  -4   7  -5   38.00    3.10
  -5   7  -5   28.10    2.70
  -6   7  -5   24.50    2.90
  -6   7  -5   21.20    2.60
  -7   7  -5    2.60    2.10
  -7   7  -5    4.50    2.50
  -8   7  -5   12.70    3.20
   6   6  -5   14.60    2.90
   5   6  -5   31.40    3.20
   4   6  -5   22.00    2.60
   3   6  -5    2.50    1.60
   2   6  -5    9.10    1.90
   1   6  -5  101.39    4.30
   0   6  -5    3.90    1.40
  -1   6  -5  312.17   10.40
  -2   6  -5  139.79    5.40
  -3   6  -5    1.50    1.30
  -4   6  -5  115.69    4.90
  -4   6  -5  107.49    5.00
  -5   6  -5   44.30    3.60
  -5   6  -5   47.80    3.30
  -6   6  -5   48.20    4.00
  -7   6  -5    9.80    2.70
  -8   6  -5   10.10    2.90
   7   5  -5    5.20    3.00
   6   5  -5    1.90    2.50
   5   5  -5   15.20    2.60
   4   5  -5    0.70    1.60
   3   5  -5  107.19    4.70
   2   5  -5    7.60    1.50
   1   5  -5  393.06   12.70
   0   5  -5    1.80    1.10
  -1   5  -5  616.64   19.30
  -1   5  -5  630.34   20.20
  -2   5  -5   85.69    3.80
  -2   5  -5   82.09    3.60
  -3   5  -5 1604.04   51.69
  -3   5  -5 1614.34   48.30
  -4   5  -5  135.89    5.40
  -4   5  -5  135.79    5.80
  -5   5  -5  232.48    9.00
  -6   5  -5  101.79    5.20
  -7   5  -5   12.70    2.60
  -8   5  -5   52.99    4.50
   7   4  -5    6.00    2.60
   6   4  -5   48.00    3.70
   5   4  -5   25.40    2.80
   4   4  -5  578.54   18.50
   3   4  -5    7.70    1.60
   2   4  -5  846.72   27.40
   2   4  -5  858.91   26.10
   1   4  -5  623.94   20.20
   1   4  -5  634.04   19.40
   0   4  -5 2170.08   68.29
   0   4  -5 2138.49   63.99
  -1   4  -5  637.94   20.90
  -1   4  -5  649.74   19.80
  -2   4  -5 1239.08   40.40
  -2   4  -5 1274.37   37.80
  -3   4  -5  808.82   26.50
  -4   4  -5  166.28    6.70
  -5   4  -5  167.08    6.90
  -6   4  -5   15.90    2.50
  -7   4  -5   23.50    3.10
  -8   4  -5   19.30    3.20
   8   3  -5    2.90    3.00
   7   3  -5   67.19    4.60
   6   3  -5   -0.20    1.80
   5   3  -5  382.96   13.50
   5   3  -5  392.86   13.10
   4   3  -5  144.99    5.80
   4   3  -5  157.58    5.90
   3   3  -5  691.33   22.80
   3   3  -5  705.43   21.60
   2   3  -5  290.27    9.50
   2   3  -5  289.17    9.70
   1   3  -5  736.63   22.30
   1   3  -5  731.03   23.60
   0   3  -5  684.83   20.70
   0   3  -5  675.63   22.00
  -1   3  -5 2158.08   63.99
  -1   3  -5 2157.68   68.59
  -2   3  -5  107.99    4.30
  -2   3  -5  105.09    4.10
  -3   3  -5  294.77   10.50
  -4   3  -5    4.10    1.40
  -5   3  -5    2.00    1.60
  -6   3  -5   14.30    2.30
  -7   3  -5    0.70    2.10
  -8   3  -5   -2.00    2.30
   8   2  -5   14.70    3.00
   8   2  -5   10.20    3.10
   7   2  -5    0.40    2.10
   7   2  -5    0.60    2.10
   6   2  -5  132.09    5.80
   6   2  -5  129.49    5.80
   5   2  -5   15.30    2.10
   5   2  -5   15.80    2.00
   4   2  -5   21.30    2.00
   4   2  -5   22.40    2.00
   3   2  -5   15.10    1.40
   3   2  -5   14.60    1.50
   2   2  -5  749.62   24.20
   2   2  -5  746.73   22.70
   1   2  -5  400.26   12.30
   1   2  -5  391.46   13.10
   0   2  -5 1938.91   61.99
   0   2  -5 1958.10   57.79
  -1   2  -5  566.14   18.30
  -1   2  -5  548.75   17.10
  -2   2  -5   85.59    3.70
  -3   2  -5  220.98    8.10
  -4   2  -5   68.49    3.70
  -5   2  -5  102.99    4.90
  -6   2  -5    9.10    2.10
  -7   2  -5    1.80    2.10
  -8   2  -5    9.10    2.70
   9   1  -5    0.30    2.50
   9   1  -5    2.20    3.00
   8   1  -5    0.10    2.30
   8   1  -5    2.10    2.50
   7   1  -5   -0.30    2.00
   7   1  -5   -0.10    2.00
   6   1  -5   -0.40    1.70
   6   1  -5   -2.30    1.50
   5   1  -5   28.20    2.40
   5   1  -5   24.10    2.30
   4   1  -5  443.66   14.20
   4   1  -5  452.25   15.10
   3   1  -5  238.08    8.10
   3   1  -5  256.17    8.70
   2   1  -5  744.23   22.10
   2   1  -5  609.54   20.40
   1   1  -5  849.72   26.00
   1   1  -5  890.81   28.10
   0   1  -5  329.37   10.20
   0   1  -5  328.07   11.10
  -1   1  -5  325.37   11.10
  -2   1  -5  879.91   28.70
  -3   1  -5  367.96   12.70
  -4   1  -5   21.30    2.20
  -5   1  -5  347.27   12.50
  -6   1  -5   -1.00    1.90
  -7   1  -5   40.60    3.70
  -8   1  -5    3.40    2.50
   9   0  -5    2.80    3.00
   8   0  -5    4.00    2.30
   8   0  -5    3.00    2.30
   7   0  -5   94.69    5.00
   7   0  -5  101.29    4.80
   6   0  -5    1.30    1.40
   6   0  -5    0.40    1.60
   5   0  -5  327.67   11.60
   4   0  -5  241.18    8.70
   4   0  -5  239.68    8.00
   3   0  -5  233.18    8.20
   3   0  -5  224.88    7.40
   2   0  -5 1111.69   36.20
   2   0  -5 1134.69   33.40
   1   0  -5  635.44   20.80
   1   0  -5  639.44   19.10
   0   0  -5  317.37   10.80
  -1   0  -5  387.46   13.10
  -2   0  -5 1415.36   45.60
  -3   0  -5   79.99    3.90
  -4   0  -5  359.06   12.70
  -5   0  -5   10.00    2.00
  -6   0  -5   26.30    2.90
  -7   0  -5    3.60    2.40
  -8   0  -5   21.50    3.40
   9  -1  -5    2.90    2.80
   8  -1  -5   22.10    3.00
   7  -1  -5    0.10    1.70
   7  -1  -5    2.60    2.00
   6  -1  -5  281.77   10.50
   6  -1  -5  285.17    9.60
   5  -1  -5   59.29    3.40
   5  -1  -5   57.89    2.80
   4  -1  -5  340.97   10.70
   4  -1  -5  334.87   11.80
   3  -1  -5  850.91   25.30
   3  -1  -5  845.22   27.70
   2  -1  -5  492.55   16.60
   2  -1  -5  505.85   15.00
   1  -1  -5 3063.99   90.19
   1  -1  -5 3067.69   97.39
   0  -1  -5 2371.06   75.59
  -1  -1  -5 1051.99   34.10
  -2  -1  -5  290.07   10.30
  -3  -1  -5  176.78    6.90
  -4  -1  -5   59.09    3.70
  -5  -1  -5   36.90    3.20
  -6  -1  -5   18.60    2.80
  -7  -1  -5   -3.70    2.30
  -8  -1  -5   16.00    3.30
   9  -2  -5    9.10    3.10
   8  -2  -5    1.40    2.40
   7  -2  -5   65.19    4.10
   6  -2  -5   68.59    3.90
   5  -2  -5   30.80    2.60
   4  -2  -5  451.25   13.70
   4  -2  -5  449.86   15.40
  -4   2   5  450.15   14.40
   3  -2  -5  320.17   11.10
  -3   2   5  317.47   10.50
   2  -2  -5  268.07    9.60
  -2   2   5  279.47    9.20
   1  -2  -5  953.00   30.00
  -1   2   5  888.91   28.60
   0  -2  -5  250.07    8.80
   0   2   5  239.88    8.30
  -1  -2  -5  261.97    9.50
   1   2   5  265.47    9.00
  -2  -2  -5    0.20    1.20
  -3  -2  -5   33.90    2.80
  -4  -2  -5   11.20    2.10
  -5  -2  -5    3.00    2.10
  -6  -2  -5    1.80    2.20
  -7  -2  -5    1.80    2.70
   9  -3  -5    6.90    2.80
   8  -3  -5   -2.60    2.10
   7  -3  -5   70.49    4.40
   6  -3  -5    1.40    1.80
   5  -3  -5   19.50    2.30
  -5   3   5   21.70    2.00
   4  -3  -5   52.29    3.20
  -4   3   5   50.79    2.60
   3  -3  -5    1.10    1.20
  -3   3   5    2.40    1.00
   2  -3  -5  640.14   21.00
  -2   3   5  626.14   20.00
   1  -3  -5    9.80    1.50
  -1   3   5    9.80    1.30
   0  -3  -5  190.28    7.10
   0   3   5  184.38    6.70
  -1  -3  -5  161.18    6.50
   1   3   5  167.48    6.20
  -2  -3  -5  159.98    6.60
   2   3   5  158.38    6.10
   2   3   5  158.98    5.80
  -3  -3  -5  151.68    6.40
   3   3   5  150.38    5.90
  -4  -3  -5  159.38    6.80
   4   3   5  152.48    6.30
  -5  -3  -5   52.89    4.20
  -6  -3  -5   26.90    3.20
  -7  -3  -5    0.80    2.60
   9  -4  -5    6.30    2.80
   8  -4  -5    6.30    2.50
   7  -4  -5  100.79    5.50
   6  -4  -5   49.80    3.60
  -6   4   5   51.19    2.90
   5  -4  -5    4.30    1.70
  -5   4   5    6.30    1.40
   4  -4  -5  226.98    8.90
  -4   4   5  236.58    8.20
   3  -4  -5  392.76   13.70
  -3   4   5  390.06   12.90
   2  -4  -5  396.16   13.80
  -2   4   5  403.86   13.20
   1  -4  -5  342.27   12.00
  -1   4   5  346.57   11.60
   0  -4  -5  269.47    9.70
   0   4   5  264.27    9.20
   0   4   5  266.47    8.50
  -1  -4  -5  904.61   30.10
   1   4   5  927.51   28.80
   1   4   5  902.51   27.50
  -2  -4  -5   73.49    4.10
   2   4   5   66.39    3.40
   2   4   5   66.09    3.60
  -3  -4  -5  482.95   16.30
   3   4   5  450.05   15.00
   3   4   5  457.95   15.50
  -4  -4  -5   -1.30    2.00
   4   4   5    1.60    1.90
  -5  -4  -5   61.49    4.50
   5   4   5   56.69    4.20
  -6  -4  -5    7.80    2.60
   6   4   5    7.60    3.10
   9  -5  -5    2.00    2.90
   8  -5  -5    3.00    2.70
   7  -5  -5    9.20    2.60
   6  -5  -5    5.50    2.10
  -6   5   5    6.50    1.70
   5  -5  -5   -1.10    1.70
  -5   5   5    0.60    1.30
   4  -5  -5  198.48    8.10
  -4   5   5  206.98    7.50
   3  -5  -5   63.89    3.60
  -3   5   5   63.19    3.40
   2  -5  -5  457.85   15.80
  -2   5   5  452.45   15.00
   1  -5  -5  407.56   14.30
  -1   5   5  412.96   13.80
   0  -5  -5  304.77   11.20
   0   5   5  310.27   10.70
  -1  -5  -5    0.20    1.60
   1   5   5    3.40    1.60
   1   5   5    6.50    1.30
  -2  -5  -5  115.09    5.90
   2   5   5  133.99    5.30
   2   5   5  145.99    5.80
  -3  -5  -5   25.40    3.00
   3   5   5   27.80    2.70
   4   5   5    9.70    2.40
   5   5   5    9.60    2.80
   9  -6  -5   19.30    3.60
   8  -6  -5    3.20    2.60
   7  -6  -5  143.69    7.00
   6  -6  -5   40.70    3.60
  -6   6   5   40.80    3.00
   5  -6  -5  243.68    9.60
  -5   6   5  244.08    8.90
   4  -6  -5  128.19    6.00
  -4   6   5  122.89    5.40
   3  -6  -5  189.28    7.60
  -3   6   5  181.08    7.10
   2  -6  -5   30.60    2.90
  -2   6   5   35.50    2.70
  -1   6   5  103.09    4.90
   0  -6  -5   11.00    2.20
   0   6   5   10.50    2.00
  -1  -6  -5    1.30    1.90
   1   6   5    4.80    1.90
   2   6   5    8.50    2.20
   3   6   5    8.40    2.10
   4   6   5    1.50    2.50
   5   6   5    2.10    2.80
   8  -7  -5   28.70    3.80
   7  -7  -5    6.20    2.70
  -7   7   5    0.20    1.80
   6  -7  -5   46.10    4.20
  -6   7   5   46.70    3.40
   5  -7  -5   -1.50    2.10
  -5   7   5   -0.20    1.70
   4  -7  -5    3.50    2.20
  -4   7   5    3.00    1.80
  -3   7   5    8.00    1.80
   2  -7  -5    8.60    2.10
  -2   7   5   11.50    2.10
  -1   7   5    8.20    1.90
   0   7   5   19.30    2.60
   1   7   5   59.29    4.10
   2   7   5   12.50    2.60
   8  -8  -5    9.30    3.50
   7  -8  -5    0.40    2.90
  -7   8   5    1.00    2.00
   6  -8  -5    1.40    2.70
  -6   8   5    1.40    2.00
  -5   8   5   -0.10    1.80
  -4   8   5   67.99    4.00
  -3   8   5   11.80    2.30
  -2   8   5   96.09    4.90
  -1   8   5   38.40    3.40
   0   8   5  183.68    7.90
   1   8   5   33.60    3.50
  -7   9   5   11.10    2.80
  -6   9   5    5.70    2.30
  -5   9   5   71.99    4.40
  -4   9   5   22.80    3.00
  -3   9   5   88.49    5.10
  -2   9   5   13.20    2.70
  -1   9   5   89.99    5.10
   0   9   5   29.60    3.60
   1   9   5   72.69    5.20
  -4  10   5   91.59    5.40
  -3  10   5    0.60    2.40
  -2  10   5   86.99    5.40
  -2  11  -6   65.49    4.60
  -3  11  -6   22.60    3.20
   1  10  -6   43.60    3.90
   0  10  -6   70.19    4.50
  -1  10  -6   39.50    3.50
  -2  10  -6   77.19    4.60
  -3  10  -6   43.00    3.80
  -4  10  -6    7.10    2.60
  -5  10  -6    7.50    2.70
   3   9  -6    3.00    2.50
   2   9  -6   36.60    3.50
   1   9  -6   22.90    3.00
   0   9  -6    9.80    2.30
  -1   9  -6   36.80    3.30
  -2   9  -6    1.30    2.00
  -3   9  -6    8.40    2.30
  -4   9  -6    5.60    2.30
  -5   9  -6   -0.50    2.30
  -6   9  -6    1.30    2.40
   4   8  -6    7.20    2.70
   3   8  -6    4.50    2.40
   2   8  -6    7.50    2.30
   1   8  -6    1.30    1.90
   0   8  -6   17.90    2.50
  -1   8  -6   23.90    2.50
  -2   8  -6   66.09    3.90
  -3   8  -6    8.70    2.10
  -4   8  -6  103.99    5.20
  -5   8  -6    6.30    2.20
  -6   8  -6   85.49    5.10
  -7   8  -6    9.60    2.70
   5   7  -6    4.70    2.60
   4   7  -6   10.00    2.60
   3   7  -6   99.19    5.00
   2   7  -6   13.50    2.20
   1   7  -6  458.45   15.10
   0   7  -6   32.50    2.80
  -1   7  -6  391.46   13.00
  -2   7  -6    7.50    1.70
  -3   7  -6  788.62   24.70
  -4   7  -6    1.50    1.80
  -5   7  -6  340.97   11.90
  -6   7  -6    4.60    2.10
  -7   7  -6   55.29    4.80
  -7   7  -6   53.59    4.20
  -8   7  -6   20.00    3.60
   6   6  -6   10.40    3.00
   5   6  -6   42.00    3.80
   4   6  -6  260.97    9.60
   3   6  -6   71.59    4.00
   2   6  -6  801.52   24.90
   1   6  -6   58.69    3.30
   0   6  -6 1282.17   38.80
  -1   6  -6   62.59    3.40
  -2   6  -6  939.51   28.90
  -3   6  -6    9.20    1.80
  -4   6  -6  294.37   10.90
  -4   6  -6  306.97   10.50
  -5   6  -6   27.60    2.90
  -5   6  -6   29.20    2.70
  -6   6  -6   48.30    3.80
  -7   6  -6    0.90    2.50
  -8   6  -6    0.40    2.80
   7   5  -6   31.20    3.90
   6   5  -6    8.50    2.70
   5   5  -6  157.38    6.80
   4   5  -6   -1.30    1.80
   3   5  -6  323.07   11.00
   2   5  -6   28.90    2.30
   1   5  -6   39.80    2.70
   0   5  -6   80.09    3.70
  -1   5  -6  220.58    7.90
  -1   5  -6  235.08    7.90
  -2   5  -6   28.30    2.40
  -2   5  -6   31.10    2.30
  -3   5  -6   85.89    4.10
  -3   5  -6   91.89    4.30
  -4   5  -6   45.90    3.00
  -4   5  -6   51.69    3.60
  -5   5  -6   12.00    2.30
  -6   5  -6   30.50    3.10
  -7   5  -6   -1.40    2.40
  -8   5  -6   22.50    3.40
   7   4  -6   15.50    3.20
   6   4  -6   50.59    3.90
   5   4  -6    3.60    2.10
   4   4  -6    2.70    1.70
   3   4  -6    1.40    1.40
   2   4  -6   68.89    3.20
   2   4  -6   65.59    2.90
   1   4  -6   51.09    2.40
   0   4  -6    3.00    1.10
   0   4  -6    3.60    0.90
  -1   4  -6  344.47   11.30
  -1   4  -6  352.76   11.80
  -2   4  -6  124.09    5.10
  -2   4  -6  131.89    5.00
  -3   4  -6  909.91   28.10
  -3   4  -6  925.41   30.10
  -4   4  -6   79.49    4.30
  -5   4  -6  655.53   22.30
  -6   4  -6    0.10    2.10
  -7   4  -6   65.69    4.70
  -8   4  -6    3.10    2.60
   8   3  -6   -1.20    2.70
   7   3  -6   18.50    3.10
   6   3  -6   13.50    2.50
   5   3  -6   19.70    2.40
   5   3  -6   15.40    2.20
   4   3  -6   96.69    4.30
   4   3  -6   92.69    4.20
   3   3  -6   19.20    1.90
   3   3  -6   19.30    1.80
   2   3  -6  485.65   15.30
   2   3  -6  487.55   16.00
   1   3  -6   36.20    2.10
   1   3  -6   25.60    1.80
   0   3  -6  211.68    7.10
   0   3  -6  207.08    7.30
  -1   3  -6   14.20    1.40
  -1   3  -6   16.00    1.50
  -2   3  -6  937.91   28.20
  -2   3  -6  918.41   30.20
  -3   3  -6    8.60    1.60
  -4   3  -6  252.57    9.50
  -5   3  -6   10.10    2.10
  -6   3  -6    4.60    2.10
  -7   3  -6   11.90    2.70
  -8   3  -6   10.80    2.90
   8   2  -6   -1.30    2.50
   8   2  -6    2.60    2.70
   7   2  -6    5.60    2.50
   7   2  -6    6.50    2.30
   6   2  -6   18.80    2.60
   6   2  -6   21.00    2.50
   5   2  -6  114.29    5.20
   5   2  -6  118.39    5.10
   4   2  -6    7.80    1.50
   4   2  -6    9.30    1.60
   3   2  -6  828.12   27.00
   3   2  -6  831.02   25.30
   2   2  -6   74.19    3.20
   1   2  -6 1532.15   45.60
   1   2  -6 1529.55   48.90
   0   2  -6   17.40    1.70
   0   2  -6   16.50    1.50
  -1   2  -6  575.74   18.90
  -1   2  -6  564.94   17.60
  -2   2  -6  185.48    7.00
  -3   2  -6   34.20    2.70
  -4   2  -6   68.99    3.80
  -5   2  -6    1.00    1.70
  -6   2  -6    2.20    2.00
  -7   2  -6    0.30    2.20
  -8   2  -6   15.20    3.10
   9   1  -6   -1.10    2.80
   8   1  -6    2.10    2.30
   8   1  -6   -0.30    2.50
   7   1  -6    2.30    2.20
   7   1  -6   -1.70    1.90
   6   1  -6   81.59    4.40
   6   1  -6   83.79    4.30
   5   1  -6   10.80    1.90
   5   1  -6    8.40    1.70
   4   1  -6  198.58    7.20
   4   1  -6  221.88    7.80
   3   1  -6    3.00    1.20
   3   1  -6    1.50    0.60
   2   1  -6   85.39    3.60
   1   1  -6    3.70    1.00
   1   1  -6    2.30    0.70
   0   1  -6 1139.09   34.10
   0   1  -6 1144.69   36.80
  -1   1  -6    0.70    1.00
  -2   1  -6  570.24   19.10
  -3   1  -6   74.99    3.90
  -4   1  -6   93.19    4.60
  -5   1  -6   24.80    2.70
  -6   1  -6   26.90    3.00
  -7   1  -6    1.50    2.40
  -8   1  -6    4.80    2.70
   9   0  -6    2.70    2.80
   8   0  -6   -1.40    2.10
   7   0  -6   27.20    3.00
   6   0  -6    0.50    1.60
   6   0  -6    1.00    1.30
   5   0  -6    2.70    1.40
   5   0  -6    2.30    1.60
   4   0  -6   20.20    1.90
   4   0  -6   11.70    1.40
   3   0  -6  125.49    4.40
   3   0  -6  118.59    4.90
   2   0  -6  137.19    4.60
   1   0  -6  273.37    9.70
   1   0  -6  279.87    8.70
   0   0  -6  384.06   13.10
  -1   0  -6  631.64   21.00
  -2   0  -6  423.66   14.60
  -3   0  -6   58.29    3.50
  -4   0  -6  186.28    7.50
  -5   0  -6   29.80    3.00
  -6   0  -6   18.90    2.70
  -7   0  -6    9.00    2.70
   9  -1  -6    1.80    2.80
   8  -1  -6    4.20    2.40
   7  -1  -6   26.90    2.90
   6  -1  -6    1.70    1.80
   5  -1  -6    8.70    1.40
   5  -1  -6    6.00    1.70
   4  -1  -6   26.10    2.30
   4  -1  -6   22.40    1.70
   3  -1  -6   16.60    1.70
   3  -1  -6   17.40    1.30
   2  -1  -6   59.69    3.00
   2  -1  -6   57.69    2.20
   1  -1  -6   51.39    2.00
   1  -1  -6   51.79    2.80
   0  -1  -6   38.10    2.50
  -1  -1  -6 1196.48   38.90
  -2  -1  -6    6.00    1.60
  -3  -1  -6 1117.09   36.60
  -4  -1  -6   63.69    3.90
  -5  -1  -6  125.79    6.10
  -6  -1  -6   41.50    4.10
  -7  -1  -6   11.20    3.00
   9  -2  -6    3.40    2.70
   8  -2  -6   20.90    3.00
   7  -2  -6   24.50    2.90
   6  -2  -6   69.29    4.10
   5  -2  -6    1.50    1.50
   4  -2  -6  372.06   13.10
   3  -2  -6  223.58    8.50
  -3   2   6  235.78    8.00
   2  -2  -6  549.85   18.40
   2  -2  -6  544.05   16.40
  -2   2   6  553.04   17.60
   1  -2  -6   56.39    3.10
  -1   2   6   52.99    2.80
   0   2   6  536.45   17.30
  -1  -2  -6  188.48    7.50
  -2  -2  -6  219.08    8.40
  -3  -2  -6  308.97   11.40
  -4  -2  -6   14.40    2.30
  -5  -2  -6   36.70    3.40
  -6  -2  -6    2.40    2.30
  -7  -2  -6   14.40    3.10
   9  -3  -6   14.00    3.10
   8  -3  -6    2.50    2.40
   7  -3  -6  132.09    6.30
   6  -3  -6    0.80    1.80
   5  -3  -6  258.27    9.90
  -5   3   6  271.57    9.20
   4  -3  -6  320.67   11.50
  -4   3   6  315.37   10.70
   3  -3  -6  493.85   17.20
  -3   3   6  514.65   16.30
   2  -3  -6  710.53   23.60
  -2   3   6  708.53   22.50
   1  -3  -6 1023.10   33.30
  -1   3   6 1006.60   31.70
   0  -3  -6  438.86   15.10
   0   3   6  429.26   14.30
  -1  -3  -6  145.49    6.30
   1   3   6  154.08    6.00
  -2  -3  -6  274.87   10.20
   2   3   6  269.27    9.70
  -3  -3  -6    3.60    1.90
  -4  -3  -6   10.30    2.50
  -5  -3  -6    3.50    2.40
  -6  -3  -6   -0.90    2.30
   9  -4  -6    1.30    2.60
   8  -4  -6   53.49    4.30
   7  -4  -6   28.80    3.20
   6  -4  -6   70.89    4.40
  -6   4   6   72.29    3.60
   5  -4  -6  199.08    8.20
  -5   4   6  207.08    7.50
   4  -4  -6   11.60    2.10
  -4   4   6   15.40    1.80
   3  -4  -6  525.05   17.90
  -3   4   6  517.55   17.00
   2  -4  -6   61.49    3.50
  -2   4   6   61.49    3.20
   1  -4  -6  226.28    8.50
  -1   4   6  221.58    8.10
   0  -4  -6  107.59    5.00
   0   4   6  108.69    4.80
  -1  -4  -6    2.00    1.70
   1   4   6    5.40    1.60
  -2  -4  -6    4.40    2.10
   2   4   6    2.70    1.70
  -3  -4  -6   -0.60    1.90
   3   4   6    1.30    0.60
  -4  -4  -6    5.20    2.50
  -5  -4  -6   -0.70    2.40
  -6  -4  -6    0.90    2.80
   9  -5  -6    3.50    2.90
   8  -5  -6    0.40    2.60
   7  -5  -6   25.30    3.20
   6  -5  -6    6.60    2.40
  -6   5   6    4.90    1.70
   5  -5  -6  105.29    5.50
  -5   5   6  106.59    4.80
   4  -5  -6   13.00    2.30
  -4   5   6   10.90    1.90
   3  -5  -6  382.06   13.80
  -3   5   6  392.86   13.20
   2  -5  -6    3.60    1.70
  -2   5   6    4.50    1.60
   1  -5  -6  501.55   17.10
  -1   5   6  481.55   16.30
   0  -5  -6   58.69    3.90
   0   5   6   50.09    3.30
  -1  -5  -6  221.48    8.90
   1   5   6  214.28    8.20
  -2  -5  -6  107.79    5.80
   2   5   6  113.19    5.40
  -3  -5  -6   62.19    4.80
   3   5   6   57.69    3.90
  -4  -5  -6   -1.20    2.40
   4   5   6    0.30    2.20
   8  -6  -6   12.70    3.40
   7  -6  -6   36.00    3.90
   6  -6  -6   12.80    2.60
  -6   6   6   12.60    2.10
   5  -6  -6  163.68    7.40
  -5   6   6  176.18    6.90
   4  -6  -6  388.36   14.10
  -4   6   6  379.56   13.20
   3  -6  -6  214.68    8.60
  -3   6   6  215.78    8.20
   2  -6  -6  545.75   19.00
  -2   6   6  545.95   18.20
   1  -6  -6   97.09    5.10
  -1   6   6   86.89    4.50
   0  -6  -6  406.76   15.90
   0   6   6  492.05   15.50
  -1  -6  -6    7.50    1.90
   1   6   6    8.20    2.20
   2   6   6  457.05   15.80
   8  -7  -6   20.70    3.70
   7  -7  -6    6.30    3.00
  -7   7   6    9.10    2.30
   6  -7  -6   21.50    3.20
  -6   7   6   23.80    2.70
   5  -7  -6  124.39    6.30
  -5   7   6  118.09    5.60
   4  -7  -6   62.99    4.60
  -4   7   6   67.19    4.10
   3  -7  -6  122.19    6.00
  -3   7   6  112.69    5.50
   2  -7  -6   33.40    3.00
  -1   7   6  120.89    5.90
   0   7   6   13.30    2.40
   1   7   6  115.29    5.70
   2   7   6    1.90    2.40
   7  -8  -6    7.10    3.20
  -7   8   6    4.90    2.30
   6  -8  -6   44.40    4.30
  -6   8   6   45.80    3.80
   5  -8  -6    0.70    2.60
  -5   8   6    0.60    2.10
  -4   8   6  160.58    7.10
  -3   8   6   49.30    3.90
  -2   8   6   81.19    4.90
  -1   8   6   58.79    4.40
   0   8   6   25.10    3.10
   1   8   6   20.70    3.20
  -6   9   6   -0.10    2.40
  -5   9   6    7.10    2.60
  -4   9   6    4.10    2.30
  -3   9   6    3.00    2.20
  -2   9   6   45.20    3.90
  -1   9   6    2.50    2.60
   0   9   6   34.80    3.80
   1  10  -7   40.80    3.80
   0  10  -7    2.80    2.40
  -1  10  -7   39.00    3.50
  -2  10  -7    4.90    2.40
  -3  10  -7   77.89    4.80
  -4  10  -7    1.60    2.60
  -5  10  -7   41.10    4.10
   3   9  -7    0.30    2.50
   2   9  -7  150.78    6.80
   1   9  -7   36.30    3.40
   0   9  -7  227.48    8.80
  -1   9  -7   14.30    2.40
  -2   9  -7  150.18    6.60
  -3   9  -7   71.89    4.60
  -4   9  -7  105.29    5.60
  -5   9  -7   79.39    5.00
  -6   9  -7   22.10    3.30
   4   8  -7    0.70    2.50
   3   8  -7  120.29    5.90
   2   8  -7   55.99    4.00
   1   8  -7  111.79    5.20
   0   8  -7   88.19    4.70
  -1   8  -7  227.88    8.50
  -2   8  -7   61.29    4.00
  -3   8  -7   93.39    4.90
  -4   8  -7   37.60    3.40
  -5   8  -7    6.30    2.40
  -6   8  -7   -1.10    2.40
  -7   8  -7   11.40    3.00
   5   7  -7    9.50    2.90
   4   7  -7   28.20    3.20
   3   7  -7   38.60    3.40
   2   7  -7   56.19    3.70
   1   7  -7   -0.70    1.70
   0   7  -7  216.28    8.00
  -1   7  -7   23.20    2.50
  -2   7  -7   72.79    4.10
  -3   7  -7   94.09    4.80
  -4   7  -7    1.40    1.90
  -5   7  -7  163.98    7.00
  -6   7  -7   12.80    2.40
  -7   7  -7   40.90    3.80
   6   6  -7    8.70    3.00
   5   6  -7   11.50    2.70
   4   6  -7    0.10    2.00
   3   6  -7   44.50    3.40
   2   6  -7  198.98    7.50
   1   6  -7  220.08    8.10
   0   6  -7  257.87    9.10
  -1   6  -7  276.57    9.60
  -2   6  -7  318.17   10.90
  -3   6  -7  247.88    8.90
  -4   6  -7  204.08    8.20
  -4   6  -7  203.78    7.80
  -5   6  -7  199.78    7.90
  -5   6  -7  207.58    8.50
  -6   6  -7   14.00    2.90
  -7   6  -7   51.09    5.00
   7   5  -7    7.50    2.60
   6   5  -7    1.80    2.50
   5   5  -7   85.99    4.60
   4   5  -7   82.29    4.40
   3   5  -7  565.94   18.20
   2   5  -7  444.56   14.40
   1   5  -7  716.53   22.30
   0   5  -7  355.56   11.80
  -1   5  -7  138.49    5.50
  -2   5  -7  694.53   21.70
  -2   5  -7  689.93   22.80
  -3   5  -7   20.50    2.20
  -3   5  -7   16.50    2.00
  -4   5  -7  413.96   13.70
  -4   5  -7  408.16   14.60
  -5   5  -7    4.00    2.10
  -6   5  -7   17.60    3.00
  -7   5  -7   15.10    3.20
  -8   5  -7    5.30    3.10
   7   4  -7   19.60    3.10
   6   4  -7   70.09    4.50
   5   4  -7   56.99    3.60
   4   4  -7  114.79    5.10
   3   4  -7  533.65   17.00
   2   4  -7   84.49    3.90
   1   4  -7  701.23   21.30
   1   4  -7  671.63   22.30
   0   4  -7  195.38    7.00
   0   4  -7  196.58    7.00
  -1   4  -7  488.25   15.80
  -1   4  -7  506.05   16.60
  -2   4  -7   86.89    4.00
  -2   4  -7   77.39    3.70
  -3   4  -7  340.57   12.20
  -3   4  -7  350.56   11.50
  -4   4  -7    1.40    1.70
  -5   4  -7   16.20    2.50
  -6   4  -7    1.20    2.20
  -7   4  -7    7.90    2.70
  -8   4  -7    6.80    3.00
   8   3  -7   20.00    3.50
   7   3  -7   22.60    3.30
   6   3  -7   83.49    4.70
   5   3  -7   13.70    2.10
   5   3  -7   16.70    2.30
   4   3  -7  290.37   10.40
   4   3  -7  294.67   10.00
   3   3  -7   26.30    2.30
   3   3  -7   30.00    2.30
   2   3  -7  148.09    5.50
   2   3  -7  143.49    5.50
   1   3  -7   34.70    2.10
   1   3  -7   33.30    2.30
   0   3  -7   70.49    3.10
   0   3  -7   68.59    3.20
  -1   3  -7  250.07    9.10
  -1   3  -7  262.47    8.70
  -2   3  -7   21.00    2.10
  -2   3  -7   20.80    1.90
  -3   3  -7    4.30    1.60
  -4   3  -7    1.60    1.70
  -5   3  -7    7.50    2.10
  -6   3  -7    2.80    2.20
  -7   3  -7    3.80    2.50
   8   2  -7   -1.20    2.50
   7   2  -7   15.60    2.60
   7   2  -7   17.20    2.90
   6   2  -7   25.70    2.70
   6   2  -7   30.80    2.90
   5   2  -7  143.39    5.80
   5   2  -7  140.89    6.00
   4   2  -7  146.69    6.00
   4   2  -7  154.78    5.80
   3   2  -7   22.70    2.00
   3   2  -7   24.50    2.20
   2   2  -7  355.76   12.20
   2   2  -7  360.36   11.40
   1   2  -7  153.48    5.80
   1   2  -7  156.78    5.50
   0   2  -7  273.67    8.90
   0   2  -7  266.77    9.50
  -1   2  -7  108.49    4.70
  -1   2  -7  110.79    4.30
  -2   2  -7  148.69    6.00
  -3   2  -7   78.19    4.10
  -4   2  -7  141.49    6.20
  -5   2  -7    2.40    2.00
  -6   2  -7   51.09    4.00
  -7   2  -7    8.10    2.80
   8   1  -7   14.30    2.90
   7   1  -7    3.90    2.40
   7   1  -7    3.30    2.20
   6   1  -7    0.90    1.70
   6   1  -7   -0.50    1.80
   5   1  -7   32.40    2.30
   4   1  -7   20.90    2.10
   3   1  -7  474.45   16.00
   2   1  -7    2.40    1.10
   1   1  -7  102.69    3.80
   0   1  -7  381.36   13.00
   0   1  -7  374.26   11.90
  -1   1  -7  556.44   18.70
  -2   1  -7  132.89    5.60
  -3   1  -7  837.22   27.80
  -4   1  -7   32.50    3.00
  -5   1  -7   77.09    4.50
  -6   1  -7   16.20    2.80
  -7   1  -7   19.90    3.20
   9   0  -7    7.10    2.80
   8   0  -7    3.50    2.50
   7   0  -7    8.00    2.30
   6   0  -7   30.40    2.90
   5   0  -7   14.50    1.80
   5   0  -7   14.60    2.00
   4   0  -7  609.54   18.80
   4   0  -7  606.44   20.50
   3   0  -7   28.30    2.40
   3   0  -7   31.00    2.00
   2   0  -7  917.11   30.20
   2   0  -7  932.91   27.70
   1   0  -7    1.40    1.20
   1   0  -7    0.50    0.70
   0   0  -7  519.05   15.90
  -1   0  -7   32.70    2.70
  -2   0  -7  653.03   22.00
  -3   0  -7   67.09    4.00
  -4   0  -7   48.20    3.50
  -5   0  -7   21.30    2.70
  -6   0  -7    2.20    2.30
  -7   0  -7   17.20    3.30
   9  -1  -7    8.70    3.10
   8  -1  -7    1.20    2.30
   7  -1  -7   47.00    3.90
   6  -1  -7    5.40    2.00
   5  -1  -7  280.27   10.30
   4  -1  -7   43.20    3.00
   3  -1  -7  844.22   25.00
   3  -1  -7  823.82   27.50
   2  -1  -7    3.30    1.30
   2  -1  -7    3.50    0.80
   1  -1  -7 1080.39   32.40
   1  -1  -7 1093.59   35.50
   0  -1  -7    6.70    1.40
  -1  -1  -7  626.04   21.20
  -2  -1  -7   35.50    3.00
  -3  -1  -7  138.59    6.20
  -4  -1  -7    3.10    2.00
  -5  -1  -7    4.40    2.20
  -6  -1  -7    1.40    2.50
  -7  -1  -7    2.20    2.60
   9  -2  -7   15.60    3.20
   8  -2  -7   16.90    2.90
   7  -2  -7    4.10    2.10
   6  -2  -7   88.49    4.80
   5  -2  -7    3.40    1.80
   4  -2  -7   66.39    3.80
   3  -2  -7    9.40    1.70
   2  -2  -7    4.80    1.50
   1  -2  -7   66.49    3.60
   1  -2  -7   64.89    2.60
   0  -2  -7   38.90    2.90
  -1  -2  -7  125.49    5.60
  -2  -2  -7   26.90    2.80
  -3  -2  -7   41.60    3.50
  -4  -2  -7   21.90    2.90
  -5  -2  -7   63.89    4.50
  -6  -2  -7   18.40    3.20
   9  -3  -7   -1.00    2.80
   8  -3  -7   12.80    3.00
   7  -3  -7   -0.10    2.20
   6  -3  -7    1.20    1.90
   5  -3  -7   22.40    2.60
  -5   3   7   22.70    2.20
   4  -3  -7  173.68    7.10
  -4   3   7  166.78    6.50
   3  -3  -7    7.00    1.70
  -3   3   7    6.00    1.50
   2  -3  -7  178.38    7.20
  -2   3   7  180.78    6.80
   1  -3  -7  205.68    7.90
  -1   3   7  194.28    7.40
   0  -3  -7  522.75   17.80
   0   3   7  506.25   16.90
  -1  -3  -7  121.29    5.70
  -2  -3  -7 1084.99   36.10
  -3  -3  -7   19.60    2.80
  -4  -3  -7  155.48    7.10
  -5  -3  -7   65.99    4.80
  -6  -3  -7   14.80    3.30
   8  -4  -7   39.10    4.10
   7  -4  -7    9.90    2.60
   6  -4  -7   77.19    4.80
  -6   4   7   86.69    4.30
   5  -4  -7  202.58    8.50
  -5   4   7  210.58    7.80
   4  -4  -7    6.40    2.00
  -4   4   7    4.40    1.60
   3  -4  -7  553.44   19.20
  -3   4   7  560.94   18.20
   2  -4  -7  138.29    6.20
  -2   4   7  144.09    5.80
   1  -4  -7  904.31   29.90
  -1   4   7  888.01   28.50
   0  -4  -7  236.38    9.40
   0   4   7  249.38    9.10
  -1  -4  -7  626.14   21.80
   1   4   7  636.34   20.70
  -2  -4  -7  342.17   13.00
   2   4   7  347.97   12.30
  -3  -4  -7  134.59    6.70
  -4  -4  -7   67.69    4.70
  -5  -4  -7    1.50    2.70
   8  -5  -7    3.70    2.70
   7  -5  -7    2.40    2.40
   6  -5  -7    6.70    2.50
  -6   5   7    7.40    2.00
   5  -5  -7   14.00    2.60
  -5   5   7   14.80    2.10
   4  -5  -7  153.38    6.70
  -4   5   7  133.89    5.80
   3  -5  -7   11.60    2.30
  -3   5   7   11.20    2.00
   2  -5  -7  217.38    8.80
  -2   5   7  229.08    8.50
   1  -5  -7   54.39    4.00
  -1   5   7   57.79    3.70
   0  -5  -7  241.98    9.70
   0   5   7  238.68    9.00
  -1  -5  -7   16.30    2.80
   1   5   7   15.10    2.50
  -2  -5  -7   60.99    4.80
   2   5   7   62.29    4.50
  -3  -5  -7    8.70    3.00
  -4  -5  -7    9.00    3.10
   8  -6  -7    2.40    3.10
   7  -6  -7    3.30    2.80
   6  -6  -7   15.10    3.10
  -6   6   7   16.10    2.40
   5  -6  -7   38.50    3.70
  -5   6   7   36.10    3.20
   4  -6  -7  109.19    5.80
  -4   6   7  111.29    5.30
   2  -6  -7   15.50    2.50
  -2   6   7   14.90    2.40
   1  -6  -7   14.40    2.70
  -1   6   7   12.60    2.30
   0  -6  -7   79.79    5.10
   0   6   7   79.49    4.70
  -1  -6  -7    6.20    2.70
   1   6   7    6.60    2.30
   2   6   7   29.60    3.40
   8  -7  -7    0.50    2.90
   7  -7  -7    1.90    2.80
  -7   7   7    1.10    2.10
   6  -7  -7    4.60    2.70
  -6   7   7    7.80    2.30
   5  -7  -7   51.19    4.20
  -5   7   7   43.50    3.60
   4  -7  -7    2.80    2.60
  -4   7   7    1.50    1.80
   3  -7  -7   18.00    2.90
  -3   7   7   18.60    2.50
   2  -7  -7  100.09    5.50
  -2   7   7   83.39    5.00
  -1   7   7   53.49    3.90
   0   7   7   40.40    3.70
   1   7   7  111.69    6.10
   2   7   7    0.40    2.50
   7  -8  -7    0.70    3.10
  -7   8   7   -1.10    2.20
   6  -8  -7    7.20    3.20
  -6   8   7   12.30    2.70
   5  -8  -7   24.80    3.70
  -5   8   7   21.50    3.10
  -4   8   7   70.09    4.70
  -3   8   7   43.60    4.00
  -2   8   7   75.69    4.70
  -1   8   7   41.60    3.90
   0   8   7   63.29    4.90
   1   8   7   44.80    4.30
  -5   9   7   34.50    3.80
  -4   9   7   19.20    3.30
  -3   9   7   18.30    3.20
  -2   9   7   14.00    3.00
  -1   9   7    6.00    2.90
   0  10  -8   -0.50    2.50
  -1  10  -8   37.40    3.80
  -2  10  -8    0.10    2.40
  -3  10  -8    6.90    2.80
  -4  10  -8   22.90    3.50
   2   9  -8    0.70    2.30
   1   9  -8    1.40    2.30
   0   9  -8   -0.10    2.00
  -1   9  -8   41.40    3.70
  -2   9  -8    1.80    2.30
  -3   9  -8   93.09    5.30
  -4   9  -8   16.70    3.10
  -5   9  -8   73.19    5.10
   4   8  -8    0.60    2.60
   3   8  -8   18.30    2.90
   2   8  -8   21.30    2.90
   1   8  -8   10.40    2.50
   0   8  -8  104.69    5.20
  -1   8  -8    0.80    1.80
  -2   8  -8  230.58    8.80
  -3   8  -8    0.40    2.10
  -4   8  -8  218.48    8.80
  -5   8  -8    0.90    2.40
  -6   8  -8   24.80    3.50
   5   7  -8   20.20    3.30
   4   7  -8    1.40    2.40
   3   7  -8  247.28    9.30
   2   7  -8   26.70    2.90
   1   7  -8  422.46   14.20
   0   7  -8    1.80    1.30
  -1   7  -8  180.98    7.20
  -2   7  -8    0.30    1.70
  -3   7  -8   68.69    4.20
  -4   7  -8    1.50    1.80
  -5   7  -8    1.20    2.30
  -6   7  -8    0.70    2.30
  -7   7  -8   24.40    3.40
   6   6  -8   36.60    3.90
   5   6  -8   -0.40    2.10
   4   6  -8  125.89    5.70
   3   6  -8   61.79    4.00
   2   6  -8  250.37    9.10
   1   6  -8   24.60    2.40
   0   6  -8  102.19    4.80
  -1   6  -8    2.30    1.50
  -2   6  -8    0.50    1.50
  -3   6  -8   48.60    3.30
  -4   6  -8    2.90    2.00
  -5   6  -8    0.40    1.80
  -5   6  -8   -1.40    2.20
  -6   6  -8    7.20    2.50
  -6   6  -8    8.80    2.90
  -7   6  -8   23.10    3.70
   6   5  -8    5.60    2.60
   5   5  -8   18.00    2.80
   4   5  -8   26.00    2.80
   3   5  -8    5.80    1.90
   2   5  -8   50.29    3.30
   1   5  -8    5.70    1.40
   0   5  -8  220.28    8.00
  -1   5  -8  100.09    4.60
  -2   5  -8  148.99    6.10
  -2   5  -8  143.79    6.00
  -3   5  -8    6.60    1.90
  -3   5  -8    5.10    1.90
  -4   5  -8   32.00    2.90
  -4   5  -8   34.70    3.10
  -5   5  -8   25.50    3.00
  -6   5  -8   26.20    3.40
  -7   5  -8   19.10    3.30
   7   4  -8    5.40    2.90
   6   4  -8    4.20    2.40
   5   4  -8   29.00    3.00
   4   4  -8    0.90    1.50
   3   4  -8  220.78    8.00
   2   4  -8   77.09    3.90
   1   4  -8  431.66   14.00
   1   4  -8  436.86   14.60
   0   4  -8  517.35   17.10
   0   4  -8  507.15   16.30
  -1   4  -8  481.55   16.20
  -1   4  -8  476.55   15.40
  -2   4  -8  502.45   17.40
  -2   4  -8  515.45   16.40
  -3   4  -8  686.93   23.10
  -3   4  -8  677.03   21.50
  -4   4  -8  186.78    7.70
  -5   4  -8   43.70    4.10
  -6   4  -8  120.49    6.60
  -7   4  -8    1.70    2.60
   7   3  -8   40.90    3.90
   6   3  -8   33.70    3.30
   5   3  -8   10.40    2.20
   4   3  -8  346.17   11.60
   4   3  -8  339.37   12.00
   3   3  -8   42.30    2.80
   3   3  -8   39.90    2.70
   2   3  -8  928.81   28.10
   2   3  -8  907.41   29.90
   1   3  -8  191.18    7.10
   1   3  -8  188.48    6.80
   0   3  -8  631.04   20.90
   0   3  -8  629.24   19.60
  -1   3  -8  201.68    7.30
  -1   3  -8  210.88    7.90
  -2   3  -8  316.67   11.30
  -2   3  -8  309.77   10.60
  -3   3  -8  395.56   14.10
  -4   3  -8   85.59    4.90
  -5   3  -8  109.69    5.70
  -6   3  -8    3.00    2.30
  -7   3  -8   39.50    4.10
   7   2  -8   -0.40    1.90
   7   2  -8    4.70    2.40
   6   2  -8    1.60    2.10
   6   2  -8    2.20    2.00
   5   2  -8   34.90    3.10
   5   2  -8   33.20    3.00
   4   2  -8  168.28    6.20
   4   2  -8  161.48    6.60
   3   2  -8  609.94   20.60
   3   2  -8  627.94   19.30
   2   2  -8   98.89    4.30
   1   2  -8  611.74   20.60
   1   2  -8  631.24   19.20
   0   2  -8   10.80    1.40
   0   2  -8   13.40    1.70
  -1   2  -8  507.65   17.30
  -1   2  -8  504.55   16.00
  -2   2  -8  193.08    7.70
  -3   2  -8  300.37   11.20
  -4   2  -8   33.50    3.20
  -5   2  -8   36.60    3.50
  -6   2  -8    1.60    2.50
  -7   2  -8   -0.90    2.50
   8   1  -8    2.80    2.60
   7   1  -8   16.10    2.80
   6   1  -8   24.90    2.70
   5   1  -8   88.39    4.40
   4   1  -8    0.40    1.60
   4   1  -8    1.20    1.30
   3   1  -8  451.95   14.90
   3   1  -8  501.35   16.30
   2   1  -8  121.29    4.40
   1   1  -8  108.99    4.70
   0   1  -8  556.14   18.80
   0   1  -8  555.44   17.30
  -1   1  -8  144.79    6.10
  -2   1  -8   76.09    4.20
  -3   1  -8  118.99    5.60
  -4   1  -8  103.69    5.30
  -5   1  -8   11.10    2.50
  -6   1  -8   35.10    3.50
  -7   1  -8    6.80    3.00
   8   0  -8   14.20    3.00
   7   0  -8   12.10    2.60
   6   0  -8   72.19    4.40
   5   0  -8  152.28    6.40
   4   0  -8    4.90    1.80
   4   0  -8    6.20    1.40
   3   0  -8  336.87   10.60
   3   0  -8  322.67   11.70
   2   0  -8   61.19    2.80
   2   0  -8   63.89    3.40
   1   0  -8 1181.48   35.30
   1   0  -8 1174.78   38.40
   0   0  -8   42.40    2.30
  -1   0  -8  788.92   26.40
  -2   0  -8  438.66   15.50
  -3   0  -8  111.79    5.50
  -4   0  -8   19.40    2.80
  -5   0  -8  171.58    7.60
  -6   0  -8    2.50    2.40
   9  -1  -8    0.80    2.90
   8  -1  -8    0.40    2.50
   7  -1  -8    2.70    2.40
   6  -1  -8   37.70    3.30
   5  -1  -8   29.40    2.80
   4  -1  -8  414.46   14.60
   3  -1  -8  509.95   17.50
   2  -1  -8  601.44   20.40
   1  -1  -8  361.56   11.40
   1  -1  -8  368.76   13.00
   0  -1  -8  690.73   23.30
  -1  -1  -8  179.58    7.50
  -2  -1  -8 1260.07   41.50
  -3  -1  -8   69.69    4.40
  -4  -1  -8  325.17   12.30
  -5  -1  -8   18.40    3.00
  -6  -1  -8   58.79    4.60
   8  -2  -8   22.20    3.50
   7  -2  -8   81.49    4.90
   6  -2  -8   52.39    3.80
   5  -2  -8  423.36   15.10
   4  -2  -8  374.76   13.50
   3  -2  -8  326.37   11.90
   2  -2  -8   24.80    2.50
   1  -2  -8  296.97   11.00
   0  -2  -8    9.10    1.90
  -1  -2  -8  348.17   12.80
  -2  -2  -8   38.50    3.60
  -3  -2  -8  132.89    6.40
  -4  -2  -8    7.60    2.70
  -5  -2  -8    4.20    2.50
  -6  -2  -8    4.90    2.90
   8  -3  -8   47.60    4.50
   7  -3  -8   11.90    2.70
   6  -3  -8  109.59    5.60
   5  -3  -8    6.60    2.40
   4  -3  -8  466.65   16.50
   3  -3  -8    3.70    1.80
  -3   3   8    1.10    1.50
   2  -3  -8   99.89    5.00
  -2   3   8  104.49    4.80
   1  -3  -8    1.50    1.80
   0  -3  -8   99.69    5.10
  -1  -3  -8   20.40    2.70
  -2  -3  -8   46.90    4.00
  -3  -3  -8   86.89    5.20
  -4  -3  -8   10.10    3.00
  -5  -3  -8   28.80    3.70
   8  -4  -8   -3.10    2.50
   7  -4  -8   11.50    3.00
   6  -4  -8   -2.10    2.10
  -6   4   8   -0.70    1.60
   5  -4  -8    3.70    2.20
  -5   4   8    4.70    1.80
   4  -4  -8   95.59    5.00
  -4   4   8   91.69    4.40
   3  -4  -8   16.10    2.50
  -3   4   8   14.50    2.10
   2  -4  -8   19.90    2.50
  -2   4   8   17.80    2.30
   1  -4  -8    9.90    2.20
  -1   4   8   10.00    1.90
   0  -4  -8   83.29    4.80
   0   4   8   81.59    4.40
  -1  -4  -8   21.70    3.10
  -2  -4  -8   18.10    3.00
  -3  -4  -8    4.50    3.00
  -4  -4  -8   76.19    5.50
  -5  -4  -8   -0.70    2.90
   8  -5  -8   -0.70    2.60
   7  -5  -8    6.60    2.80
   6  -5  -8    1.90    2.30
  -6   5   8    2.80    1.90
   5  -5  -8  132.39    6.50
  -5   5   8  125.89    5.80
   4  -5  -8   -0.10    2.00
  -4   5   8    3.70    1.90
   3  -5  -8  146.89    6.80
  -3   5   8  147.49    6.30
   2  -5  -8  118.19    5.90
  -2   5   8  113.69    5.50
   1  -5  -8  151.18    7.00
  -1   5   8  149.49    6.60
   0  -5  -8   61.89    4.70
   0   5   8   63.69    4.20
  -1  -5  -8  148.99    7.40
   1   5   8  167.88    7.20
  -2  -5  -8    0.60    2.50
  -3  -5  -8   13.20    3.40
  -4  -5  -8   15.10    3.60
   8  -6  -8    3.20    3.00
   7  -6  -8    4.30    2.80
   6  -6  -8   25.30    3.40
  -6   6   8   28.00    3.00
   5  -6  -8    0.90    2.60
  -5   6   8    0.40    1.90
   4  -6  -8  112.09    6.20
  -4   6   8  120.19    5.70
   3  -6  -8   27.70    3.20
  -3   6   8   25.00    2.70
   2  -6  -8  192.48    8.50
  -2   6   8  205.08    8.20
   1  -6  -8   63.59    4.60
  -1   6   8   57.19    4.00
   0  -6  -8  208.08    9.20
   0   6   8  217.28    8.80
  -1  -6  -8   79.09    5.60
   1   6   8   80.99    5.10
   2   6   8   89.69    5.60
   7  -7  -8    2.90    3.20
  -7   7   8    3.50    2.50
   6  -7  -8    5.60    2.90
  -6   7   8    0.20    2.20
   5  -7  -8   54.59    4.80
  -5   7   8   51.19    4.10
   4  -7  -8   -2.00    2.50
  -4   7   8    3.00    2.20
   3  -7  -8   25.70    3.40
  -3   7   8   26.50    3.10
   2  -7  -8    1.90    2.40
  -2   7   8   -0.50    2.20
   1  -7  -8   53.29    4.70
  -1   7   8   53.49    4.40
   0   7   8    0.70    2.50
   1   7   8   24.20    3.50
   6  -8  -8   -1.60    3.10
  -6   8   8    4.10    2.60
   5  -8  -8   22.50    3.90
  -5   8   8   22.70    3.20
  -4   8   8   41.70    3.90
  -3   8   8    4.30    2.50
  -2   8   8   10.40    2.70
  -1   8   8    5.00    2.60
   0   8   8    4.20    2.90
   2   9  -9   24.30    3.40
   1   9  -9  167.28    7.40
   0   9  -9    1.40    2.60
  -1   9  -9  157.48    7.10
  -2   9  -9    2.80    2.50
  -3   9  -9  161.68    7.40
  -4   9  -9    0.90    2.60
   3   8  -9    8.50    2.80
   2   8  -9  114.99    5.80
   1   8  -9    1.20    2.20
   0   8  -9   70.99    4.50
  -1   8  -9   31.20    3.20
  -2   8  -9   13.80    2.50
  -3   8  -9    4.50    2.20
  -4   8  -9   10.50    2.80
  -5   8  -9    0.80    2.60
   4   7  -9    2.70    2.50
   3   7  -9   -0.70    2.20
   2   7  -9   14.60    2.60
   1   7  -9   14.70    2.50
   0   7  -9  218.48    8.40
  -1   7  -9   19.00    2.60
  -2   7  -9  284.97   10.40
  -3   7  -9  102.29    5.20
  -4   7  -9   55.29    4.20
  -5   7  -9   -1.20    2.40
  -6   7  -9   43.40    4.10
   5   6  -9    5.80    2.70
   4   6  -9    9.10    2.50
   3   6  -9   31.70    3.10
   2   6  -9   25.80    2.70
   1   6  -9  141.59    6.00
   0   6  -9    1.20    1.90
  -1   6  -9  139.19    6.10
  -2   6  -9   27.60    2.90
  -3   6  -9  191.18    7.70
  -4   6  -9   10.20    2.50
  -5   6  -9   33.10    3.50
  -5   6  -9   37.40    3.70
  -6   6  -9   43.10    4.20
  -6   6  -9   40.40    3.80
   6   5  -9   15.00    3.10
   5   5  -9    0.10    2.20
   4   5  -9  133.39    6.00
   3   5  -9    8.80    2.10
   2   5  -9  214.78    8.10
   1   5  -9   78.59    4.10
   0   5  -9  159.18    6.40
  -1   5  -9   77.89    4.20
  -2   5  -9   61.59    3.70
  -2   5  -9   67.89    4.00
  -3   5  -9   28.40    2.90
  -3   5  -9   27.10    2.70
  -4   5  -9    6.50    2.40
  -4   5  -9    6.90    2.00
  -5   5  -9   19.70    2.90
  -5   5  -9   24.90    3.20
  -6   5  -9    5.80    2.70
  -7   5  -9    9.30    3.30
   7   4  -9    8.00    3.00
   6   4  -9    2.30    2.50
   5   4  -9   -0.20    2.00
   4   4  -9   89.69    4.50
   3   4  -9  204.08    7.60
   2   4  -9   14.80    2.00
   1   4  -9  126.79    5.30
   1   4  -9  128.09    5.30
   0   4  -9   36.80    2.90
   0   4  -9   36.00    2.90
  -1   4  -9  131.49    5.60
  -1   4  -9  130.29    5.60
  -2   4  -9    1.90    1.70
  -2   4  -9    2.70    1.80
  -3   4  -9  164.78    7.10
  -3   4  -9  160.08    6.70
  -4   4  -9    5.80    2.20
  -5   4  -9    1.90    2.40
  -6   4  -9   10.20    2.80
  -7   4  -9    2.70    2.90
   7   3  -9    6.50    2.70
   6   3  -9   11.30    2.60
   5   3  -9    9.20    2.30
   4   3  -9    6.90    1.80
   4   3  -9    7.20    1.90
   3   3  -9  137.29    5.60
   3   3  -9  138.59    5.70
   2   3  -9    4.60    1.60
   2   3  -9    6.40    1.50
   1   3  -9   79.09    3.80
   1   3  -9   75.39    3.90
   0   3  -9    7.40    1.70
   0   3  -9    5.60    1.50
  -1   3  -9  167.68    7.10
  -1   3  -9  182.58    6.70
  -2   3  -9   52.99    3.60
  -2   3  -9   57.39    3.50
  -3   3  -9   -0.20    2.00
  -4   3  -9   18.60    2.80
  -5   3  -9  104.09    5.80
  -6   3  -9   11.30    2.80
   6   2  -9    0.10    2.00
   6   2  -9    5.40    2.20
   5   2  -9   48.80    3.30
   5   2  -9   42.60    3.40
   4   2  -9   14.00    2.00
   4   2  -9   12.10    2.10
   3   2  -9   51.89    3.30
   3   2  -9   48.40    3.00
   2   2  -9   76.79    3.60
   2   2  -9   77.69    3.90
   1   2  -9  184.38    6.70
   1   2  -9  188.28    7.20
   0   2  -9  241.28    9.00
   0   2  -9  242.08    8.40
  -1   2  -9   71.99    4.10
  -1   2  -9   65.29    3.60
  -2   2  -9  719.53   24.50
  -2   2  -9  732.53   22.70
  -3   2  -9   11.60    2.40
  -4   2  -9  197.68    8.40
  -5   2  -9   25.90    3.20
  -6   2  -9   34.00    3.80
   8   1  -9   10.20    3.00
   7   1  -9   24.20    3.20
   6   1  -9    4.10    2.00
   5   1  -9  115.29    5.30
   4   1  -9   10.10    1.80
   4   1  -9    9.00    2.00
   3   1  -9  582.94   17.80
   3   1  -9  557.64   19.30
   2   1  -9  270.17    9.10
   2   1  -9  280.37   10.10
   1   1  -9 1052.19   34.50
   0   1  -9  202.98    7.90
   0   1  -9  199.68    7.10
  -1   1  -9  637.74   19.90
  -1   1  -9  636.94   21.70
  -2   1  -9  131.39    6.00
  -3   1  -9  292.97   11.30
  -4   1  -9   24.00    3.10
  -5   1  -9    7.20    2.60
  -6   1  -9   13.40    2.80
   8   0  -9   23.50    3.50
   7   0  -9    1.30    2.20
   6   0  -9   65.19    4.30
   5   0  -9   57.39    3.80
   4   0  -9  972.50   32.20
   3   0  -9   32.60    2.90
   2   0  -9  914.21   30.10
   2   0  -9  904.51   27.50
   0   0  -9  369.26   12.10
   0   0  -9  385.36   13.50
  -1   0  -9    5.70    2.00
  -2   0  -9   88.29    5.10
  -3   0  -9    7.20    2.30
  -4   0  -9    9.40    2.50
  -5   0  -9    5.90    2.60
  -6   0  -9   10.50    3.20
   8  -1  -9    1.70    2.60
   7  -1  -9    9.80    2.60
   6  -1  -9    0.80    2.20
   5  -1  -9   26.40    2.90
   4  -1  -9   82.49    4.50
   3  -1  -9  285.07   10.60
   2  -1  -9  211.88    8.30
   1  -1  -9  113.29    5.40
   0  -1  -9  162.18    5.80
   0  -1  -9  159.38    6.90
  -1  -1  -9   18.30    2.60
  -2  -1  -9    2.40    2.20
  -3  -1  -9   58.49    4.30
  -4  -1  -9   57.79    4.40
  -5  -1  -9   13.90    3.00
  -6  -1  -9   30.00    3.90
   8  -2  -9    3.50    2.60
   7  -2  -9   22.40    3.20
   6  -2  -9   -0.50    2.00
   5  -2  -9  226.08    9.20
   4  -2  -9   13.80    2.40
   3  -2  -9  425.36   15.10
   2  -2  -9   87.69    4.70
   1  -2  -9  510.65   17.90
   0  -2  -9  187.38    7.90
  -1  -2  -9  296.87   11.40
  -2  -2  -9   58.39    4.40
  -3  -2  -9   27.60    3.50
  -4  -2  -9  200.18    9.00
  -5  -2  -9    7.80    2.90
   8  -3  -9    8.60    3.00
   7  -3  -9   -1.50    2.30
   6  -3  -9   47.30    3.90
   5  -3  -9   29.60    3.20
   4  -3  -9  265.97   10.30
   3  -3  -9  168.38    7.30
   2  -3  -9  232.58    9.30
   1  -3  -9  344.17   12.80
   0  -3  -9  129.99    6.30
  -1  -3  -9  262.47   10.60
  -2  -3  -9  118.49    6.30
  -3  -3  -9  152.58    7.60
  -4  -3  -9    4.30    3.00
  -5  -3  -9   32.70    4.20
   8  -4  -9    2.20    2.90
   7  -4  -9    8.10    2.70
   6  -4  -9   35.20    3.70
   5  -4  -9  111.09    5.90
   4  -4  -9   79.59    5.00
  -4   4   9   84.99    4.50
   3  -4  -9   73.49    4.50
  -3   4   9   70.69    4.20
   2  -4  -9  185.98    8.00
  -2   4   9  186.38    7.50
  -1   4   9   27.20    2.80
   0  -4  -9  206.08    8.90
  -1  -4  -9    9.30    2.90
  -2  -4  -9  144.49    7.30
  -3  -4  -9    1.50    2.80
  -4  -4  -9   22.10    4.10
   7  -5  -9   16.80    3.40
   6  -5  -9   11.40    3.00
  -6   5   9   11.80    2.60
   5  -5  -9  101.49    5.80
  -5   5   9   97.29    5.10
   4  -5  -9   92.39    5.30
  -4   5   9   90.59    4.90
   3  -5  -9    4.60    2.40
  -3   5   9    5.00    2.00
   2  -5  -9   65.09    4.70
  -2   5   9   70.29    4.30
   1  -5  -9   16.20    2.90
  -1   5   9   10.10    2.30
   0  -5  -9  123.09    6.60
   0   5   9  124.09    6.00
  -1  -5  -9   44.10    4.40
  -2  -5  -9  119.49    7.00
  -3  -5  -9    1.60    3.30
   7  -6  -9   -1.00    3.00
   6  -6  -9    6.00    3.10
  -6   6   9    3.10    2.30
   5  -6  -9    1.30    2.80
  -5   6   9    0.00    2.10
   4  -6  -9   18.40    3.30
  -4   6   9   19.00    2.70
   3  -6  -9   41.10    4.10
  -3   6   9   43.60    3.80
   2  -6  -9    2.50    2.60
  -2   6   9    2.70    2.30
   1  -6  -9   89.59    5.90
  -1   6   9   97.79    5.50
   0  -6  -9    0.30    2.80
   0   6   9    1.40    2.50
  -1  -6  -9   65.69    5.60
   1   6   9   70.39    4.80
   6  -7  -9   14.80    3.60
  -6   7   9   17.60    3.00
   5  -7  -9   13.50    3.60
  -5   7   9   11.90    2.80
   4  -7  -9   41.60    4.40
  -4   7   9   41.60    3.90
   3  -7  -9    0.20    2.90
  -3   7   9    1.60    2.20
   2  -7  -9  117.19    6.70
  -2   7   9  117.09    6.20
   1  -7  -9    3.20    3.10
  -1   7   9    8.40    2.70
   0   7   9   80.19    5.50
  -4   8   9    3.80    2.80
  -3   8   9   51.89    4.60
  -2   8   9   -0.40    2.70
   1   9 -10   19.30    3.30
   0   9 -10   59.49    4.70
  -1   9 -10   40.60    3.70
  -2   9 -10  140.09    6.70
  -3   9 -10  120.99    6.50
   2   8 -10   99.29    5.50
   1   8 -10  127.49    6.30
   0   8 -10  111.29    5.70
  -1   8 -10  166.98    7.30
  -2   8 -10   70.49    4.80
  -3   8 -10  106.19    5.80
  -4   8 -10   29.30    3.70
   4   7 -10  100.59    5.60
   3   7 -10  128.19    6.20
   2   7 -10   90.09    5.10
   1   7 -10   53.39    4.00
   0   7 -10   42.80    3.70
  -1   7 -10   20.10    2.90
  -2   7 -10   32.80    3.20
  -3   7 -10   43.00    3.90
  -4   7 -10    4.80    2.60
  -5   7 -10    0.20    2.60
   5   6 -10    3.80    2.70
   4   6 -10    3.90    2.50
   3   6 -10   91.79    4.90
   2   6 -10   38.90    3.50
   0   6 -10   41.30    3.50
  -1   6 -10    4.00    2.10
  -2   6 -10   13.80    2.60
  -3   6 -10   73.09    4.70
  -4   6 -10   60.99    4.50
  -5   6 -10   -1.10    2.10
  -6   6 -10   27.50    3.60
  -6   6 -10   34.10    4.00
   5   5 -10   29.20    3.30
   4   5 -10    4.20    2.30
   3   5 -10   18.60    2.60
   2   5 -10    1.50    2.00
   1   5 -10  241.78    8.90
   0   5 -10    0.90    1.90
  -1   5 -10  389.76   13.30
  -2   5 -10   30.30    3.10
  -3   5 -10   49.90    4.00
  -3   5 -10   40.70    3.80
  -4   5 -10    6.20    2.30
  -4   5 -10    3.90    2.50
  -5   5 -10   91.59    6.00
  -5   5 -10   96.79    5.40
  -6   5 -10    7.70    3.00
   6   4 -10   34.40    3.50
   5   4 -10    6.00    2.40
   4   4 -10  122.89    5.60
   3   4 -10   12.70    2.20
   2   4 -10  458.85   15.10
   1   4 -10    3.20    1.80
   0   4 -10  791.92   24.90
   0   4 -10  796.32   26.40
  -1   4 -10   30.00    2.80
  -1   4 -10   39.50    3.10
  -2   4 -10  560.64   19.40
  -2   4 -10  551.04   18.20
  -3   4 -10    0.80    1.80
  -3   4 -10    2.10    2.20
  -4   4 -10  137.29    6.30
  -4   4 -10  128.69    6.50
  -5   4 -10   37.40    4.00
  -6   4 -10   52.09    5.10
   6   3 -10   26.50    3.20
   5   3 -10  128.39    5.90
   4   3 -10  268.77    9.70
   3   3 -10  312.57   10.60
   3   3 -10  305.27   11.20
   2   3 -10   46.20    3.30
   2   3 -10   53.09    3.20
   1   3 -10  892.61   27.10
   1   3 -10  861.41   29.00
   0   3 -10    2.50    1.60
   0   3 -10    0.90    1.80
  -1   3 -10  799.22   24.80
  -1   3 -10  786.32   26.60
  -2   3 -10    7.10    2.00
  -2   3 -10    5.00    2.20
  -3   3 -10  347.67   12.10
  -3   3 -10  345.27   13.00
  -4   3 -10   40.00    3.80
  -5   3 -10   46.60    4.40
  -6   3 -10   43.70    4.30
   6   2 -10    8.30    2.50
   5   2 -10    0.80    1.90
   5   2 -10    2.60    2.00
   4   2 -10  178.08    7.10
   4   2 -10  158.68    6.50
   3   2 -10   61.39    3.70
   3   2 -10   52.59    3.30
   2   2 -10  133.59    5.40
   2   2 -10  138.29    5.90
   1   2 -10   98.39    4.30
   1   2 -10   93.39    4.70
   0   2 -10  242.88    9.50
   0   2 -10  259.07    8.90
  -1   2 -10  212.58    8.60
  -1   2 -10  216.88    8.00
  -2   2 -10  372.56   13.80
  -2   2 -10  371.86   12.70
  -3   2 -10  125.69    6.30
  -4   2 -10    8.40    2.80
  -5   2 -10   15.90    3.20
  -6   2 -10   11.00    3.10
   7   1 -10   -1.00    2.40
   6   1 -10    1.70    2.30
   5   1 -10    5.70    2.30
   4   1 -10  136.49    6.20
   3   1 -10   21.10    2.10
   3   1 -10   21.60    2.40
   2   1 -10   37.30    2.60
   2   1 -10   35.40    3.20
   1   1 -10    4.00    1.80
   0   1 -10  350.26   12.80
   0   1 -10  352.06   11.60
  -1   1 -10   89.49    4.20
  -1   1 -10   82.99    4.80
  -2   1 -10   67.59    4.50
  -3   1 -10   14.20    2.80
  -4   1 -10  158.78    7.60
  -5   1 -10    2.30    2.80
   8   0 -10    3.40    2.80
   7   0 -10    1.60    2.60
   6   0 -10    5.20    2.30
   5   0 -10   20.20    2.90
   4   0 -10   10.60    2.30
   3   0 -10  167.28    7.00
   2   0 -10    0.00    1.70
   1   0 -10  598.34   20.50
   1   0 -10  596.44   18.60
   0   0 -10   30.00    3.00
   0   0 -10   23.30    2.10
  -1   0 -10  342.77   12.80
  -2   0 -10   61.89    4.50
  -3   0 -10   54.39    4.30
  -4   0 -10   23.80    3.40
  -5   0 -10   10.40    3.20
   8  -1 -10   -2.40    2.50
   7  -1 -10    2.10    2.40
   6  -1 -10   11.70    2.60
   5  -1 -10    2.50    2.20
   4  -1 -10  114.09    5.60
   3  -1 -10    8.50    2.10
   2  -1 -10  353.46   13.00
   1  -1 -10   53.29    3.80
   0  -1 -10  173.88    7.50
  -1  -1 -10   59.09    4.20
  -2  -1 -10   56.99    4.40
  -3  -1 -10   44.70    4.20
  -4  -1 -10   -0.70    2.40
  -5  -1 -10   23.70    3.60
   8  -2 -10    2.90    2.80
   7  -2 -10    1.70    2.70
   6  -2 -10   23.20    3.10
   5  -2 -10   51.99    4.30
   4  -2 -10   18.90    2.70
   3  -2 -10   25.70    2.90
   2  -2 -10   29.50    3.00
   1  -2 -10    4.00    2.10
   0  -2 -10   -1.50    2.20
  -1  -2 -10    0.10    1.80
  -2  -2 -10    4.10    2.60
  -3  -2 -10    1.10    2.80
  -4  -2 -10   -1.50    2.60
   7  -3 -10   13.50    3.10
   6  -3 -10   -1.30    2.50
   5  -3 -10   77.19    5.00
   4  -3 -10   49.20    3.90
   3  -3 -10    4.80    2.30
   2  -3 -10   12.30    2.60
   1  -3 -10   99.59    5.50
   0  -3 -10   21.60    3.20
  -1  -3 -10   34.90    3.80
  -2  -3 -10   34.40    3.90
  -3  -3 -10   49.70    4.70
  -4  -3 -10   13.00    3.60
   7  -4 -10    5.70    2.90
   6  -4 -10    7.20    2.70
   5  -4 -10    1.50    2.50
   4  -4 -10   34.30    3.50
   3  -4 -10   27.00    3.30
   2  -4 -10  166.68    7.70
   1  -4 -10   17.40    3.00
   0  -4 -10   63.19    4.90
  -1  -4 -10   10.50    3.10
  -2  -4 -10   43.90    4.40
  -3  -4 -10   38.90    4.50
   7  -5 -10   17.70    3.60
   6  -5 -10   -1.00    2.90
   5  -5 -10   83.39    5.60
   4  -5 -10    8.90    2.80
  -4   5  10   11.00    2.60
   3  -5 -10  110.39    6.10
  -3   5  10  113.39    5.80
   2  -5 -10   62.19    4.90
  -2   5  10   60.79    4.10
   1  -5 -10  103.69    6.10
   0  -5 -10   26.80    3.80
  -1  -5 -10   81.79    6.20
  -2  -5 -10   17.50    3.90
   6  -6 -10   14.00    3.50
  -6   6  10   17.00    3.10
   5  -6 -10    7.00    3.20
  -5   6  10    8.60    2.70
   4  -6 -10   61.19    4.90
  -4   6  10   62.49    4.60
   3  -6 -10   17.10    3.50
  -3   6  10   22.50    3.20
   2  -6 -10   55.99    5.00
  -2   6  10   51.69    4.40
   1  -6 -10   45.20    4.70
  -1   6  10   46.40    4.30
   0  -6 -10   57.19    5.40
  -1  -6 -10   18.40    4.10
   5  -7 -10   21.10    3.90
  -5   7  10   21.20    3.40
   4  -7 -10    5.50    3.20
  -4   7  10    4.70    2.80
   3  -7 -10   17.40    3.70
  -3   7  10   24.30    3.60
   2  -7 -10    5.90    3.30
  -2   7  10    3.20    2.50
   1  -7 -10   15.00    3.60
  -1   7  10   13.50    3.30
   1   8 -11   31.30    3.50
   0   8 -11    1.30    2.60
  -1   8 -11   89.29    5.40
  -2   8 -11    1.80    2.70
  -3   8 -11    6.90    2.90
   3   7 -11    1.40    2.50
   2   7 -11  102.29    5.60
   1   7 -11    6.40    2.60
   0   7 -11  234.88    9.30
  -1   7 -11   55.49    4.30
  -2   7 -11  188.88    8.00
  -3   7 -11   26.50    3.40
  -4   7 -11   34.80    3.90
   4   6 -11    0.70    2.50
   3   6 -11   53.59    4.10
   2   6 -11    4.70    2.40
   1   6 -11  126.99    6.00
   0   6 -11   66.19    4.40
  -1   6 -11  148.99    6.70
  -2   6 -11   33.20    3.40
  -3   6 -11  129.89    6.50
  -4   6 -11   19.10    3.30
  -5   6 -11   19.20    3.40
   5   5 -11   30.00    3.50
   4   5 -11  101.59    5.30
   3   5 -11   14.00    2.50
   2   5 -11  100.89    5.00
   1   5 -11   16.40    2.50
   0   5 -11   71.39    4.40
  -1   5 -11    0.80    2.00
  -2   5 -11  153.88    6.70
  -3   5 -11    7.30    2.50
  -3   5 -11   12.90    3.00
  -4   5 -11   24.20    3.50
  -4   5 -11   22.50    3.30
  -5   5 -11    3.60    3.10
  -5   5 -11    0.50    2.50
   6   4 -11   10.40    2.80
   5   4 -11   13.20    2.80
   4   4 -11   30.80    3.20
   3   4 -11  115.29    5.40
   2   4 -11    9.40    2.10
   1   4 -11   61.59    3.90
   0   4 -11   48.40    3.80
   0   4 -11   53.99    3.70
  -1   4 -11   83.49    4.70
  -1   4 -11   80.49    4.80
  -2   4 -11    3.10    2.10
  -2   4 -11    4.40    2.40
  -3   4 -11  106.29    5.40
  -3   4 -11  105.89    5.90
  -4   4 -11   42.00    3.90
  -4   4 -11   45.20    4.30
  -5   4 -11   40.80    4.30
  -5   4 -11   45.60    3.90
   5   3 -11   22.30    2.80
   4   3 -11   -0.10    2.00
   3   3 -11   46.70    3.50
   3   3 -11   47.70    3.30
   2   3 -11    4.70    1.50
   2   3 -11    5.20    2.00
   1   3 -11  211.98    7.90
   1   3 -11  208.98    8.40
   0   3 -11   49.99    3.90
   0   3 -11   54.69    3.60
  -1   3 -11  199.88    8.50
  -1   3 -11  210.68    8.10
  -2   3 -11   58.99    4.40
  -2   3 -11   57.69    4.20
  -3   3 -11   96.69    5.30
  -3   3 -11   99.39    5.70
  -4   3 -11  138.29    7.30
  -5   3 -11   50.89    4.80
   5   2 -11   12.90    2.60
   4   2 -11   73.19    4.40
   3   2 -11   47.00    3.60
   2   2 -11   76.49    4.30
   2   2 -11   66.59    3.70
   1   2 -11  416.96   15.00
   1   2 -11  423.26   13.80
   0   2 -11   98.89    5.20
   0   2 -11  102.29    4.80
  -1   2 -11  372.16   12.50
  -1   2 -11  356.16   13.50
  -2   2 -11  103.79    5.80
  -2   2 -11   96.49    5.10
  -3   2 -11  107.59    6.20
  -4   2 -11    9.00    3.10
  -5   2 -11   39.50    4.30
   7   1 -11   11.20    3.00
   6   1 -11   26.30    3.20
   5   1 -11   72.89    4.70
   4   1 -11   76.79    4.70
   3   1 -11   39.60    3.40
   2   1 -11  418.36   15.00
   1   1 -11    2.20    2.00
   1   1 -11    1.50    1.30
   0   1 -11  399.16   14.10
   0   1 -11  368.56   12.70
  -1   1 -11   13.80    2.70
  -1   1 -11   11.30    2.10
  -2   1 -11   87.29    5.50
  -2   1 -11   86.49    4.80
  -3   1 -11    5.90    2.80
  -4   1 -11   15.40    3.30
  -5   1 -11   28.20    3.90
   7   0 -11   23.10    3.50
   6   0 -11    2.50    2.50
   5   0 -11   72.59    4.60
   4   0 -11    9.50    2.40
   3   0 -11   78.49    4.60
   2   0 -11    2.60    2.10
   1   0 -11   26.70    3.00
   0   0 -11   28.70    3.10
  -1   0 -11   13.20    2.70
  -1   0 -11   11.80    1.70
  -2   0 -11   30.10    3.60
  -3   0 -11    1.00    2.70
  -4   0 -11    4.30    2.80
   7  -1 -11    2.60    2.60
   6  -1 -11    2.10    2.50
   5  -1 -11   -0.20    2.30
   4  -1 -11   30.00    3.20
   3  -1 -11   25.70    3.10
   2  -1 -11   23.30    3.10
   1  -1 -11  166.08    7.40
   0  -1 -11   49.50    4.10
  -1  -1 -11  148.29    7.30
  -2  -1 -11   28.40    3.60
  -3  -1 -11   81.39    5.70
  -4  -1 -11   11.30    3.30
   7  -2 -11   25.00    3.60
   6  -2 -11   12.90    2.90
   5  -2 -11    6.00    2.60
   4  -2 -11  113.49    5.90
   3  -2 -11   11.80    2.70
   2  -2 -11  582.84   20.60
   1  -2 -11    8.50    2.70
   0  -2 -11  401.26   15.10
  -1  -2 -11   25.60    3.70
  -2  -2 -11  150.08    7.60
  -3  -2 -11   39.10    4.40
   7  -3 -11   21.70    3.60
   6  -3 -11   -0.90    2.80
   5  -3 -11   66.89    4.90
   4  -3 -11   -2.10    2.20
   3  -3 -11  234.28    9.90
   2  -3 -11    3.50    2.50
   1  -3 -11  340.87   13.20
   0  -3 -11    1.80    2.70
  -1  -3 -11   84.89    5.80
  -2  -3 -11    9.60    3.40
  -3  -3 -11   25.80    4.10
   6  -4 -11   17.40    3.50
   5  -4 -11    3.70    3.00
   4  -4 -11   53.09    4.40
   3  -4 -11    0.90    2.50
   2  -4 -11   16.60    3.20
   1  -4 -11    3.30    2.70
   0  -4 -11   20.90    3.60
  -1  -4 -11   -0.30    3.20
  -2  -4 -11   15.80    4.10
   6  -5 -11   -2.80    2.80
   5  -5 -11   16.30    3.50
   4  -5 -11    3.00    2.80
   3  -5 -11    9.00    3.30
   2  -5 -11   10.80    3.30
   1  -5 -11    5.00    3.00
   0  -5 -11   14.60    3.80
  -1  -5 -11    1.40    3.50
   5  -6 -11    7.70    3.30
   4  -6 -11    4.50    3.00
   3  -6 -11   42.20    4.60
   2  -6 -11    1.50    3.00
   1  -6 -11   33.70    4.70
   2   7 -12   27.20    3.50
   1   7 -12    0.50    2.30
   0   7 -12   10.60    2.70
  -1   7 -12   -1.20    2.50
  -2   7 -12   18.30    3.40
  -3   7 -12    5.40    2.90
   3   6 -12   16.40    2.90
   2   6 -12   11.50    2.60
   1   6 -12    6.30    2.50
   0   6 -12   40.80    3.80
  -1   6 -12    6.80    2.70
  -2   6 -12   33.60    3.70
  -3   6 -12    5.40    3.00
  -4   6 -12   25.10    3.80
   4   5 -12    0.80    2.50
   3   5 -12   55.49    4.20
   2   5 -12   10.00    2.60
   1   5 -12  284.07   10.50
   0   5 -12    3.70    2.30
  -1   5 -12  185.38    7.90
  -2   5 -12   -1.90    2.00
  -3   5 -12   49.80    4.10
  -4   5 -12    4.90    3.10
  -4   5 -12    2.20    2.80
   5   4 -12    3.00    2.50
   4   4 -12   92.79    5.00
   3   4 -12   -0.70    2.00
   2   4 -12  198.88    7.80
   1   4 -12   30.80    3.10
   0   4 -12  166.28    7.10
  -1   4 -12   23.00    3.10
  -1   4 -12   17.40    2.80
  -2   4 -12   14.20    3.10
  -2   4 -12   12.80    2.80
  -3   4 -12    9.30    2.80
  -3   4 -12    8.10    3.00
  -4   4 -12    2.40    2.70
  -4   4 -12    0.50    3.00
   3   3 -12  156.18    6.50
   2   3 -12    8.10    1.90
   2   3 -12   16.60    2.50
   1   3 -12   35.80    3.20
   1   3 -12   41.20    3.80
   0   3 -12   76.79    4.50
   0   3 -12   74.49    4.90
  -1   3 -12   27.50    3.20
  -1   3 -12   28.30    3.10
  -2   3 -12   23.40    3.50
  -2   3 -12   21.50    3.00
  -3   3 -12    1.50    2.40
  -3   3 -12    2.90    3.00
  -4   3 -12    3.80    2.40
  -4   3 -12    1.40    2.90
   5   2 -12    0.50    2.40
   4   2 -12   21.20    3.00
   3   2 -12    4.40    2.30
   2   2 -12   12.80    2.40
   1   2 -12   44.30    3.70
   1   2 -12   39.60    3.50
   0   2 -12   67.99    4.30
   0   2 -12   64.29    4.50
  -1   2 -12   52.09    4.30
  -1   2 -12   46.50    3.90
  -2   2 -12   68.69    5.20
  -2   2 -12   64.09    4.60
  -3   2 -12   13.30    3.30
  -3   2 -12   12.10    2.80
  -4   2 -12   24.30    4.00
   6   1 -12    4.00    2.60
   5   1 -12    1.60    2.60
   4   1 -12   53.89    4.10
   3   1 -12    2.10    2.20
   2   1 -12  188.58    8.20
   1   1 -12   16.20    2.90
   0   1 -12  179.18    8.00
  -1   1 -12  155.28    6.70
  -1   1 -12  155.78    7.60
  -2   1 -12  135.49    7.40
  -2   1 -12  145.69    6.50
  -3   1 -12  111.69    6.70
  -4   1 -12   26.50    4.20
   6   0 -12    2.10    2.60
   5   0 -12   75.19    5.20
   4   0 -12   10.80    2.60
   3   0 -12  108.39    5.90
   2   0 -12  148.29    7.00
   1   0 -12  164.08    7.50
   0   0 -12  185.98    8.50
  -1   0 -12   52.79    4.60
  -2   0 -12  166.68    8.10
  -3   0 -12   30.30    4.20
   6  -1 -12    7.60    3.10
   5  -1 -12   16.80    3.20
   4  -1 -12   38.60    3.80
   3  -1 -12   49.10    4.10
   2  -1 -12   19.10    3.10
   1  -1 -12  174.58    7.90
   0  -1 -12  112.29    6.30
  -1  -1 -12   19.20    3.30
  -2  -1 -12   83.09    5.80
  -3  -1 -12    5.40    3.40
   6  -2 -12   -0.50    2.70
   5  -2 -12    4.20    2.80
   4  -2 -12   24.90    3.40
   3  -2 -12   37.60    3.80
   2  -2 -12    3.70    2.50
   1  -2 -12   90.19    5.70
   0  -2 -12    9.60    3.10
  -1  -2 -12  129.09    7.20
  -2  -2 -12    2.30    2.80
   6  -3 -12   22.80    3.70
   5  -3 -12    3.10    2.90
   4  -3 -12   33.60    4.00
   3  -3 -12    5.80    2.70
   2  -3 -12  121.69    6.70
   1  -3 -12   13.50    3.20
   0  -3 -12  133.49    7.40
  -1  -3 -12   20.60    3.90
  -2  -3 -12   39.90    5.00
   5  -4 -12   28.00    3.90
   4  -4 -12   22.70    3.70
   3  -4 -12  114.09    6.60
   2  -4 -12   34.90    4.20
   1  -4 -12  100.49    6.40
   0  -4 -12    4.60    3.30
  -1  -4 -12  107.59    7.00
   4  -5 -12   35.80    4.30
   3  -5 -12   13.60    3.60
   2  -5 -12  118.19    7.20
   1  -5 -12   17.20    3.90
   2   6 -13   66.99    4.90
   1   6 -13    3.20    2.60
   0   6 -13  159.18    7.40
  -1   6 -13   18.70    3.20
  -2   6 -13   49.70    4.30
   3   5 -13   36.80    3.70
   2   5 -13   10.70    2.80
   1   5 -13   10.30    2.70
   0   5 -13   31.00    3.50
  -1   5 -13   -0.30    2.50
  -2   5 -13   24.40    3.60
  -3   5 -13    5.20    3.00
   3   4 -13   14.80    2.90
   2   4 -13    1.10    2.40
   1   4 -13   44.70    3.90
   0   4 -13    8.50    2.70
  -1   4 -13  126.99    6.80
  -1   4 -13  123.19    6.30
  -2   4 -13    8.20    2.70
  -2   4 -13    5.50    2.80
  -3   4 -13   51.69    5.00
  -3   4 -13   47.80    4.50
   2   3 -13  223.78    9.20
   2   3 -13  218.78    8.40
   1   3 -13   27.40    3.40
   1   3 -13   23.20    3.00
   0   3 -13  201.38    9.10
   0   3 -13  210.58    8.50
  -1   3 -13    7.00    2.50
  -1   3 -13    6.40    2.90
  -2   3 -13  190.88    9.00
  -2   3 -13  188.18    8.30
  -3   3 -13    1.40    2.70
  -3   3 -13    4.60    3.30
   4   2 -13   12.60    3.10
   3   2 -13  191.38    8.40
   2   2 -13    2.70    2.50
   1   2 -13  277.27   11.00
   0   2 -13    4.40    2.20
   0   2 -13    3.80    2.70
  -1   2 -13   38.70    3.70
  -1   2 -13   36.80    4.10
  -2   2 -13   17.20    3.10
  -2   2 -13   20.50    3.70
  -3   2 -13    9.10    2.90
  -3   2 -13   10.90    3.60
   5   1 -13    2.00    2.70
   4   1 -13   66.09    4.70
   3   1 -13   13.70    3.10
   2   1 -13   13.70    3.10
   1   1 -13    2.00    2.50
   0   1 -13    8.00    2.90
  -1   1 -13   -0.60    2.90
  -2   1 -13   17.20    3.60
  -2   1 -13   21.60    3.10
  -3   1 -13    3.00    2.60
  -3   1 -13    6.90    3.40
   5   0 -13   -1.20    2.90
   4   0 -13    1.80    2.40
   3   0 -13    2.00    2.50
   2   0 -13   25.50    3.40
   1   0 -13    1.10    2.50
   0   0 -13   65.69    5.10
  -1   0 -13   16.30    3.40
  -2   0 -13   25.50    3.70
   5  -1 -13   27.60    4.00
   4  -1 -13    4.90    2.70
   3  -1 -13   42.40    4.20
   2  -1 -13   22.80    3.50
   1  -1 -13   69.89    5.10
   0  -1 -13   70.09    5.40
  -1  -1 -13  113.29    6.80
  -2  -1 -13    4.60    3.40
   5  -2 -13   12.40    3.30
   4  -2 -13   59.59    5.10
   3  -2 -13   19.30    3.50
   2  -2 -13  146.29    7.70
   1  -2 -13   22.20    3.60
   0  -2 -13   54.09    5.20
  -1  -2 -13   22.40    4.20
   4  -3 -13   -0.60    2.80
   3  -3 -13   30.00    4.00
   2  -3 -13   10.10    3.50
   1  -3 -13   41.70    4.60
   0  -3 -13   -1.80    3.40
   1   5 -14   95.19    5.60
   0   5 -14  125.49    6.60
  -1   5 -14   21.70    3.60
   2   4 -14   27.90    3.40
   1   4 -14   96.69    5.70
   0   4 -14   36.70    3.90
  -1   4 -14   22.30    3.40
   1   3 -14   19.30    3.60
   0   3 -14   19.50    3.20
   0   3 -14   17.00    3.50
  -1   3 -14   21.60    3.40
  -1   3 -14   26.40    3.80
  -2   3 -14    6.60    3.10
  -2   3 -14    7.70    3.40
   4   2 -14    1.80    2.70
   3   2 -14    6.30    2.70
   2   2 -14   40.50    4.10
   1   2 -14   49.70    4.60
   0   2 -14   76.39    5.90
  -1   2 -14   34.40    4.40
  -2   2 -14   23.20    4.00
  -2   2 -14   25.30    3.50
   4   1 -14    8.20    3.00
   3   1 -14   79.89    5.60
   2   1 -14   21.10    3.50
   1   1 -14   99.19    6.40
   0   1 -14    3.40    3.30
  -1   1 -14  129.09    7.50
   4   0 -14   28.90    3.90
   3   0 -14    3.00    2.90
   2   0 -14  102.39    6.40
   1   0 -14    1.40    3.00
   0   0 -14   75.09    5.80
  -1   0 -14    2.50    3.40
   4  -1 -14   10.20    3.20
   3  -1 -14   19.60    3.80
   2  -1 -14    8.00    3.20
   1  -1 -14   17.40    3.70
   0  -1 -14   18.70    4.00
   0   0   0    0.00    0.00

_computing_structure_solution     'SHELXT 2018/2 (Sheldrick, 2018)'
;
_shelx_hkl_checksum              80331
_olex2_submission_special_instructions 'No special instructions were received'
loop_
_space_group_symop_operation_xyz
'x, y, z'
'-x, -y, -z'
loop_
_atom_site_label
_atom_site_type_symbol
_atom_site_fract_x
_atom_site_fract_y
_atom_site_fract_z
_atom_site_U_iso_or_equiv
_atom_site_adp_type
_atom_site_occupancy
_atom_site_site_symmetry_order
_atom_site_calc_flag
_atom_site_refinement_flags_posn
_atom_site_refinement_flags_adp
_atom_site_refinement_flags_occupancy
_atom_site_disorder_assembly
_atom_site_disorder_group
Se01 Se 0.25197(8) 0.29040(5) 0.21974(4) 0.0705(2) Uani 1 1 d . . . . .
S002 S 0.21089(11) 0.05487(9) 0.63017(7) 0.0357(2) Uani 1 1 d . . . . .
O003 O 0.0733(3) 0.0325(3) 0.6944(3) 0.0493(7) Uani 1 1 d . . . . .
O004 O 0.2026(4) -0.0535(3) 0.5331(2) 0.0484(6) Uani 1 1 d . . . . .
C005 C 0.2243(4) 0.2163(3) 0.5798(3) 0.0260(6) Uani 1 1 d . . . . .
O006 O 0.3345(5) 0.5748(3) 0.3504(3) 0.0739(10) Uani 1 1 d . . . . .
F007 F 0.2031(5) 0.4870(4) 0.0801(3) 0.1037(12) Uani 1 1 d . . . . .
C008 C 0.2629(5) 0.3790(4) 0.4580(3) 0.0393(8) Uani 1 1 d . . . . .
C009 C 0.4070(4) 0.0904(4) 0.7227(3) 0.0349(7) Uani 1 1 d . . . . .
C00A C 0.5566(5) 0.0916(4) 0.6778(3) 0.0414(8) Uani 1 1 d . . . . .
H00A H 0.554144 0.077991 0.600155 0.050 Uiso 1 1 calc R . . . .
C00B C 0.2146(5) 0.3537(4) 0.6382(3) 0.0396(8) Uani 1 1 d . . . . .
C00C C 0.2548(5) 0.2352(4) 0.4727(3) 0.0385(8) Uani 1 1 d . . . . .
H00C H 0.267962 0.161233 0.418467 0.046 Uiso 1 1 calc R . . . .
C00D C 0.2381(5) 0.4582(4) 0.5629(3) 0.0406(8) Uani 1 1 d . . . . .
C00E C 0.2926(5) 0.4428(4) 0.3556(3) 0.0472(9) Uani 1 1 d . . . . .
F00F F 0.3755(7) 0.3684(5) 0.0341(3) 0.1281(16) Uani 1 1 d . . . . .
C00G C 0.4104(5) 0.1126(5) 0.8382(3) 0.0477(9) Uani 1 1 d . . . . .
H00G H 0.310118 0.112778 0.867040 0.057 Uiso 1 1 calc R . . . .
C00H C 0.7146(5) 0.1330(5) 0.8672(4) 0.0498(10) Uani 1 1 d . . . . .
C00I C 0.7097(5) 0.1136(5) 0.7520(4) 0.0483(9) Uani 1 1 d . . . . .
H00I H 0.810463 0.115350 0.723226 0.058 Uiso 1 1 calc R . . . .
C00J C 0.1851(6) 0.3905(5) 0.7466(4) 0.0512(10) Uani 1 1 d . . . . .
H00J H 0.169314 0.319966 0.794912 0.061 Uiso 1 1 calc R . . . .
C00K C 0.5634(6) 0.1344(5) 0.9105(4) 0.0543(10) Uani 1 1 d . . . . .
H00K H 0.566218 0.150129 0.988162 0.065 Uiso 1 1 calc R . . . .
C00L C 0.2308(7) 0.6034(5) 0.5984(4) 0.0599(11) Uani 1 1 d . . . . .
H00L H 0.246012 0.674239 0.550373 0.072 Uiso 1 1 calc R . . . .
C00M C 0.3317(7) 0.4383(6) 0.1242(4) 0.0684(13) Uani 1 1 d . . . . .
H00M H 0.429666 0.522996 0.165631 0.082 Uiso 1 1 calc R . . . .
C00N C 0.2005(8) 0.6401(5) 0.7062(5) 0.0740(15) Uani 1 1 d . . . . .
H00N H 0.193620 0.736399 0.730135 0.089 Uiso 1 1 calc R . . . .
C00O C 0.1797(8) 0.5359(6) 0.7808(4) 0.0691(13) Uani 1 1 d . . . . .
H00O H 0.162265 0.564642 0.853738 0.083 Uiso 1 1 calc R . . . .
C00P C 0.8805(7) 0.1539(7) 0.9462(5) 0.0791(16) Uani 1 1 d . . . . .
H00B H 0.931259 0.077160 0.921351 0.119 Uiso 1 1 calc GR . . . .
H00D H 0.856337 0.146133 1.021090 0.119 Uiso 1 1 calc GR . . . .
H00E H 0.959628 0.251737 0.946401 0.119 Uiso 1 1 calc GR . . . .
loop_
_atom_site_aniso_label
_atom_site_aniso_U_11
_atom_site_aniso_U_22
_atom_site_aniso_U_33
_atom_site_aniso_U_23
_atom_site_aniso_U_13
_atom_site_aniso_U_12
Se01 0.1206(5) 0.0465(3) 0.0383(3) 0.0091(2) 0.0086(3) 0.0169(3)
S002 0.0380(4) 0.0311(4) 0.0380(5) 0.0106(3) 0.0029(3) 0.0099(3)
O003 0.0375(13) 0.0510(15) 0.0620(18) 0.0229(14) 0.0108(12) 0.0104(11)
O004 0.0627(17) 0.0336(13) 0.0442(15) 0.0026(11) -0.0027(12) 0.0142(12)
C005 0.0325(15) 0.0231(14) 0.0245(14) 0.0064(11) 0.0029(12) 0.0116(12)
O006 0.127(3) 0.0394(16) 0.0509(18) 0.0172(14) 0.0166(19) 0.0136(17)
F007 0.123(3) 0.097(3) 0.087(3) 0.048(2) -0.008(2) 0.023(2)
C008 0.0476(19) 0.0347(17) 0.0347(18) 0.0088(14) 0.0017(15) 0.0119(15)
C009 0.0401(18) 0.0318(16) 0.0350(18) 0.0110(14) 0.0044(14) 0.0128(14)
C00A 0.0445(19) 0.048(2) 0.0361(19) 0.0071(16) 0.0067(15) 0.0206(16)
C00B 0.0412(18) 0.0369(18) 0.042(2) 0.0077(15) 0.0040(15) 0.0143(15)
C00C 0.0477(19) 0.0353(17) 0.0323(18) 0.0057(14) 0.0023(15) 0.0143(15)
C00D 0.0460(19) 0.0358(17) 0.0403(19) 0.0079(15) 0.0016(15) 0.0147(15)
C00E 0.058(2) 0.042(2) 0.040(2) 0.0119(16) 0.0027(17) 0.0133(17)
F00F 0.196(5) 0.124(3) 0.071(2) 0.015(2) 0.068(3) 0.040(3)
C00G 0.047(2) 0.060(2) 0.040(2) 0.0141(18) 0.0118(16) 0.0187(18)
C00H 0.047(2) 0.045(2) 0.056(3) 0.0094(18) -0.0057(18) 0.0170(17)
C00I 0.042(2) 0.053(2) 0.052(2) 0.0054(18) 0.0072(17) 0.0203(17)
C00J 0.069(3) 0.049(2) 0.045(2) 0.0127(18) 0.0195(19) 0.026(2)
C00K 0.061(3) 0.068(3) 0.036(2) 0.0109(19) 0.0039(18) 0.025(2)
C00L 0.092(3) 0.043(2) 0.054(3) 0.0155(19) 0.014(2) 0.031(2)
C00M 0.084(3) 0.073(3) 0.040(2) 0.016(2) 0.010(2) 0.009(3)
C00N 0.117(4) 0.047(2) 0.072(3) 0.005(2) 0.028(3) 0.043(3)
C00O 0.101(4) 0.060(3) 0.055(3) 0.007(2) 0.027(3) 0.034(3)
C00P 0.064(3) 0.095(4) 0.069(3) 0.004(3) -0.021(3) 0.027(3)
loop_
_atom_type_symbol
_atom_type_description
_atom_type_scat_dispersion_real
_atom_type_scat_dispersion_imag
_atom_type_scat_source
C C 0.0033 0.0016 'International Tables Vol C Tables 4.2.6.8 and 6.1.1.4'
H H 0.0000 0.0000 'International Tables Vol C Tables 4.2.6.8 and 6.1.1.4'
F F 0.0171 0.0103 'International Tables Vol C Tables 4.2.6.8 and 6.1.1.4'
O O 0.0106 0.0060 'International Tables Vol C Tables 4.2.6.8 and 6.1.1.4'
S S 0.1246 0.1234 'International Tables Vol C Tables 4.2.6.8 and 6.1.1.4'
Se Se -0.0929 2.2259 'International Tables Vol C Tables 4.2.6.8 and 6.1.1.4'
loop_
_geom_angle_atom_site_label_1
_geom_angle_atom_site_label_2
_geom_angle_atom_site_label_3
_geom_angle
_geom_angle_site_symmetry_1
_geom_angle_site_symmetry_3
_geom_angle_publ_flag
C00M Se01 C00E 94.08(19) . . ?
O003 S002 O004 120.58(18) . . ?
O003 S002 C005 106.77(16) . . ?
O003 S002 C009 108.55(17) . . ?
O004 S002 C005 104.53(16) . . ?
O004 S002 C009 109.94(17) . . ?
C005 S002 C009 105.36(15) . . ?
C00B C005 S002 127.4(3) . . ?
C00C C005 S002 123.5(2) . . ?
C00C C005 C00B 109.0(3) . . ?
C00C C008 C00D 107.7(3) . . ?
C00C C008 C00E 126.3(3) . . ?
C00D C008 C00E 126.0(3) . . ?
C00A C009 S002 119.0(3) . . ?
C00G C009 S002 119.9(3) . . ?
C00G C009 C00A 121.0(3) . . ?
C00I C00A C009 118.5(3) . . ?
C00D C00B C005 107.0(3) . . ?
C00J C00B C005 130.6(3) . . ?
C00J C00B C00D 122.3(3) . . ?
C008 C00C C005 109.7(3) . . ?
C00B C00D C008 106.5(3) . . ?
C00L C00D C008 134.4(4) . . ?
C00L C00D C00B 119.1(4) . . ?
O006 C00E Se01 120.8(3) . . ?
O006 C00E C008 125.3(4) . . ?
C008 C00E Se01 113.9(3) . . ?
C00K C00G C009 119.7(4) . . ?
C00I C00H C00K 119.3(4) . . ?
C00I C00H C00P 120.6(4) . . ?
C00K C00H C00P 120.1(4) . . ?
C00H C00I C00A 121.3(4) . . ?
C00B C00J C00O 117.8(4) . . ?
C00G C00K C00H 120.3(4) . . ?
C00N C00L C00D 118.7(4) . . ?
F007 C00M Se01 111.4(4) . . ?
F007 C00M F00F 103.9(4) . . ?
F00F C00M Se01 108.1(4) . . ?
C00L C00N C00O 121.7(4) . . ?
C00J C00O C00N 120.4(4) . . ?
loop_
_geom_bond_atom_site_label_1
_geom_bond_atom_site_label_2
_geom_bond_distance
_geom_bond_site_symmetry_2
_geom_bond_publ_flag
Se01 C00E 1.961(4) . ?
Se01 C00M 1.942(5) . ?
S002 O003 1.428(3) . ?
S002 O004 1.432(3) . ?
S002 C005 1.682(3) . ?
S002 C009 1.758(4) . ?
C005 C00B 1.413(5) . ?
C005 C00C 1.376(5) . ?
O006 C00E 1.198(5) . ?
F007 C00M 1.337(7) . ?
C008 C00C 1.364(5) . ?
C008 C00D 1.453(5) . ?
C008 C00E 1.462(5) . ?
C009 C00A 1.396(5) . ?
C009 C00G 1.383(5) . ?
C00A C00I 1.392(5) . ?
C00B C00D 1.412(5) . ?
C00B C00J 1.382(6) . ?
C00D C00L 1.392(6) . ?
F00F C00M 1.340(6) . ?
C00G C00K 1.381(6) . ?
C00H C00I 1.378(6) . ?
C00H C00K 1.403(6) . ?
C00H C00P 1.506(6) . ?
C00J C00O 1.386(6) . ?
C00L C00N 1.377(7) . ?
C00N C00O 1.403(7) . ?
